=
 OpenBabel10262422513D

 37 41  0  0  1  0  0  0  0  0999 V2000
  180.2140  176.8010  138.7680 C   0  0  0  0  0  0  0  0  0  0  0  0
  183.1800  177.9010  137.0480 C   0  0  2  0  0  3  0  0  0  0  0  0
  182.3250  175.6580  138.2710 C   0  0  0  0  0  2  0  0  0  0  0  0
  183.8230  178.2400  138.4080 C   0  0  0  0  0  2  0  0  0  0  0  0
  181.6470  177.7390  137.1370 C   0  0  2  0  0  3  0  0  0  0  0  0
  185.3030  177.8650  138.4920 C   0  0  1  0  0  3  0  0  0  0  0  0
  183.0860  174.3220  136.3050 C   0  0  0  0  0  1  0  0  0  0  0  0
  180.8400  178.8720  137.7790 C   0  0  1  0  0  3  0  0  0  0  0  0
  180.3740  176.0580  139.9450 O   0  0  0  0  0  1  0  0  0  0  0  0
  185.4150  177.1180  134.7350 C   0  0  0  0  0  1  0  0  0  0  0  0
  183.4500  175.4590  137.2410 C   0  0  1  0  0  3  0  0  0  0  0  0
  180.3630  178.2770  139.0790 C   0  0  0  0  0  2  0  0  0  0  0  0
  183.7370  176.6730  136.4540 N   0  0  2  0  0  0  0  0  0  0  0  0
  181.2060  176.4530  137.7280 N   0  0  2  0  0  0  0  0  0  0  0  0
  185.9530  177.7370  137.1040 C   0  0  2  0  0  3  0  0  0  0  0  0
  178.9310  176.5720  138.2660 O   0  0  0  0  0  1  0  0  0  0  0  0
  185.1830  176.7600  136.1920 C   0  0  2  0  0  3  0  0  0  0  0  0
  188.3870  178.3110  137.2340 C   0  0  0  0  0  3  0  0  0  0  0  0
  187.3950  177.3260  137.1960 C   0  0  0  0  0  0  0  0  0  0  0  0
  187.7600  175.9710  137.2410 C   0  0  0  0  0  3  0  0  0  0  0  0
  189.4560  174.3020  137.3690 F   0  0  0  0  0  0  0  0  0  0  0  0
  190.0950  176.5980  137.3650 C   0  0  0  0  0  3  0  0  0  0  0  0
  189.1070  175.6090  137.3260 C   0  0  0  0  0  0  0  0  0  0  0  0
  189.7350  177.9490  137.3190 C   0  0  0  0  0  3  0  0  0  0  0  0
  181.3240  180.7640  139.3480 C   0  0  0  0  0  2  0  0  0  0  0  0
  180.1740  181.7480  139.2290 C   0  0  1  0  0  3  0  0  0  0  0  0
  180.9340  181.2640  137.0500 C   0  0  0  0  0  2  0  0  0  0  0  0
  179.8990  181.9590  137.8100 N   0  0  0  0  0  0  0  0  0  0  0  0
  181.5540  180.2200  137.9560 C   0  0  2  0  0  3  0  0  0  0  0  0
  178.9340  181.1920  139.9090 C   0  0  0  0  0  2  0  0  0  0  0  0
  179.1080  181.1900  141.2930 O   0  0  0  0  0  1  0  0  0  0  0  0
  179.9130  183.3930  137.4850 C   0  0  0  0  0  2  0  0  0  0  0  0
  181.1670  183.8520  136.7970 C   0  0  0  0  0  0  0  0  0  0  0  0
  181.1950  183.9510  135.5420 O   0  0  0  0  0  0  0  0  0  0  0  0
  182.2900  184.1850  137.5420 O   0  0  0  0  0  1  0  0  0  0  0  0
  186.0260  178.8370  139.3830 C   0  0  0  0  0  3  0  0  0  0  0  0
  185.8570  178.8440  140.7070 C   0  0  0  0  0  2  0  0  0  0  0  0
  1 12  1  0  0  0  0
  1  9  1  0  0  0  0
  2  5  1  0  0  0  0
  2  4  1  1  0  0  0
  4  6  1  0  0  0  0
  5 14  1  0  0  0  0
  5  8  1  0  0  0  0
  6 36  1  0  0  0  0
  7 11  1  0  0  0  0
  8 29  1  0  0  0  0
  8 12  1  0  0  0  0
 10 17  1  0  0  0  0
 11  3  1  0  0  0  0
 13  2  1  0  0  0  0
 13 11  1  0  0  0  0
 14  3  1  0  0  0  0
 14  1  1  0  0  0  0
 15 19  1  0  0  0  0
 15  6  1  0  0  0  0
 16  1  1  0  0  0  0
 17 13  1  0  0  0  0
 17 15  1  0  0  0  0
 18 24  1  0  0  0  0
 19 18  2  0  0  0  0
 19 20  1  0  0  0  0
 20 23  2  0  0  0  0
 23 22  1  0  0  0  0
 23 21  1  0  0  0  0
 24 22  2  0  0  0  0
 26 25  1  0  0  0  0
 26 30  1  0  0  0  0
 27 28  1  0  0  0  0
 27 29  1  0  0  0  0
 28 26  1  0  0  0  0
 29 25  1  0  0  0  0
 30 31  1  0  0  0  0
 32 28  1  0  0  0  0
 33 32  1  0  0  0  0
 33 35  1  0  0  0  0
 34 33  2  0  0  0  0
 36 37  2  0  0  0  0
M  END
>  <MODEL>
1

>  <REMARK>
 VINA RESULT:      -6.3      0.000      0.000
  Name = 
  6 active torsions:
  status: ('A' for Active; 'I' for Inactive)
    1  A    between atoms: C_5  and  C_12
    2  A    between atoms: C_6  and  C_31
    3  A    between atoms: C_7  and  C_14
    4  A    between atoms: C_11  and  C_26
    5  A    between atoms: C_20  and  C_36
    6  A    between atoms: C_26  and  N_33
                            x       y       z     vdW  Elec       q    Type
                         _______ _______ _______ _____ _____    ______ ____

>  <TORSDO>
F 6

$$$$
=
 OpenBabel10262422513D

 37 41  0  0  1  0  0  0  0  0999 V2000
  180.8050  177.0410  138.1420 C   0  0  0  0  0  0  0  0  0  0  0  0
  183.9850  178.7130  138.3800 C   0  0  2  0  0  3  0  0  0  0  0  0
  183.0870  176.1730  138.3580 C   0  0  0  0  0  2  0  0  0  0  0  0
  183.9190  178.5840  139.9160 C   0  0  0  0  0  2  0  0  0  0  0  0
  182.6120  178.5020  137.7050 C   0  0  2  0  0  3  0  0  0  0  0  0
  185.2630  178.2310  140.5550 C   0  0  1  0  0  3  0  0  0  0  0  0
  184.8290  175.5970  136.6660 C   0  0  0  0  0  1  0  0  0  0  0  0
  181.4290  179.3360  138.2060 C   0  0  1  0  0  3  0  0  0  0  0  0
  180.5730  175.9460  138.9860 O   0  0  0  0  0  1  0  0  0  0  0  0
  187.0890  178.8020  137.2350 C   0  0  0  0  0  1  0  0  0  0  0  0
  184.5600  176.3560  137.9510 C   0  0  1  0  0  3  0  0  0  0  0  0
  180.5530  178.3260  138.9030 C   0  0  0  0  0  2  0  0  0  0  0  0
  184.9430  177.7700  137.7780 N   0  0  2  0  0  0  0  0  0  0  0  0
  182.1890  177.0840  137.6220 N   0  0  2  0  0  0  0  0  0  0  0  0
  186.4530  178.5920  139.6510 C   0  0  2  0  0  3  0  0  0  0  0  0
  179.9180  176.9710  137.0660 O   0  0  0  0  0  1  0  0  0  0  0  0
  186.3240  177.9680  138.2470 C   0  0  2  0  0  3  0  0  0  0  0  0
  188.6780  177.4510  139.5190 C   0  0  0  0  0  3  0  0  0  0  0  0
  187.7650  178.2010  140.2690 C   0  0  0  0  0  0  0  0  0  0  0  0
  188.0860  178.5720  141.5840 C   0  0  0  0  0  3  0  0  0  0  0  0
  189.6170  178.5560  143.4090 F   0  0  0  0  0  0  0  0  0  0  0  0
  190.2210  177.4490  141.3870 C   0  0  0  0  0  3  0  0  0  0  0  0
  189.3110  178.1960  142.1410 C   0  0  0  0  0  0  0  0  0  0  0  0
  189.9050  177.0760  140.0770 C   0  0  0  0  0  3  0  0  0  0  0  0
  180.4890  181.1860  139.6090 C   0  0  0  0  0  2  0  0  0  0  0  0
  180.1670  182.3380  138.6730 C   0  0  1  0  0  3  0  0  0  0  0  0
  182.3800  181.6500  138.2330 C   0  0  0  0  0  2  0  0  0  0  0  0
  181.3080  182.5330  137.7820 N   0  0  0  0  0  0  0  0  0  0  0  0
  181.7570  180.5570  139.0770 C   0  0  2  0  0  3  0  0  0  0  0  0
  178.9310  182.0170  137.8510 C   0  0  0  0  0  2  0  0  0  0  0  0
  179.3040  181.5110  136.6050 O   0  0  0  0  0  1  0  0  0  0  0  0
  181.7600  183.9320  137.8140 C   0  0  0  0  0  2  0  0  0  0  0  0
  180.9080  184.8680  137.0050 C   0  0  0  0  0  0  0  0  0  0  0  0
  180.9590  184.8370  135.7480 O   0  0  0  0  0  0  0  0  0  0  0  0
  180.0510  185.7570  137.6420 O   0  0  0  0  0  1  0  0  0  0  0  0
  185.3590  178.8560  141.9190 C   0  0  0  0  0  3  0  0  0  0  0  0
  184.6320  178.4220  142.9500 C   0  0  0  0  0  2  0  0  0  0  0  0
  1 12  1  0  0  0  0
  1  9  1  0  0  0  0
  2  4  1  1  0  0  0
  4  6  1  0  0  0  0
  5  8  1  0  0  0  0
  5  2  1  0  0  0  0
  6 36  1  0  0  0  0
  7 11  1  0  0  0  0
  8 12  1  0  0  0  0
  8 29  1  0  0  0  0
 10 17  1  0  0  0  0
 11  3  1  0  0  0  0
 13 11  1  0  0  0  0
 13 17  1  0  0  0  0
 13  2  1  0  0  0  0
 14  5  1  0  0  0  0
 14  1  1  0  0  0  0
 14  3  1  0  0  0  0
 15 19  1  0  0  0  0
 15  6  1  0  0  0  0
 16  1  1  0  0  0  0
 17 15  1  0  0  0  0
 18 24  2  0  0  0  0
 18 19  1  0  0  0  0
 19 20  2  0  0  0  0
 20 23  1  0  0  0  0
 22 23  2  0  0  0  0
 23 21  1  0  0  0  0
 24 22  1  0  0  0  0
 26 25  1  0  0  0  0
 27 29  1  0  0  0  0
 28 32  1  0  0  0  0
 28 27  1  0  0  0  0
 28 26  1  0  0  0  0
 29 25  1  0  0  0  0
 30 26  1  0  0  0  0
 31 30  1  0  0  0  0
 33 35  1  0  0  0  0
 33 32  1  0  0  0  0
 34 33  2  0  0  0  0
 36 37  2  0  0  0  0
M  END
>  <MODEL>
2

>  <REMARK>
 VINA RESULT:      -6.0      2.163      2.712
  Name = 
  6 active torsions:
  status: ('A' for Active; 'I' for Inactive)
    1  A    between atoms: C_5  and  C_12
    2  A    between atoms: C_6  and  C_31
    3  A    between atoms: C_7  and  C_14
    4  A    between atoms: C_11  and  C_26
    5  A    between atoms: C_20  and  C_36
    6  A    between atoms: C_26  and  N_33
                            x       y       z     vdW  Elec       q    Type
                         _______ _______ _______ _____ _____    ______ ____

>  <TORSDO>
F 6

$$$$
=
 OpenBabel10262422513D

 37 41  0  0  1  0  0  0  0  0999 V2000
  188.3110  178.1890  139.0700 C   0  0  0  0  0  0  0  0  0  0  0  0
  186.1080  176.7080  136.6360 C   0  0  2  0  0  3  0  0  0  0  0  0
  185.8820  177.8590  139.0620 C   0  0  0  0  0  2  0  0  0  0  0  0
  186.1650  175.3800  137.4170 C   0  0  0  0  0  2  0  0  0  0  0  0
  187.2500  177.6740  137.0200 C   0  0  2  0  0  3  0  0  0  0  0  0
  184.8160  174.6630  137.4980 C   0  0  1  0  0  3  0  0  0  0  0  0
  184.0020  179.2570  138.1980 C   0  0  0  0  0  1  0  0  0  0  0  0
  188.6870  177.1480  136.9650 C   0  0  1  0  0  3  0  0  0  0  0  0
  188.0990  177.8810  140.4210 O   0  0  0  0  0  1  0  0  0  0  0  0
  183.2790  177.0880  134.9610 C   0  0  0  0  0  1  0  0  0  0  0  0
  184.6020  177.8630  138.2070 C   0  0  1  0  0  3  0  0  0  0  0  0
  189.0930  177.0700  138.4140 C   0  0  0  0  0  2  0  0  0  0  0  0
  184.8280  177.4140  136.8210 N   0  0  2  0  0  0  0  0  0  0  0  0
  187.0510  178.3650  138.3160 N   0  0  2  0  0  0  0  0  0  0  0  0
  183.8510  175.1070  136.3870 C   0  0  2  0  0  3  0  0  0  0  0  0
  189.0550  179.3670  138.9910 O   0  0  0  0  0  1  0  0  0  0  0  0
  183.6670  176.6380  136.3580 C   0  0  2  0  0  3  0  0  0  0  0  0
  182.0980  173.5620  135.4870 C   0  0  0  0  0  3  0  0  0  0  0  0
  182.5150  174.4300  136.5020 C   0  0  0  0  0  0  0  0  0  0  0  0
  181.6810  174.6580  137.6070 C   0  0  0  0  0  3  0  0  0  0  0  0
  179.6380  174.2410  138.7610 F   0  0  0  0  0  0  0  0  0  0  0  0
  180.0290  173.1520  136.6780 C   0  0  0  0  0  3  0  0  0  0  0  0
  180.4400  174.0190  137.6940 C   0  0  0  0  0  0  0  0  0  0  0  0
  180.8570  172.9230  135.5750 C   0  0  0  0  0  3  0  0  0  0  0  0
  189.5730  174.8080  137.0940 C   0  0  0  0  0  2  0  0  0  0  0  0
  191.0600  174.8750  136.7930 C   0  0  1  0  0  3  0  0  0  0  0  0
  189.9270  176.0490  135.0890 C   0  0  0  0  0  2  0  0  0  0  0  0
  191.2480  175.7200  135.6160 N   0  0  0  0  0  0  0  0  0  0  0  0
  188.9180  175.8360  136.2000 C   0  0  2  0  0  3  0  0  0  0  0  0
  191.8080  175.4740  137.9720 C   0  0  0  0  0  2  0  0  0  0  0  0
  192.4120  176.6750  137.5930 O   0  0  0  0  0  1  0  0  0  0  0  0
  192.0380  175.0180  134.5940 C   0  0  0  0  0  2  0  0  0  0  0  0
  193.5250  175.1440  134.7760 C   0  0  0  0  0  0  0  0  0  0  0  0
  194.2270  174.1140  134.9460 O   0  0  0  0  0  1  0  0  0  0  0  0
  194.1280  176.3950  134.7390 O   0  0  0  0  0  0  0  0  0  0  0  0
  185.0300  173.1750  137.5210 C   0  0  0  0  0  3  0  0  0  0  0  0
  186.0630  172.5980  136.9020 C   0  0  0  0  0  2  0  0  0  0  0  0
  1  9  1  0  0  0  0
  2 13  1  0  0  0  0
  2  5  1  0  0  0  0
  2  4  1  1  0  0  0
  4  6  1  0  0  0  0
  5 14  1  0  0  0  0
  6 36  1  0  0  0  0
  7 11  1  0  0  0  0
  8  5  1  0  0  0  0
  8 12  1  0  0  0  0
 10 17  1  0  0  0  0
 11  3  1  0  0  0  0
 12  1  1  0  0  0  0
 13 11  1  0  0  0  0
 14  3  1  0  0  0  0
 14  1  1  0  0  0  0
 15 19  1  0  0  0  0
 15  6  1  0  0  0  0
 16  1  1  0  0  0  0
 17 15  1  0  0  0  0
 17 13  1  0  0  0  0
 18 24  2  0  0  0  0
 18 19  1  0  0  0  0
 19 20  2  0  0  0  0
 20 23  1  0  0  0  0
 22 23  2  0  0  0  0
 23 21  1  0  0  0  0
 24 22  1  0  0  0  0
 26 25  1  0  0  0  0
 26 30  1  0  0  0  0
 27 28  1  0  0  0  0
 27 29  1  0  0  0  0
 28 26  1  0  0  0  0
 29  8  1  0  0  0  0
 29 25  1  0  0  0  0
 31 30  1  0  0  0  0
 32 33  1  0  0  0  0
 32 28  1  0  0  0  0
 33 34  1  0  0  0  0
 35 33  2  0  0  0  0
 37 36  2  0  0  0  0
M  END
>  <MODEL>
3

>  <REMARK>
 VINA RESULT:      -5.9      5.233      9.268
  Name = 
  6 active torsions:
  status: ('A' for Active; 'I' for Inactive)
    1  A    between atoms: C_5  and  C_12
    2  A    between atoms: C_6  and  C_31
    3  A    between atoms: C_7  and  C_14
    4  A    between atoms: C_11  and  C_26
    5  A    between atoms: C_20  and  C_36
    6  A    between atoms: C_26  and  N_33
                            x       y       z     vdW  Elec       q    Type
                         _______ _______ _______ _____ _____    ______ ____

>  <TORSDO>
F 6

$$$$
=
 OpenBabel10262422513D

 37 41  0  0  1  0  0  0  0  0999 V2000
  180.1370  181.1790  136.3050 C   0  0  0  0  0  0  0  0  0  0  0  0
  181.1320  178.7780  138.7970 C   0  0  2  0  0  3  0  0  0  0  0  0
  180.5240  181.4010  138.7150 C   0  0  0  0  0  2  0  0  0  0  0  0
  182.5930  179.2460  138.6420 C   0  0  0  0  0  2  0  0  0  0  0  0
  180.2380  179.2140  137.6170 C   0  0  2  0  0  3  0  0  0  0  0  0
  183.3470  179.3400  139.9690 C   0  0  1  0  0  3  0  0  0  0  0  0
  179.0270  181.0940  140.6890 C   0  0  0  0  0  1  0  0  0  0  0  0
  180.7020  178.8700  136.1980 C   0  0  1  0  0  3  0  0  0  0  0  0
  180.7280  182.4490  136.3430 O   0  0  0  0  0  1  0  0  0  0  0  0
  180.4850  177.5850  141.8170 C   0  0  0  0  0  1  0  0  0  0  0  0
  180.3750  180.7330  140.0930 C   0  0  1  0  0  3  0  0  0  0  0  0
  181.0720  180.2090  135.6110 C   0  0  0  0  0  2  0  0  0  0  0  0
  180.5170  179.2660  140.0440 N   0  0  2  0  0  0  0  0  0  0  0  0
  179.8410  180.6410  137.6500 N   0  0  2  0  0  0  0  0  0  0  0  0
  182.7060  178.4760  141.0670 C   0  0  2  0  0  3  0  0  0  0  0  0
  178.9490  181.2600  135.5770 O   0  0  0  0  0  1  0  0  0  0  0  0
  181.2090  178.7960  141.2550 C   0  0  2  0  0  3  0  0  0  0  0  0
  182.7750  179.2080  143.4620 C   0  0  0  0  0  3  0  0  0  0  0  0
  183.4280  178.6100  142.3780 C   0  0  0  0  0  0  0  0  0  0  0  0
  184.7440  178.1480  142.5300 C   0  0  0  0  0  3  0  0  0  0  0  0
  186.6690  177.8370  143.9000 F   0  0  0  0  0  0  0  0  0  0  0  0
  184.7420  178.8800  144.8370 C   0  0  0  0  0  3  0  0  0  0  0  0
  185.3990  178.2830  143.7570 C   0  0  0  0  0  0  0  0  0  0  0  0
  183.4300  179.3420  144.6900 C   0  0  0  0  0  3  0  0  0  0  0  0
  181.6420  177.0190  134.7960 C   0  0  0  0  0  2  0  0  0  0  0  0
  180.9260  175.7430  135.2010 C   0  0  1  0  0  3  0  0  0  0  0  0
  181.6980  176.7900  137.1680 C   0  0  0  0  0  2  0  0  0  0  0  0
  180.8950  175.6820  136.6610 N   0  0  0  0  0  0  0  0  0  0  0  0
  181.8160  177.8220  136.0660 C   0  0  2  0  0  3  0  0  0  0  0  0
  179.5050  175.7450  134.6640 C   0  0  0  0  0  2  0  0  0  0  0  0
  178.9310  174.4830  134.8270 O   0  0  0  0  0  1  0  0  0  0  0  0
  181.4400  174.4030  137.1390 C   0  0  0  0  0  2  0  0  0  0  0  0
  180.6780  173.8040  138.2870 C   0  0  0  0  0  0  0  0  0  0  0  0
  180.4640  174.4850  139.3230 O   0  0  0  0  0  1  0  0  0  0  0  0
  180.1930  172.5050  138.2000 O   0  0  0  0  0  0  0  0  0  0  0  0
  184.8010  179.0200  139.7540 C   0  0  0  0  0  3  0  0  0  0  0  0
  185.2560  178.5410  138.5940 C   0  0  0  0  0  2  0  0  0  0  0  0
  1  9  1  0  0  0  0
  1 14  1  0  0  0  0
  2  4  1  6  0  0  0
  2 13  1  0  0  0  0
  3 11  1  0  0  0  0
  4  6  1  0  0  0  0
  5 14  1  0  0  0  0
  5  2  1  0  0  0  0
  6 15  1  0  0  0  0
  8  5  1  0  0  0  0
 11  7  1  0  0  0  0
 12  8  1  0  0  0  0
 12  1  1  0  0  0  0
 13 11  1  0  0  0  0
 13 17  1  0  0  0  0
 14  3  1  0  0  0  0
 15 17  1  0  0  0  0
 15 19  1  0  0  0  0
 16  1  1  0  0  0  0
 17 10  1  0  0  0  0
 18 24  1  0  0  0  0
 19 20  1  0  0  0  0
 19 18  2  0  0  0  0
 20 23  2  0  0  0  0
 23 21  1  0  0  0  0
 23 22  1  0  0  0  0
 24 22  2  0  0  0  0
 25 26  1  0  0  0  0
 25 29  1  0  0  0  0
 26 28  1  0  0  0  0
 28 32  1  0  0  0  0
 28 27  1  0  0  0  0
 29  8  1  0  0  0  0
 29 27  1  0  0  0  0
 30 31  1  0  0  0  0
 30 26  1  0  0  0  0
 32 33  1  0  0  0  0
 33 34  1  0  0  0  0
 35 33  2  0  0  0  0
 36  6  1  0  0  0  0
 37 36  2  0  0  0  0
M  END
>  <MODEL>
4

>  <REMARK>
 VINA RESULT:      -5.6      2.892      6.820
  Name = 
  6 active torsions:
  status: ('A' for Active; 'I' for Inactive)
    1  A    between atoms: C_5  and  C_12
    2  A    between atoms: C_6  and  C_31
    3  A    between atoms: C_7  and  C_14
    4  A    between atoms: C_11  and  C_26
    5  A    between atoms: C_20  and  C_36
    6  A    between atoms: C_26  and  N_33
                            x       y       z     vdW  Elec       q    Type
                         _______ _______ _______ _____ _____    ______ ____

>  <TORSDO>
F 6

$$$$
=
 OpenBabel10262422513D

 37 41  0  0  1  0  0  0  0  0999 V2000
  189.2130  177.0620  135.5720 C   0  0  0  0  0  0  0  0  0  0  0  0
  186.4600  176.2710  137.7540 C   0  0  2  0  0  3  0  0  0  0  0  0
  186.8230  176.7510  135.1280 C   0  0  0  0  0  2  0  0  0  0  0  0
  186.1240  177.7730  137.8480 C   0  0  0  0  0  2  0  0  0  0  0  0
  187.8870  176.0110  137.2240 C   0  0  2  0  0  3  0  0  0  0  0  0
  184.6230  178.0640  137.8170 C   0  0  1  0  0  3  0  0  0  0  0  0
  185.4660  174.7240  134.5940 C   0  0  0  0  0  1  0  0  0  0  0  0
  189.0530  176.7200  137.9210 C   0  0  1  0  0  3  0  0  0  0  0  0
  189.0140  178.0450  134.5940 O   0  0  0  0  0  1  0  0  0  0  0  0
  183.8070  174.3370  138.1710 C   0  0  0  0  0  1  0  0  0  0  0  0
  185.5580  175.9490  135.4840 C   0  0  1  0  0  3  0  0  0  0  0  0
  189.5190  177.7260  136.8990 C   0  0  0  0  0  2  0  0  0  0  0  0
  185.5120  175.5360  136.8990 N   0  0  2  0  0  0  0  0  0  0  0  0
  188.0330  176.1910  135.7600 N   0  0  2  0  0  0  0  0  0  0  0  0
  183.7830  176.8430  138.2260 C   0  0  2  0  0  3  0  0  0  0  0  0
  190.3040  176.2740  135.1990 O   0  0  0  0  0  1  0  0  0  0  0  0
  184.1250  175.5970  137.3850 C   0  0  2  0  0  3  0  0  0  0  0  0
  181.7380  177.4500  136.9140 C   0  0  0  0  0  3  0  0  0  0  0  0
  182.3100  177.1270  138.1500 C   0  0  0  0  0  0  0  0  0  0  0  0
  181.5010  177.0750  139.2960 C   0  0  0  0  0  3  0  0  0  0  0  0
  179.3570  177.2920  140.3120 F   0  0  0  0  0  0  0  0  0  0  0  0
  179.5660  177.6640  137.9670 C   0  0  0  0  0  3  0  0  0  0  0  0
  180.1330  177.3430  139.2040 C   0  0  0  0  0  0  0  0  0  0  0  0
  180.3680  177.7180  136.8230 C   0  0  0  0  0  3  0  0  0  0  0  0
  189.7970  178.3990  139.6250 C   0  0  0  0  0  2  0  0  0  0  0  0
  190.8340  177.7180  140.5010 C   0  0  1  0  0  3  0  0  0  0  0  0
  188.9480  176.3050  140.3860 C   0  0  0  0  0  2  0  0  0  0  0  0
  190.3220  176.4000  140.8710 N   0  0  0  0  0  0  0  0  0  0  0  0
  188.7680  177.3410  139.2960 C   0  0  2  0  0  3  0  0  0  0  0  0
  192.1410  177.5590  139.7420 C   0  0  0  0  0  2  0  0  0  0  0  0
  192.1280  176.3690  139.0120 O   0  0  0  0  0  1  0  0  0  0  0  0
  190.3560  176.2210  142.3300 C   0  0  0  0  0  2  0  0  0  0  0  0
  189.1800  176.8200  143.0470 C   0  0  0  0  0  0  0  0  0  0  0  0
  189.1690  178.0490  143.3190 O   0  0  0  0  0  0  0  0  0  0  0  0
  188.0950  176.0250  143.3940 O   0  0  0  0  0  1  0  0  0  0  0  0
  184.3220  179.2810  138.6470 C   0  0  0  0  0  3  0  0  0  0  0  0
  184.5290  179.3080  139.9650 C   0  0  0  0  0  2  0  0  0  0  0  0
  1 14  1  0  0  0  0
  1 12  1  0  0  0  0
  2  4  1  6  0  0  0
  3 11  1  0  0  0  0
  3 14  1  0  0  0  0
  5  2  1  0  0  0  0
  5  8  1  0  0  0  0
  6  4  1  0  0  0  0
  6 15  1  0  0  0  0
  6 36  1  0  0  0  0
  7 11  1  0  0  0  0
  8 29  1  0  0  0  0
  9  1  1  0  0  0  0
 11 13  1  0  0  0  0
 12  8  1  0  0  0  0
 13 17  1  0  0  0  0
 13  2  1  0  0  0  0
 14  5  1  0  0  0  0
 16  1  1  0  0  0  0
 17 10  1  0  0  0  0
 17 15  1  0  0  0  0
 18 19  1  0  0  0  0
 19 15  1  0  0  0  0
 19 20  2  0  0  0  0
 22 23  2  0  0  0  0
 23 20  1  0  0  0  0
 23 21  1  0  0  0  0
 24 18  2  0  0  0  0
 24 22  1  0  0  0  0
 25 26  1  0  0  0  0
 26 28  1  0  0  0  0
 27 28  1  0  0  0  0
 28 32  1  0  0  0  0
 29 25  1  0  0  0  0
 29 27  1  0  0  0  0
 30 26  1  0  0  0  0
 31 30  1  0  0  0  0
 32 33  1  0  0  0  0
 33 34  2  0  0  0  0
 33 35  1  0  0  0  0
 36 37  2  0  0  0  0
M  END
>  <MODEL>
5

>  <REMARK>
 VINA RESULT:      -5.6      4.841      8.640
  Name = 
  6 active torsions:
  status: ('A' for Active; 'I' for Inactive)
    1  A    between atoms: C_5  and  C_12
    2  A    between atoms: C_6  and  C_31
    3  A    between atoms: C_7  and  C_14
    4  A    between atoms: C_11  and  C_26
    5  A    between atoms: C_20  and  C_36
    6  A    between atoms: C_26  and  N_33
                            x       y       z     vdW  Elec       q    Type
                         _______ _______ _______ _____ _____    ______ ____

>  <TORSDO>
F 6

$$$$
=
 OpenBabel10262422513D

 37 41  0  0  1  0  0  0  0  0999 V2000
  191.6170  177.0370  139.9480 C   0  0  0  0  0  0  0  0  0  0  0  0
  189.6360  176.3850  137.0120 C   0  0  2  0  0  3  0  0  0  0  0  0
  189.1920  176.8690  139.6240 C   0  0  0  0  0  2  0  0  0  0  0  0
  189.5650  174.8970  137.4100 C   0  0  0  0  0  2  0  0  0  0  0  0
  190.7630  177.1450  137.7450 C   0  0  2  0  0  3  0  0  0  0  0  0
  188.1920  174.2680  137.1700 C   0  0  1  0  0  3  0  0  0  0  0  0
  187.4640  178.5570  138.9950 C   0  0  0  0  0  1  0  0  0  0  0  0
  192.1790  176.5650  137.6850 C   0  0  1  0  0  3  0  0  0  0  0  0
  191.2530  176.3980  141.1400 O   0  0  0  0  0  1  0  0  0  0  0  0
  187.0160  177.3640  135.2430 C   0  0  0  0  0  1  0  0  0  0  0  0
  188.0120  177.1760  138.6870 C   0  0  1  0  0  3  0  0  0  0  0  0
  192.4260  176.0840  139.0920 C   0  0  0  0  0  2  0  0  0  0  0  0
  188.3690  177.0940  137.2580 N   0  0  2  0  0  0  0  0  0  0  0  0
  190.4510  177.4820  139.1540 N   0  0  2  0  0  0  0  0  0  0  0  0
  187.3660  175.0470  136.1330 C   0  0  2  0  0  3  0  0  0  0  0  0
  192.4050  178.1470  140.2570 O   0  0  0  0  0  1  0  0  0  0  0  0
  187.2370  176.5390  136.4980 C   0  0  2  0  0  3  0  0  0  0  0  0
  185.7510  173.6780  134.7950 C   0  0  0  0  0  3  0  0  0  0  0  0
  186.0030  174.4460  135.9370 C   0  0  0  0  0  0  0  0  0  0  0  0
  184.9810  174.6470  136.8780 C   0  0  0  0  0  3  0  0  0  0  0  0
  182.7360  174.2760  137.5860 F   0  0  0  0  0  0  0  0  0  0  0  0
  183.4730  173.3120  135.5350 C   0  0  0  0  0  3  0  0  0  0  0  0
  183.7190  174.0810  136.6770 C   0  0  0  0  0  0  0  0  0  0  0  0
  184.4880  173.1110  134.5940 C   0  0  0  0  0  3  0  0  0  0  0  0
  192.9150  174.2060  137.2700 C   0  0  0  0  0  2  0  0  0  0  0  0
  194.4310  174.2200  137.1790 C   0  0  1  0  0  3  0  0  0  0  0  0
  193.6080  175.8990  135.7420 C   0  0  0  0  0  2  0  0  0  0  0  0
  194.8250  175.3280  136.3110 N   0  0  0  0  0  0  0  0  0  0  0  0
  192.4450  175.4890  136.6220 C   0  0  2  0  0  3  0  0  0  0  0  0
  195.0390  174.4160  138.5580 C   0  0  0  0  0  2  0  0  0  0  0  0
  195.3360  173.1770  139.1280 O   0  0  0  0  0  1  0  0  0  0  0  0
  195.7110  174.8560  135.2370 C   0  0  0  0  0  2  0  0  0  0  0  0
  197.1700  175.1160  135.4900 C   0  0  0  0  0  0  0  0  0  0  0  0
  198.0400  174.5920  134.7460 O   0  0  0  0  0  0  0  0  0  0  0  0
  197.5600  175.9490  136.5300 O   0  0  0  0  0  1  0  0  0  0  0  0
  188.3510  172.8160  136.8130 C   0  0  0  0  0  3  0  0  0  0  0  0
  189.1520  172.4140  135.8240 C   0  0  0  0  0  2  0  0  0  0  0  0
  1 16  1  0  0  0  0
  1  9  1  0  0  0  0
  2 13  1  0  0  0  0
  2  4  1  1  0  0  0
  2  5  1  0  0  0  0
  5 14  1  0  0  0  0
  6  4  1  0  0  0  0
  8  5  1  0  0  0  0
  8 12  1  0  0  0  0
 10 17  1  0  0  0  0
 11  7  1  0  0  0  0
 11  3  1  0  0  0  0
 12  1  1  0  0  0  0
 13 11  1  0  0  0  0
 14  3  1  0  0  0  0
 14  1  1  0  0  0  0
 15 17  1  0  0  0  0
 15  6  1  0  0  0  0
 17 13  1  0  0  0  0
 18 19  1  0  0  0  0
 19 15  1  0  0  0  0
 19 20  2  0  0  0  0
 22 23  2  0  0  0  0
 23 20  1  0  0  0  0
 23 21  1  0  0  0  0
 24 18  2  0  0  0  0
 24 22  1  0  0  0  0
 26 25  1  0  0  0  0
 26 30  1  0  0  0  0
 27 28  1  0  0  0  0
 27 29  1  0  0  0  0
 28 26  1  0  0  0  0
 29 25  1  0  0  0  0
 29  8  1  0  0  0  0
 30 31  1  0  0  0  0
 32 33  1  0  0  0  0
 32 28  1  0  0  0  0
 33 35  1  0  0  0  0
 34 33  2  0  0  0  0
 36  6  1  0  0  0  0
 37 36  2  0  0  0  0
M  END
>  <MODEL>
6

>  <REMARK>
 VINA RESULT:      -5.6      6.712     11.108
  Name = 
  6 active torsions:
  status: ('A' for Active; 'I' for Inactive)
    1  A    between atoms: C_5  and  C_12
    2  A    between atoms: C_6  and  C_31
    3  A    between atoms: C_7  and  C_14
    4  A    between atoms: C_11  and  C_26
    5  A    between atoms: C_20  and  C_36
    6  A    between atoms: C_26  and  N_33
                            x       y       z     vdW  Elec       q    Type
                         _______ _______ _______ _____ _____    ______ ____

>  <TORSDO>
F 6

$$$$
=
 OpenBabel10262422513D

 37 41  0  0  1  0  0  0  0  0999 V2000
  188.6520  178.9270  137.6690 C   0  0  0  0  0  0  0  0  0  0  0  0
  189.2030  176.6900  140.4370 C   0  0  2  0  0  3  0  0  0  0  0  0
  188.3360  179.2160  140.0830 C   0  0  0  0  0  2  0  0  0  0  0  0
  190.5860  177.3360  140.6630 C   0  0  0  0  0  2  0  0  0  0  0  0
  188.6210  177.0010  139.0410 C   0  0  2  0  0  3  0  0  0  0  0  0
  190.9310  177.5340  142.1390 C   0  0  1  0  0  3  0  0  0  0  0  0
  186.4040  178.7400  141.5900 C   0  0  0  0  0  1  0  0  0  0  0  0
  189.4930  176.7060  137.8170 C   0  0  1  0  0  3  0  0  0  0  0  0
  189.0570  180.2610  137.8130 O   0  0  0  0  0  1  0  0  0  0  0  0
  187.9010  175.4520  143.2170 C   0  0  0  0  0  1  0  0  0  0  0  0
  187.8960  178.5460  141.3960 C   0  0  1  0  0  3  0  0  0  0  0  0
  189.8490  178.0750  137.2960 C   0  0  0  0  0  2  0  0  0  0  0  0
  188.2170  177.1070  141.4490 N   0  0  2  0  0  0  0  0  0  0  0  0
  188.0650  178.3680  138.9060 N   0  0  2  0  0  0  0  0  0  0  0  0
  190.1200  176.6060  143.0590 C   0  0  2  0  0  3  0  0  0  0  0  0
  187.7070  178.8530  136.6450 O   0  0  0  0  0  1  0  0  0  0  0  0
  188.6020  176.7390  142.8210 C   0  0  2  0  0  3  0  0  0  0  0  0
  189.6770  177.7660  145.2340 C   0  0  0  0  0  3  0  0  0  0  0  0
  190.4350  176.8400  144.5090 C   0  0  0  0  0  0  0  0  0  0  0  0
  191.4770  176.1470  145.1450 C   0  0  0  0  0  3  0  0  0  0  0  0
  192.7620  175.7110  147.1040 F   0  0  0  0  0  0  0  0  0  0  0  0
  190.9940  177.3060  147.2140 C   0  0  0  0  0  3  0  0  0  0  0  0
  191.7560  176.3800  146.4940 C   0  0  0  0  0  0  0  0  0  0  0  0
  189.9560  177.9990  146.5850 C   0  0  0  0  0  3  0  0  0  0  0  0
  191.8760  176.2670  137.1830 C   0  0  0  0  0  2  0  0  0  0  0  0
  191.8550  175.3990  135.9370 C   0  0  1  0  0  3  0  0  0  0  0  0
  190.4310  174.4040  137.5320 C   0  0  0  0  0  2  0  0  0  0  0  0
  190.8900  174.3230  136.1480 N   0  0  0  0  0  0  0  0  0  0  0  0
  190.7160  175.8040  138.0350 C   0  0  2  0  0  3  0  0  0  0  0  0
  191.4390  176.2230  134.7290 C   0  0  0  0  0  2  0  0  0  0  0  0
  190.0500  176.2040  134.5950 O   0  0  0  0  0  1  0  0  0  0  0  0
  191.5100  173.0130  135.8990 C   0  0  0  0  0  2  0  0  0  0  0  0
  193.0120  173.0390  135.8930 C   0  0  0  0  0  0  0  0  0  0  0  0
  193.6450  173.0500  136.9810 O   0  0  0  0  0  1  0  0  0  0  0  0
  193.7050  173.0310  134.6900 O   0  0  0  0  0  0  0  0  0  0  0  0
  192.4150  177.3960  142.3390 C   0  0  0  0  0  3  0  0  0  0  0  0
  193.2330  177.0380  141.3470 C   0  0  0  0  0  2  0  0  0  0  0  0
  1  9  1  0  0  0  0
  1 14  1  0  0  0  0
  2  4  1  1  0  0  0
  2 13  1  0  0  0  0
  3 11  1  0  0  0  0
  4  6  1  0  0  0  0
  5  2  1  0  0  0  0
  6 36  1  0  0  0  0
  6 15  1  0  0  0  0
  8 29  1  0  0  0  0
  8  5  1  0  0  0  0
 11 13  1  0  0  0  0
 11  7  1  0  0  0  0
 12  1  1  0  0  0  0
 12  8  1  0  0  0  0
 13 17  1  0  0  0  0
 14  5  1  0  0  0  0
 14  3  1  0  0  0  0
 15 19  1  0  0  0  0
 16  1  1  0  0  0  0
 17 15  1  0  0  0  0
 17 10  1  0  0  0  0
 18 24  1  0  0  0  0
 19 20  1  0  0  0  0
 19 18  2  0  0  0  0
 20 23  2  0  0  0  0
 23 21  1  0  0  0  0
 23 22  1  0  0  0  0
 24 22  2  0  0  0  0
 25 29  1  0  0  0  0
 26 28  1  0  0  0  0
 26 25  1  0  0  0  0
 27 29  1  0  0  0  0
 28 27  1  0  0  0  0
 30 26  1  0  0  0  0
 31 30  1  0  0  0  0
 32 28  1  0  0  0  0
 33 32  1  0  0  0  0
 33 34  1  0  0  0  0
 35 33  2  0  0  0  0
 37 36  2  0  0  0  0
M  END
>  <MODEL>
7

>  <REMARK>
 VINA RESULT:      -5.5      6.335     10.345
  Name = 
  6 active torsions:
  status: ('A' for Active; 'I' for Inactive)
    1  A    between atoms: C_5  and  C_12
    2  A    between atoms: C_6  and  C_31
    3  A    between atoms: C_7  and  C_14
    4  A    between atoms: C_11  and  C_26
    5  A    between atoms: C_20  and  C_36
    6  A    between atoms: C_26  and  N_33
                            x       y       z     vdW  Elec       q    Type
                         _______ _______ _______ _____ _____    ______ ____

>  <TORSDO>
F 6

$$$$
=
 OpenBabel10262422513D

 37 41  0  0  1  0  0  0  0  0999 V2000
  187.9120  176.8100  138.0000 C   0  0  0  0  0  0  0  0  0  0  0  0
  188.3490  178.4480  141.1770 C   0  0  2  0  0  3  0  0  0  0  0  0
  189.5420  176.4650  139.7980 C   0  0  0  0  0  2  0  0  0  0  0  0
  187.5460  177.3180  141.8520 C   0  0  0  0  0  2  0  0  0  0  0  0
  188.1470  178.4920  139.6470 C   0  0  2  0  0  3  0  0  0  0  0  0
  188.1190  176.8860  143.2030 C   0  0  1  0  0  3  0  0  0  0  0  0
  191.7630  177.5020  140.2710 C   0  0  0  0  0  1  0  0  0  0  0  0
  186.7130  178.5390  139.1120 C   0  0  1  0  0  3  0  0  0  0  0  0
  188.0320  175.4150  137.9590 O   0  0  0  0  0  1  0  0  0  0  0  0
  190.5440  179.8530  143.2180 C   0  0  0  0  0  1  0  0  0  0  0  0
  190.4160  177.1420  140.8680 C   0  0  1  0  0  3  0  0  0  0  0  0
  186.5240  177.1830  138.4810 C   0  0  0  0  0  2  0  0  0  0  0  0
  189.7940  178.3480  141.4470 N   0  0  2  0  0  0  0  0  0  0  0  0
  188.8930  177.4460  138.9070 N   0  0  2  0  0  0  0  0  0  0  0  0
  189.0060  177.9720  143.8340 C   0  0  2  0  0  3  0  0  0  0  0  0
  188.0940  177.3140  136.7110 O   0  0  0  0  0  1  0  0  0  0  0  0
  190.1240  178.4340  142.8780 C   0  0  2  0  0  3  0  0  0  0  0  0
  188.9700  177.8780  146.3370 C   0  0  0  0  0  3  0  0  0  0  0  0
  189.5990  177.5210  145.1390 C   0  0  0  0  0  0  0  0  0  0  0  0
  190.7720  176.7520  145.1740 C   0  0  0  0  0  3  0  0  0  0  0  0
  192.4410  175.6030  146.4280 F   0  0  0  0  0  0  0  0  0  0  0  0
  190.6760  176.7020  147.5920 C   0  0  0  0  0  3  0  0  0  0  0  0
  191.3090  176.3440  146.3980 C   0  0  0  0  0  0  0  0  0  0  0  0
  189.5070  177.4690  147.5620 C   0  0  0  0  0  3  0  0  0  0  0  0
  184.7120  177.7080  140.3690 C   0  0  0  0  0  2  0  0  0  0  0  0
  183.5070  177.8880  139.4610 C   0  0  1  0  0  3  0  0  0  0  0  0
  184.6770  179.9350  139.5190 C   0  0  0  0  0  2  0  0  0  0  0  0
  183.5690  179.2290  138.8840 N   0  0  0  0  0  0  0  0  0  0  0  0
  185.6080  178.8990  140.1150 C   0  0  2  0  0  3  0  0  0  0  0  0
  183.5290  176.8550  138.3470 C   0  0  0  0  0  2  0  0  0  0  0  0
  183.0560  175.6310  138.8220 O   0  0  0  0  0  1  0  0  0  0  0  0
  182.3100  179.9520  139.1160 C   0  0  0  0  0  2  0  0  0  0  0  0
  181.5550  180.2850  137.8600 C   0  0  0  0  0  0  0  0  0  0  0  0
  181.2480  179.3720  137.0510 O   0  0  0  0  0  0  0  0  0  0  0  0
  181.1800  181.5970  137.5990 O   0  0  0  0  0  1  0  0  0  0  0  0
  187.0050  176.4450  144.1120 C   0  0  0  0  0  3  0  0  0  0  0  0
  186.0550  177.2860  144.5270 C   0  0  0  0  0  2  0  0  0  0  0  0
  1 12  1  0  0  0  0
  1 14  1  0  0  0  0
  2 13  1  0  0  0  0
  2  4  1  6  0  0  0
  3 11  1  0  0  0  0
  4  6  1  0  0  0  0
  5  2  1  0  0  0  0
  6 15  1  0  0  0  0
  6 36  1  0  0  0  0
  7 11  1  0  0  0  0
  8  5  1  0  0  0  0
  8 29  1  0  0  0  0
  9  1  1  0  0  0  0
 11 13  1  0  0  0  0
 12  8  1  0  0  0  0
 13 17  1  0  0  0  0
 14  5  1  0  0  0  0
 14  3  1  0  0  0  0
 15 19  1  0  0  0  0
 16  1  1  0  0  0  0
 17 10  1  0  0  0  0
 17 15  1  0  0  0  0
 18 24  1  0  0  0  0
 19 20  1  0  0  0  0
 19 18  2  0  0  0  0
 20 23  2  0  0  0  0
 23 21  1  0  0  0  0
 23 22  1  0  0  0  0
 24 22  2  0  0  0  0
 26 25  1  0  0  0  0
 27 29  1  0  0  0  0
 28 32  1  0  0  0  0
 28 26  1  0  0  0  0
 28 27  1  0  0  0  0
 29 25  1  0  0  0  0
 30 31  1  0  0  0  0
 30 26  1  0  0  0  0
 33 32  1  0  0  0  0
 34 33  2  0  0  0  0
 35 33  1  0  0  0  0
 36 37  2  0  0  0  0
M  END
>  <MODEL>
8

>  <REMARK>
 VINA RESULT:      -5.5      4.899      7.262
  Name = 
  6 active torsions:
  status: ('A' for Active; 'I' for Inactive)
    1  A    between atoms: C_5  and  C_12
    2  A    between atoms: C_6  and  C_31
    3  A    between atoms: C_7  and  C_14
    4  A    between atoms: C_11  and  C_26
    5  A    between atoms: C_20  and  C_36
    6  A    between atoms: C_26  and  N_33
                            x       y       z     vdW  Elec       q    Type
                         _______ _______ _______ _____ _____    ______ ____

>  <TORSDO>
F 6

$$$$
=
 OpenBabel10262422513D

 37 41  0  0  1  0  0  0  0  0999 V2000
  191.1710  175.3660  135.8680 C   0  0  0  0  0  0  0  0  0  0  0  0
  187.9650  174.9690  137.4600 C   0  0  2  0  0  3  0  0  0  0  0  0
  189.0030  174.6200  134.9980 C   0  0  0  0  0  2  0  0  0  0  0  0
  187.5560  176.3640  136.9470 C   0  0  0  0  0  2  0  0  0  0  0  0
  189.4910  174.7400  137.4110 C   0  0  2  0  0  3  0  0  0  0  0  0
  186.1080  176.4330  136.4570 C   0  0  1  0  0  3  0  0  0  0  0  0
  187.9240  172.3720  134.8860 C   0  0  0  0  0  1  0  0  0  0  0  0
  190.3960  175.7800  138.0790 C   0  0  1  0  0  3  0  0  0  0  0  0
  191.2040  175.9470  134.5940 O   0  0  0  0  0  1  0  0  0  0  0  0
  185.3780  172.9460  137.8670 C   0  0  0  0  0  1  0  0  0  0  0  0
  187.7230  173.8200  135.2940 C   0  0  1  0  0  3  0  0  0  0  0  0
  191.0800  176.4550  136.9170 C   0  0  0  0  0  2  0  0  0  0  0  0
  187.3140  173.8820  136.7090 N   0  0  2  0  0  0  0  0  0  0  0  0
  190.0200  174.4560  136.0560 N   0  0  2  0  0  0  0  0  0  0  0  0
  185.2390  175.3110  137.0480 C   0  0  2  0  0  3  0  0  0  0  0  0
  192.3520  174.6480  136.0630 O   0  0  0  0  0  1  0  0  0  0  0  0
  185.8450  173.9150  136.7970 C   0  0  2  0  0  3  0  0  0  0  0  0
  183.5790  175.0060  135.1980 C   0  0  0  0  0  3  0  0  0  0  0  0
  183.8300  175.3600  136.5280 C   0  0  0  0  0  0  0  0  0  0  0  0
  182.7670  175.7600  137.3520 C   0  0  0  0  0  3  0  0  0  0  0  0
  180.4410  176.1870  137.6460 F   0  0  0  0  0  0  0  0  0  0  0  0
  181.2180  175.4440  135.5190 C   0  0  0  0  0  3  0  0  0  0  0  0
  181.4640  175.8010  136.8480 C   0  0  0  0  0  0  0  0  0  0  0  0
  182.2750  175.0460  134.6930 C   0  0  0  0  0  3  0  0  0  0  0  0
  190.6770  177.8860  139.4060 C   0  0  0  0  0  2  0  0  0  0  0  0
  191.2960  177.4970  140.7370 C   0  0  1  0  0  3  0  0  0  0  0  0
  189.4370  176.0920  140.3690 C   0  0  0  0  0  2  0  0  0  0  0  0
  190.5730  176.3360  141.2530 N   0  0  0  0  0  0  0  0  0  0  0  0
  189.7250  176.7680  139.0440 C   0  0  2  0  0  3  0  0  0  0  0  0
  192.7610  177.1400  140.5520 C   0  0  0  0  0  2  0  0  0  0  0  0
  193.2210  177.6340  139.3300 O   0  0  0  0  0  1  0  0  0  0  0  0
  190.1010  176.5850  142.6230 C   0  0  0  0  0  2  0  0  0  0  0  0
  188.6340  176.8990  142.7170 C   0  0  0  0  0  0  0  0  0  0  0  0
  187.8320  176.0320  143.1510 O   0  0  0  0  0  1  0  0  0  0  0  0
  188.1640  178.1520  142.3430 O   0  0  0  0  0  0  0  0  0  0  0  0
  185.5460  177.8020  136.7200 C   0  0  0  0  0  3  0  0  0  0  0  0
  185.8490  178.4940  137.8200 C   0  0  0  0  0  2  0  0  0  0  0  0
  1 14  1  0  0  0  0
  1 16  1  0  0  0  0
  1 12  1  0  0  0  0
  2  4  1  6  0  0  0
  3 11  1  0  0  0  0
  3 14  1  0  0  0  0
  5  2  1  0  0  0  0
  5  8  1  0  0  0  0
  6 36  1  0  0  0  0
  6  4  1  0  0  0  0
  6 15  1  0  0  0  0
  7 11  1  0  0  0  0
  8 29  1  0  0  0  0
  9  1  1  0  0  0  0
 11 13  1  0  0  0  0
 12  8  1  0  0  0  0
 13 17  1  0  0  0  0
 13  2  1  0  0  0  0
 14  5  1  0  0  0  0
 17 15  1  0  0  0  0
 17 10  1  0  0  0  0
 18 19  1  0  0  0  0
 19 15  1  0  0  0  0
 19 20  2  0  0  0  0
 22 23  2  0  0  0  0
 23 20  1  0  0  0  0
 23 21  1  0  0  0  0
 24 18  2  0  0  0  0
 24 22  1  0  0  0  0
 25 26  1  0  0  0  0
 26 28  1  0  0  0  0
 27 28  1  0  0  0  0
 28 32  1  0  0  0  0
 29 25  1  0  0  0  0
 29 27  1  0  0  0  0
 30 26  1  0  0  0  0
 31 30  1  0  0  0  0
 32 33  1  0  0  0  0
 33 34  1  0  0  0  0
 35 33  2  0  0  0  0
 36 37  2  0  0  0  0
M  END
>  <MODEL>
9

>  <REMARK>
 VINA RESULT:      -5.4      5.474      9.088
  Name = 
  6 active torsions:
  status: ('A' for Active; 'I' for Inactive)
    1  A    between atoms: C_5  and  C_12
    2  A    between atoms: C_6  and  C_31
    3  A    between atoms: C_7  and  C_14
    4  A    between atoms: C_11  and  C_26
    5  A    between atoms: C_20  and  C_36
    6  A    between atoms: C_26  and  N_33
                            x       y       z     vdW  Elec       q    Type
                         _______ _______ _______ _____ _____    ______ ____

>  <TORSDO>
F 6

$$$$
