=
 OpenBabel10262422023D

 30 33  0  0  1  0  0  0  0  0999 V2000
  184.9350  178.2460  145.3730 C   0  0  0  0  0  0  0  0  0  0  0  0
  183.5730  178.7580  143.3750 C   0  0  0  0  0  3  0  0  0  0  0  0
  186.9430  178.5140  140.8730 O   0  0  0  0  0  0  0  0  0  0  0  0
  187.2850  176.4360  143.5010 O   0  0  0  0  0  1  0  0  0  0  0  0
  185.3760  179.3450  146.1780 N   0  0  0  0  0  0  0  0  0  0  0  0
  188.2490  177.8280  147.5030 C   0  0  1  0  0  0  0  0  0  0  0  0
  186.8040  177.9980  147.5190 N   0  0  0  0  0  2  0  0  0  0  0  0
  186.5870  180.4900  147.9030 C   0  0  0  0  0  1  0  0  0  0  0  0
  189.8510  178.0400  143.3580 C   0  0  2  0  0  3  0  0  0  0  0  0
  188.2390  178.4260  141.3910 C   0  0  0  0  0  0  0  0  0  0  0  0
  186.1900  179.2470  147.1850 C   0  0  0  0  0  0  0  0  0  0  0  0
  188.7930  177.2410  146.2080 C   0  0  2  0  0  3  0  0  0  0  0  0
  183.4470  178.9790  142.0020 C   0  0  0  0  0  3  0  0  0  0  0  0
  190.3160  178.6110  144.7120 C   0  0  0  0  0  2  0  0  0  0  0  0
  189.0930  178.6690  148.4520 C   0  0  0  0  0  1  0  0  0  0  0  0
  184.6810  177.1250  145.8880 O   0  0  0  0  0  0  0  0  0  0  0  0
  185.8180  178.5740  141.7070 C   0  0  0  0  0  0  0  0  0  0  0  0
  184.5640  178.8880  141.1690 C   0  0  0  0  0  0  0  0  0  0  0  0
  188.6760  176.3820  147.4660 C   0  0  0  0  0  2  0  0  0  0  0  0
  184.8160  178.4320  143.9250 C   0  0  0  0  0  0  0  0  0  0  0  0
  187.2610  177.8270  143.6250 C   0  0  1  0  0  3  0  0  0  0  0  0
  189.2200  178.3980  140.6020 O   0  0  0  0  0  0  0  0  0  0  0  0
  188.4450  178.4670  142.8850 C   0  0  1  0  0  3  0  0  0  0  0  0
  191.0860  176.5990  145.8130 O   0  0  0  0  0  1  0  0  0  0  0  0
  184.4250  179.1190  139.8050 O   0  0  0  0  0  1  0  0  0  0  0  0
  185.9460  178.3320  143.0910 C   0  0  0  0  0  0  0  0  0  0  0  0
  190.2230  177.6900  145.9370 C   0  0  2  0  0  3  0  0  0  0  0  0
  190.3530  176.6750  142.9670 C   0  0  0  0  0  0  0  0  0  0  0  0
  191.7440  176.5250  142.4570 C   0  0  0  0  0  1  0  0  0  0  0  0
  189.6440  175.6880  143.0770 O   0  0  0  0  0  0  0  0  0  0  0  0
  1 16  2  0  0  0  0
  1  5  1  0  0  0  0
  2 20  1  0  0  0  0
  3 10  1  0  0  0  0
  3 17  1  0  0  0  0
  5 11  2  0  0  0  0
  6  7  1  0  0  0  0
  6 15  1  1  0  0  0
  9 28  1  1  0  0  0
  9 14  1  0  0  0  0
 11  7  1  0  0  0  0
 11  8  1  0  0  0  0
 12 19  1  1  0  0  0
 12  6  1  0  0  0  0
 13  2  2  0  0  0  0
 14 27  1  0  0  0  0
 17 26  1  0  0  0  0
 18 17  2  0  0  0  0
 18 13  1  0  0  0  0
 19  6  1  0  0  0  0
 20  1  1  0  0  0  0
 21  4  1  6  0  0  0
 22 10  2  0  0  0  0
 23 10  1  6  0  0  0
 23  9  1  0  0  0  0
 23 21  1  0  0  0  0
 25 18  1  0  0  0  0
 26 21  1  0  0  0  0
 26 20  2  0  0  0  0
 27 24  1  6  0  0  0
 27 12  1  0  0  0  0
 28 30  2  0  0  0  0
 29 28  1  0  0  0  0
M  END
>  <MODEL>
1

>  <REMARK>
 VINA RESULT:      -7.9      0.000      0.000
  Name = 
  1 active torsions:
  status: ('A' for Active; 'I' for Inactive)
    1  A    between atoms: C_7  and  C_10
                            x       y       z     vdW  Elec       q    Type
                         _______ _______ _______ _____ _____    ______ ____

>  <TORSDO>
F 1

$$$$
=
 OpenBabel10262422023D

 30 33  0  0  1  0  0  0  0  0999 V2000
  184.6080  178.9230  139.6630 C   0  0  0  0  0  0  0  0  0  0  0  0
  182.9050  179.0880  141.4460 C   0  0  0  0  0  3  0  0  0  0  0  0
  185.7030  177.9740  144.3800 O   0  0  0  0  0  0  0  0  0  0  0  0
  187.2290  179.6390  141.8820 O   0  0  0  0  0  1  0  0  0  0  0  0
  184.6520  177.7170  138.8920 N   0  0  0  0  0  0  0  0  0  0  0  0
  188.0430  177.8520  138.0050 C   0  0  1  0  0  0  0  0  0  0  0  0
  186.6760  178.3020  137.7920 N   0  0  0  0  0  2  0  0  0  0  0  0
  185.4890  176.1190  137.3120 C   0  0  0  0  0  1  0  0  0  0  0  0
  188.8450  177.1140  142.3180 C   0  0  2  0  0  3  0  0  0  0  0  0
  186.9730  177.4970  144.0420 C   0  0  0  0  0  0  0  0  0  0  0  0
  185.5570  177.4350  138.0050 C   0  0  0  0  0  0  0  0  0  0  0  0
  188.6060  178.1960  139.3770 C   0  0  2  0  0  3  0  0  0  0  0  0
  182.5170  178.9810  142.7840 C   0  0  0  0  0  3  0  0  0  0  0  0
  189.2030  176.3610  141.0220 C   0  0  0  0  0  2  0  0  0  0  0  0
  188.5760  176.7070  137.1530 C   0  0  0  0  0  1  0  0  0  0  0  0
  184.9180  180.0320  139.1510 O   0  0  0  0  0  0  0  0  0  0  0  0
  184.7780  178.3650  143.4020 C   0  0  0  0  0  0  0  0  0  0  0  0
  183.4490  178.6210  143.7600 C   0  0  0  0  0  0  0  0  0  0  0  0
  189.0280  178.9880  138.1400 C   0  0  0  0  0  2  0  0  0  0  0  0
  184.2310  178.8470  141.0750 C   0  0  0  0  0  0  0  0  0  0  0  0
  186.6420  178.3830  141.7150 C   0  0  1  0  0  3  0  0  0  0  0  0
  187.7620  177.1350  144.9550 O   0  0  0  0  0  0  0  0  0  0  0  0
  187.3390  177.3280  142.5870 C   0  0  1  0  0  3  0  0  0  0  0  0
  190.8820  177.8320  140.0910 O   0  0  0  0  0  1  0  0  0  0  0  0
  183.0460  178.5110  145.0860 O   0  0  0  0  0  1  0  0  0  0  0  0
  185.1780  178.4900  142.0560 C   0  0  0  0  0  0  0  0  0  0  0  0
  189.6670  177.1990  139.8230 C   0  0  2  0  0  3  0  0  0  0  0  0
  189.8140  178.1540  142.8110 C   0  0  0  0  0  0  0  0  0  0  0  0
  191.0260  177.7270  143.5650 C   0  0  0  0  0  1  0  0  0  0  0  0
  189.6330  179.3400  142.5890 O   0  0  0  0  0  0  0  0  0  0  0  0
  1 20  1  0  0  0  0
  2 13  1  0  0  0  0
  5  1  1  0  0  0  0
  6 15  1  6  0  0  0
  6 19  1  0  0  0  0
  6 12  1  0  0  0  0
  7  6  1  0  0  0  0
  7 11  1  0  0  0  0
  8 11  1  0  0  0  0
  9 23  1  0  0  0  0
  9 28  1  6  0  0  0
 10  3  1  0  0  0  0
 10 22  2  0  0  0  0
 11  5  2  0  0  0  0
 12 19  1  6  0  0  0
 12 27  1  0  0  0  0
 13 18  2  0  0  0  0
 14  9  1  0  0  0  0
 16  1  2  0  0  0  0
 17 18  1  0  0  0  0
 17  3  1  0  0  0  0
 18 25  1  0  0  0  0
 20  2  2  0  0  0  0
 20 26  1  0  0  0  0
 21  4  1  1  0  0  0
 21 26  1  0  0  0  0
 21 23  1  0  0  0  0
 23 10  1  1  0  0  0
 26 17  2  0  0  0  0
 27 24  1  1  0  0  0
 27 14  1  0  0  0  0
 28 29  1  0  0  0  0
 30 28  2  0  0  0  0
M  END
>  <MODEL>
2

>  <REMARK>
 VINA RESULT:      -7.0      3.150      5.946
  Name = 
  1 active torsions:
  status: ('A' for Active; 'I' for Inactive)
    1  A    between atoms: C_7  and  C_10
                            x       y       z     vdW  Elec       q    Type
                         _______ _______ _______ _____ _____    ______ ____

>  <TORSDO>
F 1

$$$$
=
 OpenBabel10262422023D

 30 33  0  0  1  0  0  0  0  0999 V2000
  187.0570  178.2060  138.3560 C   0  0  0  0  0  0  0  0  0  0  0  0
  184.7210  178.7800  138.9260 C   0  0  0  0  0  3  0  0  0  0  0  0
  185.4830  178.2930  143.0330 O   0  0  0  0  0  0  0  0  0  0  0  0
  188.2580  179.3520  141.4460 O   0  0  0  0  0  1  0  0  0  0  0  0
  187.3330  176.8600  137.9520 N   0  0  0  0  0  0  0  0  0  0  0  0
  190.6930  176.7520  138.9560 C   0  0  1  0  0  0  0  0  0  0  0  0
  189.6900  177.1640  137.9850 N   0  0  0  0  0  2  0  0  0  0  0  0
  188.6480  174.9450  137.3560 C   0  0  0  0  0  1  0  0  0  0  0  0
  189.0990  176.9600  143.1050 C   0  0  2  0  0  3  0  0  0  0  0  0
  186.6780  177.7360  143.4980 C   0  0  0  0  0  0  0  0  0  0  0  0
  188.5190  176.3800  137.7340 C   0  0  0  0  0  0  0  0  0  0  0  0
  190.5210  177.3790  140.3330 C   0  0  2  0  0  3  0  0  0  0  0  0
  183.6990  178.9720  139.8590 C   0  0  0  0  0  3  0  0  0  0  0  0
  189.9670  175.9380  142.3450 C   0  0  0  0  0  2  0  0  0  0  0  0
  191.4350  175.4420  138.7280 C   0  0  0  0  0  1  0  0  0  0  0  0
  187.7190  179.1730  137.8930 O   0  0  0  0  0  0  0  0  0  0  0  0
  185.2380  178.4740  141.6650 C   0  0  0  0  0  0  0  0  0  0  0  0
  183.9540  178.8200  141.2240 C   0  0  0  0  0  0  0  0  0  0  0  0
  191.6060  177.8760  139.3790 C   0  0  0  0  0  2  0  0  0  0  0  0
  186.0100  178.4450  139.3520 C   0  0  0  0  0  0  0  0  0  0  0  0
  187.6840  178.0980  141.2260 C   0  0  1  0  0  3  0  0  0  0  0  0
  186.8430  177.5700  144.7360 O   0  0  0  0  0  0  0  0  0  0  0  0
  187.7060  177.2490  142.5060 C   0  0  1  0  0  3  0  0  0  0  0  0
  192.0550  177.1480  142.1810 O   0  0  0  0  0  1  0  0  0  0  0  0
  182.9260  179.0070  142.1400 O   0  0  0  0  0  1  0  0  0  0  0  0
  186.2770  178.2970  140.7270 C   0  0  0  0  0  0  0  0  0  0  0  0
  191.0750  176.4880  141.4370 C   0  0  2  0  0  3  0  0  0  0  0  0
  189.8070  178.0700  143.8360 C   0  0  0  0  0  0  0  0  0  0  0  0
  190.2370  177.8600  145.2460 C   0  0  0  0  0  1  0  0  0  0  0  0
  190.0490  179.1320  143.2860 O   0  0  0  0  0  0  0  0  0  0  0  0
  1 20  1  0  0  0  0
  2 20  2  0  0  0  0
  2 13  1  0  0  0  0
  3 10  1  0  0  0  0
  5  1  1  0  0  0  0
  6 15  1  6  0  0  0
  6 19  1  0  0  0  0
  6 12  1  0  0  0  0
  7  6  1  0  0  0  0
  8 11  1  0  0  0  0
  9 28  1  6  0  0  0
 10 22  2  0  0  0  0
 11  5  2  0  0  0  0
 11  7  1  0  0  0  0
 12 19  1  6  0  0  0
 12 27  1  0  0  0  0
 13 18  2  0  0  0  0
 14  9  1  0  0  0  0
 16  1  2  0  0  0  0
 17  3  1  0  0  0  0
 18 17  1  0  0  0  0
 18 25  1  0  0  0  0
 20 26  1  0  0  0  0
 21  4  1  1  0  0  0
 21 23  1  0  0  0  0
 23  9  1  0  0  0  0
 23 10  1  1  0  0  0
 26 21  1  0  0  0  0
 26 17  2  0  0  0  0
 27 24  1  1  0  0  0
 27 14  1  0  0  0  0
 28 29  1  0  0  0  0
 30 28  2  0  0  0  0
M  END
>  <MODEL>
3

>  <REMARK>
 VINA RESULT:      -6.2      3.374      5.951
  Name = 
  1 active torsions:
  status: ('A' for Active; 'I' for Inactive)
    1  A    between atoms: C_7  and  C_10
                            x       y       z     vdW  Elec       q    Type
                         _______ _______ _______ _____ _____    ______ ____

>  <TORSDO>
F 1

$$$$
=
 OpenBabel10262422023D

 30 33  0  0  1  0  0  0  0  0999 V2000
  188.7060  178.1420  139.5210 C   0  0  0  0  0  0  0  0  0  0  0  0
  190.6960  176.8490  138.8320 C   0  0  0  0  0  3  0  0  0  0  0  0
  188.3750  174.3880  136.3340 O   0  0  0  0  0  0  0  0  0  0  0  0
  187.0340  177.4720  136.5110 O   0  0  0  0  0  1  0  0  0  0  0  0
  188.0820  177.7940  140.7620 N   0  0  0  0  0  0  0  0  0  0  0  0
  184.8450  178.9000  139.9830 C   0  0  1  0  0  0  0  0  0  0  0  0
  186.2050  179.2070  140.3990 N   0  0  0  0  0  2  0  0  0  0  0  0
  186.4250  177.8060  142.4950 C   0  0  0  0  0  1  0  0  0  0  0  0
  184.7700  175.5380  137.0710 C   0  0  2  0  0  3  0  0  0  0  0  0
  186.9770  174.4230  136.3600 C   0  0  0  0  0  0  0  0  0  0  0  0
  186.9690  178.3000  141.2000 C   0  0  0  0  0  0  0  0  0  0  0  0
  184.7420  178.2880  138.5930 C   0  0  2  0  0  3  0  0  0  0  0  0
  191.2970  175.8180  138.1050 C   0  0  0  0  0  3  0  0  0  0  0  0
  183.9060  175.9130  138.2900 C   0  0  0  0  0  2  0  0  0  0  0  0
  183.7790  178.7110  141.0540 C   0  0  0  0  0  1  0  0  0  0  0  0
  188.7020  179.3300  139.1020 O   0  0  0  0  0  0  0  0  0  0  0  0
  189.1480  175.2230  137.1520 C   0  0  0  0  0  0  0  0  0  0  0  0
  190.5280  175.0070  137.2670 C   0  0  0  0  0  0  0  0  0  0  0  0
  184.3710  179.7510  138.8290 C   0  0  0  0  0  2  0  0  0  0  0  0
  189.3230  177.0840  138.7180 C   0  0  0  0  0  0  0  0  0  0  0  0
  187.0960  176.6030  137.6020 C   0  0  1  0  0  3  0  0  0  0  0  0
  186.3250  173.6360  135.6240 O   0  0  0  0  0  0  0  0  0  0  0  0
  186.2760  175.3310  137.3410 C   0  0  1  0  0  3  0  0  0  0  0  0
  182.6890  177.8130  137.4170 O   0  0  0  0  0  1  0  0  0  0  0  0
  191.1380  173.9800  136.5560 O   0  0  0  0  0  1  0  0  0  0  0  0
  188.5420  176.2750  137.8700 C   0  0  0  0  0  0  0  0  0  0  0  0
  183.5200  177.3890  138.4560 C   0  0  2  0  0  3  0  0  0  0  0  0
  184.3530  176.0750  135.7280 C   0  0  0  0  0  0  0  0  0  0  0  0
  183.2730  175.3870  134.9680 C   0  0  0  0  0  1  0  0  0  0  0  0
  184.8730  177.0740  135.2590 O   0  0  0  0  0  0  0  0  0  0  0  0
  1  5  1  0  0  0  0
  3 10  1  0  0  0  0
  3 17  1  0  0  0  0
  5 11  2  0  0  0  0
  6  7  1  0  0  0  0
  6 15  1  1  0  0  0
  7 11  1  0  0  0  0
  9 28  1  6  0  0  0
  9 23  1  0  0  0  0
  9 14  1  0  0  0  0
 11  8  1  0  0  0  0
 12 19  1  6  0  0  0
 12  6  1  0  0  0  0
 13  2  2  0  0  0  0
 14 27  1  0  0  0  0
 16  1  2  0  0  0  0
 17 18  2  0  0  0  0
 17 26  1  0  0  0  0
 18 13  1  0  0  0  0
 19  6  1  0  0  0  0
 20  2  1  0  0  0  0
 20  1  1  0  0  0  0
 21  4  1  6  0  0  0
 21 26  1  0  0  0  0
 22 10  2  0  0  0  0
 23 10  1  6  0  0  0
 23 21  1  0  0  0  0
 25 18  1  0  0  0  0
 26 20  2  0  0  0  0
 27 24  1  6  0  0  0
 27 12  1  0  0  0  0
 29 28  1  0  0  0  0
 30 28  2  0  0  0  0
M  END
>  <MODEL>
4

>  <REMARK>
 VINA RESULT:      -6.1      4.613      8.233
  Name = 
  1 active torsions:
  status: ('A' for Active; 'I' for Inactive)
    1  A    between atoms: C_7  and  C_10
                            x       y       z     vdW  Elec       q    Type
                         _______ _______ _______ _____ _____    ______ ____

>  <TORSDO>
F 1

$$$$
=
 OpenBabel10262422023D

 30 33  0  0  1  0  0  0  0  0999 V2000
  187.4820  178.2570  137.8300 C   0  0  0  0  0  0  0  0  0  0  0  0
  189.8740  177.6370  137.9070 C   0  0  0  0  0  3  0  0  0  0  0  0
  188.9880  173.6470  136.9210 O   0  0  0  0  0  0  0  0  0  0  0  0
  186.7370  175.7240  135.5210 O   0  0  0  0  0  1  0  0  0  0  0  0
  186.7670  178.3090  139.0700 N   0  0  0  0  0  0  0  0  0  0  0  0
  183.5680  177.6470  137.7900 C   0  0  1  0  0  0  0  0  0  0  0  0
  184.6520  178.5900  138.0220 N   0  0  0  0  0  2  0  0  0  0  0  0
  184.8820  178.4930  140.5410 C   0  0  0  0  0  1  0  0  0  0  0  0
  185.1340  173.5730  136.9290 C   0  0  2  0  0  3  0  0  0  0  0  0
  187.6740  173.1670  136.9020 C   0  0  0  0  0  0  0  0  0  0  0  0
  185.4880  178.5040  139.1810 C   0  0  0  0  0  0  0  0  0  0  0  0
  183.9410  176.4810  136.8850 C   0  0  2  0  0  3  0  0  0  0  0  0
  190.8990  176.6950  137.7970 C   0  0  0  0  0  3  0  0  0  0  0  0
  183.9720  174.1100  137.7870 C   0  0  0  0  0  2  0  0  0  0  0  0
  182.4260  177.5860  138.7960 C   0  0  0  0  0  1  0  0  0  0  0  0
  187.1870  179.0270  136.8770 O   0  0  0  0  0  0  0  0  0  0  0  0
  189.2810  174.9820  137.2290 C   0  0  0  0  0  0  0  0  0  0  0  0
  190.6060  175.3710  137.4590 C   0  0  0  0  0  0  0  0  0  0  0  0
  183.0890  177.6340  136.3590 C   0  0  0  0  0  2  0  0  0  0  0  0
  188.5470  177.2650  137.6680 C   0  0  0  0  0  0  0  0  0  0  0  0
  186.8520  175.5400  136.9010 C   0  0  1  0  0  3  0  0  0  0  0  0
  187.4610  171.9530  136.6430 O   0  0  0  0  0  0  0  0  0  0  0  0
  186.5430  174.0880  137.2920 C   0  0  1  0  0  3  0  0  0  0  0  0
  182.4170  174.7980  136.0660 O   0  0  0  0  0  1  0  0  0  0  0  0
  191.6360  174.4440  137.3620 O   0  0  0  0  0  1  0  0  0  0  0  0
  188.2450  175.9340  137.3200 C   0  0  0  0  0  0  0  0  0  0  0  0
  183.1160  175.2370  137.1920 C   0  0  2  0  0  3  0  0  0  0  0  0
  184.8430  173.2410  135.4900 C   0  0  0  0  0  0  0  0  0  0  0  0
  184.2050  171.9380  135.1530 C   0  0  0  0  0  1  0  0  0  0  0  0
  185.1050  174.0290  134.5960 O   0  0  0  0  0  0  0  0  0  0  0  0
  1  5  1  0  0  0  0
  3 17  1  0  0  0  0
  5 11  2  0  0  0  0
  6  7  1  0  0  0  0
  6 15  1  1  0  0  0
  7 11  1  0  0  0  0
  9 28  1  6  0  0  0
  9 23  1  0  0  0  0
  9 14  1  0  0  0  0
 10  3  1  0  0  0  0
 11  8  1  0  0  0  0
 12 19  1  6  0  0  0
 12 27  1  0  0  0  0
 12  6  1  0  0  0  0
 13  2  1  0  0  0  0
 16  1  2  0  0  0  0
 17 26  2  0  0  0  0
 17 18  1  0  0  0  0
 18 13  2  0  0  0  0
 19  6  1  0  0  0  0
 20  1  1  0  0  0  0
 20  2  2  0  0  0  0
 21  4  1  6  0  0  0
 21 23  1  0  0  0  0
 21 26  1  0  0  0  0
 22 10  2  0  0  0  0
 23 10  1  6  0  0  0
 25 18  1  0  0  0  0
 26 20  1  0  0  0  0
 27 24  1  6  0  0  0
 27 14  1  0  0  0  0
 29 28  1  0  0  0  0
 30 28  2  0  0  0  0
M  END
>  <MODEL>
5

>  <REMARK>
 VINA RESULT:      -5.9      6.017      9.186
  Name = 
  1 active torsions:
  status: ('A' for Active; 'I' for Inactive)
    1  A    between atoms: C_7  and  C_10
                            x       y       z     vdW  Elec       q    Type
                         _______ _______ _______ _____ _____    ______ ____

>  <TORSDO>
F 1

$$$$
=
 OpenBabel10262422023D

 30 33  0  0  1  0  0  0  0  0999 V2000
  184.9740  179.0090  139.3730 C   0  0  0  0  0  0  0  0  0  0  0  0
  186.8270  178.2530  137.9230 C   0  0  0  0  0  3  0  0  0  0  0  0
  184.4870  175.1250  136.3690 O   0  0  0  0  0  0  0  0  0  0  0  0
  182.5390  177.7470  137.1860 O   0  0  0  0  0  1  0  0  0  0  0  0
  184.9790  178.5810  140.7390 N   0  0  0  0  0  0  0  0  0  0  0  0
  181.5180  178.7420  141.2920 C   0  0  1  0  0  0  0  0  0  0  0  0
  182.8000  179.4220  141.1790 N   0  0  0  0  0  2  0  0  0  0  0  0
  184.1560  178.2530  142.9680 C   0  0  0  0  0  1  0  0  0  0  0  0
  181.2570  175.3170  138.4640 C   0  0  2  0  0  3  0  0  0  0  0  0
  183.2460  174.7890  136.9210 C   0  0  0  0  0  0  0  0  0  0  0  0
  184.0210  178.7970  141.5890 C   0  0  0  0  0  0  0  0  0  0  0  0
  181.0690  178.0450  140.0150 C   0  0  2  0  0  3  0  0  0  0  0  0
  187.3620  177.3780  136.9750 C   0  0  0  0  0  3  0  0  0  0  0  0
  180.8470  175.5200  139.9360 C   0  0  0  0  0  2  0  0  0  0  0  0
  181.0250  178.3390  142.6750 C   0  0  0  0  0  1  0  0  0  0  0  0
  184.4960  180.1280  139.0450 O   0  0  0  0  0  0  0  0  0  0  0  0
  185.2570  176.1810  136.8740 C   0  0  0  0  0  0  0  0  0  0  0  0
  186.5820  176.3450  136.4500 C   0  0  0  0  0  0  0  0  0  0  0  0
  180.4380  179.3680  140.4450 C   0  0  0  0  0  2  0  0  0  0  0  0
  185.5030  178.1090  138.3470 C   0  0  0  0  0  0  0  0  0  0  0  0
  183.2360  176.9900  138.1300 C   0  0  1  0  0  3  0  0  0  0  0  0
  182.6010  173.8160  136.4480 O   0  0  0  0  0  0  0  0  0  0  0  0
  182.7500  175.5330  138.1360 C   0  0  1  0  0  3  0  0  0  0  0  0
  178.9320  176.9750  139.6780 O   0  0  0  0  0  1  0  0  0  0  0  0
  187.1300  175.4780  135.5130 O   0  0  0  0  0  1  0  0  0  0  0  0
  184.7070  177.0730  137.8170 C   0  0  0  0  0  0  0  0  0  0  0  0
  180.1730  176.8480  140.3060 C   0  0  2  0  0  3  0  0  0  0  0  0
  180.2380  175.6460  137.4050 C   0  0  0  0  0  0  0  0  0  0  0  0
  179.1900  174.6460  137.0620 C   0  0  0  0  0  1  0  0  0  0  0  0
  180.2480  176.7250  136.8350 O   0  0  0  0  0  0  0  0  0  0  0  0
  1  5  1  0  0  0  0
  2 20  1  0  0  0  0
  3 17  1  0  0  0  0
  3 10  1  0  0  0  0
  5 11  2  0  0  0  0
  6 15  1  1  0  0  0
  7  6  1  0  0  0  0
  7 11  1  0  0  0  0
  9 28  1  6  0  0  0
  9 14  1  0  0  0  0
 11  8  1  0  0  0  0
 12 27  1  0  0  0  0
 12 19  1  6  0  0  0
 12  6  1  0  0  0  0
 13  2  2  0  0  0  0
 14 27  1  0  0  0  0
 16  1  2  0  0  0  0
 17 26  1  0  0  0  0
 18 17  2  0  0  0  0
 18 13  1  0  0  0  0
 19  6  1  0  0  0  0
 20  1  1  0  0  0  0
 21  4  1  6  0  0  0
 21 23  1  0  0  0  0
 22 10  2  0  0  0  0
 23 10  1  6  0  0  0
 23  9  1  0  0  0  0
 25 18  1  0  0  0  0
 26 21  1  0  0  0  0
 26 20  2  0  0  0  0
 27 24  1  6  0  0  0
 29 28  1  0  0  0  0
 30 28  2  0  0  0  0
M  END
>  <MODEL>
6

>  <REMARK>
 VINA RESULT:      -5.8      5.406      8.679
  Name = 
  1 active torsions:
  status: ('A' for Active; 'I' for Inactive)
    1  A    between atoms: C_7  and  C_10
                            x       y       z     vdW  Elec       q    Type
                         _______ _______ _______ _____ _____    ______ ____

>  <TORSDO>
F 1

$$$$
=
 OpenBabel10262422023D

 30 33  0  0  1  0  0  0  0  0999 V2000
  182.2030  177.7900  139.2410 C   0  0  0  0  0  0  0  0  0  0  0  0
  182.3520  178.5520  141.5880 C   0  0  0  0  0  3  0  0  0  0  0  0
  186.5390  178.8540  141.3430 O   0  0  0  0  0  0  0  0  0  0  0  0
  185.1450  179.4750  138.3410 O   0  0  0  0  0  1  0  0  0  0  0  0
  182.1000  176.3810  139.0030 N   0  0  0  0  0  0  0  0  0  0  0  0
  183.5250  176.3460  135.7970 C   0  0  1  0  0  0  0  0  0  0  0  0
  182.3740  176.5970  136.6520 N   0  0  0  0  0  2  0  0  0  0  0  0
  182.0520  174.3380  137.7480 C   0  0  0  0  0  1  0  0  0  0  0  0
  187.3220  177.4260  137.8490 C   0  0  2  0  0  3  0  0  0  0  0  0
  187.2500  178.3540  140.2470 C   0  0  0  0  0  0  0  0  0  0  0  0
  182.1310  175.8230  137.8310 C   0  0  0  0  0  0  0  0  0  0  0  0
  184.7230  177.2380  136.0900 C   0  0  2  0  0  3  0  0  0  0  0  0
  183.0940  178.9620  142.6980 C   0  0  0  0  0  3  0  0  0  0  0  0
  186.8870  176.2420  136.9630 C   0  0  0  0  0  2  0  0  0  0  0  0
  183.6460  174.9900  135.1150 C   0  0  0  0  0  1  0  0  0  0  0  0
  181.6510  178.6200  138.4710 O   0  0  0  0  0  0  0  0  0  0  0  0
  185.1420  178.7710  141.4140 C   0  0  0  0  0  0  0  0  0  0  0  0
  184.4840  179.0730  142.6140 C   0  0  0  0  0  0  0  0  0  0  0  0
  183.8380  177.4960  134.8720 C   0  0  0  0  0  2  0  0  0  0  0  0
  182.9940  178.2590  140.3800 C   0  0  0  0  0  0  0  0  0  0  0  0
  185.0960  178.2240  138.9620 C   0  0  1  0  0  3  0  0  0  0  0  0
  188.5070  178.4290  140.2390 O   0  0  0  0  0  0  0  0  0  0  0  0
  186.5070  177.6440  139.1420 C   0  0  1  0  0  3  0  0  0  0  0  0
  186.7620  177.3170  134.7990 O   0  0  0  0  0  1  0  0  0  0  0  0
  185.2090  179.4740  143.7290 O   0  0  0  0  0  1  0  0  0  0  0  0
  184.3950  178.3750  140.2860 C   0  0  0  0  0  0  0  0  0  0  0  0
  186.0380  176.5610  135.7240 C   0  0  2  0  0  3  0  0  0  0  0  0
  187.9110  178.6300  137.1640 C   0  0  0  0  0  0  0  0  0  0  0  0
  189.3580  178.6350  136.8090 C   0  0  0  0  0  1  0  0  0  0  0  0
  187.2210  179.5950  136.8810 O   0  0  0  0  0  0  0  0  0  0  0  0
  1 20  1  0  0  0  0
  2 13  1  0  0  0  0
  3 17  1  0  0  0  0
  5  1  1  0  0  0  0
  6 15  1  6  0  0  0
  6 12  1  0  0  0  0
  6  7  1  0  0  0  0
  7 11  1  0  0  0  0
  8 11  1  0  0  0  0
  9 28  1  6  0  0  0
  9 23  1  0  0  0  0
 10  3  1  0  0  0  0
 11  5  2  0  0  0  0
 12 19  1  6  0  0  0
 14  9  1  0  0  0  0
 16  1  2  0  0  0  0
 17 18  1  0  0  0  0
 18 13  2  0  0  0  0
 18 25  1  0  0  0  0
 19  6  1  0  0  0  0
 20  2  2  0  0  0  0
 21  4  1  1  0  0  0
 21 23  1  0  0  0  0
 21 26  1  0  0  0  0
 22 10  2  0  0  0  0
 23 10  1  1  0  0  0
 26 20  1  0  0  0  0
 26 17  2  0  0  0  0
 27 24  1  6  0  0  0
 27 12  1  0  0  0  0
 27 14  1  0  0  0  0
 29 28  1  0  0  0  0
 30 28  2  0  0  0  0
M  END
>  <MODEL>
7

>  <REMARK>
 VINA RESULT:      -5.8      4.694      8.056
  Name = 
  1 active torsions:
  status: ('A' for Active; 'I' for Inactive)
    1  A    between atoms: C_7  and  C_10
                            x       y       z     vdW  Elec       q    Type
                         _______ _______ _______ _____ _____    ______ ____

>  <TORSDO>
F 1

$$$$
=
 OpenBabel10262422023D

 30 33  0  0  1  0  0  0  0  0999 V2000
  187.1180  178.1740  137.8560 C   0  0  0  0  0  0  0  0  0  0  0  0
  188.6480  176.7810  136.5050 C   0  0  0  0  0  3  0  0  0  0  0  0
  185.6450  173.9110  135.8560 O   0  0  0  0  0  0  0  0  0  0  0  0
  184.2850  176.9740  136.1720 O   0  0  0  0  0  1  0  0  0  0  0  0
  187.1900  178.0540  139.2820 N   0  0  0  0  0  0  0  0  0  0  0  0
  183.8880  179.0000  139.9970 C   0  0  1  0  0  0  0  0  0  0  0  0
  185.2510  179.3770  139.6520 N   0  0  0  0  0  2  0  0  0  0  0  0
  186.5590  178.3750  141.5730 C   0  0  0  0  0  1  0  0  0  0  0  0
  182.7350  175.1700  138.0490 C   0  0  2  0  0  3  0  0  0  0  0  0
  184.4290  173.9480  136.5460 C   0  0  0  0  0  0  0  0  0  0  0  0
  186.3790  178.6280  140.1170 C   0  0  0  0  0  0  0  0  0  0  0  0
  183.1930  178.1480  138.9440 C   0  0  2  0  0  3  0  0  0  0  0  0
  188.9190  175.6370  135.7500 C   0  0  0  0  0  3  0  0  0  0  0  0
  182.5230  175.7560  139.4580 C   0  0  0  0  0  2  0  0  0  0  0  0
  183.4780  179.0040  141.4640 C   0  0  0  0  0  1  0  0  0  0  0  0
  186.8130  179.2690  137.3120 O   0  0  0  0  0  0  0  0  0  0  0  0
  186.6370  174.8790  136.0580 C   0  0  0  0  0  0  0  0  0  0  0  0
  187.9190  174.6880  135.5250 C   0  0  0  0  0  0  0  0  0  0  0  0
  182.8520  179.6290  139.0980 C   0  0  0  0  0  2  0  0  0  0  0  0
  187.3700  176.9910  137.0320 C   0  0  0  0  0  0  0  0  0  0  0  0
  184.9320  176.3150  137.2190 C   0  0  1  0  0  3  0  0  0  0  0  0
  183.5770  173.0420  136.3500 O   0  0  0  0  0  0  0  0  0  0  0  0
  184.2010  175.0160  137.5880 C   0  0  1  0  0  3  0  0  0  0  0  0
  180.8780  177.4680  138.9950 O   0  0  0  0  0  1  0  0  0  0  0  0
  188.2060  173.5520  134.7790 O   0  0  0  0  0  1  0  0  0  0  0  0
  186.3540  176.0420  136.8040 C   0  0  0  0  0  0  0  0  0  0  0  0
  182.1360  177.2380  139.5560 C   0  0  2  0  0  3  0  0  0  0  0  0
  181.6860  175.4580  137.0080 C   0  0  0  0  0  0  0  0  0  0  0  0
  180.4470  174.6320  136.9700 C   0  0  0  0  0  1  0  0  0  0  0  0
  181.8260  176.3660  136.2060 O   0  0  0  0  0  0  0  0  0  0  0  0
  1  5  1  0  0  0  0
  2 20  1  0  0  0  0
  3 17  1  0  0  0  0
  3 10  1  0  0  0  0
  5 11  2  0  0  0  0
  6 15  1  1  0  0  0
  7  6  1  0  0  0  0
  7 11  1  0  0  0  0
  9 28  1  6  0  0  0
  9 14  1  0  0  0  0
 11  8  1  0  0  0  0
 12 19  1  6  0  0  0
 12 27  1  0  0  0  0
 12  6  1  0  0  0  0
 13  2  2  0  0  0  0
 14 27  1  0  0  0  0
 16  1  2  0  0  0  0
 17 26  1  0  0  0  0
 18 13  1  0  0  0  0
 18 17  2  0  0  0  0
 19  6  1  0  0  0  0
 20  1  1  0  0  0  0
 21  4  1  6  0  0  0
 21 23  1  0  0  0  0
 22 10  2  0  0  0  0
 23 10  1  6  0  0  0
 23  9  1  0  0  0  0
 25 18  1  0  0  0  0
 26 20  2  0  0  0  0
 26 21  1  0  0  0  0
 27 24  1  6  0  0  0
 29 28  1  0  0  0  0
 30 28  2  0  0  0  0
M  END
>  <MODEL>
8

>  <REMARK>
 VINA RESULT:      -5.7      5.229      8.809
  Name = 
  1 active torsions:
  status: ('A' for Active; 'I' for Inactive)
    1  A    between atoms: C_7  and  C_10
                            x       y       z     vdW  Elec       q    Type
                         _______ _______ _______ _____ _____    ______ ____

>  <TORSDO>
F 1

$$$$
=
 OpenBabel10262422023D

 30 33  0  0  1  0  0  0  0  0999 V2000
  184.8110  178.8250  140.3980 C   0  0  0  0  0  0  0  0  0  0  0  0
  184.7310  178.9280  142.8670 C   0  0  0  0  0  3  0  0  0  0  0  0
  188.6060  177.3250  143.1740 O   0  0  0  0  0  0  0  0  0  0  0  0
  188.3050  179.1230  140.3430 O   0  0  0  0  0  1  0  0  0  0  0  0
  184.1920  177.7030  139.7570 N   0  0  0  0  0  0  0  0  0  0  0  0
  186.1550  177.6870  136.8490 C   0  0  1  0  0  0  0  0  0  0  0  0
  185.0510  178.2530  137.6100 N   0  0  0  0  0  2  0  0  0  0  0  0
  183.5880  176.2190  137.9730 C   0  0  0  0  0  1  0  0  0  0  0  0
  189.4910  176.4580  139.5240 C   0  0  2  0  0  3  0  0  0  0  0  0
  189.2730  176.7960  142.0650 C   0  0  0  0  0  0  0  0  0  0  0  0
  184.2520  177.4500  138.4860 C   0  0  0  0  0  0  0  0  0  0  0  0
  187.5150  177.8490  137.5130 C   0  0  2  0  0  3  0  0  0  0  0  0
  185.3050  178.7130  144.1210 C   0  0  0  0  0  3  0  0  0  0  0  0
  188.8180  175.8180  138.2940 C   0  0  0  0  0  2  0  0  0  0  0  0
  185.8550  176.6000  135.8250 C   0  0  0  0  0  1  0  0  0  0  0  0
  184.8400  179.9550  139.8430 O   0  0  0  0  0  0  0  0  0  0  0  0
  187.3220  177.8780  143.0670 C   0  0  0  0  0  0  0  0  0  0  0  0
  186.5970  178.1900  144.2240 C   0  0  0  0  0  0  0  0  0  0  0  0
  187.1140  178.7310  136.3320 C   0  0  0  0  0  2  0  0  0  0  0  0
  185.4470  178.6330  141.7030 C   0  0  0  0  0  0  0  0  0  0  0  0
  187.6070  177.9350  140.5700 C   0  0  1  0  0  3  0  0  0  0  0  0
  190.4160  176.2870  142.2140 O   0  0  0  0  0  0  0  0  0  0  0  0
  188.5720  176.7510  140.7290 C   0  0  1  0  0  3  0  0  0  0  0  0
  189.6370  177.2540  136.5280 O   0  0  0  0  0  1  0  0  0  0  0  0
  187.1530  177.9740  145.4790 O   0  0  0  0  0  1  0  0  0  0  0  0
  186.7520  178.1110  141.7980 C   0  0  0  0  0  0  0  0  0  0  0  0
  188.4790  176.7390  137.1140 C   0  0  2  0  0  3  0  0  0  0  0  0
  190.6630  177.3720  139.2800 C   0  0  0  0  0  0  0  0  0  0  0  0
  192.0200  176.7880  139.0940 C   0  0  0  0  0  1  0  0  0  0  0  0
  190.5160  178.5820  139.2170 O   0  0  0  0  0  0  0  0  0  0  0  0
  1 20  1  0  0  0  0
  2 13  1  0  0  0  0
  5  1  1  0  0  0  0
  6 15  1  6  0  0  0
  6 12  1  0  0  0  0
  6  7  1  0  0  0  0
  7 11  1  0  0  0  0
  8 11  1  0  0  0  0
  9 28  1  6  0  0  0
  9 23  1  0  0  0  0
 10 22  2  0  0  0  0
 10  3  1  0  0  0  0
 11  5  2  0  0  0  0
 12 19  1  6  0  0  0
 13 18  2  0  0  0  0
 14  9  1  0  0  0  0
 16  1  2  0  0  0  0
 17  3  1  0  0  0  0
 17 18  1  0  0  0  0
 18 25  1  0  0  0  0
 19  6  1  0  0  0  0
 20 26  1  0  0  0  0
 20  2  2  0  0  0  0
 21  4  1  1  0  0  0
 21 23  1  0  0  0  0
 21 26  1  0  0  0  0
 23 10  1  1  0  0  0
 26 17  2  0  0  0  0
 27 24  1  1  0  0  0
 27 12  1  0  0  0  0
 27 14  1  0  0  0  0
 29 28  1  0  0  0  0
 30 28  2  0  0  0  0
M  END
>  <MODEL>
9

>  <REMARK>
 VINA RESULT:      -5.6      3.486      6.707
  Name = 
  1 active torsions:
  status: ('A' for Active; 'I' for Inactive)
    1  A    between atoms: C_7  and  C_10
                            x       y       z     vdW  Elec       q    Type
                         _______ _______ _______ _____ _____    ______ ____

>  <TORSDO>
F 1

$$$$
