=
 OpenBabel10262422253D

 43 48  0  0  1  0  0  0  0  0999 V2000
  187.1250  178.1110  143.4830 C   0  0  1  0  0  3  0  0  0  0  0  0
  180.7950  179.4190  142.6930 C   0  0  2  0  0  3  0  0  0  0  0  0
  185.6850  178.2730  143.0780 C   0  0  0  0  0  0  0  0  0  0  0  0
  183.0790  178.5900  142.1530 C   0  0  0  0  0  0  0  0  0  0  0  0
  180.9470  178.7450  143.9810 N   0  0  0  0  0  2  0  0  0  0  0  0
  179.3490  179.3520  142.2520 C   0  0  0  0  0  1  0  0  0  0  0  0
  183.3330  178.6470  143.5290 C   0  0  0  0  0  0  0  0  0  0  0  0
  181.6770  178.7390  141.6450 C   0  0  0  0  0  2  0  0  0  0  0  0
  182.2620  178.8740  144.4030 O   0  0  0  0  0  0  0  0  0  0  0  0
  184.9040  178.6080  145.4750 C   0  0  0  0  0  1  0  0  0  0  0  0
  184.6420  178.5070  144.0060 C   0  0  0  0  0  0  0  0  0  0  0  0
  185.3950  178.2080  141.7490 N   0  0  0  0  0  0  0  0  0  0  0  0
  184.1310  178.3590  141.2730 C   0  0  0  0  0  3  0  0  0  0  0  0
  187.2610  177.9730  144.9990 C   0  0  0  0  0  2  0  0  0  0  0  0
  189.9440  176.4470  147.3210 C   0  0  0  0  0  2  0  0  0  0  0  0
  191.1750  176.8270  146.5250 C   0  0  0  0  0  0  0  0  0  0  0  0
  189.7870  178.0450  144.8360 C   0  0  0  0  0  2  0  0  0  0  0  0
  188.7060  177.2580  146.9430 C   0  0  0  0  0  2  0  0  0  0  0  0
  188.5780  177.3210  145.4250 C   0  0  1  0  0  3  0  0  0  0  0  0
  191.0820  177.5040  145.3740 C   0  0  0  0  0  3  0  0  0  0  0  0
  192.4430  176.4200  146.9450 O   0  0  0  0  0  0  0  0  0  0  0  0
  192.6480  175.6760  148.1380 C   0  0  0  0  0  1  0  0  0  0  0  0
  187.8210  176.9640  142.7540 C   0  0  0  0  0  2  0  0  0  0  0  0
  190.3930  176.1150  141.8160 O   0  0  0  0  0  0  0  0  0  0  0  0
  189.7920  177.0030  141.1540 C   0  0  0  0  0  0  0  0  0  0  0  0
  188.4900  177.4460  141.5530 N   0  0  0  0  0  2  0  0  0  0  0  0
  190.2350  176.6800  138.7240 C   0  0  2  0  0  3  0  0  0  0  0  0
  191.9330  177.2390  139.9190 C   0  0  0  0  0  2  0  0  0  0  0  0
  190.4530  177.5750  139.9350 C   0  0  2  0  0  3  0  0  0  0  0  0
  191.7210  176.3610  138.7000 C   0  0  0  0  0  2  0  0  0  0  0  0
  189.8320  177.4850  137.4840 C   0  0  2  0  0  3  0  0  0  0  0  0
  186.9030  177.2280  136.9660 C   0  0  0  0  0  2  0  0  0  0  0  0
  187.8620  176.2370  136.4710 N   0  0  0  0  0  0  0  0  0  0  0  0
  188.8050  178.5670  137.8430 C   0  0  0  0  0  2  0  0  0  0  0  0
  189.2610  176.5530  136.4520 C   0  0  0  0  0  0  0  0  0  0  0  0
  190.0320  175.9790  135.6370 O   0  0  0  0  0  0  0  0  0  0  0  0
  187.4520  177.9520  138.1870 C   0  0  0  0  0  2  0  0  0  0  0  0
  187.4420  174.8610  136.2190 C   0  0  0  0  0  3  0  0  0  0  0  0
  185.6370  173.2440  137.0620 C   0  0  0  0  0  2  0  0  0  0  0  0
  187.9940  172.4270  136.6230 C   0  0  0  0  0  2  0  0  0  0  0  0
  186.5000  172.2050  136.3510 C   0  0  0  0  0  2  0  0  0  0  0  0
  188.3510  173.8810  136.9590 C   0  0  0  0  0  2  0  0  0  0  0  0
  185.9550  174.6570  136.5600 C   0  0  0  0  0  2  0  0  0  0  0  0
  1 23  1  6  0  0  0
  1 14  1  0  0  0  0
  2  6  1  6  0  0  0
  2  5  1  0  0  0  0
  3  1  1  0  0  0  0
  3 11  1  0  0  0  0
  4  7  1  0  0  0  0
  5  9  1  0  0  0  0
  7 11  2  0  0  0  0
  7  9  1  0  0  0  0
  8  4  1  0  0  0  0
  8  2  1  0  0  0  0
 11 10  1  0  0  0  0
 12  3  2  0  0  0  0
 13 12  1  0  0  0  0
 13  4  2  0  0  0  0
 16 21  1  0  0  0  0
 16 15  1  0  0  0  0
 17 20  1  0  0  0  0
 17 19  1  0  0  0  0
 18 15  1  0  0  0  0
 19 14  1  1  0  0  0
 19 18  1  0  0  0  0
 20 16  2  0  0  0  0
 21 22  1  0  0  0  0
 25 26  1  0  0  0  0
 25 24  2  0  0  0  0
 26 23  1  0  0  0  0
 27 30  1  6  0  0  0
 27 29  1  0  0  0  0
 28 29  1  0  0  0  0
 29 25  1  1  0  0  0
 30 28  1  0  0  0  0
 31 34  1  1  0  0  0
 31 27  1  0  0  0  0
 32 37  1  0  0  0  0
 33 32  1  0  0  0  0
 34 37  1  0  0  0  0
 35 33  1  0  0  0  0
 35 31  1  0  0  0  0
 36 35  2  0  0  0  0
 38 33  1  0  0  0  0
 38 43  1  0  0  0  0
 38 42  1  0  0  0  0
 40 42  1  0  0  0  0
 41 40  1  0  0  0  0
 41 39  1  0  0  0  0
 43 39  1  0  0  0  0
M  END
>  <MODEL>
1

>  <REMARK>
 VINA RESULT:     -10.3      0.000      0.000
  Name = 
  9 active torsions:
  status: ('A' for Active; 'I' for Inactive)
    1  A    between atoms: C_1  and  C_34
    2  A    between atoms: C_1  and  C_35
    3  A    between atoms: C_3  and  C_4
    4  A    between atoms: C_6  and  C_12
    5  A    between atoms: C_8  and  C_34
    6  A    between atoms: C_11  and  N_14
    7  A    between atoms: N_13  and  C_38
    8  A    between atoms: C_19  and  O_25
    9  A    between atoms: C_34  and  C_38
                            x       y       z     vdW  Elec       q    Type
                         _______ _______ _______ _____ _____    ______ ____

>  <TORSDO>
F 9

$$$$
=
 OpenBabel10262422253D

 43 48  0  0  1  0  0  0  0  0999 V2000
  187.6170  177.8950  141.7250 C   0  0  1  0  0  3  0  0  0  0  0  0
  191.1870  176.2970  146.9320 C   0  0  2  0  0  3  0  0  0  0  0  0
  188.6170  177.6970  142.8320 C   0  0  0  0  0  0  0  0  0  0  0  0
  190.6020  177.3430  144.7510 C   0  0  0  0  0  0  0  0  0  0  0  0
  189.8980  176.7890  147.4160 N   0  0  0  0  0  2  0  0  0  0  0  0
  192.1980  176.3300  148.0570 C   0  0  0  0  0  1  0  0  0  0  0  0
  189.2650  177.1080  145.0930 C   0  0  0  0  0  0  0  0  0  0  0  0
  191.6770  177.1760  145.7810 C   0  0  0  0  0  2  0  0  0  0  0  0
  188.9660  176.6880  146.3950 O   0  0  0  0  0  0  0  0  0  0  0  0
  186.8380  176.9730  144.4990 C   0  0  0  0  0  1  0  0  0  0  0  0
  188.2580  177.2650  144.1310 C   0  0  0  0  0  0  0  0  0  0  0  0
  189.9270  177.9310  142.5440 N   0  0  0  0  0  0  0  0  0  0  0  0
  190.9140  177.7660  143.4630 C   0  0  0  0  0  3  0  0  0  0  0  0
  186.7610  179.1380  141.9690 C   0  0  0  0  0  2  0  0  0  0  0  0
  182.9590  178.5550  141.6210 C   0  0  0  0  0  2  0  0  0  0  0  0
  182.5380  178.9680  143.0160 C   0  0  0  0  0  0  0  0  0  0  0  0
  184.8880  179.5890  143.6120 C   0  0  0  0  0  2  0  0  0  0  0  0
  184.3460  179.0630  141.2330 C   0  0  0  0  0  2  0  0  0  0  0  0
  185.3240  178.8060  142.3750 C   0  0  1  0  0  3  0  0  0  0  0  0
  183.4320  179.3820  143.9220 C   0  0  0  0  0  3  0  0  0  0  0  0
  181.2030  178.8640  143.4120 O   0  0  0  0  0  0  0  0  0  0  0  0
  180.1990  178.3170  142.5700 C   0  0  0  0  0  1  0  0  0  0  0  0
  188.2600  177.9230  140.3410 C   0  0  0  0  0  2  0  0  0  0  0  0
  188.1160  176.8030  137.7080 O   0  0  0  0  0  0  0  0  0  0  0  0
  187.2790  177.6920  138.0110 C   0  0  0  0  0  0  0  0  0  0  0  0
  187.2780  178.2690  139.3230 N   0  0  0  0  0  2  0  0  0  0  0  0
  185.4340  176.9500  136.5100 C   0  0  2  0  0  3  0  0  0  0  0  0
  186.9150  178.2260  135.6150 C   0  0  0  0  0  2  0  0  0  0  0  0
  186.2730  178.1260  136.9860 C   0  0  2  0  0  3  0  0  0  0  0  0
  186.0650  177.0650  135.1320 C   0  0  0  0  0  2  0  0  0  0  0  0
  183.9430  177.2950  136.4560 C   0  0  2  0  0  3  0  0  0  0  0  0
  182.3680  175.4470  138.1940 C   0  0  0  0  0  2  0  0  0  0  0  0
  182.7180  175.0960  136.8150 N   0  0  0  0  0  0  0  0  0  0  0  0
  183.4180  177.6750  137.8460 C   0  0  0  0  0  2  0  0  0  0  0  0
  183.1800  176.1170  135.9190 C   0  0  0  0  0  0  0  0  0  0  0  0
  183.0340  175.9840  134.6740 O   0  0  0  0  0  0  0  0  0  0  0  0
  183.3540  176.4570  138.7640 C   0  0  0  0  0  2  0  0  0  0  0  0
  182.8270  173.6960  136.4130 C   0  0  0  0  0  3  0  0  0  0  0  0
  181.8300  171.4380  137.1120 C   0  0  0  0  0  2  0  0  0  0  0  0
  184.2810  171.6300  136.5050 C   0  0  0  0  0  2  0  0  0  0  0  0
  182.9640  170.8820  136.2540 C   0  0  0  0  0  2  0  0  0  0  0  0
  184.0900  173.0680  137.0020 C   0  0  0  0  0  2  0  0  0  0  0  0
  181.5560  172.9080  136.7730 C   0  0  0  0  0  2  0  0  0  0  0  0
  1 23  1  6  0  0  0
  1 14  1  0  0  0  0
  1  3  1  0  0  0  0
  2  5  1  0  0  0  0
  2  6  1  1  0  0  0
  3 11  1  0  0  0  0
  4  7  1  0  0  0  0
  4  8  1  0  0  0  0
  7  9  1  0  0  0  0
  8  2  1  0  0  0  0
  9  5  1  0  0  0  0
 11 10  1  0  0  0  0
 11  7  2  0  0  0  0
 12  3  2  0  0  0  0
 12 13  1  0  0  0  0
 13  4  2  0  0  0  0
 15 16  1  0  0  0  0
 16 21  1  0  0  0  0
 16 20  2  0  0  0  0
 17 20  1  0  0  0  0
 18 15  1  0  0  0  0
 18 19  1  0  0  0  0
 19 14  1  6  0  0  0
 19 17  1  0  0  0  0
 22 21  1  0  0  0  0
 24 25  2  0  0  0  0
 25 26  1  0  0  0  0
 26 23  1  0  0  0  0
 27 30  1  6  0  0  0
 27 29  1  0  0  0  0
 28 29  1  0  0  0  0
 29 25  1  1  0  0  0
 30 28  1  0  0  0  0
 31 27  1  0  0  0  0
 31 34  1  1  0  0  0
 32 37  1  0  0  0  0
 33 32  1  0  0  0  0
 34 37  1  0  0  0  0
 35 31  1  0  0  0  0
 35 33  1  0  0  0  0
 36 35  2  0  0  0  0
 38 43  1  0  0  0  0
 38 33  1  0  0  0  0
 38 42  1  0  0  0  0
 40 42  1  0  0  0  0
 41 40  1  0  0  0  0
 41 39  1  0  0  0  0
 43 39  1  0  0  0  0
M  END
>  <MODEL>
2

>  <REMARK>
 VINA RESULT:     -10.0      2.673      6.909
  Name = 
  9 active torsions:
  status: ('A' for Active; 'I' for Inactive)
    1  A    between atoms: C_1  and  C_34
    2  A    between atoms: C_1  and  C_35
    3  A    between atoms: C_3  and  C_4
    4  A    between atoms: C_6  and  C_12
    5  A    between atoms: C_8  and  C_34
    6  A    between atoms: C_11  and  N_14
    7  A    between atoms: N_13  and  C_38
    8  A    between atoms: C_19  and  O_25
    9  A    between atoms: C_34  and  C_38
                            x       y       z     vdW  Elec       q    Type
                         _______ _______ _______ _____ _____    ______ ____

>  <TORSDO>
F 9

$$$$
=
 OpenBabel10262422253D

 43 48  0  0  1  0  0  0  0  0999 V2000
  185.3980  177.9900  141.7820 C   0  0  1  0  0  3  0  0  0  0  0  0
  188.1570  178.1940  147.6770 C   0  0  2  0  0  3  0  0  0  0  0  0
  185.7890  178.0640  143.2330 C   0  0  0  0  0  0  0  0  0  0  0  0
  186.3800  178.3320  145.9390 C   0  0  0  0  0  0  0  0  0  0  0  0
  188.5540  176.9350  147.0490 N   0  0  0  0  0  2  0  0  0  0  0  0
  188.3840  178.1100  149.1710 C   0  0  0  0  0  1  0  0  0  0  0  0
  187.2500  177.6100  145.1130 C   0  0  0  0  0  0  0  0  0  0  0  0
  186.6770  178.4660  147.4020 C   0  0  0  0  0  2  0  0  0  0  0  0
  188.4040  177.0510  145.6750 O   0  0  0  0  0  0  0  0  0  0  0  0
  187.9320  176.7420  142.8680 C   0  0  0  0  0  1  0  0  0  0  0  0
  186.9740  177.4840  143.7460 C   0  0  0  0  0  0  0  0  0  0  0  0
  184.9610  178.7440  144.0720 N   0  0  0  0  0  0  0  0  0  0  0  0
  185.2270  178.8890  145.3970 C   0  0  0  0  0  3  0  0  0  0  0  0
  183.8820  177.8840  141.6220 C   0  0  0  0  0  2  0  0  0  0  0  0
  182.2060  179.1410  138.3770 C   0  0  0  0  0  2  0  0  0  0  0  0
  181.8730  177.7990  137.7600 C   0  0  0  0  0  0  0  0  0  0  0  0
  182.7610  176.5850  139.7610 C   0  0  0  0  0  2  0  0  0  0  0  0
  182.4890  179.0630  139.8760 C   0  0  0  0  0  2  0  0  0  0  0  0
  183.4310  177.8980  140.1610 C   0  0  1  0  0  3  0  0  0  0  0  0
  182.1810  176.6510  138.3760 C   0  0  0  0  0  3  0  0  0  0  0  0
  181.2910  177.7280  136.4930 O   0  0  0  0  0  0  0  0  0  0  0  0
  182.0630  177.6710  135.3010 C   0  0  0  0  0  1  0  0  0  0  0  0
  185.9680  179.1380  140.9530 C   0  0  0  0  0  2  0  0  0  0  0  0
  186.4250  178.6530  138.1660 O   0  0  0  0  0  0  0  0  0  0  0  0
  187.3970  178.5020  138.9530 C   0  0  0  0  0  0  0  0  0  0  0  0
  187.2400  178.7610  140.3540 N   0  0  0  0  0  2  0  0  0  0  0  0
  188.7630  176.5550  138.2130 C   0  0  2  0  0  3  0  0  0  0  0  0
  189.7540  177.9570  139.5070 C   0  0  0  0  0  2  0  0  0  0  0  0
  188.7210  178.0640  138.4010 C   0  0  2  0  0  3  0  0  0  0  0  0
  189.8110  176.4540  139.3080 C   0  0  0  0  0  2  0  0  0  0  0  0
  189.3550  176.1640  136.8550 C   0  0  2  0  0  3  0  0  0  0  0  0
  187.1920  175.7560  134.8380 C   0  0  0  0  0  2  0  0  0  0  0  0
  187.6090  174.6850  135.7480 N   0  0  0  0  0  0  0  0  0  0  0  0
  188.9880  177.1950  135.7800 C   0  0  0  0  0  2  0  0  0  0  0  0
  188.8460  174.8050  136.4640 C   0  0  0  0  0  0  0  0  0  0  0  0
  189.4580  173.7750  136.8520 O   0  0  0  0  0  0  0  0  0  0  0  0
  187.5040  177.1240  135.4300 C   0  0  0  0  0  2  0  0  0  0  0  0
  186.6790  173.6180  136.1090 C   0  0  0  0  0  3  0  0  0  0  0  0
  184.4370  172.6920  135.2760 C   0  0  0  0  0  2  0  0  0  0  0  0
  184.9000  172.9020  137.7570 C   0  0  0  0  0  2  0  0  0  0  0  0
  184.4450  171.9730  136.6220 C   0  0  0  0  0  2  0  0  0  0  0  0
  185.8090  174.0460  137.2920 C   0  0  0  0  0  2  0  0  0  0  0  0
  185.8450  173.1660  134.8980 C   0  0  0  0  0  2  0  0  0  0  0  0
  1 23  1  6  0  0  0
  1  3  1  0  0  0  0
  2  6  1  1  0  0  0
  3 11  2  0  0  0  0
  3 12  1  0  0  0  0
  4  8  1  0  0  0  0
  5  2  1  0  0  0  0
  7  9  1  0  0  0  0
  7  4  2  0  0  0  0
  8  2  1  0  0  0  0
  9  5  1  0  0  0  0
 10 11  1  0  0  0  0
 11  7  1  0  0  0  0
 12 13  2  0  0  0  0
 13  4  1  0  0  0  0
 14  1  1  0  0  0  0
 15 18  1  0  0  0  0
 16 20  2  0  0  0  0
 16 15  1  0  0  0  0
 17 19  1  0  0  0  0
 18 19  1  0  0  0  0
 19 14  1  1  0  0  0
 20 17  1  0  0  0  0
 21 16  1  0  0  0  0
 22 21  1  0  0  0  0
 24 25  2  0  0  0  0
 25 26  1  0  0  0  0
 26 23  1  0  0  0  0
 27 29  1  0  0  0  0
 27 30  1  1  0  0  0
 29 25  1  1  0  0  0
 29 28  1  0  0  0  0
 30 28  1  0  0  0  0
 31 34  1  6  0  0  0
 31 27  1  0  0  0  0
 32 37  1  0  0  0  0
 32 33  1  0  0  0  0
 33 38  1  0  0  0  0
 33 35  1  0  0  0  0
 35 36  2  0  0  0  0
 35 31  1  0  0  0  0
 37 34  1  0  0  0  0
 38 42  1  0  0  0  0
 39 41  1  0  0  0  0
 41 40  1  0  0  0  0
 42 40  1  0  0  0  0
 43 39  1  0  0  0  0
 43 38  1  0  0  0  0
M  END
>  <MODEL>
3

>  <REMARK>
 VINA RESULT:     -10.0      2.609      6.540
  Name = 
  9 active torsions:
  status: ('A' for Active; 'I' for Inactive)
    1  A    between atoms: C_1  and  C_34
    2  A    between atoms: C_1  and  C_35
    3  A    between atoms: C_3  and  C_4
    4  A    between atoms: C_6  and  C_12
    5  A    between atoms: C_8  and  C_34
    6  A    between atoms: C_11  and  N_14
    7  A    between atoms: N_13  and  C_38
    8  A    between atoms: C_19  and  O_25
    9  A    between atoms: C_34  and  C_38
                            x       y       z     vdW  Elec       q    Type
                         _______ _______ _______ _____ _____    ______ ____

>  <TORSDO>
F 9

$$$$
=
 OpenBabel10262422253D

 43 48  0  0  1  0  0  0  0  0999 V2000
  186.6550  177.8210  142.8620 C   0  0  1  0  0  3  0  0  0  0  0  0
  191.2430  176.0920  147.1470 C   0  0  2  0  0  3  0  0  0  0  0  0
  187.8830  177.4660  143.6540 C   0  0  0  0  0  0  0  0  0  0  0  0
  190.2240  176.7260  144.9670 C   0  0  0  0  0  0  0  0  0  0  0  0
  190.5060  177.2170  147.7220 N   0  0  0  0  0  2  0  0  0  0  0  0
  192.5670  175.9340  147.8630 C   0  0  0  0  0  1  0  0  0  0  0  0
  189.1430  177.2150  145.7100 C   0  0  0  0  0  0  0  0  0  0  0  0
  191.4960  176.3440  145.6600 C   0  0  0  0  0  2  0  0  0  0  0  0
  189.2690  177.3060  147.1020 O   0  0  0  0  0  0  0  0  0  0  0  0
  186.7930  178.0570  145.8750 C   0  0  0  0  0  1  0  0  0  0  0  0
  187.9530  177.5730  145.0640 C   0  0  0  0  0  0  0  0  0  0  0  0
  188.9620  177.0020  142.9660 N   0  0  0  0  0  0  0  0  0  0  0  0
  190.1160  176.6350  143.5830 C   0  0  0  0  0  3  0  0  0  0  0  0
  185.4690  178.1140  143.7810 C   0  0  0  0  0  2  0  0  0  0  0  0
  181.8590  179.3500  143.1830 C   0  0  0  0  0  2  0  0  0  0  0  0
  181.7250  178.9590  141.7250 C   0  0  0  0  0  0  0  0  0  0  0  0
  184.0030  177.9240  141.7260 C   0  0  0  0  0  2  0  0  0  0  0  0
  182.9990  178.6290  143.8990 C   0  0  0  0  0  2  0  0  0  0  0  0
  184.2550  178.6690  143.0350 C   0  0  1  0  0  3  0  0  0  0  0  0
  182.7260  178.3630  141.0660 C   0  0  0  0  0  3  0  0  0  0  0  0
  180.5660  179.2740  141.0130 O   0  0  0  0  0  0  0  0  0  0  0  0
  179.7070  180.3410  141.3880 C   0  0  0  0  0  1  0  0  0  0  0  0
  186.8930  178.9640  141.8780 C   0  0  0  0  0  2  0  0  0  0  0  0
  186.8350  178.4880  139.0530 O   0  0  0  0  0  0  0  0  0  0  0  0
  187.9510  178.4300  139.6330 C   0  0  0  0  0  0  0  0  0  0  0  0
  188.0510  178.6900  141.0390 N   0  0  0  0  0  2  0  0  0  0  0  0
  189.0910  176.6920  138.2600 C   0  0  2  0  0  3  0  0  0  0  0  0
  190.3110  177.6680  139.7370 C   0  0  0  0  0  2  0  0  0  0  0  0
  189.1740  178.1000  138.8300 C   0  0  2  0  0  3  0  0  0  0  0  0
  190.2430  176.2680  139.1560 C   0  0  0  0  0  2  0  0  0  0  0  0
  189.5040  176.6470  136.7850 C   0  0  2  0  0  3  0  0  0  0  0  0
  187.1050  176.4140  135.0240 C   0  0  0  0  0  2  0  0  0  0  0  0
  187.7370  175.2360  135.6230 N   0  0  0  0  0  0  0  0  0  0  0  0
  188.8990  177.8250  136.0110 C   0  0  0  0  0  2  0  0  0  0  0  0
  189.0530  175.3450  136.1830 C   0  0  0  0  0  0  0  0  0  0  0  0
  189.7970  174.3320  136.2610 O   0  0  0  0  0  0  0  0  0  0  0  0
  187.3910  177.6620  135.8470 C   0  0  0  0  0  2  0  0  0  0  0  0
  186.9600  174.0230  135.8660 C   0  0  0  0  0  3  0  0  0  0  0  0
  184.7330  173.0100  135.0970 C   0  0  0  0  0  2  0  0  0  0  0  0
  185.4610  172.8280  137.5160 C   0  0  0  0  0  2  0  0  0  0  0  0
  184.9660  172.0690  136.2760 C   0  0  0  0  0  2  0  0  0  0  0  0
  186.1980  174.1330  137.1870 C   0  0  0  0  0  2  0  0  0  0  0  0
  186.0360  173.7010  134.6790 C   0  0  0  0  0  2  0  0  0  0  0  0
  1 23  1  1  0  0  0
  1  3  1  0  0  0  0
  1 14  1  0  0  0  0
  2  5  1  0  0  0  0
  2  6  1  1  0  0  0
  3 11  1  0  0  0  0
  4  8  1  0  0  0  0
  4  7  1  0  0  0  0
  7  9  1  0  0  0  0
  8  2  1  0  0  0  0
  9  5  1  0  0  0  0
 11  7  2  0  0  0  0
 11 10  1  0  0  0  0
 12 13  1  0  0  0  0
 12  3  2  0  0  0  0
 13  4  2  0  0  0  0
 15 18  1  0  0  0  0
 16 15  1  0  0  0  0
 17 19  1  0  0  0  0
 19 14  1  1  0  0  0
 19 18  1  0  0  0  0
 20 16  2  0  0  0  0
 20 17  1  0  0  0  0
 21 22  1  0  0  0  0
 21 16  1  0  0  0  0
 24 25  2  0  0  0  0
 25 26  1  0  0  0  0
 26 23  1  0  0  0  0
 27 29  1  0  0  0  0
 27 30  1  1  0  0  0
 29 25  1  1  0  0  0
 29 28  1  0  0  0  0
 30 28  1  0  0  0  0
 31 34  1  6  0  0  0
 31 27  1  0  0  0  0
 32 33  1  0  0  0  0
 32 37  1  0  0  0  0
 33 38  1  0  0  0  0
 33 35  1  0  0  0  0
 35 36  2  0  0  0  0
 35 31  1  0  0  0  0
 37 34  1  0  0  0  0
 38 42  1  0  0  0  0
 39 41  1  0  0  0  0
 41 40  1  0  0  0  0
 42 40  1  0  0  0  0
 43 39  1  0  0  0  0
 43 38  1  0  0  0  0
M  END
>  <MODEL>
4

>  <REMARK>
 VINA RESULT:      -9.8      2.009      6.399
  Name = 
  9 active torsions:
  status: ('A' for Active; 'I' for Inactive)
    1  A    between atoms: C_1  and  C_34
    2  A    between atoms: C_1  and  C_35
    3  A    between atoms: C_3  and  C_4
    4  A    between atoms: C_6  and  C_12
    5  A    between atoms: C_8  and  C_34
    6  A    between atoms: C_11  and  N_14
    7  A    between atoms: N_13  and  C_38
    8  A    between atoms: C_19  and  O_25
    9  A    between atoms: C_34  and  C_38
                            x       y       z     vdW  Elec       q    Type
                         _______ _______ _______ _____ _____    ______ ____

>  <TORSDO>
F 9

$$$$
=
 OpenBabel10262422253D

 43 48  0  0  1  0  0  0  0  0999 V2000
  187.7620  178.3780  141.8370 C   0  0  1  0  0  3  0  0  0  0  0  0
  181.4060  179.3880  140.8390 C   0  0  2  0  0  3  0  0  0  0  0  0
  186.3360  178.5010  141.3710 C   0  0  0  0  0  0  0  0  0  0  0  0
  183.7650  178.7690  140.3400 C   0  0  0  0  0  0  0  0  0  0  0  0
  181.5380  178.5740  142.0460 N   0  0  0  0  0  2  0  0  0  0  0  0
  179.9920  179.2870  140.3100 C   0  0  0  0  0  1  0  0  0  0  0  0
  183.9440  178.6750  141.7250 C   0  0  0  0  0  0  0  0  0  0  0  0
  182.3840  178.8930  139.7720 C   0  0  0  0  0  2  0  0  0  0  0  0
  182.8180  178.7300  142.5560 O   0  0  0  0  0  0  0  0  0  0  0  0
  185.4140  178.4970  143.7420 C   0  0  0  0  0  1  0  0  0  0  0  0
  185.2350  178.5580  142.2580 C   0  0  0  0  0  0  0  0  0  0  0  0
  186.1190  178.5790  140.0300 N   0  0  0  0  0  0  0  0  0  0  0  0
  184.8730  178.7100  139.5020 C   0  0  0  0  0  3  0  0  0  0  0  0
  188.1490  176.9150  142.0540 C   0  0  0  0  0  2  0  0  0  0  0  0
  189.6470  177.5430  145.5570 C   0  0  0  0  0  2  0  0  0  0  0  0
  191.0200  176.9470  145.3260 C   0  0  0  0  0  0  0  0  0  0  0  0
  190.4830  176.4740  142.9290 C   0  0  0  0  0  2  0  0  0  0  0  0
  188.9070  177.8740  144.2630 C   0  0  0  0  0  2  0  0  0  0  0  0
  189.0180  176.7030  143.2940 C   0  0  1  0  0  3  0  0  0  0  0  0
  191.3630  176.4180  144.1460 C   0  0  0  0  0  3  0  0  0  0  0  0
  191.9450  176.8770  146.3700 O   0  0  0  0  0  0  0  0  0  0  0  0
  191.9220  175.8400  147.3410 C   0  0  0  0  0  1  0  0  0  0  0  0
  188.7510  179.0850  140.9150 C   0  0  0  0  0  2  0  0  0  0  0  0
  188.8270  179.5490  138.0880 O   0  0  0  0  0  0  0  0  0  0  0  0
  189.2570  178.4440  138.5110 C   0  0  0  0  0  0  0  0  0  0  0  0
  189.2750  178.1640  139.9160 N   0  0  0  0  0  2  0  0  0  0  0  0
  188.7060  176.3780  137.2330 C   0  0  2  0  0  3  0  0  0  0  0  0
  190.6160  176.3880  138.2190 C   0  0  0  0  0  2  0  0  0  0  0  0
  189.7630  177.4330  137.5250 C   0  0  2  0  0  3  0  0  0  0  0  0
  189.5720  175.3300  137.9120 C   0  0  0  0  0  2  0  0  0  0  0  0
  188.5820  176.0930  135.7320 C   0  0  2  0  0  3  0  0  0  0  0  0
  186.1810  177.4530  134.5940 C   0  0  0  0  0  2  0  0  0  0  0  0
  186.0900  176.1370  135.2310 N   0  0  0  0  0  0  0  0  0  0  0  0
  188.6450  177.3930  134.9210 C   0  0  0  0  0  2  0  0  0  0  0  0
  187.2850  175.3800  135.4680 C   0  0  0  0  0  0  0  0  0  0  0  0
  187.2360  174.1240  135.5520 O   0  0  0  0  0  0  0  0  0  0  0  0
  187.3830  178.2280  135.1160 C   0  0  0  0  0  2  0  0  0  0  0  0
  184.8370  175.6920  135.8350 C   0  0  0  0  0  3  0  0  0  0  0  0
  184.0940  174.1750  137.7660 C   0  0  0  0  0  2  0  0  0  0  0  0
  182.8440  174.1590  135.5640 C   0  0  0  0  0  2  0  0  0  0  0  0
  182.7310  174.2930  137.0890 C   0  0  0  0  0  2  0  0  0  0  0  0
  184.2140  174.5680  135.0080 C   0  0  0  0  0  2  0  0  0  0  0  0
  185.0330  175.2980  137.3100 C   0  0  0  0  0  2  0  0  0  0  0  0
  1 23  1  6  0  0  0
  1 14  1  0  0  0  0
  2  6  1  6  0  0  0
  2  5  1  0  0  0  0
  3  1  1  0  0  0  0
  3 11  1  0  0  0  0
  4  7  1  0  0  0  0
  5  9  1  0  0  0  0
  7 11  2  0  0  0  0
  7  9  1  0  0  0  0
  8  4  1  0  0  0  0
  8  2  1  0  0  0  0
 11 10  1  0  0  0  0
 12  3  2  0  0  0  0
 13 12  1  0  0  0  0
 13  4  2  0  0  0  0
 16 15  1  0  0  0  0
 16 21  1  0  0  0  0
 17 19  1  0  0  0  0
 17 20  1  0  0  0  0
 18 15  1  0  0  0  0
 19 14  1  6  0  0  0
 19 18  1  0  0  0  0
 20 16  2  0  0  0  0
 21 22  1  0  0  0  0
 24 25  2  0  0  0  0
 25 26  1  0  0  0  0
 26 23  1  0  0  0  0
 27 29  1  0  0  0  0
 27 30  1  1  0  0  0
 29 28  1  0  0  0  0
 29 25  1  1  0  0  0
 30 28  1  0  0  0  0
 31 34  1  6  0  0  0
 31 27  1  0  0  0  0
 32 37  1  0  0  0  0
 32 33  1  0  0  0  0
 33 35  1  0  0  0  0
 33 38  1  0  0  0  0
 34 37  1  0  0  0  0
 35 36  2  0  0  0  0
 35 31  1  0  0  0  0
 38 43  1  0  0  0  0
 40 41  1  0  0  0  0
 41 39  1  0  0  0  0
 42 40  1  0  0  0  0
 42 38  1  0  0  0  0
 43 39  1  0  0  0  0
M  END
>  <MODEL>
5

>  <REMARK>
 VINA RESULT:      -9.7      1.872      2.641
  Name = 
  9 active torsions:
  status: ('A' for Active; 'I' for Inactive)
    1  A    between atoms: C_1  and  C_34
    2  A    between atoms: C_1  and  C_35
    3  A    between atoms: C_3  and  C_4
    4  A    between atoms: C_6  and  C_12
    5  A    between atoms: C_8  and  C_34
    6  A    between atoms: C_11  and  N_14
    7  A    between atoms: N_13  and  C_38
    8  A    between atoms: C_19  and  O_25
    9  A    between atoms: C_34  and  C_38
                            x       y       z     vdW  Elec       q    Type
                         _______ _______ _______ _____ _____    ______ ____

>  <TORSDO>
F 9

$$$$
=
 OpenBabel10262422253D

 43 48  0  0  1  0  0  0  0  0999 V2000
  189.4630  177.7280  139.5100 C   0  0  1  0  0  3  0  0  0  0  0  0
  189.3730  177.7660  146.0210 C   0  0  2  0  0  3  0  0  0  0  0  0
  189.2020  177.6330  140.9890 C   0  0  0  0  0  0  0  0  0  0  0  0
  188.5420  177.5060  143.6900 C   0  0  0  0  0  0  0  0  0  0  0  0
  190.5380  176.9880  145.6020 N   0  0  0  0  0  2  0  0  0  0  0  0
  189.0450  177.4510  147.4640 C   0  0  0  0  0  1  0  0  0  0  0  0
  189.8870  177.4470  143.3060 C   0  0  0  0  0  0  0  0  0  0  0  0
  188.1730  177.4180  145.1400 C   0  0  0  0  0  2  0  0  0  0  0  0
  190.8670  177.3380  144.3010 O   0  0  0  0  0  0  0  0  0  0  0  0
  191.6770  177.5040  141.5590 C   0  0  0  0  0  1  0  0  0  0  0  0
  190.2330  177.5290  141.9510 C   0  0  0  0  0  0  0  0  0  0  0  0
  187.9040  177.6690  141.4010 N   0  0  0  0  0  0  0  0  0  0  0  0
  187.5570  177.6090  142.7130 C   0  0  0  0  0  3  0  0  0  0  0  0
  189.2740  176.3740  138.8260 C   0  0  0  0  0  2  0  0  0  0  0  0
  192.9240  176.1610  137.5820 C   0  0  0  0  0  2  0  0  0  0  0  0
  192.6490  175.9870  136.1030 C   0  0  0  0  0  0  0  0  0  0  0  0
  190.1830  176.1990  136.4700 C   0  0  0  0  0  2  0  0  0  0  0  0
  191.7310  176.7180  138.3570 C   0  0  0  0  0  2  0  0  0  0  0  0
  190.4640  175.9720  137.9540 C   0  0  1  0  0  3  0  0  0  0  0  0
  191.4000  175.9520  135.6230 C   0  0  0  0  0  3  0  0  0  0  0  0
  193.7010  175.7910  135.2060 O   0  0  0  0  0  0  0  0  0  0  0  0
  195.0610  175.7720  135.6190 C   0  0  0  0  0  1  0  0  0  0  0  0
  188.6360  178.8160  138.8300 C   0  0  0  0  0  2  0  0  0  0  0  0
  185.8040  179.0020  139.2290 O   0  0  0  0  0  0  0  0  0  0  0  0
  186.2130  178.3330  138.2440 C   0  0  0  0  0  0  0  0  0  0  0  0
  187.6160  178.2290  137.9720 N   0  0  0  0  0  2  0  0  0  0  0  0
  184.4610  176.5680  138.1000 C   0  0  2  0  0  3  0  0  0  0  0  0
  185.8820  176.6120  136.4870 C   0  0  0  0  0  2  0  0  0  0  0  0
  185.2110  177.6610  137.3530 C   0  0  2  0  0  3  0  0  0  0  0  0
  185.1210  175.5210  137.2180 C   0  0  0  0  0  2  0  0  0  0  0  0
  182.9530  176.6270  137.8390 C   0  0  2  0  0  3  0  0  0  0  0  0
  181.7690  179.0900  139.0430 C   0  0  0  0  0  2  0  0  0  0  0  0
  181.9630  177.8660  139.8260 N   0  0  0  0  0  0  0  0  0  0  0  0
  182.5860  177.8780  137.0310 C   0  0  0  0  0  2  0  0  0  0  0  0
  182.2210  176.6270  139.1520 C   0  0  0  0  0  0  0  0  0  0  0  0
  181.9250  175.5310  139.7000 O   0  0  0  0  0  0  0  0  0  0  0  0
  182.7390  179.1430  137.8710 C   0  0  0  0  0  2  0  0  0  0  0  0
  182.1290  177.9340  141.2760 C   0  0  0  0  0  3  0  0  0  0  0  0
  181.2720  179.3740  143.2180 C   0  0  0  0  0  2  0  0  0  0  0  0
  183.6880  178.6190  143.1450 C   0  0  0  0  0  2  0  0  0  0  0  0
  182.4020  178.6880  143.9810 C   0  0  0  0  0  2  0  0  0  0  0  0
  183.4420  178.6320  141.6310 C   0  0  0  0  0  2  0  0  0  0  0  0
  180.9120  178.5920  141.9500 C   0  0  0  0  0  2  0  0  0  0  0  0
  1 14  1  6  0  0  0
  1  3  1  0  0  0  0
  2  6  1  1  0  0  0
  3 12  2  0  0  0  0
  3 11  1  0  0  0  0
  4  8  1  0  0  0  0
  5  2  1  0  0  0  0
  7  4  1  0  0  0  0
  7  9  1  0  0  0  0
  8  2  1  0  0  0  0
  9  5  1  0  0  0  0
 10 11  1  0  0  0  0
 11  7  2  0  0  0  0
 12 13  1  0  0  0  0
 13  4  2  0  0  0  0
 15 18  1  0  0  0  0
 16 15  1  0  0  0  0
 17 19  1  0  0  0  0
 19 18  1  0  0  0  0
 19 14  1  1  0  0  0
 20 16  2  0  0  0  0
 20 17  1  0  0  0  0
 21 22  1  0  0  0  0
 21 16  1  0  0  0  0
 23  1  1  0  0  0  0
 25 24  2  0  0  0  0
 26 25  1  0  0  0  0
 26 23  1  0  0  0  0
 27 30  1  6  0  0  0
 28 30  1  0  0  0  0
 28 29  1  0  0  0  0
 29 27  1  0  0  0  0
 29 25  1  1  0  0  0
 31 34  1  1  0  0  0
 31 27  1  0  0  0  0
 31 35  1  0  0  0  0
 32 33  1  0  0  0  0
 33 38  1  0  0  0  0
 34 37  1  0  0  0  0
 35 36  2  0  0  0  0
 35 33  1  0  0  0  0
 37 32  1  0  0  0  0
 38 42  1  0  0  0  0
 38 43  1  0  0  0  0
 39 41  1  0  0  0  0
 40 41  1  0  0  0  0
 42 40  1  0  0  0  0
 43 39  1  0  0  0  0
M  END
>  <MODEL>
6

>  <REMARK>
 VINA RESULT:      -9.6      2.524      7.864
  Name = 
  9 active torsions:
  status: ('A' for Active; 'I' for Inactive)
    1  A    between atoms: C_1  and  C_34
    2  A    between atoms: C_1  and  C_35
    3  A    between atoms: C_3  and  C_4
    4  A    between atoms: C_6  and  C_12
    5  A    between atoms: C_8  and  C_34
    6  A    between atoms: C_11  and  N_14
    7  A    between atoms: N_13  and  C_38
    8  A    between atoms: C_19  and  O_25
    9  A    between atoms: C_34  and  C_38
                            x       y       z     vdW  Elec       q    Type
                         _______ _______ _______ _____ _____    ______ ____

>  <TORSDO>
F 9

$$$$
=
 OpenBabel10262422253D

 43 48  0  0  1  0  0  0  0  0999 V2000
  189.1960  177.9210  140.6780 C   0  0  1  0  0  3  0  0  0  0  0  0
  188.4140  177.9900  147.1420 C   0  0  2  0  0  3  0  0  0  0  0  0
  188.7970  177.7980  142.1230 C   0  0  0  0  0  0  0  0  0  0  0  0
  187.8820  177.5920  144.7440 C   0  0  0  0  0  0  0  0  0  0  0  0
  189.7190  177.3930  146.8630 N   0  0  0  0  0  2  0  0  0  0  0  0
  187.9860  177.6400  148.5510 C   0  0  0  0  0  1  0  0  0  0  0  0
  189.2540  177.7340  144.5030 C   0  0  0  0  0  0  0  0  0  0  0  0
  187.3790  177.4600  146.1490 C   0  0  0  0  0  2  0  0  0  0  0  0
  190.1280  177.7790  145.5960 O   0  0  0  0  0  0  0  0  0  0  0  0
  191.1900  178.0460  142.9490 C   0  0  0  0  0  1  0  0  0  0  0  0
  189.7250  177.8570  143.1890 C   0  0  0  0  0  0  0  0  0  0  0  0
  187.4720  177.6430  142.3980 N   0  0  0  0  0  0  0  0  0  0  0  0
  187.0010  177.5400  143.6690 C   0  0  0  0  0  3  0  0  0  0  0  0
  189.7230  176.5940  140.1340 C   0  0  0  0  0  2  0  0  0  0  0  0
  191.9190  175.8870  137.0370 C   0  0  0  0  0  2  0  0  0  0  0  0
  193.2270  176.4500  137.5540 C   0  0  0  0  0  0  0  0  0  0  0  0
  192.2020  176.9640  139.7780 C   0  0  0  0  0  2  0  0  0  0  0  0
  190.9100  175.5900  138.1440 C   0  0  0  0  0  2  0  0  0  0  0  0
  190.8430  176.7690  139.1080 C   0  0  1  0  0  3  0  0  0  0  0  0
  193.3240  176.9830  138.7770 C   0  0  0  0  0  3  0  0  0  0  0  0
  194.3560  176.4840  136.7320 O   0  0  0  0  0  0  0  0  0  0  0  0
  194.4710  175.6890  135.5600 C   0  0  0  0  0  1  0  0  0  0  0  0
  188.0790  178.4790  139.7990 C   0  0  0  0  0  2  0  0  0  0  0  0
  187.5940  179.1830  137.0630 O   0  0  0  0  0  0  0  0  0  0  0  0
  187.4910  177.9690  137.3820 C   0  0  0  0  0  0  0  0  0  0  0  0
  187.7520  177.5490  138.7270 N   0  0  0  0  0  2  0  0  0  0  0  0
  186.6540  175.6610  136.9620 C   0  0  2  0  0  3  0  0  0  0  0  0
  188.3370  176.2770  135.7760 C   0  0  0  0  0  2  0  0  0  0  0  0
  187.1070  176.9700  136.3320 C   0  0  2  0  0  3  0  0  0  0  0  0
  187.8770  174.9670  136.3870 C   0  0  0  0  0  2  0  0  0  0  0  0
  185.3710  175.1280  136.3140 C   0  0  2  0  0  3  0  0  0  0  0  0
  183.2600  177.2390  136.2620 C   0  0  0  0  0  2  0  0  0  0  0  0
  183.4670  176.3850  137.4350 N   0  0  0  0  0  0  0  0  0  0  0  0
  185.0110  175.9410  135.0640 C   0  0  0  0  0  2  0  0  0  0  0  0
  184.2490  175.1890  137.3120 C   0  0  0  0  0  0  0  0  0  0  0  0
  184.0650  174.2250  138.1020 O   0  0  0  0  0  0  0  0  0  0  0  0
  184.5340  177.3430  135.4350 C   0  0  0  0  0  2  0  0  0  0  0  0
  183.0880  176.8520  138.7660 C   0  0  0  0  0  3  0  0  0  0  0  0
  181.3590  178.4410  139.7990 C   0  0  0  0  0  2  0  0  0  0  0  0
  183.7320  178.3720  140.6810 C   0  0  0  0  0  2  0  0  0  0  0  0
  182.2400  178.2970  141.0370 C   0  0  0  0  0  2  0  0  0  0  0  0
  184.0460  177.9430  139.2430 C   0  0  0  0  0  2  0  0  0  0  0  0
  181.6170  177.3020  138.8060 C   0  0  0  0  0  2  0  0  0  0  0  0
  1 23  1  6  0  0  0
  1  3  1  0  0  0  0
  2  6  1  1  0  0  0
  3 12  2  0  0  0  0
  3 11  1  0  0  0  0
  4  8  1  0  0  0  0
  5  2  1  0  0  0  0
  7  4  1  0  0  0  0
  7  9  1  0  0  0  0
  8  2  1  0  0  0  0
  9  5  1  0  0  0  0
 10 11  1  0  0  0  0
 11  7  2  0  0  0  0
 12 13  1  0  0  0  0
 13  4  2  0  0  0  0
 14  1  1  0  0  0  0
 15 16  1  0  0  0  0
 15 18  1  0  0  0  0
 16 20  2  0  0  0  0
 18 19  1  0  0  0  0
 19 17  1  0  0  0  0
 19 14  1  1  0  0  0
 20 17  1  0  0  0  0
 21 16  1  0  0  0  0
 22 21  1  0  0  0  0
 24 25  2  0  0  0  0
 25 26  1  0  0  0  0
 26 23  1  0  0  0  0
 27 30  1  6  0  0  0
 28 29  1  0  0  0  0
 28 30  1  0  0  0  0
 29 27  1  0  0  0  0
 29 25  1  1  0  0  0
 31 34  1  6  0  0  0
 31 27  1  0  0  0  0
 31 35  1  0  0  0  0
 32 33  1  0  0  0  0
 33 38  1  0  0  0  0
 34 37  1  0  0  0  0
 35 33  1  0  0  0  0
 35 36  2  0  0  0  0
 37 32  1  0  0  0  0
 38 43  1  0  0  0  0
 38 42  1  0  0  0  0
 39 41  1  0  0  0  0
 40 41  1  0  0  0  0
 42 40  1  0  0  0  0
 43 39  1  0  0  0  0
M  END
>  <MODEL>
7

>  <REMARK>
 VINA RESULT:      -9.6      2.628      6.731
  Name = 
  9 active torsions:
  status: ('A' for Active; 'I' for Inactive)
    1  A    between atoms: C_1  and  C_34
    2  A    between atoms: C_1  and  C_35
    3  A    between atoms: C_3  and  C_4
    4  A    between atoms: C_6  and  C_12
    5  A    between atoms: C_8  and  C_34
    6  A    between atoms: C_11  and  N_14
    7  A    between atoms: N_13  and  C_38
    8  A    between atoms: C_19  and  O_25
    9  A    between atoms: C_34  and  C_38
                            x       y       z     vdW  Elec       q    Type
                         _______ _______ _______ _____ _____    ______ ____

>  <TORSDO>
F 9

$$$$
=
 OpenBabel10262422253D

 43 48  0  0  1  0  0  0  0  0999 V2000
  186.3750  178.2540  141.3500 C   0  0  1  0  0  3  0  0  0  0  0  0
  187.9500  178.0120  147.6640 C   0  0  2  0  0  3  0  0  0  0  0  0
  186.4790  178.2160  142.8500 C   0  0  0  0  0  0  0  0  0  0  0  0
  186.5360  178.2730  145.6330 C   0  0  0  0  0  0  0  0  0  0  0  0
  188.4890  176.8100  147.0300 N   0  0  0  0  0  2  0  0  0  0  0  0
  187.8890  177.8110  149.1630 C   0  0  0  0  0  1  0  0  0  0  0  0
  187.5640  177.6260  144.9370 C   0  0  0  0  0  0  0  0  0  0  0  0
  186.5440  178.2930  147.1310 C   0  0  0  0  0  2  0  0  0  0  0  0
  188.6020  177.0340  145.6660 O   0  0  0  0  0  0  0  0  0  0  0  0
  188.6820  176.9460  142.8050 C   0  0  0  0  0  1  0  0  0  0  0  0
  187.5570  177.6070  143.5360 C   0  0  0  0  0  0  0  0  0  0  0  0
  185.4900  178.8210  143.5640 N   0  0  0  0  0  0  0  0  0  0  0  0
  185.4950  178.8610  144.9230 C   0  0  0  0  0  3  0  0  0  0  0  0
  185.0710  178.9150  140.9030 C   0  0  0  0  0  2  0  0  0  0  0  0
  182.9480  176.3890  138.8960 C   0  0  0  0  0  2  0  0  0  0  0  0
  181.6160  176.6220  139.5770 C   0  0  0  0  0  0  0  0  0  0  0  0
  182.5880  178.4330  141.0040 C   0  0  0  0  0  2  0  0  0  0  0  0
  183.9480  177.5210  139.1210 C   0  0  0  0  0  2  0  0  0  0  0  0
  183.9630  177.9070  140.5960 C   0  0  1  0  0  3  0  0  0  0  0  0
  181.4830  177.5130  140.5670 C   0  0  0  0  0  3  0  0  0  0  0  0
  180.4990  175.8590  139.2270 O   0  0  0  0  0  0  0  0  0  0  0  0
  179.8790  174.9560  140.1320 C   0  0  0  0  0  1  0  0  0  0  0  0
  187.5860  178.9040  140.6860 C   0  0  0  0  0  2  0  0  0  0  0  0
  190.1660  177.9740  139.8540 O   0  0  0  0  0  0  0  0  0  0  0  0
  189.2080  177.8420  139.0470 C   0  0  0  0  0  0  0  0  0  0  0  0
  187.8880  178.2580  139.4170 N   0  0  0  0  0  2  0  0  0  0  0  0
  188.2860  176.3810  137.2520 C   0  0  2  0  0  3  0  0  0  0  0  0
  190.3150  175.9780  137.8390 C   0  0  0  0  0  2  0  0  0  0  0  0
  189.4670  177.2290  137.7030 C   0  0  2  0  0  3  0  0  0  0  0  0
  189.1450  175.1330  137.3710 C   0  0  0  0  0  2  0  0  0  0  0  0
  187.9160  176.6500  135.7900 C   0  0  2  0  0  3  0  0  0  0  0  0
  184.9520  176.8110  135.4650 C   0  0  0  0  0  2  0  0  0  0  0  0
  185.6610  175.5290  135.4400 N   0  0  0  0  0  0  0  0  0  0  0  0
  187.1450  177.9690  135.6530 C   0  0  0  0  0  2  0  0  0  0  0  0
  187.0850  175.5090  135.2710 C   0  0  0  0  0  0  0  0  0  0  0  0
  187.6530  174.4980  134.7790 O   0  0  0  0  0  0  0  0  0  0  0  0
  185.7430  177.8530  136.2440 C   0  0  0  0  0  2  0  0  0  0  0  0
  184.9730  174.2960  135.8150 C   0  0  0  0  0  3  0  0  0  0  0  0
  182.6210  173.5850  136.5530 C   0  0  0  0  0  2  0  0  0  0  0  0
  184.6720  172.5750  137.6430 C   0  0  0  0  0  2  0  0  0  0  0  0
  183.3360  172.2930  136.9420 C   0  0  0  0  0  2  0  0  0  0  0  0
  185.2970  173.9230  137.2610 C   0  0  0  0  0  2  0  0  0  0  0  0
  183.4590  174.3980  135.5590 C   0  0  0  0  0  2  0  0  0  0  0  0
  1 23  1  6  0  0  0
  1  3  1  0  0  0  0
  2  6  1  1  0  0  0
  3 11  2  0  0  0  0
  3 12  1  0  0  0  0
  4  8  1  0  0  0  0
  5  2  1  0  0  0  0
  7  4  2  0  0  0  0
  7  9  1  0  0  0  0
  8  2  1  0  0  0  0
  9  5  1  0  0  0  0
 10 11  1  0  0  0  0
 11  7  1  0  0  0  0
 12 13  2  0  0  0  0
 13  4  1  0  0  0  0
 14  1  1  0  0  0  0
 15 18  1  0  0  0  0
 15 16  1  0  0  0  0
 16 20  2  0  0  0  0
 18 19  1  0  0  0  0
 19 14  1  6  0  0  0
 19 17  1  0  0  0  0
 20 17  1  0  0  0  0
 21 16  1  0  0  0  0
 21 22  1  0  0  0  0
 25 26  1  0  0  0  0
 25 24  2  0  0  0  0
 26 23  1  0  0  0  0
 27 30  1  6  0  0  0
 27 29  1  0  0  0  0
 29 28  1  0  0  0  0
 29 25  1  1  0  0  0
 30 28  1  0  0  0  0
 31 34  1  1  0  0  0
 31 27  1  0  0  0  0
 32 37  1  0  0  0  0
 33 32  1  0  0  0  0
 33 38  1  0  0  0  0
 34 37  1  0  0  0  0
 35 33  1  0  0  0  0
 35 31  1  0  0  0  0
 36 35  2  0  0  0  0
 38 42  1  0  0  0  0
 39 41  1  0  0  0  0
 41 40  1  0  0  0  0
 42 40  1  0  0  0  0
 43 38  1  0  0  0  0
 43 39  1  0  0  0  0
M  END
>  <MODEL>
8

>  <REMARK>
 VINA RESULT:      -9.4      2.451      6.212
  Name = 
  9 active torsions:
  status: ('A' for Active; 'I' for Inactive)
    1  A    between atoms: C_1  and  C_34
    2  A    between atoms: C_1  and  C_35
    3  A    between atoms: C_3  and  C_4
    4  A    between atoms: C_6  and  C_12
    5  A    between atoms: C_8  and  C_34
    6  A    between atoms: C_11  and  N_14
    7  A    between atoms: N_13  and  C_38
    8  A    between atoms: C_19  and  O_25
    9  A    between atoms: C_34  and  C_38
                            x       y       z     vdW  Elec       q    Type
                         _______ _______ _______ _____ _____    ______ ____

>  <TORSDO>
F 9

$$$$
=
 OpenBabel10262422253D

 43 48  0  0  1  0  0  0  0  0999 V2000
  188.9070  177.7790  141.6630 C   0  0  1  0  0  3  0  0  0  0  0  0
  192.6540  175.6760  136.7700 C   0  0  2  0  0  3  0  0  0  0  0  0
  189.5840  177.3890  140.3770 C   0  0  0  0  0  0  0  0  0  0  0  0
  190.6670  176.6250  137.9290 C   0  0  0  0  0  0  0  0  0  0  0  0
  193.4570  176.5960  137.5740 N   0  0  0  0  0  2  0  0  0  0  0  0
  193.2920  175.5030  135.4080 C   0  0  0  0  0  1  0  0  0  0  0  0
  191.5190  176.8600  139.0150 C   0  0  0  0  0  0  0  0  0  0  0  0
  191.2400  176.2330  136.6010 C   0  0  0  0  0  2  0  0  0  0  0  0
  192.8980  176.6910  138.8390 O   0  0  0  0  0  0  0  0  0  0  0  0
  191.9030  177.4370  141.4190 C   0  0  0  0  0  1  0  0  0  0  0  0
  190.9840  177.2270  140.2570 C   0  0  0  0  0  0  0  0  0  0  0  0
  188.7910  177.1670  139.2920 N   0  0  0  0  0  0  0  0  0  0  0  0
  189.2960  176.7940  138.0870 C   0  0  0  0  0  3  0  0  0  0  0  0
  189.9200  178.2850  142.6900 C   0  0  0  0  0  2  0  0  0  0  0  0
  190.0020  177.7450  146.5130 C   0  0  0  0  0  2  0  0  0  0  0  0
  188.5890  177.2310  146.6990 C   0  0  0  0  0  0  0  0  0  0  0  0
  188.1640  177.3150  144.2340 C   0  0  0  0  0  2  0  0  0  0  0  0
  190.4910  177.6590  145.0690 C   0  0  0  0  0  2  0  0  0  0  0  0
  189.4130  178.1880  144.1290 C   0  0  1  0  0  3  0  0  0  0  0  0
  187.7530  177.0940  145.6630 C   0  0  0  0  0  3  0  0  0  0  0  0
  188.1030  176.9460  147.9770 O   0  0  0  0  0  0  0  0  0  0  0  0
  188.0840  177.9130  149.0180 C   0  0  0  0  0  1  0  0  0  0  0  0
  187.7730  178.7800  141.4580 C   0  0  0  0  0  2  0  0  0  0  0  0
  185.2250  179.4930  140.3580 O   0  0  0  0  0  0  0  0  0  0  0  0
  185.2470  178.6160  141.2620 C   0  0  0  0  0  0  0  0  0  0  0  0
  186.4930  178.1930  141.8290 N   0  0  0  0  0  2  0  0  0  0  0  0
  182.7630  178.7470  141.1280 C   0  0  2  0  0  3  0  0  0  0  0  0
  183.5840  178.5220  143.1020 C   0  0  0  0  0  2  0  0  0  0  0  0
  183.9550  178.0100  141.7220 C   0  0  2  0  0  3  0  0  0  0  0  0
  182.3850  179.2410  142.5140 C   0  0  0  0  0  2  0  0  0  0  0  0
  181.7050  177.7810  140.5870 C   0  0  2  0  0  3  0  0  0  0  0  0
  181.6200  177.8690  137.6040 C   0  0  0  0  0  2  0  0  0  0  0  0
  180.8690  178.8230  138.4240 N   0  0  0  0  0  0  0  0  0  0  0  0
  182.3440  176.7170  139.6860 C   0  0  0  0  0  2  0  0  0  0  0  0
  180.6710  178.5560  139.8190 C   0  0  0  0  0  0  0  0  0  0  0  0
  179.6840  179.0510  140.4270 O   0  0  0  0  0  0  0  0  0  0  0  0
  182.8190  177.3220  138.3680 C   0  0  0  0  0  2  0  0  0  0  0  0
  180.5250  180.1410  137.8970 C   0  0  0  0  0  3  0  0  0  0  0  0
  180.6920  181.3950  135.6660 C   0  0  0  0  0  2  0  0  0  0  0  0
  181.1860  182.5810  137.8480 C   0  0  0  0  0  2  0  0  0  0  0  0
  180.3860  182.6100  136.5380 C   0  0  0  0  0  2  0  0  0  0  0  0
  181.5820  181.1700  138.2990 C   0  0  0  0  0  2  0  0  0  0  0  0
  180.2970  180.0960  136.3760 C   0  0  0  0  0  2  0  0  0  0  0  0
  1 23  1  6  0  0  0
  1 14  1  0  0  0  0
  2  6  1  6  0  0  0
  2  5  1  0  0  0  0
  3  1  1  0  0  0  0
  4 13  2  0  0  0  0
  4  7  1  0  0  0  0
  5  9  1  0  0  0  0
  7 11  2  0  0  0  0
  8  2  1  0  0  0  0
  8  4  1  0  0  0  0
  9  7  1  0  0  0  0
 11  3  1  0  0  0  0
 11 10  1  0  0  0  0
 12  3  2  0  0  0  0
 13 12  1  0  0  0  0
 15 16  1  0  0  0  0
 16 21  1  0  0  0  0
 17 20  1  0  0  0  0
 18 15  1  0  0  0  0
 19 14  1  6  0  0  0
 19 17  1  0  0  0  0
 19 18  1  0  0  0  0
 20 16  2  0  0  0  0
 21 22  1  0  0  0  0
 23 26  1  0  0  0  0
 24 25  2  0  0  0  0
 25 26  1  0  0  0  0
 27 29  1  0  0  0  0
 27 30  1  1  0  0  0
 29 25  1  6  0  0  0
 29 28  1  0  0  0  0
 30 28  1  0  0  0  0
 31 34  1  6  0  0  0
 31 27  1  0  0  0  0
 32 37  1  0  0  0  0
 32 33  1  0  0  0  0
 33 35  1  0  0  0  0
 35 36  2  0  0  0  0
 35 31  1  0  0  0  0
 37 34  1  0  0  0  0
 38 42  1  0  0  0  0
 38 33  1  0  0  0  0
 39 43  1  0  0  0  0
 39 41  1  0  0  0  0
 40 42  1  0  0  0  0
 41 40  1  0  0  0  0
 43 38  1  0  0  0  0
M  END
>  <MODEL>
9

>  <REMARK>
 VINA RESULT:      -9.4      3.174      8.160
  Name = 
  9 active torsions:
  status: ('A' for Active; 'I' for Inactive)
    1  A    between atoms: C_1  and  C_34
    2  A    between atoms: C_1  and  C_35
    3  A    between atoms: C_3  and  C_4
    4  A    between atoms: C_6  and  C_12
    5  A    between atoms: C_8  and  C_34
    6  A    between atoms: C_11  and  N_14
    7  A    between atoms: N_13  and  C_38
    8  A    between atoms: C_19  and  O_25
    9  A    between atoms: C_34  and  C_38
                            x       y       z     vdW  Elec       q    Type
                         _______ _______ _______ _____ _____    ______ ____

>  <TORSDO>
F 9

$$$$
