=
 OpenBabel10262421023D

 32 38  0  0  1  0  0  0  0  0999 V2000
  187.3760  177.6890  137.7520 C   0  0  1  0  0  3  0  0  0  0  0  0
  189.2410  178.5640  138.9200 C   0  0  2  0  0  3  0  0  0  0  0  0
  186.1280  177.9980  136.4610 S   0  0  0  0  0  0  0  0  0  0  0  0
  188.5990  178.5930  137.5650 C   0  0  1  0  0  3  0  0  0  0  0  0
  190.1930  177.3920  138.8400 C   0  0  2  0  0  0  0  0  0  0  0  0
  188.4060  176.7450  143.4520 C   0  0  0  0  0  3  0  0  0  0  0  0
  188.1750  178.3080  139.9730 C   0  0  1  0  0  3  0  0  0  0  0  0
  190.5260  176.3710  142.3410 C   0  0  0  0  0  3  0  0  0  0  0  0
  190.0360  176.9870  141.1860 C   0  0  0  0  0  0  0  0  0  0  0  0
  189.7460  176.0910  138.1490 C   0  0  2  0  0  3  0  0  0  0  0  0
  189.1710  177.5240  135.3530 C   0  0  0  0  0  2  0  0  0  0  0  0
  190.8540  177.0640  140.0460 O   0  0  0  0  0  0  0  0  0  0  0  0
  189.6340  178.0380  136.6540 N   0  0  2  0  0  0  0  0  0  0  0  0
  188.2240  176.3320  135.4630 C   0  0  0  0  0  2  0  0  0  0  0  0
  186.9500  177.7240  139.2410 C   0  0  1  0  0  3  0  0  0  0  0  0
  190.5920  175.0240  138.4620 O   0  0  0  0  0  1  0  0  0  0  0  0
  188.7040  177.5070  141.1650 C   0  0  0  0  0  0  0  0  0  0  0  0
  190.5470  177.1400  137.3970 C   0  0  1  0  0  3  0  0  0  0  0  0
  186.7640  176.7490  135.2710 C   0  0  0  0  0  2  0  0  0  0  0  0
  189.7130  176.2490  143.4690 C   0  0  0  0  0  3  0  0  0  0  0  0
  187.9090  177.3760  142.3090 C   0  0  0  0  0  3  0  0  0  0  0  0
  183.8380  178.4620  141.0920 C   0  0  1  0  0  3  0  0  0  0  0  0
  183.4640  178.9740  142.3360 O   0  0  0  0  0  1  0  0  0  0  0  0
  183.0350  179.1180  139.9610 C   0  0  1  0  0  3  0  0  0  0  0  0
  184.7330  177.9030  138.7470 O   0  0  0  0  0  0  0  0  0  0  0  0
  183.7060  178.8530  138.6080 C   0  0  0  0  0  2  0  0  0  0  0  0
  185.3570  178.6050  140.8680 C   0  0  2  0  0  3  0  0  0  0  0  0
  185.8080  179.8190  141.3940 O   0  0  0  0  0  1  0  0  0  0  0  0
  185.7310  178.5330  139.4360 N   0  0  1  0  0  0  0  0  0  0  0  0
  181.6160  178.5690  139.9220 C   0  0  0  0  0  2  0  0  0  0  0  0
  180.2040  176.5480  140.3060 C   0  0  0  0  0  1  0  0  0  0  0  0
  181.6020  177.0500  139.9960 C   0  0  0  0  0  2  0  0  0  0  0  0
  1  3  1  6  0  0  0
  1 15  1  0  0  0  0
  2  7  1  0  0  0  0
  4  1  1  0  0  0  0
  4  2  1  0  0  0  0
  5  2  1  0  0  0  0
  5 12  1  0  0  0  0
  6 20  1  0  0  0  0
  7 17  1  0  0  0  0
  8 20  2  0  0  0  0
  9  8  1  0  0  0  0
 10 16  1  0  0  0  0
 10  5  1  0  0  0  0
 11 14  1  0  0  0  0
 11 13  1  0  0  0  0
 12  9  1  0  0  0  0
 13 18  1  0  0  0  0
 13  4  1  0  0  0  0
 15 29  1  0  0  0  0
 15  7  1  0  0  0  0
 17  9  2  0  0  0  0
 17 21  1  0  0  0  0
 18 10  1  0  0  0  0
 18  5  1  0  0  0  0
 19 14  1  0  0  0  0
 19  3  1  0  0  0  0
 21  6  2  0  0  0  0
 22 23  1  0  0  0  0
 24 22  1  0  0  0  0
 25 29  1  0  0  0  0
 26 25  1  0  0  0  0
 26 24  1  0  0  0  0
 27 22  1  0  0  0  0
 27 28  1  0  0  0  0
 29 27  1  0  0  0  0
 30 24  1  0  0  0  0
 30 32  1  0  0  0  0
 32 31  1  0  0  0  0
M  END
>  <MODEL>
1

>  <REMARK>
 VINA RESULT:      -7.9      0.000      0.000
  Name = 
  3 active torsions:
  status: ('A' for Active; 'I' for Inactive)
    1  A    between atoms: C_15  and  C_19
    2  A    between atoms: C_19  and  C_26
    3  A    between atoms: C_24  and  N_27
                            x       y       z     vdW  Elec       q    Type
                         _______ _______ _______ _____ _____    ______ ____

>  <TORSDO>
F 3

$$$$
=
 OpenBabel10262421023D

 32 38  0  0  1  0  0  0  0  0999 V2000
  191.9760  173.6100  136.0900 C   0  0  1  0  0  3  0  0  0  0  0  0
  192.3550  175.9390  136.2790 C   0  0  2  0  0  3  0  0  0  0  0  0
  191.5680  172.2370  134.9640 S   0  0  0  0  0  0  0  0  0  0  0  0
  192.5530  174.8030  135.3210 C   0  0  1  0  0  3  0  0  0  0  0  0
  193.6310  175.9480  137.0920 C   0  0  2  0  0  0  0  0  0  0  0  0
  190.2980  176.8370  140.6960 C   0  0  0  0  0  3  0  0  0  0  0  0
  191.1610  175.6400  137.1710 C   0  0  1  0  0  3  0  0  0  0  0  0
  192.5820  177.5020  140.2370 C   0  0  0  0  0  3  0  0  0  0  0  0
  192.5210  176.8730  138.9910 C   0  0  0  0  0  0  0  0  0  0  0  0
  194.2460  174.6170  137.5610 C   0  0  2  0  0  3  0  0  0  0  0  0
  194.5730  173.4810  134.5940 C   0  0  0  0  0  2  0  0  0  0  0  0
  193.6580  176.8670  138.1660 O   0  0  0  0  0  0  0  0  0  0  0  0
  194.0240  174.7430  135.1170 N   0  0  2  0  0  0  0  0  0  0  0  0
  194.3700  172.2870  135.5240 C   0  0  0  0  0  2  0  0  0  0  0  0
  190.8990  174.1240  137.0780 C   0  0  1  0  0  3  0  0  0  0  0  0
  195.1970  174.8140  138.5650 O   0  0  0  0  0  1  0  0  0  0  0  0
  191.3170  176.2210  138.5790 C   0  0  0  0  0  0  0  0  0  0  0  0
  194.7310  175.2990  136.2930 C   0  0  1  0  0  3  0  0  0  0  0  0
  193.2050  171.4060  135.0680 C   0  0  0  0  0  2  0  0  0  0  0  0
  191.4740  177.4820  141.0880 C   0  0  0  0  0  3  0  0  0  0  0  0
  190.2190  176.2170  139.4460 C   0  0  0  0  0  3  0  0  0  0  0  0
  187.2770  174.8470  136.9840 C   0  0  1  0  0  3  0  0  0  0  0  0
  186.4210  175.8140  136.4510 O   0  0  0  0  0  1  0  0  0  0  0  0
  186.7560  173.4320  136.6980 C   0  0  1  0  0  3  0  0  0  0  0  0
  188.9740  173.0010  137.5510 O   0  0  0  0  0  0  0  0  0  0  0  0
  187.8650  172.3990  136.9290 C   0  0  0  0  0  2  0  0  0  0  0  0
  188.7180  175.0370  136.4700 C   0  0  2  0  0  3  0  0  0  0  0  0
  188.7020  175.4280  135.1280 O   0  0  0  0  0  1  0  0  0  0  0  0
  189.5370  173.8090  136.6040 N   0  0  1  0  0  0  0  0  0  0  0  0
  185.5790  173.1000  137.6040 C   0  0  0  0  0  2  0  0  0  0  0  0
  183.7180  171.6020  136.8830 C   0  0  0  0  0  1  0  0  0  0  0  0
  184.2780  173.0110  136.8220 C   0  0  0  0  0  2  0  0  0  0  0  0
  1  3  1  6  0  0  0
  1 15  1  0  0  0  0
  2  5  1  0  0  0  0
  2  7  1  0  0  0  0
  3 19  1  0  0  0  0
  4  1  1  0  0  0  0
  4  2  1  0  0  0  0
  5 10  1  0  0  0  0
  5 12  1  0  0  0  0
  6 20  1  0  0  0  0
  7 17  1  0  0  0  0
  8 20  2  0  0  0  0
  9  8  1  0  0  0  0
 10 16  1  0  0  0  0
 11 13  1  0  0  0  0
 11 14  1  0  0  0  0
 12  9  1  0  0  0  0
 13  4  1  0  0  0  0
 13 18  1  0  0  0  0
 15  7  1  0  0  0  0
 17  9  2  0  0  0  0
 17 21  1  0  0  0  0
 18  5  1  0  0  0  0
 18 10  1  0  0  0  0
 19 14  1  0  0  0  0
 21  6  2  0  0  0  0
 23 22  1  0  0  0  0
 24 26  1  0  0  0  0
 24 22  1  0  0  0  0
 24 30  1  0  0  0  0
 26 25  1  0  0  0  0
 27 29  1  0  0  0  0
 27 22  1  0  0  0  0
 28 27  1  0  0  0  0
 29 15  1  0  0  0  0
 29 25  1  0  0  0  0
 32 31  1  0  0  0  0
 32 30  1  0  0  0  0
M  END
>  <MODEL>
2

>  <REMARK>
 VINA RESULT:      -7.8      4.428      5.959
  Name = 
  3 active torsions:
  status: ('A' for Active; 'I' for Inactive)
    1  A    between atoms: C_15  and  C_19
    2  A    between atoms: C_19  and  C_26
    3  A    between atoms: C_24  and  N_27
                            x       y       z     vdW  Elec       q    Type
                         _______ _______ _______ _____ _____    ______ ____

>  <TORSDO>
F 3

$$$$
=
 OpenBabel10262421023D

 32 38  0  0  1  0  0  0  0  0999 V2000
  188.8810  177.6810  141.8130 C   0  0  1  0  0  3  0  0  0  0  0  0
  190.1300  178.6730  143.5640 C   0  0  2  0  0  3  0  0  0  0  0  0
  188.2230  177.8910  140.1280 S   0  0  0  0  0  0  0  0  0  0  0  0
  190.0620  178.6250  142.0670 C   0  0  1  0  0  3  0  0  0  0  0  0
  191.0640  177.5360  143.9170 C   0  0  2  0  0  0  0  0  0  0  0  0
  187.6450  176.9970  147.5100 C   0  0  0  0  0  3  0  0  0  0  0  0
  188.7450  178.4160  144.1370 C   0  0  1  0  0  3  0  0  0  0  0  0
  190.0370  176.6640  147.3220 C   0  0  0  0  0  3  0  0  0  0  0  0
  190.0190  177.2160  146.0380 C   0  0  0  0  0  0  0  0  0  0  0  0
  190.9460  176.1930  143.1740 C   0  0  2  0  0  3  0  0  0  0  0  0
  191.4670  177.4950  140.3040 C   0  0  0  0  0  2  0  0  0  0  0  0
  191.2120  177.2810  145.2990 O   0  0  0  0  0  0  0  0  0  0  0  0
  191.3800  178.0750  141.6550 N   0  0  2  0  0  0  0  0  0  0  0  0
  190.5770  176.2720  140.1000 C   0  0  0  0  0  2  0  0  0  0  0  0
  187.9110  177.7570  143.0190 C   0  0  1  0  0  3  0  0  0  0  0  0
  191.6270  175.1730  143.8420 O   0  0  0  0  0  1  0  0  0  0  0  0
  188.7880  177.6820  145.4790 C   0  0  0  0  0  0  0  0  0  0  0  0
  191.9530  177.2430  142.7370 C   0  0  1  0  0  3  0  0  0  0  0  0
  189.2970  176.6240  139.3390 C   0  0  0  0  0  2  0  0  0  0  0  0
  188.8530  176.5540  148.0540 C   0  0  0  0  0  3  0  0  0  0  0  0
  187.6160  177.5640  146.2330 C   0  0  0  0  0  3  0  0  0  0  0  0
  184.2550  178.2410  143.2300 C   0  0  1  0  0  3  0  0  0  0  0  0
  183.3060  178.6030  144.1890 O   0  0  0  0  0  1  0  0  0  0  0  0
  184.0390  179.0150  141.9220 C   0  0  1  0  0  3  0  0  0  0  0  0
  186.1820  177.9670  141.5510 O   0  0  0  0  0  0  0  0  0  0  0  0
  185.2820  178.9150  141.0320 C   0  0  0  0  0  2  0  0  0  0  0  0
  185.6870  178.4270  143.7700 C   0  0  2  0  0  3  0  0  0  0  0  0
  185.7580  179.5770  144.5610 O   0  0  0  0  0  1  0  0  0  0  0  0
  186.6950  178.5240  142.6880 N   0  0  1  0  0  0  0  0  0  0  0  0
  182.8440  178.4580  141.1610 C   0  0  0  0  0  2  0  0  0  0  0  0
  182.6410  176.4420  139.7040 C   0  0  0  0  0  1  0  0  0  0  0  0
  183.2650  177.8180  139.8480 C   0  0  0  0  0  2  0  0  0  0  0  0
  1  3  1  6  0  0  0
  1  4  1  0  0  0  0
  1 15  1  0  0  0  0
  2  5  1  0  0  0  0
  2  7  1  0  0  0  0
  4  2  1  0  0  0  0
  5 12  1  0  0  0  0
  6 20  1  0  0  0  0
  7 17  1  0  0  0  0
  8 20  2  0  0  0  0
  9  8  1  0  0  0  0
 10 16  1  0  0  0  0
 10  5  1  0  0  0  0
 11 13  1  0  0  0  0
 12  9  1  0  0  0  0
 13  4  1  0  0  0  0
 13 18  1  0  0  0  0
 14 11  1  0  0  0  0
 15  7  1  0  0  0  0
 17  9  2  0  0  0  0
 17 21  1  0  0  0  0
 18 10  1  0  0  0  0
 18  5  1  0  0  0  0
 19 14  1  0  0  0  0
 19  3  1  0  0  0  0
 21  6  2  0  0  0  0
 22 27  1  0  0  0  0
 22 23  1  0  0  0  0
 24 22  1  0  0  0  0
 25 29  1  0  0  0  0
 26 25  1  0  0  0  0
 26 24  1  0  0  0  0
 27 28  1  0  0  0  0
 29 15  1  0  0  0  0
 29 27  1  0  0  0  0
 30 24  1  0  0  0  0
 31 32  1  0  0  0  0
 32 30  1  0  0  0  0
M  END
>  <MODEL>
3

>  <REMARK>
 VINA RESULT:      -7.5      2.757      4.184
  Name = 
  3 active torsions:
  status: ('A' for Active; 'I' for Inactive)
    1  A    between atoms: C_15  and  C_19
    2  A    between atoms: C_19  and  C_26
    3  A    between atoms: C_24  and  N_27
                            x       y       z     vdW  Elec       q    Type
                         _______ _______ _______ _____ _____    ______ ____

>  <TORSDO>
F 3

$$$$
=
 OpenBabel10262421023D

 32 38  0  0  1  0  0  0  0  0999 V2000
  187.1670  175.4270  137.0330 C   0  0  1  0  0  3  0  0  0  0  0  0
  186.0710  177.4750  136.5730 C   0  0  2  0  0  3  0  0  0  0  0  0
  188.0740  174.0140  136.3260 S   0  0  0  0  0  0  0  0  0  0  0  0
  187.2230  176.6420  136.0990 C   0  0  1  0  0  3  0  0  0  0  0  0
  186.6830  178.3620  137.6350 C   0  0  2  0  0  0  0  0  0  0  0  0
  182.3410  177.2550  139.8270 C   0  0  0  0  0  3  0  0  0  0  0  0
  185.0150  176.5680  137.1860 C   0  0  1  0  0  3  0  0  0  0  0  0
  183.8210  179.1710  139.7710 C   0  0  0  0  0  3  0  0  0  0  0  0
  184.6130  178.5390  138.8090 C   0  0  0  0  0  0  0  0  0  0  0  0
  187.6930  177.7700  138.6340 C   0  0  2  0  0  3  0  0  0  0  0  0
  189.7240  176.8400  136.3510 C   0  0  0  0  0  2  0  0  0  0  0  0
  185.7710  179.1810  138.3400 O   0  0  0  0  0  0  0  0  0  0  0  0
  188.4140  177.5090  136.2990 N   0  0  2  0  0  0  0  0  0  0  0  0
  189.8790  175.8760  137.5250 C   0  0  0  0  0  2  0  0  0  0  0  0
  185.7060  175.2280  137.5080 C   0  0  1  0  0  3  0  0  0  0  0  0
  187.8890  178.6130  139.7300 O   0  0  0  0  0  1  0  0  0  0  0  0
  184.2560  177.2380  138.3340 C   0  0  0  0  0  0  0  0  0  0  0  0
  188.1620  178.4890  137.3800 C   0  0  1  0  0  3  0  0  0  0  0  0
  189.6960  174.4210  137.0900 C   0  0  0  0  0  2  0  0  0  0  0  0
  182.6890  178.5300  140.2790 C   0  0  0  0  0  3  0  0  0  0  0  0
  183.1160  176.6170  138.8550 C   0  0  0  0  0  3  0  0  0  0  0  0
  182.7540  173.6460  135.9480 C   0  0  1  0  0  3  0  0  0  0  0  0
  181.9900  173.7850  134.7860 O   0  0  0  0  0  1  0  0  0  0  0  0
  183.1060  172.1740  136.2040 C   0  0  1  0  0  3  0  0  0  0  0  0
  184.4960  173.3220  137.8110 O   0  0  0  0  0  0  0  0  0  0  0  0
  184.2430  172.0680  137.2260 C   0  0  0  0  0  2  0  0  0  0  0  0
  184.0160  174.5310  135.8900 C   0  0  2  0  0  3  0  0  0  0  0  0
  184.5390  174.5390  134.5940 O   0  0  0  0  0  1  0  0  0  0  0  0
  185.0690  174.0810  136.8310 N   0  0  1  0  0  0  0  0  0  0  0  0
  181.8960  171.4180  136.7350 C   0  0  0  0  0  2  0  0  0  0  0  0
  179.4890  171.9230  137.1560 C   0  0  0  0  0  1  0  0  0  0  0  0
  180.9180  172.3490  137.4350 C   0  0  0  0  0  2  0  0  0  0  0  0
  1  3  1  6  0  0  0
  1 15  1  0  0  0  0
  2  7  1  0  0  0  0
  2  5  1  0  0  0  0
  3 19  1  0  0  0  0
  4 13  1  0  0  0  0
  4  2  1  0  0  0  0
  4  1  1  0  0  0  0
  5 12  1  0  0  0  0
  5 10  1  0  0  0  0
  6 20  1  0  0  0  0
  7 15  1  0  0  0  0
  7 17  1  0  0  0  0
  8 20  2  0  0  0  0
  9  8  1  0  0  0  0
 10 16  1  0  0  0  0
 11 14  1  0  0  0  0
 12  9  1  0  0  0  0
 13 11  1  0  0  0  0
 13 18  1  0  0  0  0
 17  9  2  0  0  0  0
 17 21  1  0  0  0  0
 18  5  1  0  0  0  0
 18 10  1  0  0  0  0
 19 14  1  0  0  0  0
 21  6  2  0  0  0  0
 22 24  1  0  0  0  0
 23 22  1  0  0  0  0
 24 30  1  0  0  0  0
 24 26  1  0  0  0  0
 26 25  1  0  0  0  0
 27 22  1  0  0  0  0
 27 29  1  0  0  0  0
 28 27  1  0  0  0  0
 29 15  1  0  0  0  0
 29 25  1  0  0  0  0
 30 32  1  0  0  0  0
 31 32  1  0  0  0  0
M  END
>  <MODEL>
4

>  <REMARK>
 VINA RESULT:      -7.5      3.527      5.610
  Name = 
  3 active torsions:
  status: ('A' for Active; 'I' for Inactive)
    1  A    between atoms: C_15  and  C_19
    2  A    between atoms: C_19  and  C_26
    3  A    between atoms: C_24  and  N_27
                            x       y       z     vdW  Elec       q    Type
                         _______ _______ _______ _____ _____    ______ ____

>  <TORSDO>
F 3

$$$$
=
 OpenBabel10262421023D

 32 38  0  0  1  0  0  0  0  0999 V2000
  181.8710  178.4430  141.7150 C   0  0  1  0  0  3  0  0  0  0  0  0
  181.1080  178.5790  139.4770 C   0  0  2  0  0  3  0  0  0  0  0  0
  182.3150  179.3790  143.2130 S   0  0  0  0  0  0  0  0  0  0  0  0
  180.9550  179.2650  140.8010 C   0  0  1  0  0  3  0  0  0  0  0  0
  180.0200  177.5280  139.4900 C   0  0  2  0  0  0  0  0  0  0  0  0
  183.7240  174.9160  137.4050 C   0  0  0  0  0  3  0  0  0  0  0  0
  182.4770  177.9210  139.4090 C   0  0  1  0  0  3  0  0  0  0  0  0
  181.3120  174.9880  137.1900 C   0  0  0  0  0  3  0  0  0  0  0  0
  181.2630  176.0930  138.0440 C   0  0  0  0  0  0  0  0  0  0  0  0
  179.7560  176.7190  140.7730 C   0  0  2  0  0  3  0  0  0  0  0  0
  179.1160  179.3120  142.5260 C   0  0  0  0  0  2  0  0  0  0  0  0
  180.0170  176.6450  138.3860 O   0  0  0  0  0  0  0  0  0  0  0  0
  179.5080  179.1400  141.1170 N   0  0  2  0  0  0  0  0  0  0  0  0
  179.7000  178.2550  143.4620 C   0  0  0  0  0  2  0  0  0  0  0  0
  182.9940  177.8080  140.8570 C   0  0  1  0  0  3  0  0  0  0  0  0
  178.9810  175.5860  140.5170 O   0  0  0  0  0  1  0  0  0  0  0  0
  182.4730  176.6330  138.5830 C   0  0  0  0  0  0  0  0  0  0  0  0
  178.9340  177.9530  140.4420 C   0  0  1  0  0  3  0  0  0  0  0  0
  180.9060  178.7900  144.2370 C   0  0  0  0  0  2  0  0  0  0  0  0
  182.5390  174.4010  136.8740 C   0  0  0  0  0  3  0  0  0  0  0  0
  183.6900  176.0300  138.2480 C   0  0  0  0  0  3  0  0  0  0  0  0
  186.5780  178.2280  140.0640 C   0  0  1  0  0  3  0  0  0  0  0  0
  187.3630  178.6840  139.0020 O   0  0  0  0  0  1  0  0  0  0  0  0
  187.0510  178.8250  141.3960 C   0  0  1  0  0  3  0  0  0  0  0  0
  184.9580  177.7900  142.0120 O   0  0  0  0  0  0  0  0  0  0  0  0
  185.9760  178.6430  142.4730 C   0  0  0  0  0  2  0  0  0  0  0  0
  185.0840  178.5140  139.8110 C   0  0  2  0  0  3  0  0  0  0  0  0
  184.9300  179.7560  139.1890 O   0  0  0  0  0  1  0  0  0  0  0  0
  184.2830  178.4980  141.0590 N   0  0  1  0  0  0  0  0  0  0  0  0
  188.3330  178.1480  141.8620 C   0  0  0  0  0  2  0  0  0  0  0  0
  189.0260  176.1060  143.1180 C   0  0  0  0  0  1  0  0  0  0  0  0
  188.1020  177.3100  143.1090 C   0  0  0  0  0  2  0  0  0  0  0  0
  1  3  1  1  0  0  0
  2  5  1  0  0  0  0
  2  4  1  0  0  0  0
  3 19  1  0  0  0  0
  4 13  1  0  0  0  0
  4  1  1  0  0  0  0
  5 18  1  0  0  0  0
  5 10  1  0  0  0  0
  6 21  1  0  0  0  0
  7  2  1  0  0  0  0
  7 15  1  0  0  0  0
  8  9  2  0  0  0  0
  9 12  1  0  0  0  0
  9 17  1  0  0  0  0
 11 14  1  0  0  0  0
 12  5  1  0  0  0  0
 13 11  1  0  0  0  0
 14 19  1  0  0  0  0
 15 29  1  0  0  0  0
 15  1  1  0  0  0  0
 16 10  1  0  0  0  0
 17  7  1  0  0  0  0
 18 10  1  0  0  0  0
 18 13  1  0  0  0  0
 20  8  1  0  0  0  0
 20  6  2  0  0  0  0
 21 17  2  0  0  0  0
 22 24  1  0  0  0  0
 23 22  1  0  0  0  0
 24 30  1  0  0  0  0
 24 26  1  0  0  0  0
 25 26  1  0  0  0  0
 27 22  1  0  0  0  0
 27 29  1  0  0  0  0
 28 27  1  0  0  0  0
 29 25  1  0  0  0  0
 30 32  1  0  0  0  0
 32 31  1  0  0  0  0
M  END
>  <MODEL>
5

>  <REMARK>
 VINA RESULT:      -7.3      3.285      8.246
  Name = 
  3 active torsions:
  status: ('A' for Active; 'I' for Inactive)
    1  A    between atoms: C_15  and  C_19
    2  A    between atoms: C_19  and  C_26
    3  A    between atoms: C_24  and  N_27
                            x       y       z     vdW  Elec       q    Type
                         _______ _______ _______ _____ _____    ______ ____

>  <TORSDO>
F 3

$$$$
=
 OpenBabel10262421023D

 32 38  0  0  1  0  0  0  0  0999 V2000
  181.9310  178.7630  138.0740 C   0  0  1  0  0  3  0  0  0  0  0  0
  181.8010  177.3870  139.9980 C   0  0  2  0  0  3  0  0  0  0  0  0
  181.7020  178.8520  136.2690 S   0  0  0  0  0  0  0  0  0  0  0  0
  181.1260  177.6050  138.6770 C   0  0  1  0  0  3  0  0  0  0  0  0
  181.0460  178.2980  140.9400 C   0  0  2  0  0  0  0  0  0  0  0  0
  185.7050  179.0420  142.5600 C   0  0  0  0  0  3  0  0  0  0  0  0
  183.2550  177.8200  139.8950 C   0  0  1  0  0  3  0  0  0  0  0  0
  183.5050  178.9690  143.5700 C   0  0  0  0  0  3  0  0  0  0  0  0
  182.9520  178.5690  142.3500 C   0  0  0  0  0  0  0  0  0  0  0  0
  180.6490  179.7120  140.4800 C   0  0  2  0  0  3  0  0  0  0  0  0
  178.9330  178.6520  138.0030 C   0  0  0  0  0  2  0  0  0  0  0  0
  181.5640  178.3740  142.2530 O   0  0  0  0  0  0  0  0  0  0  0  0
  179.7260  177.9560  139.0300 N   0  0  2  0  0  0  0  0  0  0  0  0
  179.4810  180.0280  137.6290 C   0  0  0  0  0  2  0  0  0  0  0  0
  183.3660  178.7300  138.6550 C   0  0  1  0  0  3  0  0  0  0  0  0
  180.2790  180.5200  141.5570 O   0  0  0  0  0  1  0  0  0  0  0  0
  183.7960  178.3880  141.2100 C   0  0  0  0  0  0  0  0  0  0  0  0
  179.6700  178.5540  140.3830 C   0  0  1  0  0  3  0  0  0  0  0  0
  180.2570  179.9880  136.3110 C   0  0  0  0  0  2  0  0  0  0  0  0
  184.8770  179.2060  143.6730 C   0  0  0  0  0  3  0  0  0  0  0  0
  185.1680  178.6280  141.3390 C   0  0  0  0  0  3  0  0  0  0  0  0
  185.9150  176.2680  137.6100 C   0  0  1  0  0  3  0  0  0  0  0  0
  185.9700  174.9280  137.2190 O   0  0  0  0  0  1  0  0  0  0  0  0
  186.7290  177.1540  136.6580 C   0  0  1  0  0  3  0  0  0  0  0  0
  185.5440  178.7840  137.9880 O   0  0  0  0  0  0  0  0  0  0  0  0
  186.3550  178.6280  136.8490 C   0  0  0  0  0  2  0  0  0  0  0  0
  184.4560  176.7510  137.7280 C   0  0  2  0  0  3  0  0  0  0  0  0
  183.6790  176.1900  136.7110 O   0  0  0  0  0  1  0  0  0  0  0  0
  184.3390  178.2280  137.6650 N   0  0  1  0  0  0  0  0  0  0  0  0
  188.2210  176.9880  136.9150 C   0  0  0  0  0  2  0  0  0  0  0  0
  189.4320  178.2350  138.7050 C   0  0  0  0  0  1  0  0  0  0  0  0
  188.8720  178.3080  137.2960 C   0  0  0  0  0  2  0  0  0  0  0  0
  1  3  1  6  0  0  0
  1 15  1  0  0  0  0
  1  4  1  0  0  0  0
  2  5  1  0  0  0  0
  3 19  1  0  0  0  0
  4 13  1  0  0  0  0
  4  2  1  0  0  0  0
  5 12  1  0  0  0  0
  6 20  1  0  0  0  0
  7  2  1  0  0  0  0
  7 17  1  0  0  0  0
  8 20  2  0  0  0  0
  9  8  1  0  0  0  0
 10  5  1  0  0  0  0
 10 16  1  0  0  0  0
 11 13  1  0  0  0  0
 12  9  1  0  0  0  0
 13 18  1  0  0  0  0
 14 11  1  0  0  0  0
 15  7  1  0  0  0  0
 17 21  1  0  0  0  0
 17  9  2  0  0  0  0
 18 10  1  0  0  0  0
 18  5  1  0  0  0  0
 19 14  1  0  0  0  0
 21  6  2  0  0  0  0
 22 27  1  0  0  0  0
 23 22  1  0  0  0  0
 24 26  1  0  0  0  0
 24 30  1  0  0  0  0
 24 22  1  0  0  0  0
 26 25  1  0  0  0  0
 28 27  1  0  0  0  0
 29 27  1  0  0  0  0
 29 25  1  0  0  0  0
 29 15  1  0  0  0  0
 30 32  1  0  0  0  0
 32 31  1  0  0  0  0
M  END
>  <MODEL>
6

>  <REMARK>
 VINA RESULT:      -7.3      2.780      7.287
  Name = 
  3 active torsions:
  status: ('A' for Active; 'I' for Inactive)
    1  A    between atoms: C_15  and  C_19
    2  A    between atoms: C_19  and  C_26
    3  A    between atoms: C_24  and  N_27
                            x       y       z     vdW  Elec       q    Type
                         _______ _______ _______ _____ _____    ______ ____

>  <TORSDO>
F 3

$$$$
=
 OpenBabel10262421023D

 32 38  0  0  1  0  0  0  0  0999 V2000
  184.0430  176.2570  137.1890 C   0  0  1  0  0  3  0  0  0  0  0  0
  185.6510  177.9770  136.9360 C   0  0  2  0  0  3  0  0  0  0  0  0
  182.4850  175.5500  136.5650 S   0  0  0  0  0  0  0  0  0  0  0  0
  184.7200  177.1270  136.1240 C   0  0  1  0  0  3  0  0  0  0  0  0
  186.9300  177.1700  136.9770 C   0  0  2  0  0  0  0  0  0  0  0  0
  186.8080  178.8380  141.6770 C   0  0  0  0  0  3  0  0  0  0  0  0
  185.0850  178.1410  138.3380 C   0  0  1  0  0  3  0  0  0  0  0  0
  188.5350  178.3390  140.0530 C   0  0  0  0  0  3  0  0  0  0  0  0
  187.5610  178.1050  139.0790 C   0  0  0  0  0  0  0  0  0  0  0  0
  186.8640  175.6460  137.1880 C   0  0  2  0  0  3  0  0  0  0  0  0
  185.0660  175.1530  134.5940 C   0  0  0  0  0  2  0  0  0  0  0  0
  187.9550  177.6990  137.7930 O   0  0  0  0  0  0  0  0  0  0  0  0
  185.6140  176.3780  135.2030 N   0  0  2  0  0  0  0  0  0  0  0  0
  184.7260  174.0610  135.6040 C   0  0  0  0  0  2  0  0  0  0  0  0
  184.0420  177.0230  138.5350 C   0  0  1  0  0  3  0  0  0  0  0  0
  188.1090  175.1200  137.5390 O   0  0  0  0  0  1  0  0  0  0  0  0
  186.1760  178.2530  139.4060 C   0  0  0  0  0  0  0  0  0  0  0  0
  186.9650  176.2390  135.7930 C   0  0  1  0  0  3  0  0  0  0  0  0
  183.2250  174.0060  135.8940 C   0  0  0  0  0  2  0  0  0  0  0  0
  188.1590  178.7030  141.3480 C   0  0  0  0  0  3  0  0  0  0  0  0
  185.8240  178.6220  140.7080 C   0  0  0  0  0  3  0  0  0  0  0  0
  181.8350  179.7910  139.5940 C   0  0  1  0  0  3  0  0  0  0  0  0
  181.3490  180.9930  139.0730 O   0  0  0  0  0  1  0  0  0  0  0  0
  180.7070  178.9690  140.2320 C   0  0  1  0  0  3  0  0  0  0  0  0
  182.5380  177.3950  140.2060 O   0  0  0  0  0  0  0  0  0  0  0  0
  181.1570  177.5190  140.4410 C   0  0  0  0  0  2  0  0  0  0  0  0
  182.5880  178.9850  138.5170 C   0  0  2  0  0  3  0  0  0  0  0  0
  181.9420  179.1100  137.2840 O   0  0  0  0  0  1  0  0  0  0  0  0
  182.7000  177.5470  138.8580 N   0  0  1  0  0  0  0  0  0  0  0  0
  180.3080  179.5600  141.5770 C   0  0  0  0  0  2  0  0  0  0  0  0
  181.7790  179.0060  143.5140 C   0  0  0  0  0  1  0  0  0  0  0  0
  180.5610  178.5830  142.7140 C   0  0  0  0  0  2  0  0  0  0  0  0
  1  3  1  6  0  0  0
  1 15  1  0  0  0  0
  2  5  1  0  0  0  0
  2  7  1  0  0  0  0
  4  2  1  0  0  0  0
  4  1  1  0  0  0  0
  5 10  1  0  0  0  0
  5 12  1  0  0  0  0
  7 15  1  0  0  0  0
  7 17  1  0  0  0  0
  8 20  2  0  0  0  0
  9 17  2  0  0  0  0
  9  8  1  0  0  0  0
 10 16  1  0  0  0  0
 11 13  1  0  0  0  0
 11 14  1  0  0  0  0
 12  9  1  0  0  0  0
 13 18  1  0  0  0  0
 13  4  1  0  0  0  0
 14 19  1  0  0  0  0
 15 29  1  0  0  0  0
 17 21  1  0  0  0  0
 18  5  1  0  0  0  0
 18 10  1  0  0  0  0
 19  3  1  0  0  0  0
 20  6  1  0  0  0  0
 21  6  2  0  0  0  0
 22 24  1  0  0  0  0
 23 22  1  0  0  0  0
 24 26  1  0  0  0  0
 24 30  1  0  0  0  0
 25 26  1  0  0  0  0
 27 29  1  0  0  0  0
 27 22  1  0  0  0  0
 28 27  1  0  0  0  0
 29 25  1  0  0  0  0
 30 32  1  0  0  0  0
 32 31  1  0  0  0  0
M  END
>  <MODEL>
7

>  <REMARK>
 VINA RESULT:      -7.2      2.565      3.720
  Name = 
  3 active torsions:
  status: ('A' for Active; 'I' for Inactive)
    1  A    between atoms: C_15  and  C_19
    2  A    between atoms: C_19  and  C_26
    3  A    between atoms: C_24  and  N_27
                            x       y       z     vdW  Elec       q    Type
                         _______ _______ _______ _____ _____    ______ ____

>  <TORSDO>
F 3

$$$$
=
 OpenBabel10262421023D

 32 38  0  0  1  0  0  0  0  0999 V2000
  190.3320  176.6770  144.5470 C   0  0  1  0  0  3  0  0  0  0  0  0
  189.4310  178.5360  145.7050 C   0  0  2  0  0  3  0  0  0  0  0  0
  191.7760  176.0150  143.6560 S   0  0  0  0  0  0  0  0  0  0  0  0
  190.7340  177.8340  145.4690 C   0  0  1  0  0  3  0  0  0  0  0  0
  188.8740  177.8530  146.9350 C   0  0  2  0  0  0  0  0  0  0  0  0
  184.7040  178.3130  144.2360 C   0  0  0  0  0  3  0  0  0  0  0  0
  188.5150  178.3060  144.5140 C   0  0  1  0  0  3  0  0  0  0  0  0
  185.2650  178.3700  146.5920 C   0  0  0  0  0  3  0  0  0  0  0  0
  186.6250  178.2990  146.2760 C   0  0  0  0  0  0  0  0  0  0  0  0
  188.9850  176.3250  147.0750 C   0  0  2  0  0  3  0  0  0  0  0  0
  192.1740  176.3280  146.8890 C   0  0  0  0  0  2  0  0  0  0  0  0
  187.5720  178.2530  147.3130 O   0  0  0  0  0  0  0  0  0  0  0  0
  191.1760  177.4090  146.8230 N   0  0  2  0  0  0  0  0  0  0  0  0
  191.6810  174.9980  146.3250 C   0  0  0  0  0  2  0  0  0  0  0  0
  189.0720  177.0900  143.7460 C   0  0  1  0  0  3  0  0  0  0  0  0
  188.1370  175.8360  148.0720 O   0  0  0  0  0  1  0  0  0  0  0  0
  187.0370  178.2460  144.9070 C   0  0  0  0  0  0  0  0  0  0  0  0
  190.0080  177.2460  147.7190 C   0  0  1  0  0  3  0  0  0  0  0  0
  192.2180  174.7490  144.9140 C   0  0  0  0  0  2  0  0  0  0  0  0
  184.3080  178.3750  145.5750 C   0  0  0  0  0  3  0  0  0  0  0  0
  186.0600  178.2560  143.9060 C   0  0  0  0  0  3  0  0  0  0  0  0
  188.0360  177.6610  140.2460 C   0  0  1  0  0  3  0  0  0  0  0  0
  187.3500  178.6280  139.5070 O   0  0  0  0  0  1  0  0  0  0  0  0
  189.3350  177.2470  139.5400 C   0  0  1  0  0  3  0  0  0  0  0  0
  189.5740  176.2080  141.7070 O   0  0  0  0  0  0  0  0  0  0  0  0
  190.2570  176.5030  140.5130 C   0  0  0  0  0  2  0  0  0  0  0  0
  188.3010  178.1470  141.6850 C   0  0  2  0  0  3  0  0  0  0  0  0
  188.6110  179.5100  141.6830 O   0  0  0  0  0  1  0  0  0  0  0  0
  189.4030  177.4050  142.3420 N   0  0  1  0  0  0  0  0  0  0  0  0
  189.0360  176.3400  138.3550 C   0  0  0  0  0  2  0  0  0  0  0  0
  189.0560  178.1110  136.5980 C   0  0  0  0  0  1  0  0  0  0  0  0
  189.7130  176.8340  137.0870 C   0  0  0  0  0  2  0  0  0  0  0  0
  1  3  1  6  0  0  0
  1  4  1  0  0  0  0
  2  5  1  0  0  0  0
  3 19  1  0  0  0  0
  4  2  1  0  0  0  0
  4 13  1  0  0  0  0
  5 10  1  0  0  0  0
  5 12  1  0  0  0  0
  5 18  1  0  0  0  0
  6 20  1  0  0  0  0
  7 17  1  0  0  0  0
  7  2  1  0  0  0  0
  9  8  1  0  0  0  0
  9 12  1  0  0  0  0
 10 18  1  0  0  0  0
 10 16  1  0  0  0  0
 13 11  1  0  0  0  0
 13 18  1  0  0  0  0
 14 11  1  0  0  0  0
 15  7  1  0  0  0  0
 15  1  1  0  0  0  0
 17  9  2  0  0  0  0
 19 14  1  0  0  0  0
 20  8  2  0  0  0  0
 21  6  2  0  0  0  0
 21 17  1  0  0  0  0
 22 27  1  0  0  0  0
 23 22  1  0  0  0  0
 24 22  1  0  0  0  0
 24 26  1  0  0  0  0
 25 29  1  0  0  0  0
 26 25  1  0  0  0  0
 27 29  1  0  0  0  0
 28 27  1  0  0  0  0
 29 15  1  0  0  0  0
 30 24  1  0  0  0  0
 31 32  1  0  0  0  0
 32 30  1  0  0  0  0
M  END
>  <MODEL>
8

>  <REMARK>
 VINA RESULT:      -7.2      4.028      7.589
  Name = 
  3 active torsions:
  status: ('A' for Active; 'I' for Inactive)
    1  A    between atoms: C_15  and  C_19
    2  A    between atoms: C_19  and  C_26
    3  A    between atoms: C_24  and  N_27
                            x       y       z     vdW  Elec       q    Type
                         _______ _______ _______ _____ _____    ______ ____

>  <TORSDO>
F 3

$$$$
=
 OpenBabel10262421023D

 32 38  0  0  1  0  0  0  0  0999 V2000
  188.0250  177.2700  138.7090 C   0  0  1  0  0  3  0  0  0  0  0  0
  188.7090  178.8280  140.3560 C   0  0  2  0  0  3  0  0  0  0  0  0
  187.8530  176.9440  136.9250 S   0  0  0  0  0  0  0  0  0  0  0  0
  189.0590  178.3710  138.9720 C   0  0  1  0  0  3  0  0  0  0  0  0
  189.5440  177.9390  141.2500 C   0  0  2  0  0  0  0  0  0  0  0  0
  185.2830  178.0220  143.8440 C   0  0  0  0  0  3  0  0  0  0  0  0
  187.2290  178.5870  140.6040 C   0  0  1  0  0  3  0  0  0  0  0  0
  187.6430  177.9140  144.3800 C   0  0  0  0  0  3  0  0  0  0  0  0
  187.9640  178.0920  143.0310 C   0  0  0  0  0  0  0  0  0  0  0  0
  189.6780  176.4410  140.9240 C   0  0  2  0  0  3  0  0  0  0  0  0
  190.9320  176.9660  138.0330 C   0  0  0  0  0  2  0  0  0  0  0  0
  189.3120  178.0850  142.6360 O   0  0  0  0  0  0  0  0  0  0  0  0
  190.4570  177.8770  139.0890 N   0  0  2  0  0  0  0  0  0  0  0  0
  190.1720  175.6440  137.9720 C   0  0  0  0  0  2  0  0  0  0  0  0
  186.7580  177.5630  139.5510 C   0  0  1  0  0  3  0  0  0  0  0  0
  190.1790  175.7200  142.0100 O   0  0  0  0  0  1  0  0  0  0  0  0
  186.9210  178.2520  142.0650 C   0  0  0  0  0  0  0  0  0  0  0  0
  190.7340  177.4370  140.4750 C   0  0  1  0  0  3  0  0  0  0  0  0
  189.1420  175.6350  136.8410 C   0  0  0  0  0  2  0  0  0  0  0  0
  186.3070  177.8770  144.7830 C   0  0  0  0  0  3  0  0  0  0  0  0
  185.5910  178.2160  142.4950 C   0  0  0  0  0  3  0  0  0  0  0  0
  183.1900  178.3990  139.0790 C   0  0  1  0  0  3  0  0  0  0  0  0
  182.2740  179.3510  139.5330 O   0  0  0  0  0  1  0  0  0  0  0  0
  183.1030  178.2320  137.5560 C   0  0  1  0  0  3  0  0  0  0  0  0
  185.1020  176.9890  138.0950 O   0  0  0  0  0  0  0  0  0  0  0  0
  184.3420  177.5020  137.0280 C   0  0  0  0  0  2  0  0  0  0  0  0
  184.6220  178.7460  139.5320 C   0  0  2  0  0  3  0  0  0  0  0  0
  184.8230  180.1280  139.4750 O   0  0  0  0  0  1  0  0  0  0  0  0
  185.6570  178.0750  138.7110 N   0  0  1  0  0  0  0  0  0  0  0  0
  181.8630  177.4360  137.1740 C   0  0  0  0  0  2  0  0  0  0  0  0
  180.8080  179.5310  136.3190 C   0  0  0  0  0  1  0  0  0  0  0  0
  181.1220  178.0790  136.0110 C   0  0  0  0  0  2  0  0  0  0  0  0
  1  3  1  6  0  0  0
  1  4  1  0  0  0  0
  1 15  1  0  0  0  0
  2  7  1  0  0  0  0
  2  5  1  0  0  0  0
  4 13  1  0  0  0  0
  4  2  1  0  0  0  0
  5 12  1  0  0  0  0
  6 20  1  0  0  0  0
  7 17  1  0  0  0  0
  8 20  2  0  0  0  0
  9  8  1  0  0  0  0
 10  5  1  0  0  0  0
 10 16  1  0  0  0  0
 11 13  1  0  0  0  0
 12  9  1  0  0  0  0
 13 18  1  0  0  0  0
 14 11  1  0  0  0  0
 15  7  1  0  0  0  0
 17 21  1  0  0  0  0
 17  9  2  0  0  0  0
 18 10  1  0  0  0  0
 18  5  1  0  0  0  0
 19  3  1  0  0  0  0
 19 14  1  0  0  0  0
 21  6  2  0  0  0  0
 22 27  1  0  0  0  0
 22 23  1  0  0  0  0
 24 22  1  0  0  0  0
 25 29  1  0  0  0  0
 26 24  1  0  0  0  0
 26 25  1  0  0  0  0
 28 27  1  0  0  0  0
 29 27  1  0  0  0  0
 29 15  1  0  0  0  0
 30 24  1  0  0  0  0
 32 31  1  0  0  0  0
 32 30  1  0  0  0  0
M  END
>  <MODEL>
9

>  <REMARK>
 VINA RESULT:      -6.9      1.954      2.762
  Name = 
  3 active torsions:
  status: ('A' for Active; 'I' for Inactive)
    1  A    between atoms: C_15  and  C_19
    2  A    between atoms: C_19  and  C_26
    3  A    between atoms: C_24  and  N_27
                            x       y       z     vdW  Elec       q    Type
                         _______ _______ _______ _____ _____    ______ ____

>  <TORSDO>
F 3

$$$$
