=
 OpenBabel10262419273D

 31 35  0  0  1  0  0  0  0  0999 V2000
  187.6060  177.8780  146.2520 C   0  0  0  0  0  0  0  0  0  0  0  0
  191.2460  175.9960  136.3060 C   0  0  0  0  0  3  0  0  0  0  0  0
  187.6570  177.8690  143.7980 C   0  0  0  0  0  2  0  0  0  0  0  0
  189.1670  176.1680  137.7640 C   0  0  1  0  0  3  0  0  0  0  0  0
  188.3410  176.3800  136.4860 C   0  0  1  0  0  3  0  0  0  0  0  0
  191.0530  178.0580  145.0930 O   0  0  0  0  0  0  0  0  0  0  0  0
  191.0170  177.0490  142.6320 O   0  0  0  0  0  0  0  0  0  0  0  0
  186.8820  178.1170  147.2790 N   0  0  0  0  0  2  0  0  0  0  0  0
  189.7880  177.3290  142.6190 C   0  0  0  0  0  0  0  0  0  0  0  0
  186.5680  175.3460  135.0930 C   0  0  0  0  0  2  0  0  0  0  0  0
  186.9710  177.2990  145.0300 C   0  0  0  0  0  2  0  0  0  0  0  0
  190.6540  176.3040  137.5400 C   0  0  0  0  0  0  0  0  0  0  0  0
  193.4430  176.3780  137.2490 C   0  0  0  0  0  3  0  0  0  0  0  0
  187.0560  175.5640  136.5190 C   0  0  0  0  0  2  0  0  0  0  0  0
  189.6050  177.0500  140.0840 C   0  0  0  0  0  0  0  0  0  0  0  0
  193.3620  175.6810  134.6100 Cl  0  0  0  0  0  0  0  0  0  0  0  0
  188.1500  178.7470  137.1040 N   0  0  0  0  0  0  0  0  0  0  0  0
  185.5920  176.4230  134.6010 C   0  0  0  0  0  2  0  0  0  0  0  0
  189.8090  177.8520  145.0900 C   0  0  0  0  0  0  0  0  0  0  0  0
  190.8880  176.8900  139.9200 N   0  0  0  0  0  0  0  0  0  0  0  0
  188.6800  177.0880  138.8970 C   0  0  1  0  0  3  0  0  0  0  0  0
  189.1020  177.6370  143.8470 N   0  0  0  0  0  0  0  0  0  0  0  0
  189.0590  177.3150  141.3820 N   0  0  0  0  0  2  0  0  0  0  0  0
  189.0940  177.7930  146.4090 C   0  0  0  0  0  2  0  0  0  0  0  0
  192.6350  176.0480  136.1580 C   0  0  0  0  0  0  0  0  0  0  0  0
  185.9460  177.8780  134.9380 C   0  0  0  0  0  2  0  0  0  0  0  0
  191.4730  176.6230  138.6390 C   0  0  0  0  0  0  0  0  0  0  0  0
  192.8630  176.6600  138.4900 C   0  0  0  0  0  3  0  0  0  0  0  0
  188.5710  178.4590  138.4130 N   0  0  0  0  0  2  0  0  0  0  0  0
  188.0500  177.8300  136.1890 C   0  0  0  0  0  0  0  0  0  0  0  0
  187.4390  178.1810  134.8750 C   0  0  0  0  0  2  0  0  0  0  0  0
  1 24  1  0  0  0  0
  1  8  2  0  0  0  0
  2 12  1  0  0  0  0
  3 22  1  0  0  0  0
  3 11  1  0  0  0  0
  4 12  1  6  0  0  0
  4 21  1  0  0  0  0
  5 14  1  1  0  0  0
  5  4  1  0  0  0  0
  9  7  2  0  0  0  0
  9 22  1  0  0  0  0
 10 14  1  0  0  0  0
 11  1  1  0  0  0  0
 12 27  2  0  0  0  0
 13 28  2  0  0  0  0
 15 23  1  0  0  0  0
 16 25  1  0  0  0  0
 17 29  1  0  0  0  0
 18 26  1  0  0  0  0
 18 10  1  0  0  0  0
 19  6  2  0  0  0  0
 19 24  1  0  0  0  0
 20 15  2  0  0  0  0
 21 29  1  6  0  0  0
 21 15  1  0  0  0  0
 22 19  1  0  0  0  0
 23  9  1  0  0  0  0
 25  2  2  0  0  0  0
 25 13  1  0  0  0  0
 27 20  1  0  0  0  0
 28 27  1  0  0  0  0
 30  5  1  0  0  0  0
 30 17  2  0  0  0  0
 31 26  1  0  0  0  0
 31 30  1  0  0  0  0
M  END
>  <MODEL>
1

>  <REMARK>
 VINA RESULT:      -9.4      0.000      0.000
  Name = 
  0 active torsions:
  status: ('A' for Active; 'I' for Inactive)
                            x       y       z     vdW  Elec       q    Type
                         _______ _______ _______ _____ _____    ______ ____

>  <TORSDO>
F 0

$$$$
=
 OpenBabel10262419273D

 31 35  0  0  1  0  0  0  0  0999 V2000
  181.2520  178.3700  137.4930 C   0  0  0  0  0  0  0  0  0  0  0  0
  187.5390  177.6610  146.1930 C   0  0  0  0  0  3  0  0  0  0  0  0
  183.3080  178.3310  138.8320 C   0  0  0  0  0  2  0  0  0  0  0  0
  187.3540  177.1360  143.7090 C   0  0  1  0  0  3  0  0  0  0  0  0
  188.8850  177.0250  143.6630 C   0  0  1  0  0  3  0  0  0  0  0  0
  180.5810  179.7040  140.8140 O   0  0  0  0  0  0  0  0  0  0  0  0
  182.4890  178.6960  142.3700 O   0  0  0  0  0  0  0  0  0  0  0  0
  180.7820  178.3660  136.3030 N   0  0  0  0  0  2  0  0  0  0  0  0
  183.1570  178.5350  141.3130 C   0  0  0  0  0  0  0  0  0  0  0  0
  190.7330  175.4170  143.2720 C   0  0  0  0  0  2  0  0  0  0  0  0
  182.4850  177.5840  137.7930 C   0  0  0  0  0  2  0  0  0  0  0  0
  186.8420  177.7720  144.9800 C   0  0  0  0  0  0  0  0  0  0  0  0
  185.7360  178.7950  147.3450 C   0  0  0  0  0  3  0  0  0  0  0  0
  189.3260  175.8170  142.8470 C   0  0  0  0  0  2  0  0  0  0  0  0
  185.3440  178.1600  142.5850 C   0  0  0  0  0  0  0  0  0  0  0  0
  187.8790  178.0620  148.8720 Cl  0  0  0  0  0  0  0  0  0  0  0  0
  188.9220  179.1930  142.5140 N   0  0  0  0  0  0  0  0  0  0  0  0
  191.8420  176.0820  142.4450 C   0  0  0  0  0  2  0  0  0  0  0  0
  181.1530  179.0820  139.8780 C   0  0  0  0  0  0  0  0  0  0  0  0
  184.8230  178.4490  143.7440 N   0  0  0  0  0  0  0  0  0  0  0  0
  186.8120  177.8550  142.4610 C   0  0  1  0  0  3  0  0  0  0  0  0
  182.5120  178.6120  140.0280 N   0  0  0  0  0  0  0  0  0  0  0  0
  184.5620  178.2470  141.3870 N   0  0  0  0  0  2  0  0  0  0  0  0
  180.3720  178.8060  138.6250 C   0  0  0  0  0  2  0  0  0  0  0  0
  186.9930  178.1860  147.3670 C   0  0  0  0  0  0  0  0  0  0  0  0
  191.6690  177.5760  142.1400 C   0  0  0  0  0  2  0  0  0  0  0  0
  185.5700  178.3750  144.9650 C   0  0  0  0  0  0  0  0  0  0  0  0
  185.0230  178.8850  146.1460 C   0  0  0  0  0  3  0  0  0  0  0  0
  187.5480  179.0940  142.2410 N   0  0  0  0  0  2  0  0  0  0  0  0
  189.5670  178.2800  143.1770 C   0  0  0  0  0  0  0  0  0  0  0  0
  191.0510  178.3730  143.2820 C   0  0  0  0  0  2  0  0  0  0  0  0
  1 11  1  0  0  0  0
  1 24  1  0  0  0  0
  2 25  1  0  0  0  0
  3 22  1  0  0  0  0
  4 12  1  1  0  0  0
  5 14  1  6  0  0  0
  5  4  1  0  0  0  0
  8  1  2  0  0  0  0
  9 23  1  0  0  0  0
  9  7  2  0  0  0  0
 11  3  1  0  0  0  0
 12  2  2  0  0  0  0
 13 25  2  0  0  0  0
 14 10  1  0  0  0  0
 15 20  2  0  0  0  0
 17 30  2  0  0  0  0
 18 10  1  0  0  0  0
 19 22  1  0  0  0  0
 19  6  2  0  0  0  0
 20 27  1  0  0  0  0
 21 29  1  1  0  0  0
 21 15  1  0  0  0  0
 21  4  1  0  0  0  0
 22  9  1  0  0  0  0
 23 15  1  0  0  0  0
 24 19  1  0  0  0  0
 25 16  1  0  0  0  0
 26 18  1  0  0  0  0
 26 31  1  0  0  0  0
 27 12  1  0  0  0  0
 27 28  2  0  0  0  0
 28 13  1  0  0  0  0
 29 17  1  0  0  0  0
 30 31  1  0  0  0  0
 30  5  1  0  0  0  0
M  END
>  <MODEL>
2

>  <REMARK>
 VINA RESULT:      -9.1      5.362      9.172
  Name = 
  0 active torsions:
  status: ('A' for Active; 'I' for Inactive)
                            x       y       z     vdW  Elec       q    Type
                         _______ _______ _______ _____ _____    ______ ____

>  <TORSDO>
F 0

$$$$
=
 OpenBabel10262419273D

 31 35  0  0  1  0  0  0  0  0999 V2000
  188.1140  177.5560  147.7350 C   0  0  0  0  0  0  0  0  0  0  0  0
  186.5200  177.9830  137.1050 C   0  0  0  0  0  3  0  0  0  0  0  0
  186.9690  177.9980  145.6100 C   0  0  0  0  0  2  0  0  0  0  0  0
  185.4050  177.6220  139.3650 C   0  0  1  0  0  3  0  0  0  0  0  0
  184.0580  177.9550  138.7040 C   0  0  1  0  0  3  0  0  0  0  0  0
  190.5610  178.3800  145.1690 O   0  0  0  0  0  0  0  0  0  0  0  0
  189.3610  177.8360  142.8570 O   0  0  0  0  0  0  0  0  0  0  0  0
  187.9730  177.5110  149.0060 N   0  0  0  0  0  2  0  0  0  0  0  0
  188.2740  177.9560  143.4840 C   0  0  0  0  0  0  0  0  0  0  0  0
  181.8580  176.9730  138.1160 C   0  0  0  0  0  2  0  0  0  0  0  0
  186.9810  177.1310  146.8600 C   0  0  0  0  0  2  0  0  0  0  0  0
  186.5930  177.9850  138.5060 C   0  0  0  0  0  0  0  0  0  0  0  0
  188.8880  178.4640  136.9680 C   0  0  0  0  0  3  0  0  0  0  0  0
  182.9700  176.9900  139.1560 C   0  0  0  0  0  2  0  0  0  0  0  0
  186.8910  178.1180  141.3390 C   0  0  0  0  0  0  0  0  0  0  0  0
  187.5550  178.2520  134.5940 Cl  0  0  0  0  0  0  0  0  0  0  0  0
  184.1330  180.1270  139.8440 N   0  0  0  0  0  0  0  0  0  0  0  0
  180.7390  177.9880  138.3890 C   0  0  0  0  0  2  0  0  0  0  0  0
  189.4770  178.0210  145.7030 C   0  0  0  0  0  0  0  0  0  0  0  0
  187.9370  178.1560  140.5620 N   0  0  0  0  0  0  0  0  0  0  0  0
  185.5070  178.2530  140.7650 C   0  0  1  0  0  3  0  0  0  0  0  0
  188.2620  177.9460  144.9240 N   0  0  0  0  0  0  0  0  0  0  0  0
  187.0370  178.0730  142.7640 N   0  0  0  0  0  2  0  0  0  0  0  0
  189.4930  177.6340  147.1540 C   0  0  0  0  0  2  0  0  0  0  0  0
  187.6610  178.2370  136.3400 C   0  0  0  0  0  0  0  0  0  0  0  0
  181.1780  179.3910  138.8310 C   0  0  0  0  0  2  0  0  0  0  0  0
  187.8350  178.2010  139.1330 C   0  0  0  0  0  0  0  0  0  0  0  0
  188.9770  178.4420  138.3630 C   0  0  0  0  0  3  0  0  0  0  0  0
  185.1430  179.6630  140.7040 N   0  0  0  0  0  2  0  0  0  0  0  0
  183.6250  179.3860  138.9060 C   0  0  0  0  0  0  0  0  0  0  0  0
  182.4450  179.8880  138.1450 C   0  0  0  0  0  2  0  0  0  0  0  0
  1  8  2  0  0  0  0
  2 12  1  0  0  0  0
  3 11  1  0  0  0  0
  4 12  1  6  0  0  0
  4 21  1  0  0  0  0
  5 30  1  0  0  0  0
  5 14  1  1  0  0  0
  5  4  1  0  0  0  0
  6 19  2  0  0  0  0
  7  9  2  0  0  0  0
  9 22  1  0  0  0  0
 10 18  1  0  0  0  0
 10 14  1  0  0  0  0
 11  1  1  0  0  0  0
 12 27  2  0  0  0  0
 13 28  2  0  0  0  0
 15 23  1  0  0  0  0
 16 25  1  0  0  0  0
 17 29  1  0  0  0  0
 18 26  1  0  0  0  0
 19 24  1  0  0  0  0
 20 15  2  0  0  0  0
 21 29  1  6  0  0  0
 21 15  1  0  0  0  0
 22  3  1  0  0  0  0
 22 19  1  0  0  0  0
 23  9  1  0  0  0  0
 24  1  1  0  0  0  0
 25 13  1  0  0  0  0
 25  2  2  0  0  0  0
 27 20  1  0  0  0  0
 28 27  1  0  0  0  0
 30 17  2  0  0  0  0
 31 26  1  0  0  0  0
 31 30  1  0  0  0  0
M  END
>  <MODEL>
3

>  <REMARK>
 VINA RESULT:      -7.7      3.380      4.174
  Name = 
  0 active torsions:
  status: ('A' for Active; 'I' for Inactive)
                            x       y       z     vdW  Elec       q    Type
                         _______ _______ _______ _____ _____    ______ ____

>  <TORSDO>
F 0

$$$$
=
 OpenBabel10262419273D

 31 35  0  0  1  0  0  0  0  0999 V2000
  197.2700  174.0450  135.3840 C   0  0  0  0  0  0  0  0  0  0  0  0
  188.2450  177.8610  139.8240 C   0  0  0  0  0  3  0  0  0  0  0  0
  194.8670  174.4030  135.7350 C   0  0  0  0  0  2  0  0  0  0  0  0
  189.3560  177.1500  137.6460 C   0  0  1  0  0  3  0  0  0  0  0  0
  187.9550  176.9870  137.0370 C   0  0  1  0  0  3  0  0  0  0  0  0
  196.6130  174.5910  138.9230 O   0  0  0  0  0  0  0  0  0  0  0  0
  194.3060  175.9140  139.0100 O   0  0  0  0  0  0  0  0  0  0  0  0
  198.1460  173.5500  134.5940 N   0  0  0  0  0  2  0  0  0  0  0  0
  194.0820  175.4420  137.8630 C   0  0  0  0  0  0  0  0  0  0  0  0
  186.4470  177.9020  135.2920 C   0  0  0  0  0  2  0  0  0  0  0  0
  196.0440  174.6770  134.8110 C   0  0  0  0  0  2  0  0  0  0  0  0
  189.3360  177.2910  139.1500 C   0  0  0  0  0  0  0  0  0  0  0  0
  189.4480  177.7140  141.9200 C   0  0  0  0  0  3  0  0  0  0  0  0
  187.8950  177.5700  135.6310 C   0  0  0  0  0  2  0  0  0  0  0  0
  191.5970  176.0380  137.9470 C   0  0  0  0  0  0  0  0  0  0  0  0
  186.9240  178.7480  142.0420 Cl  0  0  0  0  0  0  0  0  0  0  0  0
  188.2610  174.5580  137.2010 N   0  0  0  0  0  0  0  0  0  0  0  0
  185.6970  176.7590  134.5940 C   0  0  0  0  0  2  0  0  0  0  0  0
  196.4520  174.5900  137.6730 C   0  0  0  0  0  0  0  0  0  0  0  0
  191.6410  176.4250  139.1900 N   0  0  0  0  0  0  0  0  0  0  0  0
  190.2920  176.0150  137.1980 C   0  0  1  0  0  3  0  0  0  0  0  0
  195.1530  174.8580  137.0970 N   0  0  0  0  0  0  0  0  0  0  0  0
  192.7620  175.5090  137.3020 N   0  0  0  0  0  2  0  0  0  0  0  0
  197.6510  174.3480  136.8020 C   0  0  0  0  0  2  0  0  0  0  0  0
  188.2970  178.0560  141.2070 C   0  0  0  0  0  0  0  0  0  0  0  0
  185.9120  175.3490  135.1610 C   0  0  0  0  0  2  0  0  0  0  0  0
  190.4990  176.9600  139.8720 C   0  0  0  0  0  0  0  0  0  0  0  0
  190.5500  177.1710  141.2530 C   0  0  0  0  0  3  0  0  0  0  0  0
  189.6420  174.7250  137.3980 N   0  0  0  0  0  2  0  0  0  0  0  0
  187.4530  175.5650  137.0510 C   0  0  0  0  0  0  0  0  0  0  0  0
  186.0330  175.3050  136.6800 C   0  0  0  0  0  2  0  0  0  0  0  0
  1 24  1  0  0  0  0
  2 25  1  0  0  0  0
  3 22  1  0  0  0  0
  4 12  1  1  0  0  0
  5 14  1  6  0  0  0
  5 30  1  0  0  0  0
  5  4  1  0  0  0  0
  8  1  2  0  0  0  0
  9  7  2  0  0  0  0
 10 14  1  0  0  0  0
 11  1  1  0  0  0  0
 11  3  1  0  0  0  0
 12  2  2  0  0  0  0
 12 27  1  0  0  0  0
 15 20  2  0  0  0  0
 17 29  1  0  0  0  0
 18 26  1  0  0  0  0
 18 10  1  0  0  0  0
 19  6  2  0  0  0  0
 20 27  1  0  0  0  0
 21 29  1  1  0  0  0
 21  4  1  0  0  0  0
 21 15  1  0  0  0  0
 22 19  1  0  0  0  0
 22  9  1  0  0  0  0
 23  9  1  0  0  0  0
 23 15  1  0  0  0  0
 24 19  1  0  0  0  0
 25 13  2  0  0  0  0
 25 16  1  0  0  0  0
 26 31  1  0  0  0  0
 27 28  2  0  0  0  0
 28 13  1  0  0  0  0
 30 17  2  0  0  0  0
 31 30  1  0  0  0  0
M  END
>  <MODEL>
4

>  <REMARK>
 VINA RESULT:      -7.3      3.796      7.514
  Name = 
  0 active torsions:
  status: ('A' for Active; 'I' for Inactive)
                            x       y       z     vdW  Elec       q    Type
                         _______ _______ _______ _____ _____    ______ ____

>  <TORSDO>
F 0

$$$$
=
 OpenBabel10262419273D

 31 35  0  0  1  0  0  0  0  0999 V2000
  180.2950  179.4540  142.9820 C   0  0  0  0  0  0  0  0  0  0  0  0
  190.3990  177.6410  139.7680 C   0  0  0  0  0  3  0  0  0  0  0  0
  182.6370  178.7320  143.0990 C   0  0  0  0  0  2  0  0  0  0  0  0
  188.9250  178.2820  141.7420 C   0  0  1  0  0  3  0  0  0  0  0  0
  190.0680  177.8560  142.6770 C   0  0  1  0  0  3  0  0  0  0  0  0
  181.3970  178.3240  139.7010 O   0  0  0  0  0  0  0  0  0  0  0  0
  184.0470  178.5540  139.7360 O   0  0  0  0  0  0  0  0  0  0  0  0
  179.2320  179.6620  143.6640 N   0  0  0  0  0  2  0  0  0  0  0  0
  183.9560  178.5090  140.9930 C   0  0  0  0  0  0  0  0  0  0  0  0
  191.6810  178.7360  144.3440 C   0  0  0  0  0  2  0  0  0  0  0  0
  181.6240  179.7530  143.5930 C   0  0  0  0  0  2  0  0  0  0  0  0
  189.1210  177.8210  140.3170 C   0  0  0  0  0  0  0  0  0  0  0  0
  189.4170  177.1650  137.6070 C   0  0  0  0  0  3  0  0  0  0  0  0
  190.2630  178.8630  143.8030 C   0  0  0  0  0  2  0  0  0  0  0  0
  186.4540  178.0580  141.3000 C   0  0  0  0  0  0  0  0  0  0  0  0
  192.1420  177.0570  137.7500 Cl  0  0  0  0  0  0  0  0  0  0  0  0
  188.7610  175.8500  143.2190 N   0  0  0  0  0  0  0  0  0  0  0  0
  191.8100  177.7560  145.5170 C   0  0  0  0  0  2  0  0  0  0  0  0
  181.4440  178.7400  140.8900 C   0  0  0  0  0  0  0  0  0  0  0  0
  186.6780  177.9290  140.0230 N   0  0  0  0  0  0  0  0  0  0  0  0
  187.5600  177.8390  142.2970 C   0  0  1  0  0  3  0  0  0  0  0  0
  182.6820  178.7040  141.6350 N   0  0  0  0  0  0  0  0  0  0  0  0
  185.1290  178.2890  141.7920 N   0  0  0  0  0  2  0  0  0  0  0  0
  180.1920  179.3130  141.4940 C   0  0  0  0  0  2  0  0  0  0  0  0
  190.5450  177.2990  138.4210 C   0  0  0  0  0  0  0  0  0  0  0  0
  191.0550  176.4250  145.3880 C   0  0  0  0  0  2  0  0  0  0  0  0
  187.9890  177.6980  139.4890 C   0  0  0  0  0  0  0  0  0  0  0  0
  188.1410  177.3690  138.1390 C   0  0  0  0  0  3  0  0  0  0  0  0
  187.6060  176.4300  142.6670 N   0  0  0  0  0  2  0  0  0  0  0  0
  189.9090  176.4600  143.2260 C   0  0  0  0  0  0  0  0  0  0  0  0
  191.0460  175.8540  143.9760 C   0  0  0  0  0  2  0  0  0  0  0  0
  1 11  1  0  0  0  0
  1  8  2  0  0  0  0
  2 12  1  0  0  0  0
  3 11  1  0  0  0  0
  4 12  1  6  0  0  0
  4 21  1  0  0  0  0
  4  5  1  0  0  0  0
  5 30  1  0  0  0  0
  5 14  1  1  0  0  0
  6 19  2  0  0  0  0
  7  9  2  0  0  0  0
  9 22  1  0  0  0  0
  9 23  1  0  0  0  0
 10 18  1  0  0  0  0
 13 28  2  0  0  0  0
 13 25  1  0  0  0  0
 14 10  1  0  0  0  0
 15 23  1  0  0  0  0
 16 25  1  0  0  0  0
 17 30  2  0  0  0  0
 19 24  1  0  0  0  0
 19 22  1  0  0  0  0
 20 15  2  0  0  0  0
 21 15  1  6  0  0  0
 21 29  1  0  0  0  0
 22  3  1  0  0  0  0
 24  1  1  0  0  0  0
 25  2  2  0  0  0  0
 26 18  1  0  0  0  0
 27 20  1  0  0  0  0
 27 12  2  0  0  0  0
 28 27  1  0  0  0  0
 29 17  1  0  0  0  0
 30 31  1  0  0  0  0
 31 26  1  0  0  0  0
M  END
>  <MODEL>
5

>  <REMARK>
 VINA RESULT:      -6.9      4.442      7.219
  Name = 
  0 active torsions:
  status: ('A' for Active; 'I' for Inactive)
                            x       y       z     vdW  Elec       q    Type
                         _______ _______ _______ _____ _____    ______ ____

>  <TORSDO>
F 0

$$$$
=
 OpenBabel10262419273D

 31 35  0  0  1  0  0  0  0  0999 V2000
  191.2280  176.5660  146.8750 C   0  0  0  0  0  0  0  0  0  0  0  0
  188.7490  177.8650  136.4890 C   0  0  0  0  0  3  0  0  0  0  0  0
  191.2290  176.1580  144.4550 C   0  0  0  0  0  2  0  0  0  0  0  0
  190.5830  177.2000  138.1240 C   0  0  1  0  0  3  0  0  0  0  0  0
  191.2910  176.4760  136.9680 C   0  0  1  0  0  3  0  0  0  0  0  0
  187.9900  177.4660  145.4760 O   0  0  0  0  0  0  0  0  0  0  0  0
  188.4480  177.9390  142.8990 O   0  0  0  0  0  0  0  0  0  0  0  0
  191.7900  176.2630  147.9840 N   0  0  0  0  0  2  0  0  0  0  0  0
  189.4810  177.2280  143.0330 C   0  0  0  0  0  0  0  0  0  0  0  0
  193.3480  176.5200  135.5830 C   0  0  0  0  0  2  0  0  0  0  0  0
  192.0570  176.6450  145.6350 C   0  0  0  0  0  2  0  0  0  0  0  0
  189.1580  177.5830  137.8010 C   0  0  0  0  0  0  0  0  0  0  0  0
  186.5540  178.4920  137.2940 C   0  0  0  0  0  3  0  0  0  0  0  0
  192.7880  176.7530  136.9800 C   0  0  0  0  0  2  0  0  0  0  0  0
  189.8020  176.9670  140.5090 C   0  0  0  0  0  0  0  0  0  0  0  0
  186.9390  178.6310  134.5940 Cl  0  0  0  0  0  0  0  0  0  0  0  0
  190.5640  174.3540  137.9650 N   0  0  0  0  0  0  0  0  0  0  0  0
  193.8550  175.0900  135.3490 C   0  0  0  0  0  2  0  0  0  0  0  0
  189.2190  177.1950  145.5440 C   0  0  0  0  0  0  0  0  0  0  0  0
  188.6780  177.5560  140.2160 N   0  0  0  0  0  0  0  0  0  0  0  0
  190.6650  176.3810  139.4250 C   0  0  1  0  0  3  0  0  0  0  0  0
  189.9780  176.9110  144.3470 N   0  0  0  0  0  0  0  0  0  0  0  0
  190.1840  176.7530  141.8740 N   0  0  0  0  0  2  0  0  0  0  0  0
  189.8800  177.2190  146.8930 C   0  0  0  0  0  2  0  0  0  0  0  0
  187.4460  178.3030  136.2360 C   0  0  0  0  0  0  0  0  0  0  0  0
  192.9710  173.9530  135.8800 C   0  0  0  0  0  2  0  0  0  0  0  0
  188.2590  177.7890  138.8650 C   0  0  0  0  0  0  0  0  0  0  0  0
  186.9610  178.2400  138.6080 C   0  0  0  0  0  3  0  0  0  0  0  0
  190.2590  175.0040  139.1730 N   0  0  0  0  0  2  0  0  0  0  0  0
  191.0190  174.9930  136.9290 C   0  0  0  0  0  0  0  0  0  0  0  0
  191.4760  174.2150  135.7420 C   0  0  0  0  0  2  0  0  0  0  0  0
  1 24  1  0  0  0  0
  1  8  2  0  0  0  0
  2 12  1  0  0  0  0
  3 11  1  0  0  0  0
  4 12  1  6  0  0  0
  4 21  1  0  0  0  0
  5 14  1  1  0  0  0
  5  4  1  0  0  0  0
  6 19  2  0  0  0  0
  7  9  2  0  0  0  0
  9 22  1  0  0  0  0
 10 14  1  0  0  0  0
 11  1  1  0  0  0  0
 12 27  2  0  0  0  0
 13 28  2  0  0  0  0
 15 23  1  0  0  0  0
 16 25  1  0  0  0  0
 17 29  1  0  0  0  0
 18 10  1  0  0  0  0
 18 26  1  0  0  0  0
 19 24  1  0  0  0  0
 20 15  2  0  0  0  0
 21 29  1  6  0  0  0
 21 15  1  0  0  0  0
 22  3  1  0  0  0  0
 22 19  1  0  0  0  0
 23  9  1  0  0  0  0
 25  2  2  0  0  0  0
 25 13  1  0  0  0  0
 27 20  1  0  0  0  0
 28 27  1  0  0  0  0
 30  5  1  0  0  0  0
 30 17  2  0  0  0  0
 31 26  1  0  0  0  0
 31 30  1  0  0  0  0
M  END
>  <MODEL>
6

>  <REMARK>
 VINA RESULT:      -6.7      2.357      4.537
  Name = 
  0 active torsions:
  status: ('A' for Active; 'I' for Inactive)
                            x       y       z     vdW  Elec       q    Type
                         _______ _______ _______ _____ _____    ______ ____

>  <TORSDO>
F 0

$$$$
=
 OpenBabel10262419273D

 31 35  0  0  1  0  0  0  0  0999 V2000
  191.3760  177.3730  140.1530 C   0  0  0  0  0  0  0  0  0  0  0  0
  180.9690  179.3500  142.0210 C   0  0  0  0  0  3  0  0  0  0  0  0
  188.9520  177.4160  139.7720 C   0  0  0  0  0  2  0  0  0  0  0  0
  182.7680  179.1850  140.2270 C   0  0  1  0  0  3  0  0  0  0  0  0
  181.6520  179.0040  139.1870 C   0  0  1  0  0  3  0  0  0  0  0  0
  189.6280  177.1610  143.3400 O   0  0  0  0  0  0  0  0  0  0  0  0
  187.2240  178.2060  142.8890 O   0  0  0  0  0  0  0  0  0  0  0  0
  192.5120  177.1280  139.6170 N   0  0  0  0  0  2  0  0  0  0  0  0
  187.4240  177.9440  141.6720 C   0  0  0  0  0  0  0  0  0  0  0  0
  180.6050  180.0830  137.2140 C   0  0  0  0  0  2  0  0  0  0  0  0
  190.2920  177.9780  139.3230 C   0  0  0  0  0  2  0  0  0  0  0  0
  182.2840  179.0310  141.6500 C   0  0  0  0  0  0  0  0  0  0  0  0
  181.5070  178.9230  144.3420 C   0  0  0  0  0  3  0  0  0  0  0  0
  181.9200  179.8370  137.9410 C   0  0  0  0  0  2  0  0  0  0  0  0
  184.9640  178.2630  141.0510 C   0  0  0  0  0  0  0  0  0  0  0  0
  178.9310  179.6590  143.8120 Cl  0  0  0  0  0  0  0  0  0  0  0  0
  182.2660  176.6310  139.0680 N   0  0  0  0  0  0  0  0  0  0  0  0
  180.2790  179.0270  136.1490 C   0  0  0  0  0  2  0  0  0  0  0  0
  189.8450  177.3840  142.1180 C   0  0  0  0  0  0  0  0  0  0  0  0
  184.5780  178.4070  142.2880 N   0  0  0  0  0  0  0  0  0  0  0  0
  183.9580  178.2550  139.9330 C   0  0  1  0  0  3  0  0  0  0  0  0
  188.7490  177.6270  141.2070 N   0  0  0  0  0  0  0  0  0  0  0  0
  186.3340  177.9860  140.7380 N   0  0  0  0  0  2  0  0  0  0  0  0
  191.2710  177.4340  141.6470 C   0  0  0  0  0  2  0  0  0  0  0  0
  180.5790  179.2800  143.3610 C   0  0  0  0  0  0  0  0  0  0  0  0
  180.5310  177.5620  136.5340 C   0  0  0  0  0  2  0  0  0  0  0  0
  183.2180  178.6850  142.6440 C   0  0  0  0  0  0  0  0  0  0  0  0
  182.8270  178.6300  143.9850 C   0  0  0  0  0  3  0  0  0  0  0  0
  183.4840  176.8930  139.7170 N   0  0  0  0  0  2  0  0  0  0  0  0
  181.3940  177.5630  138.8240 C   0  0  0  0  0  0  0  0  0  0  0  0
  180.2040  177.2400  137.9860 C   0  0  0  0  0  2  0  0  0  0  0  0
  1 24  1  0  0  0  0
  2 25  1  0  0  0  0
  3 22  1  0  0  0  0
  4 12  1  1  0  0  0
  5 14  1  6  0  0  0
  5  4  1  0  0  0  0
  8  1  2  0  0  0  0
  9  7  2  0  0  0  0
 10 14  1  0  0  0  0
 11  3  1  0  0  0  0
 11  1  1  0  0  0  0
 12  2  2  0  0  0  0
 12 27  1  0  0  0  0
 15 20  2  0  0  0  0
 17 29  1  0  0  0  0
 18 26  1  0  0  0  0
 18 10  1  0  0  0  0
 19  6  2  0  0  0  0
 20 27  1  0  0  0  0
 21 29  1  1  0  0  0
 21  4  1  0  0  0  0
 21 15  1  0  0  0  0
 22  9  1  0  0  0  0
 22 19  1  0  0  0  0
 23 15  1  0  0  0  0
 23  9  1  0  0  0  0
 24 19  1  0  0  0  0
 25 16  1  0  0  0  0
 25 13  2  0  0  0  0
 26 31  1  0  0  0  0
 27 28  2  0  0  0  0
 28 13  1  0  0  0  0
 30 17  2  0  0  0  0
 30  5  1  0  0  0  0
 31 30  1  0  0  0  0
M  END
>  <MODEL>
7

>  <REMARK>
 VINA RESULT:      -6.6      5.621      8.124
  Name = 
  0 active torsions:
  status: ('A' for Active; 'I' for Inactive)
                            x       y       z     vdW  Elec       q    Type
                         _______ _______ _______ _____ _____    ______ ____

>  <TORSDO>
F 0

$$$$
=
 OpenBabel10262419273D

 31 35  0  0  1  0  0  0  0  0999 V2000
  187.5030  177.5370  146.2300 C   0  0  0  0  0  0  0  0  0  0  0  0
  181.2010  179.3360  137.7000 C   0  0  0  0  0  3  0  0  0  0  0  0
  186.4280  177.1500  144.0580 C   0  0  0  0  0  2  0  0  0  0  0  0
  183.4020  178.3290  138.4870 C   0  0  1  0  0  3  0  0  0  0  0  0
  183.4290  177.4920  137.1990 C   0  0  1  0  0  3  0  0  0  0  0  0
  184.1860  179.0380  146.2150 O   0  0  0  0  0  0  0  0  0  0  0  0
  183.6070  179.4300  143.6480 O   0  0  0  0  0  0  0  0  0  0  0  0
  188.4120  177.1280  147.0310 N   0  0  0  0  0  2  0  0  0  0  0  0
  184.4620  178.5370  143.4000 C   0  0  0  0  0  0  0  0  0  0  0  0
  184.6990  177.1560  135.0940 C   0  0  0  0  0  2  0  0  0  0  0  0
  187.7410  177.4650  144.7570 C   0  0  0  0  0  2  0  0  0  0  0  0
  182.0620  178.9760  138.7470 C   0  0  0  0  0  0  0  0  0  0  0  0
  179.6840  180.3610  139.2840 C   0  0  0  0  0  3  0  0  0  0  0  0
  184.8190  177.4820  136.5770 C   0  0  0  0  0  2  0  0  0  0  0  0
  183.6550  178.2340  140.9920 C   0  0  0  0  0  0  0  0  0  0  0  0
  178.9300  180.4400  136.6600 Cl  0  0  0  0  0  0  0  0  0  0  0  0
  182.8260  175.5390  138.5580 N   0  0  0  0  0  0  0  0  0  0  0  0
  184.8060  175.6580  134.7790 C   0  0  0  0  0  2  0  0  0  0  0  0
  185.2650  178.5400  145.7940 C   0  0  0  0  0  0  0  0  0  0  0  0
  182.6310  179.0260  141.1420 N   0  0  0  0  0  0  0  0  0  0  0  0
  183.8740  177.5030  139.6960 C   0  0  1  0  0  3  0  0  0  0  0  0
  185.3960  178.1250  144.4160 N   0  0  0  0  0  0  0  0  0  0  0  0
  184.5260  177.9450  142.0930 N   0  0  0  0  0  2  0  0  0  0  0  0
  186.4190  178.4320  146.7500 C   0  0  0  0  0  2  0  0  0  0  0  0
  180.0090  180.0130  137.9710 C   0  0  0  0  0  0  0  0  0  0  0  0
  184.0400  174.7040  135.7070 C   0  0  0  0  0  2  0  0  0  0  0  0
  181.7370  179.3410  140.0670 C   0  0  0  0  0  0  0  0  0  0  0  0
  180.5490  180.0300  140.3310 C   0  0  0  0  0  3  0  0  0  0  0  0
  183.1670  176.2280  139.7340 N   0  0  0  0  0  2  0  0  0  0  0  0
  182.9130  176.0870  137.3820 C   0  0  0  0  0  0  0  0  0  0  0  0
  182.6930  175.2430  136.1730 C   0  0  0  0  0  2  0  0  0  0  0  0
  1 24  1  0  0  0  0
  1  8  2  0  0  0  0
  2 25  2  0  0  0  0
  2 12  1  0  0  0  0
  3 22  1  0  0  0  0
  3 11  1  0  0  0  0
  4 12  1  1  0  0  0
  4 21  1  0  0  0  0
  5 14  1  1  0  0  0
  5 30  1  0  0  0  0
  5  4  1  0  0  0  0
  9  7  2  0  0  0  0
  9 22  1  0  0  0  0
 10 14  1  0  0  0  0
 11  1  1  0  0  0  0
 12 27  2  0  0  0  0
 13 28  2  0  0  0  0
 15 20  2  0  0  0  0
 15 23  1  0  0  0  0
 16 25  1  0  0  0  0
 17 29  1  0  0  0  0
 18 10  1  0  0  0  0
 18 26  1  0  0  0  0
 19  6  2  0  0  0  0
 19 24  1  0  0  0  0
 21 29  1  1  0  0  0
 21 15  1  0  0  0  0
 22 19  1  0  0  0  0
 23  9  1  0  0  0  0
 25 13  1  0  0  0  0
 26 31  1  0  0  0  0
 27 28  1  0  0  0  0
 27 20  1  0  0  0  0
 30 17  2  0  0  0  0
 31 30  1  0  0  0  0
M  END
>  <MODEL>
8

>  <REMARK>
 VINA RESULT:      -6.5      5.578      7.349
  Name = 
  0 active torsions:
  status: ('A' for Active; 'I' for Inactive)
                            x       y       z     vdW  Elec       q    Type
                         _______ _______ _______ _____ _____    ______ ____

>  <TORSDO>
F 0

$$$$
