=
 OpenBabel10262421063D

 32 35  0  0  1  0  0  0  0  0999 V2000
  182.3850  177.6040  138.3710 N   0  0  0  0  0  0  0  0  0  0  0  0
  183.9330  178.7520  143.2650 S   0  0  0  0  0  0  0  0  0  0  0  0
  183.5080  177.5970  139.3210 C   0  0  1  0  0  3  0  0  0  0  0  0
  186.0810  179.5170  142.0630 C   0  0  0  0  0  2  0  0  0  0  0  0
  185.0800  179.1630  141.0020 C   0  0  1  0  0  3  0  0  0  0  0  0
  184.6340  178.5740  138.8720 C   0  0  1  0  0  3  0  0  0  0  0  0
  185.6680  178.6590  139.8340 O   0  0  0  0  0  0  0  0  0  0  0  0
  184.2880  178.0830  141.6370 C   0  0  2  0  0  3  0  0  0  0  0  0
  185.4140  179.6740  143.2970 O   0  0  0  0  0  0  0  0  0  0  0  0
  183.0610  177.8590  140.7780 C   0  0  0  0  0  2  0  0  0  0  0  0
  185.2440  178.1080  137.5570 C   0  0  0  0  0  2  0  0  0  0  0  0
  186.7440  177.8990  137.6820 C   0  0  0  0  0  2  0  0  0  0  0  0
  187.1130  176.4870  137.2740 C   0  0  0  0  0  1  0  0  0  0  0  0
  182.0080  175.9730  137.8710 S   0  0  0  0  0  0  0  0  0  0  0  0
  183.5070  175.1420  137.3990 C   0  0  0  0  0  1  0  0  0  0  0  0
  181.0850  175.9990  136.6850 O   0  0  0  0  0  0  0  0  0  0  0  0
  181.3630  175.2100  138.9950 O   0  0  0  0  0  0  0  0  0  0  0  0
  181.2470  178.4290  138.8390 C   0  0  1  0  0  3  0  0  0  0  0  0
  180.1000  181.7780  137.4480 C   0  0  0  0  0  3  0  0  0  0  0  0
  180.8360  180.3890  135.6090 C   0  0  0  0  0  3  0  0  0  0  0  0
  180.9210  179.5350  137.8810 C   0  0  0  0  0  0  0  0  0  0  0  0
  180.3000  181.5970  136.0740 C   0  0  0  0  0  0  0  0  0  0  0  0
  181.1380  179.3620  136.5070 C   0  0  0  0  0  3  0  0  0  0  0  0
  180.3980  180.7530  138.3510 C   0  0  0  0  0  0  0  0  0  0  0  0
  180.1270  181.0370  140.0640 Cl  0  0  0  0  0  0  0  0  0  0  0  0
  180.0270  182.7170  135.1160 C   0  0  0  0  0  3  0  0  0  0  0  0
  180.9030  183.9170  135.4380 C   0  0  0  0  0  2  0  0  0  0  0  0
  179.4510  183.9150  135.8520 C   0  0  0  0  0  2  0  0  0  0  0  0
  180.0300  177.6980  139.3490 C   0  0  0  0  0  0  0  0  0  0  0  0
  180.0070  177.2320  140.6950 N   0  0  0  0  0  2  0  0  0  0  0  0
  179.0350  177.5060  138.5990 O   0  0  0  0  0  0  0  0  0  0  0  0
  178.9310  176.5700  141.1830 O   0  0  0  0  0  1  0  0  0  0  0  0
  1 18  1  0  0  0  0
  2  9  1  0  0  0  0
  3  1  1  6  0  0  0
  3 10  1  0  0  0  0
  4  9  1  0  0  0  0
  5  8  1  0  0  0  0
  5  4  1  1  0  0  0
  6 11  1  6  0  0  0
  6  3  1  0  0  0  0
  6  7  1  0  0  0  0
  7  5  1  0  0  0  0
  8 10  1  6  0  0  0
  8  2  1  0  0  0  0
 11 12  1  0  0  0  0
 13 12  1  0  0  0  0
 14  1  1  0  0  0  0
 14 17  2  0  0  0  0
 15 14  1  0  0  0  0
 16 14  2  0  0  0  0
 18 29  1  6  0  0  0
 19 24  1  0  0  0  0
 20 22  1  0  0  0  0
 20 23  2  0  0  0  0
 21 24  2  0  0  0  0
 21 18  1  0  0  0  0
 22 19  2  0  0  0  0
 23 21  1  0  0  0  0
 24 25  1  0  0  0  0
 26 27  1  0  0  0  0
 26 28  1  0  0  0  0
 26 22  1  0  0  0  0
 27 28  1  0  0  0  0
 29 30  1  0  0  0  0
 30 32  1  0  0  0  0
 31 29  2  0  0  0  0
M  END
>  <MODEL>
1

>  <REMARK>
 VINA RESULT:      -5.4      0.000      0.000
  Name = 
  8 active torsions:
  status: ('A' for Active; 'I' for Inactive)
    1  A    between atoms: C_1  and  C_27
    2  A    between atoms: S_2  and  N_5
    3  A    between atoms: N_5  and  C_10
    4  A    between atoms: N_5  and  C_27
    5  A    between atoms: C_6  and  C_13
    6  A    between atoms: C_6  and  C_25
    7  A    between atoms: C_7  and  C_19
    8  A    between atoms: C_16  and  C_27
                            x       y       z     vdW  Elec       q    Type
                         _______ _______ _______ _____ _____    ______ ____

>  <TORSDO>
F 8

$$$$
=
 OpenBabel10262421063D

 32 35  0  0  1  0  0  0  0  0999 V2000
  181.9700  178.7090  139.6290 N   0  0  0  0  0  0  0  0  0  0  0  0
  179.1270  174.3120  139.1430 S   0  0  0  0  0  0  0  0  0  0  0  0
  181.5400  177.6380  138.7180 C   0  0  1  0  0  3  0  0  0  0  0  0
  181.1220  173.5630  137.6940 C   0  0  0  0  0  2  0  0  0  0  0  0
  181.4870  174.8860  138.3030 C   0  0  1  0  0  3  0  0  0  0  0  0
  182.7450  176.7560  138.2750 C   0  0  1  0  0  3  0  0  0  0  0  0
  182.3280  175.6560  137.4890 O   0  0  0  0  0  0  0  0  0  0  0  0
  180.1780  175.5730  138.4180 C   0  0  2  0  0  3  0  0  0  0  0  0
  180.0240  173.0170  138.3920 O   0  0  0  0  0  0  0  0  0  0  0  0
  180.3840  176.7890  139.2960 C   0  0  0  0  0  2  0  0  0  0  0  0
  183.7300  177.5810  137.4560 C   0  0  0  0  0  2  0  0  0  0  0  0
  184.9880  177.8920  138.2480 C   0  0  0  0  0  2  0  0  0  0  0  0
  186.1900  177.9440  137.3250 C   0  0  0  0  0  1  0  0  0  0  0  0
  181.8520  180.2600  138.8330 S   0  0  0  0  0  0  0  0  0  0  0  0
  181.2180  180.0300  137.1870 C   0  0  0  0  0  1  0  0  0  0  0  0
  183.2130  180.8920  138.7340 O   0  0  0  0  0  0  0  0  0  0  0  0
  180.9260  181.1740  139.5860 O   0  0  0  0  0  0  0  0  0  0  0  0
  181.3420  178.6070  140.9670 C   0  0  1  0  0  3  0  0  0  0  0  0
  182.8940  178.7670  144.4360 C   0  0  0  0  0  3  0  0  0  0  0  0
  184.6150  179.2240  142.7990 C   0  0  0  0  0  3  0  0  0  0  0  0
  182.3430  178.7690  142.0720 C   0  0  0  0  0  0  0  0  0  0  0  0
  184.2240  179.0890  144.1370 C   0  0  0  0  0  0  0  0  0  0  0  0
  183.6780  179.0720  141.7730 C   0  0  0  0  0  3  0  0  0  0  0  0
  181.9520  178.6170  143.4150 C   0  0  0  0  0  0  0  0  0  0  0  0
  180.2970  178.2130  143.8490 Cl  0  0  0  0  0  0  0  0  0  0  0  0
  185.2400  179.1990  145.2330 C   0  0  0  0  0  3  0  0  0  0  0  0
  185.9350  177.8630  145.4500 C   0  0  0  0  0  2  0  0  0  0  0  0
  184.8540  178.3120  146.4050 C   0  0  0  0  0  2  0  0  0  0  0  0
  180.0690  179.3830  141.1920 C   0  0  0  0  0  0  0  0  0  0  0  0
  180.1100  180.5920  141.9460 N   0  0  0  0  0  2  0  0  0  0  0  0
  178.9760  178.9770  140.7140 O   0  0  0  0  0  0  0  0  0  0  0  0
  178.9840  181.3110  142.1680 O   0  0  0  0  0  1  0  0  0  0  0  0
  1 18  1  0  0  0  0
  3 10  1  0  0  0  0
  3  1  1  1  0  0  0
  4  9  1  0  0  0  0
  5  4  1  6  0  0  0
  5  8  1  0  0  0  0
  6 11  1  6  0  0  0
  6  3  1  0  0  0  0
  7  6  1  0  0  0  0
  7  5  1  0  0  0  0
  8  2  1  0  0  0  0
  8 10  1  1  0  0  0
  9  2  1  0  0  0  0
 11 12  1  0  0  0  0
 13 12  1  0  0  0  0
 14 17  2  0  0  0  0
 14  1  1  0  0  0  0
 15 14  1  0  0  0  0
 16 14  2  0  0  0  0
 18 29  1  1  0  0  0
 18 21  1  0  0  0  0
 20 22  2  0  0  0  0
 21 24  1  0  0  0  0
 22 19  1  0  0  0  0
 22 26  1  0  0  0  0
 23 21  2  0  0  0  0
 23 20  1  0  0  0  0
 24 25  1  0  0  0  0
 24 19  2  0  0  0  0
 26 27  1  0  0  0  0
 26 28  1  0  0  0  0
 27 28  1  0  0  0  0
 29 30  1  0  0  0  0
 30 32  1  0  0  0  0
 31 29  2  0  0  0  0
M  END
>  <MODEL>
2

>  <REMARK>
 VINA RESULT:      -5.2      2.830      6.481
  Name = 
  8 active torsions:
  status: ('A' for Active; 'I' for Inactive)
    1  A    between atoms: C_1  and  C_27
    2  A    between atoms: S_2  and  N_5
    3  A    between atoms: N_5  and  C_10
    4  A    between atoms: N_5  and  C_27
    5  A    between atoms: C_6  and  C_13
    6  A    between atoms: C_6  and  C_25
    7  A    between atoms: C_7  and  C_19
    8  A    between atoms: C_16  and  C_27
                            x       y       z     vdW  Elec       q    Type
                         _______ _______ _______ _____ _____    ______ ____

>  <TORSDO>
F 8

$$$$
=
 OpenBabel10262421063D

 32 35  0  0  1  0  0  0  0  0999 V2000
  188.5170  176.2230  137.4700 N   0  0  0  0  0  0  0  0  0  0  0  0
  183.3020  176.1760  136.7910 S   0  0  0  0  0  0  0  0  0  0  0  0
  187.3820  175.5280  136.8460 C   0  0  1  0  0  3  0  0  0  0  0  0
  183.6150  173.6300  137.0350 C   0  0  0  0  0  2  0  0  0  0  0  0
  184.9440  174.2700  137.3160 C   0  0  1  0  0  3  0  0  0  0  0  0
  187.1870  174.1070  137.4520 C   0  0  1  0  0  3  0  0  0  0  0  0
  186.0320  173.4710  136.9380 O   0  0  0  0  0  0  0  0  0  0  0  0
  184.9210  175.4770  136.4560 C   0  0  2  0  0  3  0  0  0  0  0  0
  182.6020  174.6100  137.1090 O   0  0  0  0  0  0  0  0  0  0  0  0
  186.0770  176.3570  136.8850 C   0  0  0  0  0  2  0  0  0  0  0  0
  188.3920  173.2290  137.1370 C   0  0  0  0  0  2  0  0  0  0  0  0
  187.9700  171.8990  136.5360 C   0  0  0  0  0  2  0  0  0  0  0  0
  188.6590  171.6830  135.2030 C   0  0  0  0  0  1  0  0  0  0  0  0
  189.7480  176.5590  136.2760 S   0  0  0  0  0  0  0  0  0  0  0  0
  190.1400  175.0630  135.3980 C   0  0  0  0  0  1  0  0  0  0  0  0
  190.9970  177.0550  136.9510 O   0  0  0  0  0  0  0  0  0  0  0  0
  189.2650  177.5880  135.2910 O   0  0  0  0  0  0  0  0  0  0  0  0
  188.0930  177.3630  138.3170 C   0  0  1  0  0  3  0  0  0  0  0  0
  188.4930  177.7380  142.0810 C   0  0  0  0  0  3  0  0  0  0  0  0
  190.4130  176.5480  141.2150 C   0  0  0  0  0  3  0  0  0  0  0  0
  188.6560  177.2740  139.7040 C   0  0  0  0  0  0  0  0  0  0  0  0
  189.7290  177.1140  142.2970 C   0  0  0  0  0  0  0  0  0  0  0  0
  189.8830  176.6330  139.9250 C   0  0  0  0  0  3  0  0  0  0  0  0
  187.9600  177.8290  140.7920 C   0  0  0  0  0  0  0  0  0  0  0  0
  186.4060  178.6220  140.5790 Cl  0  0  0  0  0  0  0  0  0  0  0  0
  190.2710  176.9750  143.6880 C   0  0  0  0  0  3  0  0  0  0  0  0
  191.5490  177.7840  143.8430 C   0  0  0  0  0  2  0  0  0  0  0  0
  191.6250  176.2860  143.6620 C   0  0  0  0  0  2  0  0  0  0  0  0
  188.1920  178.7420  137.7160 C   0  0  0  0  0  0  0  0  0  0  0  0
  187.1330  179.2250  136.8940 N   0  0  0  0  0  2  0  0  0  0  0  0
  189.1950  179.4710  137.9420 O   0  0  0  0  0  0  0  0  0  0  0  0
  187.1920  180.4580  136.3370 O   0  0  0  0  0  1  0  0  0  0  0  0
  1 18  1  0  0  0  0
  2  9  1  0  0  0  0
  3 10  1  0  0  0  0
  3  6  1  0  0  0  0
  3  1  1  1  0  0  0
  4  9  1  0  0  0  0
  5  4  1  6  0  0  0
  6 11  1  6  0  0  0
  7  5  1  0  0  0  0
  7  6  1  0  0  0  0
  8  2  1  0  0  0  0
  8 10  1  1  0  0  0
  8  5  1  0  0  0  0
 12 11  1  0  0  0  0
 13 12  1  0  0  0  0
 14 16  2  0  0  0  0
 14  1  1  0  0  0  0
 15 14  1  0  0  0  0
 17 14  2  0  0  0  0
 18 29  1  6  0  0  0
 18 21  1  0  0  0  0
 19 22  1  0  0  0  0
 20 22  2  0  0  0  0
 21 23  2  0  0  0  0
 21 24  1  0  0  0  0
 22 26  1  0  0  0  0
 23 20  1  0  0  0  0
 24 19  2  0  0  0  0
 25 24  1  0  0  0  0
 26 27  1  0  0  0  0
 28 26  1  0  0  0  0
 28 27  1  0  0  0  0
 29 31  2  0  0  0  0
 30 29  1  0  0  0  0
 32 30  1  0  0  0  0
M  END
>  <MODEL>
3

>  <REMARK>
 VINA RESULT:      -5.1      5.646      8.991
  Name = 
  8 active torsions:
  status: ('A' for Active; 'I' for Inactive)
    1  A    between atoms: C_1  and  C_27
    2  A    between atoms: S_2  and  N_5
    3  A    between atoms: N_5  and  C_10
    4  A    between atoms: N_5  and  C_27
    5  A    between atoms: C_6  and  C_13
    6  A    between atoms: C_6  and  C_25
    7  A    between atoms: C_7  and  C_19
    8  A    between atoms: C_16  and  C_27
                            x       y       z     vdW  Elec       q    Type
                         _______ _______ _______ _____ _____    ______ ____

>  <TORSDO>
F 8

$$$$
=
 OpenBabel10262421063D

 32 35  0  0  1  0  0  0  0  0999 V2000
  181.2760  177.4780  138.4330 N   0  0  0  0  0  0  0  0  0  0  0  0
  181.0680  181.0670  134.5950 S   0  0  0  0  0  0  0  0  0  0  0  0
  180.4460  178.4900  137.7630 C   0  0  1  0  0  3  0  0  0  0  0  0
  179.7590  182.4120  136.3600 C   0  0  0  0  0  2  0  0  0  0  0  0
  180.2660  181.1700  137.0340 C   0  0  1  0  0  3  0  0  0  0  0  0
  180.1220  179.6770  138.7170 C   0  0  1  0  0  3  0  0  0  0  0  0
  179.4180  180.7080  138.0500 O   0  0  0  0  0  0  0  0  0  0  0  0
  180.2750  180.1750  135.9350 C   0  0  2  0  0  3  0  0  0  0  0  0
  180.4620  182.6050  135.1520 O   0  0  0  0  0  0  0  0  0  0  0  0
  181.0530  178.9710  136.4250 C   0  0  0  0  0  2  0  0  0  0  0  0
  179.2710  179.1990  139.8860 C   0  0  0  0  0  2  0  0  0  0  0  0
  179.7990  179.7240  141.2100 C   0  0  0  0  0  2  0  0  0  0  0  0
  179.1990  181.0830  141.5120 C   0  0  0  0  0  1  0  0  0  0  0  0
  180.6840  175.8750  138.0690 S   0  0  0  0  0  0  0  0  0  0  0  0
  178.9310  175.8150  138.3620 C   0  0  0  0  0  1  0  0  0  0  0  0
  181.3500  174.8660  138.9620 O   0  0  0  0  0  0  0  0  0  0  0  0
  180.9480  175.5260  136.6300 O   0  0  0  0  0  0  0  0  0  0  0  0
  182.7260  177.7050  138.2330 C   0  0  1  0  0  3  0  0  0  0  0  0
  185.3650  178.9660  140.6650 C   0  0  0  0  0  3  0  0  0  0  0  0
  183.3800  178.3770  141.9160 C   0  0  0  0  0  3  0  0  0  0  0  0
  183.4140  178.1080  139.5030 C   0  0  0  0  0  0  0  0  0  0  0  0
  184.7000  178.8450  141.8920 C   0  0  0  0  0  0  0  0  0  0  0  0
  182.7440  178.0040  140.7300 C   0  0  0  0  0  3  0  0  0  0  0  0
  184.7340  178.5920  139.4750 C   0  0  0  0  0  0  0  0  0  0  0  0
  185.6170  178.7660  137.9650 Cl  0  0  0  0  0  0  0  0  0  0  0  0
  185.3630  179.2950  143.1580 C   0  0  0  0  0  3  0  0  0  0  0  0
  185.3890  178.1650  144.1760 C   0  0  0  0  0  2  0  0  0  0  0  0
  184.3730  179.2750  144.3110 C   0  0  0  0  0  2  0  0  0  0  0  0
  183.4840  176.6690  137.4420 C   0  0  0  0  0  0  0  0  0  0  0  0
  183.6400  176.8370  136.0350 N   0  0  0  0  0  2  0  0  0  0  0  0
  183.9850  175.6640  138.0140 O   0  0  0  0  0  0  0  0  0  0  0  0
  184.3120  175.9240  135.2970 O   0  0  0  0  0  1  0  0  0  0  0  0
  2  9  1  0  0  0  0
  2  8  1  0  0  0  0
  3  1  1  1  0  0  0
  3  6  1  0  0  0  0
  5  4  1  6  0  0  0
  5  7  1  0  0  0  0
  6 11  1  1  0  0  0
  7  6  1  0  0  0  0
  8 10  1  1  0  0  0
  8  5  1  0  0  0  0
  9  4  1  0  0  0  0
 10  3  1  0  0  0  0
 11 12  1  0  0  0  0
 12 13  1  0  0  0  0
 14 15  1  0  0  0  0
 14  1  1  0  0  0  0
 14 16  2  0  0  0  0
 17 14  2  0  0  0  0
 18 29  1  1  0  0  0
 18  1  1  0  0  0  0
 18 21  1  0  0  0  0
 19 22  1  0  0  0  0
 21 23  2  0  0  0  0
 22 20  2  0  0  0  0
 22 26  1  0  0  0  0
 23 20  1  0  0  0  0
 24 21  1  0  0  0  0
 24 19  2  0  0  0  0
 25 24  1  0  0  0  0
 26 27  1  0  0  0  0
 26 28  1  0  0  0  0
 27 28  1  0  0  0  0
 29 31  2  0  0  0  0
 30 29  1  0  0  0  0
 32 30  1  0  0  0  0
M  END
>  <MODEL>
4

>  <REMARK>
 VINA RESULT:      -5.0      2.687      6.776
  Name = 
  8 active torsions:
  status: ('A' for Active; 'I' for Inactive)
    1  A    between atoms: C_1  and  C_27
    2  A    between atoms: S_2  and  N_5
    3  A    between atoms: N_5  and  C_10
    4  A    between atoms: N_5  and  C_27
    5  A    between atoms: C_6  and  C_13
    6  A    between atoms: C_6  and  C_25
    7  A    between atoms: C_7  and  C_19
    8  A    between atoms: C_16  and  C_27
                            x       y       z     vdW  Elec       q    Type
                         _______ _______ _______ _____ _____    ______ ____

>  <TORSDO>
F 8

$$$$
=
 OpenBabel10262421063D

 32 35  0  0  1  0  0  0  0  0999 V2000
  187.4710  177.3250  137.4200 N   0  0  0  0  0  0  0  0  0  0  0  0
  191.2320  177.0950  141.0880 S   0  0  0  0  0  0  0  0  0  0  0  0
  188.0250  177.9530  138.6280 C   0  0  1  0  0  3  0  0  0  0  0  0
  189.3090  177.8050  142.6480 C   0  0  0  0  0  2  0  0  0  0  0  0
  188.7110  177.5460  141.2950 C   0  0  1  0  0  3  0  0  0  0  0  0
  187.0320  177.8530  139.8230 C   0  0  1  0  0  3  0  0  0  0  0  0
  187.5990  178.3530  141.0200 O   0  0  0  0  0  0  0  0  0  0  0  0
  189.8080  177.9180  140.3700 C   0  0  2  0  0  3  0  0  0  0  0  0
  190.5950  177.2280  142.7070 O   0  0  0  0  0  0  0  0  0  0  0  0
  189.4270  177.4100  138.9950 C   0  0  0  0  0  2  0  0  0  0  0  0
  185.7680  178.6500  139.5270 C   0  0  0  0  0  2  0  0  0  0  0  0
  185.0860  179.1070  140.8050 C   0  0  0  0  0  2  0  0  0  0  0  0
  183.9180  178.1980  141.1310 C   0  0  0  0  0  1  0  0  0  0  0  0
  187.5610  178.4330  136.0710 S   0  0  0  0  0  0  0  0  0  0  0  0
  186.4890  177.8630  134.7710 C   0  0  0  0  0  1  0  0  0  0  0  0
  188.9660  178.4830  135.5400 O   0  0  0  0  0  0  0  0  0  0  0  0
  187.1290  179.8120  136.4870 O   0  0  0  0  0  0  0  0  0  0  0  0
  188.0020  175.9620  137.1880 C   0  0  1  0  0  3  0  0  0  0  0  0
  186.2190  172.6020  137.2050 C   0  0  0  0  0  3  0  0  0  0  0  0
  184.5560  174.3590  137.1800 C   0  0  0  0  0  3  0  0  0  0  0  0
  186.9170  174.9270  137.1890 C   0  0  0  0  0  0  0  0  0  0  0  0
  184.8750  172.9950  137.1760 C   0  0  0  0  0  0  0  0  0  0  0  0
  185.5710  175.3180  137.1800 C   0  0  0  0  0  3  0  0  0  0  0  0
  187.2390  173.5580  137.2010 C   0  0  0  0  0  0  0  0  0  0  0  0
  188.9080  173.0070  137.2380 Cl  0  0  0  0  0  0  0  0  0  0  0  0
  183.7860  171.9670  137.2310 C   0  0  0  0  0  3  0  0  0  0  0  0
  183.8480  171.0600  136.0110 C   0  0  0  0  0  2  0  0  0  0  0  0
  182.8150  172.1600  136.0780 C   0  0  0  0  0  2  0  0  0  0  0  0
  188.9950  175.7900  136.0660 C   0  0  0  0  0  0  0  0  0  0  0  0
  190.3840  175.9720  136.3270 N   0  0  0  0  0  2  0  0  0  0  0  0
  188.6070  175.4800  134.9080 O   0  0  0  0  0  0  0  0  0  0  0  0
  191.3000  175.8280  135.3410 O   0  0  0  0  0  1  0  0  0  0  0  0
  2  9  1  0  0  0  0
  3  1  1  6  0  0  0
  3 10  1  0  0  0  0
  3  6  1  0  0  0  0
  4  9  1  0  0  0  0
  5  4  1  1  0  0  0
  6 11  1  6  0  0  0
  6  7  1  0  0  0  0
  7  5  1  0  0  0  0
  8 10  1  6  0  0  0
  8  2  1  0  0  0  0
  8  5  1  0  0  0  0
 11 12  1  0  0  0  0
 12 13  1  0  0  0  0
 14 17  2  0  0  0  0
 14  1  1  0  0  0  0
 15 14  1  0  0  0  0
 16 14  2  0  0  0  0
 18 29  1  6  0  0  0
 18 21  1  0  0  0  0
 18  1  1  0  0  0  0
 20 23  2  0  0  0  0
 21 24  2  0  0  0  0
 22 20  1  0  0  0  0
 22 19  2  0  0  0  0
 22 26  1  0  0  0  0
 23 21  1  0  0  0  0
 24 19  1  0  0  0  0
 24 25  1  0  0  0  0
 27 28  1  0  0  0  0
 27 26  1  0  0  0  0
 28 26  1  0  0  0  0
 29 30  1  0  0  0  0
 31 29  2  0  0  0  0
 32 30  1  0  0  0  0
M  END
>  <MODEL>
5

>  <REMARK>
 VINA RESULT:      -4.7      5.837      8.190
  Name = 
  8 active torsions:
  status: ('A' for Active; 'I' for Inactive)
    1  A    between atoms: C_1  and  C_27
    2  A    between atoms: S_2  and  N_5
    3  A    between atoms: N_5  and  C_10
    4  A    between atoms: N_5  and  C_27
    5  A    between atoms: C_6  and  C_13
    6  A    between atoms: C_6  and  C_25
    7  A    between atoms: C_7  and  C_19
    8  A    between atoms: C_16  and  C_27
                            x       y       z     vdW  Elec       q    Type
                         _______ _______ _______ _____ _____    ______ ____

>  <TORSDO>
F 8

$$$$
=
 OpenBabel10262421063D

 32 35  0  0  1  0  0  0  0  0999 V2000
  181.5340  178.6090  137.5620 N   0  0  0  0  0  0  0  0  0  0  0  0
  179.4900  173.8160  138.2740 S   0  0  0  0  0  0  0  0  0  0  0  0
  181.3560  177.2690  136.9840 C   0  0  1  0  0  3  0  0  0  0  0  0
  181.6880  173.0630  137.1600 C   0  0  0  0  0  2  0  0  0  0  0  0
  181.7840  174.5460  137.3740 C   0  0  1  0  0  3  0  0  0  0  0  0
  182.7190  176.5280  136.8480 C   0  0  1  0  0  3  0  0  0  0  0  0
  182.5500  175.1970  136.3980 O   0  0  0  0  0  0  0  0  0  0  0  0
  180.3760  174.9930  137.2490 C   0  0  2  0  0  3  0  0  0  0  0  0
  180.6410  172.5450  137.9520 O   0  0  0  0  0  0  0  0  0  0  0  0
  180.3110  176.4210  137.7470 C   0  0  0  0  0  2  0  0  0  0  0  0
  183.6180  177.2550  135.8560 C   0  0  0  0  0  2  0  0  0  0  0  0
  185.0450  176.7360  135.9150 C   0  0  0  0  0  2  0  0  0  0  0  0
  185.4620  176.5100  137.3550 C   0  0  0  0  0  1  0  0  0  0  0  0
  180.7330  179.8040  136.5690 S   0  0  0  0  0  0  0  0  0  0  0  0
  181.0880  179.4780  134.8570 C   0  0  0  0  0  1  0  0  0  0  0  0
  181.2410  181.1770  136.9070 O   0  0  0  0  0  0  0  0  0  0  0  0
  179.2440  179.7530  136.7750 O   0  0  0  0  0  0  0  0  0  0  0  0
  181.2330  178.6510  139.0120 C   0  0  1  0  0  3  0  0  0  0  0  0
  183.5970  178.6770  141.9920 C   0  0  0  0  0  3  0  0  0  0  0  0
  184.8520  179.2500  140.0050 C   0  0  0  0  0  3  0  0  0  0  0  0
  182.4750  178.7810  139.8410 C   0  0  0  0  0  0  0  0  0  0  0  0
  184.8080  179.0420  141.3890 C   0  0  0  0  0  0  0  0  0  0  0  0
  183.6920  179.1270  139.2370 C   0  0  0  0  0  3  0  0  0  0  0  0
  182.4320  178.5550  141.2290 C   0  0  0  0  0  0  0  0  0  0  0  0
  180.9410  178.0950  142.0390 Cl  0  0  0  0  0  0  0  0  0  0  0  0
  186.0630  179.1210  142.2040 C   0  0  0  0  0  3  0  0  0  0  0  0
  186.8630  177.8340  142.0730 C   0  0  0  0  0  2  0  0  0  0  0  0
  186.0410  178.0850  143.3150 C   0  0  0  0  0  2  0  0  0  0  0  0
  180.1150  179.5590  139.4590 C   0  0  0  0  0  0  0  0  0  0  0  0
  180.4040  180.9160  139.7840 N   0  0  0  0  0  2  0  0  0  0  0  0
  178.9320  179.1320  139.5370 O   0  0  0  0  0  0  0  0  0  0  0  0
  179.4240  181.7570  140.1900 O   0  0  0  0  0  1  0  0  0  0  0  0
  1 18  1  0  0  0  0
  3  1  1  1  0  0  0
  3 10  1  0  0  0  0
  4  9  1  0  0  0  0
  5  4  1  6  0  0  0
  6 11  1  6  0  0  0
  6  3  1  0  0  0  0
  7  6  1  0  0  0  0
  7  5  1  0  0  0  0
  8  5  1  0  0  0  0
  8 10  1  1  0  0  0
  8  2  1  0  0  0  0
  9  2  1  0  0  0  0
 11 12  1  0  0  0  0
 12 13  1  0  0  0  0
 14 17  2  0  0  0  0
 14 16  2  0  0  0  0
 14  1  1  0  0  0  0
 15 14  1  0  0  0  0
 18 29  1  6  0  0  0
 18 21  1  0  0  0  0
 20 22  2  0  0  0  0
 21 24  1  0  0  0  0
 22 19  1  0  0  0  0
 22 26  1  0  0  0  0
 23 21  2  0  0  0  0
 23 20  1  0  0  0  0
 24 19  2  0  0  0  0
 24 25  1  0  0  0  0
 26 28  1  0  0  0  0
 27 26  1  0  0  0  0
 27 28  1  0  0  0  0
 29 31  2  0  0  0  0
 29 30  1  0  0  0  0
 30 32  1  0  0  0  0
M  END
>  <MODEL>
6

>  <REMARK>
 VINA RESULT:      -4.7      3.085      5.942
  Name = 
  8 active torsions:
  status: ('A' for Active; 'I' for Inactive)
    1  A    between atoms: C_1  and  C_27
    2  A    between atoms: S_2  and  N_5
    3  A    between atoms: N_5  and  C_10
    4  A    between atoms: N_5  and  C_27
    5  A    between atoms: C_6  and  C_13
    6  A    between atoms: C_6  and  C_25
    7  A    between atoms: C_7  and  C_19
    8  A    between atoms: C_16  and  C_27
                            x       y       z     vdW  Elec       q    Type
                         _______ _______ _______ _____ _____    ______ ____

>  <TORSDO>
F 8

$$$$
=
 OpenBabel10262421063D

 32 35  0  0  1  0  0  0  0  0999 V2000
  184.0130  177.2810  138.6750 N   0  0  0  0  0  0  0  0  0  0  0  0
  179.0460  175.5990  138.2820 S   0  0  0  0  0  0  0  0  0  0  0  0
  183.0870  176.3930  137.9570 C   0  0  1  0  0  3  0  0  0  0  0  0
  180.1860  173.3270  137.8620 C   0  0  0  0  0  2  0  0  0  0  0  0
  181.2650  174.3050  138.2240 C   0  0  1  0  0  3  0  0  0  0  0  0
  183.4400  174.8950  138.1970 C   0  0  1  0  0  3  0  0  0  0  0  0
  182.4900  174.0310  137.6020 O   0  0  0  0  0  0  0  0  0  0  0  0
  180.7420  175.5890  137.6980 C   0  0  2  0  0  3  0  0  0  0  0  0
  178.9320  173.8580  138.2330 O   0  0  0  0  0  0  0  0  0  0  0  0
  181.6030  176.6940  138.2720 C   0  0  0  0  0  2  0  0  0  0  0  0
  184.8090  174.5750  137.6090 C   0  0  0  0  0  2  0  0  0  0  0  0
  185.0320  173.0760  137.5030 C   0  0  0  0  0  2  0  0  0  0  0  0
  185.5240  172.7160  136.1150 C   0  0  0  0  0  1  0  0  0  0  0  0
  185.2360  177.8860  137.5840 S   0  0  0  0  0  0  0  0  0  0  0  0
  186.6890  176.8690  137.7070 C   0  0  0  0  0  1  0  0  0  0  0  0
  185.6080  179.2940  137.9580 O   0  0  0  0  0  0  0  0  0  0  0  0
  184.7410  177.8560  136.1640 O   0  0  0  0  0  0  0  0  0  0  0  0
  183.3110  178.2900  139.5020 C   0  0  1  0  0  3  0  0  0  0  0  0
  183.7350  178.7590  143.2530 C   0  0  0  0  0  3  0  0  0  0  0  0
  185.9270  178.5710  142.2450 C   0  0  0  0  0  3  0  0  0  0  0  0
  183.9400  178.4470  140.8540 C   0  0  0  0  0  0  0  0  0  0  0  0
  185.1300  178.7560  143.3820 C   0  0  0  0  0  0  0  0  0  0  0  0
  185.3350  178.4250  140.9880 C   0  0  0  0  0  3  0  0  0  0  0  0
  183.1380  178.6160  141.9970 C   0  0  0  0  0  0  0  0  0  0  0  0
  181.3830  178.6270  141.8950 Cl  0  0  0  0  0  0  0  0  0  0  0  0
  185.7630  178.8580  144.7370 C   0  0  0  0  0  3  0  0  0  0  0  0
  186.0980  177.4750  145.2730 C   0  0  0  0  0  2  0  0  0  0  0  0
  184.8800  178.2050  145.7860 C   0  0  0  0  0  2  0  0  0  0  0  0
  182.9680  179.6030  138.8430 C   0  0  0  0  0  0  0  0  0  0  0  0
  181.8490  179.6730  137.9640 N   0  0  0  0  0  2  0  0  0  0  0  0
  183.6550  180.6350  139.0710 O   0  0  0  0  0  0  0  0  0  0  0  0
  181.5160  180.8350  137.3550 O   0  0  0  0  0  1  0  0  0  0  0  0
  1 18  1  0  0  0  0
  3  6  1  0  0  0  0
  3 10  1  0  0  0  0
  3  1  1  1  0  0  0
  4  9  1  0  0  0  0
  5  4  1  6  0  0  0
  6 11  1  6  0  0  0
  7  6  1  0  0  0  0
  7  5  1  0  0  0  0
  8  5  1  0  0  0  0
  8 10  1  1  0  0  0
  8  2  1  0  0  0  0
  9  2  1  0  0  0  0
 12 11  1  0  0  0  0
 13 12  1  0  0  0  0
 14 15  1  0  0  0  0
 14 16  2  0  0  0  0
 14  1  1  0  0  0  0
 17 14  2  0  0  0  0
 18 29  1  6  0  0  0
 18 21  1  0  0  0  0
 19 22  1  0  0  0  0
 20 22  2  0  0  0  0
 21 23  2  0  0  0  0
 21 24  1  0  0  0  0
 22 26  1  0  0  0  0
 23 20  1  0  0  0  0
 24 19  2  0  0  0  0
 25 24  1  0  0  0  0
 26 27  1  0  0  0  0
 26 28  1  0  0  0  0
 27 28  1  0  0  0  0
 29 31  2  0  0  0  0
 30 29  1  0  0  0  0
 32 30  1  0  0  0  0
M  END
>  <MODEL>
7

>  <REMARK>
 VINA RESULT:      -4.4      3.256      6.666
  Name = 
  8 active torsions:
  status: ('A' for Active; 'I' for Inactive)
    1  A    between atoms: C_1  and  C_27
    2  A    between atoms: S_2  and  N_5
    3  A    between atoms: N_5  and  C_10
    4  A    between atoms: N_5  and  C_27
    5  A    between atoms: C_6  and  C_13
    6  A    between atoms: C_6  and  C_25
    7  A    between atoms: C_7  and  C_19
    8  A    between atoms: C_16  and  C_27
                            x       y       z     vdW  Elec       q    Type
                         _______ _______ _______ _____ _____    ______ ____

>  <TORSDO>
F 8

$$$$
=
 OpenBabel10262421063D

 32 35  0  0  1  0  0  0  0  0999 V2000
  182.6650  177.6840  137.9600 N   0  0  0  0  0  0  0  0  0  0  0  0
  187.5090  177.4560  135.9240 S   0  0  0  0  0  0  0  0  0  0  0  0
  184.0000  178.3000  137.9350 C   0  0  1  0  0  3  0  0  0  0  0  0
  188.2000  178.1090  138.3190 C   0  0  0  0  0  2  0  0  0  0  0  0
  186.7190  177.8620  138.3360 C   0  0  1  0  0  3  0  0  0  0  0  0
  184.7110  178.1650  139.3130 C   0  0  1  0  0  3  0  0  0  0  0  0
  186.0380  178.6550  139.2690 O   0  0  0  0  0  0  0  0  0  0  0  0
  186.2990  178.2660  136.9730 C   0  0  2  0  0  3  0  0  0  0  0  0
  188.7510  177.5520  137.1460 O   0  0  0  0  0  0  0  0  0  0  0  0
  184.8790  177.7750  136.7760 C   0  0  0  0  0  2  0  0  0  0  0  0
  183.9510  178.9450  140.3780 C   0  0  0  0  0  2  0  0  0  0  0  0
  184.0650  178.2840  141.7410 C   0  0  0  0  0  2  0  0  0  0  0  0
  184.9340  179.1200  142.6590 C   0  0  0  0  0  1  0  0  0  0  0  0
  182.7930  175.9880  138.3620 S   0  0  0  0  0  0  0  0  0  0  0  0
  181.5310  175.0820  137.4960 C   0  0  0  0  0  1  0  0  0  0  0  0
  182.5890  175.7920  139.8380 O   0  0  0  0  0  0  0  0  0  0  0  0
  184.1380  175.4480  137.9630 O   0  0  0  0  0  0  0  0  0  0  0  0
  181.6860  178.4730  138.7430 C   0  0  1  0  0  3  0  0  0  0  0  0
  180.5930  180.8910  136.0180 C   0  0  0  0  0  3  0  0  0  0  0  0
  180.8470  182.1210  138.0850 C   0  0  0  0  0  3  0  0  0  0  0  0
  181.2840  179.7330  138.0360 C   0  0  0  0  0  0  0  0  0  0  0  0
  180.5470  182.1040  136.7170 C   0  0  0  0  0  0  0  0  0  0  0  0
  181.2200  180.9440  138.7380 C   0  0  0  0  0  3  0  0  0  0  0  0
  180.9680  179.7110  136.6660 C   0  0  0  0  0  0  0  0  0  0  0  0
  181.0070  178.2180  135.7390 Cl  0  0  0  0  0  0  0  0  0  0  0  0
  180.0950  183.3560  136.0290 C   0  0  0  0  0  3  0  0  0  0  0  0
  181.1810  184.4190  136.0930 C   0  0  0  0  0  2  0  0  0  0  0  0
  179.9930  184.5010  137.0230 C   0  0  0  0  0  2  0  0  0  0  0  0
  180.5230  177.7260  139.3460 C   0  0  0  0  0  0  0  0  0  0  0  0
  180.4460  177.5760  140.7620 N   0  0  0  0  0  2  0  0  0  0  0  0
  179.6190  177.2450  138.6130 O   0  0  0  0  0  0  0  0  0  0  0  0
  179.4170  176.9090  141.3340 O   0  0  0  0  0  1  0  0  0  0  0  0
  1 14  1  0  0  0  0
  1 18  1  0  0  0  0
  2  8  1  0  0  0  0
  2  9  1  0  0  0  0
  3  1  1  1  0  0  0
  3  6  1  0  0  0  0
  5  4  1  6  0  0  0
  5  7  1  0  0  0  0
  6 11  1  1  0  0  0
  7  6  1  0  0  0  0
  8 10  1  6  0  0  0
  8  5  1  0  0  0  0
  9  4  1  0  0  0  0
 10  3  1  0  0  0  0
 11 12  1  0  0  0  0
 12 13  1  0  0  0  0
 14 16  2  0  0  0  0
 15 14  1  0  0  0  0
 17 14  2  0  0  0  0
 18 29  1  6  0  0  0
 19 24  2  0  0  0  0
 19 22  1  0  0  0  0
 20 23  1  0  0  0  0
 21 23  2  0  0  0  0
 21 18  1  0  0  0  0
 22 20  2  0  0  0  0
 24 21  1  0  0  0  0
 25 24  1  0  0  0  0
 26 27  1  0  0  0  0
 26 22  1  0  0  0  0
 26 28  1  0  0  0  0
 27 28  1  0  0  0  0
 29 30  1  0  0  0  0
 30 32  1  0  0  0  0
 31 29  2  0  0  0  0
M  END
>  <MODEL>
8

>  <REMARK>
 VINA RESULT:      -4.3      1.913      3.360
  Name = 
  8 active torsions:
  status: ('A' for Active; 'I' for Inactive)
    1  A    between atoms: C_1  and  C_27
    2  A    between atoms: S_2  and  N_5
    3  A    between atoms: N_5  and  C_10
    4  A    between atoms: N_5  and  C_27
    5  A    between atoms: C_6  and  C_13
    6  A    between atoms: C_6  and  C_25
    7  A    between atoms: C_7  and  C_19
    8  A    between atoms: C_16  and  C_27
                            x       y       z     vdW  Elec       q    Type
                         _______ _______ _______ _____ _____    ______ ____

>  <TORSDO>
F 8

$$$$
=
 OpenBabel10262421063D

 32 35  0  0  1  0  0  0  0  0999 V2000
  182.8320  178.5190  139.6940 N   0  0  0  0  0  0  0  0  0  0  0  0
  187.4700  178.2520  142.1590 S   0  0  0  0  0  0  0  0  0  0  0  0
  183.6050  178.9400  140.8710 C   0  0  1  0  0  3  0  0  0  0  0  0
  185.9830  178.1080  144.2590 C   0  0  0  0  0  2  0  0  0  0  0  0
  185.0730  178.0600  143.0660 C   0  0  1  0  0  3  0  0  0  0  0  0
  183.0190  178.3310  142.1790 C   0  0  1  0  0  3  0  0  0  0  0  0
  183.8190  178.6390  143.3050 O   0  0  0  0  0  0  0  0  0  0  0  0
  185.7920  178.8830  142.0650 C   0  0  2  0  0  3  0  0  0  0  0  0
  187.3050  177.8380  143.8470 O   0  0  0  0  0  0  0  0  0  0  0  0
  185.1180  178.6550  140.7280 C   0  0  0  0  0  2  0  0  0  0  0  0
  181.6170  178.8710  142.4300 C   0  0  0  0  0  2  0  0  0  0  0  0
  181.2410  178.7800  143.8990 C   0  0  0  0  0  2  0  0  0  0  0  0
  179.7390  178.6330  144.0480 C   0  0  0  0  0  1  0  0  0  0  0  0
  182.3090  179.9170  138.7850 S   0  0  0  0  0  0  0  0  0  0  0  0
  180.8850  180.6320  139.5740 C   0  0  0  0  0  1  0  0  0  0  0  0
  181.9240  179.5090  137.3900 O   0  0  0  0  0  0  0  0  0  0  0  0
  183.4000  180.9500  138.7240 O   0  0  0  0  0  0  0  0  0  0  0  0
  183.5040  177.4470  138.9230 C   0  0  1  0  0  3  0  0  0  0  0  0
  182.1760  174.1080  137.6770 C   0  0  0  0  0  3  0  0  0  0  0  0
  180.3330  175.3780  138.5940 C   0  0  0  0  0  3  0  0  0  0  0  0
  182.5710  176.3210  138.5930 C   0  0  0  0  0  0  0  0  0  0  0  0
  180.8100  174.2210  137.9660 C   0  0  0  0  0  0  0  0  0  0  0  0
  181.2070  176.4240  138.8990 C   0  0  0  0  0  3  0  0  0  0  0  0
  183.0550  175.1520  137.9770 C   0  0  0  0  0  0  0  0  0  0  0  0
  184.7590  174.9550  137.5920 Cl  0  0  0  0  0  0  0  0  0  0  0  0
  179.8820  173.0770  137.6890 C   0  0  0  0  0  3  0  0  0  0  0  0
  180.1150  172.5310  136.2890 C   0  0  0  0  0  2  0  0  0  0  0  0
  178.9310  173.4290  136.5570 C   0  0  0  0  0  2  0  0  0  0  0  0
  184.3680  177.8710  137.7610 C   0  0  0  0  0  0  0  0  0  0  0  0
  185.6850  178.3550  138.0080 N   0  0  0  0  0  2  0  0  0  0  0  0
  183.9380  177.7920  136.5790 O   0  0  0  0  0  0  0  0  0  0  0  0
  186.4850  178.7460  136.9880 O   0  0  0  0  0  1  0  0  0  0  0  0
  2  9  1  0  0  0  0
  3  1  1  6  0  0  0
  3  6  1  0  0  0  0
  5  7  1  0  0  0  0
  5  4  1  1  0  0  0
  6 11  1  1  0  0  0
  6  7  1  0  0  0  0
  8 10  1  6  0  0  0
  8  2  1  0  0  0  0
  8  5  1  0  0  0  0
  9  4  1  0  0  0  0
 10  3  1  0  0  0  0
 11 12  1  0  0  0  0
 12 13  1  0  0  0  0
 14 15  1  0  0  0  0
 14  1  1  0  0  0  0
 16 14  2  0  0  0  0
 17 14  2  0  0  0  0
 18 29  1  6  0  0  0
 18  1  1  0  0  0  0
 19 22  2  0  0  0  0
 19 24  1  0  0  0  0
 20 23  2  0  0  0  0
 21 23  1  0  0  0  0
 21 18  1  0  0  0  0
 22 20  1  0  0  0  0
 24 21  2  0  0  0  0
 25 24  1  0  0  0  0
 26 22  1  0  0  0  0
 27 28  1  0  0  0  0
 27 26  1  0  0  0  0
 28 26  1  0  0  0  0
 29 30  1  0  0  0  0
 31 29  2  0  0  0  0
 32 30  1  0  0  0  0
M  END
>  <MODEL>
9

>  <REMARK>
 VINA RESULT:      -4.3      3.351      6.130
  Name = 
  8 active torsions:
  status: ('A' for Active; 'I' for Inactive)
    1  A    between atoms: C_1  and  C_27
    2  A    between atoms: S_2  and  N_5
    3  A    between atoms: N_5  and  C_10
    4  A    between atoms: N_5  and  C_27
    5  A    between atoms: C_6  and  C_13
    6  A    between atoms: C_6  and  C_25
    7  A    between atoms: C_7  and  C_19
    8  A    between atoms: C_16  and  C_27
                            x       y       z     vdW  Elec       q    Type
                         _______ _______ _______ _____ _____    ______ ____

>  <TORSDO>
F 8

$$$$
