=
 OpenBabel10262420053D

 27 31  0  0  0  0  0  0  0  0999 V2000
  189.3120  179.0810  141.9580 C   0  0  0  0  0  2  0  0  0  0  0  0
  187.3030  178.4220  140.6940 C   0  0  0  0  0  0  0  0  0  0  0  0
  186.7810  178.0250  143.1360 N   0  0  0  0  0  2  0  0  0  0  0  0
  182.9730  178.9660  140.1020 S   0  0  0  0  0  0  0  0  0  0  0  0
  181.4030  178.7910  142.4330 C   0  0  0  0  0  1  0  0  0  0  0  0
  186.8220  178.6490  139.4320 N   0  0  0  0  0  0  0  0  0  0  0  0
  183.9530  178.5380  142.3930 C   0  0  0  0  0  0  0  0  0  0  0  0
  189.2980  176.8710  145.6210 C   0  0  0  0  0  3  0  0  0  0  0  0
  184.0730  178.3290  143.7620 O   0  0  0  0  0  1  0  0  0  0  0  0
  190.4940  177.3370  145.0750 C   0  0  0  0  0  0  0  0  0  0  0  0
  185.0390  178.5560  141.5020 C   0  0  0  0  0  0  0  0  0  0  0  0
  188.7170  178.3060  140.8830 N   0  0  0  0  0  0  0  0  0  0  0  0
  182.7290  178.7540  141.7620 C   0  0  0  0  0  0  0  0  0  0  0  0
  184.6390  178.7830  140.2020 C   0  0  0  0  0  0  0  0  0  0  0  0
  189.2740  178.2890  143.2080 C   0  0  0  0  0  0  0  0  0  0  0  0
  186.3980  178.3660  141.7890 C   0  0  0  0  0  0  0  0  0  0  0  0
  188.0910  177.1080  144.9600 C   0  0  0  0  0  3  0  0  0  0  0  0
  185.5230  178.8230  139.1830 N   0  0  0  0  0  0  0  0  0  0  0  0
  191.7240  177.0960  145.7460 N   0  0  0  0  0  1  0  0  0  0  0  0
  190.4800  178.0500  143.8760 C   0  0  0  0  0  3  0  0  0  0  0  0
  188.0640  177.8050  143.7440 C   0  0  0  0  0  0  0  0  0  0  0  0
  191.1480  175.9330  138.3190 C   0  0  0  0  0  3  0  0  0  0  0  0
  189.5440  177.4910  140.0230 C   0  0  0  0  0  0  0  0  0  0  0  0
  190.9390  177.4550  140.1880 C   0  0  0  0  0  3  0  0  0  0  0  0
  191.7360  176.6790  139.3430 C   0  0  0  0  0  3  0  0  0  0  0  0
  189.7630  175.9640  138.1390 C   0  0  0  0  0  3  0  0  0  0  0  0
  188.9660  176.7400  138.9840 C   0  0  0  0  0  3  0  0  0  0  0  0
  1 15  1  0  0  0  0
  2 12  1  0  0  0  0
  2 16  1  0  0  0  0
  3 21  1  0  0  0  0
  4 14  1  0  0  0  0
  4 13  1  0  0  0  0
  6  2  2  0  0  0  0
  7  9  1  0  0  0  0
 10  8  1  0  0  0  0
 10 19  1  0  0  0  0
 11 16  2  0  0  0  0
 11  7  1  0  0  0  0
 12  1  1  0  0  0  0
 13  7  2  0  0  0  0
 13  5  1  0  0  0  0
 14 11  1  0  0  0  0
 15 21  2  0  0  0  0
 15 20  1  0  0  0  0
 16  3  1  0  0  0  0
 17  8  2  0  0  0  0
 18  6  1  0  0  0  0
 18 14  2  0  0  0  0
 20 10  2  0  0  0  0
 21 17  1  0  0  0  0
 22 25  1  0  0  0  0
 23 24  1  0  0  0  0
 23 12  1  0  0  0  0
 25 24  2  0  0  0  0
 26 22  2  0  0  0  0
 26 27  1  0  0  0  0
 27 23  2  0  0  0  0
M  END
>  <MODEL>
1

>  <REMARK>
 VINA RESULT:      -8.5      0.000      0.000
  Name = 
  1 active torsions:
  status: ('A' for Active; 'I' for Inactive)
    1  A    between atoms: C_9  and  N_15
                            x       y       z     vdW  Elec       q    Type
                         _______ _______ _______ _____ _____    ______ ____

>  <TORSDO>
F 1

$$$$
=
 OpenBabel10262420053D

 27 31  0  0  0  0  0  0  0  0999 V2000
  187.2020  176.4200  143.7380 C   0  0  0  0  0  2  0  0  0  0  0  0
  185.3160  177.9970  143.5650 C   0  0  0  0  0  0  0  0  0  0  0  0
  186.6860  178.2750  141.4570 N   0  0  0  0  0  2  0  0  0  0  0  0
  181.8540  179.3630  141.2120 S   0  0  0  0  0  0  0  0  0  0  0  0
  182.3710  179.8860  138.4930 C   0  0  0  0  0  1  0  0  0  0  0  0
  184.1030  178.1430  144.1820 N   0  0  0  0  0  0  0  0  0  0  0  0
  184.1350  179.0690  140.1620 C   0  0  0  0  0  0  0  0  0  0  0  0
  190.3930  177.9790  141.3530 C   0  0  0  0  0  3  0  0  0  0  0  0
  185.1710  179.0420  139.2350 O   0  0  0  0  0  1  0  0  0  0  0  0
  190.6570  177.1310  142.4290 C   0  0  0  0  0  0  0  0  0  0  0  0
  184.2790  178.7120  141.5130 C   0  0  0  0  0  0  0  0  0  0  0  0
  186.4210  177.4960  144.3250 N   0  0  0  0  0  0  0  0  0  0  0  0
  182.8360  179.4550  139.8380 C   0  0  0  0  0  0  0  0  0  0  0  0
  183.0940  178.8290  142.2090 C   0  0  0  0  0  0  0  0  0  0  0  0
  188.2840  177.0000  142.9100 C   0  0  0  0  0  0  0  0  0  0  0  0
  185.4390  178.2880  142.1790 C   0  0  0  0  0  0  0  0  0  0  0  0
  189.0770  178.3430  141.0590 C   0  0  0  0  0  3  0  0  0  0  0  0
  183.0140  178.5520  143.5280 N   0  0  0  0  0  0  0  0  0  0  0  0
  191.9950  176.7600  142.7320 N   0  0  0  0  0  1  0  0  0  0  0  0
  189.6040  176.6380  143.2000 C   0  0  0  0  0  3  0  0  0  0  0  0
  188.0110  177.8720  141.8370 C   0  0  0  0  0  0  0  0  0  0  0  0
  187.3190  178.9430  148.2260 C   0  0  0  0  0  3  0  0  0  0  0  0
  186.7360  177.9950  145.6440 C   0  0  0  0  0  0  0  0  0  0  0  0
  187.8470  177.5070  146.3520 C   0  0  0  0  0  3  0  0  0  0  0  0
  188.1390  177.9790  147.6340 C   0  0  0  0  0  3  0  0  0  0  0  0
  186.2070  179.4330  147.5370 C   0  0  0  0  0  3  0  0  0  0  0  0
  185.9170  178.9600  146.2540 C   0  0  0  0  0  3  0  0  0  0  0  0
  1 12  1  0  0  0  0
  2  6  1  0  0  0  0
  2 12  1  0  0  0  0
  3 21  1  0  0  0  0
  3 16  1  0  0  0  0
  4 14  1  0  0  0  0
  5 13  1  0  0  0  0
  7 11  1  0  0  0  0
  8 10  1  0  0  0  0
  9  7  1  0  0  0  0
 10 19  1  0  0  0  0
 10 20  2  0  0  0  0
 11 16  1  0  0  0  0
 11 14  2  0  0  0  0
 12 23  1  0  0  0  0
 13  7  2  0  0  0  0
 13  4  1  0  0  0  0
 14 18  1  0  0  0  0
 15 20  1  0  0  0  0
 15  1  1  0  0  0  0
 16  2  2  0  0  0  0
 17  8  2  0  0  0  0
 17 21  1  0  0  0  0
 18  6  2  0  0  0  0
 21 15  2  0  0  0  0
 23 27  2  0  0  0  0
 23 24  1  0  0  0  0
 24 25  2  0  0  0  0
 25 22  1  0  0  0  0
 26 22  2  0  0  0  0
 27 26  1  0  0  0  0
M  END
>  <MODEL>
2

>  <REMARK>
 VINA RESULT:      -8.0      2.338      5.093
  Name = 
  1 active torsions:
  status: ('A' for Active; 'I' for Inactive)
    1  A    between atoms: C_9  and  N_15
                            x       y       z     vdW  Elec       q    Type
                         _______ _______ _______ _____ _____    ______ ____

>  <TORSDO>
F 1

$$$$
=
 OpenBabel10262420053D

 27 31  0  0  0  0  0  0  0  0999 V2000
  189.8170  178.6210  144.2700 C   0  0  0  0  0  2  0  0  0  0  0  0
  190.4950  177.4040  142.2370 C   0  0  0  0  0  0  0  0  0  0  0  0
  187.9990  177.7700  142.0600 N   0  0  0  0  0  2  0  0  0  0  0  0
  190.5560  177.3210  137.8350 S   0  0  0  0  0  0  0  0  0  0  0  0
  188.0710  177.7620  136.5840 C   0  0  0  0  0  1  0  0  0  0  0  0
  191.6770  177.1650  141.5880 N   0  0  0  0  0  0  0  0  0  0  0  0
  188.4210  177.7480  139.1220 C   0  0  0  0  0  0  0  0  0  0  0  0
  185.6960  177.7190  144.9820 C   0  0  0  0  0  3  0  0  0  0  0  0
  187.0900  178.0050  139.4270 O   0  0  0  0  0  1  0  0  0  0  0  0
  186.5340  178.0940  146.0320 C   0  0  0  0  0  0  0  0  0  0  0  0
  189.4300  177.5800  140.0860 C   0  0  0  0  0  0  0  0  0  0  0  0
  190.4980  177.4880  143.6670 N   0  0  0  0  0  0  0  0  0  0  0  0
  188.8940  177.6340  137.8160 C   0  0  0  0  0  0  0  0  0  0  0  0
  190.6600  177.3370  139.5100 C   0  0  0  0  0  0  0  0  0  0  0  0
  188.3940  178.2750  144.4850 C   0  0  0  0  0  0  0  0  0  0  0  0
  189.3100  177.6200  141.4820 C   0  0  0  0  0  0  0  0  0  0  0  0
  186.2050  177.6170  143.6850 C   0  0  0  0  0  3  0  0  0  0  0  0
  191.7650  177.1280  140.2570 N   0  0  0  0  0  0  0  0  0  0  0  0
  186.0190  178.1980  147.3520 N   0  0  0  0  0  1  0  0  0  0  0  0
  187.8780  178.3770  145.7820 C   0  0  0  0  0  3  0  0  0  0  0  0
  187.5570  177.8780  143.4230 C   0  0  0  0  0  0  0  0  0  0  0  0
  192.4800  174.6250  146.1140 C   0  0  0  0  0  3  0  0  0  0  0  0
  191.1830  176.5200  144.4920 C   0  0  0  0  0  0  0  0  0  0  0  0
  191.6100  175.2920  143.9570 C   0  0  0  0  0  3  0  0  0  0  0  0
  192.2570  174.3510  144.7620 C   0  0  0  0  0  3  0  0  0  0  0  0
  192.0550  175.8380  146.6600 C   0  0  0  0  0  3  0  0  0  0  0  0
  191.4090  176.7790  145.8550 C   0  0  0  0  0  3  0  0  0  0  0  0
  1 15  1  0  0  0  0
  2 12  1  0  0  0  0
  3 21  1  0  0  0  0
  4 14  1  0  0  0  0
  5 13  1  0  0  0  0
  6  2  1  0  0  0  0
  7  9  1  0  0  0  0
  7 11  1  0  0  0  0
  8 10  1  0  0  0  0
 10 19  1  0  0  0  0
 11 16  1  0  0  0  0
 12  1  1  0  0  0  0
 12 23  1  0  0  0  0
 13  4  1  0  0  0  0
 13  7  2  0  0  0  0
 14 11  2  0  0  0  0
 14 18  1  0  0  0  0
 15 20  1  0  0  0  0
 16  3  1  0  0  0  0
 16  2  2  0  0  0  0
 17  8  2  0  0  0  0
 18  6  2  0  0  0  0
 20 10  2  0  0  0  0
 21 17  1  0  0  0  0
 21 15  2  0  0  0  0
 22 26  1  0  0  0  0
 23 27  1  0  0  0  0
 24 23  2  0  0  0  0
 24 25  1  0  0  0  0
 25 22  2  0  0  0  0
 27 26  2  0  0  0  0
M  END
>  <MODEL>
3

>  <REMARK>
 VINA RESULT:      -7.9      2.944      5.430
  Name = 
  1 active torsions:
  status: ('A' for Active; 'I' for Inactive)
    1  A    between atoms: C_9  and  N_15
                            x       y       z     vdW  Elec       q    Type
                         _______ _______ _______ _____ _____    ______ ____

>  <TORSDO>
F 1

$$$$
=
 OpenBabel10262420053D

 27 31  0  0  0  0  0  0  0  0999 V2000
  182.1700  177.6900  140.0440 C   0  0  0  0  0  2  0  0  0  0  0  0
  184.3430  178.6520  139.3950 C   0  0  0  0  0  0  0  0  0  0  0  0
  184.3430  178.5090  141.9190 N   0  0  0  0  0  2  0  0  0  0  0  0
  188.7300  178.3380  139.6140 S   0  0  0  0  0  0  0  0  0  0  0  0
  189.7910  178.0230  142.2030 C   0  0  0  0  0  1  0  0  0  0  0  0
  185.0780  178.7190  138.2410 N   0  0  0  0  0  0  0  0  0  0  0  0
  187.2890  178.2290  141.6890 C   0  0  0  0  0  0  0  0  0  0  0  0
  181.3140  179.0350  144.0140 C   0  0  0  0  0  3  0  0  0  0  0  0
  186.8870  178.1270  143.0150 O   0  0  0  0  0  1  0  0  0  0  0  0
  180.2820  178.6770  143.1450 C   0  0  0  0  0  0  0  0  0  0  0  0
  186.4050  178.3870  140.6090 C   0  0  0  0  0  0  0  0  0  0  0  0
  182.9150  178.6950  139.3060 N   0  0  0  0  0  0  0  0  0  0  0  0
  188.6260  178.1820  141.2950 C   0  0  0  0  0  0  0  0  0  0  0  0
  187.0690  178.4610  139.4020 C   0  0  0  0  0  0  0  0  0  0  0  0
  181.9070  178.1860  141.4140 C   0  0  0  0  0  0  0  0  0  0  0  0
  185.0060  178.4820  140.6400 C   0  0  0  0  0  0  0  0  0  0  0  0
  182.6410  178.9730  143.5830 C   0  0  0  0  0  3  0  0  0  0  0  0
  186.4100  178.6300  138.2370 N   0  0  0  0  0  0  0  0  0  0  0  0
  178.9310  178.7400  143.5810 N   0  0  0  0  0  1  0  0  0  0  0  0
  180.5800  178.2480  141.8510 C   0  0  0  0  0  3  0  0  0  0  0  0
  182.9530  178.5640  142.2800 C   0  0  0  0  0  0  0  0  0  0  0  0
  180.8470  181.5380  136.9060 C   0  0  0  0  0  3  0  0  0  0  0  0
  182.2250  179.6640  138.4860 C   0  0  0  0  0  0  0  0  0  0  0  0
  182.2250  181.0270  138.8280 C   0  0  0  0  0  3  0  0  0  0  0  0
  181.5430  181.9590  138.0420 C   0  0  0  0  0  3  0  0  0  0  0  0
  180.8330  180.1850  136.5570 C   0  0  0  0  0  3  0  0  0  0  0  0
  181.5160  179.2540  137.3430 C   0  0  0  0  0  3  0  0  0  0  0  0
  1 15  1  0  0  0  0
  2 16  1  0  0  0  0
  3 21  1  0  0  0  0
  4 13  1  0  0  0  0
  6  2  2  0  0  0  0
  7  9  1  0  0  0  0
 10 19  1  0  0  0  0
 10  8  2  0  0  0  0
 11 16  2  0  0  0  0
 11  7  1  0  0  0  0
 12  2  1  0  0  0  0
 12  1  1  0  0  0  0
 13  7  2  0  0  0  0
 13  5  1  0  0  0  0
 14  4  1  0  0  0  0
 14 11  1  0  0  0  0
 15 20  2  0  0  0  0
 15 21  1  0  0  0  0
 16  3  1  0  0  0  0
 17  8  1  0  0  0  0
 18  6  1  0  0  0  0
 18 14  2  0  0  0  0
 20 10  1  0  0  0  0
 21 17  2  0  0  0  0
 22 25  1  0  0  0  0
 23 24  1  0  0  0  0
 23 12  1  0  0  0  0
 25 24  2  0  0  0  0
 26 22  2  0  0  0  0
 26 27  1  0  0  0  0
 27 23  2  0  0  0  0
M  END
>  <MODEL>
4

>  <REMARK>
 VINA RESULT:      -7.7      3.169      7.339
  Name = 
  1 active torsions:
  status: ('A' for Active; 'I' for Inactive)
    1  A    between atoms: C_9  and  N_15
                            x       y       z     vdW  Elec       q    Type
                         _______ _______ _______ _____ _____    ______ ____

>  <TORSDO>
F 1

$$$$
=
 OpenBabel10262420053D

 27 31  0  0  0  0  0  0  0  0999 V2000
  187.1580  179.4110  140.8230 C   0  0  0  0  0  2  0  0  0  0  0  0
  185.8890  178.6240  142.7830 C   0  0  0  0  0  0  0  0  0  0  0  0
  188.2100  177.6430  142.9850 N   0  0  0  0  0  2  0  0  0  0  0  0
  185.6600  178.3790  147.1730 S   0  0  0  0  0  0  0  0  0  0  0  0
  187.9770  177.4180  148.4530 C   0  0  0  0  0  1  0  0  0  0  0  0
  184.7330  178.9990  143.4150 N   0  0  0  0  0  0  0  0  0  0  0  0
  187.7480  177.7050  145.9170 C   0  0  0  0  0  0  0  0  0  0  0  0
  190.2480  176.5490  140.0710 C   0  0  0  0  0  3  0  0  0  0  0  0
  189.0300  177.2530  145.6300 O   0  0  0  0  0  1  0  0  0  0  0  0
  189.7540  177.3510  139.0420 C   0  0  0  0  0  0  0  0  0  0  0  0
  186.8260  178.1260  144.9440 C   0  0  0  0  0  0  0  0  0  0  0  0
  185.9730  178.7650  141.3600 N   0  0  0  0  0  0  0  0  0  0  0  0
  187.2440  177.7900  147.2140 C   0  0  0  0  0  0  0  0  0  0  0  0
  185.6290  178.5250  145.5020 C   0  0  0  0  0  0  0  0  0  0  0  0
  188.2060  178.3920  140.5910 C   0  0  0  0  0  0  0  0  0  0  0  0
  186.9920  178.1640  143.5520 C   0  0  0  0  0  0  0  0  0  0  0  0
  189.7190  176.6640  141.3580 C   0  0  0  0  0  3  0  0  0  0  0  0
  184.5980  178.9500  144.7420 N   0  0  0  0  0  0  0  0  0  0  0  0
  190.2900  177.2360  137.7300 N   0  0  0  0  0  1  0  0  0  0  0  0
  188.7400  178.2740  139.3040 C   0  0  0  0  0  3  0  0  0  0  0  0
  188.6870  177.5710  141.6320 C   0  0  0  0  0  0  0  0  0  0  0  0
  182.8740  177.4460  138.7580 C   0  0  0  0  0  3  0  0  0  0  0  0
  184.9130  178.3270  140.4810 C   0  0  0  0  0  0  0  0  0  0  0  0
  183.8000  177.6340  140.9850 C   0  0  0  0  0  3  0  0  0  0  0  0
  182.7850  177.1980  140.1300 C   0  0  0  0  0  3  0  0  0  0  0  0
  183.9780  178.1280  138.2420 C   0  0  0  0  0  3  0  0  0  0  0  0
  184.9920  178.5650  139.0980 C   0  0  0  0  0  3  0  0  0  0  0  0
  1 12  1  0  0  0  0
  2  6  2  0  0  0  0
  2 16  1  0  0  0  0
  3 16  1  0  0  0  0
  4 13  1  0  0  0  0
  6 18  1  0  0  0  0
  7 13  2  0  0  0  0
  8 17  1  0  0  0  0
  9  7  1  0  0  0  0
 10 20  1  0  0  0  0
 10  8  2  0  0  0  0
 11 14  1  0  0  0  0
 11  7  1  0  0  0  0
 12  2  1  0  0  0  0
 13  5  1  0  0  0  0
 14  4  1  0  0  0  0
 15  1  1  0  0  0  0
 15 21  1  0  0  0  0
 16 11  2  0  0  0  0
 17 21  2  0  0  0  0
 18 14  2  0  0  0  0
 19 10  1  0  0  0  0
 20 15  2  0  0  0  0
 21  3  1  0  0  0  0
 22 25  1  0  0  0  0
 23 24  1  0  0  0  0
 23 12  1  0  0  0  0
 25 24  2  0  0  0  0
 26 22  2  0  0  0  0
 26 27  1  0  0  0  0
 27 23  2  0  0  0  0
M  END
>  <MODEL>
5

>  <REMARK>
 VINA RESULT:      -7.7      2.613      5.579
  Name = 
  1 active torsions:
  status: ('A' for Active; 'I' for Inactive)
    1  A    between atoms: C_9  and  N_15
                            x       y       z     vdW  Elec       q    Type
                         _______ _______ _______ _____ _____    ______ ____

>  <TORSDO>
F 1

$$$$
=
 OpenBabel10262420053D

 27 31  0  0  0  0  0  0  0  0999 V2000
  188.3100  179.3370  141.2900 C   0  0  0  0  0  2  0  0  0  0  0  0
  187.9190  178.2130  143.4470 C   0  0  0  0  0  0  0  0  0  0  0  0
  189.9040  177.0630  142.3840 N   0  0  0  0  0  2  0  0  0  0  0  0
  189.6000  177.0020  147.3330 S   0  0  0  0  0  0  0  0  0  0  0  0
  192.0560  175.6290  147.2120 C   0  0  0  0  0  1  0  0  0  0  0  0
  187.2340  178.5110  144.5950 N   0  0  0  0  0  0  0  0  0  0  0  0
  190.7880  176.4930  145.1600 C   0  0  0  0  0  0  0  0  0  0  0  0
  190.2540  176.5230  138.7200 C   0  0  0  0  0  3  0  0  0  0  0  0
  191.7240  176.0350  144.2410 O   0  0  0  0  0  1  0  0  0  0  0  0
  189.4950  177.5660  138.1890 C   0  0  0  0  0  0  0  0  0  0  0  0
  189.6140  177.1810  144.8100 C   0  0  0  0  0  0  0  0  0  0  0  0
  187.3930  178.6650  142.1940 N   0  0  0  0  0  0  0  0  0  0  0  0
  190.9250  176.3170  146.5360 C   0  0  0  0  0  0  0  0  0  0  0  0
  188.8640  177.5220  145.9170 C   0  0  0  0  0  0  0  0  0  0  0  0
  188.9720  178.3300  140.4300 C   0  0  0  0  0  0  0  0  0  0  0  0
  189.1580  177.5210  143.5280 C   0  0  0  0  0  0  0  0  0  0  0  0
  190.3680  176.3780  140.1040 C   0  0  0  0  0  3  0  0  0  0  0  0
  187.6870  178.1730  145.8050 N   0  0  0  0  0  0  0  0  0  0  0  0
  189.3760  177.7150  136.7800 N   0  0  0  0  0  1  0  0  0  0  0  0
  188.8620  178.4700  139.0420 C   0  0  0  0  0  3  0  0  0  0  0  0
  189.7210  177.2660  140.9740 C   0  0  0  0  0  0  0  0  0  0  0  0
  183.2830  178.2370  141.1750 C   0  0  0  0  0  3  0  0  0  0  0  0
  186.0010  178.5070  141.8440 C   0  0  0  0  0  0  0  0  0  0  0  0
  185.5760  178.6280  140.5100 C   0  0  0  0  0  3  0  0  0  0  0  0
  184.2260  178.4920  140.1770 C   0  0  0  0  0  3  0  0  0  0  0  0
  183.6900  178.1200  142.5060 C   0  0  0  0  0  3  0  0  0  0  0  0
  185.0400  178.2560  142.8390 C   0  0  0  0  0  3  0  0  0  0  0  0
  1 12  1  0  0  0  0
  2 16  2  0  0  0  0
  2  6  1  0  0  0  0
  3 16  1  0  0  0  0
  6 18  2  0  0  0  0
  7 13  2  0  0  0  0
  8 17  1  0  0  0  0
  9  7  1  0  0  0  0
 10  8  2  0  0  0  0
 10 20  1  0  0  0  0
 11  7  1  0  0  0  0
 11 14  2  0  0  0  0
 12  2  1  0  0  0  0
 13  5  1  0  0  0  0
 13  4  1  0  0  0  0
 14  4  1  0  0  0  0
 15 21  1  0  0  0  0
 15  1  1  0  0  0  0
 16 11  1  0  0  0  0
 17 21  2  0  0  0  0
 18 14  1  0  0  0  0
 19 10  1  0  0  0  0
 20 15  2  0  0  0  0
 21  3  1  0  0  0  0
 22 26  1  0  0  0  0
 23 12  1  0  0  0  0
 23 27  1  0  0  0  0
 24 23  2  0  0  0  0
 25 24  1  0  0  0  0
 25 22  2  0  0  0  0
 26 27  2  0  0  0  0
M  END
>  <MODEL>
6

>  <REMARK>
 VINA RESULT:      -7.5      2.928      6.655
  Name = 
  1 active torsions:
  status: ('A' for Active; 'I' for Inactive)
    1  A    between atoms: C_9  and  N_15
                            x       y       z     vdW  Elec       q    Type
                         _______ _______ _______ _____ _____    ______ ____

>  <TORSDO>
F 1

$$$$
=
 OpenBabel10262420053D

 27 31  0  0  0  0  0  0  0  0999 V2000
  184.2700  179.5520  141.2450 C   0  0  0  0  0  2  0  0  0  0  0  0
  186.3570  178.5520  140.4010 C   0  0  0  0  0  0  0  0  0  0  0  0
  184.5000  177.7160  138.9030 N   0  0  0  0  0  2  0  0  0  0  0  0
  189.0550  177.9950  136.9660 S   0  0  0  0  0  0  0  0  0  0  0  0
  187.8240  177.1060  134.5940 C   0  0  0  0  0  1  0  0  0  0  0  0
  187.6950  178.8050  140.5510 N   0  0  0  0  0  0  0  0  0  0  0  0
  186.5730  177.5480  136.7860 C   0  0  0  0  0  0  0  0  0  0  0  0
  181.0620  176.9600  140.1090 C   0  0  0  0  0  3  0  0  0  0  0  0
  185.3250  177.2030  136.2810 O   0  0  0  0  0  1  0  0  0  0  0  0
  180.9430  177.7940  141.2200 C   0  0  0  0  0  0  0  0  0  0  0  0
  186.7980  177.9720  138.1060 C   0  0  0  0  0  0  0  0  0  0  0  0
  185.4810  178.7930  141.5070 N   0  0  0  0  0  0  0  0  0  0  0  0
  187.7380  177.5110  136.0210 C   0  0  0  0  0  0  0  0  0  0  0  0
  188.1280  178.2520  138.3410 C   0  0  0  0  0  0  0  0  0  0  0  0
  183.1910  178.6230  140.8410 C   0  0  0  0  0  0  0  0  0  0  0  0
  185.8630  178.1150  139.1420 C   0  0  0  0  0  0  0  0  0  0  0  0
  182.2450  176.9510  139.3670 C   0  0  0  0  0  3  0  0  0  0  0  0
  188.5660  178.6580  139.5520 N   0  0  0  0  0  0  0  0  0  0  0  0
  179.7400  177.8050  141.9780 N   0  0  0  0  0  1  0  0  0  0  0  0
  182.0030  178.6280  141.5800 C   0  0  0  0  0  3  0  0  0  0  0  0
  183.3250  177.7670  139.7290 C   0  0  0  0  0  0  0  0  0  0  0  0
  186.4280  177.5060  145.4520 C   0  0  0  0  0  3  0  0  0  0  0  0
  185.7920  178.3470  142.8460 C   0  0  0  0  0  0  0  0  0  0  0  0
  185.0210  178.7690  143.9420 C   0  0  0  0  0  3  0  0  0  0  0  0
  185.3350  178.3500  145.2370 C   0  0  0  0  0  3  0  0  0  0  0  0
  187.2060  177.0840  144.3720 C   0  0  0  0  0  3  0  0  0  0  0  0
  186.8910  177.5030  143.0770 C   0  0  0  0  0  3  0  0  0  0  0  0
  1 12  1  0  0  0  0
  2  6  1  0  0  0  0
  2 12  1  0  0  0  0
  3 16  1  0  0  0  0
  3 21  1  0  0  0  0
  4 14  1  0  0  0  0
  5 13  1  0  0  0  0
  7 11  1  0  0  0  0
  8 10  1  0  0  0  0
  9  7  1  0  0  0  0
 10 20  2  0  0  0  0
 10 19  1  0  0  0  0
 11 14  2  0  0  0  0
 11 16  1  0  0  0  0
 12 23  1  0  0  0  0
 13  7  2  0  0  0  0
 13  4  1  0  0  0  0
 14 18  1  0  0  0  0
 15  1  1  0  0  0  0
 15 20  1  0  0  0  0
 16  2  2  0  0  0  0
 17 21  1  0  0  0  0
 17  8  2  0  0  0  0
 18  6  2  0  0  0  0
 21 15  2  0  0  0  0
 23 27  2  0  0  0  0
 23 24  1  0  0  0  0
 24 25  2  0  0  0  0
 25 22  1  0  0  0  0
 26 22  2  0  0  0  0
 27 26  1  0  0  0  0
M  END
>  <MODEL>
7

>  <REMARK>
 VINA RESULT:      -7.5      3.227      6.953
  Name = 
  1 active torsions:
  status: ('A' for Active; 'I' for Inactive)
    1  A    between atoms: C_9  and  N_15
                            x       y       z     vdW  Elec       q    Type
                         _______ _______ _______ _____ _____    ______ ____

>  <TORSDO>
F 1

$$$$
=
 OpenBabel10262420053D

 27 31  0  0  0  0  0  0  0  0999 V2000
  187.9430  176.3190  143.7600 C   0  0  0  0  0  2  0  0  0  0  0  0
  186.8960  177.7220  142.0260 C   0  0  0  0  0  0  0  0  0  0  0  0
  189.3950  177.9020  141.6880 N   0  0  0  0  0  2  0  0  0  0  0  0
  186.4910  178.5840  137.7280 S   0  0  0  0  0  0  0  0  0  0  0  0
  188.9130  178.8840  136.3220 C   0  0  0  0  0  1  0  0  0  0  0  0
  185.6450  177.8310  141.4800 N   0  0  0  0  0  0  0  0  0  0  0  0
  188.7580  178.3690  138.8270 C   0  0  0  0  0  0  0  0  0  0  0  0
  191.8590  177.8860  144.4760 C   0  0  0  0  0  3  0  0  0  0  0  0
  190.1330  178.3340  139.0260 O   0  0  0  0  0  1  0  0  0  0  0  0
  191.1880  177.1670  145.4660 C   0  0  0  0  0  0  0  0  0  0  0  0
  187.8100  178.1540  139.8420 C   0  0  0  0  0  0  0  0  0  0  0  0
  187.0160  177.3820  143.4120 N   0  0  0  0  0  0  0  0  0  0  0  0
  188.1760  178.6200  137.5850 C   0  0  0  0  0  0  0  0  0  0  0  0
  186.5170  178.2450  139.3710 C   0  0  0  0  0  0  0  0  0  0  0  0
  189.2860  176.8990  143.9850 C   0  0  0  0  0  0  0  0  0  0  0  0
  188.0400  177.8880  141.2000 C   0  0  0  0  0  0  0  0  0  0  0  0
  191.2440  178.1160  143.2440 C   0  0  0  0  0  3  0  0  0  0  0  0
  185.4510  178.0900  140.1850 N   0  0  0  0  0  0  0  0  0  0  0  0
  191.8110  176.9310  146.7210 N   0  0  0  0  0  1  0  0  0  0  0  0
  189.9080  176.6700  145.2170 C   0  0  0  0  0  3  0  0  0  0  0  0
  189.9510  177.6410  142.9870 C   0  0  0  0  0  0  0  0  0  0  0  0
  184.6590  179.2500  146.4240 C   0  0  0  0  0  3  0  0  0  0  0  0
  186.2230  178.0280  144.4330 C   0  0  0  0  0  0  0  0  0  0  0  0
  186.7170  178.1780  145.7400 C   0  0  0  0  0  3  0  0  0  0  0  0
  185.9410  178.7880  146.7290 C   0  0  0  0  0  3  0  0  0  0  0  0
  184.1520  179.1010  145.1310 C   0  0  0  0  0  3  0  0  0  0  0  0
  184.9290  178.4920  144.1420 C   0  0  0  0  0  3  0  0  0  0  0  0
  1 15  1  0  0  0  0
  2 12  1  0  0  0  0
  3 21  1  0  0  0  0
  4 14  1  0  0  0  0
  5 13  1  0  0  0  0
  6  2  1  0  0  0  0
  7  9  1  0  0  0  0
  7 11  1  0  0  0  0
  8 10  1  0  0  0  0
 10 19  1  0  0  0  0
 11 16  1  0  0  0  0
 12  1  1  0  0  0  0
 12 23  1  0  0  0  0
 13  4  1  0  0  0  0
 13  7  2  0  0  0  0
 14 11  2  0  0  0  0
 14 18  1  0  0  0  0
 15 20  1  0  0  0  0
 16  3  1  0  0  0  0
 16  2  2  0  0  0  0
 17  8  2  0  0  0  0
 18  6  2  0  0  0  0
 20 10  2  0  0  0  0
 21 17  1  0  0  0  0
 21 15  2  0  0  0  0
 22 25  1  0  0  0  0
 23 24  1  0  0  0  0
 24 25  2  0  0  0  0
 26 22  2  0  0  0  0
 27 23  2  0  0  0  0
 27 26  1  0  0  0  0
M  END
>  <MODEL>
8

>  <REMARK>
 VINA RESULT:      -7.4      2.580      5.365
  Name = 
  1 active torsions:
  status: ('A' for Active; 'I' for Inactive)
    1  A    between atoms: C_9  and  N_15
                            x       y       z     vdW  Elec       q    Type
                         _______ _______ _______ _____ _____    ______ ____

>  <TORSDO>
F 1

$$$$
=
 OpenBabel10262420053D

 27 31  0  0  0  0  0  0  0  0999 V2000
  189.3250  176.4420  137.1630 C   0  0  0  0  0  2  0  0  0  0  0  0
  191.5220  175.9150  138.1460 C   0  0  0  0  0  0  0  0  0  0  0  0
  190.6830  173.7860  137.0720 N   0  0  0  0  0  2  0  0  0  0  0  0
  195.5900  174.3710  137.4700 S   0  0  0  0  0  0  0  0  0  0  0  0
  195.7370  171.8930  136.1400 C   0  0  0  0  0  1  0  0  0  0  0  0
  192.5960  176.6410  138.5880 N   0  0  0  0  0  0  0  0  0  0  0  0
  193.5460  173.1010  136.6960 C   0  0  0  0  0  0  0  0  0  0  0  0
  187.0980  172.7940  136.9870 C   0  0  0  0  0  3  0  0  0  0  0  0
  192.7290  172.1270  136.1340 O   0  0  0  0  0  1  0  0  0  0  0  0
  186.4440  174.0250  137.0510 C   0  0  0  0  0  0  0  0  0  0  0  0
  193.0680  174.2730  137.3050 C   0  0  0  0  0  0  0  0  0  0  0  0
  190.2070  176.4550  138.3170 N   0  0  0  0  0  0  0  0  0  0  0  0
  194.9370  173.0110  136.7070 C   0  0  0  0  0  0  0  0  0  0  0  0
  194.0930  175.0660  137.7780 C   0  0  0  0  0  0  0  0  0  0  0  0
  188.5850  175.1600  137.1300 C   0  0  0  0  0  0  0  0  0  0  0  0
  191.7370  174.6790  137.4780 C   0  0  0  0  0  0  0  0  0  0  0  0
  188.4930  172.7450  136.9990 C   0  0  0  0  0  3  0  0  0  0  0  0
  193.8540  176.2310  138.4150 N   0  0  0  0  0  0  0  0  0  0  0  0
  185.0230  174.0780  137.0400 N   0  0  0  0  0  1  0  0  0  0  0  0
  187.1870  175.2040  137.1160 C   0  0  0  0  0  3  0  0  0  0  0  0
  189.2520  173.9190  137.0850 C   0  0  0  0  0  0  0  0  0  0  0  0
  188.8910  178.1360  142.0000 C   0  0  0  0  0  3  0  0  0  0  0  0
  189.7710  177.0340  139.5680 C   0  0  0  0  0  0  0  0  0  0  0  0
  190.3700  176.6580  140.7820 C   0  0  0  0  0  3  0  0  0  0  0  0
  189.9350  177.2070  141.9910 C   0  0  0  0  0  3  0  0  0  0  0  0
  188.2820  178.5140  140.8010 C   0  0  0  0  0  3  0  0  0  0  0  0
  188.7190  177.9650  139.5930 C   0  0  0  0  0  3  0  0  0  0  0  0
  1 12  1  0  0  0  0
  2 12  1  0  0  0  0
  2  6  1  0  0  0  0
  3 21  1  0  0  0  0
  3 16  1  0  0  0  0
  4 14  1  0  0  0  0
  5 13  1  0  0  0  0
  7 13  2  0  0  0  0
  7 11  1  0  0  0  0
  8 17  2  0  0  0  0
  8 10  1  0  0  0  0
  9  7  1  0  0  0  0
 10 20  2  0  0  0  0
 11 16  1  0  0  0  0
 11 14  2  0  0  0  0
 12 23  1  0  0  0  0
 13  4  1  0  0  0  0
 14 18  1  0  0  0  0
 15  1  1  0  0  0  0
 16  2  2  0  0  0  0
 17 21  1  0  0  0  0
 18  6  2  0  0  0  0
 19 10  1  0  0  0  0
 20 15  1  0  0  0  0
 21 15  2  0  0  0  0
 23 27  2  0  0  0  0
 23 24  1  0  0  0  0
 24 25  2  0  0  0  0
 25 22  1  0  0  0  0
 26 22  2  0  0  0  0
 27 26  1  0  0  0  0
M  END
>  <MODEL>
9

>  <REMARK>
 VINA RESULT:      -7.3      5.057      8.959
  Name = 
  1 active torsions:
  status: ('A' for Active; 'I' for Inactive)
    1  A    between atoms: C_9  and  N_15
                            x       y       z     vdW  Elec       q    Type
                         _______ _______ _______ _____ _____    ______ ____

>  <TORSDO>
F 1

$$$$
