=
 OpenBabel10262419353D

 31 34  0  0  1  0  0  0  0  0999 V2000
  185.6370  178.8650  139.7560 C   0  0  0  0  0  0  0  0  0  0  0  0
  188.9230  177.7950  141.1150 C   0  0  0  0  0  0  0  0  0  0  0  0
  188.6910  177.9850  142.5950 C   0  0  1  0  0  3  0  0  0  0  0  0
  187.0960  177.3190  144.3940 C   0  0  0  0  0  3  0  0  0  0  0  0
  187.9210  178.1350  140.1960 C   0  0  0  0  0  0  0  0  0  0  0  0
  185.6900  178.2680  138.3830 C   0  0  0  0  0  2  0  0  0  0  0  0
  187.7560  176.8970  143.1150 C   0  0  0  0  0  2  0  0  0  0  0  0
  190.2790  176.9670  139.2770 C   0  0  0  0  0  0  0  0  0  0  0  0
  184.5950  179.4520  140.1470 O   0  0  0  0  0  0  0  0  0  0  0  0
  191.1040  177.2650  142.8760 C   0  0  0  0  0  3  0  0  0  0  0  0
  187.7690  177.5710  145.5260 C   0  0  0  0  0  3  0  0  0  0  0  0
  189.2900  177.3200  138.4100 N   0  0  0  0  0  0  0  0  0  0  0  0
  190.1160  177.2070  140.6510 C   0  0  0  0  0  0  0  0  0  0  0  0
  186.7190  178.7090  140.6270 O   0  0  0  0  0  0  0  0  0  0  0  0
  189.2610  177.4560  145.6470 C   0  0  0  0  0  2  0  0  0  0  0  0
  188.1270  177.8830  138.8300 C   0  0  0  0  0  0  0  0  0  0  0  0
  187.1110  178.3350  137.8240 C   0  0  0  0  0  2  0  0  0  0  0  0
  191.1940  176.8920  141.6030 C   0  0  0  0  0  3  0  0  0  0  0  0
  189.9500  177.9670  143.3560 N   0  0  0  0  0  0  0  0  0  0  0  0
  189.9630  178.4500  144.7290 C   0  0  0  0  0  2  0  0  0  0  0  0
  194.0660  175.4960  137.9600 C   0  0  0  0  0  1  0  0  0  0  0  0
  192.0920  172.7910  136.4920 O   0  0  0  0  0  0  0  0  0  0  0  0
  190.5500  174.6010  137.5990 O   0  0  0  0  0  0  0  0  0  0  0  0
  191.5940  175.2040  137.9680 C   0  0  0  0  0  0  0  0  0  0  0  0
  193.0730  173.5300  136.7760 C   0  0  0  0  0  0  0  0  0  0  0  0
  192.8920  174.7300  137.5590 N   0  0  0  0  0  0  0  0  0  0  0  0
  191.4940  176.3730  138.7950 N   0  0  0  0  0  2  0  0  0  0  0  0
  194.4240  173.1430  136.2640 C   0  0  0  0  0  2  0  0  0  0  0  0
  194.9700  172.0060  137.0580 C   0  0  0  0  0  0  0  0  0  0  0  0
  195.1830  170.8970  136.5040 O   0  0  0  0  0  0  0  0  0  0  0  0
  195.2760  172.1810  138.4010 O   0  0  0  0  0  1  0  0  0  0  0  0
  1  9  2  0  0  0  0
  1 14  1  0  0  0  0
  2  3  1  0  0  0  0
  3  7  1  1  0  0  0
  3 19  1  0  0  0  0
  4 11  2  0  0  0  0
  5 14  1  0  0  0  0
  5  2  1  0  0  0  0
  6  1  1  0  0  0  0
  7  4  1  0  0  0  0
  8 13  1  0  0  0  0
 10 19  1  0  0  0  0
 11 15  1  0  0  0  0
 12 16  1  0  0  0  0
 12  8  2  0  0  0  0
 13  2  2  0  0  0  0
 13 18  1  0  0  0  0
 16  5  2  0  0  0  0
 17  6  1  0  0  0  0
 17 16  1  0  0  0  0
 18 10  2  0  0  0  0
 19 20  1  0  0  0  0
 20 15  1  0  0  0  0
 22 25  2  0  0  0  0
 23 24  2  0  0  0  0
 24 27  1  0  0  0  0
 25 26  1  0  0  0  0
 26 21  1  0  0  0  0
 26 24  1  0  0  0  0
 27  8  1  0  0  0  0
 28 25  1  0  0  0  0
 28 29  1  0  0  0  0
 29 31  1  0  0  0  0
 30 29  2  0  0  0  0
M  END
>  <MODEL>
1

>  <REMARK>
 VINA RESULT:      -9.1      0.000      0.000
  Name = 
  3 active torsions:
  status: ('A' for Active; 'I' for Inactive)
    1  A    between atoms: C_1  and  C_24
    2  A    between atoms: C_15  and  N_23
    3  A    between atoms: C_19  and  C_24
                            x       y       z     vdW  Elec       q    Type
                         _______ _______ _______ _____ _____    ______ ____

>  <TORSDO>
F 3

$$$$
=
 OpenBabel10262419353D

 31 34  0  0  1  0  0  0  0  0999 V2000
  185.8100  178.8270  139.6800 C   0  0  0  0  0  0  0  0  0  0  0  0
  189.0850  177.7890  141.0900 C   0  0  0  0  0  0  0  0  0  0  0  0
  188.8280  177.9780  142.5660 C   0  0  1  0  0  3  0  0  0  0  0  0
  187.2130  177.2980  144.3410 C   0  0  0  0  0  3  0  0  0  0  0  0
  188.0940  178.1190  140.1560 C   0  0  0  0  0  0  0  0  0  0  0  0
  185.8900  178.2300  138.3080 C   0  0  0  0  0  2  0  0  0  0  0  0
  187.8960  176.8810  143.0720 C   0  0  0  0  0  2  0  0  0  0  0  0
  190.4780  176.9730  139.2740 C   0  0  0  0  0  0  0  0  0  0  0  0
  184.7570  179.4040  140.0540 O   0  0  0  0  0  0  0  0  0  0  0  0
  191.2440  177.2810  142.8860 C   0  0  0  0  0  3  0  0  0  0  0  0
  187.8650  177.5560  145.4830 C   0  0  0  0  0  3  0  0  0  0  0  0
  189.4980  177.3160  138.3920 N   0  0  0  0  0  0  0  0  0  0  0  0
  190.2910  177.2120  140.6450 C   0  0  0  0  0  0  0  0  0  0  0  0
  186.8800  178.6820  140.5680 O   0  0  0  0  0  0  0  0  0  0  0  0
  189.3560  177.4560  145.6270 C   0  0  0  0  0  2  0  0  0  0  0  0
  188.3240  177.8680  138.7930 C   0  0  0  0  0  0  0  0  0  0  0  0
  187.3190  178.3100  137.7710 C   0  0  0  0  0  2  0  0  0  0  0  0
  191.3570  176.9080  141.6140 C   0  0  0  0  0  3  0  0  0  0  0  0
  190.0760  177.9720  143.3470 N   0  0  0  0  0  0  0  0  0  0  0  0
  190.0620  178.4560  144.7200 C   0  0  0  0  0  2  0  0  0  0  0  0
  194.2320  175.2170  138.2440 C   0  0  0  0  0  1  0  0  0  0  0  0
  193.1980  175.9120  134.8070 O   0  0  0  0  0  0  0  0  0  0  0  0
  191.4470  176.8300  136.5310 O   0  0  0  0  0  0  0  0  0  0  0  0
  192.1550  176.3360  137.4490 C   0  0  0  0  0  0  0  0  0  0  0  0
  193.9110  175.5770  135.7910 C   0  0  0  0  0  0  0  0  0  0  0  0
  193.4210  175.7200  137.1420 N   0  0  0  0  0  0  0  0  0  0  0  0
  191.7050  176.3910  138.8120 N   0  0  0  0  0  2  0  0  0  0  0  0
  195.2840  175.0490  135.5230 C   0  0  0  0  0  2  0  0  0  0  0  0
  196.2900  176.1410  135.6430 C   0  0  0  0  0  0  0  0  0  0  0  0
  195.9710  177.3250  135.3610 O   0  0  0  0  0  0  0  0  0  0  0  0
  197.5710  175.8590  136.1000 O   0  0  0  0  0  1  0  0  0  0  0  0
  1  9  2  0  0  0  0
  1 14  1  0  0  0  0
  2  3  1  0  0  0  0
  3  7  1  1  0  0  0
  3 19  1  0  0  0  0
  4 11  2  0  0  0  0
  5 14  1  0  0  0  0
  5  2  1  0  0  0  0
  6  1  1  0  0  0  0
  7  4  1  0  0  0  0
  8 13  1  0  0  0  0
 10 19  1  0  0  0  0
 11 15  1  0  0  0  0
 12 16  1  0  0  0  0
 12  8  2  0  0  0  0
 13  2  2  0  0  0  0
 13 18  1  0  0  0  0
 16  5  2  0  0  0  0
 17  6  1  0  0  0  0
 17 16  1  0  0  0  0
 18 10  2  0  0  0  0
 19 20  1  0  0  0  0
 20 15  1  0  0  0  0
 22 25  2  0  0  0  0
 23 24  2  0  0  0  0
 24 27  1  0  0  0  0
 25 26  1  0  0  0  0
 26 24  1  0  0  0  0
 26 21  1  0  0  0  0
 27  8  1  0  0  0  0
 28 29  1  0  0  0  0
 28 25  1  0  0  0  0
 29 31  1  0  0  0  0
 30 29  2  0  0  0  0
M  END
>  <MODEL>
2

>  <REMARK>
 VINA RESULT:      -8.7      1.845      1.998
  Name = 
  3 active torsions:
  status: ('A' for Active; 'I' for Inactive)
    1  A    between atoms: C_1  and  C_24
    2  A    between atoms: C_15  and  N_23
    3  A    between atoms: C_19  and  C_24
                            x       y       z     vdW  Elec       q    Type
                         _______ _______ _______ _____ _____    ______ ____

>  <TORSDO>
F 3

$$$$
=
 OpenBabel10262419353D

 31 34  0  0  1  0  0  0  0  0999 V2000
  184.5390  178.6150  138.5170 C   0  0  0  0  0  0  0  0  0  0  0  0
  188.0190  177.5620  139.2690 C   0  0  0  0  0  0  0  0  0  0  0  0
  188.4680  177.0820  137.9100 C   0  0  1  0  0  3  0  0  0  0  0  0
  188.6180  177.8640  135.5450 C   0  0  0  0  0  3  0  0  0  0  0  0
  186.7070  178.0180  139.4570 C   0  0  0  0  0  0  0  0  0  0  0  0
  184.2440  179.4860  139.6990 C   0  0  0  0  0  2  0  0  0  0  0  0
  188.6840  178.2780  136.9860 C   0  0  0  0  0  2  0  0  0  0  0  0
  188.5160  178.1480  141.5750 C   0  0  0  0  0  0  0  0  0  0  0  0
  183.6940  178.5030  137.5910 O   0  0  0  0  0  0  0  0  0  0  0  0
  190.6430  176.4630  139.0530 C   0  0  0  0  0  3  0  0  0  0  0  0
  189.4810  177.0090  134.9800 C   0  0  0  0  0  3  0  0  0  0  0  0
  187.2300  178.5720  141.7260 N   0  0  0  0  0  0  0  0  0  0  0  0
  188.9330  177.6240  140.3400 C   0  0  0  0  0  0  0  0  0  0  0  0
  185.7800  177.9810  138.4080 O   0  0  0  0  0  0  0  0  0  0  0  0
  190.6170  176.3660  135.7210 C   0  0  0  0  0  2  0  0  0  0  0  0
  186.3300  178.5290  140.7090 C   0  0  0  0  0  0  0  0  0  0  0  0
  184.9050  178.9240  140.9580 C   0  0  0  0  0  2  0  0  0  0  0  0
  190.2980  177.1010  140.1670 C   0  0  0  0  0  3  0  0  0  0  0  0
  189.7010  176.2830  137.9880 N   0  0  0  0  0  0  0  0  0  0  0  0
  190.1030  175.4750  136.8460 C   0  0  0  0  0  2  0  0  0  0  0  0
  191.4990  178.4810  144.6120 C   0  0  0  0  0  1  0  0  0  0  0  0
  189.1110  176.6060  146.6490 O   0  0  0  0  0  0  0  0  0  0  0  0
  188.2420  176.8970  144.1910 O   0  0  0  0  0  0  0  0  0  0  0  0
  189.2740  177.5810  143.9520 C   0  0  0  0  0  0  0  0  0  0  0  0
  190.1740  177.1770  146.2840 C   0  0  0  0  0  0  0  0  0  0  0  0
  190.2970  177.7320  144.9560 N   0  0  0  0  0  0  0  0  0  0  0  0
  189.4380  178.2100  142.6720 N   0  0  0  0  0  2  0  0  0  0  0  0
  191.3100  177.2460  147.2540 C   0  0  0  0  0  2  0  0  0  0  0  0
  192.1010  175.9830  147.2130 C   0  0  0  0  0  0  0  0  0  0  0  0
  192.1600  175.3120  146.1510 O   0  0  0  0  0  0  0  0  0  0  0  0
  192.8000  175.5650  148.3370 O   0  0  0  0  0  1  0  0  0  0  0  0
  1  6  1  0  0  0  0
  2  5  1  0  0  0  0
  2 13  2  0  0  0  0
  3  7  1  6  0  0  0
  3 19  1  0  0  0  0
  3  2  1  0  0  0  0
  4  7  1  0  0  0  0
  5 16  2  0  0  0  0
  6 17  1  0  0  0  0
  8 12  2  0  0  0  0
  8 27  1  0  0  0  0
  9  1  2  0  0  0  0
 10 18  2  0  0  0  0
 11  4  2  0  0  0  0
 11 15  1  0  0  0  0
 13  8  1  0  0  0  0
 14  1  1  0  0  0  0
 14  5  1  0  0  0  0
 15 20  1  0  0  0  0
 16 17  1  0  0  0  0
 16 12  1  0  0  0  0
 18 13  1  0  0  0  0
 19 10  1  0  0  0  0
 20 19  1  0  0  0  0
 21 26  1  0  0  0  0
 24 23  2  0  0  0  0
 24 26  1  0  0  0  0
 25 22  2  0  0  0  0
 25 28  1  0  0  0  0
 26 25  1  0  0  0  0
 27 24  1  0  0  0  0
 29 28  1  0  0  0  0
 29 31  1  0  0  0  0
 30 29  2  0  0  0  0
M  END
>  <MODEL>
3

>  <REMARK>
 VINA RESULT:      -8.0      3.861      7.107
  Name = 
  3 active torsions:
  status: ('A' for Active; 'I' for Inactive)
    1  A    between atoms: C_1  and  C_24
    2  A    between atoms: C_15  and  N_23
    3  A    between atoms: C_19  and  C_24
                            x       y       z     vdW  Elec       q    Type
                         _______ _______ _______ _____ _____    ______ ____

>  <TORSDO>
F 3

$$$$
=
 OpenBabel10262419353D

 31 34  0  0  1  0  0  0  0  0999 V2000
  184.9010  178.9800  140.9500 C   0  0  0  0  0  0  0  0  0  0  0  0
  188.4630  177.9630  141.2170 C   0  0  0  0  0  0  0  0  0  0  0  0
  188.6760  178.0700  142.7080 C   0  0  1  0  0  3  0  0  0  0  0  0
  187.6980  177.2570  144.8540 C   0  0  0  0  0  3  0  0  0  0  0  0
  187.2270  178.3120  140.6550 C   0  0  0  0  0  0  0  0  0  0  0  0
  184.5570  178.4560  139.5900 C   0  0  0  0  0  2  0  0  0  0  0  0
  187.9580  176.9240  143.4150 C   0  0  0  0  0  2  0  0  0  0  0  0
  189.2300  177.2770  139.0150 C   0  0  0  0  0  0  0  0  0  0  0  0
  184.0100  179.5090  141.6650 O   0  0  0  0  0  0  0  0  0  0  0  0
  191.0770  177.4240  142.2230 C   0  0  0  0  0  3  0  0  0  0  0  0
  188.6700  177.4760  145.7510 C   0  0  0  0  0  3  0  0  0  0  0  0
  188.0220  177.6380  138.5000 N   0  0  0  0  0  0  0  0  0  0  0  0
  189.4760  177.4420  140.3880 C   0  0  0  0  0  0  0  0  0  0  0  0
  186.1950  178.8200  141.4540 O   0  0  0  0  0  0  0  0  0  0  0  0
  190.1340  177.4090  145.4200 C   0  0  0  0  0  2  0  0  0  0  0  0
  187.0250  178.1370  139.2770 C   0  0  0  0  0  0  0  0  0  0  0  0
  185.7480  178.6020  138.6420 C   0  0  0  0  0  2  0  0  0  0  0  0
  190.7940  177.1190  140.9600 C   0  0  0  0  0  3  0  0  0  0  0  0
  190.1030  178.0590  143.0620 N   0  0  0  0  0  0  0  0  0  0  0  0
  190.5120  178.4720  144.3960 C   0  0  0  0  0  2  0  0  0  0  0  0
  192.4690  176.0290  136.5270 C   0  0  0  0  0  1  0  0  0  0  0  0
  190.3480  173.1280  135.8500 O   0  0  0  0  0  0  0  0  0  0  0  0
  189.1200  174.8680  137.3820 O   0  0  0  0  0  0  0  0  0  0  0  0
  190.1740  175.5600  137.3690 C   0  0  0  0  0  0  0  0  0  0  0  0
  191.3030  173.9480  135.7770 C   0  0  0  0  0  0  0  0  0  0  0  0
  191.2950  175.1640  136.5550 N   0  0  0  0  0  0  0  0  0  0  0  0
  190.2590  176.7530  138.1630 N   0  0  0  0  0  2  0  0  0  0  0  0
  192.4330  173.6380  134.8480 C   0  0  0  0  0  2  0  0  0  0  0  0
  193.2940  172.5660  135.4220 C   0  0  0  0  0  0  0  0  0  0  0  0
  194.1020  172.8360  136.3480 O   0  0  0  0  0  1  0  0  0  0  0  0
  193.1810  171.2610  134.9600 O   0  0  0  0  0  0  0  0  0  0  0  0
  1 14  1  0  0  0  0
  1  9  2  0  0  0  0
  2  3  1  0  0  0  0
  3 19  1  0  0  0  0
  3  7  1  1  0  0  0
  4 11  2  0  0  0  0
  5  2  1  0  0  0  0
  5 14  1  0  0  0  0
  6  1  1  0  0  0  0
  7  4  1  0  0  0  0
  8 13  1  0  0  0  0
 10 19  1  0  0  0  0
 12  8  2  0  0  0  0
 12 16  1  0  0  0  0
 13 18  1  0  0  0  0
 13  2  2  0  0  0  0
 15 11  1  0  0  0  0
 16  5  2  0  0  0  0
 17 16  1  0  0  0  0
 17  6  1  0  0  0  0
 18 10  2  0  0  0  0
 19 20  1  0  0  0  0
 20 15  1  0  0  0  0
 21 26  1  0  0  0  0
 24 23  2  0  0  0  0
 24 27  1  0  0  0  0
 25 22  2  0  0  0  0
 25 26  1  0  0  0  0
 26 24  1  0  0  0  0
 27  8  1  0  0  0  0
 28 29  1  0  0  0  0
 28 25  1  0  0  0  0
 29 30  1  0  0  0  0
 31 29  2  0  0  0  0
M  END
>  <MODEL>
4

>  <REMARK>
 VINA RESULT:      -7.7      1.355      1.589
  Name = 
  3 active torsions:
  status: ('A' for Active; 'I' for Inactive)
    1  A    between atoms: C_1  and  C_24
    2  A    between atoms: C_15  and  N_23
    3  A    between atoms: C_19  and  C_24
                            x       y       z     vdW  Elec       q    Type
                         _______ _______ _______ _____ _____    ______ ____

>  <TORSDO>
F 3

$$$$
=
 OpenBabel10262419353D

 31 34  0  0  1  0  0  0  0  0999 V2000
  186.1460  178.1670  146.4790 C   0  0  0  0  0  0  0  0  0  0  0  0
  186.6100  178.2950  142.7970 C   0  0  0  0  0  0  0  0  0  0  0  0
  188.0560  177.8730  142.6800 C   0  0  1  0  0  3  0  0  0  0  0  0
  189.5840  176.0270  143.3740 C   0  0  0  0  0  3  0  0  0  0  0  0
  186.0160  178.4300  144.0590 C   0  0  0  0  0  0  0  0  0  0  0  0
  184.6520  178.1350  146.5760 C   0  0  0  0  0  2  0  0  0  0  0  0
  188.1820  176.3800  142.9710 C   0  0  0  0  0  2  0  0  0  0  0  0
  184.4650  178.7980  141.7710 C   0  0  0  0  0  0  0  0  0  0  0  0
  186.8460  178.0680  147.5200 O   0  0  0  0  0  0  0  0  0  0  0  0
  187.7720  178.2530  140.1910 C   0  0  0  0  0  3  0  0  0  0  0  0
  190.6450  176.1710  142.5680 C   0  0  0  0  0  3  0  0  0  0  0  0
  183.9230  178.9330  143.0130 N   0  0  0  0  0  0  0  0  0  0  0  0
  185.8280  178.4830  141.6400 C   0  0  0  0  0  0  0  0  0  0  0  0
  186.7640  178.2360  145.2270 O   0  0  0  0  0  0  0  0  0  0  0  0
  190.5550  176.6990  141.1650 C   0  0  0  0  0  2  0  0  0  0  0  0
  184.6520  178.7520  144.1450 C   0  0  0  0  0  0  0  0  0  0  0  0
  184.0250  179.0030  145.4840 C   0  0  0  0  0  2  0  0  0  0  0  0
  186.4550  178.3920  140.3110 C   0  0  0  0  0  3  0  0  0  0  0  0
  188.6100  178.1720  141.3510 N   0  0  0  0  0  0  0  0  0  0  0  0
  190.0520  178.1380  141.1530 C   0  0  0  0  0  2  0  0  0  0  0  0
  182.0950  179.7450  138.3480 C   0  0  0  0  0  1  0  0  0  0  0  0
  181.6840  176.1210  138.0860 O   0  0  0  0  0  0  0  0  0  0  0  0
  183.0550  176.7710  140.2260 O   0  0  0  0  0  0  0  0  0  0  0  0
  182.9790  177.9750  139.8580 C   0  0  0  0  0  0  0  0  0  0  0  0
  181.5360  177.3550  137.8720 C   0  0  0  0  0  0  0  0  0  0  0  0
  182.2020  178.3340  138.6980 N   0  0  0  0  0  0  0  0  0  0  0  0
  183.6630  178.9970  140.5990 N   0  0  0  0  0  2  0  0  0  0  0  0
  180.6370  177.7770  136.7540 C   0  0  0  0  0  2  0  0  0  0  0  0
  181.2480  177.4270  135.4400 C   0  0  0  0  0  0  0  0  0  0  0  0
  180.5960  176.7530  134.6030 O   0  0  0  0  0  0  0  0  0  0  0  0
  182.5240  177.8760  135.1260 O   0  0  0  0  0  1  0  0  0  0  0  0
  1  6  1  0  0  0  0
  1  9  2  0  0  0  0
  2  5  1  0  0  0  0
  3  2  1  0  0  0  0
  3  7  1  6  0  0  0
  5 16  2  0  0  0  0
  5 14  1  0  0  0  0
  7  4  1  0  0  0  0
  8 12  2  0  0  0  0
 10 18  2  0  0  0  0
 10 19  1  0  0  0  0
 11  4  2  0  0  0  0
 12 16  1  0  0  0  0
 13  8  1  0  0  0  0
 13  2  2  0  0  0  0
 14  1  1  0  0  0  0
 15 11  1  0  0  0  0
 16 17  1  0  0  0  0
 17  6  1  0  0  0  0
 18 13  1  0  0  0  0
 19  3  1  0  0  0  0
 20 15  1  0  0  0  0
 20 19  1  0  0  0  0
 21 26  1  0  0  0  0
 24 23  2  0  0  0  0
 24 27  1  0  0  0  0
 25 22  2  0  0  0  0
 25 26  1  0  0  0  0
 26 24  1  0  0  0  0
 27  8  1  0  0  0  0
 28 25  1  0  0  0  0
 29 28  1  0  0  0  0
 30 29  2  0  0  0  0
 31 29  1  0  0  0  0
M  END
>  <MODEL>
5

>  <REMARK>
 VINA RESULT:      -7.7      5.276      8.501
  Name = 
  3 active torsions:
  status: ('A' for Active; 'I' for Inactive)
    1  A    between atoms: C_1  and  C_24
    2  A    between atoms: C_15  and  N_23
    3  A    between atoms: C_19  and  C_24
                            x       y       z     vdW  Elec       q    Type
                         _______ _______ _______ _____ _____    ______ ____

>  <TORSDO>
F 3

$$$$
=
 OpenBabel10262419353D

 31 34  0  0  1  0  0  0  0  0999 V2000
  186.7590  178.4450  137.7650 C   0  0  0  0  0  0  0  0  0  0  0  0
  185.4280  178.4250  141.2310 C   0  0  0  0  0  0  0  0  0  0  0  0
  183.9470  178.5510  140.9650 C   0  0  1  0  0  3  0  0  0  0  0  0
  182.1260  177.4540  139.6590 C   0  0  0  0  0  3  0  0  0  0  0  0
  186.3390  178.4390  140.1660 C   0  0  0  0  0  0  0  0  0  0  0  0
  188.1280  177.8780  137.9830 C   0  0  0  0  0  2  0  0  0  0  0  0
  183.4100  177.2370  140.4050 C   0  0  0  0  0  2  0  0  0  0  0  0
  187.2750  178.0240  142.7590 C   0  0  0  0  0  0  0  0  0  0  0  0
  186.3600  178.6950  136.5980 O   0  0  0  0  0  0  0  0  0  0  0  0
  183.6870  178.5920  143.4860 C   0  0  0  0  0  3  0  0  0  0  0  0
  181.0040  177.9070  140.2350 C   0  0  0  0  0  3  0  0  0  0  0  0
  188.1340  178.0560  141.7020 N   0  0  0  0  0  0  0  0  0  0  0  0
  185.9010  178.2180  142.5420 C   0  0  0  0  0  0  0  0  0  0  0  0
  185.8980  178.6300  138.8500 O   0  0  0  0  0  0  0  0  0  0  0  0
  180.8980  178.2470  141.6930 C   0  0  0  0  0  2  0  0  0  0  0  0
  187.7050  178.2470  140.4270 C   0  0  0  0  0  0  0  0  0  0  0  0
  188.7030  178.3640  139.3140 C   0  0  0  0  0  2  0  0  0  0  0  0
  184.9590  178.2500  143.6730 C   0  0  0  0  0  3  0  0  0  0  0  0
  183.2000  178.9190  142.1780 N   0  0  0  0  0  0  0  0  0  0  0  0
  181.8300  179.3960  142.0560 C   0  0  0  0  0  2  0  0  0  0  0  0
  188.4090  177.5110  146.8440 C   0  0  0  0  0  1  0  0  0  0  0  0
  191.7450  176.9340  145.4630 O   0  0  0  0  0  0  0  0  0  0  0  0
  190.0330  177.5670  143.5790 O   0  0  0  0  0  0  0  0  0  0  0  0
  189.1350  177.5950  144.4640 C   0  0  0  0  0  0  0  0  0  0  0  0
  190.8180  177.1240  146.2950 C   0  0  0  0  0  0  0  0  0  0  0  0
  189.4740  177.4100  145.8520 N   0  0  0  0  0  0  0  0  0  0  0  0
  187.7660  177.8180  144.0910 N   0  0  0  0  0  2  0  0  0  0  0  0
  191.1510  177.0650  147.7520 C   0  0  0  0  0  2  0  0  0  0  0  0
  192.2640  176.1030  147.9890 C   0  0  0  0  0  0  0  0  0  0  0  0
  193.1790  176.3880  148.8040 O   0  0  0  0  0  1  0  0  0  0  0  0
  192.2740  174.8780  147.3350 O   0  0  0  0  0  0  0  0  0  0  0  0
  1  6  1  0  0  0  0
  1 14  1  0  0  0  0
  2 13  2  0  0  0  0
  3  7  1  1  0  0  0
  3  2  1  0  0  0  0
  3 19  1  0  0  0  0
  4 11  2  0  0  0  0
  4  7  1  0  0  0  0
  5 16  2  0  0  0  0
  5  2  1  0  0  0  0
  6 17  1  0  0  0  0
  8 27  1  0  0  0  0
  9  1  2  0  0  0  0
 10 18  2  0  0  0  0
 11 15  1  0  0  0  0
 12  8  2  0  0  0  0
 13  8  1  0  0  0  0
 13 18  1  0  0  0  0
 14  5  1  0  0  0  0
 15 20  1  0  0  0  0
 16 12  1  0  0  0  0
 17 16  1  0  0  0  0
 19 10  1  0  0  0  0
 20 19  1  0  0  0  0
 22 25  2  0  0  0  0
 23 24  2  0  0  0  0
 24 26  1  0  0  0  0
 25 28  1  0  0  0  0
 26 25  1  0  0  0  0
 26 21  1  0  0  0  0
 27 24  1  0  0  0  0
 28 29  1  0  0  0  0
 29 30  1  0  0  0  0
 31 29  2  0  0  0  0
M  END
>  <MODEL>
6

>  <REMARK>
 VINA RESULT:      -7.7      4.763      7.471
  Name = 
  3 active torsions:
  status: ('A' for Active; 'I' for Inactive)
    1  A    between atoms: C_1  and  C_24
    2  A    between atoms: C_15  and  N_23
    3  A    between atoms: C_19  and  C_24
                            x       y       z     vdW  Elec       q    Type
                         _______ _______ _______ _____ _____    ______ ____

>  <TORSDO>
F 3

$$$$
=
 OpenBabel10262419353D

 31 34  0  0  1  0  0  0  0  0999 V2000
  190.5160  177.4810  139.6580 C   0  0  0  0  0  0  0  0  0  0  0  0
  188.3210  177.6090  142.6500 C   0  0  0  0  0  0  0  0  0  0  0  0
  189.3190  177.3190  143.7450 C   0  0  1  0  0  3  0  0  0  0  0  0
  191.5080  178.1350  144.6200 C   0  0  0  0  0  3  0  0  0  0  0  0
  188.7270  177.6110  141.3090 C   0  0  0  0  0  0  0  0  0  0  0  0
  189.6660  178.1940  138.6510 C   0  0  0  0  0  2  0  0  0  0  0  0
  190.2230  178.5310  143.9540 C   0  0  0  0  0  2  0  0  0  0  0  0
  186.1000  178.2970  141.9420 C   0  0  0  0  0  0  0  0  0  0  0  0
  191.6790  177.1110  139.3500 O   0  0  0  0  0  0  0  0  0  0  0  0
  187.3400  177.4270  145.3230 C   0  0  0  0  0  3  0  0  0  0  0  0
  191.5730  177.6150  145.8530 C   0  0  0  0  0  3  0  0  0  0  0  0
  186.5250  178.2770  140.6480 N   0  0  0  0  0  0  0  0  0  0  0  0
  186.9930  177.9530  142.9710 C   0  0  0  0  0  0  0  0  0  0  0  0
  190.0440  177.2870  140.9590 O   0  0  0  0  0  0  0  0  0  0  0  0
  190.3690  177.3680  146.7140 C   0  0  0  0  0  2  0  0  0  0  0  0
  187.8010  177.9560  140.3110 C   0  0  0  0  0  0  0  0  0  0  0  0
  188.1890  177.8620  138.8650 C   0  0  0  0  0  2  0  0  0  0  0  0
  186.5430  177.9050  144.3720 C   0  0  0  0  0  3  0  0  0  0  0  0
  188.6600  176.9630  145.0110 N   0  0  0  0  0  0  0  0  0  0  0  0
  189.4380  176.3450  146.0740 C   0  0  0  0  0  2  0  0  0  0  0  0
  182.1780  179.4020  143.2210 C   0  0  0  0  0  1  0  0  0  0  0  0
  181.1600  178.1900  139.9250 O   0  0  0  0  0  0  0  0  0  0  0  0
  183.7250  177.8120  140.3270 O   0  0  0  0  0  0  0  0  0  0  0  0
  183.5920  178.3890  141.4400 C   0  0  0  0  0  0  0  0  0  0  0  0
  181.0940  178.6240  141.1070 C   0  0  0  0  0  0  0  0  0  0  0  0
  182.2880  178.7930  141.9010 N   0  0  0  0  0  0  0  0  0  0  0  0
  184.7440  178.6430  142.2590 N   0  0  0  0  0  2  0  0  0  0  0  0
  179.7450  178.9380  141.6710 C   0  0  0  0  0  2  0  0  0  0  0  0
  179.3210  180.3080  141.2650 C   0  0  0  0  0  0  0  0  0  0  0  0
  179.3480  181.2480  142.0990 O   0  0  0  0  0  1  0  0  0  0  0  0
  178.9310  180.5540  139.9550 O   0  0  0  0  0  0  0  0  0  0  0  0
  1 14  1  0  0  0  0
  2 13  2  0  0  0  0
  2  3  1  0  0  0  0
  3  7  1  1  0  0  0
  3 19  1  0  0  0  0
  4 11  2  0  0  0  0
  5  2  1  0  0  0  0
  6 17  1  0  0  0  0
  6  1  1  0  0  0  0
  7  4  1  0  0  0  0
  8 27  1  0  0  0  0
  8 13  1  0  0  0  0
  9  1  2  0  0  0  0
 11 15  1  0  0  0  0
 12  8  2  0  0  0  0
 13 18  1  0  0  0  0
 14  5  1  0  0  0  0
 16 12  1  0  0  0  0
 16  5  2  0  0  0  0
 17 16  1  0  0  0  0
 18 10  2  0  0  0  0
 19 10  1  0  0  0  0
 19 20  1  0  0  0  0
 20 15  1  0  0  0  0
 22 25  2  0  0  0  0
 23 24  2  0  0  0  0
 24 26  1  0  0  0  0
 24 27  1  0  0  0  0
 25 28  1  0  0  0  0
 25 26  1  0  0  0  0
 26 21  1  0  0  0  0
 29 28  1  0  0  0  0
 29 30  1  0  0  0  0
 31 29  2  0  0  0  0
M  END
>  <MODEL>
7

>  <REMARK>
 VINA RESULT:      -7.4      3.817      9.017
  Name = 
  3 active torsions:
  status: ('A' for Active; 'I' for Inactive)
    1  A    between atoms: C_1  and  C_24
    2  A    between atoms: C_15  and  N_23
    3  A    between atoms: C_19  and  C_24
                            x       y       z     vdW  Elec       q    Type
                         _______ _______ _______ _____ _____    ______ ____

>  <TORSDO>
F 3

$$$$
=
 OpenBabel10262419353D

 31 34  0  0  1  0  0  0  0  0999 V2000
  192.7100  174.9930  135.8020 C   0  0  0  0  0  0  0  0  0  0  0  0
  190.1980  176.9120  137.7490 C   0  0  0  0  0  0  0  0  0  0  0  0
  189.0440  176.9340  136.7760 C   0  0  1  0  0  3  0  0  0  0  0  0
  187.6370  175.3810  135.4230 C   0  0  0  0  0  3  0  0  0  0  0  0
  191.4110  176.3090  137.3900 C   0  0  0  0  0  0  0  0  0  0  0  0
  193.6560  174.5800  136.8870 C   0  0  0  0  0  2  0  0  0  0  0  0
  188.4060  175.5500  136.7000 C   0  0  0  0  0  2  0  0  0  0  0  0
  191.1020  177.3280  139.9660 C   0  0  0  0  0  0  0  0  0  0  0  0
  192.8880  174.5870  134.6240 O   0  0  0  0  0  0  0  0  0  0  0  0
  187.8510  178.3470  138.5090 C   0  0  0  0  0  3  0  0  0  0  0  0
  186.5660  176.1190  135.1000 C   0  0  0  0  0  3  0  0  0  0  0  0
  192.2710  176.7460  139.5800 N   0  0  0  0  0  0  0  0  0  0  0  0
  190.0420  177.4300  139.0500 C   0  0  0  0  0  0  0  0  0  0  0  0
  191.5920  175.7730  136.1090 O   0  0  0  0  0  0  0  0  0  0  0  0
  186.0080  177.2000  135.9800 C   0  0  0  0  0  2  0  0  0  0  0  0
  192.4470  176.2330  138.3350 C   0  0  0  0  0  0  0  0  0  0  0  0
  193.7850  175.6860  137.9350 C   0  0  0  0  0  2  0  0  0  0  0  0
  188.7890  178.1100  139.4210 C   0  0  0  0  0  3  0  0  0  0  0  0
  188.0280  177.9320  137.1490 N   0  0  0  0  0  0  0  0  0  0  0  0
  187.0190  178.3230  136.1760 C   0  0  0  0  0  2  0  0  0  0  0  0
  190.9310  179.1340  143.8330 C   0  0  0  0  0  1  0  0  0  0  0  0
  188.5130  176.4880  144.5570 O   0  0  0  0  0  0  0  0  0  0  0  0
  189.5160  176.2260  142.1470 O   0  0  0  0  0  0  0  0  0  0  0  0
  190.1630  177.2900  142.3470 C   0  0  0  0  0  0  0  0  0  0  0  0
  189.3000  177.4580  144.7210 C   0  0  0  0  0  0  0  0  0  0  0  0
  190.1180  177.9390  143.6320 N   0  0  0  0  0  0  0  0  0  0  0  0
  190.9530  177.8580  141.2910 N   0  0  0  0  0  2  0  0  0  0  0  0
  189.3800  178.0850  146.0770 C   0  0  0  0  0  2  0  0  0  0  0  0
  189.4460  177.0310  147.1290 C   0  0  0  0  0  0  0  0  0  0  0  0
  190.5100  176.3850  147.3060 O   0  0  0  0  0  0  0  0  0  0  0  0
  188.3420  176.7860  147.9360 O   0  0  0  0  0  1  0  0  0  0  0  0
  1 14  1  0  0  0  0
  1  6  1  0  0  0  0
  2 13  2  0  0  0  0
  3  7  1  1  0  0  0
  3 19  1  0  0  0  0
  3  2  1  0  0  0  0
  4  7  1  0  0  0  0
  5  2  1  0  0  0  0
  5 16  2  0  0  0  0
  6 17  1  0  0  0  0
  8 27  1  0  0  0  0
  9  1  2  0  0  0  0
 10 18  2  0  0  0  0
 11  4  2  0  0  0  0
 11 15  1  0  0  0  0
 12  8  2  0  0  0  0
 13 18  1  0  0  0  0
 13  8  1  0  0  0  0
 14  5  1  0  0  0  0
 15 20  1  0  0  0  0
 16 12  1  0  0  0  0
 17 16  1  0  0  0  0
 19 10  1  0  0  0  0
 20 19  1  0  0  0  0
 22 25  2  0  0  0  0
 23 24  2  0  0  0  0
 24 26  1  0  0  0  0
 25 28  1  0  0  0  0
 26 21  1  0  0  0  0
 26 25  1  0  0  0  0
 27 24  1  0  0  0  0
 28 29  1  0  0  0  0
 29 30  2  0  0  0  0
 29 31  1  0  0  0  0
M  END
>  <MODEL>
8

>  <REMARK>
 VINA RESULT:      -7.4      2.891      8.021
  Name = 
  3 active torsions:
  status: ('A' for Active; 'I' for Inactive)
    1  A    between atoms: C_1  and  C_24
    2  A    between atoms: C_15  and  N_23
    3  A    between atoms: C_19  and  C_24
                            x       y       z     vdW  Elec       q    Type
                         _______ _______ _______ _____ _____    ______ ____

>  <TORSDO>
F 3

$$$$
=
 OpenBabel10262419353D

 31 34  0  0  1  0  0  0  0  0999 V2000
  188.6860  177.5860  136.2040 C   0  0  0  0  0  0  0  0  0  0  0  0
  186.6100  178.2880  139.2010 C   0  0  0  0  0  0  0  0  0  0  0  0
  185.2750  178.5770  138.5580 C   0  0  1  0  0  3  0  0  0  0  0  0
  183.6420  177.5580  136.9710 C   0  0  0  0  0  3  0  0  0  0  0  0
  187.7300  178.0100  138.4050 C   0  0  0  0  0  0  0  0  0  0  0  0
  189.8490  176.8740  136.8240 C   0  0  0  0  0  2  0  0  0  0  0  0
  184.6620  177.2800  138.0360 C   0  0  0  0  0  2  0  0  0  0  0  0
  187.9570  177.8730  141.1810 C   0  0  0  0  0  0  0  0  0  0  0  0
  188.6170  177.7070  134.9530 O   0  0  0  0  0  0  0  0  0  0  0  0
  184.4520  179.0420  140.9090 C   0  0  0  0  0  3  0  0  0  0  0  0
  182.5130  178.2460  137.1880 C   0  0  0  0  0  3  0  0  0  0  0  0
  189.0280  177.6210  140.3780 N   0  0  0  0  0  0  0  0  0  0  0  0
  186.7250  178.2210  140.6040 C   0  0  0  0  0  0  0  0  0  0  0  0
  187.6440  178.0550  137.0090 O   0  0  0  0  0  0  0  0  0  0  0  0
  182.1340  178.8180  138.5240 C   0  0  0  0  0  2  0  0  0  0  0  0
  188.9440  177.6720  139.0230 C   0  0  0  0  0  0  0  0  0  0  0  0
  190.1770  177.4740  138.1920 C   0  0  0  0  0  2  0  0  0  0  0  0
  185.5670  178.5600  141.4490 C   0  0  0  0  0  3  0  0  0  0  0  0
  184.3430  179.2280  139.4920 N   0  0  0  0  0  0  0  0  0  0  0  0
  183.1430  179.8680  138.9750 C   0  0  0  0  0  2  0  0  0  0  0  0
  188.0210  177.8590  145.4510 C   0  0  0  0  0  1  0  0  0  0  0  0
  191.3640  176.4390  145.0300 O   0  0  0  0  0  0  0  0  0  0  0  0
  190.2930  177.0520  142.7150 O   0  0  0  0  0  0  0  0  0  0  0  0
  189.2520  177.3990  143.3370 C   0  0  0  0  0  0  0  0  0  0  0  0
  190.3430  176.9390  145.5740 C   0  0  0  0  0  0  0  0  0  0  0  0
  189.2270  177.3920  144.7780 N   0  0  0  0  0  0  0  0  0  0  0  0
  188.0840  177.8080  142.6090 N   0  0  0  0  0  2  0  0  0  0  0  0
  190.3260  177.0670  147.0640 C   0  0  0  0  0  2  0  0  0  0  0  0
  191.5330  176.4210  147.6520 C   0  0  0  0  0  0  0  0  0  0  0  0
  192.4250  177.1260  148.1890 O   0  0  0  0  0  1  0  0  0  0  0  0
  191.6570  175.0380  147.6370 O   0  0  0  0  0  0  0  0  0  0  0  0
  1  6  1  0  0  0  0
  1 14  1  0  0  0  0
  2 13  2  0  0  0  0
  3  7  1  1  0  0  0
  3  2  1  0  0  0  0
  3 19  1  0  0  0  0
  4 11  2  0  0  0  0
  4  7  1  0  0  0  0
  5 16  2  0  0  0  0
  5  2  1  0  0  0  0
  6 17  1  0  0  0  0
  8 27  1  0  0  0  0
  9  1  2  0  0  0  0
 10 18  2  0  0  0  0
 11 15  1  0  0  0  0
 12  8  2  0  0  0  0
 13  8  1  0  0  0  0
 13 18  1  0  0  0  0
 14  5  1  0  0  0  0
 15 20  1  0  0  0  0
 16 12  1  0  0  0  0
 17 16  1  0  0  0  0
 19 10  1  0  0  0  0
 20 19  1  0  0  0  0
 22 25  2  0  0  0  0
 23 24  2  0  0  0  0
 24 26  1  0  0  0  0
 25 28  1  0  0  0  0
 26 21  1  0  0  0  0
 26 25  1  0  0  0  0
 27 24  1  0  0  0  0
 28 29  1  0  0  0  0
 29 30  1  0  0  0  0
 31 29  2  0  0  0  0
M  END
>  <MODEL>
9

>  <REMARK>
 VINA RESULT:      -7.4      3.881      7.489
  Name = 
  3 active torsions:
  status: ('A' for Active; 'I' for Inactive)
    1  A    between atoms: C_1  and  C_24
    2  A    between atoms: C_15  and  N_23
    3  A    between atoms: C_19  and  C_24
                            x       y       z     vdW  Elec       q    Type
                         _______ _______ _______ _____ _____    ______ ____

>  <TORSDO>
F 3

$$$$
