=
 OpenBabel10262421413D

 32 36  0  0  1  0  0  0  0  0999 V2000
  191.5060  176.4450  137.2120 C   0  0  0  0  0  0  0  0  0  0  0  0
  188.3860  177.9260  140.8910 C   0  0  0  0  0  0  0  0  0  0  0  0
  185.9540  178.6000  141.3230 C   0  0  0  0  0  0  0  0  0  0  0  0
  184.8660  178.5950  142.3150 C   0  0  0  0  0  0  0  0  0  0  0  0
  189.3070  177.3470  138.7170 C   0  0  0  0  0  0  0  0  0  0  0  0
  190.5580  176.7810  140.7900 C   0  0  0  0  0  3  0  0  0  0  0  0
  182.9880  179.0740  144.3880 C   0  0  0  0  0  3  0  0  0  0  0  0
  191.5030  176.3040  138.6090 O   0  0  0  0  0  0  0  0  0  0  0  0
  189.6460  177.4580  141.5110 C   0  0  0  0  0  0  0  0  0  0  0  0
  189.8710  177.7860  142.9020 N   0  0  0  0  0  0  0  0  0  0  0  0
  187.4650  177.8160  143.1720 C   0  0  1  0  0  3  0  0  0  0  0  0
  182.4860  178.7820  142.9960 C   0  0  0  0  0  2  0  0  0  0  0  0
  190.4770  177.0430  136.6030 C   0  0  0  0  0  3  0  0  0  0  0  0
  190.2920  176.4010  139.3610 C   0  0  2  0  0  3  0  0  0  0  0  0
  183.5880  178.7770  141.9680 C   0  0  0  0  0  3  0  0  0  0  0  0
  189.3630  177.5790  137.4060 C   0  0  0  0  0  3  0  0  0  0  0  0
  188.7910  177.8940  143.8180 N   0  0  0  0  0  0  0  0  0  0  0  0
  186.4290  178.2610  144.1120 N   0  0  0  0  0  0  0  0  0  0  0  0
  188.2610  177.9440  139.5530 C   0  0  0  0  0  3  0  0  0  0  0  0
  185.6880  178.7580  140.1000 O   0  0  0  0  0  0  0  0  0  0  0  0
  184.2370  178.9160  144.7140 N   0  0  0  0  0  0  0  0  0  0  0  0
  187.3900  178.5680  141.8220 C   0  0  1  0  0  3  0  0  0  0  0  0
  185.2180  178.5400  143.7420 C   0  0  0  0  0  0  0  0  0  0  0  0
  191.4350  179.3330  143.9670 C   0  0  0  0  0  2  0  0  0  0  0  0
  191.1720  178.1590  143.4010 C   0  0  0  0  0  3  0  0  0  0  0  0
  189.0580  177.2390  146.1450 C   0  0  0  0  0  1  0  0  0  0  0  0
  188.8800  176.7510  144.7220 C   0  0  0  0  0  2  0  0  0  0  0  0
  192.5820  175.9930  136.4530 O   0  0  0  0  0  0  0  0  0  0  0  0
  193.3640  174.8840  136.8700 C   0  0  0  0  0  2  0  0  0  0  0  0
  194.6820  175.3390  137.2810 N   0  0  0  0  0  0  0  0  0  0  0  0
  195.5850  175.0900  136.1710 C   0  0  0  0  0  1  0  0  0  0  0  0
  195.1030  174.4670  138.3620 C   0  0  0  0  0  1  0  0  0  0  0  0
  1  8  1  0  0  0  0
  2  9  1  0  0  0  0
  3 22  1  0  0  0  0
  3  4  1  0  0  0  0
  4 23  1  0  0  0  0
  5 14  1  0  0  0  0
  5 19  1  0  0  0  0
  6  9  2  0  0  0  0
  7 21  2  0  0  0  0
  8 14  1  0  0  0  0
  9 10  1  0  0  0  0
 10 25  1  0  0  0  0
 10 17  1  0  0  0  0
 11 17  1  0  0  0  0
 11 18  1  1  0  0  0
 12  7  1  0  0  0  0
 13  1  2  0  0  0  0
 13 16  1  0  0  0  0
 14  6  1  1  0  0  0
 15  4  2  0  0  0  0
 15 12  1  0  0  0  0
 16  5  2  0  0  0  0
 17 27  1  0  0  0  0
 19  2  2  0  0  0  0
 20  3  2  0  0  0  0
 22  2  1  6  0  0  0
 22 11  1  0  0  0  0
 23 18  2  0  0  0  0
 23 21  1  0  0  0  0
 25 24  2  0  0  0  0
 27 26  1  0  0  0  0
 28 29  1  0  0  0  0
 28  1  1  0  0  0  0
 29 30  1  0  0  0  0
 30 32  1  0  0  0  0
 31 30  1  0  0  0  0
M  END
>  <MODEL>
1

>  <REMARK>
 VINA RESULT:      -8.9      0.000      0.000
  Name = 
  5 active torsions:
  status: ('A' for Active; 'I' for Inactive)
    1  A    between atoms: N_1  and  C_10
    2  A    between atoms: C_2  and  O_24
    3  A    between atoms: C_10  and  O_24
    4  A    between atoms: C_13  and  N_15
    5  A    between atoms: C_25  and  N_26
                            x       y       z     vdW  Elec       q    Type
                         _______ _______ _______ _____ _____    ______ ____

>  <TORSDO>
F 5

$$$$
=
 OpenBabel10262421413D

 32 36  0  0  1  0  0  0  0  0999 V2000
  189.2740  177.9380  137.4790 C   0  0  0  0  0  0  0  0  0  0  0  0
  187.8730  177.6470  142.3180 C   0  0  0  0  0  0  0  0  0  0  0  0
  188.8170  177.3030  144.6730 C   0  0  0  0  0  0  0  0  0  0  0  0
  188.6410  177.6360  146.0960 C   0  0  0  0  0  0  0  0  0  0  0  0
  189.1850  177.6110  140.2710 C   0  0  0  0  0  0  0  0  0  0  0  0
  186.8810  178.5460  140.2580 C   0  0  0  0  0  3  0  0  0  0  0  0
  187.9730  177.8260  148.8480 C   0  0  0  0  0  3  0  0  0  0  0  0
  188.1690  178.4080  138.2080 O   0  0  0  0  0  0  0  0  0  0  0  0
  186.7210  178.1400  141.5300 C   0  0  0  0  0  0  0  0  0  0  0  0
  185.4220  178.1360  142.1660 N   0  0  0  0  0  0  0  0  0  0  0  0
  186.5770  178.3750  144.2810 C   0  0  1  0  0  3  0  0  0  0  0  0
  189.4270  177.8190  148.4430 C   0  0  0  0  0  2  0  0  0  0  0  0
  190.2640  177.3020  138.1100 C   0  0  0  0  0  3  0  0  0  0  0  0
  188.2420  178.5960  139.6230 C   0  0  2  0  0  3  0  0  0  0  0  0
  189.6250  177.4860  146.9870 C   0  0  0  0  0  3  0  0  0  0  0  0
  190.1760  177.0690  139.5630 C   0  0  0  0  0  3  0  0  0  0  0  0
  185.2860  178.3410  143.5650 N   0  0  0  0  0  0  0  0  0  0  0  0
  186.3460  178.2550  145.7260 N   0  0  0  0  0  0  0  0  0  0  0  0
  189.0210  177.3210  141.6990 C   0  0  0  0  0  3  0  0  0  0  0  0
  189.9320  176.8810  144.2600 O   0  0  0  0  0  0  0  0  0  0  0  0
  187.0190  177.9510  147.9730 N   0  0  0  0  0  0  0  0  0  0  0  0
  187.5970  177.3320  143.7650 C   0  0  1  0  0  3  0  0  0  0  0  0
  187.2970  177.9990  146.5710 C   0  0  0  0  0  0  0  0  0  0  0  0
  183.5780  178.6110  140.6350 C   0  0  0  0  0  2  0  0  0  0  0  0
  184.2200  177.7830  141.4520 C   0  0  0  0  0  3  0  0  0  0  0  0
  183.2800  179.4930  144.3150 C   0  0  0  0  0  1  0  0  0  0  0  0
  184.6760  179.6540  143.7480 C   0  0  0  0  0  2  0  0  0  0  0  0
  189.3370  178.1040  136.0980 O   0  0  0  0  0  0  0  0  0  0  0  0
  189.0960  177.0190  135.2130 C   0  0  0  0  0  2  0  0  0  0  0  0
  187.7410  176.5280  135.3960 N   0  0  0  0  0  0  0  0  0  0  0  0
  187.6230  175.3040  134.6240 C   0  0  0  0  0  1  0  0  0  0  0  0
  186.8610  177.4980  134.7700 C   0  0  0  0  0  1  0  0  0  0  0  0
  1 13  2  0  0  0  0
  1  8  1  0  0  0  0
  3  4  1  0  0  0  0
  4 23  1  0  0  0  0
  4 15  2  0  0  0  0
  5 19  1  0  0  0  0
  6  9  2  0  0  0  0
  8 14  1  0  0  0  0
  9 10  1  0  0  0  0
  9  2  1  0  0  0  0
 10 17  1  0  0  0  0
 11 18  1  1  0  0  0
 12  7  1  0  0  0  0
 13 16  1  0  0  0  0
 14  6  1  1  0  0  0
 14  5  1  0  0  0  0
 15 12  1  0  0  0  0
 16  5  2  0  0  0  0
 17 27  1  0  0  0  0
 17 11  1  0  0  0  0
 18 23  2  0  0  0  0
 19  2  2  0  0  0  0
 20  3  2  0  0  0  0
 21  7  2  0  0  0  0
 22  2  1  6  0  0  0
 22 11  1  0  0  0  0
 22  3  1  0  0  0  0
 23 21  1  0  0  0  0
 24 25  2  0  0  0  0
 25 10  1  0  0  0  0
 27 26  1  0  0  0  0
 28  1  1  0  0  0  0
 29 30  1  0  0  0  0
 29 28  1  0  0  0  0
 31 30  1  0  0  0  0
 32 30  1  0  0  0  0
M  END
>  <MODEL>
2

>  <REMARK>
 VINA RESULT:      -8.1      2.817      5.225
  Name = 
  5 active torsions:
  status: ('A' for Active; 'I' for Inactive)
    1  A    between atoms: N_1  and  C_10
    2  A    between atoms: C_2  and  O_24
    3  A    between atoms: C_10  and  O_24
    4  A    between atoms: C_13  and  N_15
    5  A    between atoms: C_25  and  N_26
                            x       y       z     vdW  Elec       q    Type
                         _______ _______ _______ _____ _____    ______ ____

>  <TORSDO>
F 5

$$$$
=
 OpenBabel10262421413D

 32 36  0  0  1  0  0  0  0  0999 V2000
  181.9250  179.0030  142.2600 C   0  0  0  0  0  0  0  0  0  0  0  0
  186.7320  178.2100  143.5760 C   0  0  0  0  0  0  0  0  0  0  0  0
  188.2110  177.7110  145.6050 C   0  0  0  0  0  0  0  0  0  0  0  0
  189.4400  177.0390  146.0570 C   0  0  0  0  0  0  0  0  0  0  0  0
  184.3270  178.5610  143.6550 C   0  0  0  0  0  0  0  0  0  0  0  0
  185.4490  178.1130  141.4820 C   0  0  0  0  0  3  0  0  0  0  0  0
  192.0560  176.2290  146.8020 C   0  0  0  0  0  3  0  0  0  0  0  0
  183.0690  178.5660  141.5720 O   0  0  0  0  0  0  0  0  0  0  0  0
  186.6430  178.1760  142.0990 C   0  0  0  0  0  0  0  0  0  0  0  0
  187.8790  178.2490  141.3510 N   0  0  0  0  0  0  0  0  0  0  0  0
  188.9670  177.2270  143.2570 C   0  0  1  0  0  3  0  0  0  0  0  0
  190.9290  176.0750  147.7930 C   0  0  0  0  0  2  0  0  0  0  0  0
  181.9910  179.2440  143.5720 C   0  0  0  0  0  3  0  0  0  0  0  0
  184.1750  177.9860  142.2680 C   0  0  2  0  0  3  0  0  0  0  0  0
  189.6600  176.7520  147.3430 C   0  0  0  0  0  3  0  0  0  0  0  0
  183.2730  179.0820  144.2830 C   0  0  0  0  0  3  0  0  0  0  0  0
  189.0840  177.6970  141.8620 N   0  0  0  0  0  0  0  0  0  0  0  0
  190.3040  176.9860  143.8130 N   0  0  0  0  0  0  0  0  0  0  0  0
  185.6370  178.4730  144.3090 C   0  0  0  0  0  3  0  0  0  0  0  0
  187.3170  178.0140  146.4420 O   0  0  0  0  0  0  0  0  0  0  0  0
  191.8370  176.5300  145.5560 N   0  0  0  0  0  0  0  0  0  0  0  0
  188.1220  178.1610  144.1550 C   0  0  1  0  0  3  0  0  0  0  0  0
  190.5180  176.8170  145.0810 C   0  0  0  0  0  0  0  0  0  0  0  0
  187.8590  178.4680  138.9160 C   0  0  0  0  0  2  0  0  0  0  0  0
  187.9910  179.0030  140.1260 C   0  0  0  0  0  3  0  0  0  0  0  0
  190.7050  176.7350  140.3260 C   0  0  0  0  0  1  0  0  0  0  0  0
  189.3930  176.5220  141.0540 C   0  0  0  0  0  2  0  0  0  0  0  0
  180.7260  179.2140  141.5850 O   0  0  0  0  0  0  0  0  0  0  0  0
  180.6230  179.0120  140.1820 C   0  0  0  0  0  2  0  0  0  0  0  0
  181.0900  180.1950  139.4800 N   0  0  0  0  0  0  0  0  0  0  0  0
  180.0450  181.1970  139.5920 C   0  0  0  0  0  1  0  0  0  0  0  0
  181.1740  179.8380  138.0760 C   0  0  0  0  0  1  0  0  0  0  0  0
  1 13  2  0  0  0  0
  2 19  2  0  0  0  0
  3  4  1  0  0  0  0
  3 20  2  0  0  0  0
  4 15  2  0  0  0  0
  5 16  2  0  0  0  0
  5 19  1  0  0  0  0
  6  9  2  0  0  0  0
  7 12  1  0  0  0  0
  8  1  1  0  0  0  0
  8 14  1  0  0  0  0
  9  2  1  0  0  0  0
 10 17  1  0  0  0  0
 10  9  1  0  0  0  0
 11 18  1  1  0  0  0
 11 22  1  0  0  0  0
 13 16  1  0  0  0  0
 14  6  1  6  0  0  0
 14  5  1  0  0  0  0
 15 12  1  0  0  0  0
 17 11  1  0  0  0  0
 18 23  2  0  0  0  0
 21  7  2  0  0  0  0
 22  2  1  6  0  0  0
 22  3  1  0  0  0  0
 23 21  1  0  0  0  0
 23  4  1  0  0  0  0
 24 25  2  0  0  0  0
 25 10  1  0  0  0  0
 26 27  1  0  0  0  0
 27 17  1  0  0  0  0
 28  1  1  0  0  0  0
 29 28  1  0  0  0  0
 30 31  1  0  0  0  0
 30 29  1  0  0  0  0
 32 30  1  0  0  0  0
M  END
>  <MODEL>
3

>  <REMARK>
 VINA RESULT:      -7.5      3.816      8.495
  Name = 
  5 active torsions:
  status: ('A' for Active; 'I' for Inactive)
    1  A    between atoms: N_1  and  C_10
    2  A    between atoms: C_2  and  O_24
    3  A    between atoms: C_10  and  O_24
    4  A    between atoms: C_13  and  N_15
    5  A    between atoms: C_25  and  N_26
                            x       y       z     vdW  Elec       q    Type
                         _______ _______ _______ _____ _____    ______ ____

>  <TORSDO>
F 5

$$$$
=
 OpenBabel10262421413D

 32 36  0  0  1  0  0  0  0  0999 V2000
  189.5140  177.9770  144.3730 C   0  0  0  0  0  0  0  0  0  0  0  0
  191.0310  176.9490  139.6710 C   0  0  0  0  0  0  0  0  0  0  0  0
  193.1100  176.3180  138.3160 C   0  0  0  0  0  0  0  0  0  0  0  0
  193.5950  175.5820  137.1370 C   0  0  0  0  0  0  0  0  0  0  0  0
  191.0060  177.3910  142.0620 C   0  0  0  0  0  0  0  0  0  0  0  0
  188.8750  176.9790  140.8500 C   0  0  0  0  0  3  0  0  0  0  0  0
  194.4350  174.6430  134.5940 C   0  0  0  0  0  3  0  0  0  0  0  0
  188.8670  177.5210  143.2130 O   0  0  0  0  0  0  0  0  0  0  0  0
  189.5510  176.9730  139.6870 C   0  0  0  0  0  0  0  0  0  0  0  0
  188.8680  177.0240  138.4130 N   0  0  0  0  0  0  0  0  0  0  0  0
  190.7840  175.8910  137.4620 C   0  0  1  0  0  3  0  0  0  0  0  0
  195.3630  174.4970  135.7740 C   0  0  0  0  0  2  0  0  0  0  0  0
  190.8360  178.1670  144.3630 C   0  0  0  0  0  3  0  0  0  0  0  0
  189.5920  176.8730  142.1660 C   0  0  2  0  0  3  0  0  0  0  0  0
  194.8780  175.2400  136.9920 C   0  0  0  0  0  3  0  0  0  0  0  0
  191.6020  177.9290  143.1260 C   0  0  0  0  0  3  0  0  0  0  0  0
  189.4160  176.4070  137.2570 N   0  0  0  0  0  0  0  0  0  0  0  0
  191.3950  175.5780  136.1640 N   0  0  0  0  0  0  0  0  0  0  0  0
  191.7200  177.2270  140.7910 C   0  0  0  0  0  3  0  0  0  0  0  0
  193.9130  176.6250  139.2390 O   0  0  0  0  0  0  0  0  0  0  0  0
  193.1920  174.9980  134.7390 N   0  0  0  0  0  0  0  0  0  0  0  0
  191.6760  176.8240  138.3150 C   0  0  1  0  0  3  0  0  0  0  0  0
  192.6650  175.3540  136.0200 C   0  0  0  0  0  0  0  0  0  0  0  0
  187.5430  178.7030  137.2290 C   0  0  0  0  0  2  0  0  0  0  0  0
  187.6800  177.8180  138.2110 C   0  0  0  0  0  3  0  0  0  0  0  0
  187.9740  175.4110  135.5710 C   0  0  0  0  0  1  0  0  0  0  0  0
  188.5790  175.2520  136.9510 C   0  0  0  0  0  2  0  0  0  0  0  0
  188.7890  178.2600  145.5280 O   0  0  0  0  0  0  0  0  0  0  0  0
  187.5450  177.6270  145.7920 C   0  0  0  0  0  2  0  0  0  0  0  0
  186.4680  178.5960  145.6770 N   0  0  0  0  0  0  0  0  0  0  0  0
  185.6380  178.4520  146.8600 C   0  0  0  0  0  1  0  0  0  0  0  0
  185.6570  178.1830  144.5470 C   0  0  0  0  0  1  0  0  0  0  0  0
  1 28  1  0  0  0  0
  2  9  1  0  0  0  0
  2 19  2  0  0  0  0
  3 20  2  0  0  0  0
  4  3  1  0  0  0  0
  5 14  1  0  0  0  0
  5 16  2  0  0  0  0
  7 21  2  0  0  0  0
  7 12  1  0  0  0  0
  8  1  1  0  0  0  0
  9  6  2  0  0  0  0
 10  9  1  0  0  0  0
 11 18  1  6  0  0  0
 11 22  1  0  0  0  0
 12 15  1  0  0  0  0
 13  1  2  0  0  0  0
 14  6  1  6  0  0  0
 14  8  1  0  0  0  0
 15  4  2  0  0  0  0
 16 13  1  0  0  0  0
 17 11  1  0  0  0  0
 17 10  1  0  0  0  0
 19  5  1  0  0  0  0
 21 23  1  0  0  0  0
 22  3  1  1  0  0  0
 22  2  1  0  0  0  0
 23 18  2  0  0  0  0
 23  4  1  0  0  0  0
 24 25  2  0  0  0  0
 25 10  1  0  0  0  0
 26 27  1  0  0  0  0
 27 17  1  0  0  0  0
 28 29  1  0  0  0  0
 30 29  1  0  0  0  0
 30 31  1  0  0  0  0
 32 30  1  0  0  0  0
M  END
>  <MODEL>
4

>  <REMARK>
 VINA RESULT:      -7.3      2.514      9.216
  Name = 
  5 active torsions:
  status: ('A' for Active; 'I' for Inactive)
    1  A    between atoms: N_1  and  C_10
    2  A    between atoms: C_2  and  O_24
    3  A    between atoms: C_10  and  O_24
    4  A    between atoms: C_13  and  N_15
    5  A    between atoms: C_25  and  N_26
                            x       y       z     vdW  Elec       q    Type
                         _______ _______ _______ _____ _____    ______ ____

>  <TORSDO>
F 5

$$$$
=
 OpenBabel10262421413D

 32 36  0  0  1  0  0  0  0  0999 V2000
  190.3860  176.6620  143.6410 C   0  0  0  0  0  0  0  0  0  0  0  0
  186.0050  178.3850  141.8250 C   0  0  0  0  0  0  0  0  0  0  0  0
  184.7360  178.7530  139.6320 C   0  0  0  0  0  0  0  0  0  0  0  0
  183.4020  178.7890  139.0100 C   0  0  0  0  0  0  0  0  0  0  0  0
  188.2670  177.5100  141.9990 C   0  0  0  0  0  0  0  0  0  0  0  0
  186.8060  177.5930  144.0090 C   0  0  0  0  0  3  0  0  0  0  0  0
  180.8380  179.3990  137.9570 C   0  0  0  0  0  3  0  0  0  0  0  0
  189.0980  176.8190  144.1780 O   0  0  0  0  0  0  0  0  0  0  0  0
  185.8800  178.2580  143.2950 C   0  0  0  0  0  0  0  0  0  0  0  0
  184.7520  178.9030  143.9310 N   0  0  0  0  0  0  0  0  0  0  0  0
  183.5530  178.6180  141.8460 C   0  0  1  0  0  3  0  0  0  0  0  0
  181.8630  178.7470  137.0630 C   0  0  0  0  0  2  0  0  0  0  0  0
  190.6090  176.9520  142.3570 C   0  0  0  0  0  3  0  0  0  0  0  0
  187.9460  176.8850  143.3340 C   0  0  2  0  0  3  0  0  0  0  0  0
  183.2330  178.6950  137.6870 C   0  0  0  0  0  3  0  0  0  0  0  0
  189.5100  177.4670  141.5200 C   0  0  0  0  0  3  0  0  0  0  0  0
  183.5050  179.0340  143.2630 N   0  0  0  0  0  0  0  0  0  0  0  0
  182.3480  179.0870  141.1510 N   0  0  0  0  0  0  0  0  0  0  0  0
  187.1710  178.1020  141.2220 C   0  0  0  0  0  3  0  0  0  0  0  0
  185.7610  178.6070  138.9120 O   0  0  0  0  0  0  0  0  0  0  0  0
  181.0180  179.5080  139.2410 N   0  0  0  0  0  0  0  0  0  0  0  0
  184.8500  179.0480  141.1200 C   0  0  1  0  0  3  0  0  0  0  0  0
  182.2400  179.0920  139.8590 C   0  0  0  0  0  0  0  0  0  0  0  0
  185.0680  178.9320  146.3540 C   0  0  0  0  0  2  0  0  0  0  0  0
  184.8670  179.5690  145.2050 C   0  0  0  0  0  3  0  0  0  0  0  0
  181.2370  178.8360  144.1170 C   0  0  0  0  0  1  0  0  0  0  0  0
  182.5670  178.1350  143.9270 C   0  0  0  0  0  2  0  0  0  0  0  0
  191.4420  176.2310  144.4400 O   0  0  0  0  0  0  0  0  0  0  0  0
  191.7530  176.8800  145.6650 C   0  0  0  0  0  2  0  0  0  0  0  0
  191.1820  176.1340  146.7740 N   0  0  0  0  0  0  0  0  0  0  0  0
  190.2980  177.0390  147.4860 C   0  0  0  0  0  1  0  0  0  0  0  0
  192.2780  175.8280  147.6750 C   0  0  0  0  0  1  0  0  0  0  0  0
  1  8  1  0  0  0  0
  1 28  1  0  0  0  0
  2  9  1  0  0  0  0
  4  3  1  0  0  0  0
  4 23  1  0  0  0  0
  5 14  1  0  0  0  0
  7 21  2  0  0  0  0
  9 10  1  0  0  0  0
  9  6  2  0  0  0  0
 10 25  1  0  0  0  0
 11 18  1  6  0  0  0
 11 17  1  0  0  0  0
 12 15  1  0  0  0  0
 12  7  1  0  0  0  0
 13  1  2  0  0  0  0
 14  6  1  1  0  0  0
 14  8  1  0  0  0  0
 15  4  2  0  0  0  0
 16  5  2  0  0  0  0
 16 13  1  0  0  0  0
 17 27  1  0  0  0  0
 17 10  1  0  0  0  0
 19  2  2  0  0  0  0
 19  5  1  0  0  0  0
 20  3  2  0  0  0  0
 21 23  1  0  0  0  0
 22  3  1  6  0  0  0
 22  2  1  0  0  0  0
 22 11  1  0  0  0  0
 23 18  2  0  0  0  0
 25 24  2  0  0  0  0
 27 26  1  0  0  0  0
 28 29  1  0  0  0  0
 29 30  1  0  0  0  0
 30 31  1  0  0  0  0
 30 32  1  0  0  0  0
M  END
>  <MODEL>
5

>  <REMARK>
 VINA RESULT:      -7.3      3.959      6.175
  Name = 
  5 active torsions:
  status: ('A' for Active; 'I' for Inactive)
    1  A    between atoms: N_1  and  C_10
    2  A    between atoms: C_2  and  O_24
    3  A    between atoms: C_10  and  O_24
    4  A    between atoms: C_13  and  N_15
    5  A    between atoms: C_25  and  N_26
                            x       y       z     vdW  Elec       q    Type
                         _______ _______ _______ _____ _____    ______ ____

>  <TORSDO>
F 5

$$$$
=
 OpenBabel10262421413D

 32 36  0  0  1  0  0  0  0  0999 V2000
  181.0860  178.5510  140.5630 C   0  0  0  0  0  0  0  0  0  0  0  0
  185.2410  178.5530  143.4270 C   0  0  0  0  0  0  0  0  0  0  0  0
  186.0070  178.6430  145.8680 C   0  0  0  0  0  0  0  0  0  0  0  0
  187.0490  178.2100  146.8150 C   0  0  0  0  0  0  0  0  0  0  0  0
  182.9280  178.6610  142.6860 C   0  0  0  0  0  0  0  0  0  0  0  0
  184.7010  177.8910  141.1230 C   0  0  0  0  0  3  0  0  0  0  0  0
  189.3130  177.8480  148.4870 C   0  0  0  0  0  3  0  0  0  0  0  0
  182.4040  178.1020  140.3770 O   0  0  0  0  0  0  0  0  0  0  0  0
  185.6320  178.2040  142.0420 C   0  0  0  0  0  0  0  0  0  0  0  0
  187.0390  178.2480  141.7110 N   0  0  0  0  0  0  0  0  0  0  0  0
  187.4910  177.7620  144.0390 C   0  0  1  0  0  3  0  0  0  0  0  0
  187.9330  177.7870  149.0950 C   0  0  0  0  0  2  0  0  0  0  0  0
  180.7210  179.0650  141.7410 C   0  0  0  0  0  3  0  0  0  0  0  0
  183.2470  177.7980  141.4890 C   0  0  2  0  0  3  0  0  0  0  0  0
  186.8550  178.2210  148.1370 C   0  0  0  0  0  3  0  0  0  0  0  0
  181.7110  179.1880  142.8260 C   0  0  0  0  0  3  0  0  0  0  0  0
  188.0340  177.9420  142.6780 N   0  0  0  0  0  0  0  0  0  0  0  0
  188.5870  177.7830  145.0160 N   0  0  0  0  0  0  0  0  0  0  0  0
  183.9610  178.8470  143.7110 C   0  0  0  0  0  3  0  0  0  0  0  0
  184.8830  179.0180  146.3000 O   0  0  0  0  0  0  0  0  0  0  0  0
  189.4950  177.8600  147.1990 N   0  0  0  0  0  0  0  0  0  0  0  0
  186.3730  178.7700  144.3970 C   0  0  1  0  0  3  0  0  0  0  0  0
  188.3890  177.9040  146.2920 C   0  0  0  0  0  0  0  0  0  0  0  0
  187.5400  178.0070  139.3310 C   0  0  0  0  0  2  0  0  0  0  0  0
  187.5130  178.7390  140.4400 C   0  0  0  0  0  3  0  0  0  0  0  0
  190.1050  176.8460  142.0280 C   0  0  0  0  0  1  0  0  0  0  0  0
  188.6250  176.6640  142.2950 C   0  0  0  0  0  2  0  0  0  0  0  0
  180.1600  178.4920  139.5250 O   0  0  0  0  0  0  0  0  0  0  0  0
  179.4410  179.6450  139.1100 C   0  0  0  0  0  2  0  0  0  0  0  0
  180.3550  180.6030  138.5100 N   0  0  0  0  0  0  0  0  0  0  0  0
  179.8940  181.9270  138.8910 C   0  0  0  0  0  1  0  0  0  0  0  0
  180.1790  180.5000  137.0740 C   0  0  0  0  0  1  0  0  0  0  0  0
  1 13  2  0  0  0  0
  2 19  2  0  0  0  0
  3 20  2  0  0  0  0
  3  4  1  0  0  0  0
  4 15  2  0  0  0  0
  5 16  2  0  0  0  0
  5 19  1  0  0  0  0
  6  9  2  0  0  0  0
  7 12  1  0  0  0  0
  8  1  1  0  0  0  0
  8 14  1  0  0  0  0
  9  2  1  0  0  0  0
 10  9  1  0  0  0  0
 10 17  1  0  0  0  0
 11 22  1  0  0  0  0
 11 18  1  1  0  0  0
 13 16  1  0  0  0  0
 14  6  1  6  0  0  0
 14  5  1  0  0  0  0
 15 12  1  0  0  0  0
 17 11  1  0  0  0  0
 18 23  2  0  0  0  0
 21  7  2  0  0  0  0
 22  2  1  6  0  0  0
 22  3  1  0  0  0  0
 23  4  1  0  0  0  0
 23 21  1  0  0  0  0
 24 25  2  0  0  0  0
 25 10  1  0  0  0  0
 26 27  1  0  0  0  0
 27 17  1  0  0  0  0
 28  1  1  0  0  0  0
 29 28  1  0  0  0  0
 30 31  1  0  0  0  0
 30 29  1  0  0  0  0
 32 30  1  0  0  0  0
M  END
>  <MODEL>
6

>  <REMARK>
 VINA RESULT:      -7.0      4.237      8.403
  Name = 
  5 active torsions:
  status: ('A' for Active; 'I' for Inactive)
    1  A    between atoms: N_1  and  C_10
    2  A    between atoms: C_2  and  O_24
    3  A    between atoms: C_10  and  O_24
    4  A    between atoms: C_13  and  N_15
    5  A    between atoms: C_25  and  N_26
                            x       y       z     vdW  Elec       q    Type
                         _______ _______ _______ _____ _____    ______ ____

>  <TORSDO>
F 5

$$$$
=
 OpenBabel10262421413D

 32 36  0  0  1  0  0  0  0  0999 V2000
  182.5620  178.7960  138.0270 C   0  0  0  0  0  0  0  0  0  0  0  0
  186.8750  178.3990  140.6150 C   0  0  0  0  0  0  0  0  0  0  0  0
  187.7850  178.1930  143.0000 C   0  0  0  0  0  0  0  0  0  0  0  0
  188.8680  177.6370  143.8260 C   0  0  0  0  0  0  0  0  0  0  0  0
  184.5260  178.6290  140.0330 C   0  0  0  0  0  0  0  0  0  0  0  0
  186.1870  178.0160  138.2880 C   0  0  0  0  0  3  0  0  0  0  0  0
  191.2170  177.0480  145.3060 C   0  0  0  0  0  3  0  0  0  0  0  0
  183.8560  178.3500  137.7110 O   0  0  0  0  0  0  0  0  0  0  0  0
  187.1770  178.2060  139.1790 C   0  0  0  0  0  0  0  0  0  0  0  0
  188.5630  178.2640  138.7700 N   0  0  0  0  0  0  0  0  0  0  0  0
  189.1380  177.5050  140.9960 C   0  0  1  0  0  3  0  0  0  0  0  0
  189.8740  176.9390  145.9860 C   0  0  0  0  0  2  0  0  0  0  0  0
  182.2780  179.1770  139.2750 C   0  0  0  0  0  3  0  0  0  0  0  0
  184.7550  177.9050  138.7290 C   0  0  2  0  0  3  0  0  0  0  0  0
  188.7520  177.4990  145.1500 C   0  0  0  0  0  3  0  0  0  0  0  0
  183.3330  179.1570  140.3050 C   0  0  0  0  0  3  0  0  0  0  0  0
  189.6050  177.8320  139.6340 N   0  0  0  0  0  0  0  0  0  0  0  0
  190.2890  177.3950  141.9010 N   0  0  0  0  0  0  0  0  0  0  0  0
  185.6210  178.6790  141.0080 C   0  0  0  0  0  3  0  0  0  0  0  0
  186.6960  178.5350  143.5390 O   0  0  0  0  0  0  0  0  0  0  0  0
  191.3240  177.2040  144.0200 N   0  0  0  0  0  0  0  0  0  0  0  0
  188.0670  178.4840  141.5340 C   0  0  1  0  0  3  0  0  0  0  0  0
  190.1690  177.3710  143.1920 C   0  0  0  0  0  0  0  0  0  0  0  0
  189.0560  178.2480  136.3760 C   0  0  0  0  0  2  0  0  0  0  0  0
  188.9730  178.8900  137.5370 C   0  0  0  0  0  3  0  0  0  0  0  0
  191.6290  176.7530  138.8280 C   0  0  0  0  0  1  0  0  0  0  0  0
  190.1420  176.5970  139.0720 C   0  0  0  0  0  2  0  0  0  0  0  0
  181.5760  178.8730  137.0460 O   0  0  0  0  0  0  0  0  0  0  0  0
  180.5250  179.8240  137.1290 C   0  0  0  0  0  2  0  0  0  0  0  0
  180.9760  181.1010  136.6010 N   0  0  0  0  0  0  0  0  0  0  0  0
  180.4120  182.1360  137.4490 C   0  0  0  0  0  1  0  0  0  0  0  0
  180.3580  181.2510  135.2960 C   0  0  0  0  0  1  0  0  0  0  0  0
  1 13  2  0  0  0  0
  2 19  2  0  0  0  0
  3 20  2  0  0  0  0
  3  4  1  0  0  0  0
  4 15  2  0  0  0  0
  5 16  2  0  0  0  0
  5 19  1  0  0  0  0
  6  9  2  0  0  0  0
  7 12  1  0  0  0  0
  8  1  1  0  0  0  0
  8 14  1  0  0  0  0
  9  2  1  0  0  0  0
 10  9  1  0  0  0  0
 10 17  1  0  0  0  0
 11 22  1  0  0  0  0
 11 18  1  1  0  0  0
 13 16  1  0  0  0  0
 14  6  1  6  0  0  0
 14  5  1  0  0  0  0
 15 12  1  0  0  0  0
 17 11  1  0  0  0  0
 18 23  2  0  0  0  0
 21  7  2  0  0  0  0
 22  2  1  6  0  0  0
 22  3  1  0  0  0  0
 23  4  1  0  0  0  0
 23 21  1  0  0  0  0
 24 25  2  0  0  0  0
 25 10  1  0  0  0  0
 26 27  1  0  0  0  0
 27 17  1  0  0  0  0
 28 29  1  0  0  0  0
 28  1  1  0  0  0  0
 30 29  1  0  0  0  0
 30 31  1  0  0  0  0
 32 30  1  0  0  0  0
M  END
>  <MODEL>
7

>  <REMARK>
 VINA RESULT:      -6.9      3.414      7.988
  Name = 
  5 active torsions:
  status: ('A' for Active; 'I' for Inactive)
    1  A    between atoms: N_1  and  C_10
    2  A    between atoms: C_2  and  O_24
    3  A    between atoms: C_10  and  O_24
    4  A    between atoms: C_13  and  N_15
    5  A    between atoms: C_25  and  N_26
                            x       y       z     vdW  Elec       q    Type
                         _______ _______ _______ _____ _____    ______ ____

>  <TORSDO>
F 5

$$$$
=
 OpenBabel10262421413D

 32 36  0  0  1  0  0  0  0  0999 V2000
  189.3680  177.5780  147.3090 C   0  0  0  0  0  0  0  0  0  0  0  0
  186.8710  177.8760  142.9340 C   0  0  0  0  0  0  0  0  0  0  0  0
  184.5500  178.3570  141.9660 C   0  0  0  0  0  0  0  0  0  0  0  0
  183.8240  178.9080  140.8100 C   0  0  0  0  0  0  0  0  0  0  0  0
  187.4120  177.8340  145.3040 C   0  0  0  0  0  0  0  0  0  0  0  0
  189.2310  177.9550  143.6140 C   0  0  0  0  0  3  0  0  0  0  0  0
  182.4550  179.4470  138.3820 C   0  0  0  0  0  3  0  0  0  0  0  0
  189.7500  177.8110  145.9770 O   0  0  0  0  0  0  0  0  0  0  0  0
  188.3190  177.7970  142.6380 C   0  0  0  0  0  0  0  0  0  0  0  0
  188.7100  177.5090  141.2750 N   0  0  0  0  0  0  0  0  0  0  0  0
  186.6370  178.5450  140.5760 C   0  0  1  0  0  3  0  0  0  0  0  0
  181.8050  179.8230  139.6910 C   0  0  0  0  0  2  0  0  0  0  0  0
  188.0750  177.4420  147.6140 C   0  0  0  0  0  3  0  0  0  0  0  0
  188.8170  178.3050  145.0150 C   0  0  2  0  0  3  0  0  0  0  0  0
  182.5400  179.2720  140.8860 C   0  0  0  0  0  3  0  0  0  0  0  0
  187.0600  177.5030  146.5460 C   0  0  0  0  0  3  0  0  0  0  0  0
  187.9270  177.9490  140.1750 N   0  0  0  0  0  0  0  0  0  0  0  0
  185.7600  178.6640  139.4040 N   0  0  0  0  0  0  0  0  0  0  0  0
  186.4410  177.8140  144.2050 C   0  0  0  0  0  3  0  0  0  0  0  0
  183.9650  178.2390  143.0770 O   0  0  0  0  0  0  0  0  0  0  0  0
  183.6990  179.0720  138.3170 N   0  0  0  0  0  0  0  0  0  0  0  0
  185.9490  177.8010  141.7450 C   0  0  1  0  0  3  0  0  0  0  0  0
  184.4900  178.9110  139.4980 C   0  0  0  0  0  0  0  0  0  0  0  0
  191.0670  177.0830  140.7850 C   0  0  0  0  0  2  0  0  0  0  0  0
  189.8240  176.6460  140.9620 C   0  0  0  0  0  3  0  0  0  0  0  0
  188.9890  178.5870  138.0820 C   0  0  0  0  0  1  0  0  0  0  0  0
  188.6810  179.0030  139.5060 C   0  0  0  0  0  2  0  0  0  0  0  0
  190.3250  177.4610  148.3140 O   0  0  0  0  0  0  0  0  0  0  0  0
  191.6980  177.2660  148.0060 C   0  0  0  0  0  2  0  0  0  0  0  0
  191.9930  175.8440  147.9580 N   0  0  0  0  0  0  0  0  0  0  0  0
  193.1800  175.6280  148.7660 C   0  0  0  0  0  1  0  0  0  0  0  0
  192.3640  175.5440  146.5870 C   0  0  0  0  0  1  0  0  0  0  0  0
  1 13  2  0  0  0  0
  1 28  1  0  0  0  0
  2 19  2  0  0  0  0
  3 20  2  0  0  0  0
  4 15  2  0  0  0  0
  4  3  1  0  0  0  0
  5 16  2  0  0  0  0
  7 12  1  0  0  0  0
  8  1  1  0  0  0  0
  9  2  1  0  0  0  0
  9  6  2  0  0  0  0
 10  9  1  0  0  0  0
 11 18  1  6  0  0  0
 11 22  1  0  0  0  0
 12 15  1  0  0  0  0
 14  6  1  6  0  0  0
 14  5  1  0  0  0  0
 14  8  1  0  0  0  0
 16 13  1  0  0  0  0
 17 11  1  0  0  0  0
 17 10  1  0  0  0  0
 18 23  2  0  0  0  0
 19  5  1  0  0  0  0
 21  7  2  0  0  0  0
 21 23  1  0  0  0  0
 22  3  1  1  0  0  0
 22  2  1  0  0  0  0
 23  4  1  0  0  0  0
 24 25  2  0  0  0  0
 25 10  1  0  0  0  0
 26 27  1  0  0  0  0
 27 17  1  0  0  0  0
 29 28  1  0  0  0  0
 30 29  1  0  0  0  0
 30 31  1  0  0  0  0
 32 30  1  0  0  0  0
M  END
>  <MODEL>
8

>  <REMARK>
 VINA RESULT:      -6.9      3.755      6.760
  Name = 
  5 active torsions:
  status: ('A' for Active; 'I' for Inactive)
    1  A    between atoms: N_1  and  C_10
    2  A    between atoms: C_2  and  O_24
    3  A    between atoms: C_10  and  O_24
    4  A    between atoms: C_13  and  N_15
    5  A    between atoms: C_25  and  N_26
                            x       y       z     vdW  Elec       q    Type
                         _______ _______ _______ _____ _____    ______ ____

>  <TORSDO>
F 5

$$$$
=
 OpenBabel10262421413D

 32 36  0  0  1  0  0  0  0  0999 V2000
  189.8100  177.1230  145.9010 C   0  0  0  0  0  0  0  0  0  0  0  0
  188.3540  178.0750  141.1640 C   0  0  0  0  0  0  0  0  0  0  0  0
  189.1550  177.9130  138.7380 C   0  0  0  0  0  0  0  0  0  0  0  0
  188.7260  177.7120  137.3440 C   0  0  0  0  0  0  0  0  0  0  0  0
  189.6720  177.4570  143.1120 C   0  0  0  0  0  0  0  0  0  0  0  0
  187.2150  177.7760  143.3210 C   0  0  0  0  0  3  0  0  0  0  0  0
  187.8350  177.8800  134.6540 C   0  0  0  0  0  3  0  0  0  0  0  0
  188.5630  177.2590  145.2690 O   0  0  0  0  0  0  0  0  0  0  0  0
  187.1740  178.2100  142.0490 C   0  0  0  0  0  0  0  0  0  0  0  0
  185.9990  178.8550  141.5050 N   0  0  0  0  0  0  0  0  0  0  0  0
  186.7160  178.0820  139.3250 C   0  0  1  0  0  3  0  0  0  0  0  0
  189.1320  177.1700  134.9560 C   0  0  0  0  0  2  0  0  0  0  0  0
  190.9310  177.1910  145.1790 C   0  0  0  0  0  3  0  0  0  0  0  0
  188.4220  177.0620  143.8600 C   0  0  2  0  0  3  0  0  0  0  0  0
  189.5830  177.3610  136.3810 C   0  0  0  0  0  3  0  0  0  0  0  0
  190.8540  177.4400  143.7280 C   0  0  0  0  0  3  0  0  0  0  0  0
  185.6690  178.7450  140.1270 N   0  0  0  0  0  0  0  0  0  0  0  0
  186.4600  178.3020  137.8970 N   0  0  0  0  0  0  0  0  0  0  0  0
  189.5580  177.7920  141.6880 C   0  0  0  0  0  3  0  0  0  0  0  0
  190.3620  177.7310  139.0550 O   0  0  0  0  0  0  0  0  0  0  0  0
  187.0150  178.2400  135.5980 N   0  0  0  0  0  0  0  0  0  0  0  0
  188.1540  178.4870  139.7290 C   0  0  1  0  0  3  0  0  0  0  0  0
  187.3430  178.0580  136.9780 C   0  0  0  0  0  0  0  0  0  0  0  0
  184.5320  179.3870  143.3860 C   0  0  0  0  0  2  0  0  0  0  0  0
  185.1850  179.7520  142.2880 C   0  0  0  0  0  3  0  0  0  0  0  0
  183.3220  178.7120  139.4940 C   0  0  0  0  0  1  0  0  0  0  0  0
  184.4810  177.9030  140.0370 C   0  0  0  0  0  2  0  0  0  0  0  0
  189.8930  176.9460  147.2800 O   0  0  0  0  0  0  0  0  0  0  0  0
  189.6050  178.0070  148.1790 C   0  0  0  0  0  2  0  0  0  0  0  0
  188.3090  177.7870  148.7990 N   0  0  0  0  0  0  0  0  0  0  0  0
  187.9310  176.4140  148.5190 C   0  0  0  0  0  1  0  0  0  0  0  0
  187.3630  178.6310  148.0930 C   0  0  0  0  0  1  0  0  0  0  0  0
  1 28  1  0  0  0  0
  2 19  2  0  0  0  0
  2  9  1  0  0  0  0
  3 20  2  0  0  0  0
  4  3  1  0  0  0  0
  5 16  2  0  0  0  0
  5 14  1  0  0  0  0
  7 12  1  0  0  0  0
  7 21  2  0  0  0  0
  8  1  1  0  0  0  0
  9  6  2  0  0  0  0
 10  9  1  0  0  0  0
 10 25  1  0  0  0  0
 11 18  1  6  0  0  0
 11 22  1  0  0  0  0
 11 17  1  0  0  0  0
 12 15  1  0  0  0  0
 13  1  2  0  0  0  0
 14  6  1  6  0  0  0
 14  8  1  0  0  0  0
 15  4  2  0  0  0  0
 16 13  1  0  0  0  0
 17 10  1  0  0  0  0
 19  5  1  0  0  0  0
 21 23  1  0  0  0  0
 22  3  1  6  0  0  0
 22  2  1  0  0  0  0
 23  4  1  0  0  0  0
 23 18  2  0  0  0  0
 25 24  2  0  0  0  0
 26 27  1  0  0  0  0
 27 17  1  0  0  0  0
 28 29  1  0  0  0  0
 29 30  1  0  0  0  0
 31 30  1  0  0  0  0
 32 30  1  0  0  0  0
M  END
>  <MODEL>
9

>  <REMARK>
 VINA RESULT:      -6.7      3.205      7.906
  Name = 
  5 active torsions:
  status: ('A' for Active; 'I' for Inactive)
    1  A    between atoms: N_1  and  C_10
    2  A    between atoms: C_2  and  O_24
    3  A    between atoms: C_10  and  O_24
    4  A    between atoms: C_13  and  N_15
    5  A    between atoms: C_25  and  N_26
                            x       y       z     vdW  Elec       q    Type
                         _______ _______ _______ _____ _____    ______ ____

>  <TORSDO>
F 5

$$$$
