=
 OpenBabel10262422213D

 43 49  0  0  1  0  0  0  0  0999 V2000
  191.1160  176.5240  146.4980 C   0  0  0  0  0  0  0  0  0  0  0  0
  189.5900  177.6150  141.7940 C   0  0  0  0  0  0  0  0  0  0  0  0
  186.9990  178.6090  142.0710 C   0  0  0  0  0  0  0  0  0  0  0  0
  190.9960  176.8200  144.0920 C   0  0  0  0  0  0  0  0  0  0  0  0
  189.8260  177.0400  146.6290 C   0  0  0  0  0  3  0  0  0  0  0  0
  191.8680  176.0860  147.7060 C   0  0  0  0  0  1  0  0  0  0  0  0
  189.6880  177.3420  144.2190 C   0  0  0  0  0  0  0  0  0  0  0  0
  191.7000  176.4160  145.2320 C   0  0  0  0  0  3  0  0  0  0  0  0
  189.1130  177.4470  145.4960 C   0  0  0  0  0  3  0  0  0  0  0  0
  187.7170  178.2370  143.1670 N   0  0  0  0  0  0  0  0  0  0  0  0
  188.9830  177.7360  143.0660 C   0  0  0  0  0  0  0  0  0  0  0  0
  190.8920  177.1010  141.6900 C   0  0  0  0  0  3  0  0  0  0  0  0
  188.8720  178.0290  140.6570 C   0  0  0  0  0  0  0  0  0  0  0  0
  187.5730  178.5210  140.8030 C   0  0  0  0  0  3  0  0  0  0  0  0
  191.5880  176.7040  142.8320 C   0  0  0  0  0  3  0  0  0  0  0  0
  185.6340  179.2090  142.2170 C   0  0  1  0  0  3  0  0  0  0  0  0
  184.7730  178.9670  140.9830 C   0  0  0  0  0  2  0  0  0  0  0  0
  184.9010  178.5420  143.3570 C   0  0  0  0  0  2  0  0  0  0  0  0
  183.7010  178.0560  141.3580 N   0  0  0  0  0  0  0  0  0  0  0  0
  183.5350  178.2390  142.7940 C   0  0  0  0  0  2  0  0  0  0  0  0
  182.4880  178.5140  140.6950 C   0  0  0  0  0  2  0  0  0  0  0  0
  181.8190  177.3570  139.9450 C   0  0  2  0  0  3  0  0  0  0  0  0
  181.1390  176.5640  137.8340 O   0  0  0  0  0  0  0  0  0  0  0  0
  182.7890  176.2930  139.5520 C   0  0  0  0  0  2  0  0  0  0  0  0
  181.1500  177.7240  138.6320 C   0  0  1  0  0  0  0  0  0  0  0  0
  179.7180  178.1450  138.9210 C   0  0  0  0  0  1  0  0  0  0  0  0
  182.1710  175.7190  138.3000 C   0  0  0  0  0  2  0  0  0  0  0  0
  181.8960  178.8490  137.8900 C   0  0  0  0  0  2  0  0  0  0  0  0
  180.9990  180.0400  137.5690 C   0  0  0  0  0  3  0  0  0  0  0  0
  180.6760  182.5080  137.8320 C   0  0  0  0  0  2  0  0  0  0  0  0
  179.9520  181.3640  135.7230 C   0  0  0  0  0  2  0  0  0  0  0  0
  180.5170  182.6510  136.3190 C   0  0  0  0  0  2  0  0  0  0  0  0
  180.8700  180.1860  136.0550 C   0  0  0  0  0  2  0  0  0  0  0  0
  181.5830  181.3210  138.1610 C   0  0  0  0  0  2  0  0  0  0  0  0
  189.4650  177.9660  139.2870 C   0  0  0  0  0  2  0  0  0  0  0  0
  189.0560  177.3280  136.1370 C   0  0  0  0  0  2  0  0  0  0  0  0
  189.7520  176.0000  135.7970 C   0  0  1  0  0  3  0  0  0  0  0  0
  190.2110  175.9940  138.2540 C   0  0  0  0  0  2  0  0  0  0  0  0
  188.2250  177.2160  137.4240 C   0  0  0  0  0  2  0  0  0  0  0  0
  189.0090  176.7720  138.5940 N   0  0  0  0  0  0  0  0  0  0  0  0
  189.9940  175.1150  137.0230 C   0  0  0  0  0  2  0  0  0  0  0  0
  189.2480  173.7280  134.7820 C   0  0  0  0  0  1  0  0  0  0  0  0
  189.0410  175.2360  134.6780 C   0  0  0  0  0  2  0  0  0  0  0  0
  1  5  1  0  0  0  0
  1  6  1  0  0  0  0
  2 11  1  0  0  0  0
  3 10  1  0  0  0  0
  4  7  2  0  0  0  0
  4  8  1  0  0  0  0
  7  9  1  0  0  0  0
  8  1  2  0  0  0  0
  9  5  2  0  0  0  0
 11 10  2  0  0  0  0
 11  7  1  0  0  0  0
 12  2  1  0  0  0  0
 12 15  2  0  0  0  0
 13 14  1  0  0  0  0
 13  2  2  0  0  0  0
 14  3  2  0  0  0  0
 15  4  1  0  0  0  0
 16  3  1  6  0  0  0
 16 18  1  0  0  0  0
 17 19  1  0  0  0  0
 17 16  1  0  0  0  0
 19 20  1  0  0  0  0
 20 18  1  0  0  0  0
 21 19  1  0  0  0  0
 22 21  1  6  0  0  0
 23 27  1  0  0  0  0
 23 25  1  0  0  0  0
 24 22  1  0  0  0  0
 25 26  1  1  0  0  0
 25 22  1  0  0  0  0
 27 24  1  0  0  0  0
 28 25  1  0  0  0  0
 29 28  1  0  0  0  0
 29 34  1  0  0  0  0
 30 34  1  0  0  0  0
 31 33  1  0  0  0  0
 31 32  1  0  0  0  0
 32 30  1  0  0  0  0
 33 29  1  0  0  0  0
 35 13  1  0  0  0  0
 36 39  1  0  0  0  0
 37 43  1  6  0  0  0
 37 36  1  0  0  0  0
 37 41  1  0  0  0  0
 38 40  1  0  0  0  0
 39 40  1  0  0  0  0
 40 35  1  0  0  0  0
 41 38  1  0  0  0  0
 43 42  1  0  0  0  0
M  END
>  <MODEL>
1

>  <REMARK>
 VINA RESULT:      -9.5      0.000      0.000
  Name = 
  8 active torsions:
  status: ('A' for Active; 'I' for Inactive)
    1  A    between atoms: C_1  and  C_34
    2  A    between atoms: C_1  and  N_35
    3  A    between atoms: C_2  and  C_13
    4  A    between atoms: C_3  and  C_4
    5  A    between atoms: C_3  and  N_12
    6  A    between atoms: C_11  and  C_14
    7  A    between atoms: C_14  and  C_22
    8  A    between atoms: C_19  and  C_37
                            x       y       z     vdW  Elec       q    Type
                         _______ _______ _______ _____ _____    ______ ____

>  <TORSDO>
F 8

$$$$
=
 OpenBabel10262422213D

 43 49  0  0  1  0  0  0  0  0999 V2000
  188.0440  177.4920  147.0060 C   0  0  0  0  0  0  0  0  0  0  0  0
  186.1450  178.4910  142.4190 C   0  0  0  0  0  0  0  0  0  0  0  0
  188.2810  178.1800  140.6520 C   0  0  0  0  0  0  0  0  0  0  0  0
  186.5740  178.0660  145.1620 C   0  0  0  0  0  0  0  0  0  0  0  0
  189.1030  177.3210  146.1130 C   0  0  0  0  0  3  0  0  0  0  0  0
  188.2610  177.2840  148.4640 C   0  0  0  0  0  1  0  0  0  0  0  0
  187.6440  177.8960  144.2530 C   0  0  0  0  0  0  0  0  0  0  0  0
  186.7820  177.8630  146.5310 C   0  0  0  0  0  3  0  0  0  0  0  0
  188.9060  177.5210  144.7410 C   0  0  0  0  0  3  0  0  0  0  0  0
  188.4490  177.9590  141.9850 N   0  0  0  0  0  0  0  0  0  0  0  0
  187.4280  178.1130  142.8780 C   0  0  0  0  0  0  0  0  0  0  0  0
  185.0950  178.6490  143.3360 C   0  0  0  0  0  3  0  0  0  0  0  0
  185.9490  178.6880  141.0400 C   0  0  0  0  0  0  0  0  0  0  0  0
  187.0240  178.5360  140.1610 C   0  0  0  0  0  3  0  0  0  0  0  0
  185.3100  178.4400  144.6990 C   0  0  0  0  0  3  0  0  0  0  0  0
  189.4040  177.9480  139.6890 C   0  0  1  0  0  3  0  0  0  0  0  0
  189.5540  176.4720  139.3380 C   0  0  0  0  0  2  0  0  0  0  0  0
  189.1110  178.6450  138.3820 C   0  0  0  0  0  2  0  0  0  0  0  0
  189.1850  176.3060  137.9390 N   0  0  0  0  0  0  0  0  0  0  0  0
  189.4190  177.6100  137.3300 C   0  0  0  0  0  2  0  0  0  0  0  0
  190.1160  175.3530  137.3530 C   0  0  0  0  0  2  0  0  0  0  0  0
  191.2530  176.0890  136.6340 C   0  0  2  0  0  3  0  0  0  0  0  0
  193.5280  176.0030  136.0320 O   0  0  0  0  0  0  0  0  0  0  0  0
  191.3010  175.7790  135.1750 C   0  0  0  0  0  2  0  0  0  0  0  0
  192.6560  175.7550  137.1100 C   0  0  1  0  0  0  0  0  0  0  0  0
  193.0080  176.6840  138.2620 C   0  0  0  0  0  1  0  0  0  0  0  0
  192.7660  175.9360  134.8460 C   0  0  0  0  0  2  0  0  0  0  0  0
  192.7910  174.2860  137.5510 C   0  0  0  0  0  2  0  0  0  0  0  0
  194.1310  173.6720  137.1590 C   0  0  0  0  0  3  0  0  0  0  0  0
  196.3480  172.8590  137.9880 C   0  0  0  0  0  2  0  0  0  0  0  0
  195.2320  171.7150  136.0580 C   0  0  0  0  0  2  0  0  0  0  0  0
  196.1250  171.5230  137.2810 C   0  0  0  0  0  2  0  0  0  0  0  0
  193.8940  172.3280  136.4770 C   0  0  0  0  0  2  0  0  0  0  0  0
  195.0080  173.4750  138.3940 C   0  0  0  0  0  2  0  0  0  0  0  0
  184.6120  179.0500  140.4790 C   0  0  0  0  0  2  0  0  0  0  0  0
  181.6570  177.7590  140.1700 C   0  0  0  0  0  2  0  0  0  0  0  0
  181.2860  177.6980  138.6800 C   0  0  1  0  0  3  0  0  0  0  0  0
  183.6010  178.6000  138.4070 C   0  0  0  0  0  2  0  0  0  0  0  0
  183.0850  177.2520  140.4180 C   0  0  0  0  0  2  0  0  0  0  0  0
  184.1100  177.9750  139.6390 N   0  0  0  0  0  0  0  0  0  0  0  0
  182.5030  177.7630  137.7520 C   0  0  0  0  0  2  0  0  0  0  0  0
  179.9840  175.7190  139.5940 C   0  0  0  0  0  1  0  0  0  0  0  0
  180.3850  176.5070  138.3490 C   0  0  0  0  0  2  0  0  0  0  0  0
  1  6  1  0  0  0  0
  2 11  1  0  0  0  0
  2 12  1  0  0  0  0
  3 10  1  0  0  0  0
  4  8  2  0  0  0  0
  5  1  2  0  0  0  0
  7  9  2  0  0  0  0
  7  4  1  0  0  0  0
  8  1  1  0  0  0  0
  9  5  1  0  0  0  0
 10 11  2  0  0  0  0
 11  7  1  0  0  0  0
 12 15  2  0  0  0  0
 13  2  2  0  0  0  0
 14  3  2  0  0  0  0
 14 13  1  0  0  0  0
 15  4  1  0  0  0  0
 16  3  1  1  0  0  0
 17 16  1  0  0  0  0
 18 16  1  0  0  0  0
 19 17  1  0  0  0  0
 20 19  1  0  0  0  0
 20 18  1  0  0  0  0
 21 19  1  0  0  0  0
 22 25  1  0  0  0  0
 22 21  1  1  0  0  0
 23 25  1  0  0  0  0
 24 22  1  0  0  0  0
 25 28  1  0  0  0  0
 25 26  1  1  0  0  0
 27 24  1  0  0  0  0
 27 23  1  0  0  0  0
 29 28  1  0  0  0  0
 29 34  1  0  0  0  0
 30 34  1  0  0  0  0
 31 33  1  0  0  0  0
 31 32  1  0  0  0  0
 32 30  1  0  0  0  0
 33 29  1  0  0  0  0
 35 13  1  0  0  0  0
 36 39  1  0  0  0  0
 37 43  1  1  0  0  0
 37 36  1  0  0  0  0
 38 40  1  0  0  0  0
 40 39  1  0  0  0  0
 40 35  1  0  0  0  0
 41 38  1  0  0  0  0
 41 37  1  0  0  0  0
 43 42  1  0  0  0  0
M  END
>  <MODEL>
2

>  <REMARK>
 VINA RESULT:      -9.5      3.289      9.270
  Name = 
  8 active torsions:
  status: ('A' for Active; 'I' for Inactive)
    1  A    between atoms: C_1  and  C_34
    2  A    between atoms: C_1  and  N_35
    3  A    between atoms: C_2  and  C_13
    4  A    between atoms: C_3  and  C_4
    5  A    between atoms: C_3  and  N_12
    6  A    between atoms: C_11  and  C_14
    7  A    between atoms: C_14  and  C_22
    8  A    between atoms: C_19  and  C_37
                            x       y       z     vdW  Elec       q    Type
                         _______ _______ _______ _____ _____    ______ ____

>  <TORSDO>
F 8

$$$$
=
 OpenBabel10262422213D

 43 49  0  0  1  0  0  0  0  0999 V2000
  183.7110  177.4030  136.1700 C   0  0  0  0  0  0  0  0  0  0  0  0
  188.7200  176.7580  136.5370 C   0  0  0  0  0  0  0  0  0  0  0  0
  189.3610  177.4410  139.1650 C   0  0  0  0  0  0  0  0  0  0  0  0
  186.0420  176.9150  135.7050 C   0  0  0  0  0  0  0  0  0  0  0  0
  184.0380  177.7250  137.4880 C   0  0  0  0  0  3  0  0  0  0  0  0
  182.2970  177.4950  135.7100 C   0  0  0  0  0  1  0  0  0  0  0  0
  186.3800  177.2420  137.0380 C   0  0  0  0  0  0  0  0  0  0  0  0
  184.7110  176.9980  135.2810 C   0  0  0  0  0  3  0  0  0  0  0  0
  185.3660  177.6460  137.9230 C   0  0  0  0  0  3  0  0  0  0  0  0
  188.0700  177.4840  138.7350 N   0  0  0  0  0  0  0  0  0  0  0  0
  187.7230  177.1670  137.4540 C   0  0  0  0  0  0  0  0  0  0  0  0
  188.3650  176.4320  135.2200 C   0  0  0  0  0  3  0  0  0  0  0  0
  190.0540  176.6760  136.9780 C   0  0  0  0  0  0  0  0  0  0  0  0
  190.3680  177.0240  138.2940 C   0  0  0  0  0  3  0  0  0  0  0  0
  187.0340  176.5130  134.8070 C   0  0  0  0  0  3  0  0  0  0  0  0
  189.7040  177.7380  140.5920 C   0  0  1  0  0  3  0  0  0  0  0  0
  189.1130  176.7060  141.5440 C   0  0  0  0  0  2  0  0  0  0  0  0
  191.1990  177.6570  140.7870 C   0  0  0  0  0  2  0  0  0  0  0  0
  190.2150  175.9450  142.1180 N   0  0  0  0  0  0  0  0  0  0  0  0
  191.3680  176.8340  142.0390 C   0  0  0  0  0  2  0  0  0  0  0  0
  189.9050  175.7220  143.5230 C   0  0  0  0  0  2  0  0  0  0  0  0
  190.9180  176.4470  144.4160 C   0  0  2  0  0  3  0  0  0  0  0  0
  191.2590  177.4630  146.5140 O   0  0  0  0  0  0  0  0  0  0  0  0
  191.7470  175.5040  145.2220 C   0  0  0  0  0  2  0  0  0  0  0  0
  190.3260  177.3750  145.4630 C   0  0  1  0  0  0  0  0  0  0  0  0
  190.1420  178.7500  144.8400 C   0  0  0  0  0  1  0  0  0  0  0  0
  192.0730  176.3100  146.4550 C   0  0  0  0  0  2  0  0  0  0  0  0
  188.9840  176.8560  146.0120 C   0  0  0  0  0  2  0  0  0  0  0  0
  187.8400  177.8450  145.8070 C   0  0  0  0  0  3  0  0  0  0  0  0
  185.6870  178.2880  144.6110 C   0  0  0  0  0  2  0  0  0  0  0  0
  186.0180  179.1190  146.9520 C   0  0  0  0  0  2  0  0  0  0  0  0
  185.0040  178.5810  145.9450 C   0  0  0  0  0  2  0  0  0  0  0  0
  187.1510  178.1090  147.1430 C   0  0  0  0  0  2  0  0  0  0  0  0
  186.8280  177.2890  144.8070 C   0  0  0  0  0  2  0  0  0  0  0  0
  191.1530  176.2150  136.0770 C   0  0  0  0  0  2  0  0  0  0  0  0
  192.6320  173.3370  136.2320 C   0  0  0  0  0  2  0  0  0  0  0  0
  194.1480  173.5400  136.0790 C   0  0  1  0  0  3  0  0  0  0  0  0
  193.4860  175.9490  136.0320 C   0  0  0  0  0  2  0  0  0  0  0  0
  192.0250  174.3430  137.2200 C   0  0  0  0  0  2  0  0  0  0  0  0
  192.2860  175.7510  136.8610 N   0  0  0  0  0  0  0  0  0  0  0  0
  194.6000  174.9680  136.3950 C   0  0  0  0  0  2  0  0  0  0  0  0
  195.3570  173.0010  138.2460 C   0  0  0  0  0  1  0  0  0  0  0  0
  194.9590  172.5030  136.8590 C   0  0  0  0  0  2  0  0  0  0  0  0
  1  5  1  0  0  0  0
  2 13  2  0  0  0  0
  2 11  1  0  0  0  0
  4  7  2  0  0  0  0
  5  9  2  0  0  0  0
  6  1  1  0  0  0  0
  7 11  1  0  0  0  0
  7  9  1  0  0  0  0
  8  4  1  0  0  0  0
  8  1  2  0  0  0  0
 10  3  1  0  0  0  0
 11 10  2  0  0  0  0
 12  2  1  0  0  0  0
 13 14  1  0  0  0  0
 14  3  2  0  0  0  0
 15 12  2  0  0  0  0
 15  4  1  0  0  0  0
 16  3  1  6  0  0  0
 16 18  1  0  0  0  0
 16 17  1  0  0  0  0
 17 19  1  0  0  0  0
 18 20  1  0  0  0  0
 19 21  1  0  0  0  0
 20 19  1  0  0  0  0
 22 21  1  1  0  0  0
 22 24  1  0  0  0  0
 22 25  1  0  0  0  0
 24 27  1  0  0  0  0
 25 26  1  6  0  0  0
 25 28  1  0  0  0  0
 25 23  1  0  0  0  0
 27 23  1  0  0  0  0
 29 28  1  0  0  0  0
 29 33  1  0  0  0  0
 30 34  1  0  0  0  0
 30 32  1  0  0  0  0
 31 33  1  0  0  0  0
 32 31  1  0  0  0  0
 34 29  1  0  0  0  0
 35 40  1  0  0  0  0
 35 13  1  0  0  0  0
 36 39  1  0  0  0  0
 37 36  1  0  0  0  0
 37 41  1  0  0  0  0
 37 43  1  1  0  0  0
 38 41  1  0  0  0  0
 38 40  1  0  0  0  0
 40 39  1  0  0  0  0
 43 42  1  0  0  0  0
M  END
>  <MODEL>
3

>  <REMARK>
 VINA RESULT:      -9.1      3.370      8.882
  Name = 
  8 active torsions:
  status: ('A' for Active; 'I' for Inactive)
    1  A    between atoms: C_1  and  C_34
    2  A    between atoms: C_1  and  N_35
    3  A    between atoms: C_2  and  C_13
    4  A    between atoms: C_3  and  C_4
    5  A    between atoms: C_3  and  N_12
    6  A    between atoms: C_11  and  C_14
    7  A    between atoms: C_14  and  C_22
    8  A    between atoms: C_19  and  C_37
                            x       y       z     vdW  Elec       q    Type
                         _______ _______ _______ _____ _____    ______ ____

>  <TORSDO>
F 8

$$$$
=
 OpenBabel10262422213D

 43 49  0  0  1  0  0  0  0  0999 V2000
  188.0480  177.5030  147.0530 C   0  0  0  0  0  0  0  0  0  0  0  0
  188.3920  178.0820  142.0340 C   0  0  0  0  0  0  0  0  0  0  0  0
  185.7950  178.6270  141.1750 C   0  0  0  0  0  0  0  0  0  0  0  0
  188.8590  177.6550  144.7710 C   0  0  0  0  0  0  0  0  0  0  0  0
  186.7550  177.7950  146.6170 C   0  0  0  0  0  3  0  0  0  0  0  0
  188.3080  177.2610  148.4990 C   0  0  0  0  0  1  0  0  0  0  0  0
  187.5510  177.9490  144.3230 C   0  0  0  0  0  0  0  0  0  0  0  0
  189.0980  177.4350  146.1320 C   0  0  0  0  0  3  0  0  0  0  0  0
  186.5050  178.0180  145.2570 C   0  0  0  0  0  3  0  0  0  0  0  0
  186.0600  178.4390  142.4970 N   0  0  0  0  0  0  0  0  0  0  0  0
  187.3170  178.1600  142.9500 C   0  0  0  0  0  0  0  0  0  0  0  0
  189.6850  177.7950  142.4990 C   0  0  0  0  0  3  0  0  0  0  0  0
  188.1380  178.3090  140.6690 C   0  0  0  0  0  0  0  0  0  0  0  0
  186.8350  178.5770  140.2450 C   0  0  0  0  0  3  0  0  0  0  0  0
  189.9140  177.5800  143.8590 C   0  0  0  0  0  3  0  0  0  0  0  0
  184.4170  178.9900  140.7130 C   0  0  1  0  0  3  0  0  0  0  0  0
  184.3100  178.9930  139.1930 C   0  0  0  0  0  2  0  0  0  0  0  0
  183.4290  177.9500  141.1850 C   0  0  0  0  0  2  0  0  0  0  0  0
  183.4450  177.8880  138.8040 N   0  0  0  0  0  0  0  0  0  0  0  0
  182.5970  177.6470  139.9650 C   0  0  0  0  0  2  0  0  0  0  0  0
  182.6040  178.3570  137.7120 C   0  0  0  0  0  2  0  0  0  0  0  0
  181.1600  178.5450  138.1910 C   0  0  2  0  0  3  0  0  0  0  0  0
  179.2430  179.9060  138.0460 O   0  0  0  0  0  0  0  0  0  0  0  0
  180.1760  177.8130  137.3430 C   0  0  0  0  0  2  0  0  0  0  0  0
  180.6440  179.9740  138.1740 C   0  0  1  0  0  0  0  0  0  0  0  0
  180.9940  180.6290  139.5010 C   0  0  0  0  0  1  0  0  0  0  0  0
  178.9310  178.6570  137.4660 C   0  0  0  0  0  2  0  0  0  0  0  0
  181.2260  180.7930  137.0070 C   0  0  0  0  0  2  0  0  0  0  0  0
  180.4490  182.0780  136.7430 C   0  0  0  0  0  3  0  0  0  0  0  0
  180.4600  184.5730  136.9440 C   0  0  0  0  0  2  0  0  0  0  0  0
  179.3630  183.4760  134.9760 C   0  0  0  0  0  2  0  0  0  0  0  0
  180.1450  184.6970  135.4540 C   0  0  0  0  0  2  0  0  0  0  0  0
  180.1640  182.2020  135.2480 C   0  0  0  0  0  2  0  0  0  0  0  0
  181.2480  183.2910  137.2150 C   0  0  0  0  0  2  0  0  0  0  0  0
  189.2310  178.2820  139.6500 C   0  0  0  0  0  2  0  0  0  0  0  0
  189.7260  177.0810  136.6830 C   0  0  0  0  0  2  0  0  0  0  0  0
  190.9590  176.1640  136.7090 C   0  0  1  0  0  3  0  0  0  0  0  0
  190.9080  176.7170  139.1450 C   0  0  0  0  0  2  0  0  0  0  0  0
  188.7890  176.8010  137.8670 C   0  0  0  0  0  2  0  0  0  0  0  0
  189.4510  176.9240  139.1820 N   0  0  0  0  0  0  0  0  0  0  0  0
  191.3100  175.6650  138.1130 C   0  0  0  0  0  2  0  0  0  0  0  0
  192.0710  174.0930  135.7490 C   0  0  0  0  0  1  0  0  0  0  0  0
  190.8540  175.0120  135.7080 C   0  0  0  0  0  2  0  0  0  0  0  0
  1  6  1  0  0  0  0
  2 12  1  0  0  0  0
  2 11  1  0  0  0  0
  3 10  1  0  0  0  0
  4  8  1  0  0  0  0
  5  1  1  0  0  0  0
  7  4  2  0  0  0  0
  7  9  1  0  0  0  0
  8  1  2  0  0  0  0
  9  5  2  0  0  0  0
 10 11  2  0  0  0  0
 11  7  1  0  0  0  0
 12 15  2  0  0  0  0
 13  2  2  0  0  0  0
 14 13  1  0  0  0  0
 14  3  2  0  0  0  0
 15  4  1  0  0  0  0
 16  3  1  6  0  0  0
 16 18  1  0  0  0  0
 17 16  1  0  0  0  0
 19 17  1  0  0  0  0
 19 20  1  0  0  0  0
 20 18  1  0  0  0  0
 21 19  1  0  0  0  0
 22 21  1  6  0  0  0
 23 25  1  0  0  0  0
 24 27  1  0  0  0  0
 24 22  1  0  0  0  0
 25 22  1  0  0  0  0
 25 26  1  1  0  0  0
 27 23  1  0  0  0  0
 28 25  1  0  0  0  0
 29 28  1  0  0  0  0
 29 34  1  0  0  0  0
 30 34  1  0  0  0  0
 31 33  1  0  0  0  0
 31 32  1  0  0  0  0
 32 30  1  0  0  0  0
 33 29  1  0  0  0  0
 35 13  1  0  0  0  0
 36 37  1  0  0  0  0
 36 39  1  0  0  0  0
 37 43  1  6  0  0  0
 37 41  1  0  0  0  0
 38 40  1  0  0  0  0
 39 40  1  0  0  0  0
 40 35  1  0  0  0  0
 41 38  1  0  0  0  0
 43 42  1  0  0  0  0
M  END
>  <MODEL>
4

>  <REMARK>
 VINA RESULT:      -9.1      1.605      2.392
  Name = 
  8 active torsions:
  status: ('A' for Active; 'I' for Inactive)
    1  A    between atoms: C_1  and  C_34
    2  A    between atoms: C_1  and  N_35
    3  A    between atoms: C_2  and  C_13
    4  A    between atoms: C_3  and  C_4
    5  A    between atoms: C_3  and  N_12
    6  A    between atoms: C_11  and  C_14
    7  A    between atoms: C_14  and  C_22
    8  A    between atoms: C_19  and  C_37
                            x       y       z     vdW  Elec       q    Type
                         _______ _______ _______ _____ _____    ______ ____

>  <TORSDO>
F 8

$$$$
=
 OpenBabel10262422213D

 43 49  0  0  1  0  0  0  0  0999 V2000
  191.1120  176.2990  146.4380 C   0  0  0  0  0  0  0  0  0  0  0  0
  187.7370  178.2280  143.1920 C   0  0  0  0  0  0  0  0  0  0  0  0
  188.9100  177.9780  140.6740 C   0  0  0  0  0  0  0  0  0  0  0  0
  189.1470  177.3200  145.4460 C   0  0  0  0  0  0  0  0  0  0  0  0
  191.6840  176.1610  145.1720 C   0  0  0  0  0  3  0  0  0  0  0  0
  191.8530  175.8350  147.6430 C   0  0  0  0  0  1  0  0  0  0  0  0
  189.7210  177.1840  144.1610 C   0  0  0  0  0  0  0  0  0  0  0  0
  189.8460  176.8760  146.5740 C   0  0  0  0  0  3  0  0  0  0  0  0
  190.9930  176.6010  144.0370 C   0  0  0  0  0  3  0  0  0  0  0  0
  189.5560  177.5270  141.7840 N   0  0  0  0  0  0  0  0  0  0  0  0
  189.0160  177.6430  143.0320 C   0  0  0  0  0  0  0  0  0  0  0  0
  187.1810  178.3480  144.4750 C   0  0  0  0  0  3  0  0  0  0  0  0
  187.0440  178.6660  142.0490 C   0  0  0  0  0  0  0  0  0  0  0  0
  187.6390  178.5420  140.7910 C   0  0  0  0  0  3  0  0  0  0  0  0
  187.8840  177.8990  145.5940 C   0  0  0  0  0  3  0  0  0  0  0  0
  189.5020  177.7840  139.3110 C   0  0  1  0  0  3  0  0  0  0  0  0
  190.0700  176.3810  139.1340 C   0  0  0  0  0  2  0  0  0  0  0  0
  188.4240  177.9180  138.2620 C   0  0  0  0  0  2  0  0  0  0  0  0
  189.2410  175.6840  138.1610 N   0  0  0  0  0  0  0  0  0  0  0  0
  188.6430  176.7370  137.3500 C   0  0  0  0  0  2  0  0  0  0  0  0
  190.1300  174.9020  137.3120 C   0  0  0  0  0  2  0  0  0  0  0  0
  191.1050  175.8220  136.5680 C   0  0  2  0  0  3  0  0  0  0  0  0
  193.3030  176.0450  135.7520 O   0  0  0  0  0  0  0  0  0  0  0  0
  191.0340  175.6510  135.0880 C   0  0  0  0  0  2  0  0  0  0  0  0
  192.5760  175.6060  136.8760 C   0  0  1  0  0  0  0  0  0  0  0  0
  192.9480  176.4610  138.0770 C   0  0  0  0  0  1  0  0  0  0  0  0
  192.4330  175.9990  134.6410 C   0  0  0  0  0  2  0  0  0  0  0  0
  192.9060  174.1270  137.1540 C   0  0  0  0  0  2  0  0  0  0  0  0
  194.3860  173.8090  136.9730 C   0  0  0  0  0  3  0  0  0  0  0  0
  196.5320  173.2510  138.1340 C   0  0  0  0  0  2  0  0  0  0  0  0
  196.0180  172.2500  135.8950 C   0  0  0  0  0  2  0  0  0  0  0  0
  196.6970  172.0210  137.2430 C   0  0  0  0  0  2  0  0  0  0  0  0
  194.5360  172.5640  136.1030 C   0  0  0  0  0  2  0  0  0  0  0  0
  195.0490  173.5710  138.3280 C   0  0  0  0  0  2  0  0  0  0  0  0
  185.6740  179.2570  142.1380 C   0  0  0  0  0  2  0  0  0  0  0  0
  182.5580  179.1270  143.0130 C   0  0  0  0  0  2  0  0  0  0  0  0
  181.7130  178.6860  141.8070 C   0  0  1  0  0  3  0  0  0  0  0  0
  183.9570  178.5140  140.7200 C   0  0  0  0  0  2  0  0  0  0  0  0
  183.8090  178.2510  143.1770 C   0  0  0  0  0  2  0  0  0  0  0  0
  184.6670  178.2220  141.9750 N   0  0  0  0  0  0  0  0  0  0  0  0
  182.5300  177.9680  140.7290 C   0  0  0  0  0  2  0  0  0  0  0  0
  180.0650  178.1490  143.6620 C   0  0  0  0  0  1  0  0  0  0  0  0
  180.4820  177.8770  142.2200 C   0  0  0  0  0  2  0  0  0  0  0  0
  1  8  1  0  0  0  0
  1  6  1  0  0  0  0
  2 12  1  0  0  0  0
  3 14  2  0  0  0  0
  3 10  1  0  0  0  0
  4 15  1  0  0  0  0
  4  8  2  0  0  0  0
  5  1  2  0  0  0  0
  7  4  1  0  0  0  0
  9  7  2  0  0  0  0
  9  5  1  0  0  0  0
 10 11  2  0  0  0  0
 11  2  1  0  0  0  0
 11  7  1  0  0  0  0
 12 15  2  0  0  0  0
 13 35  1  0  0  0  0
 13  2  2  0  0  0  0
 14 13  1  0  0  0  0
 16  3  1  1  0  0  0
 17 16  1  0  0  0  0
 18 16  1  0  0  0  0
 19 17  1  0  0  0  0
 20 19  1  0  0  0  0
 20 18  1  0  0  0  0
 21 19  1  0  0  0  0
 22 25  1  0  0  0  0
 22 21  1  1  0  0  0
 23 25  1  0  0  0  0
 24 22  1  0  0  0  0
 25 28  1  0  0  0  0
 25 26  1  1  0  0  0
 27 24  1  0  0  0  0
 27 23  1  0  0  0  0
 29 28  1  0  0  0  0
 29 34  1  0  0  0  0
 30 34  1  0  0  0  0
 31 33  1  0  0  0  0
 31 32  1  0  0  0  0
 32 30  1  0  0  0  0
 33 29  1  0  0  0  0
 36 39  1  0  0  0  0
 37 43  1  1  0  0  0
 37 36  1  0  0  0  0
 38 41  1  0  0  0  0
 38 40  1  0  0  0  0
 40 35  1  0  0  0  0
 40 39  1  0  0  0  0
 41 37  1  0  0  0  0
 43 42  1  0  0  0  0
M  END
>  <MODEL>
5

>  <REMARK>
 VINA RESULT:      -8.9      3.274      9.427
  Name = 
  8 active torsions:
  status: ('A' for Active; 'I' for Inactive)
    1  A    between atoms: C_1  and  C_34
    2  A    between atoms: C_1  and  N_35
    3  A    between atoms: C_2  and  C_13
    4  A    between atoms: C_3  and  C_4
    5  A    between atoms: C_3  and  N_12
    6  A    between atoms: C_11  and  C_14
    7  A    between atoms: C_14  and  C_22
    8  A    between atoms: C_19  and  C_37
                            x       y       z     vdW  Elec       q    Type
                         _______ _______ _______ _____ _____    ______ ____

>  <TORSDO>
F 8

$$$$
=
 OpenBabel10262422213D

 43 49  0  0  1  0  0  0  0  0999 V2000
  188.0170  177.5120  146.9150 C   0  0  0  0  0  0  0  0  0  0  0  0
  185.8620  178.4280  142.4250 C   0  0  0  0  0  0  0  0  0  0  0  0
  187.9550  178.3950  140.5820 C   0  0  0  0  0  0  0  0  0  0  0  0
  186.4310  177.9760  145.1380 C   0  0  0  0  0  0  0  0  0  0  0  0
  189.0560  177.4790  145.9840 C   0  0  0  0  0  3  0  0  0  0  0  0
  188.3060  177.2880  148.3590 C   0  0  0  0  0  1  0  0  0  0  0  0
  187.4790  177.9460  144.1900 C   0  0  0  0  0  0  0  0  0  0  0  0
  186.7070  177.7590  146.4930 C   0  0  0  0  0  3  0  0  0  0  0  0
  188.7900  177.6950  144.6260 C   0  0  0  0  0  3  0  0  0  0  0  0
  188.1930  178.1560  141.9010 N   0  0  0  0  0  0  0  0  0  0  0  0
  187.1940  178.1760  142.8310 C   0  0  0  0  0  0  0  0  0  0  0  0
  184.8340  178.4480  143.3800 C   0  0  0  0  0  3  0  0  0  0  0  0
  185.5980  178.6410  141.0600 C   0  0  0  0  0  0  0  0  0  0  0  0
  186.6520  178.6270  140.1430 C   0  0  0  0  0  3  0  0  0  0  0  0
  185.1190  178.2260  144.7280 C   0  0  0  0  0  3  0  0  0  0  0  0
  189.0620  178.3100  139.5760 C   0  0  1  0  0  3  0  0  0  0  0  0
  189.9430  177.0870  139.8040 C   0  0  0  0  0  2  0  0  0  0  0  0
  188.4840  178.1370  138.1920 C   0  0  0  0  0  2  0  0  0  0  0  0
  189.7370  176.1740  138.6890 N   0  0  0  0  0  0  0  0  0  0  0  0
  189.2940  177.0180  137.5870 C   0  0  0  0  0  2  0  0  0  0  0  0
  191.0330  175.6100  138.3410 C   0  0  0  0  0  2  0  0  0  0  0  0
  191.0000  175.0230  136.9260 C   0  0  2  0  0  3  0  0  0  0  0  0
  192.1160  173.6300  135.3890 O   0  0  0  0  0  0  0  0  0  0  0  0
  190.2220  173.7520  136.8530 C   0  0  0  0  0  2  0  0  0  0  0  0
  192.3490  174.6430  136.3400 C   0  0  1  0  0  0  0  0  0  0  0  0
  192.9320  175.8610  135.6410 C   0  0  0  0  0  1  0  0  0  0  0  0
  190.8890  173.0130  135.7190 C   0  0  0  0  0  2  0  0  0  0  0  0
  193.3270  174.1250  137.4110 C   0  0  0  0  0  2  0  0  0  0  0  0
  194.7080  173.8090  136.8460 C   0  0  0  0  0  3  0  0  0  0  0  0
  197.1710  174.1780  137.0940 C   0  0  0  0  0  2  0  0  0  0  0  0
  196.3060  171.9710  136.2800 C   0  0  0  0  0  2  0  0  0  0  0  0
  197.4000  172.6680  137.0860 C   0  0  0  0  0  2  0  0  0  0  0  0
  194.9330  172.3000  136.8680 C   0  0  0  0  0  2  0  0  0  0  0  0
  195.7920  174.5030  137.6700 C   0  0  0  0  0  2  0  0  0  0  0  0
  184.2110  178.8730  140.5530 C   0  0  0  0  0  2  0  0  0  0  0  0
  181.5370  177.1850  139.8520 C   0  0  0  0  0  2  0  0  0  0  0  0
  181.1750  177.4040  138.3740 C   0  0  1  0  0  3  0  0  0  0  0  0
  183.2870  178.7410  138.3990 C   0  0  0  0  0  2  0  0  0  0  0  0
  183.0340  176.8960  140.0300 C   0  0  0  0  0  2  0  0  0  0  0  0
  183.9070  177.9490  139.4730 N   0  0  0  0  0  0  0  0  0  0  0  0
  182.3550  177.8960  137.5310 C   0  0  0  0  0  2  0  0  0  0  0  0
  181.5100  175.2160  137.1300 C   0  0  0  0  0  1  0  0  0  0  0  0
  180.5020  176.1810  137.7490 C   0  0  0  0  0  2  0  0  0  0  0  0
  1  6  1  0  0  0  0
  2 11  1  0  0  0  0
  2 12  1  0  0  0  0
  3 10  1  0  0  0  0
  4  8  2  0  0  0  0
  5  1  2  0  0  0  0
  7  9  2  0  0  0  0
  7  4  1  0  0  0  0
  8  1  1  0  0  0  0
  9  5  1  0  0  0  0
 10 11  2  0  0  0  0
 11  7  1  0  0  0  0
 12 15  2  0  0  0  0
 13  2  2  0  0  0  0
 14  3  2  0  0  0  0
 14 13  1  0  0  0  0
 15  4  1  0  0  0  0
 16 17  1  0  0  0  0
 16  3  1  1  0  0  0
 18 16  1  0  0  0  0
 19 17  1  0  0  0  0
 20 18  1  0  0  0  0
 20 19  1  0  0  0  0
 21 19  1  0  0  0  0
 22 21  1  1  0  0  0
 23 27  1  0  0  0  0
 23 25  1  0  0  0  0
 24 22  1  0  0  0  0
 25 26  1  6  0  0  0
 25 22  1  0  0  0  0
 25 28  1  0  0  0  0
 27 24  1  0  0  0  0
 29 33  1  0  0  0  0
 29 28  1  0  0  0  0
 29 34  1  0  0  0  0
 30 34  1  0  0  0  0
 31 33  1  0  0  0  0
 31 32  1  0  0  0  0
 32 30  1  0  0  0  0
 35 13  1  0  0  0  0
 36 39  1  0  0  0  0
 37 43  1  6  0  0  0
 37 36  1  0  0  0  0
 38 40  1  0  0  0  0
 40 39  1  0  0  0  0
 40 35  1  0  0  0  0
 41 37  1  0  0  0  0
 41 38  1  0  0  0  0
 42 43  1  0  0  0  0
M  END
>  <MODEL>
6

>  <REMARK>
 VINA RESULT:      -8.8      3.334      9.289
  Name = 
  8 active torsions:
  status: ('A' for Active; 'I' for Inactive)
    1  A    between atoms: C_1  and  C_34
    2  A    between atoms: C_1  and  N_35
    3  A    between atoms: C_2  and  C_13
    4  A    between atoms: C_3  and  C_4
    5  A    between atoms: C_3  and  N_12
    6  A    between atoms: C_11  and  C_14
    7  A    between atoms: C_14  and  C_22
    8  A    between atoms: C_19  and  C_37
                            x       y       z     vdW  Elec       q    Type
                         _______ _______ _______ _____ _____    ______ ____

>  <TORSDO>
F 8

$$$$
=
 OpenBabel10262422213D

 43 49  0  0  1  0  0  0  0  0999 V2000
  190.8060  176.8560  146.5680 C   0  0  0  0  0  0  0  0  0  0  0  0
  189.5910  177.6290  141.7120 C   0  0  0  0  0  0  0  0  0  0  0  0
  186.9990  178.6580  141.7560 C   0  0  0  0  0  0  0  0  0  0  0  0
  190.8410  176.9850  144.1450 C   0  0  0  0  0  0  0  0  0  0  0  0
  189.5160  177.3880  146.5810 C   0  0  0  0  0  3  0  0  0  0  0  0
  191.4750  176.4960  147.8480 C   0  0  0  0  0  1  0  0  0  0  0  0
  189.5330  177.5230  144.1520 C   0  0  0  0  0  0  0  0  0  0  0  0
  191.4670  176.6560  145.3520 C   0  0  0  0  0  3  0  0  0  0  0  0
  188.8800  177.7220  145.3790 C   0  0  0  0  0  3  0  0  0  0  0  0
  187.6430  178.3570  142.9170 N   0  0  0  0  0  0  0  0  0  0  0  0
  188.9060  177.8420  142.9320 C   0  0  0  0  0  0  0  0  0  0  0  0
  190.8910  177.0990  141.7270 C   0  0  0  0  0  3  0  0  0  0  0  0
  188.9510  177.9680  140.5070 C   0  0  0  0  0  0  0  0  0  0  0  0
  187.6510  178.4790  140.5350 C   0  0  0  0  0  3  0  0  0  0  0  0
  191.5090  176.7770  142.9350 C   0  0  0  0  0  3  0  0  0  0  0  0
  185.6350  179.2760  141.7730 C   0  0  1  0  0  3  0  0  0  0  0  0
  184.8830  179.0280  140.4710 C   0  0  0  0  0  2  0  0  0  0  0  0
  184.7960  178.6350  142.8520 C   0  0  0  0  0  2  0  0  0  0  0  0
  183.7700  178.1350  140.7620 N   0  0  0  0  0  0  0  0  0  0  0  0
  183.4810  178.3410  142.1760 C   0  0  0  0  0  2  0  0  0  0  0  0
  182.6260  178.5980  139.9890 C   0  0  0  0  0  2  0  0  0  0  0  0
  181.7000  177.4250  139.6480 C   0  0  2  0  0  3  0  0  0  0  0  0
  180.9430  176.0020  137.9310 O   0  0  0  0  0  0  0  0  0  0  0  0
  182.3520  176.1000  139.8680 C   0  0  0  0  0  2  0  0  0  0  0  0
  181.2360  177.3520  138.2040 C   0  0  1  0  0  0  0  0  0  0  0  0
  179.9670  178.1780  138.0630 C   0  0  0  0  0  1  0  0  0  0  0  0
  181.6670  175.2160  138.8550 C   0  0  0  0  0  2  0  0  0  0  0  0
  182.3090  177.8530  137.2180 C   0  0  0  0  0  2  0  0  0  0  0  0
  183.1740  176.7250  136.6650 C   0  0  0  0  0  3  0  0  0  0  0  0
  184.0270  175.6060  134.5950 C   0  0  0  0  0  2  0  0  0  0  0  0
  185.4790  175.7540  136.6330 C   0  0  0  0  0  2  0  0  0  0  0  0
  185.4600  175.7480  135.1060 C   0  0  0  0  0  2  0  0  0  0  0  0
  184.6080  176.8940  137.1630 C   0  0  0  0  0  2  0  0  0  0  0  0
  183.1550  176.7390  135.1380 C   0  0  0  0  0  2  0  0  0  0  0  0
  189.6280  177.8070  139.1840 C   0  0  0  0  0  2  0  0  0  0  0  0
  189.2520  177.1170  136.0410 C   0  0  0  0  0  2  0  0  0  0  0  0
  189.8990  175.7550  135.7430 C   0  0  1  0  0  3  0  0  0  0  0  0
  190.3120  175.7840  138.2070 C   0  0  0  0  0  2  0  0  0  0  0  0
  188.3930  177.0670  137.3140 C   0  0  0  0  0  2  0  0  0  0  0  0
  189.1370  176.6180  138.5080 N   0  0  0  0  0  0  0  0  0  0  0  0
  190.0820  174.8870  136.9920 C   0  0  0  0  0  2  0  0  0  0  0  0
  188.4850  173.7360  135.1340 C   0  0  0  0  0  1  0  0  0  0  0  0
  189.1780  174.9970  134.6260 C   0  0  0  0  0  2  0  0  0  0  0  0
  1  5  1  0  0  0  0
  1  6  1  0  0  0  0
  2 12  1  0  0  0  0
  2 11  1  0  0  0  0
  3 10  1  0  0  0  0
  4  7  2  0  0  0  0
  4  8  1  0  0  0  0
  7  9  1  0  0  0  0
  8  1  2  0  0  0  0
  9  5  2  0  0  0  0
 10 11  2  0  0  0  0
 11  7  1  0  0  0  0
 12 15  2  0  0  0  0
 13 14  1  0  0  0  0
 13  2  2  0  0  0  0
 14  3  2  0  0  0  0
 15  4  1  0  0  0  0
 16  3  1  6  0  0  0
 16 18  1  0  0  0  0
 17 19  1  0  0  0  0
 17 16  1  0  0  0  0
 19 20  1  0  0  0  0
 20 18  1  0  0  0  0
 21 19  1  0  0  0  0
 22 24  1  0  0  0  0
 22 21  1  6  0  0  0
 23 25  1  0  0  0  0
 23 27  1  0  0  0  0
 25 26  1  6  0  0  0
 25 22  1  0  0  0  0
 27 24  1  0  0  0  0
 28 25  1  0  0  0  0
 29 33  1  0  0  0  0
 29 28  1  0  0  0  0
 30 32  1  0  0  0  0
 30 34  1  0  0  0  0
 31 33  1  0  0  0  0
 32 31  1  0  0  0  0
 34 29  1  0  0  0  0
 35 13  1  0  0  0  0
 36 39  1  0  0  0  0
 37 43  1  6  0  0  0
 37 36  1  0  0  0  0
 37 41  1  0  0  0  0
 38 40  1  0  0  0  0
 39 40  1  0  0  0  0
 40 35  1  0  0  0  0
 41 38  1  0  0  0  0
 43 42  1  0  0  0  0
M  END
>  <MODEL>
7

>  <REMARK>
 VINA RESULT:      -8.8      1.470      2.597
  Name = 
  8 active torsions:
  status: ('A' for Active; 'I' for Inactive)
    1  A    between atoms: C_1  and  C_34
    2  A    between atoms: C_1  and  N_35
    3  A    between atoms: C_2  and  C_13
    4  A    between atoms: C_3  and  C_4
    5  A    between atoms: C_3  and  N_12
    6  A    between atoms: C_11  and  C_14
    7  A    between atoms: C_14  and  C_22
    8  A    between atoms: C_19  and  C_37
                            x       y       z     vdW  Elec       q    Type
                         _______ _______ _______ _____ _____    ______ ____

>  <TORSDO>
F 8

$$$$
=
 OpenBabel10262422213D

 43 49  0  0  1  0  0  0  0  0999 V2000
  187.8940  177.4950  146.9620 C   0  0  0  0  0  0  0  0  0  0  0  0
  188.4870  177.9750  141.9560 C   0  0  0  0  0  0  0  0  0  0  0  0
  185.9530  178.5990  140.9700 C   0  0  0  0  0  0  0  0  0  0  0  0
  188.8130  177.5790  144.7170 C   0  0  0  0  0  0  0  0  0  0  0  0
  186.6340  177.8250  146.4620 C   0  0  0  0  0  3  0  0  0  0  0  0
  188.0790  177.2680  148.4220 C   0  0  0  0  0  1  0  0  0  0  0  0
  187.5380  177.9120  144.2050 C   0  0  0  0  0  0  0  0  0  0  0  0
  188.9810  177.3730  146.0910 C   0  0  0  0  0  3  0  0  0  0  0  0
  186.4540  178.0340  145.0900 C   0  0  0  0  0  3  0  0  0  0  0  0
  186.1510  178.4240  142.3060 N   0  0  0  0  0  0  0  0  0  0  0  0
  187.3750  178.1070  142.8200 C   0  0  0  0  0  0  0  0  0  0  0  0
  189.7450  177.6500  142.4840 C   0  0  0  0  0  3  0  0  0  0  0  0
  188.3030  178.1890  140.5780 C   0  0  0  0  0  0  0  0  0  0  0  0
  187.0310  178.4970  140.0900 C   0  0  0  0  0  3  0  0  0  0  0  0
  189.9050  177.4500  143.8560 C   0  0  0  0  0  3  0  0  0  0  0  0
  184.6120  179.0040  140.4400 C   0  0  1  0  0  3  0  0  0  0  0  0
  184.4400  178.6160  138.9760 C   0  0  0  0  0  2  0  0  0  0  0  0
  183.5240  178.2650  141.1830 C   0  0  0  0  0  2  0  0  0  0  0  0
  183.4280  177.5710  138.9070 N   0  0  0  0  0  0  0  0  0  0  0  0
  182.6080  177.7600  140.0970 C   0  0  0  0  0  2  0  0  0  0  0  0
  182.6050  177.8380  137.7360 C   0  0  0  0  0  2  0  0  0  0  0  0
  182.0880  176.5270  137.1350 C   0  0  2  0  0  3  0  0  0  0  0  0
  182.6760  174.6040  135.9100 O   0  0  0  0  0  0  0  0  0  0  0  0
  182.1340  175.3950  138.1060 C   0  0  0  0  0  2  0  0  0  0  0  0
  182.8670  175.9980  135.9430 C   0  0  1  0  0  0  0  0  0  0  0  0
  182.2890  176.6130  134.6780 C   0  0  0  0  0  1  0  0  0  0  0  0
  182.3230  174.1930  137.2140 C   0  0  0  0  0  2  0  0  0  0  0  0
  184.3730  176.3080  136.0450 C   0  0  0  0  0  2  0  0  0  0  0  0
  185.2430  175.0670  135.8730 C   0  0  0  0  0  3  0  0  0  0  0  0
  187.2220  174.0820  134.6980 C   0  0  0  0  0  2  0  0  0  0  0  0
  186.7080  173.4260  137.0610 C   0  0  0  0  0  2  0  0  0  0  0  0
  187.8190  173.6720  136.0430 C   0  0  0  0  0  2  0  0  0  0  0  0
  185.8530  174.6840  137.2190 C   0  0  0  0  0  2  0  0  0  0  0  0
  186.3560  175.3320  134.8610 C   0  0  0  0  0  2  0  0  0  0  0  0
  189.4400  178.1060  139.6100 C   0  0  0  0  0  2  0  0  0  0  0  0
  189.9820  177.0850  136.5840 C   0  0  0  0  0  2  0  0  0  0  0  0
  191.0880  176.0170  136.6020 C   0  0  1  0  0  3  0  0  0  0  0  0
  190.9390  176.3810  139.0700 C   0  0  0  0  0  2  0  0  0  0  0  0
  188.9390  176.8370  137.6840 C   0  0  0  0  0  2  0  0  0  0  0  0
  189.5200  176.7710  139.0410 N   0  0  0  0  0  0  0  0  0  0  0  0
  191.2770  175.3690  137.9770 C   0  0  0  0  0  2  0  0  0  0  0  0
  191.5480  173.6320  135.8620 C   0  0  0  0  0  1  0  0  0  0  0  0
  190.9080  174.9700  135.5010 C   0  0  0  0  0  2  0  0  0  0  0  0
  1  6  1  0  0  0  0
  2 12  1  0  0  0  0
  2 11  1  0  0  0  0
  3 10  1  0  0  0  0
  4  8  1  0  0  0  0
  5  1  1  0  0  0  0
  7  4  2  0  0  0  0
  7  9  1  0  0  0  0
  8  1  2  0  0  0  0
  9  5  2  0  0  0  0
 10 11  2  0  0  0  0
 11  7  1  0  0  0  0
 12 15  2  0  0  0  0
 13  2  2  0  0  0  0
 14 13  1  0  0  0  0
 14  3  2  0  0  0  0
 15  4  1  0  0  0  0
 16  3  1  1  0  0  0
 16 18  1  0  0  0  0
 17 16  1  0  0  0  0
 19 17  1  0  0  0  0
 19 20  1  0  0  0  0
 20 18  1  0  0  0  0
 21 19  1  0  0  0  0
 22 21  1  1  0  0  0
 22 24  1  0  0  0  0
 23 25  1  0  0  0  0
 23 27  1  0  0  0  0
 25 26  1  6  0  0  0
 25 28  1  0  0  0  0
 25 22  1  0  0  0  0
 27 24  1  0  0  0  0
 29 28  1  0  0  0  0
 29 33  1  0  0  0  0
 30 34  1  0  0  0  0
 30 32  1  0  0  0  0
 31 33  1  0  0  0  0
 32 31  1  0  0  0  0
 34 29  1  0  0  0  0
 35 13  1  0  0  0  0
 36 37  1  0  0  0  0
 36 39  1  0  0  0  0
 37 43  1  6  0  0  0
 37 41  1  0  0  0  0
 39 40  1  0  0  0  0
 40 38  1  0  0  0  0
 40 35  1  0  0  0  0
 41 38  1  0  0  0  0
 43 42  1  0  0  0  0
M  END
>  <MODEL>
8

>  <REMARK>
 VINA RESULT:      -8.7      2.225      4.213
  Name = 
  8 active torsions:
  status: ('A' for Active; 'I' for Inactive)
    1  A    between atoms: C_1  and  C_34
    2  A    between atoms: C_1  and  N_35
    3  A    between atoms: C_2  and  C_13
    4  A    between atoms: C_3  and  C_4
    5  A    between atoms: C_3  and  N_12
    6  A    between atoms: C_11  and  C_14
    7  A    between atoms: C_14  and  C_22
    8  A    between atoms: C_19  and  C_37
                            x       y       z     vdW  Elec       q    Type
                         _______ _______ _______ _____ _____    ______ ____

>  <TORSDO>
F 8

$$$$
=
 OpenBabel10262422213D

 43 49  0  0  1  0  0  0  0  0999 V2000
  190.7440  176.7830  146.2210 C   0  0  0  0  0  0  0  0  0  0  0  0
  189.5720  177.7080  141.3820 C   0  0  0  0  0  0  0  0  0  0  0  0
  186.9360  178.6190  141.4230 C   0  0  0  0  0  0  0  0  0  0  0  0
  190.8110  177.0170  143.8070 C   0  0  0  0  0  0  0  0  0  0  0  0
  189.4310  177.2560  146.2340 C   0  0  0  0  0  3  0  0  0  0  0  0
  191.4090  176.3990  147.4970 C   0  0  0  0  0  1  0  0  0  0  0  0
  189.4810  177.4960  143.8130 C   0  0  0  0  0  0  0  0  0  0  0  0
  191.4320  176.6640  145.0100 C   0  0  0  0  0  3  0  0  0  0  0  0
  188.8000  177.6130  145.0360 C   0  0  0  0  0  3  0  0  0  0  0  0
  187.5740  178.2980  142.5820 N   0  0  0  0  0  0  0  0  0  0  0  0
  188.8590  177.8390  142.5970 C   0  0  0  0  0  0  0  0  0  0  0  0
  190.8940  177.2360  141.3970 C   0  0  0  0  0  3  0  0  0  0  0  0
  188.9360  178.0700  140.1810 C   0  0  0  0  0  0  0  0  0  0  0  0
  187.6150  178.5210  140.2080 C   0  0  0  0  0  3  0  0  0  0  0  0
  191.5070  176.8910  142.6010 C   0  0  0  0  0  3  0  0  0  0  0  0
  185.5450  179.1750  141.4420 C   0  0  1  0  0  3  0  0  0  0  0  0
  184.6150  178.4080  140.5100 C   0  0  0  0  0  2  0  0  0  0  0  0
  184.9510  179.0200  142.8220 C   0  0  0  0  0  2  0  0  0  0  0  0
  183.6440  177.6990  141.3320 N   0  0  0  0  0  0  0  0  0  0  0  0
  183.5730  178.4610  142.5730 C   0  0  0  0  0  2  0  0  0  0  0  0
  182.3550  177.7940  140.6630 C   0  0  0  0  0  2  0  0  0  0  0  0
  181.8400  179.2370  140.6940 C   0  0  2  0  0  3  0  0  0  0  0  0
  180.5220  180.8390  139.5780 O   0  0  0  0  0  0  0  0  0  0  0  0
  180.5760  179.3760  141.4760 C   0  0  0  0  0  2  0  0  0  0  0  0
  181.4850  179.8370  139.3450 C   0  0  1  0  0  0  0  0  0  0  0  0
  182.7350  180.4720  138.7570 C   0  0  0  0  0  1  0  0  0  0  0  0
  179.8930  180.5440  140.8070 C   0  0  0  0  0  2  0  0  0  0  0  0
  180.9110  178.7910  138.3710 C   0  0  0  0  0  2  0  0  0  0  0  0
  181.7710  178.6100  137.1250 C   0  0  0  0  0  3  0  0  0  0  0  0
  183.4840  177.1790  135.9920 C   0  0  0  0  0  2  0  0  0  0  0  0
  181.7260  178.3450  134.6390 C   0  0  0  0  0  2  0  0  0  0  0  0
  182.5960  177.0960  134.7510 C   0  0  0  0  0  2  0  0  0  0  0  0
  180.8710  178.5020  135.8970 C   0  0  0  0  0  2  0  0  0  0  0  0
  182.6270  177.3510  137.2470 C   0  0  0  0  0  2  0  0  0  0  0  0
  189.6400  177.9950  138.8640 C   0  0  0  0  0  2  0  0  0  0  0  0
  187.5970  177.1640  136.4920 C   0  0  0  0  0  2  0  0  0  0  0  0
  188.3610  176.3630  135.4250 C   0  0  1  0  0  3  0  0  0  0  0  0
  190.2480  176.6480  137.0390 C   0  0  0  0  0  2  0  0  0  0  0  0
  187.9310  176.6780  137.9100 C   0  0  0  0  0  2  0  0  0  0  0  0
  189.3740  176.7190  138.2210 N   0  0  0  0  0  0  0  0  0  0  0  0
  189.6640  175.7510  135.9490 C   0  0  0  0  0  2  0  0  0  0  0  0
  187.8990  173.8920  135.0740 C   0  0  0  0  0  1  0  0  0  0  0  0
  187.4810  175.3200  134.7350 C   0  0  0  0  0  2  0  0  0  0  0  0
  1  5  1  0  0  0  0
  1  6  1  0  0  0  0
  2 12  1  0  0  0  0
  2 11  1  0  0  0  0
  3 10  1  0  0  0  0
  4  7  2  0  0  0  0
  4  8  1  0  0  0  0
  7  9  1  0  0  0  0
  8  1  2  0  0  0  0
  9  5  2  0  0  0  0
 10 11  2  0  0  0  0
 11  7  1  0  0  0  0
 12 15  2  0  0  0  0
 13 14  1  0  0  0  0
 13  2  2  0  0  0  0
 14  3  2  0  0  0  0
 15  4  1  0  0  0  0
 16  3  1  1  0  0  0
 16 18  1  0  0  0  0
 17 19  1  0  0  0  0
 17 16  1  0  0  0  0
 19 20  1  0  0  0  0
 20 18  1  0  0  0  0
 21 19  1  0  0  0  0
 22 21  1  6  0  0  0
 22 24  1  0  0  0  0
 23 27  1  0  0  0  0
 25 26  1  6  0  0  0
 25 23  1  0  0  0  0
 25 22  1  0  0  0  0
 27 24  1  0  0  0  0
 28 25  1  0  0  0  0
 29 34  1  0  0  0  0
 29 28  1  0  0  0  0
 30 34  1  0  0  0  0
 31 32  1  0  0  0  0
 31 33  1  0  0  0  0
 32 30  1  0  0  0  0
 33 29  1  0  0  0  0
 35 13  1  0  0  0  0
 36 39  1  0  0  0  0
 37 43  1  1  0  0  0
 37 41  1  0  0  0  0
 37 36  1  0  0  0  0
 38 40  1  0  0  0  0
 39 40  1  0  0  0  0
 40 35  1  0  0  0  0
 41 38  1  0  0  0  0
 43 42  1  0  0  0  0
M  END
>  <MODEL>
9

>  <REMARK>
 VINA RESULT:      -8.6      1.494      2.330
  Name = 
  8 active torsions:
  status: ('A' for Active; 'I' for Inactive)
    1  A    between atoms: C_1  and  C_34
    2  A    between atoms: C_1  and  N_35
    3  A    between atoms: C_2  and  C_13
    4  A    between atoms: C_3  and  C_4
    5  A    between atoms: C_3  and  N_12
    6  A    between atoms: C_11  and  C_14
    7  A    between atoms: C_14  and  C_22
    8  A    between atoms: C_19  and  C_37
                            x       y       z     vdW  Elec       q    Type
                         _______ _______ _______ _____ _____    ______ ____

>  <TORSDO>
F 8

$$$$
