=
 OpenBabel10262419133D

 34 37  0  0  1  0  0  0  0  0999 V2000
  186.5500  176.6170  136.3100 C   0  0  0  0  0  0  0  0  0  0  0  0
  188.7690  176.9210  137.2790 C   0  0  0  0  0  0  0  0  0  0  0  0
  186.7910  177.8510  138.4150 C   0  0  0  0  0  0  0  0  0  0  0  0
  187.3770  178.3790  140.7250 C   0  0  0  0  0  0  0  0  0  0  0  0
  188.4970  175.7020  135.1990 C   0  0  0  0  0  3  0  0  0  0  0  0
  189.3170  176.2000  136.2140 C   0  0  0  0  0  3  0  0  0  0  0  0
  189.1350  178.6070  139.0960 C   0  0  0  0  0  2  0  0  0  0  0  0
  187.3710  177.1330  137.3410 C   0  0  0  0  0  0  0  0  0  0  0  0
  187.0500  178.3260  141.9850 C   0  0  0  0  0  3  0  0  0  0  0  0
  187.1170  175.9090  135.2480 C   0  0  0  0  0  3  0  0  0  0  0  0
  185.3860  178.0450  138.4360 C   0  0  0  0  0  0  0  0  0  0  0  0
  185.1720  176.8120  136.3500 C   0  0  0  0  0  3  0  0  0  0  0  0
  189.6780  177.3670  138.3900 C   0  0  0  0  0  2  0  0  0  0  0  0
  187.7000  178.3960  139.4600 C   0  0  0  0  0  0  0  0  0  0  0  0
  184.5960  177.5220  137.4020 C   0  0  0  0  0  3  0  0  0  0  0  0
  184.6560  180.2000  139.1250 O   0  0  0  0  0  1  0  0  0  0  0  0
  184.7180  178.8570  139.5060 C   0  0  1  0  0  3  0  0  0  0  0  0
  183.4450  178.8100  142.0570 O   0  0  0  0  0  1  0  0  0  0  0  0
  181.4950  177.9220  141.2500 O   0  0  0  0  0  0  0  0  0  0  0  0
  183.3770  178.3520  139.7670 N   0  0  0  0  0  2  0  0  0  0  0  0
  182.7920  178.3810  141.0700 C   0  0  0  0  0  0  0  0  0  0  0  0
  187.3910  177.1070  142.7770 C   0  0  0  0  0  2  0  0  0  0  0  0
  188.5870  177.3290  143.7100 C   0  0  1  0  0  3  0  0  0  0  0  0
  190.2500  176.0210  141.5190 O   0  0  0  0  0  1  0  0  0  0  0  0
  189.8150  177.9240  142.9810 C   0  0  2  0  0  3  0  0  0  0  0  0
  190.8090  176.8550  142.4870 C   0  0  1  0  0  3  0  0  0  0  0  0
  191.5620  176.8400  144.9290 C   0  0  0  0  0  2  0  0  0  0  0  0
  191.7610  178.3260  144.6440 C   0  0  0  0  0  2  0  0  0  0  0  0
  190.5620  178.9250  143.8900 C   0  0  0  0  0  2  0  0  0  0  0  0
  191.4160  176.0330  143.6310 C   0  0  0  0  0  2  0  0  0  0  0  0
  188.1770  178.1760  144.9200 C   0  0  0  0  0  2  0  0  0  0  0  0
  187.4810  177.3430  145.9840 C   0  0  0  0  0  3  0  0  0  0  0  0
  188.3290  177.3380  147.2380 C   0  0  0  0  0  1  0  0  0  0  0  0
  186.1220  177.9290  146.3150 C   0  0  0  0  0  1  0  0  0  0  0  0
  1 12  2  0  0  0  0
  1  8  1  0  0  0  0
  2  8  1  0  0  0  0
  2 13  1  0  0  0  0
  3 11  1  0  0  0  0
  3 14  1  0  0  0  0
  4  9  2  0  0  0  0
  5 10  2  0  0  0  0
  5  6  1  0  0  0  0
  6  2  2  0  0  0  0
  7 14  1  0  0  0  0
  8  3  2  0  0  0  0
  9 22  1  0  0  0  0
 10  1  1  0  0  0  0
 11 17  1  0  0  0  0
 12 15  1  0  0  0  0
 13  7  1  0  0  0  0
 14  4  2  0  0  0  0
 15 11  2  0  0  0  0
 17 16  1  6  0  0  0
 17 20  1  0  0  0  0
 20 21  1  0  0  0  0
 21 19  2  0  0  0  0
 21 18  1  0  0  0  0
 23 22  1  6  0  0  0
 23 31  1  0  0  0  0
 25 23  1  1  0  0  0
 25 29  1  0  0  0  0
 26 24  1  6  0  0  0
 26 25  1  0  0  0  0
 26 30  1  0  0  0  0
 28 27  1  0  0  0  0
 29 28  1  0  0  0  0
 30 27  1  0  0  0  0
 31 32  1  0  0  0  0
 32 34  1  0  0  0  0
 32 33  1  0  0  0  0
M  END
>  <MODEL>
1

>  <REMARK>
 VINA RESULT:      -8.8      0.000      0.000
  Name = 
  7 active torsions:
  status: ('A' for Active; 'I' for Inactive)
    1  A    between atoms: C_3  and  C_13
    2  A    between atoms: C_3  and  C_17
    3  A    between atoms: C_3  and  C_29
    4  A    between atoms: C_7  and  C_17
    5  A    between atoms: C_18  and  C_29
    6  A    between atoms: C_21  and  C_28
    7  A    between atoms: N_23  and  C_28
                            x       y       z     vdW  Elec       q    Type
                         _______ _______ _______ _____ _____    ______ ____

>  <TORSDO>
F 7

$$$$
=
 OpenBabel10262419133D

 34 37  0  0  1  0  0  0  0  0999 V2000
  187.7700  177.4260  145.2800 C   0  0  0  0  0  0  0  0  0  0  0  0
  185.6160  178.5380  145.5670 C   0  0  0  0  0  0  0  0  0  0  0  0
  186.6030  178.3250  143.3190 C   0  0  0  0  0  0  0  0  0  0  0  0
  184.8680  178.7230  141.6490 C   0  0  0  0  0  0  0  0  0  0  0  0
  186.7940  177.6340  147.4860 C   0  0  0  0  0  3  0  0  0  0  0  0
  185.6900  178.2930  146.9410 C   0  0  0  0  0  3  0  0  0  0  0  0
  184.6580  179.9340  143.7200 C   0  0  0  0  0  2  0  0  0  0  0  0
  186.6590  178.0990  144.7160 C   0  0  0  0  0  0  0  0  0  0  0  0
  184.3050  178.3520  140.5350 C   0  0  0  0  0  3  0  0  0  0  0  0
  187.8310  177.2010  146.6560 C   0  0  0  0  0  3  0  0  0  0  0  0
  187.6720  177.8730  142.5030 C   0  0  0  0  0  0  0  0  0  0  0  0
  188.8070  176.9840  144.4620 C   0  0  0  0  0  3  0  0  0  0  0  0
  184.3730  179.1760  145.0140 C   0  0  0  0  0  2  0  0  0  0  0  0
  185.4260  179.0600  142.7800 C   0  0  0  0  0  0  0  0  0  0  0  0
  188.7590  177.2080  143.0880 C   0  0  0  0  0  3  0  0  0  0  0  0
  188.0420  179.4800  140.7910 O   0  0  0  0  0  1  0  0  0  0  0  0
  187.7070  178.1440  141.0280 C   0  0  1  0  0  3  0  0  0  0  0  0
  187.8020  177.6120  138.2280 O   0  0  0  0  0  0  0  0  0  0  0  0
  189.6360  176.2490  138.3840 O   0  0  0  0  0  1  0  0  0  0  0  0
  188.6670  177.2680  140.3710 N   0  0  0  0  0  2  0  0  0  0  0  0
  188.6710  177.0650  138.9580 C   0  0  0  0  0  0  0  0  0  0  0  0
  183.2350  177.3090  140.5680 C   0  0  0  0  0  2  0  0  0  0  0  0
  181.8700  177.8550  140.1310 C   0  0  1  0  0  3  0  0  0  0  0  0
  183.0460  177.6930  137.3260 O   0  0  0  0  0  1  0  0  0  0  0  0
  181.2870  177.1050  138.9110 C   0  0  2  0  0  3  0  0  0  0  0  0
  181.6720  177.7420  137.5610 C   0  0  1  0  0  3  0  0  0  0  0  0
  179.8140  179.3980  138.1400 C   0  0  0  0  0  2  0  0  0  0  0  0
  178.9990  178.1100  138.2260 C   0  0  0  0  0  2  0  0  0  0  0  0
  179.7480  177.0150  139.0050 C   0  0  0  0  0  2  0  0  0  0  0  0
  181.1430  179.1740  137.4070 C   0  0  0  0  0  2  0  0  0  0  0  0
  180.8920  177.8710  141.3110 C   0  0  0  0  0  2  0  0  0  0  0  0
  181.0680  179.1090  142.1750 C   0  0  0  0  0  3  0  0  0  0  0  0
  180.0010  180.1190  141.8100 C   0  0  0  0  0  1  0  0  0  0  0  0
  180.9270  178.7580  143.6440 C   0  0  0  0  0  1  0  0  0  0  0  0
  1 10  2  0  0  0  0
  2  6  1  0  0  0  0
  3  8  1  0  0  0  0
  4 14  2  0  0  0  0
  6  5  2  0  0  0  0
  7 13  1  0  0  0  0
  8  1  1  0  0  0  0
  8  2  2  0  0  0  0
  9 22  1  0  0  0  0
  9  4  2  0  0  0  0
 10  5  1  0  0  0  0
 11 15  1  0  0  0  0
 11  3  2  0  0  0  0
 12  1  1  0  0  0  0
 13  2  1  0  0  0  0
 14  3  1  0  0  0  0
 14  7  1  0  0  0  0
 15 12  2  0  0  0  0
 17 16  1  1  0  0  0
 17 11  1  0  0  0  0
 18 21  2  0  0  0  0
 19 21  1  0  0  0  0
 20 17  1  0  0  0  0
 21 20  1  0  0  0  0
 23 22  1  1  0  0  0
 23 31  1  0  0  0  0
 25 29  1  0  0  0  0
 25 23  1  1  0  0  0
 26 24  1  1  0  0  0
 26 25  1  0  0  0  0
 27 28  1  0  0  0  0
 28 29  1  0  0  0  0
 30 26  1  0  0  0  0
 30 27  1  0  0  0  0
 31 32  1  0  0  0  0
 32 34  1  0  0  0  0
 33 32  1  0  0  0  0
M  END
>  <MODEL>
2

>  <REMARK>
 VINA RESULT:      -8.1      2.693      8.556
  Name = 
  7 active torsions:
  status: ('A' for Active; 'I' for Inactive)
    1  A    between atoms: C_3  and  C_13
    2  A    between atoms: C_3  and  C_17
    3  A    between atoms: C_3  and  C_29
    4  A    between atoms: C_7  and  C_17
    5  A    between atoms: C_18  and  C_29
    6  A    between atoms: C_21  and  C_28
    7  A    between atoms: N_23  and  C_28
                            x       y       z     vdW  Elec       q    Type
                         _______ _______ _______ _____ _____    ______ ____

>  <TORSDO>
F 7

$$$$
=
 OpenBabel10262419133D

 34 37  0  0  1  0  0  0  0  0999 V2000
  185.8540  178.8310  146.0180 C   0  0  0  0  0  0  0  0  0  0  0  0
  187.9440  177.6320  145.6330 C   0  0  0  0  0  0  0  0  0  0  0  0
  186.3180  177.8940  143.8000 C   0  0  0  0  0  0  0  0  0  0  0  0
  187.4330  177.4320  141.6780 C   0  0  0  0  0  0  0  0  0  0  0  0
  187.4560  178.5750  147.8150 C   0  0  0  0  0  3  0  0  0  0  0  0
  188.3100  177.8740  146.9600 C   0  0  0  0  0  3  0  0  0  0  0  0
  188.2270  176.2060  143.5920 C   0  0  0  0  0  2  0  0  0  0  0  0
  186.7070  178.1160  145.1440 C   0  0  0  0  0  0  0  0  0  0  0  0
  187.6370  177.7840  140.4410 C   0  0  0  0  0  3  0  0  0  0  0  0
  186.2320  179.0530  147.3440 C   0  0  0  0  0  3  0  0  0  0  0  0
  185.0680  178.3920  143.3520 C   0  0  0  0  0  0  0  0  0  0  0  0
  184.6330  179.3190  145.5580 C   0  0  0  0  0  3  0  0  0  0  0  0
  188.9290  176.9460  144.7280 C   0  0  0  0  0  2  0  0  0  0  0  0
  187.2400  177.1130  142.9290 C   0  0  0  0  0  0  0  0  0  0  0  0
  184.2430  179.0980  144.2390 C   0  0  0  0  0  3  0  0  0  0  0  0
  183.2490  177.6640  142.0060 O   0  0  0  0  0  1  0  0  0  0  0  0
  184.5660  178.1280  141.9630 C   0  0  1  0  0  3  0  0  0  0  0  0
  184.3710  178.2230  139.1200 O   0  0  0  0  0  1  0  0  0  0  0  0
  184.5530  180.5030  139.0200 O   0  0  0  0  0  0  0  0  0  0  0  0
  184.6420  179.3370  141.1550 N   0  0  0  0  0  2  0  0  0  0  0  0
  184.5120  179.3130  139.7330 C   0  0  0  0  0  0  0  0  0  0  0  0
  188.7050  178.7830  140.1320 C   0  0  0  0  0  2  0  0  0  0  0  0
  189.8320  178.1900  139.2780 C   0  0  1  0  0  3  0  0  0  0  0  0
  191.0680  177.5110  141.9780 O   0  0  0  0  0  1  0  0  0  0  0  0
  190.2950  176.8010  139.7760 C   0  0  2  0  0  3  0  0  0  0  0  0
  191.4470  176.8710  140.7980 C   0  0  1  0  0  3  0  0  0  0  0  0
  192.8880  177.2280  138.7180 C   0  0  0  0  0  2  0  0  0  0  0  0
  192.2400  175.9060  138.3150 C   0  0  0  0  0  2  0  0  0  0  0  0
  190.7270  175.9080  138.5920 C   0  0  0  0  0  2  0  0  0  0  0  0
  192.7190  177.5020  140.2190 C   0  0  0  0  0  2  0  0  0  0  0  0
  189.4310  178.1610  137.8000 C   0  0  0  0  0  2  0  0  0  0  0  0
  187.9360  177.9450  137.6230 C   0  0  0  0  0  3  0  0  0  0  0  0
  187.3930  179.0050  136.6890 C   0  0  0  0  0  1  0  0  0  0  0  0
  187.6630  176.5780  137.0240 C   0  0  0  0  0  1  0  0  0  0  0  0
  1 10  2  0  0  0  0
  2  6  1  0  0  0  0
  3  8  1  0  0  0  0
  4 14  2  0  0  0  0
  6  5  2  0  0  0  0
  7 13  1  0  0  0  0
  8  2  2  0  0  0  0
  8  1  1  0  0  0  0
  9  4  2  0  0  0  0
 10  5  1  0  0  0  0
 11  3  2  0  0  0  0
 11 15  1  0  0  0  0
 12  1  1  0  0  0  0
 13  2  1  0  0  0  0
 14  7  1  0  0  0  0
 14  3  1  0  0  0  0
 15 12  2  0  0  0  0
 17 16  1  1  0  0  0
 17 11  1  0  0  0  0
 18 21  1  0  0  0  0
 19 21  2  0  0  0  0
 20 17  1  0  0  0  0
 21 20  1  0  0  0  0
 22  9  1  0  0  0  0
 23 31  1  6  0  0  0
 23 22  1  0  0  0  0
 25 23  1  6  0  0  0
 25 26  1  0  0  0  0
 26 24  1  1  0  0  0
 27 30  1  0  0  0  0
 28 29  1  0  0  0  0
 28 27  1  0  0  0  0
 29 25  1  0  0  0  0
 30 26  1  0  0  0  0
 32 31  1  0  0  0  0
 33 32  1  0  0  0  0
 34 32  1  0  0  0  0
M  END
>  <MODEL>
3

>  <REMARK>
 VINA RESULT:      -8.1      1.744      6.734
  Name = 
  7 active torsions:
  status: ('A' for Active; 'I' for Inactive)
    1  A    between atoms: C_3  and  C_13
    2  A    between atoms: C_3  and  C_17
    3  A    between atoms: C_3  and  C_29
    4  A    between atoms: C_7  and  C_17
    5  A    between atoms: C_18  and  C_29
    6  A    between atoms: C_21  and  C_28
    7  A    between atoms: N_23  and  C_28
                            x       y       z     vdW  Elec       q    Type
                         _______ _______ _______ _____ _____    ______ ____

>  <TORSDO>
F 7

$$$$
=
 OpenBabel10262419133D

 34 37  0  0  1  0  0  0  0  0999 V2000
  189.0730  174.9220  136.3480 C   0  0  0  0  0  0  0  0  0  0  0  0
  190.9610  175.3470  137.8340 C   0  0  0  0  0  0  0  0  0  0  0  0
  188.9140  176.7050  138.0240 C   0  0  0  0  0  0  0  0  0  0  0  0
  188.9180  177.8530  140.1780 C   0  0  0  0  0  0  0  0  0  0  0  0
  191.0840  173.5880  136.1680 C   0  0  0  0  0  3  0  0  0  0  0  0
  191.6620  174.3070  137.2170 C   0  0  0  0  0  3  0  0  0  0  0  0
  191.0690  177.4670  139.1670 C   0  0  0  0  0  2  0  0  0  0  0  0
  189.6490  175.6630  137.4070 C   0  0  0  0  0  0  0  0  0  0  0  0
  188.2550  178.1980  141.2440 C   0  0  0  0  0  3  0  0  0  0  0  0
  189.7930  173.8940  135.7360 C   0  0  0  0  0  3  0  0  0  0  0  0
  187.6030  176.9920  137.5610 C   0  0  0  0  0  0  0  0  0  0  0  0
  187.7820  175.2140  135.9110 C   0  0  0  0  0  3  0  0  0  0  0  0
  191.5870  176.0390  139.0120 C   0  0  0  0  0  2  0  0  0  0  0  0
  189.5740  177.4710  139.1150 C   0  0  0  0  0  0  0  0  0  0  0  0
  187.0560  176.2420  136.5110 C   0  0  0  0  0  3  0  0  0  0  0  0
  186.8970  179.2460  137.2890 O   0  0  0  0  0  1  0  0  0  0  0  0
  186.8010  178.1290  138.1230 C   0  0  1  0  0  3  0  0  0  0  0  0
  184.8230  179.6210  139.5350 O   0  0  0  0  0  1  0  0  0  0  0  0
  183.1360  178.1490  139.0550 O   0  0  0  0  0  0  0  0  0  0  0  0
  185.4050  177.7410  138.2750 N   0  0  0  0  0  2  0  0  0  0  0  0
  184.4620  178.5510  138.9770 C   0  0  0  0  0  0  0  0  0  0  0  0
  188.1750  177.2470  142.3940 C   0  0  0  0  0  2  0  0  0  0  0  0
  187.6770  177.9210  143.6780 C   0  0  1  0  0  3  0  0  0  0  0  0
  184.9150  177.8680  142.3940 O   0  0  0  0  0  1  0  0  0  0  0  0
  186.3930  177.2670  144.2400 C   0  0  2  0  0  3  0  0  0  0  0  0
  185.0990  177.9620  143.7730 C   0  0  1  0  0  3  0  0  0  0  0  0
  185.6990  179.6600  145.5860 C   0  0  0  0  0  2  0  0  0  0  0  0
  185.6780  178.4050  146.4550 C   0  0  0  0  0  2  0  0  0  0  0  0
  186.4200  177.2380  145.7840 C   0  0  0  0  0  2  0  0  0  0  0  0
  185.0070  179.4220  144.2370 C   0  0  0  0  0  2  0  0  0  0  0  0
  188.7930  177.9770  144.7270 C   0  0  0  0  0  2  0  0  0  0  0  0
  190.1630  177.7500  144.1080 C   0  0  0  0  0  3  0  0  0  0  0  0
  190.8640  179.0830  143.9630 C   0  0  0  0  0  1  0  0  0  0  0  0
  191.0040  176.8480  144.9910 C   0  0  0  0  0  1  0  0  0  0  0  0
  1  8  1  0  0  0  0
  2 13  1  0  0  0  0
  3 14  1  0  0  0  0
  4  9  2  0  0  0  0
  5  6  1  0  0  0  0
  6  2  2  0  0  0  0
  8  2  1  0  0  0  0
  8  3  2  0  0  0  0
  9 22  1  0  0  0  0
 10  5  2  0  0  0  0
 10  1  1  0  0  0  0
 11  3  1  0  0  0  0
 11 17  1  0  0  0  0
 12  1  2  0  0  0  0
 12 15  1  0  0  0  0
 13  7  1  0  0  0  0
 14  7  1  0  0  0  0
 14  4  2  0  0  0  0
 15 11  2  0  0  0  0
 17 16  1  6  0  0  0
 17 20  1  0  0  0  0
 20 21  1  0  0  0  0
 21 19  2  0  0  0  0
 21 18  1  0  0  0  0
 23 22  1  6  0  0  0
 23 31  1  0  0  0  0
 25 23  1  1  0  0  0
 25 29  1  0  0  0  0
 26 24  1  6  0  0  0
 26 30  1  0  0  0  0
 26 25  1  0  0  0  0
 27 28  1  0  0  0  0
 29 28  1  0  0  0  0
 30 27  1  0  0  0  0
 32 31  1  0  0  0  0
 32 34  1  0  0  0  0
 33 32  1  0  0  0  0
M  END
>  <MODEL>
4

>  <REMARK>
 VINA RESULT:      -7.9      1.741      3.667
  Name = 
  7 active torsions:
  status: ('A' for Active; 'I' for Inactive)
    1  A    between atoms: C_3  and  C_13
    2  A    between atoms: C_3  and  C_17
    3  A    between atoms: C_3  and  C_29
    4  A    between atoms: C_7  and  C_17
    5  A    between atoms: C_18  and  C_29
    6  A    between atoms: C_21  and  C_28
    7  A    between atoms: N_23  and  C_28
                            x       y       z     vdW  Elec       q    Type
                         _______ _______ _______ _____ _____    ______ ____

>  <TORSDO>
F 7

$$$$
=
 OpenBabel10262419133D

 34 37  0  0  1  0  0  0  0  0999 V2000
  188.2120  177.3730  145.0360 C   0  0  0  0  0  0  0  0  0  0  0  0
  186.0430  178.3980  145.4840 C   0  0  0  0  0  0  0  0  0  0  0  0
  186.8850  178.2560  143.1720 C   0  0  0  0  0  0  0  0  0  0  0  0
  185.0290  178.6130  141.6270 C   0  0  0  0  0  0  0  0  0  0  0  0
  187.3780  177.5110  147.3040 C   0  0  0  0  0  3  0  0  0  0  0  0
  186.2170  178.1360  146.8460 C   0  0  0  0  0  3  0  0  0  0  0  0
  184.9140  179.7850  143.7280 C   0  0  0  0  0  2  0  0  0  0  0  0
  187.0430  178.0110  144.5580 C   0  0  0  0  0  0  0  0  0  0  0  0
  184.4070  178.2380  140.5460 C   0  0  0  0  0  3  0  0  0  0  0  0
  188.3720  177.1290  146.4010 C   0  0  0  0  0  3  0  0  0  0  0  0
  187.9130  177.8560  142.2800 C   0  0  0  0  0  0  0  0  0  0  0  0
  189.2080  176.9810  144.1440 C   0  0  0  0  0  3  0  0  0  0  0  0
  184.7430  178.9980  145.0250 C   0  0  0  0  0  2  0  0  0  0  0  0
  185.6500  178.9550  142.7240 C   0  0  0  0  0  0  0  0  0  0  0  0
  189.0610  177.2240  142.7800 C   0  0  0  0  0  3  0  0  0  0  0  0
  188.2690  179.4570  140.5580 O   0  0  0  0  0  1  0  0  0  0  0  0
  187.8410  178.1510  140.8110 C   0  0  1  0  0  3  0  0  0  0  0  0
  187.6590  177.6860  138.0030 O   0  0  0  0  0  1  0  0  0  0  0  0
  189.3610  176.1540  137.9810 O   0  0  0  0  0  0  0  0  0  0  0  0
  188.6560  177.2060  140.0600 N   0  0  0  0  0  2  0  0  0  0  0  0
  188.5280  177.0420  138.6480 C   0  0  0  0  0  0  0  0  0  0  0  0
  183.3810  177.1560  140.6320 C   0  0  0  0  0  2  0  0  0  0  0  0
  182.0190  177.5940  140.0810 C   0  0  1  0  0  3  0  0  0  0  0  0
  181.6270  178.9550  142.7780 O   0  0  0  0  0  1  0  0  0  0  0  0
  181.7180  179.0880  140.3430 C   0  0  2  0  0  3  0  0  0  0  0  0
  180.9170  179.3310  141.6380 C   0  0  1  0  0  3  0  0  0  0  0  0
  178.9310  178.6040  140.2040 C   0  0  0  0  0  2  0  0  0  0  0  0
  179.4280  179.7530  139.3300 C   0  0  0  0  0  2  0  0  0  0  0  0
  180.9550  179.7130  139.1550 C   0  0  0  0  0  2  0  0  0  0  0  0
  179.5330  178.6700  141.6140 C   0  0  0  0  0  2  0  0  0  0  0  0
  181.9010  177.2420  138.5940 C   0  0  0  0  0  2  0  0  0  0  0  0
  181.4770  175.7970  138.3870 C   0  0  0  0  0  3  0  0  0  0  0  0
  180.4730  175.4210  139.4550 C   0  0  0  0  0  1  0  0  0  0  0  0
  180.8310  175.6220  137.0250 C   0  0  0  0  0  1  0  0  0  0  0  0
  1 10  2  0  0  0  0
  2  6  1  0  0  0  0
  3  8  1  0  0  0  0
  4 14  2  0  0  0  0
  6  5  2  0  0  0  0
  7 13  1  0  0  0  0
  8  1  1  0  0  0  0
  8  2  2  0  0  0  0
  9 22  1  0  0  0  0
  9  4  2  0  0  0  0
 10  5  1  0  0  0  0
 11 15  1  0  0  0  0
 11  3  2  0  0  0  0
 12  1  1  0  0  0  0
 13  2  1  0  0  0  0
 14  3  1  0  0  0  0
 14  7  1  0  0  0  0
 15 12  2  0  0  0  0
 17 16  1  1  0  0  0
 17 11  1  0  0  0  0
 18 21  1  0  0  0  0
 19 21  2  0  0  0  0
 20 17  1  0  0  0  0
 21 20  1  0  0  0  0
 23 31  1  6  0  0  0
 23 22  1  0  0  0  0
 25 23  1  6  0  0  0
 25 26  1  0  0  0  0
 26 24  1  1  0  0  0
 27 30  1  0  0  0  0
 28 27  1  0  0  0  0
 29 28  1  0  0  0  0
 29 25  1  0  0  0  0
 30 26  1  0  0  0  0
 32 31  1  0  0  0  0
 32 33  1  0  0  0  0
 34 32  1  0  0  0  0
M  END
>  <MODEL>
5

>  <REMARK>
 VINA RESULT:      -7.7      2.613      8.630
  Name = 
  7 active torsions:
  status: ('A' for Active; 'I' for Inactive)
    1  A    between atoms: C_3  and  C_13
    2  A    between atoms: C_3  and  C_17
    3  A    between atoms: C_3  and  C_29
    4  A    between atoms: C_7  and  C_17
    5  A    between atoms: C_18  and  C_29
    6  A    between atoms: C_21  and  C_28
    7  A    between atoms: N_23  and  C_28
                            x       y       z     vdW  Elec       q    Type
                         _______ _______ _______ _____ _____    ______ ____

>  <TORSDO>
F 7

$$$$
=
 OpenBabel10262419133D

 34 37  0  0  1  0  0  0  0  0999 V2000
  186.4860  176.5910  136.6740 C   0  0  0  0  0  0  0  0  0  0  0  0
  188.6490  176.8280  137.7800 C   0  0  0  0  0  0  0  0  0  0  0  0
  186.6530  177.9190  138.7280 C   0  0  0  0  0  0  0  0  0  0  0  0
  187.1120  178.5370  141.0450 C   0  0  0  0  0  0  0  0  0  0  0  0
  188.4480  175.5170  135.7490 C   0  0  0  0  0  3  0  0  0  0  0  0
  189.2250  176.0240  136.7930 C   0  0  0  0  0  3  0  0  0  0  0  0
  188.9860  178.5860  139.5340 C   0  0  0  0  0  2  0  0  0  0  0  0
  187.2630  177.1160  137.7340 C   0  0  0  0  0  0  0  0  0  0  0  0
  186.6990  178.5680  142.2800 C   0  0  0  0  0  3  0  0  0  0  0  0
  187.0820  175.7990  135.6910 C   0  0  0  0  0  3  0  0  0  0  0  0
  185.2630  178.1880  138.6410 C   0  0  0  0  0  0  0  0  0  0  0  0
  185.1210  176.8600  136.6090 C   0  0  0  0  0  3  0  0  0  0  0  0
  189.5040  177.2830  138.9290 C   0  0  0  0  0  2  0  0  0  0  0  0
  187.5200  178.4700  139.8060 C   0  0  0  0  0  0  0  0  0  0  0  0
  184.5170  177.6540  137.5820 C   0  0  0  0  0  3  0  0  0  0  0  0
  184.5610  180.4030  139.1440 O   0  0  0  0  0  1  0  0  0  0  0  0
  184.5720  179.0900  139.6210 C   0  0  1  0  0  3  0  0  0  0  0  0
  183.3310  178.8670  142.1790 O   0  0  0  0  0  1  0  0  0  0  0  0
  181.3240  178.1680  141.3260 O   0  0  0  0  0  0  0  0  0  0  0  0
  183.2080  178.6360  139.8570 N   0  0  0  0  0  2  0  0  0  0  0  0
  182.6420  178.5710  141.1670 C   0  0  0  0  0  0  0  0  0  0  0  0
  186.9170  177.3750  143.1530 C   0  0  0  0  0  2  0  0  0  0  0  0
  187.5180  177.7470  144.5130 C   0  0  1  0  0  3  0  0  0  0  0  0
  184.6000  178.2350  145.2380 O   0  0  0  0  0  1  0  0  0  0  0  0
  186.7320  177.1440  145.7020 C   0  0  2  0  0  3  0  0  0  0  0  0
  185.5910  178.0510  146.2010 C   0  0  1  0  0  3  0  0  0  0  0  0
  187.4870  179.3070  147.3660 C   0  0  0  0  0  2  0  0  0  0  0  0
  187.7410  177.9230  147.9570 C   0  0  0  0  0  2  0  0  0  0  0  0
  187.6760  176.8260  146.8810 C   0  0  0  0  0  2  0  0  0  0  0  0
  186.0930  179.4010  146.7320 C   0  0  0  0  0  2  0  0  0  0  0  0
  189.0040  177.3750  144.5670 C   0  0  0  0  0  2  0  0  0  0  0  0
  189.7960  178.0540  143.4610 C   0  0  0  0  0  3  0  0  0  0  0  0
  190.6980  179.1030  144.0750 C   0  0  0  0  0  1  0  0  0  0  0  0
  190.6540  177.0430  142.7240 C   0  0  0  0  0  1  0  0  0  0  0  0
  1  8  1  0  0  0  0
  2 13  1  0  0  0  0
  3 14  1  0  0  0  0
  4  9  2  0  0  0  0
  5  6  1  0  0  0  0
  6  2  2  0  0  0  0
  7 14  1  0  0  0  0
  8  2  1  0  0  0  0
  8  3  2  0  0  0  0
  9 22  1  0  0  0  0
 10  5  2  0  0  0  0
 10  1  1  0  0  0  0
 11  3  1  0  0  0  0
 11 17  1  0  0  0  0
 12  1  2  0  0  0  0
 12 15  1  0  0  0  0
 13  7  1  0  0  0  0
 14  4  2  0  0  0  0
 15 11  2  0  0  0  0
 17 16  1  6  0  0  0
 17 20  1  0  0  0  0
 20 21  1  0  0  0  0
 21 19  2  0  0  0  0
 21 18  1  0  0  0  0
 23 22  1  6  0  0  0
 23 31  1  0  0  0  0
 25 23  1  6  0  0  0
 25 26  1  0  0  0  0
 25 29  1  0  0  0  0
 26 24  1  6  0  0  0
 26 30  1  0  0  0  0
 27 28  1  0  0  0  0
 29 28  1  0  0  0  0
 30 27  1  0  0  0  0
 32 33  1  0  0  0  0
 32 31  1  0  0  0  0
 34 32  1  0  0  0  0
M  END
>  <MODEL>
6

>  <REMARK>
 VINA RESULT:      -7.6      1.421      3.020
  Name = 
  7 active torsions:
  status: ('A' for Active; 'I' for Inactive)
    1  A    between atoms: C_3  and  C_13
    2  A    between atoms: C_3  and  C_17
    3  A    between atoms: C_3  and  C_29
    4  A    between atoms: C_7  and  C_17
    5  A    between atoms: C_18  and  C_29
    6  A    between atoms: C_21  and  C_28
    7  A    between atoms: N_23  and  C_28
                            x       y       z     vdW  Elec       q    Type
                         _______ _______ _______ _____ _____    ______ ____

>  <TORSDO>
F 7

$$$$
=
 OpenBabel10262419133D

 34 37  0  0  1  0  0  0  0  0999 V2000
  185.6700  179.0790  145.7740 C   0  0  0  0  0  0  0  0  0  0  0  0
  187.6290  177.6250  145.8270 C   0  0  0  0  0  0  0  0  0  0  0  0
  186.3600  177.9080  143.7340 C   0  0  0  0  0  0  0  0  0  0  0  0
  187.7310  177.1430  141.8640 C   0  0  0  0  0  0  0  0  0  0  0  0
  186.9230  178.8020  147.8270 C   0  0  0  0  0  3  0  0  0  0  0  0
  187.8080  177.9380  147.1770 C   0  0  0  0  0  3  0  0  0  0  0  0
  188.0520  176.0050  143.9620 C   0  0  0  0  0  2  0  0  0  0  0  0
  186.5560  178.2010  145.1060 C   0  0  0  0  0  0  0  0  0  0  0  0
  188.1710  177.3620  140.6580 C   0  0  0  0  0  3  0  0  0  0  0  0
  185.8580  179.3710  147.1270 C   0  0  0  0  0  3  0  0  0  0  0  0
  185.2690  178.5030  143.0500 C   0  0  0  0  0  0  0  0  0  0  0  0
  184.6080  179.6590  145.0850 C   0  0  0  0  0  3  0  0  0  0  0  0
  188.6520  176.7580  145.1470 C   0  0  0  0  0  2  0  0  0  0  0  0
  187.3030  176.9570  143.0840 C   0  0  0  0  0  0  0  0  0  0  0  0
  184.4080  179.3710  143.7360 C   0  0  0  0  0  3  0  0  0  0  0  0
  183.7450  177.5020  141.5240 O   0  0  0  0  0  1  0  0  0  0  0  0
  184.9650  178.1780  141.6170 C   0  0  1  0  0  3  0  0  0  0  0  0
  184.4100  178.2890  138.8220 O   0  0  0  0  0  1  0  0  0  0  0  0
  184.5480  180.5720  138.7200 O   0  0  0  0  0  0  0  0  0  0  0  0
  184.9220  179.3930  140.8170 N   0  0  0  0  0  2  0  0  0  0  0  0
  184.6130  179.3770  139.4220 C   0  0  0  0  0  0  0  0  0  0  0  0
  189.3900  178.2040  140.4670 C   0  0  0  0  0  2  0  0  0  0  0  0
  190.6390  177.3670  140.1630 C   0  0  1  0  0  3  0  0  0  0  0  0
  189.1350  178.3530  137.7040 O   0  0  0  0  0  1  0  0  0  0  0  0
  191.2190  177.6440  138.7560 C   0  0  2  0  0  3  0  0  0  0  0  0
  190.1920  177.4480  137.6230 C   0  0  1  0  0  3  0  0  0  0  0  0
  190.7180  174.9700  137.9660 C   0  0  0  0  0  2  0  0  0  0  0  0
  192.1370  175.4640  137.6980 C   0  0  0  0  0  2  0  0  0  0  0  0
  192.4480  176.7500  138.4820 C   0  0  0  0  0  2  0  0  0  0  0  0
  189.6710  176.0070  137.5350 C   0  0  0  0  0  2  0  0  0  0  0  0
  191.6930  177.5520  141.2600 C   0  0  0  0  0  2  0  0  0  0  0  0
  191.0950  177.4030  142.6490 C   0  0  0  0  0  3  0  0  0  0  0  0
  191.6800  176.1720  143.3070 C   0  0  0  0  0  1  0  0  0  0  0  0
  191.4220  178.6150  143.5020 C   0  0  0  0  0  1  0  0  0  0  0  0
  1 10  2  0  0  0  0
  2  6  1  0  0  0  0
  3  8  1  0  0  0  0
  4 14  2  0  0  0  0
  6  5  2  0  0  0  0
  7 13  1  0  0  0  0
  8  1  1  0  0  0  0
  8  2  2  0  0  0  0
  9  4  2  0  0  0  0
 10  5  1  0  0  0  0
 11  3  2  0  0  0  0
 11 15  1  0  0  0  0
 12  1  1  0  0  0  0
 13  2  1  0  0  0  0
 14  3  1  0  0  0  0
 14  7  1  0  0  0  0
 15 12  2  0  0  0  0
 17 16  1  1  0  0  0
 17 11  1  0  0  0  0
 18 21  1  0  0  0  0
 19 21  2  0  0  0  0
 20 17  1  0  0  0  0
 21 20  1  0  0  0  0
 22  9  1  0  0  0  0
 23 22  1  1  0  0  0
 23 31  1  0  0  0  0
 25 23  1  1  0  0  0
 26 24  1  1  0  0  0
 26 25  1  0  0  0  0
 28 27  1  0  0  0  0
 28 29  1  0  0  0  0
 29 25  1  0  0  0  0
 30 26  1  0  0  0  0
 30 27  1  0  0  0  0
 31 32  1  0  0  0  0
 32 33  1  0  0  0  0
 32 34  1  0  0  0  0
M  END
>  <MODEL>
7

>  <REMARK>
 VINA RESULT:      -7.6      2.010      6.472
  Name = 
  7 active torsions:
  status: ('A' for Active; 'I' for Inactive)
    1  A    between atoms: C_3  and  C_13
    2  A    between atoms: C_3  and  C_17
    3  A    between atoms: C_3  and  C_29
    4  A    between atoms: C_7  and  C_17
    5  A    between atoms: C_18  and  C_29
    6  A    between atoms: C_21  and  C_28
    7  A    between atoms: N_23  and  C_28
                            x       y       z     vdW  Elec       q    Type
                         _______ _______ _______ _____ _____    ______ ____

>  <TORSDO>
F 7

$$$$
=
 OpenBabel10262419133D

 34 37  0  0  1  0  0  0  0  0999 V2000
  188.7770  175.1770  136.1730 C   0  0  0  0  0  0  0  0  0  0  0  0
  190.6380  175.4210  137.7320 C   0  0  0  0  0  0  0  0  0  0  0  0
  188.6380  176.8410  137.9690 C   0  0  0  0  0  0  0  0  0  0  0  0
  188.6270  177.8310  140.2000 C   0  0  0  0  0  0  0  0  0  0  0  0
  190.7420  173.7820  135.9460 C   0  0  0  0  0  3  0  0  0  0  0  0
  191.3170  174.4010  137.0580 C   0  0  0  0  0  3  0  0  0  0  0  0
  190.7890  177.4340  139.2160 C   0  0  0  0  0  2  0  0  0  0  0  0
  189.3510  175.8180  137.2970 C   0  0  0  0  0  0  0  0  0  0  0  0
  187.9480  178.1240  141.2720 C   0  0  0  0  0  3  0  0  0  0  0  0
  189.4750  174.1680  135.5060 C   0  0  0  0  0  3  0  0  0  0  0  0
  187.3530  177.2110  137.4970 C   0  0  0  0  0  0  0  0  0  0  0  0
  187.5110  175.5490  135.7270 C   0  0  0  0  0  3  0  0  0  0  0  0
  191.2580  176.0020  138.9720 C   0  0  0  0  0  2  0  0  0  0  0  0
  189.2970  177.5010  139.1290 C   0  0  0  0  0  0  0  0  0  0  0  0
  186.8070  176.5590  136.3820 C   0  0  0  0  0  3  0  0  0  0  0  0
  186.4740  179.4030  137.2240 O   0  0  0  0  0  1  0  0  0  0  0  0
  186.5780  178.3350  138.1190 C   0  0  1  0  0  3  0  0  0  0  0  0
  184.8050  179.7420  139.8530 O   0  0  0  0  0  1  0  0  0  0  0  0
  183.1330  178.1890  139.6720 O   0  0  0  0  0  0  0  0  0  0  0  0
  185.2500  177.8830  138.5100 N   0  0  0  0  0  2  0  0  0  0  0  0
  184.4040  178.6520  139.3660 C   0  0  0  0  0  0  0  0  0  0  0  0
  187.8020  177.0980  142.3480 C   0  0  0  0  0  2  0  0  0  0  0  0
  188.7700  177.3290  143.5140 C   0  0  1  0  0  3  0  0  0  0  0  0
  190.8270  175.6330  142.0410 O   0  0  0  0  0  1  0  0  0  0  0  0
  190.1810  177.7590  143.0480 C   0  0  2  0  0  3  0  0  0  0  0  0
  191.1860  176.5920  142.9870 C   0  0  1  0  0  3  0  0  0  0  0  0
  191.3040  176.9420  145.5160 C   0  0  0  0  0  2  0  0  0  0  0  0
  191.6750  178.3560  145.0780 C   0  0  0  0  0  2  0  0  0  0  0  0
  190.7480  178.8670  143.9620 C   0  0  0  0  0  2  0  0  0  0  0  0
  191.4280  175.9440  144.3570 C   0  0  0  0  0  2  0  0  0  0  0  0
  188.1760  178.3200  144.5210 C   0  0  0  0  0  2  0  0  0  0  0  0
  187.2950  177.6260  145.5460 C   0  0  0  0  0  3  0  0  0  0  0  0
  188.0560  177.5060  146.8490 C   0  0  0  0  0  1  0  0  0  0  0  0
  186.0300  178.4270  145.7910 C   0  0  0  0  0  1  0  0  0  0  0  0
  1  8  1  0  0  0  0
  2 13  1  0  0  0  0
  3 14  1  0  0  0  0
  4  9  2  0  0  0  0
  5  6  1  0  0  0  0
  6  2  2  0  0  0  0
  8  2  1  0  0  0  0
  8  3  2  0  0  0  0
  9 22  1  0  0  0  0
 10  5  2  0  0  0  0
 10  1  1  0  0  0  0
 11  3  1  0  0  0  0
 11 17  1  0  0  0  0
 12  1  2  0  0  0  0
 12 15  1  0  0  0  0
 13  7  1  0  0  0  0
 14  7  1  0  0  0  0
 14  4  2  0  0  0  0
 15 11  2  0  0  0  0
 17 16  1  6  0  0  0
 17 20  1  0  0  0  0
 20 21  1  0  0  0  0
 21 19  2  0  0  0  0
 21 18  1  0  0  0  0
 23 22  1  6  0  0  0
 23 31  1  0  0  0  0
 25 23  1  1  0  0  0
 25 29  1  0  0  0  0
 26 24  1  6  0  0  0
 26 25  1  0  0  0  0
 26 30  1  0  0  0  0
 28 27  1  0  0  0  0
 29 28  1  0  0  0  0
 30 27  1  0  0  0  0
 31 32  1  0  0  0  0
 32 34  1  0  0  0  0
 32 33  1  0  0  0  0
M  END
>  <MODEL>
8

>  <REMARK>
 VINA RESULT:      -7.4      1.341      1.924
  Name = 
  7 active torsions:
  status: ('A' for Active; 'I' for Inactive)
    1  A    between atoms: C_3  and  C_13
    2  A    between atoms: C_3  and  C_17
    3  A    between atoms: C_3  and  C_29
    4  A    between atoms: C_7  and  C_17
    5  A    between atoms: C_18  and  C_29
    6  A    between atoms: C_21  and  C_28
    7  A    between atoms: N_23  and  C_28
                            x       y       z     vdW  Elec       q    Type
                         _______ _______ _______ _____ _____    ______ ____

>  <TORSDO>
F 7

$$$$
=
 OpenBabel10262419133D

 34 37  0  0  1  0  0  0  0  0999 V2000
  184.2190  176.0300  136.5480 C   0  0  0  0  0  0  0  0  0  0  0  0
  186.4980  176.3160  135.7220 C   0  0  0  0  0  0  0  0  0  0  0  0
  185.7440  177.5560  137.7140 C   0  0  0  0  0  0  0  0  0  0  0  0
  187.6980  178.3940  138.9140 C   0  0  0  0  0  0  0  0  0  0  0  0
  184.9660  174.8110  134.5940 C   0  0  0  0  0  3  0  0  0  0  0  0
  186.2280  175.3990  134.7020 C   0  0  0  0  0  3  0  0  0  0  0  0
  187.9000  178.2340  136.5200 C   0  0  0  0  0  2  0  0  0  0  0  0
  185.4920  176.6380  136.6650 C   0  0  0  0  0  0  0  0  0  0  0  0
  188.3010  178.5620  140.0560 C   0  0  0  0  0  3  0  0  0  0  0  0
  183.9650  175.1250  135.5150 C   0  0  0  0  0  3  0  0  0  0  0  0
  184.7060  177.8540  138.6340 C   0  0  0  0  0  0  0  0  0  0  0  0
  183.2150  176.3300  137.4650 C   0  0  0  0  0  3  0  0  0  0  0  0
  187.8930  176.8620  135.8500 C   0  0  0  0  0  2  0  0  0  0  0  0
  187.0900  178.1880  137.7770 C   0  0  0  0  0  0  0  0  0  0  0  0
  183.4560  177.2360  138.4960 C   0  0  0  0  0  3  0  0  0  0  0  0
  184.4420  180.1230  139.2920 O   0  0  0  0  0  1  0  0  0  0  0  0
  184.8860  178.8700  139.7230 C   0  0  1  0  0  3  0  0  0  0  0  0
  185.3700  179.8630  142.3520 O   0  0  0  0  0  0  0  0  0  0  0  0
  183.6870  178.6350  143.3020 O   0  0  0  0  0  1  0  0  0  0  0  0
  184.1600  178.4690  140.9200 N   0  0  0  0  0  2  0  0  0  0  0  0
  184.4400  179.0270  142.2040 C   0  0  0  0  0  0  0  0  0  0  0  0
  189.1460  177.4590  140.6050 C   0  0  0  0  0  2  0  0  0  0  0  0
  189.3380  177.5680  142.1230 C   0  0  1  0  0  3  0  0  0  0  0  0
  192.1450  176.9540  141.1120 O   0  0  0  0  0  1  0  0  0  0  0  0
  190.6530  178.2840  142.5110 C   0  0  2  0  0  3  0  0  0  0  0  0
  191.8940  177.3740  142.4180 C   0  0  1  0  0  3  0  0  0  0  0  0
  191.0560  176.4870  144.6630 C   0  0  0  0  0  2  0  0  0  0  0  0
  191.1600  177.9650  145.0320 C   0  0  0  0  0  2  0  0  0  0  0  0
  190.5620  178.8660  143.9380 C   0  0  0  0  0  2  0  0  0  0  0  0
  191.8250  176.1750  143.3730 C   0  0  0  0  0  2  0  0  0  0  0  0
  188.1180  178.2260  142.7760 C   0  0  0  0  0  2  0  0  0  0  0  0
  187.2770  177.2200  143.5460 C   0  0  0  0  0  3  0  0  0  0  0  0
  187.9740  175.8770  143.5240 C   0  0  0  0  0  1  0  0  0  0  0  0
  187.1090  177.6610  144.9880 C   0  0  0  0  0  1  0  0  0  0  0  0
  1  8  2  0  0  0  0
  1 12  1  0  0  0  0
  2 13  1  0  0  0  0
  2  8  1  0  0  0  0
  3 14  1  0  0  0  0
  3 11  2  0  0  0  0
  4  9  2  0  0  0  0
  5  6  1  0  0  0  0
  5 10  2  0  0  0  0
  6  2  2  0  0  0  0
  7 14  1  0  0  0  0
  8  3  1  0  0  0  0
  9 22  1  0  0  0  0
 10  1  1  0  0  0  0
 11 17  1  0  0  0  0
 12 15  2  0  0  0  0
 13  7  1  0  0  0  0
 14  4  2  0  0  0  0
 15 11  1  0  0  0  0
 17 16  1  6  0  0  0
 17 20  1  0  0  0  0
 20 21  1  0  0  0  0
 21 18  2  0  0  0  0
 21 19  1  0  0  0  0
 23 22  1  6  0  0  0
 23 31  1  0  0  0  0
 25 23  1  1  0  0  0
 25 29  1  0  0  0  0
 26 24  1  6  0  0  0
 26 25  1  0  0  0  0
 26 30  1  0  0  0  0
 27 28  1  0  0  0  0
 29 28  1  0  0  0  0
 30 27  1  0  0  0  0
 31 32  1  0  0  0  0
 32 34  1  0  0  0  0
 33 32  1  0  0  0  0
M  END
>  <MODEL>
9

>  <REMARK>
 VINA RESULT:      -7.2      1.370      2.203
  Name = 
  7 active torsions:
  status: ('A' for Active; 'I' for Inactive)
    1  A    between atoms: C_3  and  C_13
    2  A    between atoms: C_3  and  C_17
    3  A    between atoms: C_3  and  C_29
    4  A    between atoms: C_7  and  C_17
    5  A    between atoms: C_18  and  C_29
    6  A    between atoms: C_21  and  C_28
    7  A    between atoms: N_23  and  C_28
                            x       y       z     vdW  Elec       q    Type
                         _______ _______ _______ _____ _____    ______ ____

>  <TORSDO>
F 7

$$$$
