=
 OpenBabel10262423273D

 34 41  0  0  1  0  0  0  0  0999 V2000
  181.6070  174.7700  136.0410 C   0  0  2  0  0  0  0  0  0  0  0  0
  185.2330  175.0690  137.6020 C   0  0  0  0  0  2  0  0  0  0  0  0
  182.7210  178.3290  137.3410 N   0  0  0  0  0  2  0  0  0  0  0  0
  183.7890  173.1360  137.0720 C   0  0  0  0  0  3  0  0  0  0  0  0
  180.0960  177.3740  138.2590 C   0  0  1  0  0  3  0  0  0  0  0  0
  183.4670  178.6160  140.6390 C   0  0  1  0  0  3  0  0  0  0  0  0
  180.3040  175.5990  136.2890 C   0  0  1  0  0  0  0  0  0  0  0  0
  180.8260  175.2520  134.8810 C   0  0  0  0  0  2  0  0  0  0  0  0
  180.6640  172.5240  135.5340 O   0  0  0  0  0  0  0  0  0  0  0  0
  181.2390  171.2210  135.5810 C   0  0  0  0  0  2  0  0  0  0  0  0
  183.1200  179.5170  139.4450 C   0  0  0  0  0  2  0  0  0  0  0  0
  182.0610  178.9250  138.5020 C   0  0  2  0  0  3  0  0  0  0  0  0
  179.3680  176.3290  138.8390 O   0  0  0  0  0  1  0  0  0  0  0  0
  179.6390  176.9050  135.8790 C   0  0  0  0  0  2  0  0  0  0  0  0
  182.6570  172.5860  136.6430 C   0  0  0  0  0  0  0  0  0  0  0  0
  181.3900  173.3000  136.4660 C   0  0  1  0  0  3  0  0  0  0  0  0
  182.5240  171.3180  136.1720 O   0  0  0  0  0  0  0  0  0  0  0  0
  185.4260  176.5840  137.4930 C   0  0  0  0  0  2  0  0  0  0  0  0
  185.3040  177.1380  136.0610 C   0  0  2  0  0  3  0  0  0  0  0  0
  182.0110  176.7240  139.8080 C   0  0  0  0  0  2  0  0  0  0  0  0
  185.1920  176.0590  134.9810 C   0  0  0  0  0  2  0  0  0  0  0  0
  181.1790  177.8800  139.2160 C   0  0  2  0  0  3  0  0  0  0  0  0
  183.4200  177.1420  140.2430 C   0  0  0  0  0  2  0  0  0  0  0  0
  180.7050  176.9780  136.9070 C   0  0  1  0  0  0  0  0  0  0  0  0
  181.7230  177.9720  136.3340 C   0  0  0  0  0  2  0  0  0  0  0  0
  183.7930  174.6090  137.3580 C   0  0  2  0  0  3  0  0  0  0  0  0
  183.7940  175.4340  134.9020 C   0  0  0  0  0  2  0  0  0  0  0  0
  183.0290  175.3750  136.2390 C   0  0  1  0  0  3  0  0  0  0  0  0
  186.4470  178.0490  135.7700 C   0  0  0  0  0  0  0  0  0  0  0  0
  187.0240  178.8030  136.7860 O   0  0  0  0  0  1  0  0  0  0  0  0
  186.8910  178.1380  134.5960 O   0  0  0  0  0  0  0  0  0  0  0  0
  184.8460  178.9700  141.1660 C   0  0  0  0  0  3  0  0  0  0  0  0
  184.7400  179.3960  142.6170 C   0  0  0  0  0  2  0  0  0  0  0  0
  185.2300  178.0060  142.2710 C   0  0  0  0  0  2  0  0  0  0  0  0
  1  8  1  6  0  0  0
  1 28  1  0  0  0  0
  1  7  1  0  0  0  0
  1 16  1  0  0  0  0
  3 12  1  0  0  0  0
  5 13  1  1  0  0  0
  5 22  1  0  0  0  0
  6 32  1  6  0  0  0
  7  8  1  6  0  0  0
  7 24  1  0  0  0  0
  9 10  1  0  0  0  0
 10 17  1  0  0  0  0
 11  6  1  0  0  0  0
 12 22  1  0  0  0  0
 12 11  1  1  0  0  0
 14  7  1  0  0  0  0
 15  4  2  0  0  0  0
 16  9  1  6  0  0  0
 16 15  1  0  0  0  0
 17 15  1  0  0  0  0
 18  2  1  0  0  0  0
 19 29  1  6  0  0  0
 19 18  1  0  0  0  0
 20 23  1  0  0  0  0
 21 19  1  0  0  0  0
 22 20  1  6  0  0  0
 23  6  1  0  0  0  0
 24 14  1  6  0  0  0
 24  5  1  0  0  0  0
 25 24  1  0  0  0  0
 25  3  1  0  0  0  0
 26  4  1  6  0  0  0
 26  2  1  0  0  0  0
 27 21  1  0  0  0  0
 28 27  1  6  0  0  0
 28 26  1  0  0  0  0
 29 30  1  0  0  0  0
 31 29  2  0  0  0  0
 32 34  1  0  0  0  0
 32 33  1  0  0  0  0
 34 33  1  0  0  0  0
M  END
>  <MODEL>
1

>  <REMARK>
 VINA RESULT:      -4.9      0.000      0.000
  Name = 
  2 active torsions:
  status: ('A' for Active; 'I' for Inactive)
    1  A    between atoms: C_3  and  C_25
    2  A    between atoms: C_7  and  C_11
                            x       y       z     vdW  Elec       q    Type
                         _______ _______ _______ _____ _____    ______ ____

>  <TORSDO>
F 2

$$$$
=
 OpenBabel10262423273D

 34 41  0  0  1  0  0  0  0  0999 V2000
  184.8460  178.1230  138.5930 C   0  0  2  0  0  0  0  0  0  0  0  0
  181.7390  175.6710  138.5340 C   0  0  0  0  0  2  0  0  0  0  0  0
  184.3780  175.8840  135.3730 N   0  0  0  0  0  2  0  0  0  0  0  0
  182.8470  176.9320  140.3460 C   0  0  0  0  0  3  0  0  0  0  0  0
  187.0570  175.8740  136.5840 C   0  0  1  0  0  3  0  0  0  0  0  0
  184.4710  172.5180  135.7930 C   0  0  1  0  0  3  0  0  0  0  0  0
  186.2350  178.0480  137.8770 C   0  0  1  0  0  0  0  0  0  0  0  0
  185.3640  179.3180  137.8920 C   0  0  0  0  0  2  0  0  0  0  0  0
  185.4490  179.3010  140.7000 O   0  0  0  0  0  0  0  0  0  0  0  0
  184.7950  179.3770  141.9630 C   0  0  0  0  0  2  0  0  0  0  0  0
  184.5960  173.5500  134.6640 C   0  0  0  0  0  2  0  0  0  0  0  0
  185.3450  174.8300  135.0660 C   0  0  2  0  0  3  0  0  0  0  0  0
  187.8130  175.7230  137.7510 O   0  0  0  0  0  1  0  0  0  0  0  0
  186.8890  178.3350  136.5330 C   0  0  0  0  0  2  0  0  0  0  0  0
  183.7930  177.7360  140.8230 C   0  0  0  0  0  0  0  0  0  0  0  0
  185.0350  178.0770  140.1260 C   0  0  1  0  0  3  0  0  0  0  0  0
  183.7020  178.4740  141.9600 O   0  0  0  0  0  0  0  0  0  0  0  0
  181.6530  175.4140  137.0270 C   0  0  0  0  0  2  0  0  0  0  0  0
  181.4730  176.6860  136.1770 C   0  0  2  0  0  3  0  0  0  0  0  0
  185.5230  174.0580  137.5000 C   0  0  0  0  0  2  0  0  0  0  0  0
  181.2320  177.9570  136.9960 C   0  0  0  0  0  2  0  0  0  0  0  0
  186.2810  174.5920  136.2680 C   0  0  2  0  0  3  0  0  0  0  0  0
  184.2990  173.2060  137.1450 C   0  0  0  0  0  2  0  0  0  0  0  0
  186.1100  177.0800  136.6560 C   0  0  1  0  0  0  0  0  0  0  0  0
  185.0710  177.1610  135.5300 C   0  0  0  0  0  2  0  0  0  0  0  0
  183.0340  176.3590  138.9730 C   0  0  2  0  0  3  0  0  0  0  0  0
  182.5130  178.5120  137.6300 C   0  0  0  0  0  2  0  0  0  0  0  0
  183.5680  177.4530  138.0040 C   0  0  1  0  0  3  0  0  0  0  0  0
  180.3730  176.4860  135.1910 C   0  0  0  0  0  0  0  0  0  0  0  0
  179.8980  175.2090  134.9150 O   0  0  0  0  0  1  0  0  0  0  0  0
  179.8740  177.4800  134.6030 O   0  0  0  0  0  0  0  0  0  0  0  0
  183.2940  171.5990  135.5230 C   0  0  0  0  0  3  0  0  0  0  0  0
  183.6250  170.1980  135.9960 C   0  0  0  0  0  2  0  0  0  0  0  0
  182.7360  171.0880  136.8370 C   0  0  0  0  0  2  0  0  0  0  0  0
  1  8  1  6  0  0  0
  1 16  1  0  0  0  0
  3 25  1  0  0  0  0
  4 15  2  0  0  0  0
  5 24  1  0  0  0  0
  5 13  1  1  0  0  0
  6 32  1  6  0  0  0
  6 23  1  0  0  0  0
  7 14  1  1  0  0  0
  7  8  1  0  0  0  0
  7  1  1  0  0  0  0
  9 10  1  0  0  0  0
 11  6  1  0  0  0  0
 12 11  1  1  0  0  0
 12  3  1  0  0  0  0
 12 22  1  0  0  0  0
 14 24  1  0  0  0  0
 15 17  1  0  0  0  0
 16  9  1  1  0  0  0
 16 15  1  0  0  0  0
 17 10  1  0  0  0  0
 18  2  1  0  0  0  0
 19 29  1  6  0  0  0
 19 21  1  0  0  0  0
 19 18  1  0  0  0  0
 21 27  1  0  0  0  0
 22  5  1  0  0  0  0
 22 20  1  1  0  0  0
 23 20  1  0  0  0  0
 24 25  1  6  0  0  0
 24  7  1  0  0  0  0
 26  2  1  6  0  0  0
 26  4  1  0  0  0  0
 28 27  1  1  0  0  0
 28  1  1  0  0  0  0
 28 26  1  0  0  0  0
 30 29  1  0  0  0  0
 31 29  2  0  0  0  0
 32 33  1  0  0  0  0
 32 34  1  0  0  0  0
 33 34  1  0  0  0  0
M  END
>  <MODEL>
2

>  <REMARK>
 VINA RESULT:      -4.7      2.208      6.844
  Name = 
  2 active torsions:
  status: ('A' for Active; 'I' for Inactive)
    1  A    between atoms: C_3  and  C_25
    2  A    between atoms: C_7  and  C_11
                            x       y       z     vdW  Elec       q    Type
                         _______ _______ _______ _____ _____    ______ ____

>  <TORSDO>
F 2

$$$$
=
 OpenBabel10262423273D

 34 41  0  0  1  0  0  0  0  0999 V2000
  185.5930  178.2880  138.7290 C   0  0  2  0  0  0  0  0  0  0  0  0
  181.9630  178.2170  140.3070 C   0  0  0  0  0  2  0  0  0  0  0  0
  182.6280  177.1490  136.3810 N   0  0  0  0  0  2  0  0  0  0  0  0
  184.2220  178.3520  141.2990 C   0  0  0  0  0  3  0  0  0  0  0  0
  184.9910  175.4000  136.4310 C   0  0  1  0  0  3  0  0  0  0  0  0
  180.8940  174.3800  137.2980 C   0  0  1  0  0  3  0  0  0  0  0  0
  186.2230  177.4730  137.5520 C   0  0  1  0  0  0  0  0  0  0  0  0
  186.3660  179.0010  137.6890 C   0  0  0  0  0  2  0  0  0  0  0  0
  187.5710  178.6280  140.1990 O   0  0  0  0  0  0  0  0  0  0  0  0
  187.6800  178.9420  141.5840 C   0  0  0  0  0  2  0  0  0  0  0  0
  181.1210  175.2480  136.0510 C   0  0  0  0  0  2  0  0  0  0  0  0
  182.5590  175.7680  135.9040 C   0  0  2  0  0  3  0  0  0  0  0  0
  185.9110  174.6980  137.2170 O   0  0  0  0  0  1  0  0  0  0  0  0
  186.2950  177.4560  136.0320 C   0  0  0  0  0  2  0  0  0  0  0  0
  185.5490  178.3680  141.2240 C   0  0  0  0  0  0  0  0  0  0  0  0
  186.3290  177.9690  140.0500 C   0  0  1  0  0  3  0  0  0  0  0  0
  186.3860  178.8830  142.1620 O   0  0  0  0  0  0  0  0  0  0  0  0
  181.1320  178.2310  139.0210 C   0  0  0  0  0  2  0  0  0  0  0  0
  181.4020  179.4400  138.1050 C   0  0  2  0  0  3  0  0  0  0  0  0
  183.2330  174.7820  138.1690 C   0  0  0  0  0  2  0  0  0  0  0  0
  182.3160  180.5010  138.7240 C   0  0  0  0  0  2  0  0  0  0  0  0
  183.5680  174.8850  136.6670 C   0  0  2  0  0  3  0  0  0  0  0  0
  181.7340  174.8800  138.4710 C   0  0  0  0  0  2  0  0  0  0  0  0
  185.0660  176.9150  136.6610 C   0  0  1  0  0  0  0  0  0  0  0  0
  183.9250  177.7270  136.0340 C   0  0  0  0  0  2  0  0  0  0  0  0
  183.4510  177.9360  140.0800 C   0  0  2  0  0  3  0  0  0  0  0  0
  183.7960  180.1030  138.7030 C   0  0  0  0  0  2  0  0  0  0  0  0
  184.0660  178.5890  138.8090 C   0  0  1  0  0  3  0  0  0  0  0  0
  180.1110  180.0500  137.6770 C   0  0  0  0  0  0  0  0  0  0  0  0
  180.0700  180.9300  136.6020 O   0  0  0  0  0  0  0  0  0  0  0  0
  179.0520  179.7700  138.2960 O   0  0  0  0  0  1  0  0  0  0  0  0
  179.4230  174.3890  137.6700 C   0  0  0  0  0  3  0  0  0  0  0  0
  178.9310  172.9640  137.8260 C   0  0  0  0  0  2  0  0  0  0  0  0
  179.2440  173.7940  139.0520 C   0  0  0  0  0  2  0  0  0  0  0  0
  1  8  1  6  0  0  0
  1 28  1  0  0  0  0
  1 16  1  0  0  0  0
  5 24  1  0  0  0  0
  5 22  1  0  0  0  0
  5 13  1  1  0  0  0
  6 32  1  1  0  0  0
  6 23  1  0  0  0  0
  7 14  1  1  0  0  0
  7  8  1  0  0  0  0
  7  1  1  0  0  0  0
  9 10  1  0  0  0  0
 10 17  1  0  0  0  0
 11  6  1  0  0  0  0
 12 11  1  1  0  0  0
 12  3  1  0  0  0  0
 12 22  1  0  0  0  0
 15  4  2  0  0  0  0
 15 17  1  0  0  0  0
 16  9  1  6  0  0  0
 16 15  1  0  0  0  0
 18  2  1  0  0  0  0
 19 29  1  1  0  0  0
 19 21  1  0  0  0  0
 19 18  1  0  0  0  0
 20 23  1  0  0  0  0
 22 20  1  1  0  0  0
 24 14  1  6  0  0  0
 24  7  1  0  0  0  0
 25  3  1  0  0  0  0
 25 24  1  0  0  0  0
 26  2  1  1  0  0  0
 26  4  1  0  0  0  0
 27 21  1  0  0  0  0
 28 27  1  1  0  0  0
 28 26  1  0  0  0  0
 29 31  1  0  0  0  0
 30 29  2  0  0  0  0
 32 33  1  0  0  0  0
 32 34  1  0  0  0  0
 33 34  1  0  0  0  0
M  END
>  <MODEL>
3

>  <REMARK>
 VINA RESULT:      -4.3      2.288      6.683
  Name = 
  2 active torsions:
  status: ('A' for Active; 'I' for Inactive)
    1  A    between atoms: C_3  and  C_25
    2  A    between atoms: C_7  and  C_11
                            x       y       z     vdW  Elec       q    Type
                         _______ _______ _______ _____ _____    ______ ____

>  <TORSDO>
F 2

$$$$
=
 OpenBabel10262423273D

 34 41  0  0  1  0  0  0  0  0999 V2000
  182.2060  175.3230  135.8910 C   0  0  2  0  0  0  0  0  0  0  0  0
  183.3530  178.6680  137.6720 C   0  0  0  0  0  2  0  0  0  0  0  0
  179.4950  177.2540  138.0190 N   0  0  0  0  0  2  0  0  0  0  0  0
  184.6020  176.8010  136.6420 C   0  0  0  0  0  3  0  0  0  0  0  0
  179.7580  174.3750  138.5550 C   0  0  1  0  0  3  0  0  0  0  0  0
  180.1130  177.6520  141.3310 C   0  0  1  0  0  3  0  0  0  0  0  0
  181.0820  174.2950  136.2500 C   0  0  1  0  0  0  0  0  0  0  0  0
  181.2860  174.8590  134.8300 C   0  0  0  0  0  2  0  0  0  0  0  0
  183.9040  173.8400  134.8400 O   0  0  0  0  0  0  0  0  0  0  0  0
  185.3020  174.0040  134.6240 C   0  0  0  0  0  2  0  0  0  0  0  0
  178.9310  177.7250  140.3540 C   0  0  0  0  0  2  0  0  0  0  0  0
  178.9680  176.6610  139.2470 C   0  0  2  0  0  3  0  0  0  0  0  0
  180.6210  173.3130  138.8450 O   0  0  0  0  0  1  0  0  0  0  0  0
  179.5810  174.0900  136.1100 C   0  0  0  0  0  2  0  0  0  0  0  0
  184.6800  175.6180  136.0410 C   0  0  0  0  0  0  0  0  0  0  0  0
  183.5910  174.6420  135.9620 C   0  0  1  0  0  3  0  0  0  0  0  0
  185.7250  175.1830  135.2890 O   0  0  0  0  0  0  0  0  0  0  0  0
  181.9810  179.3010  137.9180 C   0  0  0  0  0  2  0  0  0  0  0  0
  181.1440  179.5170  136.6440 C   0  0  2  0  0  3  0  0  0  0  0  0
  181.2600  175.8220  140.0180 C   0  0  0  0  0  2  0  0  0  0  0  0
  181.8990  179.2270  135.3430 C   0  0  0  0  0  2  0  0  0  0  0  0
  179.8110  175.4360  139.6580 C   0  0  2  0  0  3  0  0  0  0  0  0
  181.3910  177.2290  140.6110 C   0  0  0  0  0  2  0  0  0  0  0  0
  180.0460  175.0010  137.1830 C   0  0  1  0  0  0  0  0  0  0  0  0
  179.3200  176.3230  136.9050 C   0  0  0  0  0  2  0  0  0  0  0  0
  183.2900  177.1960  137.2530 C   0  0  2  0  0  3  0  0  0  0  0  0
  182.0340  177.7280  135.0500 C   0  0  0  0  0  2  0  0  0  0  0  0
  182.1200  176.8250  136.2970 C   0  0  1  0  0  3  0  0  0  0  0  0
  180.5910  180.9000  136.6270 C   0  0  0  0  0  0  0  0  0  0  0  0
  181.1350  181.8860  137.4430 O   0  0  0  0  0  1  0  0  0  0  0  0
  179.6220  181.1770  135.8730 O   0  0  0  0  0  0  0  0  0  0  0  0
  180.3130  179.0010  141.9970 C   0  0  0  0  0  3  0  0  0  0  0  0
  180.0860  178.8680  143.4910 C   0  0  0  0  0  2  0  0  0  0  0  0
  181.4960  178.9300  142.9430 C   0  0  0  0  0  2  0  0  0  0  0  0
  1  8  1  6  0  0  0
  1 16  1  0  0  0  0
  1  7  1  0  0  0  0
  1 28  1  0  0  0  0
  2 18  1  0  0  0  0
  3 12  1  0  0  0  0
  5 13  1  1  0  0  0
  5 22  1  0  0  0  0
  6 32  1  6  0  0  0
  7  8  1  6  0  0  0
  7 24  1  0  0  0  0
 10  9  1  0  0  0  0
 10 17  1  0  0  0  0
 11  6  1  0  0  0  0
 12 22  1  0  0  0  0
 12 11  1  1  0  0  0
 14  7  1  0  0  0  0
 15  4  2  0  0  0  0
 16  9  1  6  0  0  0
 16 15  1  0  0  0  0
 17 15  1  0  0  0  0
 19 29  1  6  0  0  0
 19 18  1  0  0  0  0
 20 23  1  0  0  0  0
 21 19  1  0  0  0  0
 22 20  1  6  0  0  0
 23  6  1  0  0  0  0
 24 14  1  6  0  0  0
 24  5  1  0  0  0  0
 25 24  1  0  0  0  0
 25  3  1  0  0  0  0
 26  4  1  6  0  0  0
 26  2  1  0  0  0  0
 27 21  1  0  0  0  0
 28 27  1  6  0  0  0
 28 26  1  0  0  0  0
 29 30  1  0  0  0  0
 31 29  2  0  0  0  0
 32 34  1  0  0  0  0
 32 33  1  0  0  0  0
 34 33  1  0  0  0  0
M  END
>  <MODEL>
4

>  <REMARK>
 VINA RESULT:      -3.9      2.544      3.939
  Name = 
  2 active torsions:
  status: ('A' for Active; 'I' for Inactive)
    1  A    between atoms: C_3  and  C_25
    2  A    between atoms: C_7  and  C_11
                            x       y       z     vdW  Elec       q    Type
                         _______ _______ _______ _____ _____    ______ ____

>  <TORSDO>
F 2

$$$$
=
 OpenBabel10262423273D

 34 41  0  0  1  0  0  0  0  0999 V2000
  180.7470  178.8380  139.0020 C   0  0  2  0  0  0  0  0  0  0  0  0
  184.5050  180.0660  139.2100 C   0  0  0  0  0  2  0  0  0  0  0  0
  183.5520  176.0570  139.0440 N   0  0  0  0  0  2  0  0  0  0  0  0
  182.3890  181.2230  138.6790 C   0  0  0  0  0  3  0  0  0  0  0  0
  181.5190  175.8190  136.9340 C   0  0  1  0  0  3  0  0  0  0  0  0
  185.7990  176.0770  136.5010 C   0  0  1  0  0  3  0  0  0  0  0  0
  180.1170  177.5380  138.4030 C   0  0  1  0  0  0  0  0  0  0  0  0
  179.7530  178.0840  139.7970 C   0  0  0  0  0  2  0  0  0  0  0  0
  178.9310  180.4890  138.5990 O   0  0  0  0  0  0  0  0  0  0  0  0
  178.9400  181.9110  138.5350 C   0  0  0  0  0  2  0  0  0  0  0  0
  185.2900  175.1250  137.5930 C   0  0  0  0  0  2  0  0  0  0  0  0
  183.7810  175.2280  137.8610 C   0  0  2  0  0  3  0  0  0  0  0  0
  180.8220  176.4580  135.9030 O   0  0  0  0  0  1  0  0  0  0  0  0
  179.8680  176.0770  138.7510 C   0  0  0  0  0  2  0  0  0  0  0  0
  181.0760  181.2550  138.4690 C   0  0  0  0  0  0  0  0  0  0  0  0
  180.2340  180.0780  138.2370 C   0  0  1  0  0  3  0  0  0  0  0  0
  180.2860  182.3550  138.5730 O   0  0  0  0  0  0  0  0  0  0  0  0
  185.1630  178.7710  139.6940 C   0  0  0  0  0  2  0  0  0  0  0  0
  184.5990  178.2300  141.0220 C   0  0  2  0  0  3  0  0  0  0  0  0
  183.5470  177.1950  136.2390 C   0  0  0  0  0  2  0  0  0  0  0  0
  183.6090  179.1740  141.7100 C   0  0  0  0  0  2  0  0  0  0  0  0
  183.0230  175.8030  136.6470 C   0  0  2  0  0  3  0  0  0  0  0  0
  185.0370  177.3990  136.5320 C   0  0  0  0  0  2  0  0  0  0  0  0
  181.2330  176.4470  138.3060 C   0  0  1  0  0  0  0  0  0  0  0  0
  182.1480  175.9740  139.4420 C   0  0  0  0  0  2  0  0  0  0  0  0
  183.0640  179.8840  138.7260 C   0  0  2  0  0  3  0  0  0  0  0  0
  182.2190  179.1590  141.0650 C   0  0  0  0  0  2  0  0  0  0  0  0
  182.2060  178.8800  139.5490 C   0  0  1  0  0  3  0  0  0  0  0  0
  185.7160  177.8840  141.9450 C   0  0  0  0  0  0  0  0  0  0  0  0
  187.0360  177.9700  141.5170 O   0  0  0  0  0  0  0  0  0  0  0  0
  185.4630  177.5070  143.1190 O   0  0  0  0  0  1  0  0  0  0  0  0
  187.2840  176.3270  136.6880 C   0  0  0  0  0  3  0  0  0  0  0  0
  188.0090  176.0730  135.3800 C   0  0  0  0  0  2  0  0  0  0  0  0
  187.7160  177.4910  135.8190 C   0  0  0  0  0  2  0  0  0  0  0  0
  1 28  1  0  0  0  0
  1  8  1  1  0  0  0
  2 18  1  0  0  0  0
  3 25  1  0  0  0  0
  5 13  1  6  0  0  0
  5 24  1  0  0  0  0
  6 23  1  0  0  0  0
  6 32  1  1  0  0  0
  6 11  1  0  0  0  0
  7 14  1  6  0  0  0
  7  1  1  0  0  0  0
  7  8  1  0  0  0  0
 10 17  1  0  0  0  0
 10  9  1  0  0  0  0
 12 11  1  6  0  0  0
 12  3  1  0  0  0  0
 15 17  1  0  0  0  0
 15  4  2  0  0  0  0
 16 15  1  1  0  0  0
 16  9  1  0  0  0  0
 16  1  1  0  0  0  0
 18 19  1  0  0  0  0
 19 21  1  0  0  0  0
 19 29  1  1  0  0  0
 20 23  1  0  0  0  0
 22 20  1  1  0  0  0
 22  5  1  0  0  0  0
 22 12  1  0  0  0  0
 24  7  1  0  0  0  0
 24 14  1  1  0  0  0
 24 25  1  0  0  0  0
 26  4  1  1  0  0  0
 26  2  1  0  0  0  0
 26 28  1  0  0  0  0
 27 21  1  0  0  0  0
 28 27  1  1  0  0  0
 29 31  1  0  0  0  0
 30 29  2  0  0  0  0
 33 34  1  0  0  0  0
 33 32  1  0  0  0  0
 34 32  1  0  0  0  0
M  END
>  <MODEL>
5

>  <REMARK>
 VINA RESULT:      -3.7      2.524      6.180
  Name = 
  2 active torsions:
  status: ('A' for Active; 'I' for Inactive)
    1  A    between atoms: C_3  and  C_25
    2  A    between atoms: C_7  and  C_11
                            x       y       z     vdW  Elec       q    Type
                         _______ _______ _______ _____ _____    ______ ____

>  <TORSDO>
F 2

$$$$
=
 OpenBabel10262423273D

 34 41  0  0  1  0  0  0  0  0999 V2000
  191.3650  176.3600  137.3470 C   0  0  2  0  0  0  0  0  0  0  0  0
  187.5580  176.9300  138.2700 C   0  0  0  0  0  2  0  0  0  0  0  0
  188.6700  174.9420  134.8320 N   0  0  0  0  0  2  0  0  0  0  0  0
  189.6460  177.1160  139.5750 C   0  0  0  0  0  3  0  0  0  0  0  0
  190.7880  173.0760  135.6530 C   0  0  1  0  0  3  0  0  0  0  0  0
  186.5200  172.5980  136.0150 C   0  0  1  0  0  3  0  0  0  0  0  0
  192.0670  175.2510  136.4960 C   0  0  1  0  0  0  0  0  0  0  0  0
  192.3580  176.7550  136.3240 C   0  0  0  0  0  2  0  0  0  0  0  0
  193.1310  176.8760  139.0220 O   0  0  0  0  0  0  0  0  0  0  0  0
  193.0690  177.4900  140.3060 C   0  0  0  0  0  2  0  0  0  0  0  0
  187.0240  173.1370  134.6680 C   0  0  0  0  0  2  0  0  0  0  0  0
  188.5170  173.4980  134.6580 C   0  0  2  0  0  3  0  0  0  0  0  0
  191.4980  172.5050  136.7150 O   0  0  0  0  0  1  0  0  0  0  0  0
  192.3590  174.8810  135.0480 C   0  0  0  0  0  2  0  0  0  0  0  0
  190.9640  177.0130  139.7240 C   0  0  0  0  0  0  0  0  0  0  0  0
  191.8580  176.2970  138.8110 C   0  0  1  0  0  3  0  0  0  0  0  0
  191.7060  177.6640  140.6570 O   0  0  0  0  0  0  0  0  0  0  0  0
  186.9320  176.7120  136.8890 C   0  0  0  0  0  2  0  0  0  0  0  0
  187.4670  177.6550  135.7950 C   0  0  2  0  0  3  0  0  0  0  0  0
  188.7360  173.0090  137.1610 C   0  0  0  0  0  2  0  0  0  0  0  0
  188.3930  178.7560  136.3170 C   0  0  0  0  0  2  0  0  0  0  0  0
  189.2970  172.7390  135.7510 C   0  0  2  0  0  3  0  0  0  0  0  0
  187.2290  173.2880  137.1790 C   0  0  0  0  0  2  0  0  0  0  0  0
  190.9980  174.5940  135.5620 C   0  0  1  0  0  0  0  0  0  0  0  0
  190.0600  175.3250  134.5940 C   0  0  0  0  0  2  0  0  0  0  0  0
  189.0220  176.4920  138.3620 C   0  0  2  0  0  3  0  0  0  0  0  0
  189.8070  178.2520  136.6310 C   0  0  0  0  0  2  0  0  0  0  0  0
  189.8860  176.7870  137.1030 C   0  0  1  0  0  3  0  0  0  0  0  0
  186.3300  178.2470  135.0350 C   0  0  0  0  0  0  0  0  0  0  0  0
  185.1750  177.5090  134.8060 O   0  0  0  0  0  1  0  0  0  0  0  0
  186.4190  179.4220  134.5940 O   0  0  0  0  0  0  0  0  0  0  0  0
  185.0210  172.8040  136.1230 C   0  0  0  0  0  3  0  0  0  0  0  0
  184.3590  171.5060  136.5430 C   0  0  0  0  0  2  0  0  0  0  0  0
  184.5820  172.6040  137.5610 C   0  0  0  0  0  2  0  0  0  0  0  0
  1  8  1  6  0  0  0
  1 16  1  0  0  0  0
  4 15  2  0  0  0  0
  5 22  1  0  0  0  0
  5 13  1  1  0  0  0
  6 32  1  1  0  0  0
  6 23  1  0  0  0  0
  7 14  1  1  0  0  0
  7  1  1  0  0  0  0
  8  7  1  0  0  0  0
  9 10  1  0  0  0  0
 10 17  1  0  0  0  0
 11  6  1  0  0  0  0
 12 11  1  1  0  0  0
 12  3  1  0  0  0  0
 12 22  1  0  0  0  0
 14 24  1  0  0  0  0
 15 17  1  0  0  0  0
 16  9  1  6  0  0  0
 16 15  1  0  0  0  0
 18  2  1  0  0  0  0
 19 29  1  1  0  0  0
 19 21  1  0  0  0  0
 19 18  1  0  0  0  0
 20 23  1  0  0  0  0
 21 27  1  0  0  0  0
 22 20  1  1  0  0  0
 24 25  1  6  0  0  0
 24  5  1  0  0  0  0
 24  7  1  0  0  0  0
 25  3  1  0  0  0  0
 26  2  1  6  0  0  0
 26  4  1  0  0  0  0
 28 27  1  1  0  0  0
 28  1  1  0  0  0  0
 28 26  1  0  0  0  0
 30 29  1  0  0  0  0
 31 29  2  0  0  0  0
 32 33  1  0  0  0  0
 32 34  1  0  0  0  0
 33 34  1  0  0  0  0
M  END
>  <MODEL>
6

>  <REMARK>
 VINA RESULT:      -3.7      4.728      8.972
  Name = 
  2 active torsions:
  status: ('A' for Active; 'I' for Inactive)
    1  A    between atoms: C_3  and  C_25
    2  A    between atoms: C_7  and  C_11
                            x       y       z     vdW  Elec       q    Type
                         _______ _______ _______ _____ _____    ______ ____

>  <TORSDO>
F 2

$$$$
=
 OpenBabel10262423273D

 34 41  0  0  1  0  0  0  0  0999 V2000
  185.2660  175.1860  135.8950 C   0  0  2  0  0  0  0  0  0  0  0  0
  188.2320  173.0950  137.4780 C   0  0  0  0  0  2  0  0  0  0  0  0
  188.8290  176.8880  135.9740 N   0  0  0  0  0  2  0  0  0  0  0  0
  185.7750  172.8420  137.5490 C   0  0  0  0  0  3  0  0  0  0  0  0
  186.5960  178.5020  137.0000 C   0  0  1  0  0  3  0  0  0  0  0  0
  190.2420  177.3980  139.0170 C   0  0  1  0  0  3  0  0  0  0  0  0
  185.0430  176.7290  135.7670 C   0  0  1  0  0  0  0  0  0  0  0  0
  184.8400  175.7490  134.5950 C   0  0  0  0  0  2  0  0  0  0  0  0
  182.9250  174.3750  136.1250 O   0  0  0  0  0  0  0  0  0  0  0  0
  182.3880  173.1630  136.6460 C   0  0  0  0  0  2  0  0  0  0  0  0
  190.3960  177.8860  137.5690 C   0  0  0  0  0  2  0  0  0  0  0  0
  189.0650  178.0570  136.8200 C   0  0  2  0  0  3  0  0  0  0  0  0
  185.4910  178.5600  137.8550 O   0  0  0  0  0  1  0  0  0  0  0  0
  185.4450  177.9130  134.8980 C   0  0  0  0  0  2  0  0  0  0  0  0
  184.5360  173.2310  137.2660 C   0  0  0  0  0  0  0  0  0  0  0  0
  184.1640  174.5620  136.7800 C   0  0  1  0  0  3  0  0  0  0  0  0
  183.4410  172.4270  137.2460 O   0  0  0  0  0  0  0  0  0  0  0  0
  189.4180  173.8510  136.8730 C   0  0  0  0  0  2  0  0  0  0  0  0
  189.4250  173.8940  135.3340 C   0  0  2  0  0  3  0  0  0  0  0  0
  187.7420  177.0980  138.7910 C   0  0  0  0  0  2  0  0  0  0  0  0
  188.3470  173.0250  134.6800 C   0  0  0  0  0  2  0  0  0  0  0  0
  187.8850  178.2640  137.7920 C   0  0  2  0  0  3  0  0  0  0  0  0
  189.0730  176.4250  139.1430 C   0  0  0  0  0  2  0  0  0  0  0  0
  186.4280  177.4420  135.9030 C   0  0  1  0  0  0  0  0  0  0  0  0
  187.6930  177.1400  135.0890 C   0  0  0  0  0  2  0  0  0  0  0  0
  186.8910  173.8180  137.3180 C   0  0  2  0  0  3  0  0  0  0  0  0
  186.9520  173.6600  134.7330 C   0  0  0  0  0  2  0  0  0  0  0  0
  186.6880  174.5530  135.9620 C   0  0  1  0  0  3  0  0  0  0  0  0
  190.7740  173.5230  134.8210 C   0  0  0  0  0  0  0  0  0  0  0  0
  191.1000  172.1900  134.5950 O   0  0  0  0  0  1  0  0  0  0  0  0
  191.6250  174.4220  134.5940 O   0  0  0  0  0  0  0  0  0  0  0  0
  191.5260  176.7320  139.4740 C   0  0  0  0  0  3  0  0  0  0  0  0
  192.3140  177.6930  140.3440 C   0  0  0  0  0  2  0  0  0  0  0  0
  191.5100  176.5810  140.9830 C   0  0  0  0  0  2  0  0  0  0  0  0
  1  8  1  6  0  0  0
  1 28  1  0  0  0  0
  1 16  1  0  0  0  0
  3 12  1  0  0  0  0
  5 22  1  0  0  0  0
  5 13  1  1  0  0  0
  6 23  1  0  0  0  0
  6 32  1  6  0  0  0
  7  8  1  6  0  0  0
  7  1  1  0  0  0  0
  7 24  1  0  0  0  0
  9 10  1  0  0  0  0
 10 17  1  0  0  0  0
 11  6  1  0  0  0  0
 12 11  1  1  0  0  0
 12 22  1  0  0  0  0
 14  7  1  0  0  0  0
 15  4  2  0  0  0  0
 16  9  1  6  0  0  0
 16 15  1  0  0  0  0
 17 15  1  0  0  0  0
 18  2  1  0  0  0  0
 19 29  1  6  0  0  0
 19 18  1  0  0  0  0
 20 23  1  0  0  0  0
 21 27  1  0  0  0  0
 21 19  1  0  0  0  0
 22 20  1  6  0  0  0
 24 14  1  6  0  0  0
 24  5  1  0  0  0  0
 25 24  1  0  0  0  0
 25  3  1  0  0  0  0
 26  2  1  6  0  0  0
 26  4  1  0  0  0  0
 28 27  1  6  0  0  0
 28 26  1  0  0  0  0
 30 29  1  0  0  0  0
 31 29  2  0  0  0  0
 32 33  1  0  0  0  0
 32 34  1  0  0  0  0
 33 34  1  0  0  0  0
M  END
>  <MODEL>
7

>  <REMARK>
 VINA RESULT:      -3.6      3.879      5.500
  Name = 
  2 active torsions:
  status: ('A' for Active; 'I' for Inactive)
    1  A    between atoms: C_3  and  C_25
    2  A    between atoms: C_7  and  C_11
                            x       y       z     vdW  Elec       q    Type
                         _______ _______ _______ _____ _____    ______ ____

>  <TORSDO>
F 2

$$$$
=
 OpenBabel10262423273D

 34 41  0  0  1  0  0  0  0  0999 V2000
  190.8520  176.1420  137.2810 C   0  0  2  0  0  0  0  0  0  0  0  0
  188.5690  174.3410  134.5940 C   0  0  0  0  0  2  0  0  0  0  0  0
  186.9450  176.3000  137.8390 N   0  0  0  0  0  2  0  0  0  0  0  0
  190.9460  175.0150  134.5950 C   0  0  0  0  0  3  0  0  0  0  0  0
  188.3870  178.8560  138.0160 C   0  0  1  0  0  3  0  0  0  0  0  0
  185.0920  177.8230  135.4380 C   0  0  1  0  0  3  0  0  0  0  0  0
  190.5700  177.3520  138.2310 C   0  0  1  0  0  0  0  0  0  0  0  0
  191.2210  176.0400  138.7090 C   0  0  0  0  0  2  0  0  0  0  0  0
  193.2840  176.4250  136.8420 O   0  0  0  0  0  0  0  0  0  0  0  0
  194.1220  175.9380  135.7980 C   0  0  0  0  0  2  0  0  0  0  0  0
  184.9600  177.3870  136.9040 C   0  0  0  0  0  2  0  0  0  0  0  0
  186.2400  177.5770  137.7320 C   0  0  2  0  0  3  0  0  0  0  0  0
  189.3030  179.7280  137.4160 O   0  0  0  0  0  1  0  0  0  0  0  0
  189.9090  177.6800  139.5620 C   0  0  0  0  0  2  0  0  0  0  0  0
  192.0140  175.5880  135.1410 C   0  0  0  0  0  0  0  0  0  0  0  0
  191.9840  176.4960  136.2910 C   0  0  1  0  0  3  0  0  0  0  0  0
  193.3050  175.3230  134.8150 O   0  0  0  0  0  0  0  0  0  0  0  0
  187.2810  174.2080  135.4110 C   0  0  0  0  0  2  0  0  0  0  0  0
  187.4440  173.4280  136.7300 C   0  0  2  0  0  3  0  0  0  0  0  0
  187.5600  178.3180  135.6670 C   0  0  0  0  0  2  0  0  0  0  0  0
  188.8170  172.7730  136.9020 C   0  0  0  0  0  2  0  0  0  0  0  0
  187.1630  178.6510  137.1200 C   0  0  2  0  0  3  0  0  0  0  0  0
  186.4920  177.5270  134.9050 C   0  0  0  0  0  2  0  0  0  0  0  0
  189.0220  177.5090  138.3860 C   0  0  1  0  0  0  0  0  0  0  0  0
  188.0330  176.4160  138.8080 C   0  0  0  0  0  2  0  0  0  0  0  0
  189.6070  175.2750  135.2220 C   0  0  2  0  0  3  0  0  0  0  0  0
  189.9100  173.7680  137.3080 C   0  0  0  0  0  2  0  0  0  0  0  0
  189.7180  175.2010  136.7720 C   0  0  1  0  0  3  0  0  0  0  0  0
  186.3620  172.4110  136.8550 C   0  0  0  0  0  0  0  0  0  0  0  0
  186.3320  171.3070  136.0110 O   0  0  0  0  0  0  0  0  0  0  0  0
  185.4670  172.5550  137.7280 O   0  0  0  0  0  1  0  0  0  0  0  0
  184.0520  177.1090  134.5940 C   0  0  0  0  0  3  0  0  0  0  0  0
  183.8510  175.7020  135.1200 C   0  0  0  0  0  2  0  0  0  0  0  0
  182.8430  176.7820  135.4470 C   0  0  0  0  0  2  0  0  0  0  0  0
  1  7  1  0  0  0  0
  1  8  1  1  0  0  0
  2 18  1  0  0  0  0
  3 25  1  0  0  0  0
  4 15  2  0  0  0  0
  4 26  1  0  0  0  0
  5 13  1  6  0  0  0
  5 24  1  0  0  0  0
  6 32  1  6  0  0  0
  6 11  1  0  0  0  0
  7 24  1  0  0  0  0
  7  8  1  1  0  0  0
  7 14  1  0  0  0  0
 10  9  1  0  0  0  0
 12 11  1  6  0  0  0
 12  3  1  0  0  0  0
 16 15  1  6  0  0  0
 16  9  1  0  0  0  0
 16  1  1  0  0  0  0
 17 15  1  0  0  0  0
 17 10  1  0  0  0  0
 18 19  1  0  0  0  0
 19 29  1  6  0  0  0
 19 21  1  0  0  0  0
 21 27  1  0  0  0  0
 22 20  1  6  0  0  0
 22 12  1  0  0  0  0
 22  5  1  0  0  0  0
 23  6  1  0  0  0  0
 23 20  1  0  0  0  0
 24 25  1  6  0  0  0
 24 14  1  0  0  0  0
 26  2  1  6  0  0  0
 26 28  1  0  0  0  0
 28  1  1  0  0  0  0
 28 27  1  6  0  0  0
 29 31  1  0  0  0  0
 30 29  2  0  0  0  0
 32 33  1  0  0  0  0
 32 34  1  0  0  0  0
 33 34  1  0  0  0  0
M  END
>  <MODEL>
8

>  <REMARK>
 VINA RESULT:      -3.5      4.159      8.152
  Name = 
  2 active torsions:
  status: ('A' for Active; 'I' for Inactive)
    1  A    between atoms: C_3  and  C_25
    2  A    between atoms: C_7  and  C_11
                            x       y       z     vdW  Elec       q    Type
                         _______ _______ _______ _____ _____    ______ ____

>  <TORSDO>
F 2

$$$$
=
 OpenBabel10262423273D

 34 41  0  0  1  0  0  0  0  0999 V2000
  185.8350  177.8460  137.9700 C   0  0  2  0  0  0  0  0  0  0  0  0
  184.0240  175.9820  134.9830 C   0  0  0  0  0  2  0  0  0  0  0  0
  182.0540  176.8340  138.5040 N   0  0  0  0  0  2  0  0  0  0  0  0
  186.1290  177.2670  135.1290 C   0  0  0  0  0  3  0  0  0  0  0  0
  182.7580  179.6160  139.1450 C   0  0  1  0  0  3  0  0  0  0  0  0
  179.7700  178.1850  136.3890 C   0  0  1  0  0  3  0  0  0  0  0  0
  185.2730  178.7500  139.1150 C   0  0  1  0  0  0  0  0  0  0  0  0
  186.2720  177.6030  139.3620 C   0  0  0  0  0  2  0  0  0  0  0  0
  188.0820  178.8520  137.6150 O   0  0  0  0  0  0  0  0  0  0  0  0
  188.9810  178.7990  136.5110 C   0  0  0  0  0  2  0  0  0  0  0  0
  179.8160  177.4830  137.7540 C   0  0  0  0  0  2  0  0  0  0  0  0
  181.0270  177.8700  138.6160 C   0  0  2  0  0  3  0  0  0  0  0  0
  183.3810  180.7940  138.7180 O   0  0  0  0  0  1  0  0  0  0  0  0
  184.5980  178.6510  140.4760 C   0  0  0  0  0  2  0  0  0  0  0  0
  187.0220  178.0070  135.7790 C   0  0  0  0  0  0  0  0  0  0  0  0
  186.7910  178.6600  137.0700 C   0  0  1  0  0  3  0  0  0  0  0  0
  188.3240  178.1640  135.4260 O   0  0  0  0  0  0  0  0  0  0  0  0
  182.8520  175.3640  135.7500 C   0  0  0  0  0  2  0  0  0  0  0  0
  183.2690  174.4430  136.9120 C   0  0  2  0  0  3  0  0  0  0  0  0
  182.0200  179.2870  136.7290 C   0  0  0  0  0  2  0  0  0  0  0  0
  184.7730  174.1670  136.9810 C   0  0  0  0  0  2  0  0  0  0  0  0
  181.6020  179.2430  138.2130 C   0  0  2  0  0  3  0  0  0  0  0  0
  181.1770  178.3780  135.8270 C   0  0  0  0  0  2  0  0  0  0  0  0
  183.7470  178.4500  139.2790 C   0  0  1  0  0  0  0  0  0  0  0  0
  183.1060  177.0730  139.4910 C   0  0  0  0  0  2  0  0  0  0  0  0
  184.7940  177.0400  135.7770 C   0  0  2  0  0  3  0  0  0  0  0  0
  185.5710  175.3370  137.5680 C   0  0  0  0  0  2  0  0  0  0  0  0
  184.9790  176.7340  137.2910 C   0  0  1  0  0  3  0  0  0  0  0  0
  182.5070  173.1640  136.8440 C   0  0  0  0  0  0  0  0  0  0  0  0
  183.1210  171.9600  137.1710 O   0  0  0  0  0  1  0  0  0  0  0  0
  181.3010  173.1730  136.4850 O   0  0  0  0  0  0  0  0  0  0  0  0
  178.9310  177.3720  135.4210 C   0  0  0  0  0  3  0  0  0  0  0  0
  179.8340  176.4780  134.5940 C   0  0  0  0  0  2  0  0  0  0  0  0
  179.0550  175.8980  135.7540 C   0  0  0  0  0  2  0  0  0  0  0  0
  1  7  1  0  0  0  0
  1  8  1  1  0  0  0
  2 18  1  0  0  0  0
  3 12  1  0  0  0  0
  3 25  1  0  0  0  0
  4 26  1  0  0  0  0
  4 15  2  0  0  0  0
  5 13  1  6  0  0  0
  5 24  1  0  0  0  0
  6 32  1  6  0  0  0
  6 11  1  0  0  0  0
  7 24  1  0  0  0  0
  7  8  1  1  0  0  0
  7 14  1  0  0  0  0
 10  9  1  0  0  0  0
 12 11  1  6  0  0  0
 16 15  1  6  0  0  0
 16  9  1  0  0  0  0
 16  1  1  0  0  0  0
 17 15  1  0  0  0  0
 17 10  1  0  0  0  0
 18 19  1  0  0  0  0
 19 29  1  6  0  0  0
 19 21  1  0  0  0  0
 21 27  1  0  0  0  0
 22 20  1  6  0  0  0
 22 12  1  0  0  0  0
 22  5  1  0  0  0  0
 23  6  1  0  0  0  0
 23 20  1  0  0  0  0
 24 25  1  6  0  0  0
 24 14  1  0  0  0  0
 26  2  1  6  0  0  0
 26 28  1  0  0  0  0
 28 27  1  6  0  0  0
 28  1  1  0  0  0  0
 29 30  1  0  0  0  0
 31 29  2  0  0  0  0
 32 34  1  0  0  0  0
 33 32  1  0  0  0  0
 33 34  1  0  0  0  0
M  END
>  <MODEL>
9

>  <REMARK>
 VINA RESULT:      -2.9      1.460      6.115
  Name = 
  2 active torsions:
  status: ('A' for Active; 'I' for Inactive)
    1  A    between atoms: C_3  and  C_25
    2  A    between atoms: C_7  and  C_11
                            x       y       z     vdW  Elec       q    Type
                         _______ _______ _______ _____ _____    ______ ____

>  <TORSDO>
F 2

$$$$
