=
 OpenBabel10262420383D

 55 60  0  0  1  0  0  0  0  0999 V2000
  190.4450  177.2300  140.7570 C   0  0  0  0  0  3  0  0  0  0  0  0
  189.2350  177.9170  138.3570 C   0  0  0  0  0  0  0  0  0  0  0  0
  188.5820  178.1940  139.5610 C   0  0  0  0  0  3  0  0  0  0  0  0
  191.0650  176.9650  139.5350 C   0  0  0  0  0  3  0  0  0  0  0  0
  189.1920  177.8460  140.7750 C   0  0  0  0  0  0  0  0  0  0  0  0
  190.4510  177.3050  138.3690 N   0  0  0  0  0  0  0  0  0  0  0  0
  188.5930  178.2640  137.0610 C   0  0  0  0  0  2  0  0  0  0  0  0
  187.7470  177.1050  136.5720 C   0  0  0  0  0  2  0  0  0  0  0  0
  185.4800  176.6720  136.9480 C   0  0  1  0  0  3  0  0  0  0  0  0
  186.4100  177.5790  136.2580 N   0  0  0  0  0  0  0  0  0  0  0  0
  185.7920  177.9700  137.5330 C   0  0  0  0  0  2  0  0  0  0  0  0
  184.1180  176.7350  136.2710 C   0  0  0  0  0  2  0  0  0  0  0  0
  183.2600  174.6570  135.4640 O   0  0  0  0  0  1  0  0  0  0  0  0
  183.2300  175.5170  136.5670 C   0  0  0  0  0  0  0  0  0  0  0  0
  183.7750  174.8350  137.6570 O   0  0  0  0  0  1  0  0  0  0  0  0
  180.4260  174.1510  137.5850 C   0  0  2  0  0  0  0  0  0  0  0  0
  181.7490  175.9050  136.8760 C   0  0  1  0  0  0  0  0  0  0  0  0
  182.6400  176.3760  139.2900 C   0  0  0  0  0  1  0  0  0  0  0  0
  181.4160  176.2250  138.3800 C   0  0  2  0  0  0  0  0  0  0  0  0
  181.0650  172.9320  137.7240 F   0  0  0  0  0  0  0  0  0  0  0  0
  180.6950  175.0020  138.7570 C   0  0  0  0  0  0  0  0  0  0  0  0
  178.9330  173.9270  137.4230 C   0  0  0  0  0  1  0  0  0  0  0  0
  181.4290  176.9960  136.0800 F   0  0  0  0  0  0  0  0  0  0  0  0
  180.3470  174.7270  139.8970 O   0  0  0  0  0  0  0  0  0  0  0  0
  180.9230  174.8270  136.4510 O   0  0  0  0  0  0  0  0  0  0  0  0
  179.3010  177.3100  138.1940 O   0  0  0  0  0  0  0  0  0  0  0  0
  180.4730  177.4170  138.5280 C   0  0  0  0  0  0  0  0  0  0  0  0
  180.9340  178.7220  139.1120 C   0  0  0  0  0  2  0  0  0  0  0  0
  181.6900  179.5300  138.0770 C   0  0  0  0  0  1  0  0  0  0  0  0
  188.5790  178.1020  142.0030 O   0  0  0  0  0  0  0  0  0  0  0  0
  187.5090  177.3100  142.5040 C   0  0  0  0  0  2  0  0  0  0  0  0
  189.4030  177.1090  147.1760 C   0  0  0  0  0  2  0  0  0  0  0  0
  184.6140  177.7430  142.5380 C   0  0  0  0  0  2  0  0  0  0  0  0
  187.9430  177.8240  149.0570 C   0  0  0  0  0  2  0  0  0  0  0  0
  187.1380  178.1460  146.6920 C   0  0  0  0  0  0  0  0  0  0  0  0
  186.9960  178.5770  148.1270 C   0  0  0  0  0  2  0  0  0  0  0  0
  189.3550  177.8780  148.4930 C   0  0  0  0  0  2  0  0  0  0  0  0
  188.3150  177.5310  146.2170 C   0  0  0  0  0  0  0  0  0  0  0  0
  186.1970  178.1640  144.4980 C   0  0  0  0  0  0  0  0  0  0  0  0
  184.1690  179.5930  144.0270 C   0  0  0  0  0  2  0  0  0  0  0  0
  186.1410  178.4540  145.8260 N   0  0  0  0  0  0  0  0  0  0  0  0
  182.9900  179.4840  143.0770 C   0  0  1  0  0  3  0  0  0  0  0  0
  188.4190  177.2280  144.8470 C   0  0  0  0  0  0  0  0  0  0  0  0
  183.3780  178.4510  142.0230 C   0  0  0  0  0  2  0  0  0  0  0  0
  187.3560  177.5470  143.9760 C   0  0  0  0  0  0  0  0  0  0  0  0
  185.0810  178.5270  143.6650 N   0  0  0  0  0  0  0  0  0  0  0  0
  181.7680  179.0150  143.8530 C   0  0  0  0  0  2  0  0  0  0  0  0
  180.5260  179.1730  143.0400 C   0  0  0  0  0  0  0  0  0  0  0  0
  179.7350  178.1680  142.8710 N   0  0  0  0  0  1  0  0  0  0  0  0
  180.1340  180.4640  142.5910 N   0  0  0  0  0  2  0  0  0  0  0  0
  189.6730  176.5890  144.3140 C   0  0  0  0  0  2  0  0  0  0  0  0
  191.9060  176.7060  145.1290 O   0  0  0  0  0  0  0  0  0  0  0  0
  190.8810  177.3400  144.7620 C   0  0  0  0  0  0  0  0  0  0  0  0
  190.8670  178.7350  144.7540 O   0  0  0  0  0  0  0  0  0  0  0  0
  191.2370  179.4800  143.6030 C   0  0  0  0  0  1  0  0  0  0  0  0
  1  5  1  0  0  0  0
  2  6  2  0  0  0  0
  2  3  1  0  0  0  0
  3  5  2  0  0  0  0
  4  1  2  0  0  0  0
  5 30  1  0  0  0  0
  6  4  1  0  0  0  0
  7  2  1  0  0  0  0
  8  7  1  0  0  0  0
  9 12  1  6  0  0  0
  9 11  1  0  0  0  0
 10  8  1  0  0  0  0
 10  9  1  0  0  0  0
 10 11  1  0  0  0  0
 12 14  1  0  0  0  0
 13 14  1  0  0  0  0
 14 17  1  0  0  0  0
 14 15  1  0  0  0  0
 16 22  1  6  0  0  0
 16 20  1  0  0  0  0
 16 21  1  0  0  0  0
 17 23  1  6  0  0  0
 17 19  1  0  0  0  0
 19 27  1  0  0  0  0
 19 21  1  0  0  0  0
 19 18  1  1  0  0  0
 21 24  2  0  0  0  0
 25 17  1  0  0  0  0
 25 16  1  0  0  0  0
 26 27  2  0  0  0  0
 27 28  1  0  0  0  0
 29 28  1  0  0  0  0
 30 31  1  0  0  0  0
 31 45  1  0  0  0  0
 32 37  1  0  0  0  0
 33 46  1  0  0  0  0
 35 36  1  0  0  0  0
 36 34  1  0  0  0  0
 37 34  1  0  0  0  0
 38 35  1  0  0  0  0
 38 32  1  0  0  0  0
 39 41  1  0  0  0  0
 41 35  2  0  0  0  0
 42 47  1  1  0  0  0
 42 40  1  0  0  0  0
 43 38  2  0  0  0  0
 44 33  1  0  0  0  0
 44 42  1  0  0  0  0
 45 39  2  0  0  0  0
 45 43  1  0  0  0  0
 46 40  1  0  0  0  0
 46 39  1  0  0  0  0
 48 47  1  0  0  0  0
 49 48  1  0  0  0  0
 50 48  2  0  0  0  0
 51 53  1  0  0  0  0
 51 43  1  0  0  0  0
 53 52  2  0  0  0  0
 54 53  1  0  0  0  0
 55 54  1  0  0  0  0
M  END
>  <MODEL>
1

>  <REMARK>
 VINA RESULT:      -8.5      0.000      0.000
  Name = 
  16 active torsions:
  status: ('A' for Active; 'I' for Inactive)
    1  A    between atoms: O_2  and  C_28
    2  A    between atoms: O_2  and  C_44
    3  A    between atoms: O_4  and  C_40
    4  A    between atoms: C_6  and  C_20
    5  A    between atoms: C_8  and  C_22
    6  A    between atoms: C_10  and  C_32
    7  A    between atoms: C_11  and  C_38
    8  A    between atoms: C_14  and  C_38
    9  A    between atoms: C_19  and  C_40
   10  A    between atoms: C_19  and  C_45
   11  A    between atoms: C_20  and  C_22
   12  A    between atoms: C_27  and  C_54
   13  A    between atoms: C_28  and  C_49
   14  A    between atoms: C_32  and  C_39
   15  A    between atoms: N_35  and  C_51
   16  A    between atoms: C_51  and  C_54
                            x       y       z     vdW  Elec       q    Type
                         _______ _______ _______ _____ _____    ______ ____

>  <TORSDO>
F 16

$$$$
=
 OpenBabel10262420383D

 55 60  0  0  1  0  0  0  0  0999 V2000
  190.4700  177.3380  140.7400 C   0  0  0  0  0  3  0  0  0  0  0  0
  189.4750  177.7150  138.1780 C   0  0  0  0  0  0  0  0  0  0  0  0
  188.6750  178.0280  139.2790 C   0  0  0  0  0  3  0  0  0  0  0  0
  191.2380  177.0320  139.6150 C   0  0  0  0  0  3  0  0  0  0  0  0
  189.1760  177.8370  140.5750 C   0  0  0  0  0  0  0  0  0  0  0  0
  190.7280  177.2180  138.3670 N   0  0  0  0  0  0  0  0  0  0  0  0
  188.9510  177.8950  136.7970 C   0  0  0  0  0  2  0  0  0  0  0  0
  188.3150  176.6080  136.3090 C   0  0  0  0  0  2  0  0  0  0  0  0
  186.0700  176.8930  136.8960 C   0  0  1  0  0  3  0  0  0  0  0  0
  187.0010  176.8950  135.7580 N   0  0  0  0  0  0  0  0  0  0  0  0
  186.5580  178.1590  136.3630 C   0  0  0  0  0  2  0  0  0  0  0  0
  184.6560  176.6420  136.3900 C   0  0  0  0  0  2  0  0  0  0  0  0
  184.1590  177.5080  138.5610 O   0  0  0  0  0  1  0  0  0  0  0  0
  183.5730  176.8900  137.4510 C   0  0  0  0  0  0  0  0  0  0  0  0
  182.6320  177.7740  136.9150 O   0  0  0  0  0  1  0  0  0  0  0  0
  180.8930  175.9120  139.0740 C   0  0  2  0  0  0  0  0  0  0  0  0
  182.8590  175.5790  137.9100 C   0  0  1  0  0  0  0  0  0  0  0  0
  181.6590  175.7160  135.5900 C   0  0  0  0  0  1  0  0  0  0  0  0
  181.7260  175.0380  136.9630 C   0  0  2  0  0  0  0  0  0  0  0  0
  180.4940  177.2300  139.2160 F   0  0  0  0  0  0  0  0  0  0  0  0
  180.5340  175.4150  137.7350 C   0  0  0  0  0  0  0  0  0  0  0  0
  180.2390  175.0640  140.1490 C   0  0  0  0  0  1  0  0  0  0  0  0
  183.8380  174.6080  138.0770 F   0  0  0  0  0  0  0  0  0  0  0  0
  179.3850  175.3160  137.3270 O   0  0  0  0  0  0  0  0  0  0  0  0
  182.2960  175.8210  139.1950 O   0  0  0  0  0  0  0  0  0  0  0  0
  181.0620  172.8240  137.5500 O   0  0  0  0  0  0  0  0  0  0  0  0
  181.7600  173.5180  136.8220 C   0  0  0  0  0  0  0  0  0  0  0  0
  182.6020  172.8390  135.7800 C   0  0  0  0  0  2  0  0  0  0  0  0
  181.7760  171.8400  134.9970 C   0  0  0  0  0  1  0  0  0  0  0  0
  188.4140  178.1350  141.7070 O   0  0  0  0  0  0  0  0  0  0  0  0
  187.4900  177.2140  142.2720 C   0  0  0  0  0  2  0  0  0  0  0  0
  189.4480  177.0320  146.9190 C   0  0  0  0  0  2  0  0  0  0  0  0
  184.6040  177.6980  142.3430 C   0  0  0  0  0  2  0  0  0  0  0  0
  188.0270  177.7940  148.8120 C   0  0  0  0  0  2  0  0  0  0  0  0
  187.1940  178.1030  146.4550 C   0  0  0  0  0  0  0  0  0  0  0  0
  187.0800  178.5530  147.8870 C   0  0  0  0  0  2  0  0  0  0  0  0
  189.4320  177.8170  148.2270 C   0  0  0  0  0  2  0  0  0  0  0  0
  188.3530  177.4630  145.9710 C   0  0  0  0  0  0  0  0  0  0  0  0
  186.2220  178.1130  144.2750 C   0  0  0  0  0  0  0  0  0  0  0  0
  184.2130  179.5720  143.8160 C   0  0  0  0  0  2  0  0  0  0  0  0
  186.1900  178.4190  145.6000 N   0  0  0  0  0  0  0  0  0  0  0  0
  183.0180  179.4740  142.8840 C   0  0  1  0  0  3  0  0  0  0  0  0
  188.4320  177.1420  144.6020 C   0  0  0  0  0  0  0  0  0  0  0  0
  183.3730  178.4220  141.8360 C   0  0  0  0  0  2  0  0  0  0  0  0
  187.3630  177.4700  143.7430 C   0  0  0  0  0  0  0  0  0  0  0  0
  185.1010  178.4860  143.4530 N   0  0  0  0  0  0  0  0  0  0  0  0
  181.7990  179.0340  143.6830 C   0  0  0  0  0  2  0  0  0  0  0  0
  180.5410  179.3040  142.9270 C   0  0  0  0  0  0  0  0  0  0  0  0
  180.1380  180.5190  142.7630 N   0  0  0  0  0  1  0  0  0  0  0  0
  179.8770  178.2430  142.2540 N   0  0  0  0  0  2  0  0  0  0  0  0
  189.6670  176.4750  144.0590 C   0  0  0  0  0  2  0  0  0  0  0  0
  191.9070  176.9440  144.7120 O   0  0  0  0  0  0  0  0  0  0  0  0
  190.8500  177.3750  144.1790 C   0  0  0  0  0  0  0  0  0  0  0  0
  190.7780  178.6780  143.6850 O   0  0  0  0  0  0  0  0  0  0  0  0
  191.4860  179.7480  144.2930 C   0  0  0  0  0  1  0  0  0  0  0  0
  2  6  2  0  0  0  0
  2  3  1  0  0  0  0
  3  5  2  0  0  0  0
  4  1  2  0  0  0  0
  5  1  1  0  0  0  0
  5 30  1  0  0  0  0
  6  4  1  0  0  0  0
  7  2  1  0  0  0  0
  8  7  1  0  0  0  0
  9 12  1  6  0  0  0
 10  8  1  0  0  0  0
 10 11  1  0  0  0  0
 10  9  1  0  0  0  0
 11  9  1  0  0  0  0
 12 14  1  0  0  0  0
 14 17  1  0  0  0  0
 14 13  1  0  0  0  0
 15 14  1  0  0  0  0
 16 25  1  0  0  0  0
 16 20  1  0  0  0  0
 16 22  1  1  0  0  0
 17 23  1  1  0  0  0
 17 25  1  0  0  0  0
 19 18  1  6  0  0  0
 19 21  1  0  0  0  0
 19 17  1  0  0  0  0
 21 16  1  0  0  0  0
 24 21  2  0  0  0  0
 27 19  1  0  0  0  0
 27 26  2  0  0  0  0
 28 27  1  0  0  0  0
 29 28  1  0  0  0  0
 30 31  1  0  0  0  0
 31 45  1  0  0  0  0
 32 37  1  0  0  0  0
 33 46  1  0  0  0  0
 35 36  1  0  0  0  0
 36 34  1  0  0  0  0
 37 34  1  0  0  0  0
 38 35  1  0  0  0  0
 38 32  1  0  0  0  0
 39 41  1  0  0  0  0
 41 35  2  0  0  0  0
 42 47  1  1  0  0  0
 42 40  1  0  0  0  0
 43 38  2  0  0  0  0
 44 33  1  0  0  0  0
 44 42  1  0  0  0  0
 45 39  2  0  0  0  0
 45 43  1  0  0  0  0
 46 40  1  0  0  0  0
 46 39  1  0  0  0  0
 48 47  1  0  0  0  0
 49 48  1  0  0  0  0
 50 48  2  0  0  0  0
 51 53  1  0  0  0  0
 51 43  1  0  0  0  0
 53 52  2  0  0  0  0
 54 53  1  0  0  0  0
 54 55  1  0  0  0  0
M  END
>  <MODEL>
2

>  <REMARK>
 VINA RESULT:      -8.3      1.337      2.354
  Name = 
  16 active torsions:
  status: ('A' for Active; 'I' for Inactive)
    1  A    between atoms: O_2  and  C_28
    2  A    between atoms: O_2  and  C_44
    3  A    between atoms: O_4  and  C_40
    4  A    between atoms: C_6  and  C_20
    5  A    between atoms: C_8  and  C_22
    6  A    between atoms: C_10  and  C_32
    7  A    between atoms: C_11  and  C_38
    8  A    between atoms: C_14  and  C_38
    9  A    between atoms: C_19  and  C_40
   10  A    between atoms: C_19  and  C_45
   11  A    between atoms: C_20  and  C_22
   12  A    between atoms: C_27  and  C_54
   13  A    between atoms: C_28  and  C_49
   14  A    between atoms: C_32  and  C_39
   15  A    between atoms: N_35  and  C_51
   16  A    between atoms: C_51  and  C_54
                            x       y       z     vdW  Elec       q    Type
                         _______ _______ _______ _____ _____    ______ ____

>  <TORSDO>
F 16

$$$$
=
 OpenBabel10262420383D

 55 60  0  0  1  0  0  0  0  0999 V2000
  183.2070  178.9760  138.3940 C   0  0  0  0  0  3  0  0  0  0  0  0
  182.7710  178.7000  141.1200 C   0  0  0  0  0  0  0  0  0  0  0  0
  183.9620  178.2290  140.5620 C   0  0  0  0  0  3  0  0  0  0  0  0
  182.0260  179.4300  138.9860 C   0  0  0  0  0  3  0  0  0  0  0  0
  184.1830  178.3670  139.1840 C   0  0  0  0  0  0  0  0  0  0  0  0
  181.8310  179.2790  140.3240 N   0  0  0  0  0  0  0  0  0  0  0  0
  182.5150  178.5450  142.5770 C   0  0  0  0  0  2  0  0  0  0  0  0
  183.6010  179.2390  143.3740 C   0  0  0  0  0  2  0  0  0  0  0  0
  185.7380  178.4630  143.9190 C   0  0  1  0  0  3  0  0  0  0  0  0
  184.3060  178.2630  144.1870 N   0  0  0  0  0  0  0  0  0  0  0  0
  185.1440  179.0230  145.1260 C   0  0  0  0  0  2  0  0  0  0  0  0
  186.5000  177.1930  144.2710 C   0  0  0  0  0  2  0  0  0  0  0  0
  188.0060  175.5900  143.3400 O   0  0  0  0  0  1  0  0  0  0  0  0
  187.7430  176.9620  143.3990 C   0  0  0  0  0  0  0  0  0  0  0  0
  187.4540  177.3990  142.1040 O   0  0  0  0  0  1  0  0  0  0  0  0
  189.5130  177.2720  146.1450 C   0  0  2  0  0  0  0  0  0  0  0  0
  189.0080  177.7060  143.9340 C   0  0  1  0  0  0  0  0  0  0  0  0
  190.2990  175.5930  143.0920 C   0  0  0  0  0  1  0  0  0  0  0  0
  190.3560  176.8980  143.8960 C   0  0  2  0  0  0  0  0  0  0  0  0
  188.6910  176.3590  146.7820 F   0  0  0  0  0  0  0  0  0  0  0  0
  190.5090  176.5680  145.3190 C   0  0  0  0  0  0  0  0  0  0  0  0
  190.2010  178.1450  147.1790 C   0  0  0  0  0  1  0  0  0  0  0  0
  189.1410  178.8800  143.2050 F   0  0  0  0  0  0  0  0  0  0  0  0
  191.3630  175.8160  145.7690 O   0  0  0  0  0  0  0  0  0  0  0  0
  188.7480  178.0840  145.2820 O   0  0  0  0  0  0  0  0  0  0  0  0
  191.9870  177.6460  142.3260 O   0  0  0  0  0  0  0  0  0  0  0  0
  191.5400  177.7570  143.4600 C   0  0  0  0  0  0  0  0  0  0  0  0
  192.1590  178.7740  144.3760 C   0  0  0  0  0  2  0  0  0  0  0  0
  191.4400  180.1020  144.2580 C   0  0  0  0  0  1  0  0  0  0  0  0
  185.3570  177.9120  138.5810 O   0  0  0  0  0  0  0  0  0  0  0  0
  185.4770  177.7310  137.1760 C   0  0  0  0  0  2  0  0  0  0  0  0
  189.8920  175.4380  136.3330 C   0  0  0  0  0  2  0  0  0  0  0  0
  183.2210  176.0080  136.4660 C   0  0  0  0  0  2  0  0  0  0  0  0
  189.8650  172.9970  135.8650 C   0  0  0  0  0  2  0  0  0  0  0  0
  187.7230  174.1360  136.5420 C   0  0  0  0  0  0  0  0  0  0  0  0
  188.4650  172.8290  136.4480 C   0  0  0  0  0  2  0  0  0  0  0  0
  190.5910  174.1100  136.6050 C   0  0  0  0  0  2  0  0  0  0  0  0
  188.4030  175.3710  136.5800 C   0  0  0  0  0  0  0  0  0  0  0  0
  185.6200  175.2210  136.8520 C   0  0  0  0  0  0  0  0  0  0  0  0
  183.5970  173.8520  137.4900 C   0  0  0  0  0  2  0  0  0  0  0  0
  186.3760  174.1010  136.6960 N   0  0  0  0  0  0  0  0  0  0  0  0
  182.1060  173.9760  137.2340 C   0  0  1  0  0  3  0  0  0  0  0  0
  187.6580  176.5520  136.7550 C   0  0  0  0  0  0  0  0  0  0  0  0
  181.8630  175.4130  136.7800 C   0  0  0  0  0  2  0  0  0  0  0  0
  186.2560  176.4830  136.8950 C   0  0  0  0  0  0  0  0  0  0  0  0
  184.1960  175.0770  136.9990 N   0  0  0  0  0  0  0  0  0  0  0  0
  181.7070  173.0000  136.1370 C   0  0  0  0  0  2  0  0  0  0  0  0
  180.7230  171.9980  136.6440 C   0  0  0  0  0  0  0  0  0  0  0  0
  180.4340  171.9620  137.9020 N   0  0  0  0  0  1  0  0  0  0  0  0
  179.9890  171.1990  135.7260 N   0  0  0  0  0  2  0  0  0  0  0  0
  188.3630  177.8800  136.8170 C   0  0  0  0  0  2  0  0  0  0  0  0
  188.9520  179.4100  138.5420 O   0  0  0  0  0  0  0  0  0  0  0  0
  188.7490  178.2090  138.2190 C   0  0  0  0  0  0  0  0  0  0  0  0
  188.8640  177.1860  139.1600 O   0  0  0  0  0  0  0  0  0  0  0  0
  190.1170  176.8250  139.7230 C   0  0  0  0  0  1  0  0  0  0  0  0
  1  4  2  0  0  0  0
  1  5  1  0  0  0  0
  2  7  1  0  0  0  0
  3  2  1  0  0  0  0
  4  6  1  0  0  0  0
  5  3  2  0  0  0  0
  6  2  2  0  0  0  0
  7  8  1  0  0  0  0
  8 10  1  0  0  0  0
  9 10  1  0  0  0  0
  9 12  1  1  0  0  0
  9 11  1  0  0  0  0
 10 11  1  0  0  0  0
 13 14  1  0  0  0  0
 14 17  1  0  0  0  0
 14 12  1  0  0  0  0
 15 14  1  0  0  0  0
 16 20  1  0  0  0  0
 16 22  1  1  0  0  0
 17 23  1  6  0  0  0
 17 25  1  0  0  0  0
 19 18  1  6  0  0  0
 19 17  1  0  0  0  0
 19 21  1  0  0  0  0
 21 24  2  0  0  0  0
 21 16  1  0  0  0  0
 25 16  1  0  0  0  0
 26 27  2  0  0  0  0
 27 19  1  0  0  0  0
 27 28  1  0  0  0  0
 29 28  1  0  0  0  0
 30  5  1  0  0  0  0
 31 30  1  0  0  0  0
 32 38  1  0  0  0  0
 32 37  1  0  0  0  0
 33 44  1  0  0  0  0
 33 46  1  0  0  0  0
 34 36  1  0  0  0  0
 34 37  1  0  0  0  0
 35 38  2  0  0  0  0
 35 41  1  0  0  0  0
 36 35  1  0  0  0  0
 38 43  1  0  0  0  0
 39 45  1  0  0  0  0
 39 46  1  0  0  0  0
 41 39  2  0  0  0  0
 42 47  1  6  0  0  0
 42 40  1  0  0  0  0
 43 51  1  0  0  0  0
 43 45  2  0  0  0  0
 44 42  1  0  0  0  0
 45 31  1  0  0  0  0
 46 40  1  0  0  0  0
 47 48  1  0  0  0  0
 48 49  1  0  0  0  0
 50 48  2  0  0  0  0
 51 53  1  0  0  0  0
 53 52  2  0  0  0  0
 53 54  1  0  0  0  0
 54 55  1  0  0  0  0
M  END
>  <MODEL>
3

>  <REMARK>
 VINA RESULT:      -7.4      3.412      9.569
  Name = 
  16 active torsions:
  status: ('A' for Active; 'I' for Inactive)
    1  A    between atoms: O_2  and  C_28
    2  A    between atoms: O_2  and  C_44
    3  A    between atoms: O_4  and  C_40
    4  A    between atoms: C_6  and  C_20
    5  A    between atoms: C_8  and  C_22
    6  A    between atoms: C_10  and  C_32
    7  A    between atoms: C_11  and  C_38
    8  A    between atoms: C_14  and  C_38
    9  A    between atoms: C_19  and  C_40
   10  A    between atoms: C_19  and  C_45
   11  A    between atoms: C_20  and  C_22
   12  A    between atoms: C_27  and  C_54
   13  A    between atoms: C_28  and  C_49
   14  A    between atoms: C_32  and  C_39
   15  A    between atoms: N_35  and  C_51
   16  A    between atoms: C_51  and  C_54
                            x       y       z     vdW  Elec       q    Type
                         _______ _______ _______ _____ _____    ______ ____

>  <TORSDO>
F 16

$$$$
=
 OpenBabel10262420383D

 55 60  0  0  1  0  0  0  0  0999 V2000
  184.9300  176.5810  136.7330 C   0  0  0  0  0  3  0  0  0  0  0  0
  187.5170  177.5510  136.4760 C   0  0  0  0  0  0  0  0  0  0  0  0
  186.7660  177.8830  137.6070 C   0  0  0  0  0  3  0  0  0  0  0  0
  185.7090  176.2740  135.6150 C   0  0  0  0  0  3  0  0  0  0  0  0
  185.4580  177.3940  137.7370 C   0  0  0  0  0  0  0  0  0  0  0  0
  186.9730  176.7650  135.5060 N   0  0  0  0  0  0  0  0  0  0  0  0
  188.8990  178.0760  136.3150 C   0  0  0  0  0  2  0  0  0  0  0  0
  189.7800  177.5820  137.4460 C   0  0  0  0  0  2  0  0  0  0  0  0
  191.7980  176.4050  137.3610 C   0  0  1  0  0  3  0  0  0  0  0  0
  190.3580  176.2990  137.0860 N   0  0  0  0  0  0  0  0  0  0  0  0
  190.9270  175.7320  138.3170 C   0  0  0  0  0  2  0  0  0  0  0  0
  192.5480  175.3660  136.5390 C   0  0  0  0  0  2  0  0  0  0  0  0
  193.4700  176.4580  134.6250 O   0  0  0  0  0  1  0  0  0  0  0  0
  193.8150  175.9150  135.8670 C   0  0  0  0  0  0  0  0  0  0  0  0
  194.3190  176.9480  136.6620 O   0  0  0  0  0  1  0  0  0  0  0  0
  197.0510  175.6580  135.3840 C   0  0  2  0  0  0  0  0  0  0  0  0
  194.9160  174.8250  135.6630 C   0  0  1  0  0  0  0  0  0  0  0  0
  195.0980  174.8780  138.2720 C   0  0  0  0  0  1  0  0  0  0  0  0
  195.7010  174.3820  136.9520 C   0  0  2  0  0  0  0  0  0  0  0  0
  197.1770  177.0330  135.4740 F   0  0  0  0  0  0  0  0  0  0  0  0
  196.9810  175.0650  136.7310 C   0  0  0  0  0  0  0  0  0  0  0  0
  198.2290  175.0890  134.6130 C   0  0  0  0  0  1  0  0  0  0  0  0
  194.3080  173.7230  135.0780 F   0  0  0  0  0  0  0  0  0  0  0  0
  197.8860  175.1250  137.5530 O   0  0  0  0  0  0  0  0  0  0  0  0
  195.8530  175.3300  134.7170 O   0  0  0  0  0  0  0  0  0  0  0  0
  196.8570  172.3900  136.3360 O   0  0  0  0  0  0  0  0  0  0  0  0
  195.9480  172.8760  136.9950 C   0  0  0  0  0  0  0  0  0  0  0  0
  195.1250  171.9640  137.8600 C   0  0  0  0  0  2  0  0  0  0  0  0
  194.8050  170.6790  137.1240 C   0  0  0  0  0  1  0  0  0  0  0  0
  184.6690  177.7000  138.8480 O   0  0  0  0  0  0  0  0  0  0  0  0
  184.6600  178.9880  139.4500 C   0  0  0  0  0  2  0  0  0  0  0  0
  180.0000  179.6750  141.2590 C   0  0  0  0  0  2  0  0  0  0  0  0
  186.6430  178.8970  141.6010 C   0  0  0  0  0  2  0  0  0  0  0  0
  179.6530  179.4220  143.7080 C   0  0  0  0  0  2  0  0  0  0  0  0
  181.8980  178.8410  142.7250 C   0  0  0  0  0  0  0  0  0  0  0  0
  180.9570  178.6490  143.8840 C   0  0  0  0  0  2  0  0  0  0  0  0
  179.0690  179.1230  142.3350 C   0  0  0  0  0  2  0  0  0  0  0  0
  181.4340  179.2390  141.4540 C   0  0  0  0  0  0  0  0  0  0  0  0
  184.1230  178.5980  141.8970 C   0  0  0  0  0  0  0  0  0  0  0  0
  185.8340  177.3540  143.2760 C   0  0  0  0  0  2  0  0  0  0  0  0
  183.2040  178.5200  142.8960 N   0  0  0  0  0  0  0  0  0  0  0  0
  187.3400  177.4510  143.4410 C   0  0  1  0  0  3  0  0  0  0  0  0
  182.3500  179.3190  140.3890 C   0  0  0  0  0  0  0  0  0  0  0  0
  187.8540  178.2630  142.2550 C   0  0  0  0  0  2  0  0  0  0  0  0
  183.7060  178.9950  140.6050 C   0  0  0  0  0  0  0  0  0  0  0  0
  185.4880  178.2430  142.1850 N   0  0  0  0  0  0  0  0  0  0  0  0
  187.6520  178.1680  144.7470 C   0  0  0  0  0  2  0  0  0  0  0  0
  188.9950  177.7740  145.2640 C   0  0  0  0  0  0  0  0  0  0  0  0
  190.0590  178.3050  144.7620 N   0  0  0  0  0  2  0  0  0  0  0  0
  189.0950  176.9430  146.4140 N   0  0  0  0  0  1  0  0  0  0  0  0
  181.8750  179.7240  139.0200 C   0  0  0  0  0  2  0  0  0  0  0  0
  181.0040  177.5370  138.6650 O   0  0  0  0  0  0  0  0  0  0  0  0
  181.6150  178.5240  138.1740 C   0  0  0  0  0  0  0  0  0  0  0  0
  182.0360  178.5140  136.8430 O   0  0  0  0  0  0  0  0  0  0  0  0
  181.3140  177.8220  135.8360 C   0  0  0  0  0  1  0  0  0  0  0  0
  1  5  1  0  0  0  0
  2  3  1  0  0  0  0
  3  5  2  0  0  0  0
  4  1  2  0  0  0  0
  5 30  1  0  0  0  0
  6  4  1  0  0  0  0
  6  2  2  0  0  0  0
  7  2  1  0  0  0  0
  7  8  1  0  0  0  0
  9 12  1  6  0  0  0
  9 11  1  0  0  0  0
 10  9  1  0  0  0  0
 10  8  1  0  0  0  0
 10 11  1  0  0  0  0
 13 14  1  0  0  0  0
 14 12  1  0  0  0  0
 14 15  1  0  0  0  0
 16 22  1  6  0  0  0
 16 20  1  0  0  0  0
 16 21  1  0  0  0  0
 17 23  1  6  0  0  0
 17 14  1  0  0  0  0
 17 19  1  0  0  0  0
 19 27  1  0  0  0  0
 19 18  1  1  0  0  0
 21 19  1  0  0  0  0
 21 24  2  0  0  0  0
 25 16  1  0  0  0  0
 25 17  1  0  0  0  0
 26 27  2  0  0  0  0
 27 28  1  0  0  0  0
 29 28  1  0  0  0  0
 30 31  1  0  0  0  0
 31 45  1  0  0  0  0
 32 38  1  0  0  0  0
 32 37  1  0  0  0  0
 33 46  1  0  0  0  0
 33 44  1  0  0  0  0
 34 36  1  0  0  0  0
 35 41  1  0  0  0  0
 35 36  1  0  0  0  0
 37 34  1  0  0  0  0
 38 35  2  0  0  0  0
 39 46  1  0  0  0  0
 39 41  2  0  0  0  0
 40 42  1  0  0  0  0
 42 47  1  1  0  0  0
 43 45  2  0  0  0  0
 43 38  1  0  0  0  0
 44 42  1  0  0  0  0
 45 39  1  0  0  0  0
 46 40  1  0  0  0  0
 47 48  1  0  0  0  0
 48 50  1  0  0  0  0
 49 48  2  0  0  0  0
 51 43  1  0  0  0  0
 53 52  2  0  0  0  0
 53 51  1  0  0  0  0
 54 53  1  0  0  0  0
 55 54  1  0  0  0  0
M  END
>  <MODEL>
4

>  <REMARK>
 VINA RESULT:      -7.0      5.184     10.466
  Name = 
  16 active torsions:
  status: ('A' for Active; 'I' for Inactive)
    1  A    between atoms: O_2  and  C_28
    2  A    between atoms: O_2  and  C_44
    3  A    between atoms: O_4  and  C_40
    4  A    between atoms: C_6  and  C_20
    5  A    between atoms: C_8  and  C_22
    6  A    between atoms: C_10  and  C_32
    7  A    between atoms: C_11  and  C_38
    8  A    between atoms: C_14  and  C_38
    9  A    between atoms: C_19  and  C_40
   10  A    between atoms: C_19  and  C_45
   11  A    between atoms: C_20  and  C_22
   12  A    between atoms: C_27  and  C_54
   13  A    between atoms: C_28  and  C_49
   14  A    between atoms: C_32  and  C_39
   15  A    between atoms: N_35  and  C_51
   16  A    between atoms: C_51  and  C_54
                            x       y       z     vdW  Elec       q    Type
                         _______ _______ _______ _____ _____    ______ ____

>  <TORSDO>
F 16

$$$$
=
 OpenBabel10262420383D

 55 60  0  0  1  0  0  0  0  0999 V2000
  184.8440  176.6770  136.3140 C   0  0  0  0  0  3  0  0  0  0  0  0
  187.5260  176.5540  135.6170 C   0  0  0  0  0  0  0  0  0  0  0  0
  187.1650  177.0250  136.8820 C   0  0  0  0  0  3  0  0  0  0  0  0
  185.2430  176.2170  135.0580 C   0  0  0  0  0  3  0  0  0  0  0  0
  185.8090  177.0890  137.2350 C   0  0  0  0  0  0  0  0  0  0  0  0
  186.5630  176.1710  134.7350 N   0  0  0  0  0  0  0  0  0  0  0  0
  188.9590  176.4980  135.2220 C   0  0  0  0  0  2  0  0  0  0  0  0
  189.7590  175.7440  136.2670 C   0  0  0  0  0  2  0  0  0  0  0  0
  191.8460  174.7030  136.4340 C   0  0  1  0  0  3  0  0  0  0  0  0
  190.6300  174.7830  135.6120 N   0  0  0  0  0  0  0  0  0  0  0  0
  190.8200  173.6750  136.5590 C   0  0  0  0  0  2  0  0  0  0  0  0
  192.9940  174.1740  135.5870 C   0  0  0  0  0  2  0  0  0  0  0  0
  194.4520  175.7870  134.5960 O   0  0  0  0  0  1  0  0  0  0  0  0
  194.2890  174.9880  135.7330 C   0  0  0  0  0  0  0  0  0  0  0  0
  194.1490  175.8350  136.8350 O   0  0  0  0  0  1  0  0  0  0  0  0
  197.5600  175.2320  135.8440 C   0  0  2  0  0  0  0  0  0  0  0  0
  195.5540  174.0910  135.9170 C   0  0  1  0  0  0  0  0  0  0  0  0
  195.2220  174.5790  138.4650 C   0  0  0  0  0  1  0  0  0  0  0  0
  196.1320  173.9970  137.3770 C   0  0  2  0  0  0  0  0  0  0  0  0
  197.4660  176.6050  135.6990 F   0  0  0  0  0  0  0  0  0  0  0  0
  197.3190  174.8530  137.2470 C   0  0  0  0  0  0  0  0  0  0  0  0
  198.9330  174.7660  135.3950 C   0  0  0  0  0  1  0  0  0  0  0  0
  195.2360  172.8210  135.4530 F   0  0  0  0  0  0  0  0  0  0  0  0
  198.0300  175.1970  138.1810 O   0  0  0  0  0  0  0  0  0  0  0  0
  196.5720  174.5990  135.0610 O   0  0  0  0  0  0  0  0  0  0  0  0
  195.8570  171.8710  138.4190 O   0  0  0  0  0  0  0  0  0  0  0  0
  196.5820  172.5830  137.7370 C   0  0  0  0  0  0  0  0  0  0  0  0
  197.8820  172.0170  137.2440 C   0  0  0  0  0  2  0  0  0  0  0  0
  197.6940  170.5920  136.7650 C   0  0  0  0  0  1  0  0  0  0  0  0
  185.3990  177.5520  138.4870 O   0  0  0  0  0  0  0  0  0  0  0  0
  185.9200  178.7380  139.0730 C   0  0  0  0  0  2  0  0  0  0  0  0
  183.0050  179.3550  143.1440 C   0  0  0  0  0  2  0  0  0  0  0  0
  188.7450  178.5000  139.8030 C   0  0  0  0  0  2  0  0  0  0  0  0
  184.0230  178.9580  145.3770 C   0  0  0  0  0  2  0  0  0  0  0  0
  185.3580  178.4180  143.3100 C   0  0  0  0  0  0  0  0  0  0  0  0
  185.1840  178.1650  144.7840 C   0  0  0  0  0  2  0  0  0  0  0  0
  182.7800  178.7480  144.5260 C   0  0  0  0  0  2  0  0  0  0  0  0
  184.2980  178.8960  142.5120 C   0  0  0  0  0  0  0  0  0  0  0  0
  186.7730  178.2070  141.4000 C   0  0  0  0  0  0  0  0  0  0  0  0
  188.9070  176.8670  141.5760 C   0  0  0  0  0  2  0  0  0  0  0  0
  186.5370  178.0760  142.7330 N   0  0  0  0  0  0  0  0  0  0  0  0
  190.2660  176.9410  140.9050 C   0  0  1  0  0  3  0  0  0  0  0  0
  184.4980  179.0320  141.1260 C   0  0  0  0  0  0  0  0  0  0  0  0
  190.0910  177.8180  139.6680 C   0  0  0  0  0  2  0  0  0  0  0  0
  185.7420  178.6840  140.5600 C   0  0  0  0  0  0  0  0  0  0  0  0
  188.0630  177.8230  140.8880 N   0  0  0  0  0  0  0  0  0  0  0  0
  191.2620  177.5750  141.8660 C   0  0  0  0  0  2  0  0  0  0  0  0
  191.0820  177.0420  143.2490 C   0  0  0  0  0  0  0  0  0  0  0  0
  191.7300  175.9900  143.6220 N   0  0  0  0  0  2  0  0  0  0  0  0
  190.3290  177.7830  144.2010 N   0  0  0  0  0  1  0  0  0  0  0  0
  183.3760  179.5230  140.2510 C   0  0  0  0  0  2  0  0  0  0  0  0
  182.6830  177.2460  140.2390 O   0  0  0  0  0  0  0  0  0  0  0  0
  182.6010  178.3780  139.6920 C   0  0  0  0  0  0  0  0  0  0  0  0
  181.7820  178.5780  138.5800 O   0  0  0  0  0  0  0  0  0  0  0  0
  181.4450  179.8800  138.1250 C   0  0  0  0  0  1  0  0  0  0  0  0
  1  5  1  0  0  0  0
  2  3  1  0  0  0  0
  3  5  2  0  0  0  0
  4  1  2  0  0  0  0
  5 30  1  0  0  0  0
  6  4  1  0  0  0  0
  6  2  2  0  0  0  0
  7  2  1  0  0  0  0
  7  8  1  0  0  0  0
  9 12  1  6  0  0  0
  9 11  1  0  0  0  0
 10  8  1  0  0  0  0
 10  9  1  0  0  0  0
 10 11  1  0  0  0  0
 12 14  1  0  0  0  0
 13 14  1  0  0  0  0
 14 17  1  0  0  0  0
 14 15  1  0  0  0  0
 16 22  1  6  0  0  0
 16 21  1  0  0  0  0
 17 23  1  6  0  0  0
 17 19  1  0  0  0  0
 19 27  1  0  0  0  0
 19 18  1  1  0  0  0
 20 16  1  0  0  0  0
 21 19  1  0  0  0  0
 21 24  2  0  0  0  0
 25 16  1  0  0  0  0
 25 17  1  0  0  0  0
 27 26  2  0  0  0  0
 28 27  1  0  0  0  0
 29 28  1  0  0  0  0
 30 31  1  0  0  0  0
 31 45  1  0  0  0  0
 32 37  1  0  0  0  0
 33 46  1  0  0  0  0
 35 36  1  0  0  0  0
 36 34  1  0  0  0  0
 37 34  1  0  0  0  0
 38 32  1  0  0  0  0
 38 35  2  0  0  0  0
 39 41  2  0  0  0  0
 41 35  1  0  0  0  0
 42 40  1  0  0  0  0
 42 47  1  1  0  0  0
 43 38  1  0  0  0  0
 44 33  1  0  0  0  0
 44 42  1  0  0  0  0
 45 43  2  0  0  0  0
 45 39  1  0  0  0  0
 46 39  1  0  0  0  0
 46 40  1  0  0  0  0
 47 48  1  0  0  0  0
 48 49  2  0  0  0  0
 48 50  1  0  0  0  0
 51 43  1  0  0  0  0
 53 52  2  0  0  0  0
 53 51  1  0  0  0  0
 54 53  1  0  0  0  0
 55 54  1  0  0  0  0
M  END
>  <MODEL>
5

>  <REMARK>
 VINA RESULT:      -7.0      5.551     10.566
  Name = 
  16 active torsions:
  status: ('A' for Active; 'I' for Inactive)
    1  A    between atoms: O_2  and  C_28
    2  A    between atoms: O_2  and  C_44
    3  A    between atoms: O_4  and  C_40
    4  A    between atoms: C_6  and  C_20
    5  A    between atoms: C_8  and  C_22
    6  A    between atoms: C_10  and  C_32
    7  A    between atoms: C_11  and  C_38
    8  A    between atoms: C_14  and  C_38
    9  A    between atoms: C_19  and  C_40
   10  A    between atoms: C_19  and  C_45
   11  A    between atoms: C_20  and  C_22
   12  A    between atoms: C_27  and  C_54
   13  A    between atoms: C_28  and  C_49
   14  A    between atoms: C_32  and  C_39
   15  A    between atoms: N_35  and  C_51
   16  A    between atoms: C_51  and  C_54
                            x       y       z     vdW  Elec       q    Type
                         _______ _______ _______ _____ _____    ______ ____

>  <TORSDO>
F 16

$$$$
=
 OpenBabel10262420383D

 55 60  0  0  1  0  0  0  0  0999 V2000
  183.8050  178.6880  143.9480 C   0  0  0  0  0  3  0  0  0  0  0  0
  182.8630  178.5360  141.3430 C   0  0  0  0  0  0  0  0  0  0  0  0
  184.1760  178.1500  141.6230 C   0  0  0  0  0  3  0  0  0  0  0  0
  182.5000  179.0690  143.6290 C   0  0  0  0  0  3  0  0  0  0  0  0
  184.6540  178.2280  142.9400 C   0  0  0  0  0  0  0  0  0  0  0  0
  182.0610  178.9930  142.3430 N   0  0  0  0  0  0  0  0  0  0  0  0
  182.3480  178.4770  139.9490 C   0  0  0  0  0  2  0  0  0  0  0  0
  180.9610  177.8640  139.9310 C   0  0  0  0  0  2  0  0  0  0  0  0
  180.2430  176.2660  138.3830 C   0  0  1  0  0  3  0  0  0  0  0  0
  180.5200  177.7000  138.5570 N   0  0  0  0  0  0  0  0  0  0  0  0
  179.1420  177.1930  138.6140 C   0  0  0  0  0  2  0  0  0  0  0  0
  180.3080  175.9150  136.9030 C   0  0  0  0  0  2  0  0  0  0  0  0
  180.8190  173.7760  137.8340 O   0  0  0  0  0  1  0  0  0  0  0  0
  180.8160  174.4920  136.6320 C   0  0  0  0  0  0  0  0  0  0  0  0
  179.9190  173.8660  135.7630 O   0  0  0  0  0  1  0  0  0  0  0  0
  183.9150  175.2320  137.4190 C   0  0  2  0  0  0  0  0  0  0  0  0
  182.2510  174.4650  136.0150 C   0  0  1  0  0  0  0  0  0  0  0  0
  182.3590  172.0440  137.0000 C   0  0  0  0  0  1  0  0  0  0  0  0
  183.1250  173.2000  136.3440 C   0  0  2  0  0  0  0  0  0  0  0  0
  183.5090  175.5960  138.6910 F   0  0  0  0  0  0  0  0  0  0  0  0
  184.0540  173.7690  137.3290 C   0  0  0  0  0  0  0  0  0  0  0  0
  185.2320  175.9130  137.0920 C   0  0  0  0  0  1  0  0  0  0  0  0
  182.1150  174.6000  134.6390 F   0  0  0  0  0  0  0  0  0  0  0  0
  184.8550  173.1160  137.9840 O   0  0  0  0  0  0  0  0  0  0  0  0
  182.9410  175.6220  136.4760 O   0  0  0  0  0  0  0  0  0  0  0  0
  184.7220  173.4630  134.5950 O   0  0  0  0  0  0  0  0  0  0  0  0
  183.9240  172.7120  135.1380 C   0  0  0  0  0  0  0  0  0  0  0  0
  183.7880  171.3110  134.6140 C   0  0  0  0  0  2  0  0  0  0  0  0
  184.8340  170.4080  135.2340 C   0  0  0  0  0  1  0  0  0  0  0  0
  185.9590  177.8540  143.2680 O   0  0  0  0  0  0  0  0  0  0  0  0
  187.0740  178.7130  143.0710 C   0  0  0  0  0  2  0  0  0  0  0  0
  190.2570  177.0640  146.6220 C   0  0  0  0  0  2  0  0  0  0  0  0
  188.2900  178.6120  140.4100 C   0  0  0  0  0  2  0  0  0  0  0  0
  192.3260  175.9000  145.8810 C   0  0  0  0  0  2  0  0  0  0  0  0
  190.5870  176.5130  144.1660 C   0  0  0  0  0  0  0  0  0  0  0  0
  191.7580  175.6260  144.4920 C   0  0  0  0  0  2  0  0  0  0  0  0
  191.1960  175.8940  146.9000 C   0  0  0  0  0  2  0  0  0  0  0  0
  189.8170  177.1240  145.1770 C   0  0  0  0  0  0  0  0  0  0  0  0
  189.1350  177.3640  142.4730 C   0  0  0  0  0  0  0  0  0  0  0  0
  189.2640  176.4180  140.1350 C   0  0  0  0  0  2  0  0  0  0  0  0
  190.2140  176.6360  142.8670 N   0  0  0  0  0  0  0  0  0  0  0  0
  189.0130  176.9780  138.7460 C   0  0  1  0  0  3  0  0  0  0  0  0
  188.6840  177.8740  144.8110 C   0  0  0  0  0  0  0  0  0  0  0  0
  188.2170  178.2660  138.9370 C   0  0  0  0  0  2  0  0  0  0  0  0
  188.3340  177.9960  143.4510 C   0  0  0  0  0  0  0  0  0  0  0  0
  188.8300  177.4380  141.0680 N   0  0  0  0  0  0  0  0  0  0  0  0
  190.3500  177.2760  138.0820 C   0  0  0  0  0  2  0  0  0  0  0  0
  191.3670  176.2450  138.4410 C   0  0  0  0  0  0  0  0  0  0  0  0
  191.2280  175.0320  138.0220 N   0  0  0  0  0  2  0  0  0  0  0  0
  192.5650  176.6310  139.1020 N   0  0  0  0  0  1  0  0  0  0  0  0
  187.8370  178.5190  145.8750 C   0  0  0  0  0  2  0  0  0  0  0  0
  186.1930  176.8060  146.0550 O   0  0  0  0  0  0  0  0  0  0  0  0
  187.0750  177.4910  146.6400 C   0  0  0  0  0  0  0  0  0  0  0  0
  187.3570  177.2880  147.9920 O   0  0  0  0  0  0  0  0  0  0  0  0
  188.0570  178.2540  148.7620 C   0  0  0  0  0  1  0  0  0  0  0  0
  2  3  2  0  0  0  0
  2  6  1  0  0  0  0
  3  5  1  0  0  0  0
  4  1  1  0  0  0  0
  5 30  1  0  0  0  0
  5  1  2  0  0  0  0
  6  4  2  0  0  0  0
  7  2  1  0  0  0  0
  8  7  1  0  0  0  0
  9 12  1  6  0  0  0
  9 10  1  0  0  0  0
  9 11  1  0  0  0  0
 10 11  1  0  0  0  0
 10  8  1  0  0  0  0
 14 12  1  0  0  0  0
 14 13  1  0  0  0  0
 15 14  1  0  0  0  0
 16 22  1  6  0  0  0
 16 20  1  0  0  0  0
 17 23  1  6  0  0  0
 17 19  1  0  0  0  0
 17 25  1  0  0  0  0
 17 14  1  0  0  0  0
 19 18  1  1  0  0  0
 19 21  1  0  0  0  0
 21 16  1  0  0  0  0
 21 24  2  0  0  0  0
 25 16  1  0  0  0  0
 26 27  2  0  0  0  0
 27 19  1  0  0  0  0
 28 27  1  0  0  0  0
 28 29  1  0  0  0  0
 31 30  1  0  0  0  0
 31 45  1  0  0  0  0
 32 37  1  0  0  0  0
 33 46  1  0  0  0  0
 34 37  1  0  0  0  0
 35 36  1  0  0  0  0
 35 38  1  0  0  0  0
 36 34  1  0  0  0  0
 38 32  1  0  0  0  0
 39 41  1  0  0  0  0
 39 45  2  0  0  0  0
 40 46  1  0  0  0  0
 41 35  2  0  0  0  0
 42 47  1  1  0  0  0
 42 44  1  0  0  0  0
 42 40  1  0  0  0  0
 43 38  2  0  0  0  0
 43 51  1  0  0  0  0
 44 33  1  0  0  0  0
 45 43  1  0  0  0  0
 46 39  1  0  0  0  0
 47 48  1  0  0  0  0
 48 50  1  0  0  0  0
 49 48  2  0  0  0  0
 51 53  1  0  0  0  0
 52 53  2  0  0  0  0
 53 54  1  0  0  0  0
 54 55  1  0  0  0  0
M  END
>  <MODEL>
6

>  <REMARK>
 VINA RESULT:      -6.8      2.319      6.256
  Name = 
  16 active torsions:
  status: ('A' for Active; 'I' for Inactive)
    1  A    between atoms: O_2  and  C_28
    2  A    between atoms: O_2  and  C_44
    3  A    between atoms: O_4  and  C_40
    4  A    between atoms: C_6  and  C_20
    5  A    between atoms: C_8  and  C_22
    6  A    between atoms: C_10  and  C_32
    7  A    between atoms: C_11  and  C_38
    8  A    between atoms: C_14  and  C_38
    9  A    between atoms: C_19  and  C_40
   10  A    between atoms: C_19  and  C_45
   11  A    between atoms: C_20  and  C_22
   12  A    between atoms: C_27  and  C_54
   13  A    between atoms: C_28  and  C_49
   14  A    between atoms: C_32  and  C_39
   15  A    between atoms: N_35  and  C_51
   16  A    between atoms: C_51  and  C_54
                            x       y       z     vdW  Elec       q    Type
                         _______ _______ _______ _____ _____    ______ ____

>  <TORSDO>
F 16

$$$$
=
 OpenBabel10262420383D

 55 60  0  0  1  0  0  0  0  0999 V2000
  180.2140  179.1880  139.9560 C   0  0  0  0  0  3  0  0  0  0  0  0
  181.3450  179.2940  142.4860 C   0  0  0  0  0  0  0  0  0  0  0  0
  181.7390  178.2900  141.5980 C   0  0  0  0  0  3  0  0  0  0  0  0
  179.8410  180.1740  140.8720 C   0  0  0  0  0  3  0  0  0  0  0  0
  181.1670  178.2350  140.3190 C   0  0  0  0  0  0  0  0  0  0  0  0
  180.4050  180.2030  142.1100 N   0  0  0  0  0  0  0  0  0  0  0  0
  181.9300  179.3550  143.8530 C   0  0  0  0  0  2  0  0  0  0  0  0
  183.0410  178.3320  143.9910 C   0  0  0  0  0  2  0  0  0  0  0  0
  185.3480  178.0720  143.7160 C   0  0  1  0  0  3  0  0  0  0  0  0
  184.3110  179.0150  144.1610 N   0  0  0  0  0  0  0  0  0  0  0  0
  184.9060  179.1360  142.8230 C   0  0  0  0  0  2  0  0  0  0  0  0
  186.6810  178.4550  144.3410 C   0  0  0  0  0  2  0  0  0  0  0  0
  188.1840  176.9930  145.4870 O   0  0  0  0  0  1  0  0  0  0  0  0
  187.7560  177.3650  144.2080 C   0  0  0  0  0  0  0  0  0  0  0  0
  187.1710  176.2470  143.6100 O   0  0  0  0  0  1  0  0  0  0  0  0
  190.9200  178.1470  144.5910 C   0  0  2  0  0  0  0  0  0  0  0  0
  188.9890  177.8260  143.3670 C   0  0  1  0  0  0  0  0  0  0  0  0
  189.4400  175.2650  143.0870 C   0  0  0  0  0  1  0  0  0  0  0  0
  189.9680  176.6910  142.8920 C   0  0  2  0  0  0  0  0  0  0  0  0
  190.8330  177.8550  145.9410 F   0  0  0  0  0  0  0  0  0  0  0  0
  191.0910  176.9080  143.8130 C   0  0  0  0  0  0  0  0  0  0  0  0
  192.0840  179.0910  144.3500 C   0  0  0  0  0  1  0  0  0  0  0  0
  188.5060  178.5230  142.2670 F   0  0  0  0  0  0  0  0  0  0  0  0
  192.0570  176.1640  143.9150 O   0  0  0  0  0  0  0  0  0  0  0  0
  189.7250  178.7560  144.1550 O   0  0  0  0  0  0  0  0  0  0  0  0
  189.9370  176.2820  140.5440 O   0  0  0  0  0  0  0  0  0  0  0  0
  190.4570  176.9030  141.4610 C   0  0  0  0  0  0  0  0  0  0  0  0
  191.5430  177.8870  141.1340 C   0  0  0  0  0  2  0  0  0  0  0  0
  192.5350  177.2810  140.1620 C   0  0  0  0  0  1  0  0  0  0  0  0
  181.5270  177.2500  139.3970 O   0  0  0  0  0  0  0  0  0  0  0  0
  181.4410  177.4470  137.9920 C   0  0  0  0  0  2  0  0  0  0  0  0
  180.4910  173.0030  135.7980 C   0  0  0  0  0  2  0  0  0  0  0  0
  184.2970  177.7850  138.5370 C   0  0  0  0  0  2  0  0  0  0  0  0
  182.4210  171.6920  134.9400 C   0  0  0  0  0  2  0  0  0  0  0  0
  182.8160  174.0230  135.8100 C   0  0  0  0  0  0  0  0  0  0  0  0
  183.3390  172.9110  134.9410 C   0  0  0  0  0  2  0  0  0  0  0  0
  180.9940  172.1330  134.6510 C   0  0  0  0  0  2  0  0  0  0  0  0
  181.4490  174.1200  136.1430 C   0  0  0  0  0  0  0  0  0  0  0  0
  183.2890  176.0810  136.9230 C   0  0  0  0  0  0  0  0  0  0  0  0
  185.4970  177.2360  136.5130 C   0  0  0  0  0  2  0  0  0  0  0  0
  183.6740  175.0020  136.1900 N   0  0  0  0  0  0  0  0  0  0  0  0
  186.4000  178.1290  137.3440 C   0  0  1  0  0  3  0  0  0  0  0  0
  181.0070  175.2290  136.8890 C   0  0  0  0  0  0  0  0  0  0  0  0
  185.5550  178.6290  138.5130 C   0  0  0  0  0  2  0  0  0  0  0  0
  181.9300  176.2210  137.2820 C   0  0  0  0  0  0  0  0  0  0  0  0
  184.2810  177.0600  137.2810 N   0  0  0  0  0  0  0  0  0  0  0  0
  187.5770  177.3100  137.8540 C   0  0  0  0  0  2  0  0  0  0  0  0
  188.8720  177.9710  137.5190 C   0  0  0  0  0  0  0  0  0  0  0  0
  188.9860  179.2520  137.6220 N   0  0  0  0  0  1  0  0  0  0  0  0
  190.0210  177.1790  137.2470 N   0  0  0  0  0  2  0  0  0  0  0  0
  179.5500  175.3640  137.2400 C   0  0  0  0  0  2  0  0  0  0  0  0
  179.1110  173.4720  138.6170 O   0  0  0  0  0  0  0  0  0  0  0  0
  179.2610  174.7220  138.5550 C   0  0  0  0  0  0  0  0  0  0  0  0
  179.1760  175.5100  139.7030 O   0  0  0  0  0  0  0  0  0  0  0  0
  179.3220  174.9570  141.0020 C   0  0  0  0  0  1  0  0  0  0  0  0
  1  5  2  0  0  0  0
  1  4  1  0  0  0  0
  2  7  1  0  0  0  0
  3  2  2  0  0  0  0
  4  6  2  0  0  0  0
  5  3  1  0  0  0  0
  6  2  1  0  0  0  0
  7  8  1  0  0  0  0
  8 10  1  0  0  0  0
  9 10  1  0  0  0  0
  9 12  1  1  0  0  0
 11  9  1  0  0  0  0
 11 10  1  0  0  0  0
 14 12  1  0  0  0  0
 14 13  1  0  0  0  0
 15 14  1  0  0  0  0
 16 22  1  6  0  0  0
 16 20  1  0  0  0  0
 17 23  1  6  0  0  0
 17 25  1  0  0  0  0
 17 14  1  0  0  0  0
 19 18  1  1  0  0  0
 19 17  1  0  0  0  0
 19 21  1  0  0  0  0
 21 24  2  0  0  0  0
 21 16  1  0  0  0  0
 25 16  1  0  0  0  0
 26 27  2  0  0  0  0
 27 19  1  0  0  0  0
 28 27  1  0  0  0  0
 29 28  1  0  0  0  0
 30  5  1  0  0  0  0
 31 30  1  0  0  0  0
 32 38  1  0  0  0  0
 34 36  1  0  0  0  0
 35 38  2  0  0  0  0
 35 41  1  0  0  0  0
 36 35  1  0  0  0  0
 37 34  1  0  0  0  0
 37 32  1  0  0  0  0
 38 43  1  0  0  0  0
 39 46  1  0  0  0  0
 39 45  1  0  0  0  0
 40 46  1  0  0  0  0
 40 42  1  0  0  0  0
 41 39  2  0  0  0  0
 42 47  1  1  0  0  0
 42 44  1  0  0  0  0
 43 51  1  0  0  0  0
 43 45  2  0  0  0  0
 44 33  1  0  0  0  0
 45 31  1  0  0  0  0
 46 33  1  0  0  0  0
 48 49  1  0  0  0  0
 48 47  1  0  0  0  0
 50 48  2  0  0  0  0
 51 53  1  0  0  0  0
 53 52  2  0  0  0  0
 53 54  1  0  0  0  0
 54 55  1  0  0  0  0
M  END
>  <MODEL>
7

>  <REMARK>
 VINA RESULT:      -6.6      2.884     10.798
  Name = 
  16 active torsions:
  status: ('A' for Active; 'I' for Inactive)
    1  A    between atoms: O_2  and  C_28
    2  A    between atoms: O_2  and  C_44
    3  A    between atoms: O_4  and  C_40
    4  A    between atoms: C_6  and  C_20
    5  A    between atoms: C_8  and  C_22
    6  A    between atoms: C_10  and  C_32
    7  A    between atoms: C_11  and  C_38
    8  A    between atoms: C_14  and  C_38
    9  A    between atoms: C_19  and  C_40
   10  A    between atoms: C_19  and  C_45
   11  A    between atoms: C_20  and  C_22
   12  A    between atoms: C_27  and  C_54
   13  A    between atoms: C_28  and  C_49
   14  A    between atoms: C_32  and  C_39
   15  A    between atoms: N_35  and  C_51
   16  A    between atoms: C_51  and  C_54
                            x       y       z     vdW  Elec       q    Type
                         _______ _______ _______ _____ _____    ______ ____

>  <TORSDO>
F 16

$$$$
=
 OpenBabel10262420383D

 55 60  0  0  1  0  0  0  0  0999 V2000
  182.7260  178.8190  140.0640 C   0  0  0  0  0  3  0  0  0  0  0  0
  183.1160  178.8410  142.8110 C   0  0  0  0  0  0  0  0  0  0  0  0
  184.2090  178.6520  141.9620 C   0  0  0  0  0  3  0  0  0  0  0  0
  181.6560  179.0010  140.9430 C   0  0  0  0  0  3  0  0  0  0  0  0
  184.0130  178.6400  140.5740 C   0  0  0  0  0  0  0  0  0  0  0  0
  181.8690  179.0020  142.2870 N   0  0  0  0  0  0  0  0  0  0  0  0
  183.3040  178.8390  144.2860 C   0  0  0  0  0  2  0  0  0  0  0  0
  184.7690  179.0410  144.6250 C   0  0  0  0  0  2  0  0  0  0  0  0
  186.0250  178.6920  146.5660 C   0  0  1  0  0  3  0  0  0  0  0  0
  185.1970  178.0130  145.5580 N   0  0  0  0  0  0  0  0  0  0  0  0
  184.6350  178.3720  146.8670 C   0  0  0  0  0  2  0  0  0  0  0  0
  186.9370  177.6750  147.2380 C   0  0  0  0  0  2  0  0  0  0  0  0
  188.5690  179.2570  146.5030 O   0  0  0  0  0  1  0  0  0  0  0  0
  188.4310  177.9820  147.0610 C   0  0  0  0  0  0  0  0  0  0  0  0
  189.0250  178.0010  148.3260 O   0  0  0  0  0  1  0  0  0  0  0  0
  188.6310  177.0830  143.9110 C   0  0  2  0  0  0  0  0  0  0  0  0
  189.1620  176.9410  146.1540 C   0  0  1  0  0  0  0  0  0  0  0  0
  191.0120  178.7810  145.9630 C   0  0  0  0  0  1  0  0  0  0  0  0
  190.4790  177.4380  145.4510 C   0  0  2  0  0  0  0  0  0  0  0  0
  187.7610  178.1010  143.5620 F   0  0  0  0  0  0  0  0  0  0  0  0
  189.9950  177.6150  144.0760 C   0  0  0  0  0  0  0  0  0  0  0  0
  188.6060  176.0040  142.8430 C   0  0  0  0  0  1  0  0  0  0  0  0
  189.4360  175.8260  146.9340 F   0  0  0  0  0  0  0  0  0  0  0  0
  190.6440  178.1260  143.1730 O   0  0  0  0  0  0  0  0  0  0  0  0
  188.2440  176.5260  145.1480 O   0  0  0  0  0  0  0  0  0  0  0  0
  192.2840  176.2370  146.4430 O   0  0  0  0  0  0  0  0  0  0  0  0
  191.5770  176.3770  145.4530 C   0  0  0  0  0  0  0  0  0  0  0  0
  191.7970  175.4640  144.2820 C   0  0  0  0  0  2  0  0  0  0  0  0
  192.4300  174.1630  144.7330 C   0  0  0  0  0  1  0  0  0  0  0  0
  185.0750  178.4530  139.6860 O   0  0  0  0  0  0  0  0  0  0  0  0
  184.8920  178.3740  138.2780 C   0  0  0  0  0  2  0  0  0  0  0  0
  182.8050  174.0570  136.7100 C   0  0  0  0  0  2  0  0  0  0  0  0
  187.6750  177.9850  139.0980 C   0  0  0  0  0  2  0  0  0  0  0  0
  184.3070  172.1180  136.3030 C   0  0  0  0  0  2  0  0  0  0  0  0
  185.3220  174.3600  136.8380 C   0  0  0  0  0  0  0  0  0  0  0  0
  185.5460  173.0050  136.2220 C   0  0  0  0  0  2  0  0  0  0  0  0
  183.1010  172.8830  135.7810 C   0  0  0  0  0  2  0  0  0  0  0  0
  184.0280  174.9000  136.9870 C   0  0  0  0  0  0  0  0  0  0  0  0
  186.3140  176.3680  137.6620 C   0  0  0  0  0  0  0  0  0  0  0  0
  188.7890  176.7550  137.3410 C   0  0  0  0  0  2  0  0  0  0  0  0
  186.4070  175.1090  137.1580 N   0  0  0  0  0  0  0  0  0  0  0  0
  189.8590  177.4940  138.1240 C   0  0  1  0  0  3  0  0  0  0  0  0
  183.8890  176.2060  137.4920 C   0  0  0  0  0  0  0  0  0  0  0  0
  189.1270  178.4190  139.0920 C   0  0  0  0  0  2  0  0  0  0  0  0
  185.0380  176.9510  137.8320 C   0  0  0  0  0  0  0  0  0  0  0  0
  187.5270  177.0760  137.9780 N   0  0  0  0  0  0  0  0  0  0  0  0
  190.7000  176.4840  138.8920 C   0  0  0  0  0  2  0  0  0  0  0  0
  191.5800  175.7090  137.9680 C   0  0  0  0  0  0  0  0  0  0  0  0
  191.3370  174.4620  137.7430 N   0  0  0  0  0  1  0  0  0  0  0  0
  192.5810  176.3810  137.2140 N   0  0  0  0  0  2  0  0  0  0  0  0
  182.5200  176.8100  137.6430 C   0  0  0  0  0  2  0  0  0  0  0  0
  182.8730  177.4940  135.3910 O   0  0  0  0  0  0  0  0  0  0  0  0
  182.1160  177.5240  136.3980 C   0  0  0  0  0  0  0  0  0  0  0  0
  180.8970  178.2020  136.3570 O   0  0  0  0  0  0  0  0  0  0  0  0
  179.8300  177.8760  137.2350 C   0  0  0  0  0  1  0  0  0  0  0  0
  1  5  2  0  0  0  0
  1  4  1  0  0  0  0
  2  7  1  0  0  0  0
  3  2  2  0  0  0  0
  4  6  2  0  0  0  0
  5  3  1  0  0  0  0
  6  2  1  0  0  0  0
  7  8  1  0  0  0  0
  8 10  1  0  0  0  0
  9 11  1  0  0  0  0
  9 12  1  1  0  0  0
 10  9  1  0  0  0  0
 10 11  1  0  0  0  0
 13 14  1  0  0  0  0
 14 12  1  0  0  0  0
 14 15  1  0  0  0  0
 16 22  1  6  0  0  0
 16 21  1  0  0  0  0
 16 25  1  0  0  0  0
 17 23  1  1  0  0  0
 17 14  1  0  0  0  0
 19 27  1  0  0  0  0
 19 18  1  1  0  0  0
 19 17  1  0  0  0  0
 20 16  1  0  0  0  0
 21 19  1  0  0  0  0
 24 21  2  0  0  0  0
 25 17  1  0  0  0  0
 27 26  2  0  0  0  0
 28 29  1  0  0  0  0
 28 27  1  0  0  0  0
 30  5  1  0  0  0  0
 31 30  1  0  0  0  0
 32 38  1  0  0  0  0
 35 38  2  0  0  0  0
 35 41  1  0  0  0  0
 36 34  1  0  0  0  0
 36 35  1  0  0  0  0
 37 34  1  0  0  0  0
 37 32  1  0  0  0  0
 38 43  1  0  0  0  0
 39 45  1  0  0  0  0
 39 46  1  0  0  0  0
 40 46  1  0  0  0  0
 40 42  1  0  0  0  0
 41 39  2  0  0  0  0
 42 47  1  1  0  0  0
 42 44  1  0  0  0  0
 43 51  1  0  0  0  0
 43 45  2  0  0  0  0
 44 33  1  0  0  0  0
 45 31  1  0  0  0  0
 46 33  1  0  0  0  0
 48 47  1  0  0  0  0
 49 48  1  0  0  0  0
 50 48  2  0  0  0  0
 52 53  2  0  0  0  0
 53 51  1  0  0  0  0
 54 53  1  0  0  0  0
 54 55  1  0  0  0  0
M  END
>  <MODEL>
8

>  <REMARK>
 VINA RESULT:      -6.3      2.971     10.794
  Name = 
  16 active torsions:
  status: ('A' for Active; 'I' for Inactive)
    1  A    between atoms: O_2  and  C_28
    2  A    between atoms: O_2  and  C_44
    3  A    between atoms: O_4  and  C_40
    4  A    between atoms: C_6  and  C_20
    5  A    between atoms: C_8  and  C_22
    6  A    between atoms: C_10  and  C_32
    7  A    between atoms: C_11  and  C_38
    8  A    between atoms: C_14  and  C_38
    9  A    between atoms: C_19  and  C_40
   10  A    between atoms: C_19  and  C_45
   11  A    between atoms: C_20  and  C_22
   12  A    between atoms: C_27  and  C_54
   13  A    between atoms: C_28  and  C_49
   14  A    between atoms: C_32  and  C_39
   15  A    between atoms: N_35  and  C_51
   16  A    between atoms: C_51  and  C_54
                            x       y       z     vdW  Elec       q    Type
                         _______ _______ _______ _____ _____    ______ ____

>  <TORSDO>
F 16

$$$$
=
 OpenBabel10262420383D

 55 60  0  0  1  0  0  0  0  0999 V2000
  184.4640  176.9540  136.4710 C   0  0  0  0  0  3  0  0  0  0  0  0
  187.0850  177.3300  135.6420 C   0  0  0  0  0  0  0  0  0  0  0  0
  186.7510  177.5350  136.9830 C   0  0  0  0  0  3  0  0  0  0  0  0
  184.8340  176.7630  135.1380 C   0  0  0  0  0  3  0  0  0  0  0  0
  185.4260  177.3470  137.4030 C   0  0  0  0  0  0  0  0  0  0  0  0
  186.1240  176.9590  134.7520 N   0  0  0  0  0  0  0  0  0  0  0  0
  188.4820  177.5440  135.1780 C   0  0  0  0  0  2  0  0  0  0  0  0
  189.4410  177.4450  136.3480 C   0  0  0  0  0  2  0  0  0  0  0  0
  191.2530  176.2980  137.2800 C   0  0  1  0  0  3  0  0  0  0  0  0
  190.2270  176.2290  136.2290 N   0  0  0  0  0  0  0  0  0  0  0  0
  190.0560  175.4930  137.4900 C   0  0  0  0  0  2  0  0  0  0  0  0
  192.4170  175.3900  136.9110 C   0  0  0  0  0  2  0  0  0  0  0  0
  194.3010  176.7570  136.3760 O   0  0  0  0  0  1  0  0  0  0  0  0
  193.7810  175.9240  137.3720 C   0  0  0  0  0  0  0  0  0  0  0  0
  193.5810  176.6980  138.5180 O   0  0  0  0  0  1  0  0  0  0  0  0
  194.4890  172.8520  136.4590 C   0  0  2  0  0  0  0  0  0  0  0  0
  194.8070  174.7870  137.6790 C   0  0  1  0  0  0  0  0  0  0  0  0
  196.2270  175.9000  135.7840 C   0  0  0  0  0  1  0  0  0  0  0  0
  196.0510  174.6980  136.7200 C   0  0  2  0  0  0  0  0  0  0  0  0
  193.4610  172.8860  135.5350 F   0  0  0  0  0  0  0  0  0  0  0  0
  195.6820  173.5240  135.9170 C   0  0  0  0  0  0  0  0  0  0  0  0
  194.8060  171.4110  136.8150 C   0  0  0  0  0  1  0  0  0  0  0  0
  195.2340  174.9520  138.9900 F   0  0  0  0  0  0  0  0  0  0  0  0
  196.2950  173.1400  134.9300 O   0  0  0  0  0  0  0  0  0  0  0  0
  194.1080  173.5480  137.6250 O   0  0  0  0  0  0  0  0  0  0  0  0
  197.8590  175.2570  138.1690 O   0  0  0  0  0  0  0  0  0  0  0  0
  197.3460  174.3940  137.4700 C   0  0  0  0  0  0  0  0  0  0  0  0
  197.9980  173.0430  137.4070 C   0  0  0  0  0  2  0  0  0  0  0  0
  199.0840  173.0250  136.3500 C   0  0  0  0  0  1  0  0  0  0  0  0
  185.0450  177.5400  138.7320 O   0  0  0  0  0  0  0  0  0  0  0  0
  185.3770  178.7140  139.4610 C   0  0  0  0  0  2  0  0  0  0  0  0
  181.0240  179.3820  141.9240 C   0  0  0  0  0  2  0  0  0  0  0  0
  187.6590  178.7280  141.2940 C   0  0  0  0  0  2  0  0  0  0  0  0
  181.0500  179.2030  144.4040 C   0  0  0  0  0  2  0  0  0  0  0  0
  183.1360  178.6280  143.1140 C   0  0  0  0  0  0  0  0  0  0  0  0
  182.3820  178.4590  144.4060 C   0  0  0  0  0  2  0  0  0  0  0  0
  180.2760  178.8500  143.1430 C   0  0  0  0  0  2  0  0  0  0  0  0
  182.4800  178.9770  141.9160 C   0  0  0  0  0  0  0  0  0  0  0  0
  185.2180  178.3970  141.9710 C   0  0  0  0  0  0  0  0  0  0  0  0
  187.1420  177.2280  143.1160 C   0  0  0  0  0  2  0  0  0  0  0  0
  184.4600  178.3360  143.0990 N   0  0  0  0  0  0  0  0  0  0  0  0
  188.6530  177.3550  143.0530 C   0  0  1  0  0  3  0  0  0  0  0  0
  183.2270  179.0370  140.7240 C   0  0  0  0  0  0  0  0  0  0  0  0
  188.9670  178.1360  141.7790 C   0  0  0  0  0  2  0  0  0  0  0  0
  184.6060  178.7430  140.7450 C   0  0  0  0  0  0  0  0  0  0  0  0
  186.6180  178.0740  142.0630 N   0  0  0  0  0  0  0  0  0  0  0  0
  189.1400  178.1200  144.2750 C   0  0  0  0  0  2  0  0  0  0  0  0
  189.9390  177.2360  145.1740 C   0  0  0  0  0  0  0  0  0  0  0  0
  189.7120  177.2380  146.4450 N   0  0  0  0  0  1  0  0  0  0  0  0
  190.8310  176.2800  144.6170 N   0  0  0  0  0  2  0  0  0  0  0  0
  182.5450  179.3890  139.4290 C   0  0  0  0  0  2  0  0  0  0  0  0
  180.6860  178.4760  138.2550 O   0  0  0  0  0  0  0  0  0  0  0  0
  181.7200  178.2480  138.9390 C   0  0  0  0  0  0  0  0  0  0  0  0
  182.1110  176.9400  139.2280 O   0  0  0  0  0  0  0  0  0  0  0  0
  181.1620  175.9020  139.4240 C   0  0  0  0  0  1  0  0  0  0  0  0
  1  5  1  0  0  0  0
  2  3  1  0  0  0  0
  3  5  2  0  0  0  0
  4  1  2  0  0  0  0
  5 30  1  0  0  0  0
  6  4  1  0  0  0  0
  6  2  2  0  0  0  0
  7  2  1  0  0  0  0
  7  8  1  0  0  0  0
  9 12  1  6  0  0  0
  9 11  1  0  0  0  0
 10  8  1  0  0  0  0
 10  9  1  0  0  0  0
 10 11  1  0  0  0  0
 12 14  1  0  0  0  0
 13 14  1  0  0  0  0
 14 17  1  0  0  0  0
 14 15  1  0  0  0  0
 16 22  1  1  0  0  0
 16 25  1  0  0  0  0
 17 23  1  1  0  0  0
 19 18  1  6  0  0  0
 19 27  1  0  0  0  0
 19 17  1  0  0  0  0
 20 16  1  0  0  0  0
 21 16  1  0  0  0  0
 21 19  1  0  0  0  0
 24 21  2  0  0  0  0
 25 17  1  0  0  0  0
 27 26  2  0  0  0  0
 28 27  1  0  0  0  0
 29 28  1  0  0  0  0
 30 31  1  0  0  0  0
 31 45  1  0  0  0  0
 32 37  1  0  0  0  0
 33 44  1  0  0  0  0
 33 46  1  0  0  0  0
 34 36  1  0  0  0  0
 35 36  1  0  0  0  0
 37 34  1  0  0  0  0
 38 32  1  0  0  0  0
 38 35  2  0  0  0  0
 39 46  1  0  0  0  0
 39 41  2  0  0  0  0
 41 35  1  0  0  0  0
 42 40  1  0  0  0  0
 42 47  1  1  0  0  0
 43 45  2  0  0  0  0
 43 38  1  0  0  0  0
 44 42  1  0  0  0  0
 45 39  1  0  0  0  0
 46 40  1  0  0  0  0
 47 48  1  0  0  0  0
 48 49  1  0  0  0  0
 50 48  2  0  0  0  0
 51 43  1  0  0  0  0
 52 53  2  0  0  0  0
 53 54  1  0  0  0  0
 53 51  1  0  0  0  0
 54 55  1  0  0  0  0
M  END
>  <MODEL>
9

>  <REMARK>
 VINA RESULT:      -6.3      4.974     10.230
  Name = 
  16 active torsions:
  status: ('A' for Active; 'I' for Inactive)
    1  A    between atoms: O_2  and  C_28
    2  A    between atoms: O_2  and  C_44
    3  A    between atoms: O_4  and  C_40
    4  A    between atoms: C_6  and  C_20
    5  A    between atoms: C_8  and  C_22
    6  A    between atoms: C_10  and  C_32
    7  A    between atoms: C_11  and  C_38
    8  A    between atoms: C_14  and  C_38
    9  A    between atoms: C_19  and  C_40
   10  A    between atoms: C_19  and  C_45
   11  A    between atoms: C_20  and  C_22
   12  A    between atoms: C_27  and  C_54
   13  A    between atoms: C_28  and  C_49
   14  A    between atoms: C_32  and  C_39
   15  A    between atoms: N_35  and  C_51
   16  A    between atoms: C_51  and  C_54
                            x       y       z     vdW  Elec       q    Type
                         _______ _______ _______ _____ _____    ______ ____

>  <TORSDO>
F 16

$$$$
