=
 OpenBabel10262422493D

 37 43  0  0  1  0  0  0  0  0999 V2000
  189.8070  177.6990  139.0530 C   0  0  0  0  0  2  0  0  0  0  0  0
  190.4860  177.5280  143.4390 C   0  0  0  0  0  0  0  0  0  0  0  0
  186.3880  177.7630  142.2100 C   0  0  1  0  0  3  0  0  0  0  0  0
  189.8640  177.1580  137.6090 C   0  0  2  0  0  3  0  0  0  0  0  0
  185.7630  177.4330  138.9640 O   0  0  0  0  0  0  0  0  0  0  0  0
  188.0620  177.4570  144.0280 C   0  0  0  0  0  0  0  0  0  0  0  0
  186.6370  178.6740  141.0000 C   0  0  2  0  0  3  0  0  0  0  0  0
  188.8250  176.0230  137.3490 C   0  0  1  0  0  3  0  0  0  0  0  0
  187.7620  177.5830  142.7390 C   0  0  0  0  0  0  0  0  0  0  0  0
  185.5890  178.5340  139.8470 C   0  0  2  0  0  3  0  0  0  0  0  0
  186.9540  177.4240  145.0060 C   0  0  0  0  0  3  0  0  0  0  0  0
  188.7330  178.0270  141.7930 C   0  0  0  0  0  0  0  0  0  0  0  0
  190.9990  176.1190  143.2090 C   0  0  0  0  0  1  0  0  0  0  0  0
  184.0660  178.5170  142.8630 C   0  0  0  0  0  2  0  0  0  0  0  0
  185.7360  177.8630  144.6340 C   0  0  0  0  0  3  0  0  0  0  0  0
  190.0280  178.1060  142.1100 C   0  0  0  0  0  3  0  0  0  0  0  0
  187.3590  176.4850  137.3410 C   0  0  0  0  0  2  0  0  0  0  0  0
  187.0990  177.3720  138.5320 C   0  0  1  0  0  3  0  0  0  0  0  0
  185.5350  178.4810  143.2640 C   0  0  1  0  0  3  0  0  0  0  0  0
  188.0850  178.6030  140.6630 N   0  0  0  0  0  0  0  0  0  0  0  0
  189.4140  177.4870  144.4090 O   0  0  0  0  0  0  0  0  0  0  0  0
  184.1270  178.5380  140.3430 C   0  0  1  0  0  3  0  0  0  0  0  0
  191.6180  178.3730  143.9830 C   0  0  0  0  0  1  0  0  0  0  0  0
  187.6730  178.6380  138.3280 O   0  0  0  0  0  0  0  0  0  0  0  0
  189.0840  175.3140  136.0290 C   0  0  0  0  0  1  0  0  0  0  0  0
  188.6730  178.7270  139.3080 C   0  0  2  0  0  3  0  0  0  0  0  0
  183.8600  179.3630  141.6070 C   0  0  0  0  0  2  0  0  0  0  0  0
  182.7850  178.0240  138.2660 C   0  0  0  0  0  3  0  0  0  0  0  0
  183.1940  178.9430  139.2460 C   0  0  0  0  0  0  0  0  0  0  0  0
  182.7180  180.2580  139.2030 C   0  0  0  0  0  3  0  0  0  0  0  0
  181.3380  182.0530  138.1490 C   0  0  0  0  0  1  0  0  0  0  0  0
  181.4360  179.7380  137.2150 C   0  0  0  0  0  3  0  0  0  0  0  0
  181.8420  180.6560  138.1900 C   0  0  0  0  0  0  0  0  0  0  0  0
  181.9080  178.4230  137.2530 C   0  0  0  0  0  3  0  0  0  0  0  0
  191.3050  176.7400  137.2790 C   0  0  0  0  0  2  0  0  0  0  0  0
  192.4550  174.5380  137.5800 C   0  0  0  0  0  1  0  0  0  0  0  0
  191.8960  175.7570  138.2870 C   0  0  0  0  0  2  0  0  0  0  0  0
  2 23  1  0  0  0  0
  2 21  1  0  0  0  0
  3  9  1  1  0  0  0
  3 19  1  0  0  0  0
  4 35  1  1  0  0  0
  4  1  1  0  0  0  0
  6 21  1  0  0  0  0
  6 11  1  0  0  0  0
  7 20  1  6  0  0  0
  7  3  1  0  0  0  0
  8 25  1  6  0  0  0
  8  4  1  0  0  0  0
  9  6  2  0  0  0  0
 10  5  1  1  0  0  0
 10 22  1  0  0  0  0
 10  7  1  0  0  0  0
 12 16  2  0  0  0  0
 12  9  1  0  0  0  0
 13  2  1  0  0  0  0
 15 11  2  0  0  0  0
 16  2  1  0  0  0  0
 17  8  1  0  0  0  0
 18 17  1  6  0  0  0
 18  5  1  0  0  0  0
 19 14  1  6  0  0  0
 19 15  1  0  0  0  0
 20 12  1  0  0  0  0
 22 29  1  6  0  0  0
 22 27  1  0  0  0  0
 24 18  1  0  0  0  0
 24 26  1  0  0  0  0
 26  1  1  6  0  0  0
 26 20  1  0  0  0  0
 27 14  1  0  0  0  0
 28 29  1  0  0  0  0
 30 29  2  0  0  0  0
 31 33  1  0  0  0  0
 32 34  1  0  0  0  0
 32 33  2  0  0  0  0
 33 30  1  0  0  0  0
 34 28  2  0  0  0  0
 35 37  1  0  0  0  0
 36 37  1  0  0  0  0
M  END
>  <MODEL>
1

>  <REMARK>
 VINA RESULT:      -9.1      0.000      0.000
  Name = 
  3 active torsions:
  status: ('A' for Active; 'I' for Inactive)
    1  A    between atoms: C_5  and  C_17
    2  A    between atoms: C_6  and  C_31
    3  A    between atoms: C_17  and  C_23
                            x       y       z     vdW  Elec       q    Type
                         _______ _______ _______ _____ _____    ______ ____

>  <TORSDO>
F 3

$$$$
=
 OpenBabel10262422493D

 37 43  0  0  1  0  0  0  0  0999 V2000
  189.4540  177.7900  139.2100 C   0  0  0  0  0  2  0  0  0  0  0  0
  190.5080  177.4730  143.5130 C   0  0  0  0  0  0  0  0  0  0  0  0
  186.3190  177.7520  142.6510 C   0  0  1  0  0  3  0  0  0  0  0  0
  189.3840  177.2970  137.7490 C   0  0  2  0  0  3  0  0  0  0  0  0
  185.4160  177.5300  139.4620 O   0  0  0  0  0  0  0  0  0  0  0  0
  188.1430  177.3850  144.3060 C   0  0  0  0  0  0  0  0  0  0  0  0
  186.4660  178.7030  141.4540 C   0  0  2  0  0  3  0  0  0  0  0  0
  188.3220  176.1720  137.5430 C   0  0  1  0  0  3  0  0  0  0  0  0
  187.7330  177.5540  143.0530 C   0  0  0  0  0  0  0  0  0  0  0  0
  185.3220  178.6010  140.3920 C   0  0  2  0  0  3  0  0  0  0  0  0
  187.1230  177.3200  145.3750 C   0  0  0  0  0  3  0  0  0  0  0  0
  188.6210  178.0280  142.0420 C   0  0  0  0  0  0  0  0  0  0  0  0
  190.9930  176.0730  143.1930 C   0  0  0  0  0  1  0  0  0  0  0  0
  184.0660  178.4850  143.5270 C   0  0  0  0  0  2  0  0  0  0  0  0
  185.8790  177.7720  145.1240 C   0  0  0  0  0  3  0  0  0  0  0  0
  189.9390  178.0950  142.2480 C   0  0  0  0  0  3  0  0  0  0  0  0
  186.8620  176.6350  137.6770 C   0  0  0  0  0  2  0  0  0  0  0  0
  186.7090  177.4830  138.9140 C   0  0  1  0  0  3  0  0  0  0  0  0
  185.5630  178.4350  143.7980 C   0  0  1  0  0  3  0  0  0  0  0  0
  187.8790  178.6410  140.9910 N   0  0  0  0  0  0  0  0  0  0  0  0
  189.5230  177.4010  144.5700 O   0  0  0  0  0  0  0  0  0  0  0  0
  183.9090  178.5900  141.0130 C   0  0  1  0  0  3  0  0  0  0  0  0
  191.6850  178.2990  143.9840 C   0  0  0  0  0  1  0  0  0  0  0  0
  187.2680  178.7540  138.7030 O   0  0  0  0  0  0  0  0  0  0  0  0
  188.4640  175.5070  136.1830 C   0  0  0  0  0  1  0  0  0  0  0  0
  188.3490  178.8100  139.5960 C   0  0  2  0  0  3  0  0  0  0  0  0
  183.7550  179.3730  142.3210 C   0  0  0  0  0  2  0  0  0  0  0  0
  183.1510  180.0870  139.1250 C   0  0  0  0  0  3  0  0  0  0  0  0
  182.8870  179.0320  140.0140 C   0  0  0  0  0  0  0  0  0  0  0  0
  181.6520  178.3770  139.9630 C   0  0  0  0  0  3  0  0  0  0  0  0
  179.3750  178.0720  138.9810 C   0  0  0  0  0  1  0  0  0  0  0  0
  180.9510  179.8220  138.1490 C   0  0  0  0  0  3  0  0  0  0  0  0
  180.6850  178.7710  139.0330 C   0  0  0  0  0  0  0  0  0  0  0  0
  182.1830  180.4790  138.1960 C   0  0  0  0  0  3  0  0  0  0  0  0
  190.7890  176.8890  137.2820 C   0  0  0  0  0  2  0  0  0  0  0  0
  193.0800  176.1920  138.0070 C   0  0  0  0  0  1  0  0  0  0  0  0
  191.6070  176.1880  138.3640 C   0  0  0  0  0  2  0  0  0  0  0  0
  2 23  1  0  0  0  0
  2 21  1  0  0  0  0
  3  9  1  1  0  0  0
  3 19  1  0  0  0  0
  4 35  1  1  0  0  0
  4  1  1  0  0  0  0
  6 21  1  0  0  0  0
  6 11  1  0  0  0  0
  7 20  1  6  0  0  0
  7  3  1  0  0  0  0
  8 25  1  6  0  0  0
  8 17  1  0  0  0  0
  8  4  1  0  0  0  0
  9  6  2  0  0  0  0
 10  5  1  1  0  0  0
 10 22  1  0  0  0  0
 10  7  1  0  0  0  0
 12 16  2  0  0  0  0
 12  9  1  0  0  0  0
 13  2  1  0  0  0  0
 15 11  2  0  0  0  0
 16  2  1  0  0  0  0
 18 17  1  6  0  0  0
 18  5  1  0  0  0  0
 19 14  1  6  0  0  0
 19 15  1  0  0  0  0
 20 12  1  0  0  0  0
 22 29  1  6  0  0  0
 22 27  1  0  0  0  0
 24 18  1  0  0  0  0
 24 26  1  0  0  0  0
 26  1  1  6  0  0  0
 26 20  1  0  0  0  0
 27 14  1  0  0  0  0
 28 29  1  0  0  0  0
 30 29  2  0  0  0  0
 31 33  1  0  0  0  0
 32 34  1  0  0  0  0
 32 33  2  0  0  0  0
 33 30  1  0  0  0  0
 34 28  2  0  0  0  0
 35 37  1  0  0  0  0
 36 37  1  0  0  0  0
M  END
>  <MODEL>
2

>  <REMARK>
 VINA RESULT:      -8.8      0.873      1.203
  Name = 
  3 active torsions:
  status: ('A' for Active; 'I' for Inactive)
    1  A    between atoms: C_5  and  C_17
    2  A    between atoms: C_6  and  C_31
    3  A    between atoms: C_17  and  C_23
                            x       y       z     vdW  Elec       q    Type
                         _______ _______ _______ _____ _____    ______ ____

>  <TORSDO>
F 3

$$$$
=
 OpenBabel10262422493D

 37 43  0  0  1  0  0  0  0  0999 V2000
  186.8430  178.2570  139.1000 C   0  0  0  0  0  2  0  0  0  0  0  0
  189.8570  177.6200  142.3000 C   0  0  0  0  0  0  0  0  0  0  0  0
  185.7770  177.7690  143.6040 C   0  0  1  0  0  3  0  0  0  0  0  0
  186.0720  177.8900  137.8140 C   0  0  2  0  0  3  0  0  0  0  0  0
  183.4380  177.7810  141.2460 O   0  0  0  0  0  0  0  0  0  0  0  0
  188.1760  177.3480  144.1250 C   0  0  0  0  0  0  0  0  0  0  0  0
  185.3240  178.8260  142.5870 C   0  0  2  0  0  3  0  0  0  0  0  0
  185.0440  176.7360  138.0370 C   0  0  1  0  0  3  0  0  0  0  0  0
  187.2090  177.6050  143.2500 C   0  0  0  0  0  0  0  0  0  0  0  0
  183.8080  178.7610  142.2070 C   0  0  2  0  0  3  0  0  0  0  0  0
  187.8050  177.1420  145.5410 C   0  0  0  0  0  3  0  0  0  0  0  0
  187.4920  178.2080  141.9880 C   0  0  0  0  0  0  0  0  0  0  0  0
  190.1260  176.2770  141.6470 C   0  0  0  0  0  1  0  0  0  0  0  0
  184.2340  178.3130  145.5290 C   0  0  0  0  0  2  0  0  0  0  0  0
  186.5960  177.5530  145.9700 C   0  0  0  0  0  3  0  0  0  0  0  0
  188.7440  178.3210  141.5370 C   0  0  0  0  0  3  0  0  0  0  0  0
  183.8330  177.1150  138.9050 C   0  0  0  0  0  2  0  0  0  0  0  0
  184.3010  177.8440  140.1400 C   0  0  1  0  0  3  0  0  0  0  0  0
  185.6740  178.3130  145.0350 C   0  0  1  0  0  3  0  0  0  0  0  0
  186.3340  178.8730  141.4950 N   0  0  0  0  0  0  0  0  0  0  0  0
  189.5100  177.4080  143.6880 O   0  0  0  0  0  0  0  0  0  0  0  0
  182.8740  178.6280  143.4290 C   0  0  1  0  0  3  0  0  0  0  0  0
  191.1150  178.4570  142.2220 C   0  0  0  0  0  1  0  0  0  0  0  0
  184.6870  179.1540  139.8120 O   0  0  0  0  0  0  0  0  0  0  0  0
  184.5070  176.1990  136.7200 C   0  0  0  0  0  1  0  0  0  0  0  0
  186.0660  179.1840  140.0710 C   0  0  2  0  0  3  0  0  0  0  0  0
  183.3760  179.2860  144.7190 C   0  0  0  0  0  2  0  0  0  0  0  0
  180.4370  178.9450  144.0080 C   0  0  0  0  0  3  0  0  0  0  0  0
  181.4960  179.1050  143.0990 C   0  0  0  0  0  0  0  0  0  0  0  0
  181.2630  179.7270  141.8690 C   0  0  0  0  0  3  0  0  0  0  0  0
  179.7410  180.8470  140.2350 C   0  0  0  0  0  1  0  0  0  0  0  0
  178.9310  180.0250  142.4500 C   0  0  0  0  0  3  0  0  0  0  0  0
  179.9830  180.1860  141.5430 C   0  0  0  0  0  0  0  0  0  0  0  0
  179.1570  179.4040  143.6810 C   0  0  0  0  0  3  0  0  0  0  0  0
  187.0730  177.5920  136.6880 C   0  0  0  0  0  2  0  0  0  0  0  0
  188.6590  175.6690  136.9040 C   0  0  0  0  0  1  0  0  0  0  0  0
  188.4400  177.1400  137.1960 C   0  0  0  0  0  2  0  0  0  0  0  0
  2 21  1  0  0  0  0
  3  9  1  6  0  0  0
  3 19  1  0  0  0  0
  4 35  1  6  0  0  0
  4  8  1  0  0  0  0
  4  1  1  0  0  0  0
  6 11  1  0  0  0  0
  7 20  1  6  0  0  0
  7  3  1  0  0  0  0
  8 25  1  6  0  0  0
  8 17  1  0  0  0  0
  9  6  2  0  0  0  0
 10  5  1  6  0  0  0
 10  7  1  0  0  0  0
 10 22  1  0  0  0  0
 11 15  2  0  0  0  0
 12  9  1  0  0  0  0
 13  2  1  0  0  0  0
 16 12  2  0  0  0  0
 16  2  1  0  0  0  0
 18 17  1  6  0  0  0
 18  5  1  0  0  0  0
 19 14  1  1  0  0  0
 19 15  1  0  0  0  0
 20 12  1  0  0  0  0
 21  6  1  0  0  0  0
 22 29  1  6  0  0  0
 22 27  1  0  0  0  0
 23  2  1  0  0  0  0
 24 26  1  0  0  0  0
 24 18  1  0  0  0  0
 26  1  1  6  0  0  0
 26 20  1  0  0  0  0
 27 14  1  0  0  0  0
 29 28  2  0  0  0  0
 30 29  1  0  0  0  0
 31 33  1  0  0  0  0
 32 34  2  0  0  0  0
 33 30  2  0  0  0  0
 33 32  1  0  0  0  0
 34 28  1  0  0  0  0
 35 37  1  0  0  0  0
 36 37  1  0  0  0  0
M  END
>  <MODEL>
3

>  <REMARK>
 VINA RESULT:      -8.7      2.109      3.321
  Name = 
  3 active torsions:
  status: ('A' for Active; 'I' for Inactive)
    1  A    between atoms: C_5  and  C_17
    2  A    between atoms: C_6  and  C_31
    3  A    between atoms: C_17  and  C_23
                            x       y       z     vdW  Elec       q    Type
                         _______ _______ _______ _____ _____    ______ ____

>  <TORSDO>
F 3

$$$$
=
 OpenBabel10262422493D

 37 43  0  0  1  0  0  0  0  0999 V2000
  184.4850  178.7980  138.7830 C   0  0  0  0  0  2  0  0  0  0  0  0
  188.1610  177.7250  136.5340 C   0  0  0  0  0  0  0  0  0  0  0  0
  188.3490  177.1330  140.7750 C   0  0  1  0  0  3  0  0  0  0  0  0
  182.9950  178.6730  139.1650 C   0  0  2  0  0  3  0  0  0  0  0  0
  185.5140  177.4700  142.4730 O   0  0  0  0  0  0  0  0  0  0  0  0
  189.3830  176.8500  138.5270 C   0  0  0  0  0  0  0  0  0  0  0  0
  187.4890  178.3510  141.1430 C   0  0  2  0  0  3  0  0  0  0  0  0
  182.6960  177.4000  140.0180 C   0  0  1  0  0  3  0  0  0  0  0  0
  188.3580  177.2080  139.2930 C   0  0  0  0  0  0  0  0  0  0  0  0
  186.7190  178.2230  142.4990 C   0  0  2  0  0  3  0  0  0  0  0  0
  190.5770  176.2720  139.1800 C   0  0  0  0  0  3  0  0  0  0  0  0
  187.3680  178.1230  138.8250 C   0  0  0  0  0  0  0  0  0  0  0  0
  187.3400  176.6140  135.9090 C   0  0  0  0  0  1  0  0  0  0  0  0
  189.8690  177.0360  142.7900 C   0  0  0  0  0  2  0  0  0  0  0  0
  190.7480  176.4400  140.5050 C   0  0  0  0  0  3  0  0  0  0  0  0
  187.2950  178.4700  137.5370 C   0  0  0  0  0  3  0  0  0  0  0  0
  183.2740  177.4310  141.4420 C   0  0  0  0  0  2  0  0  0  0  0  0
  184.7110  177.8860  141.3970 C   0  0  1  0  0  3  0  0  0  0  0  0
  189.7830  177.3030  141.2940 C   0  0  1  0  0  3  0  0  0  0  0  0
  186.7350  178.7630  139.9280 N   0  0  0  0  0  0  0  0  0  0  0  0
  189.3350  177.1510  137.1550 O   0  0  0  0  0  0  0  0  0  0  0  0
  187.5980  177.7040  143.6570 C   0  0  1  0  0  3  0  0  0  0  0  0
  188.5920  178.6820  135.4440 C   0  0  0  0  0  1  0  0  0  0  0  0
  184.7740  179.2690  141.1620 O   0  0  0  0  0  0  0  0  0  0  0  0
  181.2020  177.1420  140.1400 C   0  0  0  0  0  1  0  0  0  0  0  0
  185.3870  179.3790  139.9040 C   0  0  2  0  0  3  0  0  0  0  0  0
  189.0810  178.0810  143.5810 C   0  0  0  0  0  2  0  0  0  0  0  0
  185.7530  178.6940  145.0690 C   0  0  0  0  0  3  0  0  0  0  0  0
  187.0230  178.1010  144.9790 C   0  0  0  0  0  0  0  0  0  0  0  0
  187.7610  177.8690  146.1440 C   0  0  0  0  0  3  0  0  0  0  0  0
  188.0280  177.9790  148.6250 C   0  0  0  0  0  1  0  0  0  0  0  0
  185.9750  178.8180  147.4760 C   0  0  0  0  0  3  0  0  0  0  0  0
  187.2400  178.2270  147.3910 C   0  0  0  0  0  0  0  0  0  0  0  0
  185.2320  179.0520  146.3160 C   0  0  0  0  0  3  0  0  0  0  0  0
  182.1350  178.7590  137.8960 C   0  0  0  0  0  2  0  0  0  0  0  0
  181.1390  180.7350  139.0650 C   0  0  0  0  0  1  0  0  0  0  0  0
  181.4520  180.1130  137.7180 C   0  0  0  0  0  2  0  0  0  0  0  0
  1  4  1  0  0  0  0
  2 21  1  0  0  0  0
  2 16  1  0  0  0  0
  3  9  1  6  0  0  0
  3  7  1  0  0  0  0
  3 19  1  0  0  0  0
  4 35  1  6  0  0  0
  4  8  1  0  0  0  0
  6 11  1  0  0  0  0
  6  9  2  0  0  0  0
  7 20  1  6  0  0  0
  7 10  1  0  0  0  0
  8 25  1  1  0  0  0
  8 17  1  0  0  0  0
 10  5  1  6  0  0  0
 10 22  1  0  0  0  0
 11 15  2  0  0  0  0
 12  9  1  0  0  0  0
 12 20  1  0  0  0  0
 13  2  1  0  0  0  0
 14 27  1  0  0  0  0
 16 12  2  0  0  0  0
 18 17  1  1  0  0  0
 18  5  1  0  0  0  0
 19 15  1  6  0  0  0
 19 14  1  0  0  0  0
 21  6  1  0  0  0  0
 22 29  1  1  0  0  0
 23  2  1  0  0  0  0
 24 18  1  0  0  0  0
 26  1  1  6  0  0  0
 26 20  1  0  0  0  0
 26 24  1  0  0  0  0
 27 22  1  0  0  0  0
 28 34  1  0  0  0  0
 29 28  2  0  0  0  0
 29 30  1  0  0  0  0
 30 33  2  0  0  0  0
 33 32  1  0  0  0  0
 33 31  1  0  0  0  0
 34 32  2  0  0  0  0
 37 35  1  0  0  0  0
 37 36  1  0  0  0  0
M  END
>  <MODEL>
4

>  <REMARK>
 VINA RESULT:      -7.9      1.824      7.250
  Name = 
  3 active torsions:
  status: ('A' for Active; 'I' for Inactive)
    1  A    between atoms: C_5  and  C_17
    2  A    between atoms: C_6  and  C_31
    3  A    between atoms: C_17  and  C_23
                            x       y       z     vdW  Elec       q    Type
                         _______ _______ _______ _____ _____    ______ ____

>  <TORSDO>
F 3

$$$$
=
 OpenBabel10262422493D

 37 43  0  0  1  0  0  0  0  0999 V2000
  188.9680  176.6800  141.2700 C   0  0  0  0  0  2  0  0  0  0  0  0
  184.8870  178.2880  141.9680 C   0  0  0  0  0  0  0  0  0  0  0  0
  187.5070  178.3590  145.3580 C   0  0  1  0  0  3  0  0  0  0  0  0
  190.3630  176.6480  140.6100 C   0  0  2  0  0  3  0  0  0  0  0  0
  190.6970  177.6090  144.8170 O   0  0  0  0  0  0  0  0  0  0  0  0
  185.3350  178.9940  144.3190 C   0  0  0  0  0  0  0  0  0  0  0  0
  188.2310  177.0460  145.0270 C   0  0  2  0  0  3  0  0  0  0  0  0
  191.3020  177.7800  141.1320 C   0  0  1  0  0  3  0  0  0  0  0  0
  186.5530  178.4700  144.2280 C   0  0  0  0  0  0  0  0  0  0  0  0
  189.6930  176.9480  145.5740 C   0  0  2  0  0  3  0  0  0  0  0  0
  184.9150  179.5710  145.6140 C   0  0  0  0  0  3  0  0  0  0  0  0
  186.8870  177.5520  143.1880 C   0  0  0  0  0  0  0  0  0  0  0  0
  185.2680  179.4060  141.0160 C   0  0  0  0  0  1  0  0  0  0  0  0
  187.6360  178.3140  147.8810 C   0  0  0  0  0  2  0  0  0  0  0  0
  185.6000  179.2520  146.7290 C   0  0  0  0  0  3  0  0  0  0  0  0
  186.0810  177.3630  142.1400 C   0  0  0  0  0  3  0  0  0  0  0  0
  191.7580  177.6140  142.5910 C   0  0  0  0  0  2  0  0  0  0  0  0
  190.5730  177.2740  143.4580 C   0  0  1  0  0  3  0  0  0  0  0  0
  186.7190  178.2300  146.6680 C   0  0  1  0  0  3  0  0  0  0  0  0
  187.9810  176.7340  143.5930 N   0  0  0  0  0  0  0  0  0  0  0  0
  184.4630  178.8630  143.2250 O   0  0  0  0  0  0  0  0  0  0  0  0
  189.8260  177.3810  147.0500 C   0  0  1  0  0  3  0  0  0  0  0  0
  183.7400  177.5070  141.3640 C   0  0  0  0  0  1  0  0  0  0  0  0
  190.1890  175.9390  143.2510 O   0  0  0  0  0  0  0  0  0  0  0  0
  192.5540  177.9120  140.2780 C   0  0  0  0  0  1  0  0  0  0  0  0
  188.9110  176.0310  142.6780 C   0  0  2  0  0  3  0  0  0  0  0  0
  188.5960  177.1250  147.9270 C   0  0  0  0  0  2  0  0  0  0  0  0
  191.5340  175.5320  147.2550 C   0  0  0  0  0  3  0  0  0  0  0  0
  191.0470  176.7820  147.6720 C   0  0  0  0  0  0  0  0  0  0  0  0
  191.7180  177.4840  148.6790 C   0  0  0  0  0  3  0  0  0  0  0  0
  193.5730  177.6950  150.3370 C   0  0  0  0  0  1  0  0  0  0  0  0
  193.3460  175.7000  148.8520 C   0  0  0  0  0  3  0  0  0  0  0  0
  192.8640  176.9450  149.2690 C   0  0  0  0  0  0  0  0  0  0  0  0
  192.6810  174.9940  147.8460 C   0  0  0  0  0  3  0  0  0  0  0  0
  190.2030  176.6580  139.0830 C   0  0  0  0  0  2  0  0  0  0  0  0
  189.0470  178.6630  138.1310 C   0  0  0  0  0  1  0  0  0  0  0  0
  188.8700  177.2380  138.6160 C   0  0  0  0  0  2  0  0  0  0  0  0
  2 16  1  0  0  0  0
  2 21  1  0  0  0  0
  3  9  1  6  0  0  0
  3 19  1  0  0  0  0
  4 35  1  6  0  0  0
  4  8  1  0  0  0  0
  4  1  1  0  0  0  0
  6 11  1  0  0  0  0
  7 20  1  6  0  0  0
  7  3  1  0  0  0  0
  7 10  1  0  0  0  0
  8 25  1  6  0  0  0
  8 17  1  0  0  0  0
  9  6  2  0  0  0  0
 10  5  1  6  0  0  0
 10 22  1  0  0  0  0
 11 15  2  0  0  0  0
 12 20  1  0  0  0  0
 12  9  1  0  0  0  0
 13  2  1  0  0  0  0
 14 27  1  0  0  0  0
 16 12  2  0  0  0  0
 18 17  1  6  0  0  0
 18  5  1  0  0  0  0
 19 15  1  1  0  0  0
 19 14  1  0  0  0  0
 21  6  1  0  0  0  0
 22 29  1  1  0  0  0
 22 27  1  0  0  0  0
 23  2  1  0  0  0  0
 24 18  1  0  0  0  0
 26  1  1  6  0  0  0
 26 24  1  0  0  0  0
 26 20  1  0  0  0  0
 28 29  2  0  0  0  0
 28 34  1  0  0  0  0
 29 30  1  0  0  0  0
 30 33  2  0  0  0  0
 32 33  1  0  0  0  0
 33 31  1  0  0  0  0
 34 32  2  0  0  0  0
 36 37  1  0  0  0  0
 37 35  1  0  0  0  0
M  END
>  <MODEL>
5

>  <REMARK>
 VINA RESULT:      -7.9      2.964      8.113
  Name = 
  3 active torsions:
  status: ('A' for Active; 'I' for Inactive)
    1  A    between atoms: C_5  and  C_17
    2  A    between atoms: C_6  and  C_31
    3  A    between atoms: C_17  and  C_23
                            x       y       z     vdW  Elec       q    Type
                         _______ _______ _______ _____ _____    ______ ____

>  <TORSDO>
F 3

$$$$
=
 OpenBabel10262422493D

 37 43  0  0  1  0  0  0  0  0999 V2000
  187.5820  177.4700  145.8820 C   0  0  0  0  0  2  0  0  0  0  0  0
  190.9640  176.9560  143.0500 C   0  0  0  0  0  0  0  0  0  0  0  0
  187.3390  178.4750  141.3440 C   0  0  1  0  0  3  0  0  0  0  0  0
  186.8670  178.0750  147.1100 C   0  0  2  0  0  3  0  0  0  0  0  0
  184.9160  179.3210  143.4530 O   0  0  0  0  0  0  0  0  0  0  0  0
  189.7540  177.9260  141.0950 C   0  0  0  0  0  0  0  0  0  0  0  0
  186.3900  177.6550  142.2300 C   0  0  2  0  0  3  0  0  0  0  0  0
  186.4060  179.5470  146.8740 C   0  0  1  0  0  3  0  0  0  0  0  0
  188.6670  178.0480  141.8480 C   0  0  0  0  0  0  0  0  0  0  0  0
  184.9860  178.3040  142.4630 C   0  0  2  0  0  3  0  0  0  0  0  0
  189.6660  178.3050  139.6680 C   0  0  0  0  0  3  0  0  0  0  0  0
  188.5390  177.3450  143.0830 C   0  0  0  0  0  0  0  0  0  0  0  0
  191.6560  178.0620  143.8240 C   0  0  0  0  0  1  0  0  0  0  0  0
  185.9470  178.6450  139.2420 C   0  0  0  0  0  2  0  0  0  0  0  0
  188.4530  178.4200  139.0930 C   0  0  0  0  0  3  0  0  0  0  0  0
  189.5840  176.7310  143.6460 C   0  0  0  0  0  3  0  0  0  0  0  0
  185.2570  179.7060  145.8650 C   0  0  0  0  0  2  0  0  0  0  0  0
  185.5470  178.8890  144.6320 C   0  0  1  0  0  3  0  0  0  0  0  0
  187.2030  178.0600  139.8730 C   0  0  1  0  0  3  0  0  0  0  0  0
  187.1630  177.1790  143.4100 N   0  0  0  0  0  0  0  0  0  0  0  0
  190.8970  177.3290  141.6540 O   0  0  0  0  0  0  0  0  0  0  0  0
  184.3320  178.8330  141.1680 C   0  0  1  0  0  3  0  0  0  0  0  0
  191.7760  175.6860  143.1890 C   0  0  0  0  0  1  0  0  0  0  0  0
  185.3480  177.5240  144.8970 O   0  0  0  0  0  0  0  0  0  0  0  0
  185.9680  180.2140  148.1690 C   0  0  0  0  0  1  0  0  0  0  0  0
  186.6260  176.9570  144.7730 C   0  0  2  0  0  3  0  0  0  0  0  0
  184.6880  178.0690  139.8890 C   0  0  0  0  0  2  0  0  0  0  0  0
  182.0210  179.2200  140.2270 C   0  0  0  0  0  3  0  0  0  0  0  0
  182.8480  178.9320  141.3250 C   0  0  0  0  0  0  0  0  0  0  0  0
  182.2770  178.7260  142.5850 C   0  0  0  0  0  3  0  0  0  0  0  0
  180.2900  178.5890  144.0930 C   0  0  0  0  0  1  0  0  0  0  0  0
  180.0710  179.0950  141.6570 C   0  0  0  0  0  3  0  0  0  0  0  0
  180.8920  178.8080  142.7520 C   0  0  0  0  0  0  0  0  0  0  0  0
  180.6360  179.3010  140.3950 C   0  0  0  0  0  3  0  0  0  0  0  0
  187.7620  177.9180  148.3480 C   0  0  0  0  0  2  0  0  0  0  0  0
  190.0510  177.1490  147.6890 C   0  0  0  0  0  1  0  0  0  0  0  0
  189.2100  178.3390  148.1070 C   0  0  0  0  0  2  0  0  0  0  0  0
  1  4  1  0  0  0  0
  2 23  1  0  0  0  0
  2 16  1  0  0  0  0
  2 13  1  0  0  0  0
  3  9  1  1  0  0  0
  3  7  1  0  0  0  0
  4 35  1  1  0  0  0
  5 18  1  0  0  0  0
  6 21  1  0  0  0  0
  6  9  2  0  0  0  0
  7 10  1  0  0  0  0
  7 20  1  1  0  0  0
  8  4  1  0  0  0  0
  8 25  1  1  0  0  0
  9 12  1  0  0  0  0
 10  5  1  1  0  0  0
 11  6  1  0  0  0  0
 12 20  1  0  0  0  0
 12 16  2  0  0  0  0
 14 19  1  0  0  0  0
 14 27  1  0  0  0  0
 15 11  2  0  0  0  0
 17  8  1  0  0  0  0
 18 24  1  0  0  0  0
 18 17  1  1  0  0  0
 19 15  1  6  0  0  0
 19  3  1  0  0  0  0
 20 26  1  0  0  0  0
 21  2  1  0  0  0  0
 22 29  1  1  0  0  0
 22 10  1  0  0  0  0
 26 24  1  0  0  0  0
 26  1  1  1  0  0  0
 27 22  1  0  0  0  0
 28 34  2  0  0  0  0
 28 29  1  0  0  0  0
 29 30  2  0  0  0  0
 30 33  1  0  0  0  0
 32 33  2  0  0  0  0
 33 31  1  0  0  0  0
 34 32  1  0  0  0  0
 36 37  1  0  0  0  0
 37 35  1  0  0  0  0
M  END
>  <MODEL>
6

>  <REMARK>
 VINA RESULT:      -7.9      2.457      6.050
  Name = 
  3 active torsions:
  status: ('A' for Active; 'I' for Inactive)
    1  A    between atoms: C_5  and  C_17
    2  A    between atoms: C_6  and  C_31
    3  A    between atoms: C_17  and  C_23
                            x       y       z     vdW  Elec       q    Type
                         _______ _______ _______ _____ _____    ______ ____

>  <TORSDO>
F 3

$$$$
=
 OpenBabel10262422493D

 37 43  0  0  1  0  0  0  0  0999 V2000
  185.5340  179.0240  142.4040 C   0  0  0  0  0  2  0  0  0  0  0  0
  182.5230  178.9070  139.1410 C   0  0  0  0  0  0  0  0  0  0  0  0
  186.3580  177.2550  138.1780 C   0  0  1  0  0  3  0  0  0  0  0  0
  186.1000  178.6700  143.7950 C   0  0  2  0  0  3  0  0  0  0  0  0
  188.5130  176.8820  140.6780 O   0  0  0  0  0  0  0  0  0  0  0  0
  183.9830  177.6590  137.5470 C   0  0  0  0  0  0  0  0  0  0  0  0
  187.1750  178.2530  139.0120 C   0  0  2  0  0  3  0  0  0  0  0  0
  186.6120  177.1970  143.8820 C   0  0  1  0  0  3  0  0  0  0  0  0
  184.9700  177.7130  138.4350 C   0  0  0  0  0  0  0  0  0  0  0  0
  188.5500  177.7080  139.5220 C   0  0  2  0  0  3  0  0  0  0  0  0
  184.2560  177.0420  136.2320 C   0  0  0  0  0  3  0  0  0  0  0  0
  184.9320  178.6240  139.5330 C   0  0  0  0  0  0  0  0  0  0  0  0
  181.7590  177.9270  140.0100 C   0  0  0  0  0  1  0  0  0  0  0  0
  188.0030  176.7760  136.3210 C   0  0  0  0  0  2  0  0  0  0  0  0
  185.5320  176.8760  135.8360 C   0  0  0  0  0  3  0  0  0  0  0  0
  183.8150  179.2850  139.8480 C   0  0  0  0  0  3  0  0  0  0  0  0
  187.8800  176.9100  143.0620 C   0  0  0  0  0  2  0  0  0  0  0  0
  187.7320  177.4890  141.6770 C   0  0  1  0  0  3  0  0  0  0  0  0
  186.6690  177.4130  136.6840 C   0  0  1  0  0  3  0  0  0  0  0  0
  186.2530  178.8970  139.9870 N   0  0  0  0  0  0  0  0  0  0  0  0
  182.7700  178.3010  137.8520 O   0  0  0  0  0  0  0  0  0  0  0  0
  189.3680  176.9880  138.4300 C   0  0  1  0  0  3  0  0  0  0  0  0
  181.6790  180.1500  138.9540 C   0  0  0  0  0  1  0  0  0  0  0  0
  187.8740  178.8850  141.7190 O   0  0  0  0  0  0  0  0  0  0  0  0
  186.8960  176.7830  145.3170 C   0  0  0  0  0  1  0  0  0  0  0  0
  186.6120  179.3730  141.3440 C   0  0  2  0  0  3  0  0  0  0  0  0
  189.1620  177.5040  137.0020 C   0  0  0  0  0  2  0  0  0  0  0  0
  191.2850  177.5270  139.9840 C   0  0  0  0  0  3  0  0  0  0  0  0
  190.8230  176.9750  138.7780 C   0  0  0  0  0  0  0  0  0  0  0  0
  191.7340  176.3950  137.8890 C   0  0  0  0  0  3  0  0  0  0  0  0
  194.0610  175.7490  137.2510 C   0  0  0  0  0  1  0  0  0  0  0  0
  193.5540  176.9180  139.3990 C   0  0  0  0  0  3  0  0  0  0  0  0
  193.0970  176.3670  138.1980 C   0  0  0  0  0  0  0  0  0  0  0  0
  192.6480  177.4980  140.2920 C   0  0  0  0  0  3  0  0  0  0  0  0
  185.0550  179.0050  144.8700 C   0  0  0  0  0  2  0  0  0  0  0  0
  182.6390  178.6280  144.3430 C   0  0  0  0  0  1  0  0  0  0  0  0
  183.7800  179.6240  144.3030 C   0  0  0  0  0  2  0  0  0  0  0  0
  1  4  1  0  0  0  0
  2 16  1  0  0  0  0
  2 13  1  0  0  0  0
  3  9  1  6  0  0  0
  3  7  1  0  0  0  0
  4  8  1  0  0  0  0
  4 35  1  1  0  0  0
  5 18  1  0  0  0  0
  6 21  1  0  0  0  0
  6  9  2  0  0  0  0
  7 10  1  0  0  0  0
  7 20  1  1  0  0  0
  8 25  1  1  0  0  0
  9 12  1  0  0  0  0
 10  5  1  1  0  0  0
 11  6  1  0  0  0  0
 12 16  2  0  0  0  0
 12 20  1  0  0  0  0
 14 19  1  0  0  0  0
 14 27  1  0  0  0  0
 15 11  2  0  0  0  0
 17  8  1  0  0  0  0
 18 24  1  0  0  0  0
 18 17  1  1  0  0  0
 19 15  1  6  0  0  0
 19  3  1  0  0  0  0
 20 26  1  0  0  0  0
 21  2  1  0  0  0  0
 22 29  1  1  0  0  0
 22 10  1  0  0  0  0
 23  2  1  0  0  0  0
 26 24  1  0  0  0  0
 26  1  1  1  0  0  0
 27 22  1  0  0  0  0
 28 34  1  0  0  0  0
 29 28  2  0  0  0  0
 30 33  2  0  0  0  0
 30 29  1  0  0  0  0
 31 33  1  0  0  0  0
 32 34  2  0  0  0  0
 33 32  1  0  0  0  0
 37 36  1  0  0  0  0
 37 35  1  0  0  0  0
M  END
>  <MODEL>
7

>  <REMARK>
 VINA RESULT:      -7.8      1.820      8.198
  Name = 
  3 active torsions:
  status: ('A' for Active; 'I' for Inactive)
    1  A    between atoms: C_5  and  C_17
    2  A    between atoms: C_6  and  C_31
    3  A    between atoms: C_17  and  C_23
                            x       y       z     vdW  Elec       q    Type
                         _______ _______ _______ _____ _____    ______ ____

>  <TORSDO>
F 3

$$$$
=
 OpenBabel10262422493D

 37 43  0  0  1  0  0  0  0  0999 V2000
  188.0610  177.7270  138.7610 C   0  0  0  0  0  2  0  0  0  0  0  0
  189.7680  177.5370  142.8570 C   0  0  0  0  0  0  0  0  0  0  0  0
  185.5000  177.8640  142.6450 C   0  0  1  0  0  3  0  0  0  0  0  0
  187.7580  177.1860  137.3470 C   0  0  2  0  0  3  0  0  0  0  0  0
  184.1090  177.5510  139.6450 O   0  0  0  0  0  0  0  0  0  0  0  0
  187.5540  177.5190  144.0100 C   0  0  0  0  0  0  0  0  0  0  0  0
  185.4720  178.7700  141.4060 C   0  0  2  0  0  3  0  0  0  0  0  0
  186.6630  176.0740  137.3500 C   0  0  1  0  0  3  0  0  0  0  0  0
  186.9570  177.6530  142.8300 C   0  0  0  0  0  0  0  0  0  0  0  0
  184.1750  178.6540  140.5390 C   0  0  2  0  0  3  0  0  0  0  0  0
  186.7120  177.5100  145.2250 C   0  0  0  0  0  3  0  0  0  0  0  0
  187.6820  178.0760  141.6770 C   0  0  0  0  0  0  0  0  0  0  0  0
  190.1790  176.1170  142.5170 C   0  0  0  0  0  1  0  0  0  0  0  0
  183.4200  178.6680  143.8320 C   0  0  0  0  0  2  0  0  0  0  0  0
  185.4510  177.9760  145.1540 C   0  0  0  0  0  3  0  0  0  0  0  0
  189.0170  178.1260  141.6730 C   0  0  0  0  0  3  0  0  0  0  0  0
  185.2480  176.5690  137.6910 C   0  0  0  0  0  2  0  0  0  0  0  0
  185.3000  177.4600  138.9060 C   0  0  1  0  0  3  0  0  0  0  0  0
  184.9410  178.6000  143.8700 C   0  0  1  0  0  3  0  0  0  0  0  0
  186.7940  178.6670  140.7320 N   0  0  0  0  0  0  0  0  0  0  0  0
  188.9590  177.5190  144.0560 O   0  0  0  0  0  0  0  0  0  0  0  0
  182.8750  178.6900  141.3710 C   0  0  1  0  0  3  0  0  0  0  0  0
  191.0150  178.3560  143.1090 C   0  0  0  0  0  1  0  0  0  0  0  0
  185.8360  178.7130  138.5640 O   0  0  0  0  0  0  0  0  0  0  0  0
  186.5820  175.3600  136.0090 C   0  0  0  0  0  1  0  0  0  0  0  0
  187.0430  178.7790  139.2760 C   0  0  2  0  0  3  0  0  0  0  0  0
  182.9370  179.5200  142.6580 C   0  0  0  0  0  2  0  0  0  0  0  0
  180.4170  178.6520  140.7910 C   0  0  0  0  0  3  0  0  0  0  0  0
  181.7160  179.1170  140.5280 C   0  0  0  0  0  0  0  0  0  0  0  0
  181.9310  180.0000  139.4650 C   0  0  0  0  0  3  0  0  0  0  0  0
  181.0940  181.3560  137.5410 C   0  0  0  0  0  1  0  0  0  0  0  0
  179.5690  179.9510  138.9330 C   0  0  0  0  0  3  0  0  0  0  0  0
  180.8610  180.4170  138.6680 C   0  0  0  0  0  0  0  0  0  0  0  0
  179.3480  179.0690  139.9940 C   0  0  0  0  0  3  0  0  0  0  0  0
  189.0680  176.7360  136.6830 C   0  0  0  0  0  2  0  0  0  0  0  0
  190.4430  176.7250  134.5940 C   0  0  0  0  0  1  0  0  0  0  0  0
  189.3500  177.4420  135.3600 C   0  0  0  0  0  2  0  0  0  0  0  0
  2 23  1  0  0  0  0
  2 21  1  0  0  0  0
  3  9  1  1  0  0  0
  3 19  1  0  0  0  0
  4 35  1  1  0  0  0
  4  8  1  0  0  0  0
  4  1  1  0  0  0  0
  6 21  1  0  0  0  0
  6 11  1  0  0  0  0
  7 20  1  6  0  0  0
  7  3  1  0  0  0  0
  8 25  1  6  0  0  0
  8 17  1  0  0  0  0
  9  6  2  0  0  0  0
 10  5  1  1  0  0  0
 10 22  1  0  0  0  0
 10  7  1  0  0  0  0
 12  9  1  0  0  0  0
 13  2  1  0  0  0  0
 15 11  2  0  0  0  0
 16 12  2  0  0  0  0
 16  2  1  0  0  0  0
 18 17  1  6  0  0  0
 18  5  1  0  0  0  0
 19 14  1  1  0  0  0
 19 15  1  0  0  0  0
 20 12  1  0  0  0  0
 22 29  1  6  0  0  0
 22 27  1  0  0  0  0
 24 18  1  0  0  0  0
 24 26  1  0  0  0  0
 26  1  1  6  0  0  0
 26 20  1  0  0  0  0
 27 14  1  0  0  0  0
 29 28  1  0  0  0  0
 30 29  2  0  0  0  0
 31 33  1  0  0  0  0
 32 34  1  0  0  0  0
 33 32  2  0  0  0  0
 33 30  1  0  0  0  0
 34 28  2  0  0  0  0
 36 37  1  0  0  0  0
 37 35  1  0  0  0  0
M  END
>  <MODEL>
8

>  <REMARK>
 VINA RESULT:      -7.8      1.544      1.929
  Name = 
  3 active torsions:
  status: ('A' for Active; 'I' for Inactive)
    1  A    between atoms: C_5  and  C_17
    2  A    between atoms: C_6  and  C_31
    3  A    between atoms: C_17  and  C_23
                            x       y       z     vdW  Elec       q    Type
                         _______ _______ _______ _____ _____    ______ ____

>  <TORSDO>
F 3

$$$$
=
 OpenBabel10262422493D

 37 43  0  0  1  0  0  0  0  0999 V2000
  187.6480  177.6030  146.0220 C   0  0  0  0  0  2  0  0  0  0  0  0
  190.7720  177.3240  142.8780 C   0  0  0  0  0  0  0  0  0  0  0  0
  186.9040  178.5860  141.5340 C   0  0  1  0  0  3  0  0  0  0  0  0
  187.0130  178.1570  147.3160 C   0  0  2  0  0  3  0  0  0  0  0  0
  184.6410  179.2630  143.8690 O   0  0  0  0  0  0  0  0  0  0  0  0
  189.3170  178.2060  141.0520 C   0  0  0  0  0  0  0  0  0  0  0  0
  186.1040  177.7030  142.5010 C   0  0  2  0  0  3  0  0  0  0  0  0
  186.4310  179.5940  147.1340 C   0  0  1  0  0  3  0  0  0  0  0  0
  188.3010  178.2520  141.9070 C   0  0  0  0  0  0  0  0  0  0  0  0
  184.6870  178.2530  142.8710 C   0  0  2  0  0  3  0  0  0  0  0  0
  189.0670  178.5770  139.6430 C   0  0  0  0  0  3  0  0  0  0  0  0
  188.3400  177.5430  143.1440 C   0  0  0  0  0  0  0  0  0  0  0  0
  191.4570  178.4750  143.5900 C   0  0  0  0  0  1  0  0  0  0  0  0
  185.3110  178.6580  139.5750 C   0  0  0  0  0  2  0  0  0  0  0  0
  187.8000  178.6070  139.1870 C   0  0  0  0  0  3  0  0  0  0  0  0
  189.4740  177.0040  143.6010 C   0  0  0  0  0  3  0  0  0  0  0  0
  185.1830  179.6710  146.2400 C   0  0  0  0  0  2  0  0  0  0  0  0
  185.4100  178.8760  144.9790 C   0  0  1  0  0  3  0  0  0  0  0  0
  186.6590  178.1620  140.0800 C   0  0  1  0  0  3  0  0  0  0  0  0
  187.0160  177.2820  143.5990 N   0  0  0  0  0  0  0  0  0  0  0  0
  190.5460  177.6900  141.4980 O   0  0  0  0  0  0  0  0  0  0  0  0
  183.8770  178.7340  141.6470 C   0  0  1  0  0  3  0  0  0  0  0  0
  191.6800  176.1130  142.9310 C   0  0  0  0  0  1  0  0  0  0  0  0
  185.3320  177.5010  145.2540 O   0  0  0  0  0  0  0  0  0  0  0  0
  186.0730  180.2290  148.4680 C   0  0  0  0  0  1  0  0  0  0  0  0
  186.6290  177.0240  145.0060 C   0  0  2  0  0  3  0  0  0  0  0  0
  184.1610  177.9960  140.3350 C   0  0  0  0  0  2  0  0  0  0  0  0
  181.9330  179.0030  143.2370 C   0  0  0  0  0  3  0  0  0  0  0  0
  182.4110  178.7300  141.9450 C   0  0  0  0  0  0  0  0  0  0  0  0
  181.5050  178.4580  140.9150 C   0  0  0  0  0  3  0  0  0  0  0  0
  179.1710  178.1650  140.0730 C   0  0  0  0  0  1  0  0  0  0  0  0
  179.6580  178.7260  142.4580 C   0  0  0  0  0  3  0  0  0  0  0  0
  180.1300  178.4550  141.1700 C   0  0  0  0  0  0  0  0  0  0  0  0
  180.5590  179.0000  143.4910 C   0  0  0  0  0  3  0  0  0  0  0  0
  188.0310  178.0630  148.4620 C   0  0  0  0  0  2  0  0  0  0  0  0
  190.1260  176.9150  147.7190 C   0  0  0  0  0  1  0  0  0  0  0  0
  189.4760  178.2530  148.0070 C   0  0  0  0  0  2  0  0  0  0  0  0
  1  4  1  0  0  0  0
  2 23  1  0  0  0  0
  2 13  1  0  0  0  0
  2 16  1  0  0  0  0
  3  9  1  1  0  0  0
  3  7  1  0  0  0  0
  4 35  1  1  0  0  0
  5 18  1  0  0  0  0
  6 21  1  0  0  0  0
  6  9  2  0  0  0  0
  7 10  1  0  0  0  0
  7 20  1  1  0  0  0
  8  4  1  0  0  0  0
  8 25  1  1  0  0  0
  9 12  1  0  0  0  0
 10  5  1  1  0  0  0
 11  6  1  0  0  0  0
 12 20  1  0  0  0  0
 12 16  2  0  0  0  0
 14 19  1  0  0  0  0
 14 27  1  0  0  0  0
 15 11  2  0  0  0  0
 17  8  1  0  0  0  0
 18 24  1  0  0  0  0
 18 17  1  1  0  0  0
 19 15  1  6  0  0  0
 19  3  1  0  0  0  0
 20 26  1  0  0  0  0
 21  2  1  0  0  0  0
 22 29  1  1  0  0  0
 22 10  1  0  0  0  0
 26 24  1  0  0  0  0
 26  1  1  1  0  0  0
 27 22  1  0  0  0  0
 28 34  1  0  0  0  0
 29 28  2  0  0  0  0
 30 33  2  0  0  0  0
 30 29  1  0  0  0  0
 31 33  1  0  0  0  0
 32 34  2  0  0  0  0
 33 32  1  0  0  0  0
 36 37  1  0  0  0  0
 37 35  1  0  0  0  0
M  END
>  <MODEL>
9

>  <REMARK>
 VINA RESULT:      -7.6      2.716      6.153
  Name = 
  3 active torsions:
  status: ('A' for Active; 'I' for Inactive)
    1  A    between atoms: C_5  and  C_17
    2  A    between atoms: C_6  and  C_31
    3  A    between atoms: C_17  and  C_23
                            x       y       z     vdW  Elec       q    Type
                         _______ _______ _______ _____ _____    ______ ____

>  <TORSDO>
F 3

$$$$
