=
 OpenBabel10262423083D

 37 41  0  0  1  0  0  0  0  0999 V2000
  187.9640  177.8390  142.8970 C   0  0  2  0  0  3  0  0  0  0  0  0
  187.4500  177.6420  145.2880 C   0  0  1  0  0  3  0  0  0  0  0  0
  187.0270  178.3280  143.9980 C   0  0  2  0  0  3  0  0  0  0  0  0
  189.0760  177.0010  143.5400 C   0  0  1  0  0  0  0  0  0  0  0  0
  190.3390  177.5870  143.3970 O   0  0  0  0  0  1  0  0  0  0  0  0
  188.7320  176.8650  145.0210 C   0  0  1  0  0  3  0  0  0  0  0  0
  188.7830  178.2020  145.7470 C   0  0  2  0  0  3  0  0  0  0  0  0
  185.1740  178.7010  142.5410 O   0  0  0  0  0  0  0  0  0  0  0  0
  184.7270  179.1480  143.7970 C   0  0  2  0  0  3  0  0  0  0  0  0
  185.5950  177.9600  143.6610 C   0  0  2  0  0  3  0  0  0  0  0  0
  183.2910  178.7100  143.9980 C   0  0  0  0  0  2  0  0  0  0  0  0
  182.4030  179.6350  143.3190 N   0  0  0  0  0  2  0  0  0  0  0  0
  181.3100  178.8480  142.7790 C   0  0  0  0  0  3  0  0  0  0  0  0
  180.6680  179.6080  141.6360 C   0  0  0  0  0  2  0  0  0  0  0  0
  181.6260  178.4740  141.3450 C   0  0  0  0  0  2  0  0  0  0  0  0
  189.0920  175.6120  142.9190 C   0  0  0  0  0  2  0  0  0  0  0  0
  190.4030  175.1560  142.7620 O   0  0  0  0  0  1  0  0  0  0  0  0
  188.9520  177.9560  147.2340 C   0  0  0  0  0  2  0  0  0  0  0  0
  189.7540  176.7610  147.4510 N   0  0  0  0  0  2  0  0  0  0  0  0
  191.1300  176.6750  147.0750 C   0  0  0  0  0  0  0  0  0  0  0  0
  191.7020  177.6400  146.5000 O   0  0  0  0  0  0  0  0  0  0  0  0
  191.9010  175.4410  147.3840 C   0  0  0  0  0  2  0  0  0  0  0  0
  192.9320  175.7310  148.4560 C   0  0  0  0  0  1  0  0  0  0  0  0
  188.4020  178.8320  141.9840 O   0  0  0  0  0  0  0  0  0  0  0  0
  188.1060  178.4270  140.6700 C   0  0  0  0  0  2  0  0  0  0  0  0
  188.2540  176.0930  136.5770 C   0  0  0  0  0  2  0  0  0  0  0  0
  189.4640  177.5630  138.7750 C   0  0  0  0  0  0  0  0  0  0  0  0
  189.2680  177.6900  140.0910 C   0  0  0  0  0  3  0  0  0  0  0  0
  188.9240  179.5920  137.6560 O   0  0  0  0  0  1  0  0  0  0  0  0
  191.7480  176.9680  138.9810 O   0  0  0  0  0  0  0  0  0  0  0  0
  190.7110  176.1270  137.0860 N   0  0  0  0  0  2  0  0  0  0  0  0
  190.6860  176.8720  138.3080 C   0  0  0  0  0  0  0  0  0  0  0  0
  188.4230  177.5980  136.4260 C   0  0  2  0  0  3  0  0  0  0  0  0
  188.5340  178.2590  137.8010 C   0  0  1  0  0  3  0  0  0  0  0  0
  189.5930  175.3600  136.5320 C   0  0  0  0  0  2  0  0  0  0  0  0
  187.2280  178.1730  135.6840 C   0  0  0  0  0  2  0  0  0  0  0  0
  186.0450  177.6530  136.2090 O   0  0  0  0  0  1  0  0  0  0  0  0
  1 24  1  1  0  0  0
  1  4  1  0  0  0  0
  1  3  1  0  0  0  0
  2  7  1  0  0  0  0
  3  2  1  0  0  0  0
  4  6  1  0  0  0  0
  5  4  1  0  0  0  0
  6  2  1  0  0  0  0
  6  7  1  0  0  0  0
  7 18  1  0  0  0  0
  8 10  1  0  0  0  0
  8  9  1  0  0  0  0
  9 11  1  0  0  0  0
 10  9  1  0  0  0  0
 10  3  1  0  0  0  0
 12 11  1  0  0  0  0
 13 12  1  0  0  0  0
 14 13  1  0  0  0  0
 15 14  1  0  0  0  0
 15 13  1  0  0  0  0
 16  4  1  0  0  0  0
 17 16  1  0  0  0  0
 18 19  1  0  0  0  0
 20 22  1  0  0  0  0
 20 19  1  0  0  0  0
 21 20  2  0  0  0  0
 22 23  1  0  0  0  0
 25 24  1  0  0  0  0
 27 28  2  0  0  0  0
 28 25  1  0  0  0  0
 29 34  1  0  0  0  0
 31 32  1  0  0  0  0
 32 27  1  0  0  0  0
 32 30  2  0  0  0  0
 33 26  1  0  0  0  0
 33 34  1  0  0  0  0
 34 27  1  0  0  0  0
 35 26  1  0  0  0  0
 35 31  1  0  0  0  0
 36 37  1  0  0  0  0
 36 33  1  0  0  0  0
M  END
>  <MODEL>
1

>  <REMARK>
 VINA RESULT:      -7.6      0.000      0.000
  Name = 
  12 active torsions:
  status: ('A' for Active; 'I' for Inactive)
    1  A    between atoms: C_1  and  N_5
    2  A    between atoms: C_1  and  C_36
    3  A    between atoms: C_3  and  N_32
    4  A    between atoms: C_4  and  C_22
    5  A    between atoms: C_7  and  C_33
    6  A    between atoms: C_8  and  C_31
    7  A    between atoms: C_10  and  O_14
    8  A    between atoms: C_12  and  C_17
    9  A    between atoms: O_14  and  C_31
   10  A    between atoms: C_16  and  C_30
   11  A    between atoms: C_20  and  C_24
   12  A    between atoms: C_30  and  N_32
                            x       y       z     vdW  Elec       q    Type
                         _______ _______ _______ _____ _____    ______ ____

>  <TORSDO>
F 12

$$$$
=
 OpenBabel10262423083D

 37 41  0  0  1  0  0  0  0  0999 V2000
  188.6970  178.1690  139.7070 C   0  0  2  0  0  3  0  0  0  0  0  0
  188.4270  177.6350  142.0860 C   0  0  1  0  0  3  0  0  0  0  0  0
  187.8980  178.5120  140.9610 C   0  0  2  0  0  3  0  0  0  0  0  0
  189.8380  177.2220  140.0990 C   0  0  1  0  0  0  0  0  0  0  0  0
  191.1000  177.7940  139.9060 O   0  0  0  0  0  1  0  0  0  0  0  0
  189.6450  176.8780  141.5740 C   0  0  1  0  0  3  0  0  0  0  0  0
  189.8210  178.0920  142.4740 C   0  0  2  0  0  3  0  0  0  0  0  0
  185.8220  179.3520  140.1370 O   0  0  0  0  0  0  0  0  0  0  0  0
  185.6060  179.1760  141.5150 C   0  0  2  0  0  3  0  0  0  0  0  0
  186.4260  178.2280  140.7320 C   0  0  2  0  0  3  0  0  0  0  0  0
  184.2240  178.5950  141.7310 C   0  0  0  0  0  2  0  0  0  0  0  0
  183.7340  178.9850  143.0400 N   0  0  0  0  0  2  0  0  0  0  0  0
  184.9000  179.2620  143.8590 C   0  0  0  0  0  3  0  0  0  0  0  0
  184.5530  179.0190  145.3140 C   0  0  0  0  0  2  0  0  0  0  0  0
  185.3430  177.9850  144.5420 C   0  0  0  0  0  2  0  0  0  0  0  0
  189.7370  175.9380  139.2870 C   0  0  0  0  0  2  0  0  0  0  0  0
  190.9600  175.6400  138.6800 O   0  0  0  0  0  1  0  0  0  0  0  0
  190.1340  177.6270  143.8830 C   0  0  0  0  0  2  0  0  0  0  0  0
  188.9770  177.8370  144.7430 N   0  0  0  0  0  2  0  0  0  0  0  0
  188.9860  177.5250  146.1380 C   0  0  0  0  0  0  0  0  0  0  0  0
  190.0050  177.0180  146.6780 O   0  0  0  0  0  0  0  0  0  0  0  0
  187.7850  177.8240  146.9650 C   0  0  0  0  0  2  0  0  0  0  0  0
  188.1510  177.7930  148.4350 C   0  0  0  0  0  1  0  0  0  0  0  0
  189.0750  179.2750  138.9030 O   0  0  0  0  0  0  0  0  0  0  0  0
  188.4660  179.1690  137.6400 C   0  0  0  0  0  2  0  0  0  0  0  0
  187.2790  174.6940  136.7560 C   0  0  0  0  0  2  0  0  0  0  0  0
  188.6050  177.2030  136.1240 C   0  0  0  0  0  0  0  0  0  0  0  0
  189.2110  178.1860  136.7980 C   0  0  0  0  0  3  0  0  0  0  0  0
  186.5730  177.9840  135.1660 O   0  0  0  0  0  1  0  0  0  0  0  0
  190.4440  176.8030  134.6840 O   0  0  0  0  0  0  0  0  0  0  0  0
  189.0890  174.9550  135.0370 N   0  0  0  0  0  2  0  0  0  0  0  0
  189.4310  176.3270  135.2640 C   0  0  0  0  0  0  0  0  0  0  0  0
  186.5320  175.7030  135.8960 C   0  0  2  0  0  3  0  0  0  0  0  0
  187.0930  177.1080  136.1210 C   0  0  1  0  0  3  0  0  0  0  0  0
  188.4530  174.0630  136.0080 C   0  0  0  0  0  2  0  0  0  0  0  0
  185.0560  175.6840  136.2560 C   0  0  0  0  0  2  0  0  0  0  0  0
  184.8430  176.3990  137.4340 O   0  0  0  0  0  1  0  0  0  0  0  0
  1 24  1  1  0  0  0
  1  4  1  0  0  0  0
  1  3  1  0  0  0  0
  2  7  1  0  0  0  0
  3  2  1  0  0  0  0
  4  6  1  0  0  0  0
  5  4  1  0  0  0  0
  6  2  1  0  0  0  0
  6  7  1  0  0  0  0
  7 18  1  0  0  0  0
  8 10  1  0  0  0  0
  8  9  1  0  0  0  0
  9 11  1  0  0  0  0
 10  3  1  0  0  0  0
 10  9  1  0  0  0  0
 11 12  1  0  0  0  0
 12 13  1  0  0  0  0
 13 15  1  0  0  0  0
 13 14  1  0  0  0  0
 15 14  1  0  0  0  0
 16  4  1  0  0  0  0
 17 16  1  0  0  0  0
 18 19  1  0  0  0  0
 19 20  1  0  0  0  0
 20 21  2  0  0  0  0
 20 22  1  0  0  0  0
 22 23  1  0  0  0  0
 25 24  1  0  0  0  0
 27 28  2  0  0  0  0
 28 25  1  0  0  0  0
 29 34  1  0  0  0  0
 30 32  2  0  0  0  0
 31 32  1  0  0  0  0
 31 35  1  0  0  0  0
 32 27  1  0  0  0  0
 33 34  1  0  0  0  0
 33 36  1  0  0  0  0
 33 26  1  0  0  0  0
 34 27  1  0  0  0  0
 35 26  1  0  0  0  0
 36 37  1  0  0  0  0
M  END
>  <MODEL>
2

>  <REMARK>
 VINA RESULT:      -7.3      2.196      3.370
  Name = 
  12 active torsions:
  status: ('A' for Active; 'I' for Inactive)
    1  A    between atoms: C_1  and  N_5
    2  A    between atoms: C_1  and  C_36
    3  A    between atoms: C_3  and  N_32
    4  A    between atoms: C_4  and  C_22
    5  A    between atoms: C_7  and  C_33
    6  A    between atoms: C_8  and  C_31
    7  A    between atoms: C_10  and  O_14
    8  A    between atoms: C_12  and  C_17
    9  A    between atoms: O_14  and  C_31
   10  A    between atoms: C_16  and  C_30
   11  A    between atoms: C_20  and  C_24
   12  A    between atoms: C_30  and  N_32
                            x       y       z     vdW  Elec       q    Type
                         _______ _______ _______ _____ _____    ______ ____

>  <TORSDO>
F 12

$$$$
=
 OpenBabel10262423083D

 37 41  0  0  1  0  0  0  0  0999 V2000
  185.3610  178.4070  142.7160 C   0  0  2  0  0  3  0  0  0  0  0  0
  187.3890  178.2360  144.0870 C   0  0  1  0  0  3  0  0  0  0  0  0
  186.8220  177.9640  142.7010 C   0  0  2  0  0  3  0  0  0  0  0  0
  184.9780  178.7750  144.1540 C   0  0  1  0  0  0  0  0  0  0  0  0
  184.0020  177.9230  144.6830 O   0  0  0  0  0  1  0  0  0  0  0  0
  186.2510  178.6890  144.9910 C   0  0  1  0  0  3  0  0  0  0  0  0
  186.7820  177.2650  145.0830 C   0  0  2  0  0  3  0  0  0  0  0  0
  186.8000  178.9050  140.5080 O   0  0  0  0  0  0  0  0  0  0  0  0
  187.8070  177.9240  140.4580 C   0  0  2  0  0  3  0  0  0  0  0  0
  187.5930  178.7550  141.6620 C   0  0  2  0  0  3  0  0  0  0  0  0
  188.9850  178.4600  139.6720 C   0  0  0  0  0  2  0  0  0  0  0  0
  188.5680  178.7510  138.3130 N   0  0  0  0  0  2  0  0  0  0  0  0
  188.2320  177.4820  137.6960 C   0  0  0  0  0  3  0  0  0  0  0  0
  187.8100  177.7230  136.2610 C   0  0  0  0  0  2  0  0  0  0  0  0
  189.2000  177.2080  136.5630 C   0  0  0  0  0  2  0  0  0  0  0  0
  184.4690  180.2090  144.1960 C   0  0  0  0  0  2  0  0  0  0  0  0
  183.0820  180.2460  144.0420 O   0  0  0  0  0  1  0  0  0  0  0  0
  187.6890  177.1480  146.2930 C   0  0  0  0  0  2  0  0  0  0  0  0
  189.0590  176.9060  145.8640 N   0  0  0  0  0  2  0  0  0  0  0  0
  190.1820  177.0890  146.7300 C   0  0  0  0  0  0  0  0  0  0  0  0
  190.0240  177.5040  147.9100 O   0  0  0  0  0  0  0  0  0  0  0  0
  191.5480  176.7640  146.2390 C   0  0  0  0  0  2  0  0  0  0  0  0
  192.1710  175.6960  147.1150 C   0  0  0  0  0  1  0  0  0  0  0  0
  184.4560  177.5440  142.0470 O   0  0  0  0  0  0  0  0  0  0  0  0
  183.5720  178.3060  141.2620 C   0  0  0  0  0  2  0  0  0  0  0  0
  180.5910  179.5510  137.8290 C   0  0  0  0  0  2  0  0  0  0  0  0
  183.0800  178.4260  138.8270 C   0  0  0  0  0  0  0  0  0  0  0  0
  183.4760  177.7210  139.8910 C   0  0  0  0  0  3  0  0  0  0  0  0
  183.9900  180.6230  138.9030 O   0  0  0  0  0  1  0  0  0  0  0  0
  183.9640  176.8980  137.2480 O   0  0  0  0  0  0  0  0  0  0  0  0
  182.1490  178.1190  136.4810 N   0  0  0  0  0  2  0  0  0  0  0  0
  183.0880  177.7670  137.5030 C   0  0  0  0  0  0  0  0  0  0  0  0
  181.7960  180.4730  137.9530 C   0  0  2  0  0  3  0  0  0  0  0  0
  182.7920  179.9070  138.9670 C   0  0  1  0  0  3  0  0  0  0  0  0
  180.7630  178.5340  136.7020 C   0  0  0  0  0  2  0  0  0  0  0  0
  181.3390  181.8490  138.4070 C   0  0  0  0  0  2  0  0  0  0  0  0
  180.2070  181.7340  139.2150 O   0  0  0  0  0  1  0  0  0  0  0  0
  1 24  1  1  0  0  0
  1  4  1  0  0  0  0
  2  6  1  0  0  0  0
  2  7  1  0  0  0  0
  3  1  1  0  0  0  0
  3  2  1  0  0  0  0
  4 16  1  0  0  0  0
  4  5  1  0  0  0  0
  4  6  1  0  0  0  0
  6  7  1  0  0  0  0
  7 18  1  0  0  0  0
  8 10  1  0  0  0  0
  9  8  1  0  0  0  0
  9 10  1  0  0  0  0
 10  3  1  0  0  0  0
 11  9  1  0  0  0  0
 12 11  1  0  0  0  0
 13 12  1  0  0  0  0
 14 15  1  0  0  0  0
 14 13  1  0  0  0  0
 15 13  1  0  0  0  0
 17 16  1  0  0  0  0
 19 18  1  0  0  0  0
 19 20  1  0  0  0  0
 20 21  2  0  0  0  0
 22 20  1  0  0  0  0
 22 23  1  0  0  0  0
 25 24  1  0  0  0  0
 26 33  1  0  0  0  0
 27 34  1  0  0  0  0
 27 28  2  0  0  0  0
 28 25  1  0  0  0  0
 29 34  1  0  0  0  0
 30 32  2  0  0  0  0
 31 35  1  0  0  0  0
 31 32  1  0  0  0  0
 32 27  1  0  0  0  0
 33 36  1  0  0  0  0
 33 34  1  0  0  0  0
 35 26  1  0  0  0  0
 36 37  1  0  0  0  0
M  END
>  <MODEL>
3

>  <REMARK>
 VINA RESULT:      -6.9      2.797      6.001
  Name = 
  12 active torsions:
  status: ('A' for Active; 'I' for Inactive)
    1  A    between atoms: C_1  and  N_5
    2  A    between atoms: C_1  and  C_36
    3  A    between atoms: C_3  and  N_32
    4  A    between atoms: C_4  and  C_22
    5  A    between atoms: C_7  and  C_33
    6  A    between atoms: C_8  and  C_31
    7  A    between atoms: C_10  and  O_14
    8  A    between atoms: C_12  and  C_17
    9  A    between atoms: O_14  and  C_31
   10  A    between atoms: C_16  and  C_30
   11  A    between atoms: C_20  and  C_24
   12  A    between atoms: C_30  and  N_32
                            x       y       z     vdW  Elec       q    Type
                         _______ _______ _______ _____ _____    ______ ____

>  <TORSDO>
F 12

$$$$
=
 OpenBabel10262423083D

 37 41  0  0  1  0  0  0  0  0999 V2000
  182.3320  176.8630  139.0610 C   0  0  2  0  0  3  0  0  0  0  0  0
  181.6540  178.5660  137.4320 C   0  0  1  0  0  3  0  0  0  0  0  0
  182.8600  177.8770  138.0510 C   0  0  2  0  0  3  0  0  0  0  0  0
  180.8170  177.0560  139.2000 C   0  0  1  0  0  0  0  0  0  0  0  0
  180.4460  177.4840  140.4800 O   0  0  0  0  0  1  0  0  0  0  0  0
  180.4040  178.1000  138.1650 C   0  0  1  0  0  3  0  0  0  0  0  0
  181.0000  179.4690  138.4610 C   0  0  2  0  0  3  0  0  0  0  0  0
  184.4940  176.2040  137.5740 O   0  0  0  0  0  0  0  0  0  0  0  0
  185.1050  177.4100  137.1860 C   0  0  2  0  0  3  0  0  0  0  0  0
  183.6610  177.1690  136.9760 C   0  0  2  0  0  3  0  0  0  0  0  0
  185.8520  177.1930  135.8870 C   0  0  0  0  0  2  0  0  0  0  0  0
  187.2770  177.3330  136.1190 N   0  0  0  0  0  2  0  0  0  0  0  0
  187.4330  178.2270  137.2520 C   0  0  0  0  0  3  0  0  0  0  0  0
  188.6090  177.7670  138.0890 C   0  0  0  0  0  2  0  0  0  0  0  0
  188.7650  178.9390  137.1440 C   0  0  0  0  0  2  0  0  0  0  0  0
  180.1030  175.7510  138.8790 C   0  0  0  0  0  2  0  0  0  0  0  0
  180.9460  174.8860  138.1780 O   0  0  0  0  0  1  0  0  0  0  0  0
  180.1810  180.5320  137.7560 C   0  0  0  0  0  2  0  0  0  0  0  0
  181.0230  181.6770  137.4380 N   0  0  0  0  0  2  0  0  0  0  0  0
  180.5770  183.0270  137.5810 C   0  0  0  0  0  0  0  0  0  0  0  0
  179.4030  183.2800  137.9670 O   0  0  0  0  0  0  0  0  0  0  0  0
  181.5150  184.1460  137.2940 C   0  0  0  0  0  2  0  0  0  0  0  0
  181.0040  184.9600  136.1230 C   0  0  0  0  0  1  0  0  0  0  0  0
  183.0490  176.7870  140.2820 O   0  0  0  0  0  0  0  0  0  0  0  0
  183.7260  177.9990  140.5070 C   0  0  0  0  0  2  0  0  0  0  0  0
  187.1080  176.8820  143.5940 C   0  0  0  0  0  2  0  0  0  0  0  0
  184.8860  178.5010  142.6490 C   0  0  0  0  0  0  0  0  0  0  0  0
  183.7520  178.3030  141.9690 C   0  0  0  0  0  3  0  0  0  0  0  0
  186.4220  179.7700  141.3480 O   0  0  0  0  0  1  0  0  0  0  0  0
  183.8240  179.5610  144.4820 O   0  0  0  0  0  0  0  0  0  0  0  0
  185.8040  178.4820  145.0200 N   0  0  0  0  0  2  0  0  0  0  0  0
  184.7940  178.8650  144.0790 C   0  0  0  0  0  0  0  0  0  0  0  0
  187.4240  178.1200  142.7670 C   0  0  2  0  0  3  0  0  0  0  0  0
  186.2130  178.5120  141.9180 C   0  0  1  0  0  3  0  0  0  0  0  0
  186.5800  177.2410  144.9820 C   0  0  0  0  0  2  0  0  0  0  0  0
  188.6080  177.8370  141.8580 C   0  0  0  0  0  2  0  0  0  0  0  0
  189.2020  176.6250  142.2100 O   0  0  0  0  0  1  0  0  0  0  0  0
  1  4  1  0  0  0  0
  1 24  1  1  0  0  0
  2  3  1  0  0  0  0
  2  6  1  0  0  0  0
  2  7  1  0  0  0  0
  3  1  1  0  0  0  0
  4  5  1  0  0  0  0
  6  7  1  0  0  0  0
  6  4  1  0  0  0  0
  9  8  1  0  0  0  0
 10  9  1  0  0  0  0
 10  8  1  0  0  0  0
 10  3  1  0  0  0  0
 11 12  1  0  0  0  0
 11  9  1  0  0  0  0
 12 13  1  0  0  0  0
 13 14  1  0  0  0  0
 15 13  1  0  0  0  0
 15 14  1  0  0  0  0
 16  4  1  0  0  0  0
 17 16  1  0  0  0  0
 18  7  1  0  0  0  0
 19 20  1  0  0  0  0
 19 18  1  0  0  0  0
 20 21  2  0  0  0  0
 22 20  1  0  0  0  0
 23 22  1  0  0  0  0
 24 25  1  0  0  0  0
 25 28  1  0  0  0  0
 26 35  1  0  0  0  0
 27 32  1  0  0  0  0
 28 27  2  0  0  0  0
 29 34  1  0  0  0  0
 32 30  2  0  0  0  0
 32 31  1  0  0  0  0
 33 26  1  0  0  0  0
 34 27  1  0  0  0  0
 34 33  1  0  0  0  0
 35 31  1  0  0  0  0
 36 37  1  0  0  0  0
 36 33  1  0  0  0  0
M  END
>  <MODEL>
4

>  <REMARK>
 VINA RESULT:      -6.8      3.744      9.814
  Name = 
  12 active torsions:
  status: ('A' for Active; 'I' for Inactive)
    1  A    between atoms: C_1  and  N_5
    2  A    between atoms: C_1  and  C_36
    3  A    between atoms: C_3  and  N_32
    4  A    between atoms: C_4  and  C_22
    5  A    between atoms: C_7  and  C_33
    6  A    between atoms: C_8  and  C_31
    7  A    between atoms: C_10  and  O_14
    8  A    between atoms: C_12  and  C_17
    9  A    between atoms: O_14  and  C_31
   10  A    between atoms: C_16  and  C_30
   11  A    between atoms: C_20  and  C_24
   12  A    between atoms: C_30  and  N_32
                            x       y       z     vdW  Elec       q    Type
                         _______ _______ _______ _____ _____    ______ ____

>  <TORSDO>
F 12

$$$$
=
 OpenBabel10262423083D

 37 41  0  0  1  0  0  0  0  0999 V2000
  189.3120  176.7980  138.2760 C   0  0  2  0  0  3  0  0  0  0  0  0
  191.6350  176.0200  138.4140 C   0  0  1  0  0  3  0  0  0  0  0  0
  190.6130  176.9410  139.0630 C   0  0  2  0  0  3  0  0  0  0  0  0
  189.5840  175.9360  137.0370 C   0  0  1  0  0  0  0  0  0  0  0  0
  189.4160  176.6470  135.8430 O   0  0  0  0  0  1  0  0  0  0  0  0
  191.0230  175.4390  137.1460 C   0  0  1  0  0  3  0  0  0  0  0  0
  192.0310  176.5750  137.0590 C   0  0  2  0  0  3  0  0  0  0  0  0
  189.6720  177.5460  141.1710 O   0  0  0  0  0  0  0  0  0  0  0  0
  191.0580  177.5010  141.4060 C   0  0  2  0  0  3  0  0  0  0  0  0
  190.3920  176.5350  140.5070 C   0  0  2  0  0  3  0  0  0  0  0  0
  191.3130  176.8520  142.7500 C   0  0  0  0  0  2  0  0  0  0  0  0
  190.8170  177.7160  143.8060 N   0  0  0  0  0  2  0  0  0  0  0  0
  189.8550  176.9400  144.5660 C   0  0  0  0  0  3  0  0  0  0  0  0
  189.9210  177.3560  146.0220 C   0  0  0  0  0  2  0  0  0  0  0  0
  188.8050  177.8710  145.1380 C   0  0  0  0  0  2  0  0  0  0  0  0
  188.6550  174.7310  137.0390 C   0  0  0  0  0  2  0  0  0  0  0  0
  189.3870  173.5430  137.0990 O   0  0  0  0  0  1  0  0  0  0  0  0
  193.3810  176.0140  136.6560 C   0  0  0  0  0  2  0  0  0  0  0  0
  193.7640  174.9410  137.5620 N   0  0  0  0  0  2  0  0  0  0  0  0
  195.1250  174.5700  137.7890 C   0  0  0  0  0  0  0  0  0  0  0  0
  196.0610  175.1510  137.1750 O   0  0  0  0  0  0  0  0  0  0  0  0
  195.4420  173.5040  138.7770 C   0  0  0  0  0  2  0  0  0  0  0  0
  195.4880  172.1570  138.0850 C   0  0  0  0  0  1  0  0  0  0  0  0
  188.6100  178.0060  138.0350 O   0  0  0  0  0  0  0  0  0  0  0  0
  187.3680  177.9700  138.6940 C   0  0  0  0  0  2  0  0  0  0  0  0
  182.9820  176.5990  139.7430 C   0  0  0  0  0  2  0  0  0  0  0  0
  184.9960  177.7400  137.9840 C   0  0  0  0  0  0  0  0  0  0  0  0
  186.2980  177.5560  137.7390 C   0  0  0  0  0  3  0  0  0  0  0  0
  184.6370  179.8530  139.0170 O   0  0  0  0  0  1  0  0  0  0  0  0
  184.3390  177.4690  135.7240 O   0  0  0  0  0  0  0  0  0  0  0  0
  182.7070  176.8970  137.2670 N   0  0  0  0  0  2  0  0  0  0  0  0
  184.0230  177.3570  136.9390 C   0  0  0  0  0  0  0  0  0  0  0  0
  183.1650  178.1100  139.7470 C   0  0  2  0  0  3  0  0  0  0  0  0
  184.5590  178.4750  139.2340 C   0  0  1  0  0  3  0  0  0  0  0  0
  182.3490  176.1030  138.4440 C   0  0  0  0  0  2  0  0  0  0  0  0
  182.9920  178.6390  141.1610 C   0  0  0  0  0  2  0  0  0  0  0  0
  183.9930  178.1300  141.9880 O   0  0  0  0  0  1  0  0  0  0  0  0
  1 24  1  6  0  0  0
  1  3  1  0  0  0  0
  2  3  1  0  0  0  0
  3 10  1  0  0  0  0
  4 16  1  0  0  0  0
  4  6  1  0  0  0  0
  4  1  1  0  0  0  0
  5  4  1  0  0  0  0
  6  2  1  0  0  0  0
  7  6  1  0  0  0  0
  7  2  1  0  0  0  0
  8  9  1  0  0  0  0
  9 11  1  0  0  0  0
 10  8  1  0  0  0  0
 10  9  1  0  0  0  0
 11 12  1  0  0  0  0
 12 13  1  0  0  0  0
 13 15  1  0  0  0  0
 13 14  1  0  0  0  0
 15 14  1  0  0  0  0
 16 17  1  0  0  0  0
 18  7  1  0  0  0  0
 18 19  1  0  0  0  0
 19 20  1  0  0  0  0
 20 22  1  0  0  0  0
 21 20  2  0  0  0  0
 23 22  1  0  0  0  0
 24 25  1  0  0  0  0
 26 33  1  0  0  0  0
 27 34  1  0  0  0  0
 28 27  2  0  0  0  0
 28 25  1  0  0  0  0
 29 34  1  0  0  0  0
 30 32  2  0  0  0  0
 31 35  1  0  0  0  0
 32 31  1  0  0  0  0
 32 27  1  0  0  0  0
 33 36  1  0  0  0  0
 34 33  1  0  0  0  0
 35 26  1  0  0  0  0
 36 37  1  0  0  0  0
M  END
>  <MODEL>
5

>  <REMARK>
 VINA RESULT:      -6.8      3.170      7.621
  Name = 
  12 active torsions:
  status: ('A' for Active; 'I' for Inactive)
    1  A    between atoms: C_1  and  N_5
    2  A    between atoms: C_1  and  C_36
    3  A    between atoms: C_3  and  N_32
    4  A    between atoms: C_4  and  C_22
    5  A    between atoms: C_7  and  C_33
    6  A    between atoms: C_8  and  C_31
    7  A    between atoms: C_10  and  O_14
    8  A    between atoms: C_12  and  C_17
    9  A    between atoms: O_14  and  C_31
   10  A    between atoms: C_16  and  C_30
   11  A    between atoms: C_20  and  C_24
   12  A    between atoms: C_30  and  N_32
                            x       y       z     vdW  Elec       q    Type
                         _______ _______ _______ _____ _____    ______ ____

>  <TORSDO>
F 12

$$$$
=
 OpenBabel10262423083D

 37 41  0  0  1  0  0  0  0  0999 V2000
  182.0470  178.8210  139.8750 C   0  0  2  0  0  3  0  0  0  0  0  0
  182.6140  177.2780  138.0550 C   0  0  1  0  0  3  0  0  0  0  0  0
  181.9990  177.3580  139.4440 C   0  0  2  0  0  3  0  0  0  0  0  0
  182.8550  179.6090  138.8380 C   0  0  1  0  0  0  0  0  0  0  0  0
  184.0390  180.1360  139.3690 O   0  0  0  0  0  1  0  0  0  0  0  0
  183.1810  178.6450  137.7000 C   0  0  1  0  0  3  0  0  0  0  0  0
  184.1090  177.5240  138.1460 C   0  0  2  0  0  3  0  0  0  0  0  0
  180.1150  176.6310  140.7150 O   0  0  0  0  0  0  0  0  0  0  0  0
  180.4770  175.5060  139.9530 C   0  0  2  0  0  3  0  0  0  0  0  0
  180.5620  176.8760  139.4030 C   0  0  2  0  0  3  0  0  0  0  0  0
  179.2240  174.8290  139.4400 C   0  0  0  0  0  2  0  0  0  0  0  0
  179.5100  173.4350  139.1530 N   0  0  0  0  0  2  0  0  0  0  0  0
  179.8530  173.3590  137.7450 C   0  0  0  0  0  3  0  0  0  0  0  0
  180.7750  172.1770  137.5220 C   0  0  0  0  0  2  0  0  0  0  0  0
  179.3080  172.0680  137.1690 C   0  0  0  0  0  2  0  0  0  0  0  0
  182.0060  180.7430  138.2810 C   0  0  0  0  0  2  0  0  0  0  0  0
  180.7610  180.7840  138.9130 O   0  0  0  0  0  1  0  0  0  0  0  0
  184.7960  176.9310  136.9310 C   0  0  0  0  0  2  0  0  0  0  0  0
  186.1980  176.6780  137.2290 N   0  0  0  0  0  2  0  0  0  0  0  0
  187.1740  177.7200  137.2970 C   0  0  0  0  0  0  0  0  0  0  0  0
  186.8540  178.9170  137.0660 O   0  0  0  0  0  0  0  0  0  0  0  0
  188.5770  177.3910  137.6660 C   0  0  0  0  0  2  0  0  0  0  0  0
  189.2740  178.6260  138.1980 C   0  0  0  0  0  1  0  0  0  0  0  0
  182.4090  179.0470  141.2280 O   0  0  0  0  0  0  0  0  0  0  0  0
  183.2620  178.0180  141.6650 C   0  0  0  0  0  2  0  0  0  0  0  0
  187.3360  176.7770  143.6850 C   0  0  0  0  0  2  0  0  0  0  0  0
  184.9680  178.4430  143.4240 C   0  0  0  0  0  0  0  0  0  0  0  0
  183.6890  178.2760  143.0730 C   0  0  0  0  0  3  0  0  0  0  0  0
  186.1140  179.7390  141.7910 O   0  0  0  0  0  1  0  0  0  0  0  0
  184.4610  179.4540  145.5060 O   0  0  0  0  0  0  0  0  0  0  0  0
  186.4940  178.3420  145.4560 N   0  0  0  0  0  2  0  0  0  0  0  0
  185.2740  178.7630  144.8360 C   0  0  0  0  0  0  0  0  0  0  0  0
  187.4360  178.0370  142.8380 C   0  0  2  0  0  3  0  0  0  0  0  0
  186.0480  178.4650  142.3610 C   0  0  1  0  0  3  0  0  0  0  0  0
  187.2100  177.0970  145.1740 C   0  0  0  0  0  2  0  0  0  0  0  0
  188.3250  177.7720  141.6340 C   0  0  0  0  0  2  0  0  0  0  0  0
  189.6580  177.6870  142.0340 O   0  0  0  0  0  1  0  0  0  0  0  0
  1 24  1  1  0  0  0
  2  7  1  0  0  0  0
  2  3  1  0  0  0  0
  3  1  1  0  0  0  0
  4  5  1  0  0  0  0
  4  1  1  0  0  0  0
  6  2  1  0  0  0  0
  6  7  1  0  0  0  0
  6  4  1  0  0  0  0
  9  8  1  0  0  0  0
 10  3  1  0  0  0  0
 10  9  1  0  0  0  0
 10  8  1  0  0  0  0
 11  9  1  0  0  0  0
 12 11  1  0  0  0  0
 13 12  1  0  0  0  0
 14 13  1  0  0  0  0
 15 14  1  0  0  0  0
 15 13  1  0  0  0  0
 16  4  1  0  0  0  0
 16 17  1  0  0  0  0
 18 19  1  0  0  0  0
 18  7  1  0  0  0  0
 19 20  1  0  0  0  0
 20 22  1  0  0  0  0
 21 20  2  0  0  0  0
 22 23  1  0  0  0  0
 24 25  1  0  0  0  0
 25 28  1  0  0  0  0
 26 35  1  0  0  0  0
 27 32  1  0  0  0  0
 28 27  2  0  0  0  0
 29 34  1  0  0  0  0
 32 31  1  0  0  0  0
 32 30  2  0  0  0  0
 33 26  1  0  0  0  0
 34 33  1  0  0  0  0
 34 27  1  0  0  0  0
 35 31  1  0  0  0  0
 36 37  1  0  0  0  0
 36 33  1  0  0  0  0
M  END
>  <MODEL>
6

>  <REMARK>
 VINA RESULT:      -6.7      3.741      8.333
  Name = 
  12 active torsions:
  status: ('A' for Active; 'I' for Inactive)
    1  A    between atoms: C_1  and  N_5
    2  A    between atoms: C_1  and  C_36
    3  A    between atoms: C_3  and  N_32
    4  A    between atoms: C_4  and  C_22
    5  A    between atoms: C_7  and  C_33
    6  A    between atoms: C_8  and  C_31
    7  A    between atoms: C_10  and  O_14
    8  A    between atoms: C_12  and  C_17
    9  A    between atoms: O_14  and  C_31
   10  A    between atoms: C_16  and  C_30
   11  A    between atoms: C_20  and  C_24
   12  A    between atoms: C_30  and  N_32
                            x       y       z     vdW  Elec       q    Type
                         _______ _______ _______ _____ _____    ______ ____

>  <TORSDO>
F 12

$$$$
=
 OpenBabel10262423083D

 37 41  0  0  1  0  0  0  0  0999 V2000
  184.5170  179.4170  140.7330 C   0  0  2  0  0  3  0  0  0  0  0  0
  182.9410  177.5370  140.7450 C   0  0  1  0  0  3  0  0  0  0  0  0
  183.9610  178.2840  141.5920 C   0  0  2  0  0  3  0  0  0  0  0  0
  183.9810  179.2560  139.3060 C   0  0  1  0  0  0  0  0  0  0  0  0
  184.9960  178.9880  138.3800 O   0  0  0  0  0  1  0  0  0  0  0  0
  182.9850  178.1000  139.3310 C   0  0  1  0  0  3  0  0  0  0  0  0
  183.6550  176.7710  139.6480 C   0  0  2  0  0  3  0  0  0  0  0  0
  184.0340  179.9520  143.2970 O   0  0  0  0  0  0  0  0  0  0  0  0
  184.2030  178.7380  143.9870 C   0  0  2  0  0  3  0  0  0  0  0  0
  183.2920  178.8510  142.8290 C   0  0  2  0  0  3  0  0  0  0  0  0
  183.4020  178.7810  145.2710 C   0  0  0  0  0  2  0  0  0  0  0  0
  184.2920  178.6050  146.4030 N   0  0  0  0  0  2  0  0  0  0  0  0
  185.6430  178.7960  145.9090 C   0  0  0  0  0  3  0  0  0  0  0  0
  186.6230  178.5650  147.0410 C   0  0  0  0  0  2  0  0  0  0  0  0
  186.3980  177.4860  146.0040 C   0  0  0  0  0  2  0  0  0  0  0  0
  183.2420  180.5200  138.8910 C   0  0  0  0  0  2  0  0  0  0  0  0
  181.9220  180.2290  138.5420 O   0  0  0  0  0  1  0  0  0  0  0  0
  182.7720  175.6380  139.1620 C   0  0  0  0  0  2  0  0  0  0  0  0
  183.0340  175.3730  137.7550 N   0  0  0  0  0  2  0  0  0  0  0  0
  181.9960  175.3160  136.7740 C   0  0  0  0  0  0  0  0  0  0  0  0
  180.7890  175.4650  137.1050 O   0  0  0  0  0  0  0  0  0  0  0  0
  182.3470  175.1010  135.3440 C   0  0  0  0  0  2  0  0  0  0  0  0
  181.1530  174.5430  134.5970 C   0  0  0  0  0  1  0  0  0  0  0  0
  185.9150  179.6320  140.8380 O   0  0  0  0  0  0  0  0  0  0  0  0
  186.5040  178.5670  141.5430 C   0  0  0  0  0  2  0  0  0  0  0  0
  190.7920  178.2970  143.4800 C   0  0  0  0  0  2  0  0  0  0  0  0
  188.7740  177.5530  141.5240 C   0  0  0  0  0  0  0  0  0  0  0  0
  187.7740  178.1550  140.8730 C   0  0  0  0  0  3  0  0  0  0  0  0
  187.9170  175.9670  143.0770 O   0  0  0  0  0  1  0  0  0  0  0  0
  189.8180  176.7450  139.5560 O   0  0  0  0  0  0  0  0  0  0  0  0
  191.2670  177.0890  141.3320 N   0  0  0  0  0  2  0  0  0  0  0  0
  189.9590  177.1250  140.7500 C   0  0  0  0  0  0  0  0  0  0  0  0
  189.9120  177.0930  143.7810 C   0  0  2  0  0  3  0  0  0  0  0  0
  188.6100  177.1770  142.9820 C   0  0  1  0  0  3  0  0  0  0  0  0
  191.7750  178.0160  142.3440 C   0  0  0  0  0  2  0  0  0  0  0  0
  189.5920  177.0540  145.2660 C   0  0  0  0  0  2  0  0  0  0  0  0
  189.9080  178.2790  145.8540 O   0  0  0  0  0  1  0  0  0  0  0  0
  1 24  1  6  0  0  0
  1  3  1  0  0  0  0
  2  3  1  0  0  0  0
  3 10  1  0  0  0  0
  4  6  1  0  0  0  0
  4  1  1  0  0  0  0
  5  4  1  0  0  0  0
  6  7  1  0  0  0  0
  6  2  1  0  0  0  0
  7  2  1  0  0  0  0
  8  9  1  0  0  0  0
  9 11  1  0  0  0  0
 10  8  1  0  0  0  0
 10  9  1  0  0  0  0
 11 12  1  0  0  0  0
 13 15  1  0  0  0  0
 13 12  1  0  0  0  0
 13 14  1  0  0  0  0
 15 14  1  0  0  0  0
 16  4  1  0  0  0  0
 17 16  1  0  0  0  0
 18  7  1  0  0  0  0
 19 18  1  0  0  0  0
 20 21  2  0  0  0  0
 20 19  1  0  0  0  0
 22 20  1  0  0  0  0
 23 22  1  0  0  0  0
 24 25  1  0  0  0  0
 26 33  1  0  0  0  0
 27 34  1  0  0  0  0
 28 27  2  0  0  0  0
 28 25  1  0  0  0  0
 30 32  2  0  0  0  0
 31 35  1  0  0  0  0
 32 31  1  0  0  0  0
 32 27  1  0  0  0  0
 33 36  1  0  0  0  0
 34 29  1  0  0  0  0
 34 33  1  0  0  0  0
 35 26  1  0  0  0  0
 36 37  1  0  0  0  0
M  END
>  <MODEL>
7

>  <REMARK>
 VINA RESULT:      -6.7      3.289      8.025
  Name = 
  12 active torsions:
  status: ('A' for Active; 'I' for Inactive)
    1  A    between atoms: C_1  and  N_5
    2  A    between atoms: C_1  and  C_36
    3  A    between atoms: C_3  and  N_32
    4  A    between atoms: C_4  and  C_22
    5  A    between atoms: C_7  and  C_33
    6  A    between atoms: C_8  and  C_31
    7  A    between atoms: C_10  and  O_14
    8  A    between atoms: C_12  and  C_17
    9  A    between atoms: O_14  and  C_31
   10  A    between atoms: C_16  and  C_30
   11  A    between atoms: C_20  and  C_24
   12  A    between atoms: C_30  and  N_32
                            x       y       z     vdW  Elec       q    Type
                         _______ _______ _______ _____ _____    ______ ____

>  <TORSDO>
F 12

$$$$
=
 OpenBabel10262423083D

 37 41  0  0  1  0  0  0  0  0999 V2000
  189.7260  176.7420  137.1050 C   0  0  2  0  0  3  0  0  0  0  0  0
  191.4450  176.0630  138.7180 C   0  0  1  0  0  3  0  0  0  0  0  0
  190.3370  177.0740  138.4640 C   0  0  2  0  0  3  0  0  0  0  0  0
  190.5740  175.6500  136.4420 C   0  0  1  0  0  0  0  0  0  0  0  0
  191.2030  176.0960  135.2740 O   0  0  0  0  0  1  0  0  0  0  0  0
  191.6240  175.2200  137.4630 C   0  0  1  0  0  3  0  0  0  0  0  0
  192.6070  176.3370  137.7820 C   0  0  2  0  0  3  0  0  0  0  0  0
  188.8260  178.2570  139.8810 O   0  0  0  0  0  0  0  0  0  0  0  0
  189.7430  177.6630  140.7670 C   0  0  2  0  0  3  0  0  0  0  0  0
  189.2810  176.9680  139.5470 C   0  0  2  0  0  3  0  0  0  0  0  0
  188.9970  177.1290  141.9710 C   0  0  0  0  0  2  0  0  0  0  0  0
  189.3860  177.8770  143.1520 N   0  0  0  0  0  2  0  0  0  0  0  0
  190.8370  177.8900  143.1830 C   0  0  0  0  0  3  0  0  0  0  0  0
  191.3060  179.0970  143.9680 C   0  0  0  0  0  2  0  0  0  0  0  0
  191.3060  177.7290  144.6140 C   0  0  0  0  0  2  0  0  0  0  0  0
  189.6980  174.4500  136.1150 C   0  0  0  0  0  2  0  0  0  0  0  0
  189.7150  173.5260  137.1620 O   0  0  0  0  0  1  0  0  0  0  0  0
  193.8750  175.7370  138.3580 C   0  0  0  0  0  2  0  0  0  0  0  0
  194.0820  174.4010  137.8160 N   0  0  0  0  0  2  0  0  0  0  0  0
  195.0550  173.4970  138.3440 C   0  0  0  0  0  0  0  0  0  0  0  0
  195.8060  173.8420  139.2960 O   0  0  0  0  0  0  0  0  0  0  0  0
  195.1670  172.1260  137.7770 C   0  0  0  0  0  2  0  0  0  0  0  0
  194.8480  172.1510  136.2960 C   0  0  0  0  0  1  0  0  0  0  0  0
  189.4210  177.8580  136.2850 O   0  0  0  0  0  0  0  0  0  0  0  0
  188.1000  177.7500  135.8140 C   0  0  0  0  0  2  0  0  0  0  0  0
  183.4950  176.8320  136.2230 C   0  0  0  0  0  2  0  0  0  0  0  0
  186.0860  177.6350  137.2690 C   0  0  0  0  0  0  0  0  0  0  0  0
  187.1530  178.3080  136.8260 C   0  0  0  0  0  3  0  0  0  0  0  0
  186.6230  175.3390  137.5780 O   0  0  0  0  0  1  0  0  0  0  0  0
  185.7950  178.9890  139.1910 O   0  0  0  0  0  0  0  0  0  0  0  0
  183.8460  178.0050  138.4130 N   0  0  0  0  0  2  0  0  0  0  0  0
  185.2530  178.2530  138.3230 C   0  0  0  0  0  0  0  0  0  0  0  0
  184.3860  175.7590  136.8330 C   0  0  2  0  0  3  0  0  0  0  0  0
  185.8470  176.2100  136.8110 C   0  0  1  0  0  3  0  0  0  0  0  0
  182.9440  177.7860  137.2810 C   0  0  0  0  0  2  0  0  0  0  0  0
  184.2430  174.4690  136.0420 C   0  0  0  0  0  2  0  0  0  0  0  0
  183.2170  174.5930  135.1060 O   0  0  0  0  0  1  0  0  0  0  0  0
  1 24  1  6  0  0  0
  1  3  1  0  0  0  0
  3  2  1  0  0  0  0
  3 10  1  0  0  0  0
  4  1  1  0  0  0  0
  4  6  1  0  0  0  0
  5  4  1  0  0  0  0
  6  7  1  0  0  0  0
  6  2  1  0  0  0  0
  7 18  1  0  0  0  0
  7  2  1  0  0  0  0
  8  9  1  0  0  0  0
  9 11  1  0  0  0  0
 10  8  1  0  0  0  0
 10  9  1  0  0  0  0
 11 12  1  0  0  0  0
 12 13  1  0  0  0  0
 13 14  1  0  0  0  0
 13 15  1  0  0  0  0
 14 15  1  0  0  0  0
 16  4  1  0  0  0  0
 16 17  1  0  0  0  0
 19 20  1  0  0  0  0
 19 18  1  0  0  0  0
 20 21  2  0  0  0  0
 22 20  1  0  0  0  0
 23 22  1  0  0  0  0
 25 24  1  0  0  0  0
 25 28  1  0  0  0  0
 26 33  1  0  0  0  0
 26 35  1  0  0  0  0
 27 32  1  0  0  0  0
 28 27  2  0  0  0  0
 32 31  1  0  0  0  0
 32 30  2  0  0  0  0
 34 33  1  0  0  0  0
 34 27  1  0  0  0  0
 34 29  1  0  0  0  0
 35 31  1  0  0  0  0
 36 33  1  0  0  0  0
 37 36  1  0  0  0  0
M  END
>  <MODEL>
8

>  <REMARK>
 VINA RESULT:      -6.6      3.539      7.469
  Name = 
  12 active torsions:
  status: ('A' for Active; 'I' for Inactive)
    1  A    between atoms: C_1  and  N_5
    2  A    between atoms: C_1  and  C_36
    3  A    between atoms: C_3  and  N_32
    4  A    between atoms: C_4  and  C_22
    5  A    between atoms: C_7  and  C_33
    6  A    between atoms: C_8  and  C_31
    7  A    between atoms: C_10  and  O_14
    8  A    between atoms: C_12  and  C_17
    9  A    between atoms: O_14  and  C_31
   10  A    between atoms: C_16  and  C_30
   11  A    between atoms: C_20  and  C_24
   12  A    between atoms: C_30  and  N_32
                            x       y       z     vdW  Elec       q    Type
                         _______ _______ _______ _____ _____    ______ ____

>  <TORSDO>
F 12

$$$$
=
 OpenBabel10262423083D

 37 41  0  0  1  0  0  0  0  0999 V2000
  187.1530  177.9400  138.4440 C   0  0  2  0  0  3  0  0  0  0  0  0
  185.6140  177.3420  136.6300 C   0  0  1  0  0  3  0  0  0  0  0  0
  185.6780  177.7780  138.0860 C   0  0  2  0  0  3  0  0  0  0  0  0
  187.9990  177.4260  137.2720 C   0  0  1  0  0  0  0  0  0  0  0  0
  188.7550  176.2980  137.6110 O   0  0  0  0  0  1  0  0  0  0  0  0
  187.0320  177.0800  136.1420 C   0  0  1  0  0  3  0  0  0  0  0  0
  186.1190  175.9170  136.5030 C   0  0  2  0  0  3  0  0  0  0  0  0
  185.0320  179.4950  139.6120 O   0  0  0  0  0  0  0  0  0  0  0  0
  183.8170  178.9250  139.1920 C   0  0  2  0  0  3  0  0  0  0  0  0
  184.9540  179.0980  138.2630 C   0  0  2  0  0  3  0  0  0  0  0  0
  182.8030  180.0260  138.9670 C   0  0  0  0  0  2  0  0  0  0  0  0
  181.5140  179.6110  139.4880 N   0  0  0  0  0  2  0  0  0  0  0  0
  181.7790  178.7450  140.6220 C   0  0  0  0  0  3  0  0  0  0  0  0
  180.7160  178.9720  141.6780 C   0  0  0  0  0  2  0  0  0  0  0  0
  180.6360  177.7620  140.7740 C   0  0  0  0  0  2  0  0  0  0  0  0
  188.9290  178.5290  136.7900 C   0  0  0  0  0  2  0  0  0  0  0  0
  188.6240  179.7410  137.4150 O   0  0  0  0  0  1  0  0  0  0  0  0
  185.5750  175.2960  135.2310 C   0  0  0  0  0  2  0  0  0  0  0  0
  185.4780  173.8520  135.3870 N   0  0  0  0  0  2  0  0  0  0  0  0
  184.3360  173.2120  135.9610 C   0  0  0  0  0  0  0  0  0  0  0  0
  183.3660  173.8920  136.3910 O   0  0  0  0  0  0  0  0  0  0  0  0
  184.2830  171.7270  136.0310 C   0  0  0  0  0  2  0  0  0  0  0  0
  183.1280  171.2920  136.9100 C   0  0  0  0  0  1  0  0  0  0  0  0
  187.5270  177.4540  139.7230 O   0  0  0  0  0  0  0  0  0  0  0  0
  188.0730  178.5020  140.4840 C   0  0  0  0  0  2  0  0  0  0  0  0
  190.1230  178.5950  144.7270 C   0  0  0  0  0  2  0  0  0  0  0  0
  189.8910  177.6900  141.9740 C   0  0  0  0  0  0  0  0  0  0  0  0
  189.5010  178.2080  140.8050 C   0  0  0  0  0  3  0  0  0  0  0  0
  188.3530  176.0260  142.6980 O   0  0  0  0  0  1  0  0  0  0  0  0
  192.0080  176.9910  141.1740 O   0  0  0  0  0  0  0  0  0  0  0  0
  191.9500  177.4480  143.4460 N   0  0  0  0  0  2  0  0  0  0  0  0
  191.3230  177.3730  142.1610 C   0  0  0  0  0  0  0  0  0  0  0  0
  189.3440  177.3160  144.4560 C   0  0  2  0  0  3  0  0  0  0  0  0
  188.8560  177.2920  143.0070 C   0  0  1  0  0  3  0  0  0  0  0  0
  191.6220  178.4090  144.5000 C   0  0  0  0  0  2  0  0  0  0  0  0
  188.1490  177.2400  145.3930 C   0  0  0  0  0  2  0  0  0  0  0  0
  188.4560  177.8490  146.6090 O   0  0  0  0  0  1  0  0  0  0  0  0
  1 24  1  1  0  0  0
  2  3  1  0  0  0  0
  3 10  1  0  0  0  0
  3  1  1  0  0  0  0
  4  5  1  0  0  0  0
  4  1  1  0  0  0  0
  6  7  1  0  0  0  0
  6  2  1  0  0  0  0
  6  4  1  0  0  0  0
  7  2  1  0  0  0  0
  9  8  1  0  0  0  0
 10  9  1  0  0  0  0
 10  8  1  0  0  0  0
 11  9  1  0  0  0  0
 11 12  1  0  0  0  0
 12 13  1  0  0  0  0
 13 15  1  0  0  0  0
 13 14  1  0  0  0  0
 15 14  1  0  0  0  0
 16  4  1  0  0  0  0
 16 17  1  0  0  0  0
 18 19  1  0  0  0  0
 18  7  1  0  0  0  0
 19 20  1  0  0  0  0
 20 22  1  0  0  0  0
 20 21  2  0  0  0  0
 22 23  1  0  0  0  0
 24 25  1  0  0  0  0
 25 28  1  0  0  0  0
 27 32  1  0  0  0  0
 27 34  1  0  0  0  0
 28 27  2  0  0  0  0
 29 34  1  0  0  0  0
 30 32  2  0  0  0  0
 31 35  1  0  0  0  0
 32 31  1  0  0  0  0
 33 26  1  0  0  0  0
 33 36  1  0  0  0  0
 34 33  1  0  0  0  0
 35 26  1  0  0  0  0
 36 37  1  0  0  0  0
M  END
>  <MODEL>
9

>  <REMARK>
 VINA RESULT:      -6.5      3.049      7.944
  Name = 
  12 active torsions:
  status: ('A' for Active; 'I' for Inactive)
    1  A    between atoms: C_1  and  N_5
    2  A    between atoms: C_1  and  C_36
    3  A    between atoms: C_3  and  N_32
    4  A    between atoms: C_4  and  C_22
    5  A    between atoms: C_7  and  C_33
    6  A    between atoms: C_8  and  C_31
    7  A    between atoms: C_10  and  O_14
    8  A    between atoms: C_12  and  C_17
    9  A    between atoms: O_14  and  C_31
   10  A    between atoms: C_16  and  C_30
   11  A    between atoms: C_20  and  C_24
   12  A    between atoms: C_30  and  N_32
                            x       y       z     vdW  Elec       q    Type
                         _______ _______ _______ _____ _____    ______ ____

>  <TORSDO>
F 12

$$$$
