=
 OpenBabel10262420043D

 27 31  0  0  1  0  0  0  0  0999 V2000
  186.3750  178.0530  142.3620 C   0  0  0  0  0  3  0  0  0  0  0  0
  185.9220  178.2520  144.7960 C   0  0  0  0  0  0  0  0  0  0  0  0
  187.6470  176.5870  144.5140 O   0  0  0  0  0  0  0  0  0  0  0  0
  187.6240  179.1450  148.1690 N   0  0  0  0  0  0  0  0  0  0  0  0
  189.9870  178.4360  148.8440 C   0  0  0  0  0  1  0  0  0  0  0  0
  185.2350  179.2300  145.6940 C   0  0  0  0  0  3  0  0  0  0  0  0
  188.4530  177.2170  147.2880 C   0  0  0  0  0  0  0  0  0  0  0  0
  190.5810  176.9980  142.3290 C   0  0  0  0  0  3  0  0  0  0  0  0
  189.3580  176.0590  147.0360 C   0  0  0  0  0  1  0  0  0  0  0  0
  190.1410  177.9970  141.2980 C   0  0  0  0  0  2  0  0  0  0  0  0
  187.0440  177.3330  146.8100 C   0  0  1  0  0  3  0  0  0  0  0  0
  185.5050  178.2120  143.3680 C   0  0  0  0  0  0  0  0  0  0  0  0
  188.7070  178.2270  148.1100 C   0  0  0  0  0  0  0  0  0  0  0  0
  186.6880  178.6380  147.4370 C   0  0  0  0  0  0  0  0  0  0  0  0
  187.8200  177.7720  142.4280 C   0  0  0  0  0  0  0  0  0  0  0  0
  186.8740  177.4330  145.3110 C   0  0  0  0  0  0  0  0  0  0  0  0
  189.7730  176.5790  143.3020 C   0  0  0  0  0  3  0  0  0  0  0  0
  185.6170  179.4220  146.9220 N   0  0  0  0  0  0  0  0  0  0  0  0
  188.6510  178.1670  141.2660 C   0  0  0  0  0  0  0  0  0  0  0  0
  188.1210  178.7000  140.2550 O   0  0  0  0  0  0  0  0  0  0  0  0
  188.3700  177.0240  143.4030 C   0  0  0  0  0  0  0  0  0  0  0  0
  181.3870  178.8890  142.3210 C   0  0  0  0  0  3  0  0  0  0  0  0
  184.0770  178.4310  143.0100 C   0  0  0  0  0  0  0  0  0  0  0  0
  183.6620  178.3820  141.6680 C   0  0  0  0  0  3  0  0  0  0  0  0
  182.3260  178.6060  141.3260 C   0  0  0  0  0  3  0  0  0  0  0  0
  181.7850  178.9500  143.6580 C   0  0  0  0  0  3  0  0  0  0  0  0
  183.1210  178.7250  144.0010 C   0  0  0  0  0  3  0  0  0  0  0  0
  1 15  1  0  0  0  0
  1 12  2  0  0  0  0
  2 16  2  0  0  0  0
  2  6  1  0  0  0  0
  3 16  1  0  0  0  0
  6 18  2  0  0  0  0
  7 13  2  0  0  0  0
  8 17  2  0  0  0  0
  9  7  1  0  0  0  0
 10  8  1  0  0  0  0
 11 16  1  6  0  0  0
 11  7  1  0  0  0  0
 11 14  1  0  0  0  0
 12  2  1  0  0  0  0
 13  4  1  0  0  0  0
 13  5  1  0  0  0  0
 14  4  2  0  0  0  0
 15 21  2  0  0  0  0
 17 21  1  0  0  0  0
 18 14  1  0  0  0  0
 19 10  1  0  0  0  0
 19 15  1  0  0  0  0
 20 19  2  0  0  0  0
 21  3  1  0  0  0  0
 22 26  1  0  0  0  0
 23 12  1  0  0  0  0
 23 27  1  0  0  0  0
 24 23  2  0  0  0  0
 25 24  1  0  0  0  0
 25 22  2  0  0  0  0
 26 27  2  0  0  0  0
M  END
>  <MODEL>
1

>  <REMARK>
 VINA RESULT:      -9.7      0.000      0.000
  Name = 
  1 active torsions:
  status: ('A' for Active; 'I' for Inactive)
    1  A    between atoms: C_9  and  C_15
                            x       y       z     vdW  Elec       q    Type
                         _______ _______ _______ _____ _____    ______ ____

>  <TORSDO>
F 1

$$$$
=
 OpenBabel10262420043D

 27 31  0  0  1  0  0  0  0  0999 V2000
  189.5020  177.1420  140.4210 C   0  0  0  0  0  3  0  0  0  0  0  0
  187.6180  177.9230  141.8380 C   0  0  0  0  0  0  0  0  0  0  0  0
  187.3160  178.8770  139.6420 O   0  0  0  0  0  0  0  0  0  0  0  0
  183.7460  177.8420  142.1090 N   0  0  0  0  0  0  0  0  0  0  0  0
  182.1400  178.1000  140.1360 C   0  0  0  0  0  1  0  0  0  0  0  0
  187.0120  177.5300  143.1480 C   0  0  0  0  0  3  0  0  0  0  0  0
  184.4430  179.0590  140.3170 C   0  0  0  0  0  0  0  0  0  0  0  0
  187.6540  176.9870  136.5010 C   0  0  0  0  0  3  0  0  0  0  0  0
  184.4260  179.7800  139.0120 C   0  0  0  0  0  1  0  0  0  0  0  0
  188.5640  175.8440  136.8500 C   0  0  0  0  0  2  0  0  0  0  0  0
  185.5220  179.1560  141.3440 C   0  0  1  0  0  3  0  0  0  0  0  0
  189.0460  177.5730  141.6050 C   0  0  0  0  0  0  0  0  0  0  0  0
  183.4330  178.3670  140.8270 C   0  0  0  0  0  0  0  0  0  0  0  0
  184.9230  178.2900  142.3990 C   0  0  0  0  0  0  0  0  0  0  0  0
  188.7870  177.0420  139.1370 C   0  0  0  0  0  0  0  0  0  0  0  0
  186.8620  178.5910  140.9310 C   0  0  0  0  0  0  0  0  0  0  0  0
  187.3020  177.9120  137.3940 C   0  0  0  0  0  3  0  0  0  0  0  0
  185.7440  177.6830  143.3910 N   0  0  0  0  0  0  0  0  0  0  0  0
  189.2930  176.0680  138.1420 C   0  0  0  0  0  0  0  0  0  0  0  0
  190.3150  175.3750  138.3900 O   0  0  0  0  0  0  0  0  0  0  0  0
  187.8240  177.9110  138.7730 C   0  0  0  0  0  0  0  0  0  0  0  0
  191.8060  177.7090  144.9010 C   0  0  0  0  0  3  0  0  0  0  0  0
  190.0120  177.6220  142.7350 C   0  0  0  0  0  0  0  0  0  0  0  0
  190.4510  176.4380  143.3510 C   0  0  0  0  0  3  0  0  0  0  0  0
  191.3430  176.4800  144.4250 C   0  0  0  0  0  3  0  0  0  0  0  0
  191.3740  178.8950  144.3050 C   0  0  0  0  0  3  0  0  0  0  0  0
  190.4810  178.8530  143.2310 C   0  0  0  0  0  3  0  0  0  0  0  0
  1 12  2  0  0  0  0
  2  6  1  0  0  0  0
  3 16  1  0  0  0  0
  4 14  2  0  0  0  0
  5 13  1  0  0  0  0
  6 18  2  0  0  0  0
  7 13  2  0  0  0  0
  8 10  1  0  0  0  0
  8 17  2  0  0  0  0
  9  7  1  0  0  0  0
 10 19  1  0  0  0  0
 11  7  1  6  0  0  0
 11 14  1  0  0  0  0
 12  2  1  0  0  0  0
 12 23  1  0  0  0  0
 13  4  1  0  0  0  0
 14 18  1  0  0  0  0
 15  1  1  0  0  0  0
 16 11  1  0  0  0  0
 16  2  2  0  0  0  0
 17 21  1  0  0  0  0
 19 20  2  0  0  0  0
 19 15  1  0  0  0  0
 21 15  2  0  0  0  0
 21  3  1  0  0  0  0
 23 27  2  0  0  0  0
 23 24  1  0  0  0  0
 24 25  2  0  0  0  0
 25 22  1  0  0  0  0
 26 22  2  0  0  0  0
 27 26  1  0  0  0  0
M  END
>  <MODEL>
2

>  <REMARK>
 VINA RESULT:      -9.2      2.925      6.818
  Name = 
  1 active torsions:
  status: ('A' for Active; 'I' for Inactive)
    1  A    between atoms: C_9  and  C_15
                            x       y       z     vdW  Elec       q    Type
                         _______ _______ _______ _____ _____    ______ ____

>  <TORSDO>
F 1

$$$$
=
 OpenBabel10262420043D

 27 31  0  0  1  0  0  0  0  0999 V2000
  188.7920  177.3000  140.1380 C   0  0  0  0  0  3  0  0  0  0  0  0
  191.1800  176.7270  139.7640 C   0  0  0  0  0  0  0  0  0  0  0  0
  189.8720  175.4440  138.1940 O   0  0  0  0  0  0  0  0  0  0  0  0
  193.9660  176.8070  137.0630 N   0  0  0  0  0  0  0  0  0  0  0  0
  193.6220  176.2320  134.5940 C   0  0  0  0  0  1  0  0  0  0  0  0
  192.5050  177.3090  140.1370 C   0  0  0  0  0  3  0  0  0  0  0  0
  192.3130  175.3370  136.5290 C   0  0  0  0  0  0  0  0  0  0  0  0
  187.1370  176.8320  136.1570 C   0  0  0  0  0  3  0  0  0  0  0  0
  191.4440  174.4240  135.7330 C   0  0  0  0  0  1  0  0  0  0  0  0
  186.6610  178.0240  136.9360 C   0  0  0  0  0  2  0  0  0  0  0  0
  192.3540  175.4110  138.0190 C   0  0  1  0  0  3  0  0  0  0  0  0
  190.0130  177.0520  140.6300 C   0  0  0  0  0  0  0  0  0  0  0  0
  193.2910  176.0880  136.0400 C   0  0  0  0  0  0  0  0  0  0  0  0
  193.4370  176.4220  138.1760 C   0  0  0  0  0  0  0  0  0  0  0  0
  188.3190  177.1940  138.7470 C   0  0  0  0  0  0  0  0  0  0  0  0
  191.0920  175.9190  138.6780 C   0  0  0  0  0  0  0  0  0  0  0  0
  188.1280  176.0510  136.5890 C   0  0  0  0  0  3  0  0  0  0  0  0
  193.5500  177.1830  139.3750 N   0  0  0  0  0  0  0  0  0  0  0  0
  187.1440  178.0090  138.3560 C   0  0  0  0  0  0  0  0  0  0  0  0
  186.5670  178.7430  139.2020 O   0  0  0  0  0  0  0  0  0  0  0  0
  188.7900  176.2700  137.8890 C   0  0  0  0  0  0  0  0  0  0  0  0
  190.5940  177.4600  144.8730 C   0  0  0  0  0  3  0  0  0  0  0  0
  190.2000  177.1870  142.1000 C   0  0  0  0  0  0  0  0  0  0  0  0
  190.0290  178.4310  142.7290 C   0  0  0  0  0  3  0  0  0  0  0  0
  190.2220  178.5670  144.1070 C   0  0  0  0  0  3  0  0  0  0  0  0
  190.7760  176.2180  144.2610 C   0  0  0  0  0  3  0  0  0  0  0  0
  190.5830  176.0820  142.8830 C   0  0  0  0  0  3  0  0  0  0  0  0
  1 12  2  0  0  0  0
  2  6  1  0  0  0  0
  2 12  1  0  0  0  0
  3 16  1  0  0  0  0
  4 14  2  0  0  0  0
  5 13  1  0  0  0  0
  8 17  2  0  0  0  0
  8 10  1  0  0  0  0
  9  7  1  0  0  0  0
 10 19  1  0  0  0  0
 11  7  1  6  0  0  0
 11 14  1  0  0  0  0
 11 16  1  0  0  0  0
 12 23  1  0  0  0  0
 13  7  2  0  0  0  0
 13  4  1  0  0  0  0
 14 18  1  0  0  0  0
 15  1  1  0  0  0  0
 16  2  2  0  0  0  0
 17 21  1  0  0  0  0
 18  6  2  0  0  0  0
 19 15  1  0  0  0  0
 19 20  2  0  0  0  0
 21  3  1  0  0  0  0
 21 15  2  0  0  0  0
 23 24  2  0  0  0  0
 23 27  1  0  0  0  0
 24 25  1  0  0  0  0
 25 22  2  0  0  0  0
 26 22  1  0  0  0  0
 27 26  2  0  0  0  0
M  END
>  <MODEL>
3

>  <REMARK>
 VINA RESULT:      -8.9      5.163      8.778
  Name = 
  1 active torsions:
  status: ('A' for Active; 'I' for Inactive)
    1  A    between atoms: C_9  and  C_15
                            x       y       z     vdW  Elec       q    Type
                         _______ _______ _______ _____ _____    ______ ____

>  <TORSDO>
F 1

$$$$
=
 OpenBabel10262420043D

 27 31  0  0  1  0  0  0  0  0999 V2000
  183.9320  178.6520  142.9490 C   0  0  0  0  0  3  0  0  0  0  0  0
  183.0610  178.1790  140.6710 C   0  0  0  0  0  0  0  0  0  0  0  0
  185.2580  179.1480  140.4210 O   0  0  0  0  0  0  0  0  0  0  0  0
  183.8230  176.1350  137.4610 N   0  0  0  0  0  0  0  0  0  0  0  0
  186.1500  175.8250  136.4460 C   0  0  0  0  0  1  0  0  0  0  0  0
  181.9590  177.3600  140.0810 C   0  0  0  0  0  3  0  0  0  0  0  0
  185.3650  177.7720  137.8060 C   0  0  0  0  0  0  0  0  0  0  0  0
  188.2010  178.1380  142.3880 C   0  0  0  0  0  3  0  0  0  0  0  0
  186.6280  178.5610  137.7110 C   0  0  0  0  0  1  0  0  0  0  0  0
  187.6270  177.5680  143.6530 C   0  0  0  0  0  2  0  0  0  0  0  0
  184.0890  178.2530  138.4140 C   0  0  1  0  0  3  0  0  0  0  0  0
  182.9110  178.6280  142.0830 C   0  0  0  0  0  0  0  0  0  0  0  0
  185.1420  176.6040  137.2180 C   0  0  0  0  0  0  0  0  0  0  0  0
  183.2320  177.0670  138.1330 C   0  0  0  0  0  0  0  0  0  0  0  0
  185.3590  178.3870  142.7000 C   0  0  0  0  0  0  0  0  0  0  0  0
  184.1350  178.4990  139.9050 C   0  0  0  0  0  0  0  0  0  0  0  0
  187.4320  178.6280  141.4160 C   0  0  0  0  0  3  0  0  0  0  0  0
  182.0590  176.8210  138.9020 N   0  0  0  0  0  0  0  0  0  0  0  0
  186.1880  177.9450  143.8470 C   0  0  0  0  0  0  0  0  0  0  0  0
  185.6790  177.8310  144.9940 O   0  0  0  0  0  0  0  0  0  0  0  0
  185.9630  178.6970  141.5370 C   0  0  0  0  0  0  0  0  0  0  0  0
  179.0060  179.6550  143.5670 C   0  0  0  0  0  3  0  0  0  0  0  0
  181.5650  178.9970  142.6000 C   0  0  0  0  0  0  0  0  0  0  0  0
  181.1380  178.5490  143.8620 C   0  0  0  0  0  3  0  0  0  0  0  0
  179.8680  178.8780  144.3430 C   0  0  0  0  0  3  0  0  0  0  0  0
  179.4120  180.1020  142.3070 C   0  0  0  0  0  3  0  0  0  0  0  0
  180.6820  179.7730  141.8260 C   0  0  0  0  0  3  0  0  0  0  0  0
  2 12  1  0  0  0  0
  3 21  1  0  0  0  0
  4 14  2  0  0  0  0
  5 13  1  0  0  0  0
  6  2  1  0  0  0  0
  8 10  1  0  0  0  0
  9  7  1  0  0  0  0
 10 19  1  0  0  0  0
 11  7  1  1  0  0  0
 11 16  1  0  0  0  0
 12 23  1  0  0  0  0
 12  1  2  0  0  0  0
 13  4  1  0  0  0  0
 13  7  2  0  0  0  0
 14 11  1  0  0  0  0
 14 18  1  0  0  0  0
 15  1  1  0  0  0  0
 15 19  1  0  0  0  0
 16  3  1  0  0  0  0
 16  2  2  0  0  0  0
 17 21  1  0  0  0  0
 17  8  2  0  0  0  0
 18  6  2  0  0  0  0
 19 20  2  0  0  0  0
 21 15  2  0  0  0  0
 22 25  1  0  0  0  0
 23 24  1  0  0  0  0
 24 25  2  0  0  0  0
 26 22  2  0  0  0  0
 27 26  1  0  0  0  0
 27 23  2  0  0  0  0
M  END
>  <MODEL>
4

>  <REMARK>
 VINA RESULT:      -8.8      3.678      6.722
  Name = 
  1 active torsions:
  status: ('A' for Active; 'I' for Inactive)
    1  A    between atoms: C_9  and  C_15
                            x       y       z     vdW  Elec       q    Type
                         _______ _______ _______ _____ _____    ______ ____

>  <TORSDO>
F 1

$$$$
=
 OpenBabel10262420043D

 27 31  0  0  1  0  0  0  0  0999 V2000
  184.8190  178.8950  141.2470 C   0  0  0  0  0  3  0  0  0  0  0  0
  185.2160  178.1840  138.9010 C   0  0  0  0  0  0  0  0  0  0  0  0
  187.3460  178.8370  139.8310 O   0  0  0  0  0  0  0  0  0  0  0  0
  187.1730  175.5940  136.7710 N   0  0  0  0  0  0  0  0  0  0  0  0
  189.5810  174.8590  137.2180 C   0  0  0  0  0  1  0  0  0  0  0  0
  184.4660  177.4190  137.8590 C   0  0  0  0  0  3  0  0  0  0  0  0
  188.5670  177.0710  137.7970 C   0  0  0  0  0  0  0  0  0  0  0  0
  188.5600  177.8000  143.1480 C   0  0  0  0  0  3  0  0  0  0  0  0
  189.8080  177.6810  138.3570 C   0  0  0  0  0  1  0  0  0  0  0  0
  187.3100  177.5040  143.9270 C   0  0  0  0  0  2  0  0  0  0  0  0
  187.2760  177.7870  137.5750 C   0  0  1  0  0  3  0  0  0  0  0  0
  184.4260  178.8590  139.9670 C   0  0  0  0  0  0  0  0  0  0  0  0
  188.4800  175.8620  137.2600 C   0  0  0  0  0  0  0  0  0  0  0  0
  186.4980  176.6810  136.9490 C   0  0  0  0  0  0  0  0  0  0  0  0
  186.0850  178.4280  141.8370 C   0  0  0  0  0  0  0  0  0  0  0  0
  186.5690  178.2520  138.8280 C   0  0  0  0  0  0  0  0  0  0  0  0
  188.5260  178.2220  141.8850 C   0  0  0  0  0  3  0  0  0  0  0  0
  185.0740  176.6980  136.9640 N   0  0  0  0  0  0  0  0  0  0  0  0
  186.0830  178.0740  143.2770 C   0  0  0  0  0  0  0  0  0  0  0  0
  185.0340  178.1980  143.9630 O   0  0  0  0  0  0  0  0  0  0  0  0
  187.2570  178.4830  141.1780 C   0  0  0  0  0  0  0  0  0  0  0  0
  180.6170  180.6310  139.0430 C   0  0  0  0  0  3  0  0  0  0  0  0
  183.1050  179.4600  139.6380 C   0  0  0  0  0  0  0  0  0  0  0  0
  183.0130  180.5190  138.7190 C   0  0  0  0  0  3  0  0  0  0  0  0
  181.7770  181.1000  138.4210 C   0  0  0  0  0  3  0  0  0  0  0  0
  180.6940  179.5850  139.9650 C   0  0  0  0  0  3  0  0  0  0  0  0
  181.9290  179.0040  140.2620 C   0  0  0  0  0  3  0  0  0  0  0  0
  1 15  1  0  0  0  0
  2 12  1  0  0  0  0
  3 21  1  0  0  0  0
  4 14  2  0  0  0  0
  4 13  1  0  0  0  0
  5 13  1  0  0  0  0
  6  2  1  0  0  0  0
  7  9  1  0  0  0  0
  8 10  1  0  0  0  0
 11 14  1  1  0  0  0
 11  7  1  0  0  0  0
 11 16  1  0  0  0  0
 12  1  2  0  0  0  0
 13  7  2  0  0  0  0
 14 18  1  0  0  0  0
 15 19  1  0  0  0  0
 16  2  2  0  0  0  0
 16  3  1  0  0  0  0
 17  8  2  0  0  0  0
 18  6  2  0  0  0  0
 19 10  1  0  0  0  0
 19 20  2  0  0  0  0
 21 15  2  0  0  0  0
 21 17  1  0  0  0  0
 22 26  1  0  0  0  0
 23 12  1  0  0  0  0
 23 27  1  0  0  0  0
 24 23  2  0  0  0  0
 25 24  1  0  0  0  0
 25 22  2  0  0  0  0
 26 27  2  0  0  0  0
M  END
>  <MODEL>
5

>  <REMARK>
 VINA RESULT:      -8.3      4.063      6.768
  Name = 
  1 active torsions:
  status: ('A' for Active; 'I' for Inactive)
    1  A    between atoms: C_9  and  C_15
                            x       y       z     vdW  Elec       q    Type
                         _______ _______ _______ _____ _____    ______ ____

>  <TORSDO>
F 1

$$$$
=
 OpenBabel10262420043D

 27 31  0  0  1  0  0  0  0  0999 V2000
  184.4440  178.9580  141.1590 C   0  0  0  0  0  3  0  0  0  0  0  0
  184.7430  178.2170  138.8070 C   0  0  0  0  0  0  0  0  0  0  0  0
  186.9210  178.8040  139.6650 O   0  0  0  0  0  0  0  0  0  0  0  0
  186.5430  175.5480  136.6380 N   0  0  0  0  0  0  0  0  0  0  0  0
  188.9380  174.7350  137.0150 C   0  0  0  0  0  1  0  0  0  0  0  0
  183.9340  177.4700  137.7960 C   0  0  0  0  0  3  0  0  0  0  0  0
  188.0180  176.9840  137.6080 C   0  0  0  0  0  0  0  0  0  0  0  0
  188.2040  177.7510  142.9510 C   0  0  0  0  0  3  0  0  0  0  0  0
  189.2950  177.5560  138.1240 C   0  0  0  0  0  1  0  0  0  0  0  0
  186.9700  177.5020  143.7700 C   0  0  0  0  0  2  0  0  0  0  0  0
  186.7450  177.7420  137.4210 C   0  0  1  0  0  3  0  0  0  0  0  0
  184.0100  178.9250  139.8920 C   0  0  0  0  0  0  0  0  0  0  0  0
  187.8730  175.7750  137.0830 C   0  0  0  0  0  0  0  0  0  0  0  0
  185.9100  176.6580  136.8280 C   0  0  0  0  0  0  0  0  0  0  0  0
  185.7120  178.4520  141.7130 C   0  0  0  0  0  0  0  0  0  0  0  0
  186.0940  178.2390  138.6920 C   0  0  0  0  0  0  0  0  0  0  0  0
  188.1440  178.1650  141.6850 C   0  0  0  0  0  3  0  0  0  0  0  0
  184.4890  176.7230  136.8880 N   0  0  0  0  0  0  0  0  0  0  0  0
  185.7440  178.1090  143.1550 C   0  0  0  0  0  0  0  0  0  0  0  0
  184.7210  178.2730  143.8720 O   0  0  0  0  0  0  0  0  0  0  0  0
  186.8630  178.4630  141.0160 C   0  0  0  0  0  0  0  0  0  0  0  0
  180.2130  180.7500  139.0200 C   0  0  0  0  0  3  0  0  0  0  0  0
  182.7000  179.5680  139.6000 C   0  0  0  0  0  0  0  0  0  0  0  0
  181.5230  179.0990  140.2080 C   0  0  0  0  0  3  0  0  0  0  0  0
  180.2880  179.6870  139.9230 C   0  0  0  0  0  3  0  0  0  0  0  0
  181.3720  181.2230  138.4010 C   0  0  0  0  0  3  0  0  0  0  0  0
  182.6070  180.6350  138.6860 C   0  0  0  0  0  3  0  0  0  0  0  0
  1 15  1  0  0  0  0
  2 12  1  0  0  0  0
  3 21  1  0  0  0  0
  4 14  2  0  0  0  0
  4 13  1  0  0  0  0
  5 13  1  0  0  0  0
  6  2  1  0  0  0  0
  7  9  1  0  0  0  0
  8 10  1  0  0  0  0
 11 14  1  1  0  0  0
 11  7  1  0  0  0  0
 11 16  1  0  0  0  0
 12  1  2  0  0  0  0
 13  7  2  0  0  0  0
 14 18  1  0  0  0  0
 15 19  1  0  0  0  0
 16  2  2  0  0  0  0
 16  3  1  0  0  0  0
 17  8  2  0  0  0  0
 18  6  2  0  0  0  0
 19 10  1  0  0  0  0
 19 20  2  0  0  0  0
 21 17  1  0  0  0  0
 21 15  2  0  0  0  0
 22 25  1  0  0  0  0
 23 12  1  0  0  0  0
 23 24  1  0  0  0  0
 25 24  2  0  0  0  0
 26 27  1  0  0  0  0
 26 22  2  0  0  0  0
 27 23  2  0  0  0  0
M  END
>  <MODEL>
6

>  <REMARK>
 VINA RESULT:      -8.2      4.204      6.974
  Name = 
  1 active torsions:
  status: ('A' for Active; 'I' for Inactive)
    1  A    between atoms: C_9  and  C_15
                            x       y       z     vdW  Elec       q    Type
                         _______ _______ _______ _____ _____    ______ ____

>  <TORSDO>
F 1

$$$$
=
 OpenBabel10262420043D

 27 31  0  0  1  0  0  0  0  0999 V2000
  189.3760  177.6080  140.6860 C   0  0  0  0  0  3  0  0  0  0  0  0
  187.0830  178.2290  141.4110 C   0  0  0  0  0  0  0  0  0  0  0  0
  187.9330  176.6190  142.9960 O   0  0  0  0  0  0  0  0  0  0  0  0
  185.1230  179.7990  144.3700 N   0  0  0  0  0  0  0  0  0  0  0  0
  185.5890  179.3320  146.8410 C   0  0  0  0  0  1  0  0  0  0  0  0
  186.1100  179.3230  141.1090 C   0  0  0  0  0  3  0  0  0  0  0  0
  186.0180  177.7820  144.9250 C   0  0  0  0  0  0  0  0  0  0  0  0
  191.3010  176.7540  144.4770 C   0  0  0  0  0  3  0  0  0  0  0  0
  186.5140  176.6390  145.7440 C   0  0  0  0  0  1  0  0  0  0  0  0
  192.1160  177.5260  143.4800 C   0  0  0  0  0  2  0  0  0  0  0  0
  185.7620  177.7460  143.4550 C   0  0  1  0  0  3  0  0  0  0  0  0
  188.1070  177.9090  140.3790 C   0  0  0  0  0  0  0  0  0  0  0  0
  185.5720  178.9360  145.4050 C   0  0  0  0  0  0  0  0  0  0  0  0
  185.2290  179.1250  143.2730 C   0  0  0  0  0  0  0  0  0  0  0  0
  189.9810  177.4080  142.0140 C   0  0  0  0  0  0  0  0  0  0  0  0
  186.9870  177.5610  142.5880 C   0  0  0  0  0  0  0  0  0  0  0  0
  190.0100  176.4840  144.2820 C   0  0  0  0  0  3  0  0  0  0  0  0
  185.2630  179.7530  141.9960 N   0  0  0  0  0  0  0  0  0  0  0  0
  191.4430  177.6200  142.1420 C   0  0  0  0  0  0  0  0  0  0  0  0
  192.1320  177.9350  141.1360 O   0  0  0  0  0  0  0  0  0  0  0  0
  189.3030  176.8770  143.0480 C   0  0  0  0  0  0  0  0  0  0  0  0
  187.0780  178.2030  136.2120 C   0  0  0  0  0  3  0  0  0  0  0  0
  187.7530  177.9950  138.9360 C   0  0  0  0  0  0  0  0  0  0  0  0
  188.6910  178.4600  137.9980 C   0  0  0  0  0  3  0  0  0  0  0  0
  188.3570  178.5610  136.6450 C   0  0  0  0  0  3  0  0  0  0  0  0
  186.1320  177.7470  137.1330 C   0  0  0  0  0  3  0  0  0  0  0  0
  186.4660  177.6460  138.4870 C   0  0  0  0  0  3  0  0  0  0  0  0
  1 15  1  0  0  0  0
  2 16  2  0  0  0  0
  3 21  1  0  0  0  0
  4 13  1  0  0  0  0
  6  2  1  0  0  0  0
  6 18  2  0  0  0  0
  7 13  2  0  0  0  0
  7  9  1  0  0  0  0
 10  8  1  0  0  0  0
 11 16  1  6  0  0  0
 11  7  1  0  0  0  0
 12  1  2  0  0  0  0
 12  2  1  0  0  0  0
 13  5  1  0  0  0  0
 14 11  1  0  0  0  0
 14  4  2  0  0  0  0
 15 19  1  0  0  0  0
 15 21  2  0  0  0  0
 16  3  1  0  0  0  0
 17  8  2  0  0  0  0
 18 14  1  0  0  0  0
 19 10  1  0  0  0  0
 20 19  2  0  0  0  0
 21 17  1  0  0  0  0
 22 25  2  0  0  0  0
 22 26  1  0  0  0  0
 23 12  1  0  0  0  0
 24 23  2  0  0  0  0
 25 24  1  0  0  0  0
 26 27  2  0  0  0  0
 27 23  1  0  0  0  0
M  END
>  <MODEL>
7

>  <REMARK>
 VINA RESULT:      -8.1      2.560      4.574
  Name = 
  1 active torsions:
  status: ('A' for Active; 'I' for Inactive)
    1  A    between atoms: C_9  and  C_15
                            x       y       z     vdW  Elec       q    Type
                         _______ _______ _______ _____ _____    ______ ____

>  <TORSDO>
F 1

$$$$
=
 OpenBabel10262420043D

 27 31  0  0  1  0  0  0  0  0999 V2000
  187.3390  177.8960  142.5270 C   0  0  0  0  0  3  0  0  0  0  0  0
  185.3790  178.0720  141.0110 C   0  0  0  0  0  0  0  0  0  0  0  0
  187.2940  178.9310  139.8210 O   0  0  0  0  0  0  0  0  0  0  0  0
  184.0430  176.8630  137.5730 N   0  0  0  0  0  0  0  0  0  0  0  0
  185.4510  176.6720  135.4460 C   0  0  0  0  0  1  0  0  0  0  0  0
  183.9990  177.5000  140.9540 C   0  0  0  0  0  3  0  0  0  0  0  0
  185.8270  178.2580  137.3440 C   0  0  0  0  0  0  0  0  0  0  0  0
  190.5790  177.2710  139.7130 C   0  0  0  0  0  3  0  0  0  0  0  0
  186.9950  178.9630  136.7420 C   0  0  0  0  0  1  0  0  0  0  0  0
  190.6160  176.4370  140.9610 C   0  0  0  0  0  2  0  0  0  0  0  0
  185.1390  178.6490  138.6100 C   0  0  1  0  0  3  0  0  0  0  0  0
  186.0380  178.1570  142.3430 C   0  0  0  0  0  0  0  0  0  0  0  0
  185.1270  177.2940  136.7610 C   0  0  0  0  0  0  0  0  0  0  0  0
  184.0520  177.6290  138.6130 C   0  0  0  0  0  0  0  0  0  0  0  0
  188.3740  177.6130  141.5180 C   0  0  0  0  0  0  0  0  0  0  0  0
  185.9660  178.5060  139.8670 C   0  0  0  0  0  0  0  0  0  0  0  0
  189.5340  178.0390  139.4030 C   0  0  0  0  0  3  0  0  0  0  0  0
  183.3960  177.2720  139.8250 N   0  0  0  0  0  0  0  0  0  0  0  0
  189.5650  176.8440  141.9510 C   0  0  0  0  0  0  0  0  0  0  0  0
  189.6840  176.4750  143.1500 O   0  0  0  0  0  0  0  0  0  0  0  0
  188.3640  178.1690  140.2910 C   0  0  0  0  0  0  0  0  0  0  0  0
  183.6800  179.0130  145.8390 C   0  0  0  0  0  3  0  0  0  0  0  0
  185.2250  178.4680  143.5500 C   0  0  0  0  0  0  0  0  0  0  0  0
  185.7670  178.3070  144.8370 C   0  0  0  0  0  3  0  0  0  0  0  0
  185.0020  178.5800  145.9730 C   0  0  0  0  0  3  0  0  0  0  0  0
  183.1240  179.1700  144.5670 C   0  0  0  0  0  3  0  0  0  0  0  0
  183.8900  178.8980  143.4300 C   0  0  0  0  0  3  0  0  0  0  0  0
  2 12  1  0  0  0  0
  3 16  1  0  0  0  0
  3 21  1  0  0  0  0
  4 14  2  0  0  0  0
  5 13  1  0  0  0  0
  6  2  1  0  0  0  0
  8 10  1  0  0  0  0
  9  7  1  0  0  0  0
 10 19  1  0  0  0  0
 11  7  1  6  0  0  0
 11 14  1  0  0  0  0
 11 16  1  0  0  0  0
 12  1  2  0  0  0  0
 12 23  1  0  0  0  0
 13  7  2  0  0  0  0
 13  4  1  0  0  0  0
 14 18  1  0  0  0  0
 15 19  1  0  0  0  0
 15  1  1  0  0  0  0
 16  2  2  0  0  0  0
 17  8  2  0  0  0  0
 17 21  1  0  0  0  0
 18  6  2  0  0  0  0
 19 20  2  0  0  0  0
 21 15  2  0  0  0  0
 22 25  1  0  0  0  0
 23 24  1  0  0  0  0
 24 25  2  0  0  0  0
 26 22  2  0  0  0  0
 27 23  2  0  0  0  0
 27 26  1  0  0  0  0
M  END
>  <MODEL>
8

>  <REMARK>
 VINA RESULT:      -8.0      3.506      6.522
  Name = 
  1 active torsions:
  status: ('A' for Active; 'I' for Inactive)
    1  A    between atoms: C_9  and  C_15
                            x       y       z     vdW  Elec       q    Type
                         _______ _______ _______ _____ _____    ______ ____

>  <TORSDO>
F 1

$$$$
=
 OpenBabel10262420043D

 27 31  0  0  1  0  0  0  0  0999 V2000
  188.1000  177.7310  142.7630 C   0  0  0  0  0  3  0  0  0  0  0  0
  185.7880  178.1050  141.9340 C   0  0  0  0  0  0  0  0  0  0  0  0
  187.3030  179.0210  140.2930 O   0  0  0  0  0  0  0  0  0  0  0  0
  183.4180  177.2680  138.9760 N   0  0  0  0  0  0  0  0  0  0  0  0
  184.1110  177.2420  136.5130 C   0  0  0  0  0  1  0  0  0  0  0  0
  184.4250  177.5790  142.2510 C   0  0  0  0  0  3  0  0  0  0  0  0
  185.1250  178.6280  138.3320 C   0  0  0  0  0  0  0  0  0  0  0  0
  190.3070  177.2880  139.0560 C   0  0  0  0  0  3  0  0  0  0  0  0
  186.0970  179.3550  137.4650 C   0  0  0  0  0  1  0  0  0  0  0  0
  190.6710  176.3380  140.1610 C   0  0  0  0  0  2  0  0  0  0  0  0
  184.8710  178.9150  139.7750 C   0  0  1  0  0  3  0  0  0  0  0  0
  186.8200  178.0440  143.0050 C   0  0  0  0  0  0  0  0  0  0  0  0
  184.2310  177.7440  137.9110 C   0  0  0  0  0  0  0  0  0  0  0  0
  183.7810  177.9310  140.0230 C   0  0  0  0  0  0  0  0  0  0  0  0
  188.7670  177.5170  141.4670 C   0  0  0  0  0  0  0  0  0  0  0  0
  186.0280  178.6300  140.7060 C   0  0  0  0  0  0  0  0  0  0  0  0
  189.2620  178.1110  139.1430 C   0  0  0  0  0  3  0  0  0  0  0  0
  183.5000  177.4780  141.3440 N   0  0  0  0  0  0  0  0  0  0  0  0
  189.9890  176.6770  141.4540 C   0  0  0  0  0  0  0  0  0  0  0  0
  190.4410  176.1920  142.5250 O   0  0  0  0  0  0  0  0  0  0  0  0
  188.4210  178.1870  140.3520 C   0  0  0  0  0  0  0  0  0  0  0  0
  185.6670  178.6280  147.1080 C   0  0  0  0  0  3  0  0  0  0  0  0
  186.4250  178.2610  144.4230 C   0  0  0  0  0  0  0  0  0  0  0  0
  187.2820  177.8780  145.4690 C   0  0  0  0  0  3  0  0  0  0  0  0
  186.9070  178.0620  146.8030 C   0  0  0  0  0  3  0  0  0  0  0  0
  184.8010  179.0060  146.0800 C   0  0  0  0  0  3  0  0  0  0  0  0
  185.1750  178.8220  144.7470 C   0  0  0  0  0  3  0  0  0  0  0  0
  1 12  2  0  0  0  0
  2  6  1  0  0  0  0
  2 12  1  0  0  0  0
  3 21  1  0  0  0  0
  3 16  1  0  0  0  0
  4 14  2  0  0  0  0
  5 13  1  0  0  0  0
  8 17  2  0  0  0  0
  8 10  1  0  0  0  0
  9  7  1  0  0  0  0
 10 19  1  0  0  0  0
 11  7  1  6  0  0  0
 11 14  1  0  0  0  0
 11 16  1  0  0  0  0
 12 23  1  0  0  0  0
 13  7  2  0  0  0  0
 13  4  1  0  0  0  0
 14 18  1  0  0  0  0
 15  1  1  0  0  0  0
 16  2  2  0  0  0  0
 17 21  1  0  0  0  0
 18  6  2  0  0  0  0
 19 15  1  0  0  0  0
 19 20  2  0  0  0  0
 21 15  2  0  0  0  0
 23 27  2  0  0  0  0
 23 24  1  0  0  0  0
 24 25  2  0  0  0  0
 25 22  1  0  0  0  0
 26 22  2  0  0  0  0
 27 26  1  0  0  0  0
M  END
>  <MODEL>
9

>  <REMARK>
 VINA RESULT:      -7.5      2.973      6.314
  Name = 
  1 active torsions:
  status: ('A' for Active; 'I' for Inactive)
    1  A    between atoms: C_9  and  C_15
                            x       y       z     vdW  Elec       q    Type
                         _______ _______ _______ _____ _____    ______ ____

>  <TORSDO>
F 1

$$$$
