=
 OpenBabel10262420183D

 55 63  0  0  1  0  0  0  0  0999 V2000
  181.5440  174.9480  137.9760 C   0  0  0  0  0  2  0  0  0  0  0  0
  193.0690  175.9830  139.5830 O   0  0  0  0  0  1  0  0  0  0  0  0
  186.3990  179.0690  137.5880 C   0  0  0  0  0  2  0  0  0  0  0  0
  184.9030  179.2190  140.2780 C   0  0  0  0  0  1  0  0  0  0  0  0
  190.7370  176.1970  138.1730 O   0  0  0  0  0  0  0  0  0  0  0  0
  189.0020  176.2120  136.8880 C   0  0  2  0  0  3  0  0  0  0  0  0
  187.4320  177.3680  135.4040 C   0  0  0  0  0  2  0  0  0  0  0  0
  181.8300  177.8670  141.6620 O   0  0  0  0  0  0  0  0  0  0  0  0
  192.9270  177.0150  137.3920 C   0  0  0  0  0  2  0  0  0  0  0  0
  191.8820  175.9050  137.4090 C   0  0  1  0  0  0  0  0  0  0  0  0
  181.9990  178.7130  142.7820 C   0  0  0  0  0  2  0  0  0  0  0  0
  180.4720  179.3770  140.3700 C   0  0  1  0  0  3  0  0  0  0  0  0
  179.9540  179.8240  141.7430 C   0  0  0  0  0  2  0  0  0  0  0  0
  183.6060  177.1780  139.5170 C   0  0  0  0  0  2  0  0  0  0  0  0
  189.3350  175.8650  135.4370 C   0  0  1  0  0  3  0  0  0  0  0  0
  188.6240  176.8990  134.5940 C   0  0  0  0  0  2  0  0  0  0  0  0
  181.0670  179.9450  142.7860 C   0  0  0  0  0  2  0  0  0  0  0  0
  183.6300  172.0940  136.5960 C   0  0  0  0  0  3  0  0  0  0  0  0
  181.8420  178.6880  140.5210 C   0  0  2  0  0  3  0  0  0  0  0  0
  184.9800  174.1090  136.5790 C   0  0  0  0  0  0  0  0  0  0  0  0
  181.5980  176.2990  137.6110 O   0  0  0  0  0  0  0  0  0  0  0  0
  183.8900  174.8280  137.0850 C   0  0  0  0  0  3  0  0  0  0  0  0
  179.9020  177.7930  138.4640 C   0  0  2  0  0  3  0  0  0  0  0  0
  187.5660  178.1000  137.8240 C   0  0  0  0  0  2  0  0  0  0  0  0
  179.4270  178.4290  139.7720 C   0  0  0  0  0  2  0  0  0  0  0  0
  185.0220  178.4640  137.8740 C   0  0  0  0  0  2  0  0  0  0  0  0
  193.1650  175.7540  138.2080 C   0  0  2  0  0  0  0  0  0  0  0  0
  184.8650  178.0300  139.3280 C   0  0  1  0  0  3  0  0  0  0  0  0
  182.5520  172.8170  137.1190 C   0  0  0  0  0  3  0  0  0  0  0  0
  190.8290  175.8520  135.0900 C   0  0  0  0  0  2  0  0  0  0  0  0
  187.6350  176.9070  136.8500 C   0  0  2  0  0  0  0  0  0  0  0  0
  182.6760  174.1890  137.3550 C   0  0  0  0  0  0  0  0  0  0  0  0
  182.2990  177.9390  139.2570 C   0  0  2  0  0  3  0  0  0  0  0  0
  190.0040  177.0210  137.4450 O   0  0  0  0  0  0  0  0  0  0  0  0
  181.1910  177.0030  138.7500 C   0  0  2  0  0  3  0  0  0  0  0  0
  186.5620  175.8970  137.2730 C   0  0  0  0  0  2  0  0  0  0  0  0
  191.7230  175.1200  136.0960 C   0  0  2  0  0  3  0  0  0  0  0  0
  186.2630  174.8040  136.2470 C   0  0  0  0  0  2  0  0  0  0  0  0
  184.8410  172.7400  136.3220 C   0  0  0  0  0  3  0  0  0  0  0  0
  191.3200  173.6900  136.3000 C   0  0  0  0  0  0  0  0  0  0  0  0
  191.7730  172.7800  135.5590 O   0  0  0  0  0  0  0  0  0  0  0  0
  190.4620  173.3660  137.3430 O   0  0  0  0  0  1  0  0  0  0  0  0
  194.3040  174.8760  137.6930 C   0  0  1  0  0  3  0  0  0  0  0  0
  195.1740  175.6260  136.9030 O   0  0  0  0  0  1  0  0  0  0  0  0
  195.0640  174.2090  138.8330 C   0  0  0  0  0  2  0  0  0  0  0  0
  196.2150  174.9320  139.1540 O   0  0  0  0  0  1  0  0  0  0  0  0
  179.8220  178.2670  136.0970 O   0  0  0  0  0  1  0  0  0  0  0  0
  180.0530  178.8440  137.3460 C   0  0  1  0  0  3  0  0  0  0  0  0
  179.0770  179.9970  137.5550 C   0  0  0  0  0  2  0  0  0  0  0  0
  179.2760  181.0780  136.5060 C   0  0  0  0  0  2  0  0  0  0  0  0
  180.5260  183.1260  135.9380 C   0  0  1  0  0  3  0  0  0  0  0  0
  180.1050  184.6520  137.3850 N   0  0  0  0  0  2  0  0  0  0  0  0
  180.0870  182.2270  137.0720 C   0  0  1  0  0  3  0  0  0  0  0  0
  179.3660  183.5360  136.8080 C   0  0  2  0  0  3  0  0  0  0  0  0
  181.2350  184.3130  136.5370 C   0  0  0  0  0  2  0  0  0  0  0  0
  3 24  1  0  0  0  0
  3 26  1  0  0  0  0
  6 34  1  6  0  0  0
  8 11  1  0  0  0  0
  9 27  1  0  0  0  0
 10  9  1  6  0  0  0
 10  5  1  0  0  0  0
 10 27  1  0  0  0  0
 11 17  1  0  0  0  0
 12 25  1  1  0  0  0
 12 19  1  0  0  0  0
 12 13  1  0  0  0  0
 13 17  1  0  0  0  0
 15 16  1  6  0  0  0
 15  6  1  0  0  0  0
 16  7  1  0  0  0  0
 18 29  1  0  0  0  0
 19  8  1  1  0  0  0
 20 22  2  0  0  0  0
 21  1  1  0  0  0  0
 22 32  1  0  0  0  0
 23 48  1  6  0  0  0
 23 35  1  0  0  0  0
 23 25  1  0  0  0  0
 26 28  1  0  0  0  0
 27  2  1  1  0  0  0
 28 14  1  0  0  0  0
 28  4  1  1  0  0  0
 29 32  2  0  0  0  0
 30 15  1  0  0  0  0
 30 37  1  0  0  0  0
 31  7  1  6  0  0  0
 31  6  1  0  0  0  0
 31 36  1  0  0  0  0
 31 24  1  0  0  0  0
 32  1  1  0  0  0  0
 33 14  1  1  0  0  0
 33 19  1  0  0  0  0
 34  5  1  0  0  0  0
 35 21  1  6  0  0  0
 35 33  1  0  0  0  0
 37 40  1  1  0  0  0
 37 10  1  0  0  0  0
 38 20  1  0  0  0  0
 38 36  1  0  0  0  0
 39 20  1  0  0  0  0
 39 18  2  0  0  0  0
 40 42  1  0  0  0  0
 41 40  2  0  0  0  0
 43 44  1  1  0  0  0
 43 27  1  0  0  0  0
 43 45  1  0  0  0  0
 45 46  1  0  0  0  0
 48 47  1  6  0  0  0
 48 49  1  0  0  0  0
 50 49  1  0  0  0  0
 51 55  1  1  0  0  0
 51 54  1  0  0  0  0
 51 53  1  0  0  0  0
 53 50  1  6  0  0  0
 54 53  1  0  0  0  0
 54 52  1  1  0  0  0
 55 52  1  0  0  0  0
M  END
>  <MODEL>
1

>  <REMARK>
 VINA RESULT:      -5.7      0.000      0.000
  Name = 
  7 active torsions:
  status: ('A' for Active; 'I' for Inactive)
    1  A    between atoms: C_1  and  C_53
    2  A    between atoms: C_11  and  C_29
    3  A    between atoms: C_13  and  C_48
    4  A    between atoms: C_13  and  C_52
    5  A    between atoms: C_29  and  C_38
    6  A    between atoms: C_32  and  C_48
    7  A    between atoms: C_33  and  C_52
                            x       y       z     vdW  Elec       q    Type
                         _______ _______ _______ _____ _____    ______ ____

>  <TORSDO>
F 7

$$$$
