=
 OpenBabel10262422423D

 43 47  0  0  1  0  0  0  0  0999 V2000
  184.7680  178.6950  141.9640 C   0  0  0  0  0  2  0  0  0  0  0  0
  186.3420  177.8160  144.2120 N   0  0  0  0  0  2  0  0  0  0  0  0
  184.2860  178.8920  143.3340 N   0  0  0  0  0  0  0  0  0  0  0  0
  183.6800  179.0090  140.9350 C   0  0  0  0  0  2  0  0  0  0  0  0
  185.0870  178.4630  144.4420 C   0  0  0  0  0  0  0  0  0  0  0  0
  182.9810  179.5130  143.5730 C   0  0  0  0  0  2  0  0  0  0  0  0
  184.6790  178.6430  145.6240 O   0  0  0  0  0  0  0  0  0  0  0  0
  181.8900  178.8140  142.7570 C   0  0  0  0  0  2  0  0  0  0  0  0
  182.3730  178.3520  141.3710 C   0  0  1  0  0  3  0  0  0  0  0  0
  181.3260  178.5000  140.3590 N   0  0  0  0  0  0  0  0  0  0  0  0
  179.3470  184.0550  137.6400 C   0  0  2  0  0  3  0  0  0  0  0  0
  180.7460  179.7770  140.0090 C   0  0  0  0  0  0  0  0  0  0  0  0
  179.5880  182.2330  139.2800 C   0  0  0  0  0  0  0  0  0  0  0  0
  180.8490  183.9420  137.3740 C   0  0  0  0  0  2  0  0  0  0  0  0
  178.9310  185.5090  137.6540 C   0  0  0  0  0  1  0  0  0  0  0  0
  180.7180  181.7620  138.6020 C   0  0  0  0  0  0  0  0  0  0  0  0
  179.0080  183.4430  138.8860 O   0  0  0  0  0  0  0  0  0  0  0  0
  181.2850  182.5590  137.5610 N   0  0  0  0  0  2  0  0  0  0  0  0
  181.2850  180.5350  138.9530 C   0  0  0  0  0  3  0  0  0  0  0  0
  179.6290  180.2790  140.7020 C   0  0  0  0  0  3  0  0  0  0  0  0
  179.0520  181.5000  140.3410 C   0  0  0  0  0  3  0  0  0  0  0  0
  180.8180  177.2590  139.7800 C   0  0  0  0  0  2  0  0  0  0  0  0
  181.9610  174.5980  137.3650 C   0  0  0  0  0  2  0  0  0  0  0  0
  183.3550  174.9970  137.1210 N   0  0  0  0  0  0  0  0  0  0  0  0
  182.4120  177.2270  137.8710 C   0  0  0  0  0  2  0  0  0  0  0  0
  181.4520  175.0660  138.7350 C   0  0  0  0  0  2  0  0  0  0  0  0
  181.9300  176.4750  139.1000 C   0  0  0  0  0  3  0  0  0  0  0  0
  183.5620  176.4570  137.2060 C   0  0  0  0  0  2  0  0  0  0  0  0
  184.6370  173.2620  137.4540 C   0  0  0  0  0  1  0  0  0  0  0  0
  184.1380  174.4140  138.0640 O   0  0  0  0  0  0  0  0  0  0  0  0
  187.1620  177.2820  145.2900 C   0  0  0  0  0  2  0  0  0  0  0  0
  189.2360  178.0310  146.3980 C   0  0  0  0  0  1  0  0  0  0  0  0
  188.6260  177.6240  145.0710 C   0  0  1  0  0  3  0  0  0  0  0  0
  189.3290  176.4620  144.5410 N   0  0  0  0  0  2  0  0  0  0  0  0
  188.9390  177.1490  142.1890 N   0  0  0  0  0  2  0  0  0  0  0  0
  189.4970  176.2360  143.1420 C   0  0  0  0  0  0  0  0  0  0  0  0
  190.1470  175.2300  142.7570 O   0  0  0  0  0  0  0  0  0  0  0  0
  189.2220  177.1210  140.7570 C   0  0  0  0  0  3  0  0  0  0  0  0
  191.0620  177.5060  139.0550 C   0  0  0  0  0  2  0  0  0  0  0  0
  189.0940  178.4960  138.6230 C   0  0  0  0  0  2  0  0  0  0  0  0
  189.9260  177.4320  138.2300 O   0  0  0  0  0  0  0  0  0  0  0  0
  188.5310  178.2860  140.0380 C   0  0  0  0  0  2  0  0  0  0  0  0
  190.7310  177.0490  140.4830 C   0  0  0  0  0  2  0  0  0  0  0  0
  1  3  1  0  0  0  0
  2  5  1  0  0  0  0
  2 31  1  0  0  0  0
  3  6  1  0  0  0  0
  3  5  1  0  0  0  0
  4  9  1  0  0  0  0
  4  1  1  0  0  0  0
  5  7  2  0  0  0  0
  8  6  1  0  0  0  0
  9 10  1  6  0  0  0
  9  8  1  0  0  0  0
 11 15  1  1  0  0  0
 11 17  1  0  0  0  0
 12 10  1  0  0  0  0
 12 20  1  0  0  0  0
 13 21  1  0  0  0  0
 14 18  1  0  0  0  0
 14 11  1  0  0  0  0
 16 19  1  0  0  0  0
 16 13  2  0  0  0  0
 17 13  1  0  0  0  0
 18 16  1  0  0  0  0
 19 12  2  0  0  0  0
 21 20  2  0  0  0  0
 22 10  1  0  0  0  0
 23 26  1  0  0  0  0
 24 28  1  0  0  0  0
 24 23  1  0  0  0  0
 24 30  1  0  0  0  0
 25 27  1  0  0  0  0
 26 27  1  0  0  0  0
 27 22  1  0  0  0  0
 28 25  1  0  0  0  0
 29 30  1  0  0  0  0
 33 31  1  0  0  0  0
 33 32  1  1  0  0  0
 34 33  1  0  0  0  0
 35 36  1  0  0  0  0
 36 34  1  0  0  0  0
 37 36  2  0  0  0  0
 38 35  1  0  0  0  0
 39 43  1  0  0  0  0
 40 42  1  0  0  0  0
 41 40  1  0  0  0  0
 41 39  1  0  0  0  0
 42 38  1  0  0  0  0
 43 38  1  0  0  0  0
M  END
>  <MODEL>
1

>  <REMARK>
 VINA RESULT:      -8.0      0.000      0.000
  Name = 
  9 active torsions:
  status: ('A' for Active; 'I' for Inactive)
    1  A    between atoms: C_1  and  N_34
    2  A    between atoms: C_1  and  C_35
    3  A    between atoms: N_3  and  C_42
    4  A    between atoms: N_4  and  C_15
    5  A    between atoms: C_8  and  N_34
    6  A    between atoms: C_11  and  N_14
    7  A    between atoms: C_15  and  C_42
    8  A    between atoms: N_19  and  O_37
    9  A    between atoms: N_34  and  C_38
                            x       y       z     vdW  Elec       q    Type
                         _______ _______ _______ _____ _____    ______ ____

>  <TORSDO>
F 9

$$$$
=
 OpenBabel10262422423D

 43 47  0  0  1  0  0  0  0  0999 V2000
  184.6200  176.1250  137.4010 C   0  0  0  0  0  2  0  0  0  0  0  0
  187.0860  175.4060  136.0940 N   0  0  0  0  0  2  0  0  0  0  0  0
  185.5810  177.1580  137.0010 N   0  0  0  0  0  0  0  0  0  0  0  0
  183.5120  176.7010  138.2850 C   0  0  0  0  0  2  0  0  0  0  0  0
  186.7960  176.7850  136.3380 C   0  0  0  0  0  0  0  0  0  0  0  0
  185.3090  178.5670  137.2900 C   0  0  0  0  0  2  0  0  0  0  0  0
  187.6190  177.6740  135.9820 O   0  0  0  0  0  0  0  0  0  0  0  0
  184.9580  178.7600  138.7680 C   0  0  0  0  0  2  0  0  0  0  0  0
  184.1370  177.5980  139.3520 C   0  0  1  0  0  3  0  0  0  0  0  0
  183.1430  178.0700  140.3160 N   0  0  0  0  0  0  0  0  0  0  0  0
  185.7620  179.1070  146.1670 C   0  0  2  0  0  3  0  0  0  0  0  0
  183.4470  178.2990  141.7110 C   0  0  0  0  0  0  0  0  0  0  0  0
  184.0670  178.7990  144.4070 C   0  0  0  0  0  0  0  0  0  0  0  0
  186.5650  177.9800  145.5150 C   0  0  0  0  0  2  0  0  0  0  0  0
  185.8290  178.9860  147.6740 C   0  0  0  0  0  1  0  0  0  0  0  0
  185.0400  178.2770  143.5490 C   0  0  0  0  0  0  0  0  0  0  0  0
  184.3990  179.0680  145.7390 O   0  0  0  0  0  0  0  0  0  0  0  0
  186.3360  177.9760  144.0710 N   0  0  0  0  0  2  0  0  0  0  0  0
  184.7390  178.0420  142.2060 C   0  0  0  0  0  3  0  0  0  0  0  0
  182.4690  178.7950  142.5930 C   0  0  0  0  0  3  0  0  0  0  0  0
  182.7760  179.0430  143.9340 C   0  0  0  0  0  3  0  0  0  0  0  0
  181.7790  178.2080  139.8110 C   0  0  0  0  0  2  0  0  0  0  0  0
  180.3530  180.5560  137.2280 C   0  0  0  0  0  2  0  0  0  0  0  0
  180.2630  181.8120  137.9860 N   0  0  0  0  0  0  0  0  0  0  0  0
  180.2480  180.1660  139.9130 C   0  0  0  0  0  2  0  0  0  0  0  0
  181.4500  179.6270  137.7670 C   0  0  0  0  0  2  0  0  0  0  0  0
  181.5240  179.6170  139.2970 C   0  0  0  0  0  3  0  0  0  0  0  0
  180.0110  181.6020  139.4260 C   0  0  0  0  0  2  0  0  0  0  0  0
  181.1000  183.7500  137.4280 C   0  0  0  0  0  1  0  0  0  0  0  0
  181.4450  182.4700  137.8660 O   0  0  0  0  0  0  0  0  0  0  0  0
  188.3380  174.9570  135.5020 C   0  0  0  0  0  2  0  0  0  0  0  0
  189.6330  172.9580  136.1470 C   0  0  0  0  0  1  0  0  0  0  0  0
  189.2510  174.3650  136.5630 C   0  0  1  0  0  3  0  0  0  0  0  0
  190.4510  175.1840  136.6920 N   0  0  0  0  0  2  0  0  0  0  0  0
  189.5160  176.4650  138.6000 N   0  0  0  0  0  2  0  0  0  0  0  0
  190.5890  176.1930  137.6900 C   0  0  0  0  0  0  0  0  0  0  0  0
  191.6680  176.8370  137.7660 O   0  0  0  0  0  0  0  0  0  0  0  0
  189.6280  177.3270  139.7720 C   0  0  0  0  0  3  0  0  0  0  0  0
  189.8230  177.2800  142.3010 C   0  0  0  0  0  2  0  0  0  0  0  0
  188.2750  178.6690  141.4560 C   0  0  0  0  0  2  0  0  0  0  0  0
  189.5430  178.6370  142.0640 O   0  0  0  0  0  0  0  0  0  0  0  0
  188.3050  178.0530  140.0470 C   0  0  0  0  0  2  0  0  0  0  0  0
  190.1590  176.5560  140.9890 C   0  0  0  0  0  2  0  0  0  0  0  0
  1  4  1  0  0  0  0
  2  5  1  0  0  0  0
  3  6  1  0  0  0  0
  3  1  1  0  0  0  0
  4  9  1  0  0  0  0
  5  3  1  0  0  0  0
  6  8  1  0  0  0  0
  7  5  2  0  0  0  0
  8  9  1  0  0  0  0
  9 10  1  6  0  0  0
 10 12  1  0  0  0  0
 11 15  1  1  0  0  0
 12 19  2  0  0  0  0
 12 20  1  0  0  0  0
 13 17  1  0  0  0  0
 14 11  1  0  0  0  0
 16 18  1  0  0  0  0
 16 13  2  0  0  0  0
 17 11  1  0  0  0  0
 18 14  1  0  0  0  0
 19 16  1  0  0  0  0
 20 21  2  0  0  0  0
 21 13  1  0  0  0  0
 22 10  1  0  0  0  0
 23 26  1  0  0  0  0
 23 24  1  0  0  0  0
 24 28  1  0  0  0  0
 26 27  1  0  0  0  0
 27 22  1  0  0  0  0
 27 25  1  0  0  0  0
 28 25  1  0  0  0  0
 29 30  1  0  0  0  0
 30 24  1  0  0  0  0
 31  2  1  0  0  0  0
 31 33  1  0  0  0  0
 33 32  1  6  0  0  0
 33 34  1  0  0  0  0
 34 36  1  0  0  0  0
 35 38  1  0  0  0  0
 36 37  2  0  0  0  0
 36 35  1  0  0  0  0
 38 42  1  0  0  0  0
 38 43  1  0  0  0  0
 40 41  1  0  0  0  0
 41 39  1  0  0  0  0
 42 40  1  0  0  0  0
 43 39  1  0  0  0  0
M  END
>  <MODEL>
2

>  <REMARK>
 VINA RESULT:      -8.0      2.426      7.057
  Name = 
  9 active torsions:
  status: ('A' for Active; 'I' for Inactive)
    1  A    between atoms: C_1  and  N_34
    2  A    between atoms: C_1  and  C_35
    3  A    between atoms: N_3  and  C_42
    4  A    between atoms: N_4  and  C_15
    5  A    between atoms: C_8  and  N_34
    6  A    between atoms: C_11  and  N_14
    7  A    between atoms: C_15  and  C_42
    8  A    between atoms: N_19  and  O_37
    9  A    between atoms: N_34  and  C_38
                            x       y       z     vdW  Elec       q    Type
                         _______ _______ _______ _____ _____    ______ ____

>  <TORSDO>
F 9

$$$$
=
 OpenBabel10262422423D

 43 47  0  0  1  0  0  0  0  0999 V2000
  189.1460  176.4750  142.7320 C   0  0  0  0  0  2  0  0  0  0  0  0
  189.1770  177.3780  145.4690 N   0  0  0  0  0  2  0  0  0  0  0  0
  190.4110  176.8190  143.3890 N   0  0  0  0  0  0  0  0  0  0  0  0
  189.3350  176.2590  141.2290 C   0  0  0  0  0  2  0  0  0  0  0  0
  190.4110  177.2520  144.7550 C   0  0  0  0  0  0  0  0  0  0  0  0
  191.6710  176.7360  142.6490 C   0  0  0  0  0  2  0  0  0  0  0  0
  191.5000  177.5380  145.3270 O   0  0  0  0  0  0  0  0  0  0  0  0
  191.5750  177.5000  141.3250 C   0  0  0  0  0  2  0  0  0  0  0  0
  190.1900  177.3910  140.6640 C   0  0  1  0  0  3  0  0  0  0  0  0
  190.2930  177.3190  139.2060 N   0  0  0  0  0  0  0  0  0  0  0  0
  194.8550  173.3410  136.8530 C   0  0  2  0  0  3  0  0  0  0  0  0
  191.0880  176.3220  138.5230 C   0  0  0  0  0  0  0  0  0  0  0  0
  192.6490  174.3600  137.2500 C   0  0  0  0  0  0  0  0  0  0  0  0
  195.4430  174.7530  136.8300 C   0  0  0  0  0  2  0  0  0  0  0  0
  195.5060  172.4910  135.7840 C   0  0  0  0  0  1  0  0  0  0  0  0
  193.2610  175.4820  137.8210 C   0  0  0  0  0  0  0  0  0  0  0  0
  193.4420  173.3800  136.6460 O   0  0  0  0  0  0  0  0  0  0  0  0
  194.6780  175.6260  137.7190 N   0  0  0  0  0  2  0  0  0  0  0  0
  192.4880  176.4500  138.4660 C   0  0  0  0  0  3  0  0  0  0  0  0
  190.4850  175.2040  137.9170 C   0  0  0  0  0  3  0  0  0  0  0  0
  191.2590  174.2290  137.2840 C   0  0  0  0  0  3  0  0  0  0  0  0
  189.6200  178.3820  138.4630 C   0  0  0  0  0  2  0  0  0  0  0  0
  185.9120  178.2990  137.7840 C   0  0  0  0  0  2  0  0  0  0  0  0
  185.8700  177.7200  136.4330 N   0  0  0  0  0  0  0  0  0  0  0  0
  188.2320  178.6390  136.4150 C   0  0  0  0  0  2  0  0  0  0  0  0
  187.1640  177.8730  138.5620 C   0  0  0  0  0  2  0  0  0  0  0  0
  188.4250  177.8400  137.6930 C   0  0  0  0  0  3  0  0  0  0  0  0
  187.0510  178.0680  135.6180 C   0  0  0  0  0  2  0  0  0  0  0  0
  184.5070  176.0710  136.8680 C   0  0  0  0  0  1  0  0  0  0  0  0
  185.8340  176.3670  136.5490 O   0  0  0  0  0  0  0  0  0  0  0  0
  189.1030  177.8920  146.8290 C   0  0  0  0  0  2  0  0  0  0  0  0
  187.9320  177.3200  148.9250 C   0  0  0  0  0  1  0  0  0  0  0  0
  187.7470  177.5880  147.4440 C   0  0  1  0  0  3  0  0  0  0  0  0
  186.8550  178.7260  147.2570 N   0  0  0  0  0  2  0  0  0  0  0  0
  186.1820  177.9790  144.9880 N   0  0  0  0  0  2  0  0  0  0  0  0
  186.0820  178.9110  146.0720 C   0  0  0  0  0  0  0  0  0  0  0  0
  185.3050  179.8980  145.9940 O   0  0  0  0  0  0  0  0  0  0  0  0
  185.2960  177.9650  143.8300 C   0  0  0  0  0  3  0  0  0  0  0  0
  184.9470  179.0030  141.5420 C   0  0  0  0  0  2  0  0  0  0  0  0
  183.1510  178.9540  142.8880 C   0  0  0  0  0  2  0  0  0  0  0  0
  183.7170  178.3540  141.7480 O   0  0  0  0  0  0  0  0  0  0  0  0
  183.9520  178.6270  144.1590 C   0  0  0  0  0  2  0  0  0  0  0  0
  185.9780  178.5640  142.5910 C   0  0  0  0  0  2  0  0  0  0  0  0
  1  3  1  0  0  0  0
  2 31  1  0  0  0  0
  3  5  1  0  0  0  0
  4  1  1  0  0  0  0
  5  7  2  0  0  0  0
  5  2  1  0  0  0  0
  6  3  1  0  0  0  0
  8  6  1  0  0  0  0
  9 10  1  6  0  0  0
  9  4  1  0  0  0  0
  9  8  1  0  0  0  0
 11 15  1  6  0  0  0
 12 10  1  0  0  0  0
 13 21  2  0  0  0  0
 13 16  1  0  0  0  0
 14 11  1  0  0  0  0
 14 18  1  0  0  0  0
 16 19  2  0  0  0  0
 17 11  1  0  0  0  0
 17 13  1  0  0  0  0
 18 16  1  0  0  0  0
 19 12  1  0  0  0  0
 20 12  2  0  0  0  0
 21 20  1  0  0  0  0
 22 10  1  0  0  0  0
 23 26  1  0  0  0  0
 24 30  1  0  0  0  0
 24 23  1  0  0  0  0
 25 27  1  0  0  0  0
 27 22  1  0  0  0  0
 27 26  1  0  0  0  0
 28 25  1  0  0  0  0
 28 24  1  0  0  0  0
 30 29  1  0  0  0  0
 31 33  1  0  0  0  0
 33 32  1  1  0  0  0
 34 33  1  0  0  0  0
 35 36  1  0  0  0  0
 36 34  1  0  0  0  0
 37 36  2  0  0  0  0
 38 42  1  0  0  0  0
 38 35  1  0  0  0  0
 39 41  1  0  0  0  0
 39 43  1  0  0  0  0
 40 42  1  0  0  0  0
 41 40  1  0  0  0  0
 43 38  1  0  0  0  0
M  END
>  <MODEL>
3

>  <REMARK>
 VINA RESULT:      -7.9      3.953      9.513
  Name = 
  9 active torsions:
  status: ('A' for Active; 'I' for Inactive)
    1  A    between atoms: C_1  and  N_34
    2  A    between atoms: C_1  and  C_35
    3  A    between atoms: N_3  and  C_42
    4  A    between atoms: N_4  and  C_15
    5  A    between atoms: C_8  and  N_34
    6  A    between atoms: C_11  and  N_14
    7  A    between atoms: C_15  and  C_42
    8  A    between atoms: N_19  and  O_37
    9  A    between atoms: N_34  and  C_38
                            x       y       z     vdW  Elec       q    Type
                         _______ _______ _______ _____ _____    ______ ____

>  <TORSDO>
F 9

$$$$
=
 OpenBabel10262422423D

 43 47  0  0  1  0  0  0  0  0999 V2000
  184.9140  178.3020  142.8370 C   0  0  0  0  0  2  0  0  0  0  0  0
  186.4190  177.5750  145.1850 N   0  0  0  0  0  2  0  0  0  0  0  0
  184.5280  178.8110  144.1570 N   0  0  0  0  0  0  0  0  0  0  0  0
  183.8490  178.6100  141.7830 C   0  0  0  0  0  2  0  0  0  0  0  0
  185.2960  178.4520  145.3130 C   0  0  0  0  0  0  0  0  0  0  0  0
  183.3520  179.6710  144.2990 C   0  0  0  0  0  2  0  0  0  0  0  0
  184.9720  178.8980  146.4490 O   0  0  0  0  0  0  0  0  0  0  0  0
  182.1290  179.0330  143.6340 C   0  0  0  0  0  2  0  0  0  0  0  0
  182.4720  178.2650  142.3460 C   0  0  1  0  0  3  0  0  0  0  0  0
  181.4210  178.4070  141.3380 N   0  0  0  0  0  0  0  0  0  0  0  0
  180.0020  173.0080  138.0200 C   0  0  2  0  0  3  0  0  0  0  0  0
  180.8260  177.2780  140.6570 C   0  0  0  0  0  0  0  0  0  0  0  0
  179.7020  175.0440  139.3730 C   0  0  0  0  0  0  0  0  0  0  0  0
  181.0420  173.7720  137.1990 C   0  0  0  0  0  2  0  0  0  0  0  0
  179.1520  172.1490  137.1090 C   0  0  0  0  0  1  0  0  0  0  0  0
  180.9990  175.4580  139.0520 C   0  0  0  0  0  0  0  0  0  0  0  0
  179.1680  173.9130  138.7460 O   0  0  0  0  0  0  0  0  0  0  0  0
  181.7250  174.7490  138.0460 N   0  0  0  0  0  2  0  0  0  0  0  0
  181.5650  176.5580  139.7000 C   0  0  0  0  0  3  0  0  0  0  0  0
  179.5120  176.8680  140.9470 C   0  0  0  0  0  3  0  0  0  0  0  0
  178.9510  175.7580  140.3100 C   0  0  0  0  0  3  0  0  0  0  0  0
  181.0650  179.7760  140.9740 C   0  0  0  0  0  2  0  0  0  0  0  0
  179.3350  181.6460  138.1930 C   0  0  0  0  0  2  0  0  0  0  0  0
  179.7970  180.9090  137.0080 N   0  0  0  0  0  0  0  0  0  0  0  0
  181.6590  180.3080  138.6180 C   0  0  0  0  0  2  0  0  0  0  0  0
  179.3320  180.7750  139.4560 C   0  0  0  0  0  2  0  0  0  0  0  0
  180.5480  179.8470  139.5450 C   0  0  0  0  0  3  0  0  0  0  0  0
  181.1510  180.3410  137.1700 C   0  0  0  0  0  2  0  0  0  0  0  0
  179.5380  179.1310  135.7670 C   0  0  0  0  0  1  0  0  0  0  0  0
  178.9420  179.8780  136.7850 O   0  0  0  0  0  0  0  0  0  0  0  0
  187.1870  177.1070  146.3300 C   0  0  0  0  0  2  0  0  0  0  0  0
  188.6850  178.2360  147.9340 C   0  0  0  0  0  1  0  0  0  0  0  0
  188.4770  177.8980  146.4700 C   0  0  1  0  0  3  0  0  0  0  0  0
  189.5980  177.1030  145.9840 N   0  0  0  0  0  2  0  0  0  0  0  0
  189.1980  177.7640  143.6260 N   0  0  0  0  0  2  0  0  0  0  0  0
  189.9610  177.0470  144.6050 C   0  0  0  0  0  0  0  0  0  0  0  0
  190.9630  176.3680  144.2610 O   0  0  0  0  0  0  0  0  0  0  0  0
  189.6000  177.9350  142.2330 C   0  0  0  0  0  3  0  0  0  0  0  0
  188.6790  178.2640  139.8920 C   0  0  0  0  0  2  0  0  0  0  0  0
  190.2440  176.6700  140.1240 C   0  0  0  0  0  2  0  0  0  0  0  0
  190.0280  177.9690  139.6270 O   0  0  0  0  0  0  0  0  0  0  0  0
  190.1580  176.6270  141.6580 C   0  0  0  0  0  2  0  0  0  0  0  0
  188.4640  178.5310  141.3890 C   0  0  0  0  0  2  0  0  0  0  0  0
  1  3  1  0  0  0  0
  2  5  1  0  0  0  0
  2 31  1  0  0  0  0
  3  6  1  0  0  0  0
  3  5  1  0  0  0  0
  4  9  1  0  0  0  0
  4  1  1  0  0  0  0
  5  7  2  0  0  0  0
  8  6  1  0  0  0  0
  9 10  1  6  0  0  0
  9  8  1  0  0  0  0
 11 15  1  6  0  0  0
 11 17  1  0  0  0  0
 12 20  1  0  0  0  0
 12 10  1  0  0  0  0
 13 21  1  0  0  0  0
 14 11  1  0  0  0  0
 14 18  1  0  0  0  0
 16 13  2  0  0  0  0
 16 19  1  0  0  0  0
 17 13  1  0  0  0  0
 18 16  1  0  0  0  0
 19 12  2  0  0  0  0
 21 20  2  0  0  0  0
 22 10  1  0  0  0  0
 23 26  1  0  0  0  0
 24 28  1  0  0  0  0
 24 23  1  0  0  0  0
 25 27  1  0  0  0  0
 26 27  1  0  0  0  0
 27 22  1  0  0  0  0
 28 25  1  0  0  0  0
 29 30  1  0  0  0  0
 30 24  1  0  0  0  0
 31 33  1  0  0  0  0
 33 32  1  1  0  0  0
 34 33  1  0  0  0  0
 35 36  1  0  0  0  0
 36 34  1  0  0  0  0
 37 36  2  0  0  0  0
 38 35  1  0  0  0  0
 39 43  1  0  0  0  0
 40 42  1  0  0  0  0
 41 39  1  0  0  0  0
 41 40  1  0  0  0  0
 42 38  1  0  0  0  0
 43 38  1  0  0  0  0
M  END
>  <MODEL>
4

>  <REMARK>
 VINA RESULT:      -7.7      1.887      5.049
  Name = 
  9 active torsions:
  status: ('A' for Active; 'I' for Inactive)
    1  A    between atoms: C_1  and  N_34
    2  A    between atoms: C_1  and  C_35
    3  A    between atoms: N_3  and  C_42
    4  A    between atoms: N_4  and  C_15
    5  A    between atoms: C_8  and  N_34
    6  A    between atoms: C_11  and  N_14
    7  A    between atoms: C_15  and  C_42
    8  A    between atoms: N_19  and  O_37
    9  A    between atoms: N_34  and  C_38
                            x       y       z     vdW  Elec       q    Type
                         _______ _______ _______ _____ _____    ______ ____

>  <TORSDO>
F 9

$$$$
=
 OpenBabel10262422423D

 43 47  0  0  1  0  0  0  0  0999 V2000
  186.8440  178.0860  136.4670 C   0  0  0  0  0  2  0  0  0  0  0  0
  184.0770  177.5430  135.8720 N   0  0  0  0  0  2  0  0  0  0  0  0
  186.3860  176.7120  136.2440 N   0  0  0  0  0  0  0  0  0  0  0  0
  188.2770  178.1200  137.0020 C   0  0  0  0  0  2  0  0  0  0  0  0
  185.0090  176.4590  135.9340 C   0  0  0  0  0  0  0  0  0  0  0  0
  187.3270  175.5960  136.3510 C   0  0  0  0  0  2  0  0  0  0  0  0
  184.6140  175.2770  135.7290 O   0  0  0  0  0  0  0  0  0  0  0  0
  188.0910  175.6550  137.6770 C   0  0  0  0  0  2  0  0  0  0  0  0
  188.4190  177.0910  138.1220 C   0  0  1  0  0  3  0  0  0  0  0  0
  189.7280  177.1690  138.7690 N   0  0  0  0  0  0  0  0  0  0  0  0
  189.2300  176.9720  145.2410 C   0  0  2  0  0  3  0  0  0  0  0  0
  189.8930  177.2270  140.2050 C   0  0  0  0  0  0  0  0  0  0  0  0
  190.2020  177.2780  142.9990 C   0  0  0  0  0  0  0  0  0  0  0  0
  187.9530  177.6320  144.7180 C   0  0  0  0  0  2  0  0  0  0  0  0
  189.5200  177.4480  146.6480 C   0  0  0  0  0  1  0  0  0  0  0  0
  188.9220  177.2770  142.4350 C   0  0  0  0  0  0  0  0  0  0  0  0
  190.3380  177.2740  144.3910 O   0  0  0  0  0  0  0  0  0  0  0  0
  187.7840  177.3330  143.2970 N   0  0  0  0  0  2  0  0  0  0  0  0
  188.7660  177.2370  141.0470 C   0  0  0  0  0  3  0  0  0  0  0  0
  191.1740  177.2590  140.7860 C   0  0  0  0  0  3  0  0  0  0  0  0
  191.3290  177.2850  142.1750 C   0  0  0  0  0  3  0  0  0  0  0  0
  190.8780  177.2880  137.8760 C   0  0  0  0  0  2  0  0  0  0  0  0
  192.4400  174.9680  135.3470 C   0  0  0  0  0  2  0  0  0  0  0  0
  192.9830  173.9100  136.2110 N   0  0  0  0  0  0  0  0  0  0  0  0
  192.8710  175.7990  137.8950 C   0  0  0  0  0  2  0  0  0  0  0  0
  191.2380  175.6790  135.9830 C   0  0  0  0  0  2  0  0  0  0  0  0
  191.4130  175.9180  137.4860 C   0  0  0  0  0  3  0  0  0  0  0  0
  193.4000  174.4040  137.5390 C   0  0  0  0  0  2  0  0  0  0  0  0
  192.1020  172.1370  135.2900 C   0  0  0  0  0  1  0  0  0  0  0  0
  192.0170  172.9760  136.4030 O   0  0  0  0  0  0  0  0  0  0  0  0
  182.6530  177.3440  135.6460 C   0  0  0  0  0  2  0  0  0  0  0  0
  180.4720  178.2010  136.4210 C   0  0  0  0  0  1  0  0  0  0  0  0
  181.8520  177.7600  136.8690 C   0  0  1  0  0  3  0  0  0  0  0  0
  181.7360  176.6340  137.7870 N   0  0  0  0  0  2  0  0  0  0  0  0
  183.1550  177.7320  139.5010 N   0  0  0  0  0  2  0  0  0  0  0  0
  182.3540  176.6230  139.0730 C   0  0  0  0  0  0  0  0  0  0  0  0
  182.1810  175.6320  139.8290 O   0  0  0  0  0  0  0  0  0  0  0  0
  183.6600  177.9080  140.8590 C   0  0  0  0  0  3  0  0  0  0  0  0
  183.1630  179.0590  143.0640 C   0  0  0  0  0  2  0  0  0  0  0  0
  185.2550  179.2840  142.2820 C   0  0  0  0  0  2  0  0  0  0  0  0
  184.4870  178.6290  143.2620 O   0  0  0  0  0  0  0  0  0  0  0  0
  184.9180  178.7840  140.8670 C   0  0  0  0  0  2  0  0  0  0  0  0
  182.5630  178.4140  141.8060 C   0  0  0  0  0  2  0  0  0  0  0  0
  1  4  1  0  0  0  0
  2  5  1  0  0  0  0
  3  6  1  0  0  0  0
  3  1  1  0  0  0  0
  4  9  1  0  0  0  0
  5  3  1  0  0  0  0
  6  8  1  0  0  0  0
  7  5  2  0  0  0  0
  8  9  1  0  0  0  0
  9 10  1  6  0  0  0
 10 12  1  0  0  0  0
 11 15  1  1  0  0  0
 12 20  2  0  0  0  0
 12 19  1  0  0  0  0
 13 17  1  0  0  0  0
 14 11  1  0  0  0  0
 16 13  1  0  0  0  0
 16 18  1  0  0  0  0
 17 11  1  0  0  0  0
 18 14  1  0  0  0  0
 19 16  2  0  0  0  0
 20 21  1  0  0  0  0
 21 13  2  0  0  0  0
 22 10  1  0  0  0  0
 23 26  1  0  0  0  0
 23 24  1  0  0  0  0
 24 30  1  0  0  0  0
 24 28  1  0  0  0  0
 26 27  1  0  0  0  0
 27 22  1  0  0  0  0
 27 25  1  0  0  0  0
 28 25  1  0  0  0  0
 29 30  1  0  0  0  0
 31  2  1  0  0  0  0
 31 33  1  0  0  0  0
 33 32  1  6  0  0  0
 33 34  1  0  0  0  0
 34 36  1  0  0  0  0
 35 38  1  0  0  0  0
 36 35  1  0  0  0  0
 36 37  2  0  0  0  0
 38 42  1  0  0  0  0
 38 43  1  0  0  0  0
 39 41  1  0  0  0  0
 40 41  1  0  0  0  0
 42 40  1  0  0  0  0
 43 39  1  0  0  0  0
M  END
>  <MODEL>
5

>  <REMARK>
 VINA RESULT:      -7.7      3.291      9.803
  Name = 
  9 active torsions:
  status: ('A' for Active; 'I' for Inactive)
    1  A    between atoms: C_1  and  N_34
    2  A    between atoms: C_1  and  C_35
    3  A    between atoms: N_3  and  C_42
    4  A    between atoms: N_4  and  C_15
    5  A    between atoms: C_8  and  N_34
    6  A    between atoms: C_11  and  N_14
    7  A    between atoms: C_15  and  C_42
    8  A    between atoms: N_19  and  O_37
    9  A    between atoms: N_34  and  C_38
                            x       y       z     vdW  Elec       q    Type
                         _______ _______ _______ _____ _____    ______ ____

>  <TORSDO>
F 9

$$$$
=
 OpenBabel10262422423D

 43 47  0  0  1  0  0  0  0  0999 V2000
  184.9090  179.0880  140.3700 C   0  0  0  0  0  2  0  0  0  0  0  0
  184.2760  179.1830  143.1800 N   0  0  0  0  0  2  0  0  0  0  0  0
  183.5450  178.8190  140.8360 N   0  0  0  0  0  0  0  0  0  0  0  0
  185.0740  178.7470  138.8880 C   0  0  0  0  0  2  0  0  0  0  0  0
  183.2430  178.8850  142.2360 C   0  0  0  0  0  0  0  0  0  0  0  0
  182.4960  178.4680  139.8780 C   0  0  0  0  0  2  0  0  0  0  0  0
  182.0660  178.6650  142.6390 O   0  0  0  0  0  0  0  0  0  0  0  0
  182.9480  177.3180  138.9740 C   0  0  0  0  0  2  0  0  0  0  0  0
  184.4430  177.3830  138.6140 C   0  0  1  0  0  3  0  0  0  0  0  0
  184.6870  176.9370  137.2420 N   0  0  0  0  0  0  0  0  0  0  0  0
  190.6970  175.6110  135.1710 C   0  0  2  0  0  3  0  0  0  0  0  0
  186.0060  176.9030  136.6500 C   0  0  0  0  0  0  0  0  0  0  0  0
  188.5540  176.7870  135.4670 C   0  0  0  0  0  0  0  0  0  0  0  0
  190.6600  175.2800  136.6640 C   0  0  0  0  0  2  0  0  0  0  0  0
  192.1080  175.9680  134.7550 C   0  0  0  0  0  1  0  0  0  0  0  0
  188.2570  175.9850  136.5740 C   0  0  0  0  0  0  0  0  0  0  0  0
  189.8170  176.6960  134.8730 O   0  0  0  0  0  0  0  0  0  0  0  0
  189.2740  175.1350  137.1070 N   0  0  0  0  0  2  0  0  0  0  0  0
  186.9870  176.0300  137.1540 C   0  0  0  0  0  3  0  0  0  0  0  0
  186.3290  177.7270  135.5550 C   0  0  0  0  0  3  0  0  0  0  0  0
  187.5950  177.6700  134.9660 C   0  0  0  0  0  3  0  0  0  0  0  0
  183.5000  176.6130  136.4540 C   0  0  0  0  0  2  0  0  0  0  0  0
  181.2760  173.6600  135.7140 C   0  0  0  0  0  2  0  0  0  0  0  0
  182.2560  172.5690  135.6070 N   0  0  0  0  0  0  0  0  0  0  0  0
  183.7730  174.5370  135.1110 C   0  0  0  0  0  2  0  0  0  0  0  0
  181.7700  174.8010  136.6130 C   0  0  0  0  0  2  0  0  0  0  0  0
  183.2580  175.1120  136.4190 C   0  0  0  0  0  3  0  0  0  0  0  0
  183.5650  173.0170  135.0910 C   0  0  0  0  0  2  0  0  0  0  0  0
  183.1000  170.8320  136.6240 C   0  0  0  0  0  1  0  0  0  0  0  0
  182.4560  172.0510  136.8460 O   0  0  0  0  0  0  0  0  0  0  0  0
  184.0510  179.1820  144.6190 C   0  0  0  0  0  2  0  0  0  0  0  0
  184.9320  178.2710  146.7370 C   0  0  0  0  0  1  0  0  0  0  0  0
  185.3150  178.7740  145.3580 C   0  0  1  0  0  3  0  0  0  0  0  0
  185.9990  177.7200  144.6210 N   0  0  0  0  0  2  0  0  0  0  0  0
  188.1790  178.2180  145.6950 N   0  0  0  0  0  2  0  0  0  0  0  0
  187.3860  177.4360  144.7930 C   0  0  0  0  0  0  0  0  0  0  0  0
  187.9030  176.4860  144.1490 O   0  0  0  0  0  0  0  0  0  0  0  0
  189.5440  177.8860  146.0920 C   0  0  0  0  0  3  0  0  0  0  0  0
  191.6750  176.7840  145.2670 C   0  0  0  0  0  2  0  0  0  0  0  0
  190.9540  176.1460  147.2950 C   0  0  0  0  0  2  0  0  0  0  0  0
  191.9370  176.9120  146.6420 O   0  0  0  0  0  0  0  0  0  0  0  0
  189.5540  176.7610  147.1340 C   0  0  0  0  0  2  0  0  0  0  0  0
  190.4290  177.5900  144.8720 C   0  0  0  0  0  2  0  0  0  0  0  0
  1  3  1  0  0  0  0
  2 31  1  0  0  0  0
  3  5  1  0  0  0  0
  4  1  1  0  0  0  0
  5  7  2  0  0  0  0
  5  2  1  0  0  0  0
  6  3  1  0  0  0  0
  8  6  1  0  0  0  0
  9 10  1  6  0  0  0
  9  4  1  0  0  0  0
  9  8  1  0  0  0  0
 11 15  1  1  0  0  0
 11 14  1  0  0  0  0
 12 19  1  0  0  0  0
 12 10  1  0  0  0  0
 13 16  1  0  0  0  0
 14 18  1  0  0  0  0
 16 18  1  0  0  0  0
 16 19  2  0  0  0  0
 17 11  1  0  0  0  0
 17 13  1  0  0  0  0
 20 12  2  0  0  0  0
 21 13  2  0  0  0  0
 21 20  1  0  0  0  0
 22 10  1  0  0  0  0
 23 26  1  0  0  0  0
 24 23  1  0  0  0  0
 24 30  1  0  0  0  0
 25 27  1  0  0  0  0
 27 22  1  0  0  0  0
 27 26  1  0  0  0  0
 28 25  1  0  0  0  0
 28 24  1  0  0  0  0
 29 30  1  0  0  0  0
 31 33  1  0  0  0  0
 33 32  1  1  0  0  0
 34 36  1  0  0  0  0
 34 33  1  0  0  0  0
 35 38  1  0  0  0  0
 36 35  1  0  0  0  0
 37 36  2  0  0  0  0
 38 42  1  0  0  0  0
 39 41  1  0  0  0  0
 41 40  1  0  0  0  0
 42 40  1  0  0  0  0
 43 39  1  0  0  0  0
 43 38  1  0  0  0  0
M  END
>  <MODEL>
6

>  <REMARK>
 VINA RESULT:      -7.6      3.409      6.939
  Name = 
  9 active torsions:
  status: ('A' for Active; 'I' for Inactive)
    1  A    between atoms: C_1  and  N_34
    2  A    between atoms: C_1  and  C_35
    3  A    between atoms: N_3  and  C_42
    4  A    between atoms: N_4  and  C_15
    5  A    between atoms: C_8  and  N_34
    6  A    between atoms: C_11  and  N_14
    7  A    between atoms: C_15  and  C_42
    8  A    between atoms: N_19  and  O_37
    9  A    between atoms: N_34  and  C_38
                            x       y       z     vdW  Elec       q    Type
                         _______ _______ _______ _____ _____    ______ ____

>  <TORSDO>
F 9

$$$$
=
 OpenBabel10262422423D

 43 47  0  0  1  0  0  0  0  0999 V2000
  189.3030  176.5100  142.8210 C   0  0  0  0  0  2  0  0  0  0  0  0
  189.2470  177.3770  145.5690 N   0  0  0  0  0  2  0  0  0  0  0  0
  190.5470  176.8350  143.5250 N   0  0  0  0  0  0  0  0  0  0  0  0
  189.5420  176.3130  141.3220 C   0  0  0  0  0  2  0  0  0  0  0  0
  190.5040  177.2500  144.8970 C   0  0  0  0  0  0  0  0  0  0  0  0
  191.8320  176.7500  142.8280 C   0  0  0  0  0  2  0  0  0  0  0  0
  191.5750  177.5180  145.5090 O   0  0  0  0  0  0  0  0  0  0  0  0
  191.7880  177.5320  141.5120 C   0  0  0  0  0  2  0  0  0  0  0  0
  190.4260  177.4450  140.8020 C   0  0  1  0  0  3  0  0  0  0  0  0
  190.5780  177.3910  139.3480 N   0  0  0  0  0  0  0  0  0  0  0  0
  185.1290  176.9450  135.8450 C   0  0  2  0  0  3  0  0  0  0  0  0
  189.4660  177.5330  138.4350 C   0  0  0  0  0  0  0  0  0  0  0  0
  187.2640  177.8150  136.7090 C   0  0  0  0  0  0  0  0  0  0  0  0
  185.7430  175.5450  135.8890 C   0  0  0  0  0  2  0  0  0  0  0  0
  184.2930  177.1050  134.5940 C   0  0  0  0  0  1  0  0  0  0  0  0
  187.5400  176.5760  137.2980 C   0  0  0  0  0  0  0  0  0  0  0  0
  186.1490  177.9450  135.8750 O   0  0  0  0  0  0  0  0  0  0  0  0
  186.7070  175.4580  136.9850 N   0  0  0  0  0  2  0  0  0  0  0  0
  188.6240  176.4370  138.1670 C   0  0  0  0  0  3  0  0  0  0  0  0
  189.1940  178.7650  137.8110 C   0  0  0  0  0  3  0  0  0  0  0  0
  188.1010  178.9060  136.9520 C   0  0  0  0  0  3  0  0  0  0  0  0
  191.9190  177.0810  138.8560 C   0  0  0  0  0  2  0  0  0  0  0  0
  193.6330  175.1320  136.1220 C   0  0  0  0  0  2  0  0  0  0  0  0
  192.5390  174.2800  135.6340 N   0  0  0  0  0  0  0  0  0  0  0  0
  191.6700  174.7730  137.9630 C   0  0  0  0  0  2  0  0  0  0  0  0
  193.1210  176.4350  136.7500 C   0  0  0  0  0  2  0  0  0  0  0  0
  191.8580  176.2350  137.5940 C   0  0  0  0  0  3  0  0  0  0  0  0
  191.5690  173.9230  136.6890 C   0  0  0  0  0  2  0  0  0  0  0  0
  190.6110  174.3490  134.6110 C   0  0  0  0  0  1  0  0  0  0  0  0
  191.8670  174.9570  134.6680 O   0  0  0  0  0  0  0  0  0  0  0  0
  189.1300  177.8730  146.9320 C   0  0  0  0  0  2  0  0  0  0  0  0
  187.9180  177.2340  148.9850 C   0  0  0  0  0  1  0  0  0  0  0  0
  187.7640  177.5430  147.5080 C   0  0  1  0  0  3  0  0  0  0  0  0
  186.8680  178.6790  147.3340 N   0  0  0  0  0  2  0  0  0  0  0  0
  186.1750  177.9390  145.0690 N   0  0  0  0  0  2  0  0  0  0  0  0
  186.0830  178.8670  146.1570 C   0  0  0  0  0  0  0  0  0  0  0  0
  185.3030  179.8520  146.0900 O   0  0  0  0  0  0  0  0  0  0  0  0
  185.2780  177.9260  143.9190 C   0  0  0  0  0  3  0  0  0  0  0  0
  184.9360  178.9290  141.6140 C   0  0  0  0  0  2  0  0  0  0  0  0
  183.1520  178.9550  142.9760 C   0  0  0  0  0  2  0  0  0  0  0  0
  183.6910  178.3190  141.8430 O   0  0  0  0  0  0  0  0  0  0  0  0
  183.9560  178.6310  144.2460 C   0  0  0  0  0  2  0  0  0  0  0  0
  185.9650  178.4820  142.6630 C   0  0  0  0  0  2  0  0  0  0  0  0
  1  3  1  0  0  0  0
  2 31  1  0  0  0  0
  3  5  1  0  0  0  0
  4  1  1  0  0  0  0
  5  7  2  0  0  0  0
  5  2  1  0  0  0  0
  6  3  1  0  0  0  0
  8  6  1  0  0  0  0
  9 10  1  6  0  0  0
  9  4  1  0  0  0  0
  9  8  1  0  0  0  0
 11 15  1  6  0  0  0
 11 17  1  0  0  0  0
 11 14  1  0  0  0  0
 12 10  1  0  0  0  0
 13 21  2  0  0  0  0
 13 16  1  0  0  0  0
 14 18  1  0  0  0  0
 16 19  2  0  0  0  0
 17 13  1  0  0  0  0
 18 16  1  0  0  0  0
 19 12  1  0  0  0  0
 20 12  2  0  0  0  0
 21 20  1  0  0  0  0
 22 10  1  0  0  0  0
 23 26  1  0  0  0  0
 24 23  1  0  0  0  0
 24 28  1  0  0  0  0
 26 27  1  0  0  0  0
 27 25  1  0  0  0  0
 27 22  1  0  0  0  0
 28 25  1  0  0  0  0
 29 30  1  0  0  0  0
 30 24  1  0  0  0  0
 31 33  1  0  0  0  0
 33 32  1  1  0  0  0
 34 33  1  0  0  0  0
 35 36  1  0  0  0  0
 36 34  1  0  0  0  0
 37 36  2  0  0  0  0
 38 42  1  0  0  0  0
 38 35  1  0  0  0  0
 39 41  1  0  0  0  0
 39 43  1  0  0  0  0
 40 42  1  0  0  0  0
 41 40  1  0  0  0  0
 43 38  1  0  0  0  0
M  END
>  <MODEL>
7

>  <REMARK>
 VINA RESULT:      -7.5      4.243      8.046
  Name = 
  9 active torsions:
  status: ('A' for Active; 'I' for Inactive)
    1  A    between atoms: C_1  and  N_34
    2  A    between atoms: C_1  and  C_35
    3  A    between atoms: N_3  and  C_42
    4  A    between atoms: N_4  and  C_15
    5  A    between atoms: C_8  and  N_34
    6  A    between atoms: C_11  and  N_14
    7  A    between atoms: C_15  and  C_42
    8  A    between atoms: N_19  and  O_37
    9  A    between atoms: N_34  and  C_38
                            x       y       z     vdW  Elec       q    Type
                         _______ _______ _______ _____ _____    ______ ____

>  <TORSDO>
F 9

$$$$
=
 OpenBabel10262422423D

 43 47  0  0  1  0  0  0  0  0999 V2000
  189.1830  176.2400  141.8570 C   0  0  0  0  0  2  0  0  0  0  0  0
  191.3020  176.5950  139.9360 N   0  0  0  0  0  2  0  0  0  0  0  0
  189.0710  177.2530  140.8030 N   0  0  0  0  0  0  0  0  0  0  0  0
  188.0720  176.3890  142.8990 C   0  0  0  0  0  2  0  0  0  0  0  0
  190.1260  177.4060  139.8450 C   0  0  0  0  0  0  0  0  0  0  0  0
  187.8910  178.1160  140.7340 C   0  0  0  0  0  2  0  0  0  0  0  0
  190.0270  178.2690  138.9290 O   0  0  0  0  0  0  0  0  0  0  0  0
  187.6230  178.7780  142.0880 C   0  0  0  0  0  2  0  0  0  0  0  0
  187.9380  177.8610  143.2830 C   0  0  1  0  0  3  0  0  0  0  0  0
  186.9860  178.0530  144.3770 N   0  0  0  0  0  0  0  0  0  0  0  0
  180.8590  178.6330  142.3050 C   0  0  2  0  0  3  0  0  0  0  0  0
  185.5860  178.3440  144.1580 C   0  0  0  0  0  0  0  0  0  0  0  0
  182.8530  178.8480  143.7340 C   0  0  0  0  0  0  0  0  0  0  0  0
  181.7620  178.8970  141.0980 C   0  0  0  0  0  2  0  0  0  0  0  0
  179.5390  179.3510  142.1310 C   0  0  0  0  0  1  0  0  0  0  0  0
  183.6710  178.4700  142.6630 C   0  0  0  0  0  0  0  0  0  0  0  0
  181.4900  179.0670  143.5110 O   0  0  0  0  0  0  0  0  0  0  0  0
  183.1030  178.3750  141.3560 N   0  0  0  0  0  2  0  0  0  0  0  0
  185.0260  178.2050  142.8750 C   0  0  0  0  0  3  0  0  0  0  0  0
  184.7580  178.7550  145.2190 C   0  0  0  0  0  3  0  0  0  0  0  0
  183.3990  179.0060  145.0100 C   0  0  0  0  0  3  0  0  0  0  0  0
  187.5480  178.0350  145.7250 C   0  0  0  0  0  2  0  0  0  0  0  0
  191.3130  178.2510  145.6890 C   0  0  0  0  0  2  0  0  0  0  0  0
  191.6910  176.9360  146.2260 N   0  0  0  0  0  0  0  0  0  0  0  0
  189.3470  177.1100  147.1730 C   0  0  0  0  0  2  0  0  0  0  0  0
  189.9430  178.2260  144.9970 C   0  0  0  0  0  2  0  0  0  0  0  0
  188.9150  177.3660  145.7400 C   0  0  0  0  0  3  0  0  0  0  0  0
  190.7070  176.4000  147.1890 C   0  0  0  0  0  2  0  0  0  0  0  0
  192.2470  174.8760  145.7640 C   0  0  0  0  0  1  0  0  0  0  0  0
  191.7760  176.0600  145.1930 O   0  0  0  0  0  0  0  0  0  0  0  0
  192.4430  176.7600  139.0470 C   0  0  0  0  0  2  0  0  0  0  0  0
  193.4070  176.1670  136.8540 C   0  0  0  0  0  1  0  0  0  0  0  0
  192.1240  176.2250  137.6600 C   0  0  1  0  0  3  0  0  0  0  0  0
  191.5490  174.8900  137.7670 N   0  0  0  0  0  2  0  0  0  0  0  0
  189.4100  175.5990  136.7280 N   0  0  0  0  0  2  0  0  0  0  0  0
  190.2370  174.5780  137.3020 C   0  0  0  0  0  0  0  0  0  0  0  0
  189.8180  173.3950  137.3940 O   0  0  0  0  0  0  0  0  0  0  0  0
  188.1450  175.3470  136.0450 C   0  0  0  0  0  3  0  0  0  0  0  0
  186.3800  176.4480  134.5940 C   0  0  0  0  0  2  0  0  0  0  0  0
  185.6240  175.3000  136.3690 C   0  0  0  0  0  2  0  0  0  0  0  0
  185.7350  175.2560  134.9670 O   0  0  0  0  0  0  0  0  0  0  0  0
  186.9980  175.2000  137.0520 C   0  0  0  0  0  2  0  0  0  0  0  0
  187.8700  176.4010  134.9630 C   0  0  0  0  0  2  0  0  0  0  0  0
  1  4  1  0  0  0  0
  3  1  1  0  0  0  0
  4  9  1  0  0  0  0
  5  2  1  0  0  0  0
  5  3  1  0  0  0  0
  6  3  1  0  0  0  0
  6  8  1  0  0  0  0
  7  5  2  0  0  0  0
  8  9  1  0  0  0  0
  9 10  1  1  0  0  0
 10 22  1  0  0  0  0
 11 15  1  6  0  0  0
 11 17  1  0  0  0  0
 12 10  1  0  0  0  0
 12 20  1  0  0  0  0
 13 21  1  0  0  0  0
 14 18  1  0  0  0  0
 14 11  1  0  0  0  0
 16 19  1  0  0  0  0
 16 13  2  0  0  0  0
 17 13  1  0  0  0  0
 18 16  1  0  0  0  0
 19 12  2  0  0  0  0
 21 20  2  0  0  0  0
 22 27  1  0  0  0  0
 23 24  1  0  0  0  0
 24 28  1  0  0  0  0
 25 28  1  0  0  0  0
 26 23  1  0  0  0  0
 26 27  1  0  0  0  0
 27 25  1  0  0  0  0
 30 29  1  0  0  0  0
 30 24  1  0  0  0  0
 31  2  1  0  0  0  0
 33 32  1  6  0  0  0
 33 34  1  0  0  0  0
 33 31  1  0  0  0  0
 35 36  1  0  0  0  0
 36 37  2  0  0  0  0
 36 34  1  0  0  0  0
 38 35  1  0  0  0  0
 38 42  1  0  0  0  0
 39 43  1  0  0  0  0
 39 41  1  0  0  0  0
 40 42  1  0  0  0  0
 41 40  1  0  0  0  0
 43 38  1  0  0  0  0
M  END
>  <MODEL>
8

>  <REMARK>
 VINA RESULT:      -7.3      3.274      7.823
  Name = 
  9 active torsions:
  status: ('A' for Active; 'I' for Inactive)
    1  A    between atoms: C_1  and  N_34
    2  A    between atoms: C_1  and  C_35
    3  A    between atoms: N_3  and  C_42
    4  A    between atoms: N_4  and  C_15
    5  A    between atoms: C_8  and  N_34
    6  A    between atoms: C_11  and  N_14
    7  A    between atoms: C_15  and  C_42
    8  A    between atoms: N_19  and  O_37
    9  A    between atoms: N_34  and  C_38
                            x       y       z     vdW  Elec       q    Type
                         _______ _______ _______ _____ _____    ______ ____

>  <TORSDO>
F 9

$$$$
=
 OpenBabel10262422423D

 43 47  0  0  1  0  0  0  0  0999 V2000
  185.4740  178.9310  140.2720 C   0  0  0  0  0  2  0  0  0  0  0  0
  187.6620  177.8620  141.8130 N   0  0  0  0  0  2  0  0  0  0  0  0
  185.3440  178.7430  141.7200 N   0  0  0  0  0  0  0  0  0  0  0  0
  184.1290  179.2740  139.6270 C   0  0  0  0  0  2  0  0  0  0  0  0
  186.4470  178.2250  142.4750 C   0  0  0  0  0  0  0  0  0  0  0  0
  184.0860  179.0690  142.3950 C   0  0  0  0  0  2  0  0  0  0  0  0
  186.3410  178.0730  143.7240 O   0  0  0  0  0  0  0  0  0  0  0  0
  182.9040  178.3900  141.6970 C   0  0  0  0  0  2  0  0  0  0  0  0
  183.0590  178.3280  140.1680 C   0  0  1  0  0  3  0  0  0  0  0  0
  181.7760  178.5130  139.4880 N   0  0  0  0  0  0  0  0  0  0  0  0
  179.3900  184.2990  137.7580 C   0  0  2  0  0  3  0  0  0  0  0  0
  181.1270  179.8000  139.3720 C   0  0  0  0  0  0  0  0  0  0  0  0
  179.8320  182.2810  139.0970 C   0  0  0  0  0  0  0  0  0  0  0  0
  180.8650  184.2900  137.3550 C   0  0  0  0  0  2  0  0  0  0  0  0
  178.9310  185.7180  138.0120 C   0  0  0  0  0  1  0  0  0  0  0  0
  180.9120  181.9570  138.2680 C   0  0  0  0  0  0  0  0  0  0  0  0
  179.1810  183.5070  138.9280 O   0  0  0  0  0  0  0  0  0  0  0  0
  181.3600  182.9150  137.3070 N   0  0  0  0  0  2  0  0  0  0  0  0
  181.5470  180.7190  138.3930 C   0  0  0  0  0  3  0  0  0  0  0  0
  180.0600  180.1520  140.2190 C   0  0  0  0  0  3  0  0  0  0  0  0
  179.4160  181.3840  140.0840 C   0  0  0  0  0  3  0  0  0  0  0  0
  181.1240  177.2960  139.0100 C   0  0  0  0  0  2  0  0  0  0  0  0
  181.9590  174.1640  137.0840 C   0  0  0  0  0  2  0  0  0  0  0  0
  183.3770  174.3810  136.7640 N   0  0  0  0  0  0  0  0  0  0  0  0
  182.6620  176.7860  137.1230 C   0  0  0  0  0  2  0  0  0  0  0  0
  181.5280  174.9060  138.3560 C   0  0  0  0  0  2  0  0  0  0  0  0
  182.1430  176.3050  138.4670 C   0  0  0  0  0  3  0  0  0  0  0  0
  183.7200  175.8070  136.5930 C   0  0  0  0  0  2  0  0  0  0  0  0
  185.0030  172.9880  137.1920 C   0  0  0  0  0  1  0  0  0  0  0  0
  184.1260  173.8970  137.7880 O   0  0  0  0  0  0  0  0  0  0  0  0
  188.7860  177.2530  142.5090 C   0  0  0  0  0  2  0  0  0  0  0  0
  191.1280  177.8990  142.9430 C   0  0  0  0  0  1  0  0  0  0  0  0
  190.1000  177.6500  141.8570 C   0  0  1  0  0  3  0  0  0  0  0  0
  190.5590  176.5790  140.9800 N   0  0  0  0  0  2  0  0  0  0  0  0
  189.2360  177.4230  139.0580 N   0  0  0  0  0  2  0  0  0  0  0  0
  190.1540  176.4750  139.6160 C   0  0  0  0  0  0  0  0  0  0  0  0
  190.6180  175.5440  138.9080 O   0  0  0  0  0  0  0  0  0  0  0  0
  188.9180  177.5240  137.6380 C   0  0  0  0  0  3  0  0  0  0  0  0
  187.2690  178.5500  136.0050 C   0  0  0  0  0  2  0  0  0  0  0  0
  187.7000  176.3640  135.7300 C   0  0  0  0  0  2  0  0  0  0  0  0
  187.9500  177.6350  135.1820 O   0  0  0  0  0  0  0  0  0  0  0  0
  188.3770  176.1930  137.1010 C   0  0  0  0  0  2  0  0  0  0  0  0
  187.9910  178.7140  137.3510 C   0  0  0  0  0  2  0  0  0  0  0  0
  1  3  1  0  0  0  0
  2  5  1  0  0  0  0
  2 31  1  0  0  0  0
  3  6  1  0  0  0  0
  3  5  1  0  0  0  0
  4  9  1  0  0  0  0
  4  1  1  0  0  0  0
  5  7  2  0  0  0  0
  8  6  1  0  0  0  0
  9 10  1  6  0  0  0
  9  8  1  0  0  0  0
 11 15  1  1  0  0  0
 11 17  1  0  0  0  0
 12 10  1  0  0  0  0
 12 20  1  0  0  0  0
 13 21  1  0  0  0  0
 14 11  1  0  0  0  0
 16 19  1  0  0  0  0
 16 13  2  0  0  0  0
 17 13  1  0  0  0  0
 18 14  1  0  0  0  0
 18 16  1  0  0  0  0
 19 12  2  0  0  0  0
 21 20  2  0  0  0  0
 22 10  1  0  0  0  0
 23 26  1  0  0  0  0
 24 23  1  0  0  0  0
 24 30  1  0  0  0  0
 25 27  1  0  0  0  0
 26 27  1  0  0  0  0
 27 22  1  0  0  0  0
 28 24  1  0  0  0  0
 28 25  1  0  0  0  0
 29 30  1  0  0  0  0
 33 31  1  0  0  0  0
 33 32  1  1  0  0  0
 34 33  1  0  0  0  0
 35 36  1  0  0  0  0
 36 34  1  0  0  0  0
 37 36  2  0  0  0  0
 38 35  1  0  0  0  0
 39 43  1  0  0  0  0
 40 42  1  0  0  0  0
 41 40  1  0  0  0  0
 41 39  1  0  0  0  0
 42 38  1  0  0  0  0
 43 38  1  0  0  0  0
M  END
>  <MODEL>
9

>  <REMARK>
 VINA RESULT:      -7.1      1.675      2.316
  Name = 
  9 active torsions:
  status: ('A' for Active; 'I' for Inactive)
    1  A    between atoms: C_1  and  N_34
    2  A    between atoms: C_1  and  C_35
    3  A    between atoms: N_3  and  C_42
    4  A    between atoms: N_4  and  C_15
    5  A    between atoms: C_8  and  N_34
    6  A    between atoms: C_11  and  N_14
    7  A    between atoms: C_15  and  C_42
    8  A    between atoms: N_19  and  O_37
    9  A    between atoms: N_34  and  C_38
                            x       y       z     vdW  Elec       q    Type
                         _______ _______ _______ _____ _____    ______ ____

>  <TORSDO>
F 9

$$$$
