=
 OpenBabel10262423243D

 34 38  0  0  1  0  0  0  0  0999 V2000
  183.9820  178.3710  141.5300 C   0  0  0  0  0  0  0  0  0  0  0  0
  182.7210  177.2380  138.2560 C   0  0  0  0  0  3  0  0  0  0  0  0
  181.6490  178.0880  140.0820 N   0  0  0  0  0  2  0  0  0  0  0  0
  185.6750  179.9350  142.0900 F   0  0  0  0  0  0  0  0  0  0  0  0
  185.2430  178.6410  142.3260 C   0  0  1  0  0  3  0  0  0  0  0  0
  182.6770  178.8790  143.6040 C   0  0  0  0  0  0  0  0  0  0  0  0
  181.5070  179.1950  144.2120 F   0  0  0  0  0  0  0  0  0  0  0  0
  183.7730  178.7780  144.3530 C   0  0  0  0  0  3  0  0  0  0  0  0
  185.0430  178.4500  143.7670 N   0  0  0  0  0  0  0  0  0  0  0  0
  181.5680  178.4730  141.3770 C   0  0  0  0  0  0  0  0  0  0  0  0
  182.7320  178.5760  142.1520 C   0  0  0  0  0  0  0  0  0  0  0  0
  180.4330  178.7030  141.8760 O   0  0  0  0  0  0  0  0  0  0  0  0
  183.8230  176.5780  137.5010 C   0  0  0  0  0  2  0  0  0  0  0  0
  184.9260  177.5150  137.1630 C   0  0  0  0  0  0  0  0  0  0  0  0
  185.6070  178.1370  138.1160 C   0  0  0  0  0  3  0  0  0  0  0  0
  182.8240  177.8200  139.4570 C   0  0  0  0  0  0  0  0  0  0  0  0
  185.2540  178.1860  139.5460 C   0  0  0  0  0  3  0  0  0  0  0  0
  184.0490  178.0640  140.1460 C   0  0  0  0  0  0  0  0  0  0  0  0
  187.1070  177.7960  146.8380 C   0  0  0  0  0  3  0  0  0  0  0  0
  187.4060  177.7720  144.0530 C   0  0  0  0  0  3  0  0  0  0  0  0
  190.6610  176.8000  146.5310 C   0  0  0  0  0  0  0  0  0  0  0  0
  189.4220  177.1360  147.0960 C   0  0  0  0  0  3  0  0  0  0  0  0
  188.3390  177.4600  146.2760 C   0  0  0  0  0  0  0  0  0  0  0  0
  189.7230  177.1140  144.3090 C   0  0  0  0  0  3  0  0  0  0  0  0
  188.4900  177.4480  144.8720 C   0  0  0  0  0  0  0  0  0  0  0  0
  190.8030  176.7910  145.1350 C   0  0  0  0  0  3  0  0  0  0  0  0
  186.1610  178.1080  144.6120 C   0  0  0  0  0  0  0  0  0  0  0  0
  186.0260  178.1180  146.0120 C   0  0  0  0  0  3  0  0  0  0  0  0
  191.7990  176.4610  147.4010 C   0  0  0  0  0  0  0  0  0  0  0  0
  192.1010  177.1990  148.3760 O   0  0  0  0  0  1  0  0  0  0  0  0
  192.5550  175.3200  147.1530 O   0  0  0  0  0  0  0  0  0  0  0  0
  185.4330  177.5960  135.7610 C   0  0  2  0  0  3  0  0  0  0  0  0
  185.2790  176.2610  135.0530 C   0  0  0  0  0  1  0  0  0  0  0  0
  186.7750  177.9800  135.7550 O   0  0  0  0  0  1  0  0  0  0  0  0
  1 11  2  0  0  0  0
  1  5  1  0  0  0  0
  2 16  2  0  0  0  0
  3 10  1  0  0  0  0
  5  4  1  1  0  0  0
  5  9  1  0  0  0  0
  6  7  1  0  0  0  0
  6  8  2  0  0  0  0
  9  8  1  0  0  0  0
  9 27  1  0  0  0  0
 10 12  2  0  0  0  0
 10 11  1  0  0  0  0
 11  6  1  0  0  0  0
 13  2  1  0  0  0  0
 14 13  1  0  0  0  0
 14 15  2  0  0  0  0
 15 17  1  0  0  0  0
 16  3  1  0  0  0  0
 16 18  1  0  0  0  0
 17 18  2  0  0  0  0
 18  1  1  0  0  0  0
 20 27  2  0  0  0  0
 20 25  1  0  0  0  0
 21 22  1  0  0  0  0
 21 29  1  0  0  0  0
 23 19  1  0  0  0  0
 23 22  2  0  0  0  0
 24 25  2  0  0  0  0
 24 26  1  0  0  0  0
 25 23  1  0  0  0  0
 26 21  2  0  0  0  0
 27 28  1  0  0  0  0
 28 19  2  0  0  0  0
 29 30  1  0  0  0  0
 31 29  2  0  0  0  0
 32 33  1  1  0  0  0
 32 14  1  0  0  0  0
 34 32  1  0  0  0  0
M  END
>  <MODEL>
1

>  <REMARK>
 VINA RESULT:     -10.9      0.000      0.000
  Name = 
  3 active torsions:
  status: ('A' for Active; 'I' for Inactive)
    1  A    between atoms: C_3  and  C_25
    2  A    between atoms: C_7  and  C_11
    3  A    between atoms: N_18  and  C_30
                            x       y       z     vdW  Elec       q    Type
                         _______ _______ _______ _____ _____    ______ ____

>  <TORSDO>
F 3

$$$$
=
 OpenBabel10262423243D

 34 38  0  0  1  0  0  0  0  0999 V2000
  189.3350  177.1670  143.5690 C   0  0  0  0  0  0  0  0  0  0  0  0
  192.5590  177.5510  141.8240 C   0  0  0  0  0  3  0  0  0  0  0  0
  192.0550  177.2500  144.0280 N   0  0  0  0  0  2  0  0  0  0  0  0
  187.5310  175.6740  143.1960 F   0  0  0  0  0  0  0  0  0  0  0  0
  187.8420  177.0130  143.3570 C   0  0  1  0  0  3  0  0  0  0  0  0
  188.8780  177.2740  146.0270 C   0  0  0  0  0  0  0  0  0  0  0  0
  189.3110  177.1980  147.3100 F   0  0  0  0  0  0  0  0  0  0  0  0
  187.5820  177.4780  145.8070 C   0  0  0  0  0  3  0  0  0  0  0  0
  187.0610  177.5640  144.4710 N   0  0  0  0  0  0  0  0  0  0  0  0
  191.2170  177.1990  145.0910 C   0  0  0  0  0  0  0  0  0  0  0  0
  189.8290  177.2080  144.8890 C   0  0  0  0  0  0  0  0  0  0  0  0
  191.7050  177.1780  146.2530 O   0  0  0  0  0  0  0  0  0  0  0  0
  192.3130  177.9290  140.4030 C   0  0  0  0  0  2  0  0  0  0  0  0
  191.6100  176.8630  139.6420 C   0  0  0  0  0  0  0  0  0  0  0  0
  190.4050  176.4470  140.0080 C   0  0  0  0  0  3  0  0  0  0  0  0
  191.6240  177.2750  142.7410 C   0  0  0  0  0  0  0  0  0  0  0  0
  189.7190  176.7740  141.2700 C   0  0  0  0  0  3  0  0  0  0  0  0
  190.2320  177.1220  142.4710 C   0  0  0  0  0  0  0  0  0  0  0  0
  183.6360  178.9690  145.1120 C   0  0  0  0  0  3  0  0  0  0  0  0
  185.1340  177.9610  142.9700 C   0  0  0  0  0  3  0  0  0  0  0  0
  181.1920  179.2840  142.3470 C   0  0  0  0  0  0  0  0  0  0  0  0
  181.7610  179.3470  143.6270 C   0  0  0  0  0  3  0  0  0  0  0  0
  183.0700  178.9080  143.8380 C   0  0  0  0  0  0  0  0  0  0  0  0
  183.2590  178.3360  141.4830 C   0  0  0  0  0  3  0  0  0  0  0  0
  183.8250  178.4000  142.7580 C   0  0  0  0  0  0  0  0  0  0  0  0
  181.9480  178.7770  141.2790 C   0  0  0  0  0  3  0  0  0  0  0  0
  185.7120  178.0230  144.2500 C   0  0  0  0  0  0  0  0  0  0  0  0
  184.9470  178.5300  145.3160 C   0  0  0  0  0  3  0  0  0  0  0  0
  179.8110  179.7470  142.1310 C   0  0  0  0  0  0  0  0  0  0  0  0
  178.9310  178.9530  141.7050 O   0  0  0  0  0  0  0  0  0  0  0  0
  179.4660  181.0670  142.3950 O   0  0  0  0  0  1  0  0  0  0  0  0
  192.1490  176.4080  138.3260 C   0  0  2  0  0  3  0  0  0  0  0  0
  191.5540  175.0680  137.9330 C   0  0  0  0  0  1  0  0  0  0  0  0
  193.5400  176.3080  138.3830 O   0  0  0  0  0  1  0  0  0  0  0  0
  1 11  2  0  0  0  0
  2 16  2  0  0  0  0
  3 10  1  0  0  0  0
  5  4  1  1  0  0  0
  5  1  1  0  0  0  0
  5  9  1  0  0  0  0
  6  7  1  0  0  0  0
  8  6  2  0  0  0  0
  9  8  1  0  0  0  0
 10 12  2  0  0  0  0
 11 10  1  0  0  0  0
 11  6  1  0  0  0  0
 13  2  1  0  0  0  0
 14 15  2  0  0  0  0
 14 13  1  0  0  0  0
 15 17  1  0  0  0  0
 16  3  1  0  0  0  0
 17 18  2  0  0  0  0
 18 16  1  0  0  0  0
 18  1  1  0  0  0  0
 19 28  1  0  0  0  0
 20 27  1  0  0  0  0
 21 22  2  0  0  0  0
 22 23  1  0  0  0  0
 23 19  2  0  0  0  0
 24 25  1  0  0  0  0
 25 20  2  0  0  0  0
 25 23  1  0  0  0  0
 26 24  2  0  0  0  0
 26 21  1  0  0  0  0
 27  9  1  0  0  0  0
 27 28  2  0  0  0  0
 29 21  1  0  0  0  0
 29 31  1  0  0  0  0
 30 29  2  0  0  0  0
 32 33  1  1  0  0  0
 32 34  1  0  0  0  0
 32 14  1  0  0  0  0
M  END
>  <MODEL>
2

>  <REMARK>
 VINA RESULT:     -10.7      3.439      8.221
  Name = 
  3 active torsions:
  status: ('A' for Active; 'I' for Inactive)
    1  A    between atoms: C_3  and  C_25
    2  A    between atoms: C_7  and  C_11
    3  A    between atoms: N_18  and  C_30
                            x       y       z     vdW  Elec       q    Type
                         _______ _______ _______ _____ _____    ______ ____

>  <TORSDO>
F 3

$$$$
=
 OpenBabel10262423243D

 34 38  0  0  1  0  0  0  0  0999 V2000
  183.5000  178.2710  141.5410 C   0  0  0  0  0  0  0  0  0  0  0  0
  181.3740  177.1570  138.7420 C   0  0  0  0  0  3  0  0  0  0  0  0
  180.8590  178.0850  140.7620 N   0  0  0  0  0  2  0  0  0  0  0  0
  185.3490  179.7550  141.5960 F   0  0  0  0  0  0  0  0  0  0  0  0
  184.9370  178.4880  141.9720 C   0  0  1  0  0  3  0  0  0  0  0  0
  182.8100  178.8720  143.8700 C   0  0  0  0  0  0  0  0  0  0  0  0
  181.8560  179.2550  144.7540 F   0  0  0  0  0  0  0  0  0  0  0  0
  184.0590  178.7270  144.3080 C   0  0  0  0  0  3  0  0  0  0  0  0
  185.1150  178.3270  143.4190 N   0  0  0  0  0  0  0  0  0  0  0  0
  181.1380  178.4920  142.0220 C   0  0  0  0  0  0  0  0  0  0  0  0
  182.4690  178.5470  142.4620 C   0  0  0  0  0  0  0  0  0  0  0  0
  180.1860  178.7850  142.7950 O   0  0  0  0  0  0  0  0  0  0  0  0
  182.2090  176.4330  137.7430 C   0  0  0  0  0  2  0  0  0  0  0  0
  183.2250  177.3090  137.1030 C   0  0  0  0  0  0  0  0  0  0  0  0
  184.1600  177.9090  137.8280 C   0  0  0  0  0  3  0  0  0  0  0  0
  181.8160  177.7500  139.8580 C   0  0  0  0  0  0  0  0  0  0  0  0
  184.1970  177.9950  139.2990 C   0  0  0  0  0  3  0  0  0  0  0  0
  183.1880  177.9410  140.1960 C   0  0  0  0  0  0  0  0  0  0  0  0
  188.6620  177.1030  143.6030 C   0  0  0  0  0  3  0  0  0  0  0  0
  186.6510  178.0030  145.3330 C   0  0  0  0  0  3  0  0  0  0  0  0
  190.3920  176.8560  146.8690 C   0  0  0  0  0  0  0  0  0  0  0  0
  190.1480  176.7900  145.4900 C   0  0  0  0  0  3  0  0  0  0  0  0
  188.9060  177.1700  144.9750 C   0  0  0  0  0  0  0  0  0  0  0  0
  188.1340  177.6890  147.2210 C   0  0  0  0  0  3  0  0  0  0  0  0
  187.8920  177.6240  145.8470 C   0  0  0  0  0  0  0  0  0  0  0  0
  189.3790  177.3070  147.7290 C   0  0  0  0  0  3  0  0  0  0  0  0
  186.3980  177.9420  143.9510 C   0  0  0  0  0  0  0  0  0  0  0  0
  187.4170  177.4860  143.0950 C   0  0  0  0  0  3  0  0  0  0  0  0
  191.7030  176.4530  147.4050 C   0  0  0  0  0  0  0  0  0  0  0  0
  192.3110  175.4600  146.9250 O   0  0  0  0  0  0  0  0  0  0  0  0
  192.2820  177.1670  148.4480 O   0  0  0  0  0  1  0  0  0  0  0  0
  183.3500  177.3440  135.6150 C   0  0  2  0  0  3  0  0  0  0  0  0
  182.5330  176.2340  134.9780 C   0  0  0  0  0  1  0  0  0  0  0  0
  184.6880  177.2200  135.2410 O   0  0  0  0  0  1  0  0  0  0  0  0
  1  5  1  0  0  0  0
  1 11  2  0  0  0  0
  2 16  2  0  0  0  0
  3 10  1  0  0  0  0
  5  4  1  1  0  0  0
  5  9  1  0  0  0  0
  6  8  2  0  0  0  0
  6  7  1  0  0  0  0
  9 27  1  0  0  0  0
  9  8  1  0  0  0  0
 10 11  1  0  0  0  0
 10 12  2  0  0  0  0
 11  6  1  0  0  0  0
 13  2  1  0  0  0  0
 14 13  1  0  0  0  0
 14 15  2  0  0  0  0
 15 17  1  0  0  0  0
 16 18  1  0  0  0  0
 16  3  1  0  0  0  0
 17 18  2  0  0  0  0
 18  1  1  0  0  0  0
 19 23  1  0  0  0  0
 20 25  1  0  0  0  0
 21 29  1  0  0  0  0
 21 26  1  0  0  0  0
 22 21  2  0  0  0  0
 23 22  1  0  0  0  0
 23 25  2  0  0  0  0
 24 26  2  0  0  0  0
 25 24  1  0  0  0  0
 27 20  2  0  0  0  0
 28 19  2  0  0  0  0
 28 27  1  0  0  0  0
 29 31  1  0  0  0  0
 30 29  2  0  0  0  0
 32 33  1  6  0  0  0
 32 14  1  0  0  0  0
 34 32  1  0  0  0  0
M  END
>  <MODEL>
3

>  <REMARK>
 VINA RESULT:     -10.7      1.036      1.708
  Name = 
  3 active torsions:
  status: ('A' for Active; 'I' for Inactive)
    1  A    between atoms: C_3  and  C_25
    2  A    between atoms: C_7  and  C_11
    3  A    between atoms: N_18  and  C_30
                            x       y       z     vdW  Elec       q    Type
                         _______ _______ _______ _____ _____    ______ ____

>  <TORSDO>
F 3

$$$$
=
 OpenBabel10262423243D

 34 38  0  0  1  0  0  0  0  0999 V2000
  182.4440  177.9930  141.0590 C   0  0  0  0  0  0  0  0  0  0  0  0
  180.7690  176.1600  138.3340 C   0  0  0  0  0  3  0  0  0  0  0  0
  179.9600  177.5750  139.9300 N   0  0  0  0  0  2  0  0  0  0  0  0
  184.3030  179.4650  141.0320 F   0  0  0  0  0  0  0  0  0  0  0  0
  183.7970  178.3340  141.6490 C   0  0  1  0  0  3  0  0  0  0  0  0
  181.4030  179.1710  143.0060 C   0  0  0  0  0  0  0  0  0  0  0  0
  180.3290  179.7580  143.5900 F   0  0  0  0  0  0  0  0  0  0  0  0
  182.5580  179.1620  143.6660 C   0  0  0  0  0  3  0  0  0  0  0  0
  183.7320  178.5590  143.0980 N   0  0  0  0  0  0  0  0  0  0  0  0
  180.0430  178.3000  141.0700 C   0  0  0  0  0  0  0  0  0  0  0  0
  181.2850  178.4860  141.6940 C   0  0  0  0  0  0  0  0  0  0  0  0
  178.9870  178.7710  141.5720 O   0  0  0  0  0  0  0  0  0  0  0  0
  181.7330  175.2110  137.7080 C   0  0  0  0  0  2  0  0  0  0  0  0
  182.8660  175.9040  137.0400 C   0  0  0  0  0  0  0  0  0  0  0  0
  183.6880  176.6850  137.7280 C   0  0  0  0  0  3  0  0  0  0  0  0
  181.0410  177.0290  139.3150 C   0  0  0  0  0  0  0  0  0  0  0  0
  183.4880  177.1520  139.1120 C   0  0  0  0  0  3  0  0  0  0  0  0
  182.3450  177.3200  139.8130 C   0  0  0  0  0  0  0  0  0  0  0  0
  186.0010  178.4320  146.0900 C   0  0  0  0  0  3  0  0  0  0  0  0
  186.0910  177.8520  143.3510 C   0  0  0  0  0  3  0  0  0  0  0  0
  189.4940  177.2480  145.7450 C   0  0  0  0  0  0  0  0  0  0  0  0
  188.3110  177.7400  146.3150 C   0  0  0  0  0  3  0  0  0  0  0  0
  187.1780  177.9420  145.5230 C   0  0  0  0  0  0  0  0  0  0  0  0
  188.4010  177.1600  143.5740 C   0  0  0  0  0  3  0  0  0  0  0  0
  187.2230  177.6490  144.1430 C   0  0  0  0  0  0  0  0  0  0  0  0
  189.5310  176.9600  144.3720 C   0  0  0  0  0  3  0  0  0  0  0  0
  184.9000  178.3430  143.9160 C   0  0  0  0  0  0  0  0  0  0  0  0
  184.8710  178.6320  145.2920 C   0  0  0  0  0  3  0  0  0  0  0  0
  190.6840  177.0380  146.5850 C   0  0  0  0  0  0  0  0  0  0  0  0
  190.5850  177.0230  147.8410 O   0  0  0  0  0  1  0  0  0  0  0  0
  191.9310  176.8550  145.9990 O   0  0  0  0  0  0  0  0  0  0  0  0
  183.2320  175.5520  135.6360 C   0  0  2  0  0  3  0  0  0  0  0  0
  183.6450  176.7890  134.8590 C   0  0  0  0  0  1  0  0  0  0  0  0
  182.1560  174.9320  134.9980 O   0  0  0  0  0  1  0  0  0  0  0  0
  1  5  1  0  0  0  0
  1 11  2  0  0  0  0
  2 16  2  0  0  0  0
  3 10  1  0  0  0  0
  5  4  1  6  0  0  0
  5  9  1  0  0  0  0
  6  7  1  0  0  0  0
  6  8  2  0  0  0  0
  9  8  1  0  0  0  0
  9 27  1  0  0  0  0
 10 12  2  0  0  0  0
 10 11  1  0  0  0  0
 11  6  1  0  0  0  0
 13  2  1  0  0  0  0
 14 13  1  0  0  0  0
 14 15  2  0  0  0  0
 15 17  1  0  0  0  0
 16 18  1  0  0  0  0
 16  3  1  0  0  0  0
 17 18  2  0  0  0  0
 18  1  1  0  0  0  0
 20 27  2  0  0  0  0
 20 25  1  0  0  0  0
 21 22  1  0  0  0  0
 21 29  1  0  0  0  0
 23 19  1  0  0  0  0
 23 22  2  0  0  0  0
 24 25  2  0  0  0  0
 24 26  1  0  0  0  0
 25 23  1  0  0  0  0
 26 21  2  0  0  0  0
 27 28  1  0  0  0  0
 28 19  2  0  0  0  0
 29 30  1  0  0  0  0
 31 29  2  0  0  0  0
 32 33  1  6  0  0  0
 32 14  1  0  0  0  0
 34 32  1  0  0  0  0
M  END
>  <MODEL>
4

>  <REMARK>
 VINA RESULT:     -10.2      1.652      2.007
  Name = 
  3 active torsions:
  status: ('A' for Active; 'I' for Inactive)
    1  A    between atoms: C_3  and  C_25
    2  A    between atoms: C_7  and  C_11
    3  A    between atoms: N_18  and  C_30
                            x       y       z     vdW  Elec       q    Type
                         _______ _______ _______ _____ _____    ______ ____

>  <TORSDO>
F 3

$$$$
=
 OpenBabel10262423243D

 34 38  0  0  1  0  0  0  0  0999 V2000
  189.6700  176.4010  138.1920 C   0  0  0  0  0  0  0  0  0  0  0  0
  190.4450  173.9280  135.5700 C   0  0  0  0  0  3  0  0  0  0  0  0
  188.8760  175.5810  135.6800 N   0  0  0  0  0  2  0  0  0  0  0  0
  191.0550  177.9650  139.3140 F   0  0  0  0  0  0  0  0  0  0  0  0
  190.1350  176.9530  139.5250 C   0  0  1  0  0  3  0  0  0  0  0  0
  187.6600  177.8780  138.3880 C   0  0  0  0  0  0  0  0  0  0  0  0
  186.5920  178.4940  137.8240 F   0  0  0  0  0  0  0  0  0  0  0  0
  187.9040  178.0880  139.6790 C   0  0  0  0  0  3  0  0  0  0  0  0
  189.0220  177.4670  140.3330 N   0  0  0  0  0  0  0  0  0  0  0  0
  188.1480  176.5300  136.3140 C   0  0  0  0  0  0  0  0  0  0  0  0
  188.4980  176.9300  137.6120 C   0  0  0  0  0  0  0  0  0  0  0  0
  187.1410  177.0180  135.7340 O   0  0  0  0  0  0  0  0  0  0  0  0
  191.4320  172.9420  136.0920 C   0  0  0  0  0  2  0  0  0  0  0  0
  192.7460  173.5620  136.4100 C   0  0  0  0  0  0  0  0  0  0  0  0
  192.8430  174.5250  137.3160 C   0  0  0  0  0  3  0  0  0  0  0  0
  189.9750  174.9980  136.2220 C   0  0  0  0  0  0  0  0  0  0  0  0
  191.7210  175.2520  137.9360 C   0  0  0  0  0  3  0  0  0  0  0  0
  190.4720  175.4800  137.4700 C   0  0  0  0  0  0  0  0  0  0  0  0
  190.5120  177.5700  143.7810 C   0  0  0  0  0  3  0  0  0  0  0  0
  187.9830  177.5110  142.5790 C   0  0  0  0  0  3  0  0  0  0  0  0
  188.3220  177.6130  146.7680 C   0  0  0  0  0  0  0  0  0  0  0  0
  189.4750  177.6090  145.9680 C   0  0  0  0  0  3  0  0  0  0  0  0
  189.3660  177.5750  144.5760 C   0  0  0  0  0  0  0  0  0  0  0  0
  186.9430  177.5480  144.7650 C   0  0  0  0  0  3  0  0  0  0  0  0
  188.0910  177.5450  143.9700 C   0  0  0  0  0  0  0  0  0  0  0  0
  187.0590  177.5820  146.1580 C   0  0  0  0  0  3  0  0  0  0  0  0
  189.1330  177.5090  141.7700 C   0  0  0  0  0  0  0  0  0  0  0  0
  190.3960  177.5360  142.3880 C   0  0  0  0  0  3  0  0  0  0  0  0
  188.4440  177.6470  148.2350 C   0  0  0  0  0  0  0  0  0  0  0  0
  187.5550  177.1280  148.9610 O   0  0  0  0  0  1  0  0  0  0  0  0
  189.5420  178.2550  148.8320 O   0  0  0  0  0  0  0  0  0  0  0  0
  194.0030  172.9540  135.8820 C   0  0  2  0  0  3  0  0  0  0  0  0
  194.1730  171.5340  136.3920 C   0  0  0  0  0  1  0  0  0  0  0  0
  195.1050  173.7250  136.2580 O   0  0  0  0  0  1  0  0  0  0  0  0
  1  5  1  0  0  0  0
  2 13  1  0  0  0  0
  2 16  2  0  0  0  0
  3 16  1  0  0  0  0
  3 10  1  0  0  0  0
  5  4  1  6  0  0  0
  5  9  1  0  0  0  0
  6  8  2  0  0  0  0
  7  6  1  0  0  0  0
  8  9  1  0  0  0  0
  9 27  1  0  0  0  0
 10 11  1  0  0  0  0
 11  1  2  0  0  0  0
 11  6  1  0  0  0  0
 12 10  2  0  0  0  0
 13 14  1  0  0  0  0
 14 15  2  0  0  0  0
 15 17  1  0  0  0  0
 16 18  1  0  0  0  0
 18 17  2  0  0  0  0
 18  1  1  0  0  0  0
 19 23  1  0  0  0  0
 20 25  1  0  0  0  0
 21 29  1  0  0  0  0
 22 21  2  0  0  0  0
 23 22  1  0  0  0  0
 24 26  2  0  0  0  0
 25 23  2  0  0  0  0
 25 24  1  0  0  0  0
 26 21  1  0  0  0  0
 27 28  1  0  0  0  0
 27 20  2  0  0  0  0
 28 19  2  0  0  0  0
 29 31  2  0  0  0  0
 29 30  1  0  0  0  0
 32 34  1  0  0  0  0
 32 33  1  1  0  0  0
 32 14  1  0  0  0  0
M  END
>  <MODEL>
5

>  <REMARK>
 VINA RESULT:      -9.6      5.103      6.700
  Name = 
  3 active torsions:
  status: ('A' for Active; 'I' for Inactive)
    1  A    between atoms: C_3  and  C_25
    2  A    between atoms: C_7  and  C_11
    3  A    between atoms: N_18  and  C_30
                            x       y       z     vdW  Elec       q    Type
                         _______ _______ _______ _____ _____    ______ ____

>  <TORSDO>
F 3

$$$$
=
 OpenBabel10262423243D

 34 38  0  0  1  0  0  0  0  0999 V2000
  189.9100  176.5730  138.1720 C   0  0  0  0  0  0  0  0  0  0  0  0
  191.6010  174.2980  135.8140 C   0  0  0  0  0  3  0  0  0  0  0  0
  189.7740  175.6440  135.5760 N   0  0  0  0  0  2  0  0  0  0  0  0
  190.7540  178.3500  139.4960 F   0  0  0  0  0  0  0  0  0  0  0  0
  190.0030  177.1880  139.5530 C   0  0  1  0  0  3  0  0  0  0  0  0
  187.6720  177.6660  137.9380 C   0  0  0  0  0  0  0  0  0  0  0  0
  186.6420  178.0870  137.1630 F   0  0  0  0  0  0  0  0  0  0  0  0
  187.6210  177.9070  139.2460 C   0  0  0  0  0  3  0  0  0  0  0  0
  188.6830  177.4900  140.1190 N   0  0  0  0  0  0  0  0  0  0  0  0
  188.7820  176.4440  136.0330 C   0  0  0  0  0  0  0  0  0  0  0  0
  188.7980  176.8890  137.3630 C   0  0  0  0  0  0  0  0  0  0  0  0
  187.8370  176.7490  135.2580 O   0  0  0  0  0  0  0  0  0  0  0  0
  192.6260  173.4990  136.5430 C   0  0  0  0  0  2  0  0  0  0  0  0
  193.7230  174.3400  137.0890 C   0  0  0  0  0  0  0  0  0  0  0  0
  193.4720  175.2990  137.9720 C   0  0  0  0  0  3  0  0  0  0  0  0
  190.8330  175.2620  136.3350 C   0  0  0  0  0  0  0  0  0  0  0  0
  192.1410  175.8100  138.3440 C   0  0  0  0  0  3  0  0  0  0  0  0
  190.9860  175.8150  137.6410 C   0  0  0  0  0  0  0  0  0  0  0  0
  187.0600  177.8780  143.4850 C   0  0  0  0  0  3  0  0  0  0  0  0
  189.5880  177.3220  142.4160 C   0  0  0  0  0  3  0  0  0  0  0  0
  189.0540  177.4920  146.5820 C   0  0  0  0  0  0  0  0  0  0  0  0
  187.9670  177.7130  145.7240 C   0  0  0  0  0  3  0  0  0  0  0  0
  188.1400  177.6570  144.3390 C   0  0  0  0  0  0  0  0  0  0  0  0
  190.4980  177.1570  144.6540 C   0  0  0  0  0  3  0  0  0  0  0  0
  189.4150  177.3760  143.8000 C   0  0  0  0  0  0  0  0  0  0  0  0
  190.3170  177.2140  146.0390 C   0  0  0  0  0  3  0  0  0  0  0  0
  188.5040  177.5390  141.5490 C   0  0  0  0  0  0  0  0  0  0  0  0
  187.2400  177.8200  142.1000 C   0  0  0  0  0  3  0  0  0  0  0  0
  188.8640  177.5530  148.0410 C   0  0  0  0  0  0  0  0  0  0  0  0
  187.8880  176.9690  148.5830 O   0  0  0  0  0  0  0  0  0  0  0  0
  189.7620  178.2560  148.8350 O   0  0  0  0  0  1  0  0  0  0  0  0
  195.1470  173.9710  136.8300 C   0  0  2  0  0  3  0  0  0  0  0  0
  195.6020  172.8740  137.7760 C   0  0  0  0  0  1  0  0  0  0  0  0
  195.9690  175.0890  136.9730 O   0  0  0  0  0  1  0  0  0  0  0  0
  1  5  1  0  0  0  0
  2 16  2  0  0  0  0
  2 13  1  0  0  0  0
  3 10  1  0  0  0  0
  3 16  1  0  0  0  0
  5  4  1  6  0  0  0
  5  9  1  0  0  0  0
  6  8  2  0  0  0  0
  7  6  1  0  0  0  0
  8  9  1  0  0  0  0
  9 27  1  0  0  0  0
 10 11  1  0  0  0  0
 11  6  1  0  0  0  0
 11  1  2  0  0  0  0
 12 10  2  0  0  0  0
 13 14  1  0  0  0  0
 14 15  2  0  0  0  0
 15 17  1  0  0  0  0
 16 18  1  0  0  0  0
 18  1  1  0  0  0  0
 18 17  2  0  0  0  0
 19 23  1  0  0  0  0
 20 25  1  0  0  0  0
 21 29  1  0  0  0  0
 22 21  2  0  0  0  0
 23 22  1  0  0  0  0
 24 26  2  0  0  0  0
 25 23  2  0  0  0  0
 25 24  1  0  0  0  0
 26 21  1  0  0  0  0
 27 28  1  0  0  0  0
 27 20  2  0  0  0  0
 28 19  2  0  0  0  0
 29 30  2  0  0  0  0
 29 31  1  0  0  0  0
 32 34  1  0  0  0  0
 32 14  1  0  0  0  0
 32 33  1  1  0  0  0
M  END
>  <MODEL>
6

>  <REMARK>
 VINA RESULT:      -9.3      5.268      6.944
  Name = 
  3 active torsions:
  status: ('A' for Active; 'I' for Inactive)
    1  A    between atoms: C_3  and  C_25
    2  A    between atoms: C_7  and  C_11
    3  A    between atoms: N_18  and  C_30
                            x       y       z     vdW  Elec       q    Type
                         _______ _______ _______ _____ _____    ______ ____

>  <TORSDO>
F 3

$$$$
=
 OpenBabel10262423243D

 34 38  0  0  1  0  0  0  0  0999 V2000
  188.3840  176.1920  137.2480 C   0  0  0  0  0  0  0  0  0  0  0  0
  186.3290  174.1450  134.9730 C   0  0  0  0  0  3  0  0  0  0  0  0
  186.8430  176.3670  134.9650 N   0  0  0  0  0  2  0  0  0  0  0  0
  190.6170  175.9200  137.9980 F   0  0  0  0  0  0  0  0  0  0  0  0
  189.3210  176.1290  138.4370 C   0  0  1  0  0  3  0  0  0  0  0  0
  188.5280  178.6870  137.3870 C   0  0  0  0  0  0  0  0  0  0  0  0
  188.3510  179.9090  136.8290 F   0  0  0  0  0  0  0  0  0  0  0  0
  189.0570  178.6170  138.6070 C   0  0  0  0  0  3  0  0  0  0  0  0
  189.2730  177.3500  139.2500 N   0  0  0  0  0  0  0  0  0  0  0  0
  187.3330  177.5070  135.5070 C   0  0  0  0  0  0  0  0  0  0  0  0
  188.0760  177.4530  136.6960 C   0  0  0  0  0  0  0  0  0  0  0  0
  187.0810  178.6080  134.9480 O   0  0  0  0  0  0  0  0  0  0  0  0
  186.1510  172.7840  135.5530 C   0  0  0  0  0  2  0  0  0  0  0  0
  187.4320  172.0360  135.6610 C   0  0  0  0  0  0  0  0  0  0  0  0
  188.4310  172.5010  136.4000 C   0  0  0  0  0  3  0  0  0  0  0  0
  187.0610  175.1360  135.4940 C   0  0  0  0  0  0  0  0  0  0  0  0
  188.5200  173.8460  136.9950 C   0  0  0  0  0  3  0  0  0  0  0  0
  187.9430  175.0050  136.6070 C   0  0  0  0  0  0  0  0  0  0  0  0
  191.3000  177.1270  142.4050 C   0  0  0  0  0  3  0  0  0  0  0  0
  188.6170  177.3560  141.6360 C   0  0  0  0  0  3  0  0  0  0  0  0
  189.6330  177.1890  145.7120 C   0  0  0  0  0  0  0  0  0  0  0  0
  190.6360  177.1310  144.7340 C   0  0  0  0  0  3  0  0  0  0  0  0
  190.3030  177.1860  143.3780 C   0  0  0  0  0  0  0  0  0  0  0  0
  187.9500  177.3590  143.9640 C   0  0  0  0  0  3  0  0  0  0  0  0
  188.9500  177.3020  142.9910 C   0  0  0  0  0  0  0  0  0  0  0  0
  188.2910  177.3030  145.3190 C   0  0  0  0  0  3  0  0  0  0  0  0
  189.6160  177.3000  140.6490 C   0  0  0  0  0  0  0  0  0  0  0  0
  190.9600  177.1830  141.0500 C   0  0  0  0  0  3  0  0  0  0  0  0
  189.9910  177.1290  147.1390 C   0  0  0  0  0  0  0  0  0  0  0  0
  191.1070  176.6690  147.4980 O   0  0  0  0  0  0  0  0  0  0  0  0
  189.0990  177.5810  148.1040 O   0  0  0  0  0  1  0  0  0  0  0  0
  187.5310  170.6460  135.1270 C   0  0  2  0  0  3  0  0  0  0  0  0
  186.1530  170.0280  134.9700 C   0  0  0  0  0  1  0  0  0  0  0  0
  188.3080  169.8570  135.9770 O   0  0  0  0  0  1  0  0  0  0  0  0
  1  5  1  0  0  0  0
  2 16  2  0  0  0  0
  2 13  1  0  0  0  0
  3 16  1  0  0  0  0
  3 10  1  0  0  0  0
  5  4  1  6  0  0  0
  5  9  1  0  0  0  0
  6  8  2  0  0  0  0
  7  6  1  0  0  0  0
  8  9  1  0  0  0  0
  9 27  1  0  0  0  0
 10 11  1  0  0  0  0
 11  1  2  0  0  0  0
 11  6  1  0  0  0  0
 12 10  2  0  0  0  0
 13 14  1  0  0  0  0
 14 15  2  0  0  0  0
 15 17  1  0  0  0  0
 16 18  1  0  0  0  0
 18 17  2  0  0  0  0
 18  1  1  0  0  0  0
 19 23  1  0  0  0  0
 20 25  1  0  0  0  0
 21 29  1  0  0  0  0
 22 21  2  0  0  0  0
 23 22  1  0  0  0  0
 24 26  2  0  0  0  0
 25 23  2  0  0  0  0
 25 24  1  0  0  0  0
 26 21  1  0  0  0  0
 27 28  1  0  0  0  0
 27 20  2  0  0  0  0
 28 19  2  0  0  0  0
 29 30  2  0  0  0  0
 29 31  1  0  0  0  0
 32 33  1  1  0  0  0
 32 14  1  0  0  0  0
 32 34  1  0  0  0  0
M  END
>  <MODEL>
7

>  <REMARK>
 VINA RESULT:      -8.6      4.420      6.147
  Name = 
  3 active torsions:
  status: ('A' for Active; 'I' for Inactive)
    1  A    between atoms: C_3  and  C_25
    2  A    between atoms: C_7  and  C_11
    3  A    between atoms: N_18  and  C_30
                            x       y       z     vdW  Elec       q    Type
                         _______ _______ _______ _____ _____    ______ ____

>  <TORSDO>
F 3

$$$$
=
 OpenBabel10262423243D

 34 38  0  0  1  0  0  0  0  0999 V2000
  189.4950  177.8060  141.5800 C   0  0  0  0  0  0  0  0  0  0  0  0
  192.0480  175.9910  143.5240 C   0  0  0  0  0  3  0  0  0  0  0  0
  191.9930  176.6560  141.3420 N   0  0  0  0  0  2  0  0  0  0  0  0
  188.4020  179.8700  141.9910 F   0  0  0  0  0  0  0  0  0  0  0  0
  188.1730  178.5400  141.6850 C   0  0  1  0  0  3  0  0  0  0  0  0
  189.3540  178.1030  139.0990 C   0  0  0  0  0  0  0  0  0  0  0  0
  189.9430  178.1020  137.8780 F   0  0  0  0  0  0  0  0  0  0  0  0
  188.0660  178.4300  139.1830 C   0  0  0  0  0  3  0  0  0  0  0  0
  187.3880  178.4530  140.4490 N   0  0  0  0  0  0  0  0  0  0  0  0
  191.3890  177.1350  140.2290 C   0  0  0  0  0  0  0  0  0  0  0  0
  190.0980  177.6780  140.3110 C   0  0  0  0  0  0  0  0  0  0  0  0
  191.9900  177.0520  139.1240 O   0  0  0  0  0  0  0  0  0  0  0  0
  191.4920  175.6290  144.8580 C   0  0  0  0  0  2  0  0  0  0  0  0
  191.1790  176.8210  145.6900 C   0  0  0  0  0  0  0  0  0  0  0  0
  190.2970  177.7240  145.2810 C   0  0  0  0  0  3  0  0  0  0  0  0
  191.4260  176.7020  142.5750 C   0  0  0  0  0  0  0  0  0  0  0  0
  189.7050  177.8140  143.9350 C   0  0  0  0  0  3  0  0  0  0  0  0
  190.1880  177.3880  142.7460 C   0  0  0  0  0  0  0  0  0  0  0  0
  183.8090  178.7470  139.3440 C   0  0  0  0  0  3  0  0  0  0  0  0
  185.2770  178.6420  141.7270 C   0  0  0  0  0  3  0  0  0  0  0  0
  181.0900  179.0040  141.8460 C   0  0  0  0  0  0  0  0  0  0  0  0
  181.7560  178.9350  140.6130 C   0  0  0  0  0  3  0  0  0  0  0  0
  183.1460  178.8150  140.5690 C   0  0  0  0  0  0  0  0  0  0  0  0
  183.2250  178.8310  142.9990 C   0  0  0  0  0  3  0  0  0  0  0  0
  183.8870  178.7610  141.7710 C   0  0  0  0  0  0  0  0  0  0  0  0
  181.8320  178.9510  143.0350 C   0  0  0  0  0  3  0  0  0  0  0  0
  185.9510  178.5700  140.4950 C   0  0  0  0  0  0  0  0  0  0  0  0
  185.2010  178.6260  139.3070 C   0  0  0  0  0  3  0  0  0  0  0  0
  179.6240  179.1310  141.8850 C   0  0  0  0  0  0  0  0  0  0  0  0
  178.9360  178.9140  140.8520 O   0  0  0  0  0  0  0  0  0  0  0  0
  178.9840  179.4950  143.0640 O   0  0  0  0  0  1  0  0  0  0  0  0
  191.6810  176.9040  147.0940 C   0  0  2  0  0  3  0  0  0  0  0  0
  192.4030  175.6280  147.4850 C   0  0  0  0  0  1  0  0  0  0  0  0
  190.6200  177.1340  147.9710 O   0  0  0  0  0  1  0  0  0  0  0  0
  1  5  1  0  0  0  0
  1 18  1  0  0  0  0
  2 13  1  0  0  0  0
  3 16  1  0  0  0  0
  5  4  1  6  0  0  0
  6  8  2  0  0  0  0
  6 11  1  0  0  0  0
  7  6  1  0  0  0  0
  8  9  1  0  0  0  0
  9 27  1  0  0  0  0
  9  5  1  0  0  0  0
 10 11  1  0  0  0  0
 10  3  1  0  0  0  0
 11  1  2  0  0  0  0
 12 10  2  0  0  0  0
 13 14  1  0  0  0  0
 14 32  1  0  0  0  0
 15 14  2  0  0  0  0
 16 18  1  0  0  0  0
 16  2  2  0  0  0  0
 17 15  1  0  0  0  0
 18 17  2  0  0  0  0
 19 23  1  0  0  0  0
 20 25  1  0  0  0  0
 21 29  1  0  0  0  0
 21 26  1  0  0  0  0
 22 21  2  0  0  0  0
 23 22  1  0  0  0  0
 23 25  2  0  0  0  0
 24 26  2  0  0  0  0
 25 24  1  0  0  0  0
 27 20  2  0  0  0  0
 28 19  2  0  0  0  0
 28 27  1  0  0  0  0
 29 31  1  0  0  0  0
 30 29  2  0  0  0  0
 32 33  1  1  0  0  0
 32 34  1  0  0  0  0
M  END
>  <MODEL>
8

>  <REMARK>
 VINA RESULT:      -8.5      2.911      9.478
  Name = 
  3 active torsions:
  status: ('A' for Active; 'I' for Inactive)
    1  A    between atoms: C_3  and  C_25
    2  A    between atoms: C_7  and  C_11
    3  A    between atoms: N_18  and  C_30
                            x       y       z     vdW  Elec       q    Type
                         _______ _______ _______ _____ _____    ______ ____

>  <TORSDO>
F 3

$$$$
=
 OpenBabel10262423243D

 34 38  0  0  1  0  0  0  0  0999 V2000
  184.7740  178.6630  142.7580 C   0  0  0  0  0  0  0  0  0  0  0  0
  181.1010  178.3970  142.5890 C   0  0  0  0  0  3  0  0  0  0  0  0
  182.5250  178.6260  144.3570 N   0  0  0  0  0  2  0  0  0  0  0  0
  186.2810  180.1280  141.6580 F   0  0  0  0  0  0  0  0  0  0  0  0
  186.0290  178.7920  141.9170 C   0  0  1  0  0  3  0  0  0  0  0  0
  186.2530  178.4780  144.7680 C   0  0  0  0  0  0  0  0  0  0  0  0
  186.4250  178.5270  146.1120 F   0  0  0  0  0  0  0  0  0  0  0  0
  187.3170  178.2530  144.0000 C   0  0  0  0  0  3  0  0  0  0  0  0
  187.2000  178.1930  142.5700 N   0  0  0  0  0  0  0  0  0  0  0  0
  183.7440  178.6290  144.9480 C   0  0  0  0  0  0  0  0  0  0  0  0
  184.9040  178.5960  144.1610 C   0  0  0  0  0  0  0  0  0  0  0  0
  183.8120  178.6280  146.2070 O   0  0  0  0  0  0  0  0  0  0  0  0
  180.6910  178.0550  141.1990 C   0  0  0  0  0  2  0  0  0  0  0  0
  181.0250  179.1260  140.2240 C   0  0  0  0  0  0  0  0  0  0  0  0
  182.2820  179.5060  140.0330 C   0  0  0  0  0  3  0  0  0  0  0  0
  182.3510  178.6280  143.0110 C   0  0  0  0  0  0  0  0  0  0  0  0
  183.4390  179.1300  140.8640 C   0  0  0  0  0  3  0  0  0  0  0  0
  183.4900  178.7580  142.1630 C   0  0  0  0  0  0  0  0  0  0  0  0
  190.4750  176.6140  141.6220 C   0  0  0  0  0  3  0  0  0  0  0  0
  188.3080  177.8810  140.3790 C   0  0  0  0  0  3  0  0  0  0  0  0
  191.5400  176.4910  138.0770 C   0  0  0  0  0  0  0  0  0  0  0  0
  191.5430  176.3210  139.4690 C   0  0  0  0  0  3  0  0  0  0  0  0
  190.4710  176.7820  140.2370 C   0  0  0  0  0  0  0  0  0  0  0  0
  189.3750  177.5900  138.2240 C   0  0  0  0  0  3  0  0  0  0  0  0
  189.3790  177.4200  139.6100 C   0  0  0  0  0  0  0  0  0  0  0  0
  190.4510  177.1270  137.4620 C   0  0  0  0  0  3  0  0  0  0  0  0
  188.3020  177.7120  141.7740 C   0  0  0  0  0  0  0  0  0  0  0  0
  189.3980  177.0760  142.3860 C   0  0  0  0  0  3  0  0  0  0  0  0
  192.6730  176.0050  137.2730 C   0  0  0  0  0  0  0  0  0  0  0  0
  192.5520  174.9770  136.5550 O   0  0  0  0  0  0  0  0  0  0  0  0
  193.8900  176.6760  137.3000 O   0  0  0  0  0  1  0  0  0  0  0  0
  179.9810  179.6300  139.2820 C   0  0  2  0  0  3  0  0  0  0  0  0
  180.6170  180.3290  138.0940 C   0  0  0  0  0  1  0  0  0  0  0  0
  179.1210  180.5080  139.9420 O   0  0  0  0  0  1  0  0  0  0  0  0
  1 11  2  0  0  0  0
  2 16  2  0  0  0  0
  3 10  1  0  0  0  0
  5  4  1  1  0  0  0
  5  9  1  0  0  0  0
  5  1  1  0  0  0  0
  6  7  1  0  0  0  0
  8  6  2  0  0  0  0
  9  8  1  0  0  0  0
 10 12  2  0  0  0  0
 11  6  1  0  0  0  0
 11 10  1  0  0  0  0
 13  2  1  0  0  0  0
 14 13  1  0  0  0  0
 15 14  2  0  0  0  0
 15 17  1  0  0  0  0
 16  3  1  0  0  0  0
 17 18  2  0  0  0  0
 18  1  1  0  0  0  0
 18 16  1  0  0  0  0
 19 28  1  0  0  0  0
 20 27  1  0  0  0  0
 21 22  2  0  0  0  0
 22 23  1  0  0  0  0
 23 19  2  0  0  0  0
 24 25  1  0  0  0  0
 25 23  1  0  0  0  0
 25 20  2  0  0  0  0
 26 21  1  0  0  0  0
 26 24  2  0  0  0  0
 27 28  2  0  0  0  0
 27  9  1  0  0  0  0
 29 31  1  0  0  0  0
 29 21  1  0  0  0  0
 30 29  2  0  0  0  0
 32 33  1  6  0  0  0
 32 34  1  0  0  0  0
 32 14  1  0  0  0  0
M  END
>  <MODEL>
9

>  <REMARK>
 VINA RESULT:      -8.3      3.789      5.886
  Name = 
  3 active torsions:
  status: ('A' for Active; 'I' for Inactive)
    1  A    between atoms: C_3  and  C_25
    2  A    between atoms: C_7  and  C_11
    3  A    between atoms: N_18  and  C_30
                            x       y       z     vdW  Elec       q    Type
                         _______ _______ _______ _____ _____    ______ ____

>  <TORSDO>
F 3

$$$$
