=
 OpenBabel10262422573D

 37 40  0  0  1  0  0  0  0  0999 V2000
  189.0550  177.9160  136.9990 O   0  0  0  0  0  0  0  0  0  0  0  0
  191.0830  175.9270  139.3780 C   0  0  0  0  0  2  0  0  0  0  0  0
  186.8100  175.6980  134.7720 C   0  0  0  0  0  2  0  0  0  0  0  0
  188.7610  177.1760  138.1600 C   0  0  2  0  0  3  0  0  0  0  0  0
  187.4740  176.2070  136.0600 C   0  0  1  0  0  3  0  0  0  0  0  0
  189.3900  177.7660  139.3500 N   0  0  0  0  0  0  0  0  0  0  0  0
  188.8690  177.7620  134.6370 C   0  0  0  0  0  1  0  0  0  0  0  0
  188.4440  175.1710  136.6440 C   0  0  2  0  0  3  0  0  0  0  0  0
  187.0980  173.3370  135.6020 C   0  0  0  0  0  2  0  0  0  0  0  0
  188.1210  177.6250  135.9590 C   0  0  2  0  0  0  0  0  0  0  0  0
  187.7230  173.8530  136.8970 C   0  0  0  0  0  2  0  0  0  0  0  0
  190.8190  177.4350  139.4580 C   0  0  0  0  0  2  0  0  0  0  0  0
  189.0780  175.6790  137.9440 C   0  0  1  0  0  3  0  0  0  0  0  0
  186.1180  174.3560  135.0130 C   0  0  1  0  0  3  0  0  0  0  0  0
  190.5860  175.3700  138.0450 C   0  0  1  0  0  3  0  0  0  0  0  0
  184.0590  173.6290  135.3750 C   0  0  0  0  0  1  0  0  0  0  0  0
  185.0190  174.5190  135.8610 O   0  0  0  0  0  0  0  0  0  0  0  0
  187.1930  179.7370  136.5090 O   0  0  0  0  0  0  0  0  0  0  0  0
  187.0220  178.6470  135.9880 C   0  0  0  0  0  3  0  0  0  0  0  0
  191.4350  175.9080  136.8590 C   0  0  2  0  0  3  0  0  0  0  0  0
  191.0020  175.1330  134.5960 O   0  0  0  0  0  1  0  0  0  0  0  0
  191.4810  173.4620  136.2380 C   0  0  0  0  0  1  0  0  0  0  0  0
  191.7380  174.8770  135.7550 C   0  0  2  0  0  3  0  0  0  0  0  0
  192.5590  176.6830  137.2420 O   0  0  0  0  0  0  0  0  0  0  0  0
  193.7250  176.1080  136.7050 C   0  0  0  0  0  2  0  0  0  0  0  0
  195.6000  173.4430  138.7180 C   0  0  0  0  0  1  0  0  0  0  0  0
  194.4880  175.4070  137.7800 C   0  0  0  0  0  3  0  0  0  0  0  0
  194.8350  174.1330  137.6370 C   0  0  0  0  0  3  0  0  0  0  0  0
  188.6930  177.2840  140.5370 C   0  0  0  0  0  2  0  0  0  0  0  0
  188.4360  178.6570  141.7090 S   0  0  0  0  0  0  0  0  0  0  0  0
  190.8000  178.7450  143.1810 C   0  0  0  0  0  2  0  0  0  0  0  0
  189.4830  177.9680  143.0390 C   0  0  0  0  0  3  0  0  0  0  0  0
  189.6480  176.4460  142.8730 C   0  0  0  0  0  2  0  0  0  0  0  0
  191.5660  176.0070  144.5100 C   0  0  0  0  0  2  0  0  0  0  0  0
  191.1310  177.2630  145.2720 C   0  0  0  0  0  2  0  0  0  0  0  0
  191.0850  175.9490  143.0580 C   0  0  0  0  0  2  0  0  0  0  0  0
  191.4680  178.5760  144.5530 C   0  0  0  0  0  2  0  0  0  0  0  0
  2 12  1  0  0  0  0
  3 14  1  0  0  0  0
  4  1  1  6  0  0  0
  4  6  1  0  0  0  0
  5  3  1  6  0  0  0
  5  8  1  0  0  0  0
  6 12  1  0  0  0  0
  6 29  1  0  0  0  0
  8 11  1  1  0  0  0
  8 13  1  0  0  0  0
  9 11  1  0  0  0  0
 10  7  1  6  0  0  0
 10 19  1  0  0  0  0
 10  5  1  0  0  0  0
 10  1  1  0  0  0  0
 13 15  1  0  0  0  0
 13  4  1  0  0  0  0
 14  9  1  0  0  0  0
 14 17  1  0  0  0  0
 15  2  1  0  0  0  0
 16 17  1  0  0  0  0
 19 18  2  0  0  0  0
 20 24  1  0  0  0  0
 20 15  1  0  0  0  0
 21 23  1  0  0  0  0
 23 22  1  0  0  0  0
 23 20  1  0  0  0  0
 25 24  1  0  0  0  0
 25 27  1  0  0  0  0
 28 27  2  0  0  0  0
 28 26  1  0  0  0  0
 29 30  1  0  0  0  0
 30 32  1  0  0  0  0
 31 37  1  0  0  0  0
 32 31  1  0  0  0  0
 33 32  1  0  0  0  0
 33 36  1  0  0  0  0
 34 35  1  0  0  0  0
 36 34  1  0  0  0  0
 37 35  1  0  0  0  0
M  END
>  <MODEL>
1

>  <REMARK>
 VINA RESULT:      -5.7      0.000      0.000
  Name = 
  10 active torsions:
  status: ('A' for Active; 'I' for Inactive)
    1  A    between atoms: C_1  and  C_23
    2  A    between atoms: C_1  and  O_33
    3  A    between atoms: C_1  and  C_36
    4  A    between atoms: C_6  and  S_31
    5  A    between atoms: N_14  and  C_37
    6  A    between atoms: C_17  and  C_26
    7  A    between atoms: C_17  and  O_33
    8  A    between atoms: C_24  and  C_28
    9  A    between atoms: O_30  and  C_32
   10  A    between atoms: S_31  and  C_37
                            x       y       z     vdW  Elec       q    Type
                         _______ _______ _______ _____ _____    ______ ____

>  <TORSDO>
F 10

$$$$
=
 OpenBabel10262422573D

 37 40  0  0  1  0  0  0  0  0999 V2000
  189.1990  178.0070  137.1240 O   0  0  0  0  0  0  0  0  0  0  0  0
  191.3110  175.9330  139.3510 C   0  0  0  0  0  2  0  0  0  0  0  0
  186.6550  175.8960  135.1270 C   0  0  0  0  0  2  0  0  0  0  0  0
  188.9650  177.2960  138.3160 C   0  0  2  0  0  3  0  0  0  0  0  0
  187.4530  176.3790  136.3460 C   0  0  1  0  0  3  0  0  0  0  0  0
  189.7240  177.8620  139.4400 N   0  0  0  0  0  0  0  0  0  0  0  0
  188.8040  177.8410  134.7890 C   0  0  0  0  0  1  0  0  0  0  0  0
  188.4120  175.2970  136.8610 C   0  0  2  0  0  3  0  0  0  0  0  0
  186.8850  173.5300  135.9630 C   0  0  0  0  0  2  0  0  0  0  0  0
  188.1650  177.7590  136.1710 C   0  0  2  0  0  0  0  0  0  0  0  0
  187.6450  174.0230  137.1930 C   0  0  0  0  0  2  0  0  0  0  0  0
  191.1370  177.4540  139.4320 C   0  0  0  0  0  2  0  0  0  0  0  0
  189.1810  175.7820  138.0950 C   0  0  1  0  0  3  0  0  0  0  0  0
  185.9140  174.5960  135.4450 C   0  0  1  0  0  3  0  0  0  0  0  0
  190.6730  175.3920  138.0730 C   0  0  1  0  0  3  0  0  0  0  0  0
  183.8520  173.9990  135.9810 C   0  0  0  0  0  1  0  0  0  0  0  0
  184.9030  174.8280  136.3800 O   0  0  0  0  0  0  0  0  0  0  0  0
  187.4250  179.9540  136.6800 O   0  0  0  0  0  0  0  0  0  0  0  0
  187.1300  178.8390  136.2790 C   0  0  0  0  0  3  0  0  0  0  0  0
  191.4460  175.8700  136.8120 C   0  0  2  0  0  3  0  0  0  0  0  0
  190.8640  175.0590  134.5950 O   0  0  0  0  0  1  0  0  0  0  0  0
  191.3460  173.4090  136.2590 C   0  0  0  0  0  1  0  0  0  0  0  0
  191.6450  174.7980  135.7240 C   0  0  2  0  0  3  0  0  0  0  0  0
  192.6120  176.6280  137.0880 O   0  0  0  0  0  0  0  0  0  0  0  0
  193.7340  175.9650  136.5600 C   0  0  0  0  0  2  0  0  0  0  0  0
  195.4180  173.2760  138.7060 C   0  0  0  0  0  1  0  0  0  0  0  0
  194.4760  175.2710  137.6540 C   0  0  0  0  0  3  0  0  0  0  0  0
  194.6730  173.9580  137.6060 C   0  0  0  0  0  3  0  0  0  0  0  0
  189.1050  177.4300  140.6890 C   0  0  0  0  0  2  0  0  0  0  0  0
  190.3000  177.5780  142.0590 S   0  0  0  0  0  0  0  0  0  0  0  0
  189.1050  176.7320  144.4310 C   0  0  0  0  0  2  0  0  0  0  0  0
  189.0520  177.8390  143.3690 C   0  0  0  0  0  3  0  0  0  0  0  0
  187.6580  178.0780  142.7570 C   0  0  0  0  0  2  0  0  0  0  0  0
  186.1890  177.8180  144.8380 C   0  0  0  0  0  2  0  0  0  0  0  0
  187.4040  178.2220  145.6790 C   0  0  0  0  0  2  0  0  0  0  0  0
  186.5340  177.2930  143.4410 C   0  0  0  0  0  2  0  0  0  0  0  0
  188.4860  177.1380  145.7750 C   0  0  0  0  0  2  0  0  0  0  0  0
  2 12  1  0  0  0  0
  3 14  1  0  0  0  0
  4  1  1  6  0  0  0
  4  6  1  0  0  0  0
  5  3  1  6  0  0  0
  5  8  1  0  0  0  0
  6 29  1  0  0  0  0
  8 11  1  1  0  0  0
  8 13  1  0  0  0  0
  9 11  1  0  0  0  0
 10  7  1  6  0  0  0
 10 19  1  0  0  0  0
 10  5  1  0  0  0  0
 10  1  1  0  0  0  0
 12  6  1  0  0  0  0
 13  4  1  0  0  0  0
 14  9  1  0  0  0  0
 14 17  1  0  0  0  0
 15 13  1  0  0  0  0
 15  2  1  0  0  0  0
 16 17  1  0  0  0  0
 19 18  2  0  0  0  0
 20 24  1  0  0  0  0
 20 15  1  0  0  0  0
 21 23  1  0  0  0  0
 23 22  1  0  0  0  0
 23 20  1  0  0  0  0
 25 24  1  0  0  0  0
 25 27  1  0  0  0  0
 28 27  2  0  0  0  0
 28 26  1  0  0  0  0
 29 30  1  0  0  0  0
 30 32  1  0  0  0  0
 31 37  1  0  0  0  0
 32 31  1  0  0  0  0
 33 32  1  0  0  0  0
 33 36  1  0  0  0  0
 34 35  1  0  0  0  0
 35 37  1  0  0  0  0
 36 34  1  0  0  0  0
M  END
>  <MODEL>
2

>  <REMARK>
 VINA RESULT:      -5.7      1.237      1.691
  Name = 
  10 active torsions:
  status: ('A' for Active; 'I' for Inactive)
    1  A    between atoms: C_1  and  C_23
    2  A    between atoms: C_1  and  O_33
    3  A    between atoms: C_1  and  C_36
    4  A    between atoms: C_6  and  S_31
    5  A    between atoms: N_14  and  C_37
    6  A    between atoms: C_17  and  C_26
    7  A    between atoms: C_17  and  O_33
    8  A    between atoms: C_24  and  C_28
    9  A    between atoms: O_30  and  C_32
   10  A    between atoms: S_31  and  C_37
                            x       y       z     vdW  Elec       q    Type
                         _______ _______ _______ _____ _____    ______ ____

>  <TORSDO>
F 10

$$$$
=
 OpenBabel10262422573D

 37 40  0  0  1  0  0  0  0  0999 V2000
  182.8590  179.4660  138.3400 O   0  0  0  0  0  0  0  0  0  0  0  0
  185.5980  176.9740  138.2560 C   0  0  0  0  0  2  0  0  0  0  0  0
  179.4460  177.8690  139.1860 C   0  0  0  0  0  2  0  0  0  0  0  0
  183.5350  178.7180  139.3220 C   0  0  2  0  0  3  0  0  0  0  0  0
  180.9490  178.1530  139.3070 C   0  0  1  0  0  3  0  0  0  0  0  0
  184.9530  179.0960  139.4080 N   0  0  0  0  0  0  0  0  0  0  0  0
  180.7870  179.5120  137.1820 C   0  0  0  0  0  1  0  0  0  0  0  0
  181.7900  176.9160  138.9640 C   0  0  2  0  0  3  0  0  0  0  0  0
  179.9030  175.4440  139.6960 C   0  0  0  0  0  2  0  0  0  0  0  0
  181.4470  179.4280  138.5540 C   0  0  2  0  0  0  0  0  0  0  0  0
  181.3930  175.7430  139.8520 C   0  0  0  0  0  2  0  0  0  0  0  0
  185.7650  178.4950  138.3390 C   0  0  0  0  0  2  0  0  0  0  0  0
  183.2870  177.2060  139.1180 C   0  0  1  0  0  3  0  0  0  0  0  0
  179.0500  176.6670  140.0460 C   0  0  1  0  0  3  0  0  0  0  0  0
  184.1410  176.6130  137.9780 C   0  0  1  0  0  3  0  0  0  0  0  0
  178.9310  178.3490  141.4800 C   0  0  0  0  0  1  0  0  0  0  0  0
  179.1780  176.9760  141.4030 O   0  0  0  0  0  0  0  0  0  0  0  0
  180.7670  181.6880  138.7960 O   0  0  0  0  0  0  0  0  0  0  0  0
  181.0400  180.6340  139.3480 C   0  0  0  0  0  3  0  0  0  0  0  0
  183.7110  177.0600  136.5520 C   0  0  2  0  0  3  0  0  0  0  0  0
  181.6430  176.3940  135.4620 O   0  0  0  0  0  1  0  0  0  0  0  0
  182.9570  174.6540  136.4430 C   0  0  0  0  0  1  0  0  0  0  0  0
  182.9540  175.9960  135.7350 C   0  0  2  0  0  3  0  0  0  0  0  0
  184.7200  177.7340  135.8180 O   0  0  0  0  0  0  0  0  0  0  0  0
  185.0440  176.9820  134.6740 C   0  0  0  0  0  2  0  0  0  0  0  0
  188.3580  175.1180  135.1310 C   0  0  0  0  0  1  0  0  0  0  0  0
  186.4960  176.6370  134.6850 C   0  0  0  0  0  3  0  0  0  0  0  0
  186.9030  175.4520  135.1260 C   0  0  0  0  0  3  0  0  0  0  0  0
  185.4730  178.6740  140.7030 C   0  0  0  0  0  2  0  0  0  0  0  0
  184.1630  178.7850  141.9670 S   0  0  0  0  0  0  0  0  0  0  0  0
  185.3580  179.2650  144.4390 C   0  0  0  0  0  2  0  0  0  0  0  0
  185.1900  178.1890  143.3560 C   0  0  0  0  0  3  0  0  0  0  0  0
  186.5090  177.5820  142.8410 C   0  0  0  0  0  2  0  0  0  0  0  0
  187.8310  177.4240  145.0280 C   0  0  0  0  0  2  0  0  0  0  0  0
  186.4920  177.3620  145.7690 C   0  0  0  0  0  2  0  0  0  0  0  0
  187.7490  178.0280  143.6230 C   0  0  0  0  0  2  0  0  0  0  0  0
  185.7400  178.6990  145.8140 C   0  0  0  0  0  2  0  0  0  0  0  0
  1 10  1  0  0  0  0
  2 12  1  0  0  0  0
  3 14  1  0  0  0  0
  4  1  1  6  0  0  0
  4  6  1  0  0  0  0
  5  3  1  6  0  0  0
  6 29  1  0  0  0  0
  8 13  1  0  0  0  0
  8  5  1  0  0  0  0
  8 11  1  1  0  0  0
  9 11  1  0  0  0  0
  9 14  1  0  0  0  0
 10  7  1  6  0  0  0
 10  5  1  0  0  0  0
 10 19  1  0  0  0  0
 12  6  1  0  0  0  0
 13  4  1  0  0  0  0
 14 17  1  0  0  0  0
 15  2  1  0  0  0  0
 15 13  1  0  0  0  0
 17 16  1  0  0  0  0
 18 19  2  0  0  0  0
 20 15  1  0  0  0  0
 21 23  1  0  0  0  0
 23 22  1  0  0  0  0
 23 20  1  0  0  0  0
 24 20  1  0  0  0  0
 25 27  1  0  0  0  0
 25 24  1  0  0  0  0
 27 28  2  0  0  0  0
 28 26  1  0  0  0  0
 29 30  1  0  0  0  0
 30 32  1  0  0  0  0
 31 37  1  0  0  0  0
 32 31  1  0  0  0  0
 33 32  1  0  0  0  0
 33 36  1  0  0  0  0
 34 35  1  0  0  0  0
 35 37  1  0  0  0  0
 36 34  1  0  0  0  0
M  END
>  <MODEL>
3

>  <REMARK>
 VINA RESULT:      -5.3      4.938      7.090
  Name = 
  10 active torsions:
  status: ('A' for Active; 'I' for Inactive)
    1  A    between atoms: C_1  and  C_23
    2  A    between atoms: C_1  and  O_33
    3  A    between atoms: C_1  and  C_36
    4  A    between atoms: C_6  and  S_31
    5  A    between atoms: N_14  and  C_37
    6  A    between atoms: C_17  and  C_26
    7  A    between atoms: C_17  and  O_33
    8  A    between atoms: C_24  and  C_28
    9  A    between atoms: O_30  and  C_32
   10  A    between atoms: S_31  and  C_37
                            x       y       z     vdW  Elec       q    Type
                         _______ _______ _______ _____ _____    ______ ____

>  <TORSDO>
F 10

$$$$
=
 OpenBabel10262422573D

 37 40  0  0  1  0  0  0  0  0999 V2000
  189.7020  177.5430  136.8720 O   0  0  0  0  0  0  0  0  0  0  0  0
  191.8590  174.9030  138.3240 C   0  0  0  0  0  2  0  0  0  0  0  0
  186.3600  176.1400  135.5380 C   0  0  0  0  0  2  0  0  0  0  0  0
  189.6460  176.7640  138.0430 C   0  0  2  0  0  3  0  0  0  0  0  0
  187.5260  176.3430  136.5160 C   0  0  1  0  0  3  0  0  0  0  0  0
  190.7670  177.0640  138.9450 N   0  0  0  0  0  0  0  0  0  0  0  0
  188.6930  177.6960  134.7280 C   0  0  0  0  0  1  0  0  0  0  0  0
  188.3490  175.0590  136.6910 C   0  0  2  0  0  3  0  0  0  0  0  0
  186.3190  173.6970  136.1530 C   0  0  0  0  0  2  0  0  0  0  0  0
  188.4290  177.5840  136.2260 C   0  0  2  0  0  0  0  0  0  0  0  0
  187.4540  173.9150  137.1520 C   0  0  0  0  0  2  0  0  0  0  0  0
  192.0190  176.4130  138.5290 C   0  0  0  0  0  2  0  0  0  0  0  0
  189.4900  175.2670  137.6920 C   0  0  1  0  0  3  0  0  0  0  0  0
  185.4820  174.9670  135.9770 C   0  0  1  0  0  3  0  0  0  0  0  0
  190.8170  174.6210  137.2420 C   0  0  1  0  0  3  0  0  0  0  0  0
  183.4820  174.9290  136.9250 C   0  0  0  0  0  1  0  0  0  0  0  0
  184.8130  175.2770  137.1640 O   0  0  0  0  0  0  0  0  0  0  0  0
  186.8950  178.7710  137.5900 O   0  0  0  0  0  0  0  0  0  0  0  0
  187.6950  178.8150  136.6700 C   0  0  0  0  0  3  0  0  0  0  0  0
  191.3170  175.0830  135.8440 C   0  0  2  0  0  3  0  0  0  0  0  0
  190.3360  173.2400  134.5990 O   0  0  0  0  0  1  0  0  0  0  0  0
  192.6270  173.0100  135.2460 C   0  0  0  0  0  1  0  0  0  0  0  0
  191.5180  173.9530  134.8180 C   0  0  2  0  0  3  0  0  0  0  0  0
  192.3820  176.0190  135.8800 O   0  0  0  0  0  0  0  0  0  0  0  0
  192.9410  176.1370  134.5950 C   0  0  0  0  0  2  0  0  0  0  0  0
  196.6000  175.7220  135.6480 C   0  0  0  0  0  1  0  0  0  0  0  0
  194.4220  176.2920  134.6960 C   0  0  0  0  0  3  0  0  0  0  0  0
  195.1190  175.5580  135.5570 C   0  0  0  0  0  3  0  0  0  0  0  0
  190.4180  176.6220  140.2910 C   0  0  0  0  0  2  0  0  0  0  0  0
  191.1660  177.7360  141.5260 S   0  0  0  0  0  0  0  0  0  0  0  0
  188.8670  178.3830  142.9620 C   0  0  0  0  0  2  0  0  0  0  0  0
  189.9920  177.3420  142.8700 C   0  0  0  0  0  3  0  0  0  0  0  0
  190.7390  177.0830  144.1920 C   0  0  0  0  0  2  0  0  0  0  0  0
  188.7880  177.1520  145.8480 C   0  0  0  0  0  2  0  0  0  0  0  0
  187.8660  176.7480  144.6940 C   0  0  0  0  0  2  0  0  0  0  0  0
  190.1160  177.7760  145.4080 C   0  0  0  0  0  2  0  0  0  0  0  0
  187.6100  177.8680  143.6770 C   0  0  0  0  0  2  0  0  0  0  0  0
  2 12  1  0  0  0  0
  3 14  1  0  0  0  0
  4  1  1  6  0  0  0
  4  6  1  0  0  0  0
  5  3  1  6  0  0  0
  5  8  1  0  0  0  0
  6 29  1  0  0  0  0
  8 11  1  1  0  0  0
  8 13  1  0  0  0  0
  9 11  1  0  0  0  0
 10  7  1  6  0  0  0
 10  5  1  0  0  0  0
 10 19  1  0  0  0  0
 10  1  1  0  0  0  0
 12  6  1  0  0  0  0
 13  4  1  0  0  0  0
 14  9  1  0  0  0  0
 14 17  1  0  0  0  0
 15 13  1  0  0  0  0
 15  2  1  0  0  0  0
 16 17  1  0  0  0  0
 19 18  2  0  0  0  0
 20 24  1  0  0  0  0
 20 15  1  0  0  0  0
 21 23  1  0  0  0  0
 23 22  1  0  0  0  0
 23 20  1  0  0  0  0
 25 27  1  0  0  0  0
 25 24  1  0  0  0  0
 27 28  2  0  0  0  0
 28 26  1  0  0  0  0
 29 30  1  0  0  0  0
 30 32  1  0  0  0  0
 31 37  1  0  0  0  0
 32 31  1  0  0  0  0
 32 33  1  0  0  0  0
 33 36  1  0  0  0  0
 35 34  1  0  0  0  0
 36 34  1  0  0  0  0
 37 35  1  0  0  0  0
M  END
>  <MODEL>
4

>  <REMARK>
 VINA RESULT:      -5.1      1.546      1.970
  Name = 
  10 active torsions:
  status: ('A' for Active; 'I' for Inactive)
    1  A    between atoms: C_1  and  C_23
    2  A    between atoms: C_1  and  O_33
    3  A    between atoms: C_1  and  C_36
    4  A    between atoms: C_6  and  S_31
    5  A    between atoms: N_14  and  C_37
    6  A    between atoms: C_17  and  C_26
    7  A    between atoms: C_17  and  O_33
    8  A    between atoms: C_24  and  C_28
    9  A    between atoms: O_30  and  C_32
   10  A    between atoms: S_31  and  C_37
                            x       y       z     vdW  Elec       q    Type
                         _______ _______ _______ _____ _____    ______ ____

>  <TORSDO>
F 10

$$$$
=
 OpenBabel10262422573D

 37 40  0  0  1  0  0  0  0  0999 V2000
  183.0050  175.6070  138.3030 O   0  0  0  0  0  0  0  0  0  0  0  0
  182.2280  179.1550  139.0370 C   0  0  0  0  0  2  0  0  0  0  0  0
  185.4420  175.2220  135.3320 C   0  0  0  0  0  2  0  0  0  0  0  0
  183.7330  176.6770  138.8570 C   0  0  2  0  0  3  0  0  0  0  0  0
  184.8820  175.7860  136.6450 C   0  0  1  0  0  3  0  0  0  0  0  0
  183.1600  177.1140  140.1380 N   0  0  0  0  0  0  0  0  0  0  0  0
  182.8140  174.3800  136.2790 C   0  0  0  0  0  1  0  0  0  0  0  0
  184.4410  177.2480  136.4920 C   0  0  2  0  0  3  0  0  0  0  0  0
  186.1270  177.5550  134.6680 C   0  0  0  0  0  2  0  0  0  0  0  0
  183.7840  174.9110  137.3290 C   0  0  2  0  0  0  0  0  0  0  0  0
  185.6010  178.1010  135.9930 C   0  0  0  0  0  2  0  0  0  0  0  0
  181.9720  177.9640  139.9670 C   0  0  0  0  0  2  0  0  0  0  0  0
  183.9120  177.8070  137.8170 C   0  0  1  0  0  3  0  0  0  0  0  0
  186.5810  176.0990  134.8070 C   0  0  1  0  0  3  0  0  0  0  0  0
  182.6420  178.6670  137.6500 C   0  0  1  0  0  3  0  0  0  0  0  0
  188.2910  174.7960  135.3340 C   0  0  0  0  0  1  0  0  0  0  0  0
  187.6890  176.0150  135.6550 O   0  0  0  0  0  0  0  0  0  0  0  0
  184.1970  172.5970  137.6490 O   0  0  0  0  0  0  0  0  0  0  0  0
  184.4560  173.7410  137.9860 C   0  0  0  0  0  3  0  0  0  0  0  0
  181.4660  177.9460  136.9320 C   0  0  2  0  0  3  0  0  0  0  0  0
  182.0390  178.2910  134.5950 O   0  0  0  0  0  1  0  0  0  0  0  0
  180.8120  180.0350  135.6760 C   0  0  0  0  0  1  0  0  0  0  0  0
  181.0700  178.5430  135.5690 C   0  0  2  0  0  3  0  0  0  0  0  0
  180.3610  177.6460  137.7680 O   0  0  0  0  0  0  0  0  0  0  0  0
  179.8210  176.4020  137.3960 C   0  0  0  0  0  2  0  0  0  0  0  0
  179.3070  174.1720  140.4670 C   0  0  0  0  0  1  0  0  0  0  0  0
  179.2210  175.7310  138.5870 C   0  0  0  0  0  3  0  0  0  0  0  0
  179.9170  174.8340  139.2770 C   0  0  0  0  0  3  0  0  0  0  0  0
  184.1770  177.8500  140.8790 C   0  0  0  0  0  2  0  0  0  0  0  0
  183.4090  178.7400  142.2740 S   0  0  0  0  0  0  0  0  0  0  0  0
  184.9310  179.3770  144.5190 C   0  0  0  0  0  2  0  0  0  0  0  0
  184.6510  178.2460  143.5200 C   0  0  0  0  0  3  0  0  0  0  0  0
  185.9050  177.6610  142.8420 C   0  0  0  0  0  2  0  0  0  0  0  0
  187.5360  177.6530  144.8140 C   0  0  0  0  0  2  0  0  0  0  0  0
  186.3240  177.5810  145.7470 C   0  0  0  0  0  2  0  0  0  0  0  0
  187.2260  178.1860  143.4130 C   0  0  0  0  0  2  0  0  0  0  0  0
  185.5330  178.8920  145.8450 C   0  0  0  0  0  2  0  0  0  0  0  0
  2 12  1  0  0  0  0
  4  1  1  6  0  0  0
  4  6  1  0  0  0  0
  5  3  1  6  0  0  0
  5 10  1  0  0  0  0
  6 29  1  0  0  0  0
  8 11  1  1  0  0  0
  8  5  1  0  0  0  0
  8 13  1  0  0  0  0
  9 14  1  0  0  0  0
  9 11  1  0  0  0  0
 10  7  1  6  0  0  0
 10 19  1  0  0  0  0
 10  1  1  0  0  0  0
 12  6  1  0  0  0  0
 13  4  1  0  0  0  0
 14  3  1  0  0  0  0
 14 17  1  0  0  0  0
 15 13  1  0  0  0  0
 15  2  1  0  0  0  0
 16 17  1  0  0  0  0
 18 19  2  0  0  0  0
 20 15  1  0  0  0  0
 20 24  1  0  0  0  0
 21 23  1  0  0  0  0
 23 22  1  0  0  0  0
 23 20  1  0  0  0  0
 25 24  1  0  0  0  0
 25 27  1  0  0  0  0
 27 28  2  0  0  0  0
 28 26  1  0  0  0  0
 29 30  1  0  0  0  0
 30 32  1  0  0  0  0
 31 37  1  0  0  0  0
 32 31  1  0  0  0  0
 33 36  1  0  0  0  0
 33 32  1  0  0  0  0
 34 35  1  0  0  0  0
 35 37  1  0  0  0  0
 36 34  1  0  0  0  0
M  END
>  <MODEL>
5

>  <REMARK>
 VINA RESULT:      -4.9      4.385      8.113
  Name = 
  10 active torsions:
  status: ('A' for Active; 'I' for Inactive)
    1  A    between atoms: C_1  and  C_23
    2  A    between atoms: C_1  and  O_33
    3  A    between atoms: C_1  and  C_36
    4  A    between atoms: C_6  and  S_31
    5  A    between atoms: N_14  and  C_37
    6  A    between atoms: C_17  and  C_26
    7  A    between atoms: C_17  and  O_33
    8  A    between atoms: C_24  and  C_28
    9  A    between atoms: O_30  and  C_32
   10  A    between atoms: S_31  and  C_37
                            x       y       z     vdW  Elec       q    Type
                         _______ _______ _______ _____ _____    ______ ____

>  <TORSDO>
F 10

$$$$
=
 OpenBabel10262422573D

 37 40  0  0  1  0  0  0  0  0999 V2000
  182.5300  179.6680  138.0430 O   0  0  0  0  0  0  0  0  0  0  0  0
  184.0160  176.3420  138.7160 C   0  0  0  0  0  2  0  0  0  0  0  0
  179.3610  180.3150  140.1550 C   0  0  0  0  0  2  0  0  0  0  0  0
  183.2280  179.1070  139.1290 C   0  0  2  0  0  3  0  0  0  0  0  0
  180.8000  179.8750  139.8520 C   0  0  1  0  0  3  0  0  0  0  0  0
  184.6110  178.7690  138.7650 N   0  0  0  0  0  0  0  0  0  0  0  0
  180.3220  180.2630  137.4000 C   0  0  0  0  0  1  0  0  0  0  0  0
  180.9780  178.3600  140.0210 C   0  0  2  0  0  3  0  0  0  0  0  0
  179.1260  178.3420  141.7040 C   0  0  0  0  0  2  0  0  0  0  0  0
  181.3790  180.3850  138.4930 C   0  0  2  0  0  0  0  0  0  0  0  0
  180.5710  177.9330  141.4260 C   0  0  0  0  0  2  0  0  0  0  0  0
  184.7070  177.5130  138.0070 C   0  0  0  0  0  2  0  0  0  0  0  0
  182.4250  177.9390  139.7440 C   0  0  1  0  0  3  0  0  0  0  0  0
  178.9360  179.8540  141.5500 C   0  0  1  0  0  3  0  0  0  0  0  0
  182.5320  176.6420  138.9150 C   0  0  1  0  0  3  0  0  0  0  0  0
  179.1020  180.1200  143.7410 C   0  0  0  0  0  1  0  0  0  0  0  0
  179.6600  180.5370  142.5300 O   0  0  0  0  0  0  0  0  0  0  0  0
  182.9000  182.1920  138.7080 O   0  0  0  0  0  0  0  0  0  0  0  0
  181.7350  181.8340  138.6470 C   0  0  0  0  0  3  0  0  0  0  0  0
  181.7780  176.6830  137.5560 C   0  0  2  0  0  3  0  0  0  0  0  0
  179.3560  176.8720  137.4820 O   0  0  0  0  0  1  0  0  0  0  0  0
  180.2610  175.0590  138.7520 C   0  0  0  0  0  1  0  0  0  0  0  0
  180.4160  175.9650  137.5440 C   0  0  2  0  0  3  0  0  0  0  0  0
  182.5860  176.3960  136.4260 O   0  0  0  0  0  0  0  0  0  0  0  0
  182.0120  175.3360  135.7010 C   0  0  0  0  0  2  0  0  0  0  0  0
  184.0180  172.2620  136.7950 C   0  0  0  0  0  1  0  0  0  0  0  0
  182.9320  174.1610  135.7040 C   0  0  0  0  0  3  0  0  0  0  0  0
  183.0960  173.4370  136.8050 C   0  0  0  0  0  3  0  0  0  0  0  0
  185.4040  178.6580  139.9840 C   0  0  0  0  0  2  0  0  0  0  0  0
  187.1320  178.2510  139.5680 S   0  0  0  0  0  0  0  0  0  0  0  0
  186.7810  178.3500  142.3310 C   0  0  0  0  0  2  0  0  0  0  0  0
  187.5880  177.6450  141.2310 C   0  0  0  0  0  3  0  0  0  0  0  0
  189.1150  177.6830  141.4290 C   0  0  0  0  0  2  0  0  0  0  0  0
  189.2630  177.3340  143.9610 C   0  0  0  0  0  2  0  0  0  0  0  0
  187.9080  176.6230  143.8870 C   0  0  0  0  0  2  0  0  0  0  0  0
  189.5560  178.2610  142.7780 C   0  0  0  0  0  2  0  0  0  0  0  0
  186.7210  177.5650  143.6490 C   0  0  0  0  0  2  0  0  0  0  0  0
  1 10  1  0  0  0  0
  2 15  1  0  0  0  0
  3 14  1  0  0  0  0
  4  1  1  6  0  0  0
  4 13  1  0  0  0  0
  5  8  1  0  0  0  0
  5  3  1  6  0  0  0
  6  4  1  0  0  0  0
  6 29  1  0  0  0  0
  8 11  1  1  0  0  0
 10  7  1  6  0  0  0
 10 19  1  0  0  0  0
 10  5  1  0  0  0  0
 11  9  1  0  0  0  0
 12  2  1  0  0  0  0
 12  6  1  0  0  0  0
 13  8  1  0  0  0  0
 14  9  1  0  0  0  0
 14 17  1  0  0  0  0
 15 13  1  0  0  0  0
 17 16  1  0  0  0  0
 19 18  2  0  0  0  0
 20 15  1  0  0  0  0
 21 23  1  0  0  0  0
 23 20  1  0  0  0  0
 23 22  1  0  0  0  0
 24 20  1  0  0  0  0
 25 27  1  0  0  0  0
 25 24  1  0  0  0  0
 26 28  1  0  0  0  0
 27 28  2  0  0  0  0
 30 29  1  0  0  0  0
 30 32  1  0  0  0  0
 31 37  1  0  0  0  0
 32 33  1  0  0  0  0
 32 31  1  0  0  0  0
 33 36  1  0  0  0  0
 35 34  1  0  0  0  0
 36 34  1  0  0  0  0
 37 35  1  0  0  0  0
M  END
>  <MODEL>
6

>  <REMARK>
 VINA RESULT:      -4.9      5.574      8.450
  Name = 
  10 active torsions:
  status: ('A' for Active; 'I' for Inactive)
    1  A    between atoms: C_1  and  C_23
    2  A    between atoms: C_1  and  O_33
    3  A    between atoms: C_1  and  C_36
    4  A    between atoms: C_6  and  S_31
    5  A    between atoms: N_14  and  C_37
    6  A    between atoms: C_17  and  C_26
    7  A    between atoms: C_17  and  O_33
    8  A    between atoms: C_24  and  C_28
    9  A    between atoms: O_30  and  C_32
   10  A    between atoms: S_31  and  C_37
                            x       y       z     vdW  Elec       q    Type
                         _______ _______ _______ _____ _____    ______ ____

>  <TORSDO>
F 10

$$$$
=
 OpenBabel10262422573D

 37 40  0  0  1  0  0  0  0  0999 V2000
  188.7400  177.7740  137.2560 O   0  0  0  0  0  0  0  0  0  0  0  0
  191.2360  175.7350  139.0840 C   0  0  0  0  0  2  0  0  0  0  0  0
  186.1170  175.6000  135.4370 C   0  0  0  0  0  2  0  0  0  0  0  0
  188.6980  176.9820  138.4190 C   0  0  2  0  0  3  0  0  0  0  0  0
  187.0230  176.0700  136.5840 C   0  0  1  0  0  3  0  0  0  0  0  0
  189.5490  177.5360  139.4810 N   0  0  0  0  0  0  0  0  0  0  0  0
  188.0780  177.7120  134.9770 C   0  0  0  0  0  1  0  0  0  0  0  0
  188.1050  175.0330  136.9120 C   0  0  2  0  0  3  0  0  0  0  0  0
  186.5990  173.2140  136.0870 C   0  0  0  0  0  2  0  0  0  0  0  0
  187.6170  177.5050  136.4160 C   0  0  2  0  0  0  0  0  0  0  0  0
  187.4680  173.6910  137.2480 C   0  0  0  0  0  2  0  0  0  0  0  0
  190.9740  177.2320  139.2820 C   0  0  0  0  0  2  0  0  0  0  0  0
  188.9840  175.5020  138.0770 C   0  0  1  0  0  3  0  0  0  0  0  0
  185.5060  174.2340  135.7540 C   0  0  1  0  0  3  0  0  0  0  0  0
  190.4850  175.2220  137.8570 C   0  0  1  0  0  3  0  0  0  0  0  0
  183.9570  173.1010  136.8570 C   0  0  0  0  0  1  0  0  0  0  0  0
  184.6010  174.3400  136.8140 O   0  0  0  0  0  0  0  0  0  0  0  0
  186.4280  179.0010  137.8220 O   0  0  0  0  0  0  0  0  0  0  0  0
  186.5340  178.5010  136.7130 C   0  0  0  0  0  3  0  0  0  0  0  0
  191.0670  175.8250  136.5470 C   0  0  2  0  0  3  0  0  0  0  0  0
  189.8160  175.0790  134.6010 O   0  0  0  0  0  1  0  0  0  0  0  0
  191.1580  173.4440  135.7170 C   0  0  0  0  0  1  0  0  0  0  0  0
  191.0020  174.9000  135.3180 C   0  0  2  0  0  3  0  0  0  0  0  0
  192.3150  176.4810  136.7050 O   0  0  0  0  0  0  0  0  0  0  0  0
  193.1780  176.0920  135.6650 C   0  0  0  0  0  2  0  0  0  0  0  0
  196.4200  178.0300  135.0290 C   0  0  0  0  0  1  0  0  0  0  0  0
  194.5130  176.7370  135.8430 C   0  0  0  0  0  3  0  0  0  0  0  0
  195.0850  177.3880  134.8370 C   0  0  0  0  0  3  0  0  0  0  0  0
  189.1150  176.9920  140.7630 C   0  0  0  0  0  2  0  0  0  0  0  0
  188.8900  178.3420  141.9680 S   0  0  0  0  0  0  0  0  0  0  0  0
  186.3300  179.3260  141.4730 C   0  0  0  0  0  2  0  0  0  0  0  0
  187.0780  178.1540  142.1240 C   0  0  0  0  0  3  0  0  0  0  0  0
  186.6810  177.8680  143.5850 C   0  0  0  0  0  2  0  0  0  0  0  0
  184.1520  178.2480  143.4590 C   0  0  0  0  0  2  0  0  0  0  0  0
  184.2300  177.9050  141.9680 C   0  0  0  0  0  2  0  0  0  0  0  0
  185.4830  178.6860  144.0780 C   0  0  0  0  0  2  0  0  0  0  0  0
  184.8750  179.0010  141.1090 C   0  0  0  0  0  2  0  0  0  0  0  0
  2 12  1  0  0  0  0
  3 14  1  0  0  0  0
  4  1  1  6  0  0  0
  4  6  1  0  0  0  0
  5  3  1  6  0  0  0
  5  8  1  0  0  0  0
  6 29  1  0  0  0  0
  8 11  1  1  0  0  0
  8 13  1  0  0  0  0
  9 11  1  0  0  0  0
 10  7  1  6  0  0  0
 10  5  1  0  0  0  0
 10 19  1  0  0  0  0
 10  1  1  0  0  0  0
 12  6  1  0  0  0  0
 13  4  1  0  0  0  0
 14  9  1  0  0  0  0
 14 17  1  0  0  0  0
 15 13  1  0  0  0  0
 15  2  1  0  0  0  0
 17 16  1  0  0  0  0
 19 18  2  0  0  0  0
 20 24  1  0  0  0  0
 20 15  1  0  0  0  0
 21 23  1  0  0  0  0
 23 22  1  0  0  0  0
 23 20  1  0  0  0  0
 25 27  1  0  0  0  0
 25 24  1  0  0  0  0
 28 26  1  0  0  0  0
 28 27  2  0  0  0  0
 29 30  1  0  0  0  0
 30 32  1  0  0  0  0
 31 32  1  0  0  0  0
 32 33  1  0  0  0  0
 33 36  1  0  0  0  0
 34 36  1  0  0  0  0
 35 34  1  0  0  0  0
 37 31  1  0  0  0  0
 37 35  1  0  0  0  0
M  END
>  <MODEL>
7

>  <REMARK>
 VINA RESULT:      -4.7      2.036      3.003
  Name = 
  10 active torsions:
  status: ('A' for Active; 'I' for Inactive)
    1  A    between atoms: C_1  and  C_23
    2  A    between atoms: C_1  and  O_33
    3  A    between atoms: C_1  and  C_36
    4  A    between atoms: C_6  and  S_31
    5  A    between atoms: N_14  and  C_37
    6  A    between atoms: C_17  and  C_26
    7  A    between atoms: C_17  and  O_33
    8  A    between atoms: C_24  and  C_28
    9  A    between atoms: O_30  and  C_32
   10  A    between atoms: S_31  and  C_37
                            x       y       z     vdW  Elec       q    Type
                         _______ _______ _______ _____ _____    ______ ____

>  <TORSDO>
F 10

$$$$
=
 OpenBabel10262422573D

 37 40  0  0  1  0  0  0  0  0999 V2000
  181.8750  177.9660  136.6630 O   0  0  0  0  0  0  0  0  0  0  0  0
  183.8060  175.1330  138.0670 C   0  0  0  0  0  2  0  0  0  0  0  0
  179.2120  179.2920  139.1260 C   0  0  0  0  0  2  0  0  0  0  0  0
  182.8520  177.8480  137.6690 C   0  0  2  0  0  3  0  0  0  0  0  0
  180.5830  178.7920  138.6510 C   0  0  1  0  0  3  0  0  0  0  0  0
  184.1460  177.4200  137.1170 N   0  0  0  0  0  0  0  0  0  0  0  0
  179.5310  178.2550  136.4170 C   0  0  0  0  0  1  0  0  0  0  0  0
  180.9480  177.4450  139.2900 C   0  0  2  0  0  3  0  0  0  0  0  0
  179.5330  178.0140  141.2740 C   0  0  0  0  0  2  0  0  0  0  0  0
  180.7870  178.7810  137.1020 C   0  0  2  0  0  0  0  0  0  0  0  0
  180.9120  177.5520  140.8090 C   0  0  0  0  0  2  0  0  0  0  0  0
  184.1970  175.9750  136.8470 C   0  0  0  0  0  2  0  0  0  0  0  0
  182.3320  176.9720  138.8310 C   0  0  1  0  0  3  0  0  0  0  0  0
  179.1590  179.3640  140.6530 C   0  0  1  0  0  3  0  0  0  0  0  0
  182.3820  175.4640  138.5070 C   0  0  1  0  0  3  0  0  0  0  0  0
  179.6830  180.5100  142.4720 C   0  0  0  0  0  1  0  0  0  0  0  0
  180.0120  180.3670  141.1220 O   0  0  0  0  0  0  0  0  0  0  0  0
  180.8030  180.5230  135.4930 O   0  0  0  0  0  0  0  0  0  0  0  0
  181.0190  180.1920  136.6480 C   0  0  0  0  0  3  0  0  0  0  0  0
  181.3420  174.9970  137.4500 C   0  0  2  0  0  3  0  0  0  0  0  0
  178.9310  175.1090  137.7330 O   0  0  0  0  0  1  0  0  0  0  0  0
  180.1870  174.1480  139.5270 C   0  0  0  0  0  1  0  0  0  0  0  0
  180.0680  174.3540  138.0280 C   0  0  2  0  0  3  0  0  0  0  0  0
  181.8950  174.2870  136.3540 O   0  0  0  0  0  0  0  0  0  0  0  0
  181.4160  172.9650  136.3680 C   0  0  0  0  0  2  0  0  0  0  0  0
  184.8250  171.3970  135.5990 C   0  0  0  0  0  1  0  0  0  0  0  0
  182.5590  172.0090  136.2810 C   0  0  0  0  0  3  0  0  0  0  0  0
  183.6890  172.3620  135.6780 C   0  0  0  0  0  3  0  0  0  0  0  0
  185.1990  177.7710  138.0630 C   0  0  0  0  0  2  0  0  0  0  0  0
  186.8310  177.6180  137.2640 S   0  0  0  0  0  0  0  0  0  0  0  0
  187.7320  178.6030  139.7100 C   0  0  0  0  0  2  0  0  0  0  0  0
  187.7730  177.3610  138.8080 C   0  0  0  0  0  3  0  0  0  0  0  0
  189.1880  176.8310  138.5050 C   0  0  0  0  0  2  0  0  0  0  0  0
  190.3040  177.1620  140.7860 C   0  0  0  0  0  2  0  0  0  0  0  0
  188.9120  177.0670  141.4190 C   0  0  0  0  0  2  0  0  0  0  0  0
  190.2980  177.5280  139.2990 C   0  0  0  0  0  2  0  0  0  0  0  0
  188.0340  178.3040  141.1850 C   0  0  0  0  0  2  0  0  0  0  0  0
  1 10  1  0  0  0  0
  2 15  1  0  0  0  0
  3 14  1  0  0  0  0
  4  1  1  6  0  0  0
  4 13  1  0  0  0  0
  5  3  1  6  0  0  0
  5  8  1  0  0  0  0
  6  4  1  0  0  0  0
  6 29  1  0  0  0  0
  8 11  1  1  0  0  0
 10  7  1  6  0  0  0
 10  5  1  0  0  0  0
 11  9  1  0  0  0  0
 12  6  1  0  0  0  0
 12  2  1  0  0  0  0
 13  8  1  0  0  0  0
 14 17  1  0  0  0  0
 14  9  1  0  0  0  0
 15 13  1  0  0  0  0
 17 16  1  0  0  0  0
 18 19  2  0  0  0  0
 19 10  1  0  0  0  0
 20 23  1  0  0  0  0
 20 15  1  0  0  0  0
 21 23  1  0  0  0  0
 23 22  1  0  0  0  0
 24 25  1  0  0  0  0
 24 20  1  0  0  0  0
 26 28  1  0  0  0  0
 27 25  1  0  0  0  0
 28 27  2  0  0  0  0
 30 29  1  0  0  0  0
 30 32  1  0  0  0  0
 31 37  1  0  0  0  0
 32 31  1  0  0  0  0
 33 32  1  0  0  0  0
 33 36  1  0  0  0  0
 34 35  1  0  0  0  0
 36 34  1  0  0  0  0
 37 35  1  0  0  0  0
M  END
>  <MODEL>
8

>  <REMARK>
 VINA RESULT:      -4.6      5.260      8.552
  Name = 
  10 active torsions:
  status: ('A' for Active; 'I' for Inactive)
    1  A    between atoms: C_1  and  C_23
    2  A    between atoms: C_1  and  O_33
    3  A    between atoms: C_1  and  C_36
    4  A    between atoms: C_6  and  S_31
    5  A    between atoms: N_14  and  C_37
    6  A    between atoms: C_17  and  C_26
    7  A    between atoms: C_17  and  O_33
    8  A    between atoms: C_24  and  C_28
    9  A    between atoms: O_30  and  C_32
   10  A    between atoms: S_31  and  C_37
                            x       y       z     vdW  Elec       q    Type
                         _______ _______ _______ _____ _____    ______ ____

>  <TORSDO>
F 10

$$$$
=
 OpenBabel10262422573D

 37 40  0  0  1  0  0  0  0  0999 V2000
  181.7680  177.4510  135.4630 O   0  0  0  0  0  0  0  0  0  0  0  0
  183.6780  175.1130  137.6100 C   0  0  0  0  0  2  0  0  0  0  0  0
  180.0350  180.2350  137.5030 C   0  0  0  0  0  2  0  0  0  0  0  0
  182.9610  177.5510  136.2030 C   0  0  2  0  0  3  0  0  0  0  0  0
  181.1620  179.2940  137.0570 C   0  0  1  0  0  3  0  0  0  0  0  0
  184.0010  176.6580  135.6720 N   0  0  0  0  0  0  0  0  0  0  0  0
  179.4920  178.1210  135.5660 C   0  0  0  0  0  1  0  0  0  0  0  0
  181.5330  178.2920  138.1590 C   0  0  2  0  0  3  0  0  0  0  0  0
  180.7800  179.9340  139.8910 C   0  0  0  0  0  2  0  0  0  0  0  0
  180.9380  178.5930  135.6790 C   0  0  2  0  0  0  0  0  0  0  0  0
  181.9220  179.0280  139.4350 C   0  0  0  0  0  2  0  0  0  0  0  0
  183.8160  175.2600  136.0910 C   0  0  0  0  0  2  0  0  0  0  0  0
  182.6790  177.3780  137.7120 C   0  0  1  0  0  3  0  0  0  0  0  0
  180.4050  180.9470  138.8050 C   0  0  1  0  0  3  0  0  0  0  0  0
  182.4720  175.9030  138.1130 C   0  0  1  0  0  3  0  0  0  0  0  0
  180.9380  182.8030  137.7240 C   0  0  0  0  0  1  0  0  0  0  0  0
  181.4590  181.8390  138.5890 O   0  0  0  0  0  0  0  0  0  0  0  0
  180.6860  180.7060  134.6310 O   0  0  0  0  0  0  0  0  0  0  0  0
  181.1940  179.5970  134.5940 C   0  0  0  0  0  3  0  0  0  0  0  0
  181.1390  175.2800  137.6090 C   0  0  2  0  0  3  0  0  0  0  0  0
  178.9330  175.7730  138.5010 O   0  0  0  0  0  1  0  0  0  0  0  0
  180.6540  175.2810  140.0860 C   0  0  0  0  0  1  0  0  0  0  0  0
  180.0880  175.0150  138.7030 C   0  0  2  0  0  3  0  0  0  0  0  0
  181.3000  174.2060  136.6980 O   0  0  0  0  0  0  0  0  0  0  0  0
  180.5970  173.0840  137.1730 C   0  0  0  0  0  2  0  0  0  0  0  0
  183.4220  170.5970  136.4660 C   0  0  0  0  0  1  0  0  0  0  0  0
  181.5080  171.9030  137.2410 C   0  0  0  0  0  3  0  0  0  0  0  0
  182.5170  171.7810  136.3860 C   0  0  0  0  0  3  0  0  0  0  0  0
  185.3030  177.1290  136.1300 C   0  0  0  0  0  2  0  0  0  0  0  0
  186.6290  176.1460  135.3560 S   0  0  0  0  0  0  0  0  0  0  0  0
  188.5990  175.6100  137.2530 C   0  0  0  0  0  2  0  0  0  0  0  0
  187.9700  176.7510  136.4410 C   0  0  0  0  0  3  0  0  0  0  0  0
  187.4960  177.9530  137.2800 C   0  0  0  0  0  2  0  0  0  0  0  0
  189.3920  178.0980  138.9940 C   0  0  0  0  0  2  0  0  0  0  0  0
  190.3010  177.4190  137.9650 C   0  0  0  0  0  2  0  0  0  0  0  0
  187.8950  177.8790  138.7570 C   0  0  0  0  0  2  0  0  0  0  0  0
  190.0120  175.9260  137.7650 C   0  0  0  0  0  2  0  0  0  0  0  0
  1 10  1  0  0  0  0
  2 15  1  0  0  0  0
  3 14  1  0  0  0  0
  4  1  1  6  0  0  0
  4 13  1  0  0  0  0
  5  3  1  1  0  0  0
  5  8  1  0  0  0  0
  6 12  1  0  0  0  0
  6 29  1  0  0  0  0
  6  4  1  0  0  0  0
  8 11  1  1  0  0  0
 10  7  1  6  0  0  0
 10  5  1  0  0  0  0
 11  9  1  0  0  0  0
 12  2  1  0  0  0  0
 13 15  1  0  0  0  0
 13  8  1  0  0  0  0
 14  9  1  0  0  0  0
 16 17  1  0  0  0  0
 17 14  1  0  0  0  0
 19 18  2  0  0  0  0
 19 10  1  0  0  0  0
 20 15  1  0  0  0  0
 20 23  1  0  0  0  0
 21 23  1  0  0  0  0
 23 22  1  0  0  0  0
 24 25  1  0  0  0  0
 24 20  1  0  0  0  0
 25 27  1  0  0  0  0
 28 26  1  0  0  0  0
 28 27  2  0  0  0  0
 30 29  1  0  0  0  0
 30 32  1  0  0  0  0
 31 37  1  0  0  0  0
 32 31  1  0  0  0  0
 32 33  1  0  0  0  0
 33 36  1  0  0  0  0
 35 34  1  0  0  0  0
 36 34  1  0  0  0  0
 37 35  1  0  0  0  0
M  END
>  <MODEL>
9

>  <REMARK>
 VINA RESULT:      -4.6      4.971      8.966
  Name = 
  10 active torsions:
  status: ('A' for Active; 'I' for Inactive)
    1  A    between atoms: C_1  and  C_23
    2  A    between atoms: C_1  and  O_33
    3  A    between atoms: C_1  and  C_36
    4  A    between atoms: C_6  and  S_31
    5  A    between atoms: N_14  and  C_37
    6  A    between atoms: C_17  and  C_26
    7  A    between atoms: C_17  and  O_33
    8  A    between atoms: C_24  and  C_28
    9  A    between atoms: O_30  and  C_32
   10  A    between atoms: S_31  and  C_37
                            x       y       z     vdW  Elec       q    Type
                         _______ _______ _______ _____ _____    ______ ____

>  <TORSDO>
F 10

$$$$
