=
 OpenBabel10262421323D

 32 37  0  0  1  0  0  0  0  0999 V2000
  180.0910  180.8860  139.8420 C   0  0  0  0  0  0  0  0  0  0  0  0
  181.2360  180.1210  143.0590 O   0  0  0  0  0  0  0  0  0  0  0  0
  185.7600  178.1240  143.2870 C   0  0  0  0  0  0  0  0  0  0  0  0
  186.2500  178.5690  148.0930 C   0  0  0  0  0  3  0  0  0  0  0  0
  187.6170  178.3140  147.9680 C   0  0  0  0  0  3  0  0  0  0  0  0
  183.5950  178.3940  142.2440 C   0  0  0  0  0  0  0  0  0  0  0  0
  183.8320  178.6100  144.6230 N   0  0  0  0  0  0  0  0  0  0  0  0
  179.8970  180.7240  141.2350 N   0  0  0  0  0  2  0  0  0  0  0  0
  181.5730  178.9170  143.6930 C   0  0  0  0  0  2  0  0  0  0  0  0
  185.4340  178.5880  146.9600 C   0  0  0  0  0  3  0  0  0  0  0  0
  185.1690  178.3660  144.5420 C   0  0  0  0  0  0  0  0  0  0  0  0
  185.9780  178.3510  145.6890 C   0  0  0  0  0  0  0  0  0  0  0  0
  187.9040  177.8530  144.2830 C   0  0  0  0  0  0  0  0  0  0  0  0
  181.3910  179.9060  139.1260 S   0  0  0  0  0  0  0  0  0  0  0  0
  182.0280  179.7110  140.8240 C   0  0  2  0  0  3  0  0  0  0  0  0
  179.4380  181.7320  139.1780 O   0  0  0  0  0  0  0  0  0  0  0  0
  183.0340  178.6280  143.5210 C   0  0  0  0  0  0  0  0  0  0  0  0
  182.7730  178.3940  140.9870 C   0  0  0  0  0  2  0  0  0  0  0  0
  180.8280  179.7530  141.7720 C   0  0  1  0  0  3  0  0  0  0  0  0
  188.1720  178.0760  146.7090 C   0  0  0  0  0  3  0  0  0  0  0  0
  187.3650  178.0920  145.5610 C   0  0  0  0  0  0  0  0  0  0  0  0
  184.9640  178.1390  142.1430 C   0  0  0  0  0  3  0  0  0  0  0  0
  187.0920  177.8780  143.1900 N   0  0  0  0  0  0  0  0  0  0  0  0
  191.6350  178.6040  144.0880 C   0  0  2  0  0  3  0  0  0  0  0  0
  191.6960  178.3000  142.6630 N   0  0  0  0  0  2  0  0  0  0  0  0
  189.6870  177.0950  142.6690 C   0  0  1  0  0  3  0  0  0  0  0  0
  191.3960  176.7000  141.0650 C   0  0  0  0  0  1  0  0  0  0  0  0
  191.1450  177.0200  142.4640 N   0  0  0  0  0  0  0  0  0  0  0  0
  190.1810  178.8110  144.4730 C   0  0  0  0  0  2  0  0  0  0  0  0
  192.3470  179.7600  144.3430 F   0  0  0  0  0  0  0  0  0  0  0  0
  189.0530  175.7190  142.4680 C   0  0  0  0  0  1  0  0  0  0  0  0
  189.3710  177.5740  144.1000 C   0  0  1  0  0  3  0  0  0  0  0  0
  1  8  1  0  0  0  0
  2  9  1  0  0  0  0
  3 11  1  0  0  0  0
  5  4  1  0  0  0  0
  6 17  1  0  0  0  0
 10  4  2  0  0  0  0
 11  7  1  0  0  0  0
 11 12  2  0  0  0  0
 12 10  1  0  0  0  0
 13 21  2  0  0  0  0
 14  1  1  0  0  0  0
 14 15  1  0  0  0  0
 15 18  1  6  0  0  0
 15 19  1  0  0  0  0
 16  1  2  0  0  0  0
 17  9  1  0  0  0  0
 17  7  2  0  0  0  0
 18  6  1  0  0  0  0
 19  8  1  6  0  0  0
 19  2  1  0  0  0  0
 20  5  2  0  0  0  0
 21 12  1  0  0  0  0
 21 20  1  0  0  0  0
 22  6  2  0  0  0  0
 22  3  1  0  0  0  0
 23  3  2  0  0  0  0
 23 13  1  0  0  0  0
 24 30  1  6  0  0  0
 24 29  1  0  0  0  0
 25 24  1  0  0  0  0
 26 31  1  1  0  0  0
 26 32  1  0  0  0  0
 27 28  1  0  0  0  0
 28 25  1  0  0  0  0
 28 26  1  0  0  0  0
 32 13  1  6  0  0  0
 32 29  1  0  0  0  0
M  END
>  <MODEL>
1

>  <REMARK>
 VINA RESULT:      -9.5      0.000      0.000
  Name = 
  1 active torsions:
  status: ('A' for Active; 'I' for Inactive)
    1  A    between atoms: C_16  and  C_32
                            x       y       z     vdW  Elec       q    Type
                         _______ _______ _______ _____ _____    ______ ____

>  <TORSDO>
F 1

$$$$
=
 OpenBabel10262421323D

 32 37  0  0  1  0  0  0  0  0999 V2000
  191.0680  175.5750  137.3620 C   0  0  0  0  0  0  0  0  0  0  0  0
  190.2870  176.4090  140.6690 O   0  0  0  0  0  0  0  0  0  0  0  0
  185.8410  178.4760  141.3490 C   0  0  0  0  0  0  0  0  0  0  0  0
  185.8680  178.1160  146.1870 C   0  0  0  0  0  3  0  0  0  0  0  0
  184.4980  178.3890  146.2060 C   0  0  0  0  0  3  0  0  0  0  0  0
  187.8760  178.1570  140.0840 C   0  0  0  0  0  0  0  0  0  0  0  0
  187.8950  177.9830  142.4770 N   0  0  0  0  0  0  0  0  0  0  0  0
  191.4130  175.7570  138.7230 N   0  0  0  0  0  2  0  0  0  0  0  0
  190.0360  177.6280  141.3150 C   0  0  0  0  0  2  0  0  0  0  0  0
  186.5560  178.0670  144.9730 C   0  0  0  0  0  3  0  0  0  0  0  0
  186.5600  178.2450  142.5370 C   0  0  0  0  0  0  0  0  0  0  0  0
  185.8810  178.2910  143.7640 C   0  0  0  0  0  0  0  0  0  0  0  0
  183.8200  178.7940  142.5650 C   0  0  0  0  0  0  0  0  0  0  0  0
  189.7100  176.5630  136.7730 S   0  0  0  0  0  0  0  0  0  0  0  0
  189.2640  176.7950  138.5260 C   0  0  2  0  0  3  0  0  0  0  0  0
  191.6340  174.7100  136.6460 O   0  0  0  0  0  0  0  0  0  0  0  0
  188.5690  177.9360  141.2960 C   0  0  0  0  0  0  0  0  0  0  0  0
  188.5570  178.1250  138.7450 C   0  0  0  0  0  2  0  0  0  0  0  0
  190.5580  176.7500  139.3400 C   0  0  1  0  0  3  0  0  0  0  0  0
  183.8130  178.6150  145.0100 C   0  0  0  0  0  3  0  0  0  0  0  0
  184.4920  178.5690  143.7820 C   0  0  0  0  0  0  0  0  0  0  0  0
  186.5080  178.4310  140.1260 C   0  0  0  0  0  3  0  0  0  0  0  0
  184.5100  178.7410  141.3920 N   0  0  0  0  0  0  0  0  0  0  0  0
  180.1800  178.6730  143.6860 C   0  0  2  0  0  3  0  0  0  0  0  0
  179.7610  177.9460  142.4950 N   0  0  0  0  0  2  0  0  0  0  0  0
  181.6740  178.5260  141.2700 C   0  0  1  0  0  3  0  0  0  0  0  0
  179.6110  177.9880  140.2180 C   0  0  0  0  0  1  0  0  0  0  0  0
  180.2090  178.6590  141.3650 N   0  0  0  0  0  0  0  0  0  0  0  0
  181.6890  178.5660  143.8090 C   0  0  0  0  0  2  0  0  0  0  0  0
  179.5870  178.1130  144.8010 F   0  0  0  0  0  0  0  0  0  0  0  0
  182.1970  179.2950  140.0590 C   0  0  0  0  0  1  0  0  0  0  0  0
  182.3460  179.0920  142.5370 C   0  0  1  0  0  3  0  0  0  0  0  0
  1  8  1  0  0  0  0
  2  9  1  0  0  0  0
  3 23  2  0  0  0  0
  3 11  1  0  0  0  0
  4  5  1  0  0  0  0
  6 22  2  0  0  0  0
  6 17  1  0  0  0  0
  7 11  1  0  0  0  0
 10  4  2  0  0  0  0
 11 12  2  0  0  0  0
 12 21  1  0  0  0  0
 12 10  1  0  0  0  0
 13 21  2  0  0  0  0
 14  1  1  0  0  0  0
 14 15  1  0  0  0  0
 15 18  1  6  0  0  0
 15 19  1  0  0  0  0
 16  1  2  0  0  0  0
 17  9  1  0  0  0  0
 17  7  2  0  0  0  0
 18  6  1  0  0  0  0
 19  8  1  6  0  0  0
 19  2  1  0  0  0  0
 20  5  2  0  0  0  0
 21 20  1  0  0  0  0
 22  3  1  0  0  0  0
 23 13  1  0  0  0  0
 24 29  1  0  0  0  0
 24 30  1  1  0  0  0
 25 24  1  0  0  0  0
 26 31  1  6  0  0  0
 26 28  1  0  0  0  0
 26 32  1  0  0  0  0
 27 28  1  0  0  0  0
 28 25  1  0  0  0  0
 32 13  1  1  0  0  0
 32 29  1  0  0  0  0
M  END
>  <MODEL>
2

>  <REMARK>
 VINA RESULT:      -9.4      4.555      8.209
  Name = 
  1 active torsions:
  status: ('A' for Active; 'I' for Inactive)
    1  A    between atoms: C_16  and  C_32
                            x       y       z     vdW  Elec       q    Type
                         _______ _______ _______ _____ _____    ______ ____

>  <TORSDO>
F 1

$$$$
=
 OpenBabel10262421323D

 32 37  0  0  1  0  0  0  0  0999 V2000
  190.3310  176.3440  143.4270 C   0  0  0  0  0  0  0  0  0  0  0  0
  187.1630  177.2390  144.6150 O   0  0  0  0  0  0  0  0  0  0  0  0
  183.9510  178.7620  141.1700 C   0  0  0  0  0  0  0  0  0  0  0  0
  180.0520  178.6540  144.0540 C   0  0  0  0  0  3  0  0  0  0  0  0
  179.2290  178.7530  142.9300 C   0  0  0  0  0  3  0  0  0  0  0  0
  186.1760  178.6380  142.1090 C   0  0  0  0  0  0  0  0  0  0  0  0
  184.2500  178.5890  143.5400 N   0  0  0  0  0  0  0  0  0  0  0  0
  189.4210  176.6360  144.4720 N   0  0  0  0  0  2  0  0  0  0  0  0
  186.4540  178.4480  144.6290 C   0  0  0  0  0  2  0  0  0  0  0  0
  181.4400  178.6300  143.9060 C   0  0  0  0  0  3  0  0  0  0  0  0
  183.4140  178.6840  142.4690 C   0  0  0  0  0  0  0  0  0  0  0  0
  182.0210  178.7060  142.6320 C   0  0  0  0  0  0  0  0  0  0  0  0
  181.7750  178.8840  140.2140 C   0  0  0  0  0  0  0  0  0  0  0  0
  189.9850  177.1210  141.8650 S   0  0  0  0  0  0  0  0  0  0  0  0
  188.2940  177.3840  142.4960 C   0  0  2  0  0  3  0  0  0  0  0  0
  191.2700  175.5220  143.5790 O   0  0  0  0  0  0  0  0  0  0  0  0
  185.6030  178.5670  143.4000 C   0  0  0  0  0  0  0  0  0  0  0  0
  187.6610  178.6240  141.8810 C   0  0  0  0  0  2  0  0  0  0  0  0
  188.3900  177.5440  144.0140 C   0  0  1  0  0  3  0  0  0  0  0  0
  179.7930  178.8290  141.6550 C   0  0  0  0  0  3  0  0  0  0  0  0
  181.1870  178.8070  141.4910 C   0  0  0  0  0  0  0  0  0  0  0  0
  185.3340  178.7390  141.0000 C   0  0  0  0  0  3  0  0  0  0  0  0
  183.1320  178.8580  140.0920 N   0  0  0  0  0  0  0  0  0  0  0  0
  180.5460  178.0510  136.7050 C   0  0  2  0  0  3  0  0  0  0  0  0
  180.9810  179.3350  136.1690 N   0  0  0  0  0  2  0  0  0  0  0  0
  181.1130  180.3530  138.2750 C   0  0  1  0  0  3  0  0  0  0  0  0
  180.7460  181.6010  136.2860 C   0  0  0  0  0  1  0  0  0  0  0  0
  180.4290  180.3540  136.9690 N   0  0  0  0  0  0  0  0  0  0  0  0
  181.2360  177.8280  138.0390 C   0  0  0  0  0  2  0  0  0  0  0  0
  180.8990  177.0420  135.8300 F   0  0  0  0  0  0  0  0  0  0  0  0
  180.5350  181.4430  139.1750 C   0  0  0  0  0  1  0  0  0  0  0  0
  180.9290  178.9920  138.9750 C   0  0  1  0  0  3  0  0  0  0  0  0
  1 16  2  0  0  0  0
  1  8  1  0  0  0  0
  2  9  1  0  0  0  0
  3 11  1  0  0  0  0
  5  4  2  0  0  0  0
  6 17  2  0  0  0  0
 10  4  1  0  0  0  0
 11 12  1  0  0  0  0
 11  7  2  0  0  0  0
 12 10  2  0  0  0  0
 13 21  1  0  0  0  0
 14 15  1  0  0  0  0
 14  1  1  0  0  0  0
 15 18  1  6  0  0  0
 15 19  1  0  0  0  0
 17  7  1  0  0  0  0
 17  9  1  0  0  0  0
 18  6  1  0  0  0  0
 19  8  1  1  0  0  0
 19  2  1  0  0  0  0
 20  5  1  0  0  0  0
 21 20  2  0  0  0  0
 21 12  1  0  0  0  0
 22  3  2  0  0  0  0
 22  6  1  0  0  0  0
 23 13  2  0  0  0  0
 23  3  1  0  0  0  0
 24 30  1  6  0  0  0
 24 29  1  0  0  0  0
 25 24  1  0  0  0  0
 25 28  1  0  0  0  0
 26 32  1  0  0  0  0
 26 31  1  1  0  0  0
 27 28  1  0  0  0  0
 28 26  1  0  0  0  0
 29 32  1  0  0  0  0
 32 13  1  1  0  0  0
M  END
>  <MODEL>
3

>  <REMARK>
 VINA RESULT:      -9.4      4.407      8.882
  Name = 
  1 active torsions:
  status: ('A' for Active; 'I' for Inactive)
    1  A    between atoms: C_16  and  C_32
                            x       y       z     vdW  Elec       q    Type
                         _______ _______ _______ _____ _____    ______ ____

>  <TORSDO>
F 1

$$$$
=
 OpenBabel10262421323D

 32 37  0  0  1  0  0  0  0  0999 V2000
  189.3570  176.9240  146.6470 C   0  0  0  0  0  0  0  0  0  0  0  0
  186.1110  178.2270  146.5590 O   0  0  0  0  0  0  0  0  0  0  0  0
  183.9110  178.1610  142.1250 C   0  0  0  0  0  0  0  0  0  0  0  0
  179.4780  179.2620  143.7610 C   0  0  0  0  0  3  0  0  0  0  0  0
  178.9390  178.8790  142.5310 C   0  0  0  0  0  3  0  0  0  0  0  0
  185.8480  178.4460  143.5440 C   0  0  0  0  0  0  0  0  0  0  0  0
  183.6570  178.9970  144.3550 N   0  0  0  0  0  0  0  0  0  0  0  0
  188.2730  177.6250  147.2270 N   0  0  0  0  0  2  0  0  0  0  0  0
  185.5400  179.3290  145.9070 C   0  0  0  0  0  2  0  0  0  0  0  0
  180.8550  179.1810  143.9780 C   0  0  0  0  0  3  0  0  0  0  0  0
  183.0940  178.6330  143.1710 C   0  0  0  0  0  0  0  0  0  0  0  0
  181.7080  178.7180  142.9660 C   0  0  0  0  0  0  0  0  0  0  0  0
  182.0240  177.8670  140.7050 C   0  0  0  0  0  0  0  0  0  0  0  0
  189.4460  176.9750  144.8710 S   0  0  0  0  0  0  0  0  0  0  0  0
  187.6910  177.4750  144.9090 C   0  0  2  0  0  3  0  0  0  0  0  0
  190.1520  176.2430  147.3440 O   0  0  0  0  0  0  0  0  0  0  0  0
  184.9990  178.9210  144.5700 C   0  0  0  0  0  0  0  0  0  0  0  0
  187.3370  178.3410  143.7090 C   0  0  0  0  0  2  0  0  0  0  0  0
  187.4640  178.2550  146.2040 C   0  0  1  0  0  3  0  0  0  0  0  0
  179.7760  178.4160  141.5140 C   0  0  0  0  0  3  0  0  0  0  0  0
  181.1630  178.3300  141.7170 C   0  0  0  0  0  0  0  0  0  0  0  0
  185.2880  178.0720  142.3210 C   0  0  0  0  0  3  0  0  0  0  0  0
  183.3640  177.7950  140.9370 N   0  0  0  0  0  0  0  0  0  0  0  0
  181.0540  175.4890  137.8900 C   0  0  2  0  0  3  0  0  0  0  0  0
  182.0710  176.0210  136.9910 N   0  0  0  0  0  2  0  0  0  0  0  0
  182.3390  178.0060  138.2070 C   0  0  1  0  0  3  0  0  0  0  0  0
  182.8270  177.8680  135.8850 C   0  0  0  0  0  1  0  0  0  0  0  0
  181.9110  177.4190  136.9250 N   0  0  0  0  0  0  0  0  0  0  0  0
  181.3880  175.9240  139.3050 C   0  0  0  0  0  2  0  0  0  0  0  0
  181.0540  174.1100  137.8210 F   0  0  0  0  0  0  0  0  0  0  0  0
  182.1710  179.5240  138.1750 C   0  0  0  0  0  1  0  0  0  0  0  0
  181.4880  177.4450  139.3640 C   0  0  1  0  0  3  0  0  0  0  0  0
  1  8  1  0  0  0  0
  1 16  2  0  0  0  0
  3 22  2  0  0  0  0
  3 11  1  0  0  0  0
  4 10  1  0  0  0  0
  5  4  2  0  0  0  0
  6 18  1  0  0  0  0
  6 17  2  0  0  0  0
  7 17  1  0  0  0  0
  9  2  1  0  0  0  0
 11  7  2  0  0  0  0
 12 11  1  0  0  0  0
 12 10  2  0  0  0  0
 13 23  2  0  0  0  0
 13 21  1  0  0  0  0
 14 15  1  0  0  0  0
 14  1  1  0  0  0  0
 15 18  1  6  0  0  0
 15 19  1  0  0  0  0
 17  9  1  0  0  0  0
 19  2  1  1  0  0  0
 19  8  1  0  0  0  0
 20 21  2  0  0  0  0
 20  5  1  0  0  0  0
 21 12  1  0  0  0  0
 22  6  1  0  0  0  0
 23  3  1  0  0  0  0
 24 30  1  1  0  0  0
 24 29  1  0  0  0  0
 25 24  1  0  0  0  0
 26 31  1  6  0  0  0
 26 32  1  0  0  0  0
 27 28  1  0  0  0  0
 28 25  1  0  0  0  0
 28 26  1  0  0  0  0
 29 32  1  0  0  0  0
 32 13  1  1  0  0  0
M  END
>  <MODEL>
4

>  <REMARK>
 VINA RESULT:      -9.1      4.589      8.512
  Name = 
  1 active torsions:
  status: ('A' for Active; 'I' for Inactive)
    1  A    between atoms: C_16  and  C_32
                            x       y       z     vdW  Elec       q    Type
                         _______ _______ _______ _____ _____    ______ ____

>  <TORSDO>
F 1

$$$$
=
 OpenBabel10262421323D

 32 37  0  0  1  0  0  0  0  0999 V2000
  191.4700  175.6400  137.7500 C   0  0  0  0  0  0  0  0  0  0  0  0
  189.9490  176.8630  140.6550 O   0  0  0  0  0  0  0  0  0  0  0  0
  185.3180  178.5190  140.0960 C   0  0  0  0  0  0  0  0  0  0  0  0
  184.3510  178.8800  144.8370 C   0  0  0  0  0  3  0  0  0  0  0  0
  182.9920  179.0040  144.5400 C   0  0  0  0  0  3  0  0  0  0  0  0
  187.5920  178.2370  139.3250 C   0  0  0  0  0  0  0  0  0  0  0  0
  187.1190  178.4200  141.6710 N   0  0  0  0  0  0  0  0  0  0  0  0
  191.5060  176.0560  139.1030 N   0  0  0  0  0  2  0  0  0  0  0  0
  189.4780  178.1300  141.0270 C   0  0  0  0  0  2  0  0  0  0  0  0
  185.2810  178.7270  143.8060 C   0  0  0  0  0  3  0  0  0  0  0  0
  185.7860  178.5440  141.4240 C   0  0  0  0  0  0  0  0  0  0  0  0
  184.8620  178.6970  142.4680 C   0  0  0  0  0  0  0  0  0  0  0  0
  183.0680  178.7940  140.8220 C   0  0  0  0  0  0  0  0  0  0  0  0
  190.1970  176.3790  136.7510 S   0  0  0  0  0  0  0  0  0  0  0  0
  189.3750  176.8180  138.3190 C   0  0  2  0  0  3  0  0  0  0  0  0
  192.2370  174.7450  137.3140 O   0  0  0  0  0  0  0  0  0  0  0  0
  188.0280  178.2730  140.6700 C   0  0  0  0  0  0  0  0  0  0  0  0
  188.5400  178.0810  138.1710 C   0  0  0  0  0  2  0  0  0  0  0  0
  190.4680  177.0320  139.3660 C   0  0  1  0  0  3  0  0  0  0  0  0
  182.5600  178.9760  143.2130 C   0  0  0  0  0  3  0  0  0  0  0  0
  183.4830  178.8230  142.1670 C   0  0  0  0  0  0  0  0  0  0  0  0
  186.2290  178.3660  139.0530 C   0  0  0  0  0  3  0  0  0  0  0  0
  183.9910  178.6420  139.8320 N   0  0  0  0  0  0  0  0  0  0  0  0
  179.5260  177.6520  140.0040 C   0  0  2  0  0  3  0  0  0  0  0  0
  179.6160  178.1180  138.6260 N   0  0  0  0  0  2  0  0  0  0  0  0
  181.4330  179.5350  139.0520 C   0  0  1  0  0  3  0  0  0  0  0  0
  179.9160  179.9240  137.2650 C   0  0  0  0  0  1  0  0  0  0  0  0
  180.0180  179.4680  138.6440 N   0  0  0  0  0  0  0  0  0  0  0  0
  180.9300  177.5670  140.5750 C   0  0  0  0  0  2  0  0  0  0  0  0
  178.9420  176.4010  140.0310 F   0  0  0  0  0  0  0  0  0  0  0  0
  181.9030  180.9880  139.0910 C   0  0  0  0  0  1  0  0  0  0  0  0
  181.6150  178.9240  140.4560 C   0  0  1  0  0  3  0  0  0  0  0  0
  1  8  1  0  0  0  0
  2  9  1  0  0  0  0
  3 11  1  0  0  0  0
  5  4  1  0  0  0  0
  6 17  1  0  0  0  0
 10  4  2  0  0  0  0
 11  7  1  0  0  0  0
 11 12  2  0  0  0  0
 12 10  1  0  0  0  0
 13 21  2  0  0  0  0
 14  1  1  0  0  0  0
 14 15  1  0  0  0  0
 15 18  1  6  0  0  0
 15 19  1  0  0  0  0
 16  1  2  0  0  0  0
 17  9  1  0  0  0  0
 17  7  2  0  0  0  0
 18  6  1  0  0  0  0
 19  8  1  6  0  0  0
 19  2  1  0  0  0  0
 20  5  2  0  0  0  0
 21 12  1  0  0  0  0
 21 20  1  0  0  0  0
 22  6  2  0  0  0  0
 22  3  1  0  0  0  0
 23  3  2  0  0  0  0
 23 13  1  0  0  0  0
 24 30  1  6  0  0  0
 24 29  1  0  0  0  0
 25 28  1  0  0  0  0
 25 24  1  0  0  0  0
 26 31  1  1  0  0  0
 26 32  1  0  0  0  0
 27 28  1  0  0  0  0
 28 26  1  0  0  0  0
 32 29  1  0  0  0  0
 32 13  1  6  0  0  0
M  END
>  <MODEL>
5

>  <REMARK>
 VINA RESULT:      -8.8      4.881      8.862
  Name = 
  1 active torsions:
  status: ('A' for Active; 'I' for Inactive)
    1  A    between atoms: C_16  and  C_32
                            x       y       z     vdW  Elec       q    Type
                         _______ _______ _______ _____ _____    ______ ____

>  <TORSDO>
F 1

$$$$
=
 OpenBabel10262421323D

 32 37  0  0  1  0  0  0  0  0999 V2000
  190.4740  176.2700  146.8900 C   0  0  0  0  0  0  0  0  0  0  0  0
  187.1700  177.4230  146.9120 O   0  0  0  0  0  0  0  0  0  0  0  0
  185.2250  178.3900  142.4640 C   0  0  0  0  0  0  0  0  0  0  0  0
  180.6550  178.8650  144.0210 C   0  0  0  0  0  3  0  0  0  0  0  0
  180.2060  178.7830  142.7010 C   0  0  0  0  0  3  0  0  0  0  0  0
  187.0630  178.3850  144.0360 C   0  0  0  0  0  0  0  0  0  0  0  0
  184.8030  178.6250  144.8100 N   0  0  0  0  0  0  0  0  0  0  0  0
  189.3220  176.7580  147.5530 N   0  0  0  0  0  2  0  0  0  0  0  0
  186.5760  178.6300  146.5190 C   0  0  0  0  0  2  0  0  0  0  0  0
  182.0200  178.7870  144.3030 C   0  0  0  0  0  3  0  0  0  0  0  0
  184.3270  178.5490  143.5370 C   0  0  0  0  0  0  0  0  0  0  0  0
  182.9520  178.6290  143.2670 C   0  0  0  0  0  0  0  0  0  0  0  0
  183.4390  178.3880  140.8910 C   0  0  0  0  0  0  0  0  0  0  0  0
  190.6570  176.7710  145.1930 S   0  0  0  0  0  0  0  0  0  0  0  0
  188.8790  177.1750  145.2360 C   0  0  2  0  0  3  0  0  0  0  0  0
  191.2660  175.4680  147.4470 O   0  0  0  0  0  0  0  0  0  0  0  0
  186.1330  178.5520  145.0880 C   0  0  0  0  0  0  0  0  0  0  0  0
  188.5440  178.3010  144.2700 C   0  0  0  0  0  2  0  0  0  0  0  0
  188.5380  177.5940  146.6670 C   0  0  1  0  0  3  0  0  0  0  0  0
  181.1230  178.6260  141.6590 C   0  0  0  0  0  3  0  0  0  0  0  0
  182.4980  178.5460  141.9270 C   0  0  0  0  0  0  0  0  0  0  0  0
  186.5920  178.3090  142.7230 C   0  0  0  0  0  3  0  0  0  0  0  0
  184.7660  178.3140  141.1880 N   0  0  0  0  0  0  0  0  0  0  0  0
  181.8240  179.4990  137.6240 C   0  0  2  0  0  3  0  0  0  0  0  0
  180.7910  178.4740  137.7000 N   0  0  0  0  0  2  0  0  0  0  0  0
  181.9760  177.1650  139.2420 C   0  0  1  0  0  3  0  0  0  0  0  0
  180.3630  176.2330  137.7660 C   0  0  0  0  0  1  0  0  0  0  0  0
  181.4230  177.2270  137.8770 N   0  0  0  0  0  0  0  0  0  0  0  0
  182.4600  179.6460  138.9940 C   0  0  0  0  0  2  0  0  0  0  0  0
  181.2550  180.7000  137.2500 F   0  0  0  0  0  0  0  0  0  0  0  0
  182.6770  175.8270  139.4680 C   0  0  0  0  0  1  0  0  0  0  0  0
  183.0020  178.2970  139.4550 C   0  0  1  0  0  3  0  0  0  0  0  0
  1 16  2  0  0  0  0
  1  8  1  0  0  0  0
  3 22  2  0  0  0  0
  3 11  1  0  0  0  0
  4 10  1  0  0  0  0
  5  4  2  0  0  0  0
  6 18  1  0  0  0  0
  6 17  2  0  0  0  0
  7 17  1  0  0  0  0
  9  2  1  0  0  0  0
 11  7  2  0  0  0  0
 12 11  1  0  0  0  0
 12 10  2  0  0  0  0
 13 23  2  0  0  0  0
 13 21  1  0  0  0  0
 14 15  1  0  0  0  0
 14  1  1  0  0  0  0
 15 18  1  6  0  0  0
 15 19  1  0  0  0  0
 17  9  1  0  0  0  0
 19  2  1  1  0  0  0
 19  8  1  0  0  0  0
 20 21  2  0  0  0  0
 20  5  1  0  0  0  0
 21 12  1  0  0  0  0
 22  6  1  0  0  0  0
 23  3  1  0  0  0  0
 24 30  1  1  0  0  0
 24 25  1  0  0  0  0
 24 29  1  0  0  0  0
 25 28  1  0  0  0  0
 26 32  1  0  0  0  0
 26 31  1  6  0  0  0
 27 28  1  0  0  0  0
 28 26  1  0  0  0  0
 29 32  1  0  0  0  0
 32 13  1  1  0  0  0
M  END
>  <MODEL>
6

>  <REMARK>
 VINA RESULT:      -8.7      4.571      8.534
  Name = 
  1 active torsions:
  status: ('A' for Active; 'I' for Inactive)
    1  A    between atoms: C_16  and  C_32
                            x       y       z     vdW  Elec       q    Type
                         _______ _______ _______ _____ _____    ______ ____

>  <TORSDO>
F 1

$$$$
=
 OpenBabel10262421323D

 32 37  0  0  1  0  0  0  0  0999 V2000
  188.6950  177.2890  146.0590 C   0  0  0  0  0  0  0  0  0  0  0  0
  187.5490  177.6930  142.7780 O   0  0  0  0  0  0  0  0  0  0  0  0
  190.7820  176.4850  139.2300 C   0  0  0  0  0  0  0  0  0  0  0  0
  187.5830  176.6160  135.5860 C   0  0  0  0  0  3  0  0  0  0  0  0
  188.5000  175.9510  134.7690 C   0  0  0  0  0  3  0  0  0  0  0  0
  190.2310  177.4410  141.3820 C   0  0  0  0  0  0  0  0  0  0  0  0
  188.6470  177.5120  139.5800 N   0  0  0  0  0  0  0  0  0  0  0  0
  187.7560  177.7580  145.1100 N   0  0  0  0  0  2  0  0  0  0  0  0
  187.9530  178.5170  141.7190 C   0  0  0  0  0  2  0  0  0  0  0  0
  187.9140  176.9210  136.9080 C   0  0  0  0  0  3  0  0  0  0  0  0
  189.5130  176.8640  138.7530 C   0  0  0  0  0  0  0  0  0  0  0  0
  189.1670  176.5640  137.4270 C   0  0  0  0  0  0  0  0  0  0  0  0
  191.3550  175.5340  137.1250 C   0  0  0  0  0  0  0  0  0  0  0  0
  190.3680  177.1280  145.4750 S   0  0  0  0  0  0  0  0  0  0  0  0
  189.6650  177.1610  143.7920 C   0  0  2  0  0  3  0  0  0  0  0  0
  188.3460  176.9320  147.2140 O   0  0  0  0  0  0  0  0  0  0  0  0
  188.9680  177.8120  140.8680 C   0  0  0  0  0  0  0  0  0  0  0  0
  190.6530  177.7440  142.7920 C   0  0  0  0  0  2  0  0  0  0  0  0
  188.4000  178.0210  143.8390 C   0  0  1  0  0  3  0  0  0  0  0  0
  189.7510  175.5890  135.2730 C   0  0  0  0  0  3  0  0  0  0  0  0
  190.0980  175.8890  136.5990 C   0  0  0  0  0  0  0  0  0  0  0  0
  191.1330  176.7780  140.5470 C   0  0  0  0  0  3  0  0  0  0  0  0
  191.6580  175.8390  138.4180 N   0  0  0  0  0  0  0  0  0  0  0  0
  193.3980  172.6010  135.8060 C   0  0  2  0  0  3  0  0  0  0  0  0
  194.6440  173.1310  136.3450 N   0  0  0  0  0  2  0  0  0  0  0  0
  193.8060  175.3070  136.5780 C   0  0  1  0  0  3  0  0  0  0  0  0
  196.1250  174.8660  136.3040 C   0  0  0  0  0  1  0  0  0  0  0  0
  194.7910  174.4560  135.8870 N   0  0  0  0  0  0  0  0  0  0  0  0
  192.2400  173.3100  136.4830 C   0  0  0  0  0  2  0  0  0  0  0  0
  193.3230  171.2460  136.0660 F   0  0  0  0  0  0  0  0  0  0  0  0
  193.9300  176.7530  136.1010 C   0  0  0  0  0  1  0  0  0  0  0  0
  192.3740  174.8160  136.2830 C   0  0  1  0  0  3  0  0  0  0  0  0
  1 16  2  0  0  0  0
  3 22  1  0  0  0  0
  4 10  1  0  0  0  0
  5 20  1  0  0  0  0
  5  4  2  0  0  0  0
  6 18  1  0  0  0  0
  7 17  2  0  0  0  0
  8  1  1  0  0  0  0
  9  2  1  0  0  0  0
 10 12  2  0  0  0  0
 11  3  2  0  0  0  0
 11  7  1  0  0  0  0
 12 11  1  0  0  0  0
 13 23  2  0  0  0  0
 14  1  1  0  0  0  0
 15 18  1  6  0  0  0
 15 19  1  0  0  0  0
 15 14  1  0  0  0  0
 17  6  1  0  0  0  0
 17  9  1  0  0  0  0
 19  2  1  6  0  0  0
 19  8  1  0  0  0  0
 20 21  2  0  0  0  0
 21 13  1  0  0  0  0
 21 12  1  0  0  0  0
 22  6  2  0  0  0  0
 23  3  1  0  0  0  0
 24 30  1  1  0  0  0
 24 25  1  0  0  0  0
 24 29  1  0  0  0  0
 26 31  1  6  0  0  0
 28 27  1  0  0  0  0
 28 25  1  0  0  0  0
 28 26  1  0  0  0  0
 32 29  1  0  0  0  0
 32 26  1  0  0  0  0
 32 13  1  1  0  0  0
M  END
>  <MODEL>
7

>  <REMARK>
 VINA RESULT:      -8.5      5.651      9.184
  Name = 
  1 active torsions:
  status: ('A' for Active; 'I' for Inactive)
    1  A    between atoms: C_16  and  C_32
                            x       y       z     vdW  Elec       q    Type
                         _______ _______ _______ _____ _____    ______ ____

>  <TORSDO>
F 1

$$$$
=
 OpenBabel10262421323D

 32 37  0  0  1  0  0  0  0  0999 V2000
  189.0560  178.1290  148.0950 C   0  0  0  0  0  0  0  0  0  0  0  0
  190.0860  177.7390  144.7730 O   0  0  0  0  0  0  0  0  0  0  0  0
  186.4810  177.9460  141.3880 C   0  0  0  0  0  0  0  0  0  0  0  0
  189.4300  178.2410  137.5480 C   0  0  0  0  0  3  0  0  0  0  0  0
  188.3460  178.6280  136.7570 C   0  0  0  0  0  3  0  0  0  0  0  0
  187.3440  177.2970  143.5520 C   0  0  0  0  0  0  0  0  0  0  0  0
  188.8060  177.4370  141.6530 N   0  0  0  0  0  0  0  0  0  0  0  0
  190.0230  177.8060  147.1130 N   0  0  0  0  0  2  0  0  0  0  0  0
  189.8190  176.7700  143.7970 C   0  0  0  0  0  2  0  0  0  0  0  0
  189.2460  177.9710  138.9060 C   0  0  0  0  0  3  0  0  0  0  0  0
  187.7750  177.8170  140.8490 C   0  0  0  0  0  0  0  0  0  0  0  0
  187.9740  178.0850  139.4870 C   0  0  0  0  0  0  0  0  0  0  0  0
  185.6000  178.5890  139.2730 C   0  0  0  0  0  0  0  0  0  0  0  0
  187.3600  177.8780  147.6170 S   0  0  0  0  0  0  0  0  0  0  0  0
  187.9620  177.8720  145.8950 C   0  0  2  0  0  3  0  0  0  0  0  0
  189.3780  178.6390  149.1980 O   0  0  0  0  0  0  0  0  0  0  0  0
  188.6290  177.1710  142.9770 C   0  0  0  0  0  0  0  0  0  0  0  0
  187.0760  177.0160  145.0030 C   0  0  0  0  0  2  0  0  0  0  0  0
  189.3860  177.3150  145.9090 C   0  0  1  0  0  3  0  0  0  0  0  0
  187.0750  178.7460  137.3220 C   0  0  0  0  0  3  0  0  0  0  0  0
  186.8740  178.4780  138.6850 C   0  0  0  0  0  0  0  0  0  0  0  0
  186.2740  177.6830  142.7410 C   0  0  0  0  0  3  0  0  0  0  0  0
  185.4420  178.3230  140.6000 N   0  0  0  0  0  0  0  0  0  0  0  0
  182.3920  180.4650  138.4300 C   0  0  2  0  0  3  0  0  0  0  0  0
  181.5870  179.2500  138.4620 N   0  0  0  0  0  2  0  0  0  0  0  0
  183.4340  177.8260  138.2330 C   0  0  1  0  0  3  0  0  0  0  0  0
  181.2510  177.1890  137.5420 C   0  0  0  0  0  1  0  0  0  0  0  0
  182.1870  178.3030  137.6090 N   0  0  0  0  0  0  0  0  0  0  0  0
  183.7110  180.1860  139.1280 C   0  0  0  0  0  2  0  0  0  0  0  0
  181.7260  181.4770  139.0930 F   0  0  0  0  0  0  0  0  0  0  0  0
  184.1180  176.8010  137.3310 C   0  0  0  0  0  1  0  0  0  0  0  0
  184.4040  179.0030  138.4600 C   0  0  1  0  0  3  0  0  0  0  0  0
  1 16  2  0  0  0  0
  3 22  1  0  0  0  0
  4 10  1  0  0  0  0
  5 20  1  0  0  0  0
  5  4  2  0  0  0  0
  6 18  1  0  0  0  0
  7 17  2  0  0  0  0
  8  1  1  0  0  0  0
  9  2  1  0  0  0  0
 10 12  2  0  0  0  0
 11  3  2  0  0  0  0
 11  7  1  0  0  0  0
 12 11  1  0  0  0  0
 13 23  2  0  0  0  0
 14  1  1  0  0  0  0
 15 18  1  6  0  0  0
 15 19  1  0  0  0  0
 15 14  1  0  0  0  0
 17  6  1  0  0  0  0
 17  9  1  0  0  0  0
 19  2  1  6  0  0  0
 19  8  1  0  0  0  0
 20 21  2  0  0  0  0
 21 13  1  0  0  0  0
 21 12  1  0  0  0  0
 22  6  2  0  0  0  0
 23  3  1  0  0  0  0
 24 25  1  0  0  0  0
 24 30  1  1  0  0  0
 24 29  1  0  0  0  0
 26 31  1  6  0  0  0
 26 32  1  0  0  0  0
 27 28  1  0  0  0  0
 28 26  1  0  0  0  0
 28 25  1  0  0  0  0
 32 29  1  0  0  0  0
 32 13  1  1  0  0  0
M  END
>  <MODEL>
8

>  <REMARK>
 VINA RESULT:      -8.4      4.795      8.818
  Name = 
  1 active torsions:
  status: ('A' for Active; 'I' for Inactive)
    1  A    between atoms: C_16  and  C_32
                            x       y       z     vdW  Elec       q    Type
                         _______ _______ _______ _____ _____    ______ ____

>  <TORSDO>
F 1

$$$$
=
 OpenBabel10262421323D

 32 37  0  0  1  0  0  0  0  0999 V2000
  192.2190  175.1680  135.8620 C   0  0  0  0  0  0  0  0  0  0  0  0
  191.6990  175.7440  139.2740 O   0  0  0  0  0  0  0  0  0  0  0  0
  187.5840  178.2510  140.4060 C   0  0  0  0  0  0  0  0  0  0  0  0
  187.7840  177.3930  145.1770 C   0  0  0  0  0  3  0  0  0  0  0  0
  186.4620  177.8260  145.3000 C   0  0  0  0  0  3  0  0  0  0  0  0
  189.5040  177.8210  139.0000 C   0  0  0  0  0  0  0  0  0  0  0  0
  189.6090  177.4000  141.3610 N   0  0  0  0  0  0  0  0  0  0  0  0
  192.6450  175.1650  137.2110 N   0  0  0  0  0  2  0  0  0  0  0  0
  191.6340  176.9100  140.0480 C   0  0  0  0  0  2  0  0  0  0  0  0
  188.4050  177.3870  143.9260 C   0  0  0  0  0  3  0  0  0  0  0  0
  188.3220  177.8140  141.5220 C   0  0  0  0  0  0  0  0  0  0  0  0
  187.7100  177.8150  142.7850 C   0  0  0  0  0  0  0  0  0  0  0  0
  185.6770  178.6840  141.7620 C   0  0  0  0  0  0  0  0  0  0  0  0
  190.9710  176.3670  135.4500 S   0  0  0  0  0  0  0  0  0  0  0  0
  190.6370  176.4700  137.2410 C   0  0  2  0  0  3  0  0  0  0  0  0
  192.6380  174.3190  135.0340 O   0  0  0  0  0  0  0  0  0  0  0  0
  190.2180  177.3940  140.1430 C   0  0  0  0  0  0  0  0  0  0  0  0
  190.1140  177.8450  137.6280 C   0  0  0  0  0  2  0  0  0  0  0  0
  191.9510  176.1850  137.9700 C   0  0  1  0  0  3  0  0  0  0  0  0
  185.7580  178.2550  144.1740 C   0  0  0  0  0  3  0  0  0  0  0  0
  186.3690  178.2540  142.9100 C   0  0  0  0  0  0  0  0  0  0  0  0
  188.1850  178.2520  139.1480 C   0  0  0  0  0  3  0  0  0  0  0  0
  186.3000  178.6690  140.5510 N   0  0  0  0  0  0  0  0  0  0  0  0
  182.1500  179.0050  143.1670 C   0  0  2  0  0  3  0  0  0  0  0  0
  181.5520  178.3360  142.0190 N   0  0  0  0  0  2  0  0  0  0  0  0
  183.4180  178.6800  140.6430 C   0  0  1  0  0  3  0  0  0  0  0  0
  181.2280  178.3990  139.7610 C   0  0  0  0  0  1  0  0  0  0  0  0
  181.9920  178.9910  140.8520 N   0  0  0  0  0  0  0  0  0  0  0  0
  183.6400  178.7150  143.1720 C   0  0  0  0  0  2  0  0  0  0  0  0
  181.5840  178.5200  144.3300 F   0  0  0  0  0  0  0  0  0  0  0  0
  183.9330  179.3810  139.3870 C   0  0  0  0  0  1  0  0  0  0  0  0
  184.2520  179.1590  141.8470 C   0  0  1  0  0  3  0  0  0  0  0  0
  1  8  1  0  0  0  0
  2  9  1  0  0  0  0
  3 23  2  0  0  0  0
  3 11  1  0  0  0  0
  4  5  1  0  0  0  0
  6 22  2  0  0  0  0
  6 17  1  0  0  0  0
  7 11  1  0  0  0  0
  9 17  1  0  0  0  0
 10  4  2  0  0  0  0
 11 12  2  0  0  0  0
 12 21  1  0  0  0  0
 12 10  1  0  0  0  0
 13 21  2  0  0  0  0
 14  1  1  0  0  0  0
 14 15  1  0  0  0  0
 15 18  1  6  0  0  0
 15 19  1  0  0  0  0
 16  1  2  0  0  0  0
 17  7  2  0  0  0  0
 18  6  1  0  0  0  0
 19  8  1  6  0  0  0
 19  2  1  0  0  0  0
 20  5  2  0  0  0  0
 21 20  1  0  0  0  0
 22  3  1  0  0  0  0
 23 13  1  0  0  0  0
 24 29  1  0  0  0  0
 24 30  1  1  0  0  0
 25 24  1  0  0  0  0
 26 31  1  6  0  0  0
 26 28  1  0  0  0  0
 26 32  1  0  0  0  0
 27 28  1  0  0  0  0
 28 25  1  0  0  0  0
 32 13  1  6  0  0  0
 32 29  1  0  0  0  0
M  END
>  <MODEL>
9

>  <REMARK>
 VINA RESULT:      -8.4      4.995      8.527
  Name = 
  1 active torsions:
  status: ('A' for Active; 'I' for Inactive)
    1  A    between atoms: C_16  and  C_32
                            x       y       z     vdW  Elec       q    Type
                         _______ _______ _______ _____ _____    ______ ____

>  <TORSDO>
F 1

$$$$
