=
 OpenBabel10262419453D

 25 27  0  0  1  0  0  0  0  0999 V2000
  187.5800  177.2500  145.1690 C   0  0  0  0  0  0  0  0  0  0  0  0
  185.6870  178.1630  146.3830 C   0  0  0  0  0  0  0  0  0  0  0  0
  185.0660  178.5080  147.5390 F   0  0  0  0  0  0  0  0  0  0  0  0
  186.8830  177.4940  143.9760 C   0  0  0  0  0  3  0  0  0  0  0  0
  185.0450  178.3720  145.2040 N   0  0  0  0  0  0  0  0  0  0  0  0
  185.6110  178.0530  144.0140 C   0  0  0  0  0  0  0  0  0  0  0  0
  186.9770  177.6010  146.4070 C   0  0  0  0  0  0  0  0  0  0  0  0
  189.0700  177.7890  147.8310 C   0  0  0  0  0  2  0  0  0  0  0  0
  187.6030  177.4100  147.7780 C   0  0  0  0  0  3  0  0  0  0  0  0
  188.0230  178.7080  148.4380 C   0  0  0  0  0  2  0  0  0  0  0  0
  184.8970  178.2940  142.7930 C   0  0  0  0  0  0  0  0  0  0  0  0
  184.2980  178.4970  141.7660 C   0  0  0  0  0  0  0  0  0  0  0  0
  183.5690  178.7440  140.5190 C   0  0  2  0  0  3  0  0  0  0  0  0
  183.0630  177.5530  140.0320 F   0  0  0  0  0  0  0  0  0  0  0  0
  184.4710  179.3730  139.5110 C   0  0  0  0  0  0  0  0  0  0  0  0
  184.2040  180.5090  139.0350 O   0  0  0  0  0  0  0  0  0  0  0  0
  185.5960  178.6890  139.0720 O   0  0  0  0  0  1  0  0  0  0  0  0
  188.8740  176.7080  145.1240 O   0  0  0  0  0  0  0  0  0  0  0  0
  189.9090  177.1520  144.2910 C   0  0  0  0  0  0  0  0  0  0  0  0
  192.0120  178.1030  142.6960 C   0  0  0  0  0  3  0  0  0  0  0  0
  190.3870  176.3810  143.2120 C   0  0  0  0  0  0  0  0  0  0  0  0
  191.4330  176.8620  142.4180 C   0  0  0  0  0  3  0  0  0  0  0  0
  191.5540  178.8620  143.7760 C   0  0  0  0  0  3  0  0  0  0  0  0
  189.8860  175.1470  142.9610 F   0  0  0  0  0  0  0  0  0  0  0  0
  190.5110  178.3830  144.5730 C   0  0  0  0  0  3  0  0  0  0  0  0
  1  7  1  0  0  0  0
  2  7  2  0  0  0  0
  2  3  1  0  0  0  0
  4  6  1  0  0  0  0
  4  1  2  0  0  0  0
  5  2  1  0  0  0  0
  6  5  2  0  0  0  0
  7  9  1  0  0  0  0
  8 10  1  0  0  0  0
  9  8  1  0  0  0  0
  9 10  1  0  0  0  0
 11  6  1  0  0  0  0
 12 11  3  0  0  0  0
 13 14  1  6  0  0  0
 13 12  1  0  0  0  0
 15 13  1  0  0  0  0
 16 15  2  0  0  0  0
 17 15  1  0  0  0  0
 18  1  1  0  0  0  0
 19 25  1  0  0  0  0
 19 18  1  0  0  0  0
 20 23  1  0  0  0  0
 21 19  2  0  0  0  0
 22 20  2  0  0  0  0
 22 21  1  0  0  0  0
 23 25  2  0  0  0  0
 24 21  1  0  0  0  0
M  END
>  <MODEL>
1

>  <REMARK>
 VINA RESULT:      -8.6      0.000      0.000
  Name = 
  6 active torsions:
  status: ('A' for Active; 'I' for Inactive)
    1  A    between atoms: O_1  and  C_3
    2  A    between atoms: O_1  and  C_5
    3  A    between atoms: C_2  and  C_21
    4  A    between atoms: C_6  and  C_23
    5  A    between atoms: C_9  and  C_24
    6  A    between atoms: C_15  and  C_21
                            x       y       z     vdW  Elec       q    Type
                         _______ _______ _______ _____ _____    ______ ____

>  <TORSDO>
F 6

$$$$
=
 OpenBabel10262419453D

 25 27  0  0  1  0  0  0  0  0999 V2000
  188.7180  177.1490  143.9730 C   0  0  0  0  0  0  0  0  0  0  0  0
  190.9600  178.0780  143.9350 C   0  0  0  0  0  0  0  0  0  0  0  0
  192.0440  178.6010  144.5600 F   0  0  0  0  0  0  0  0  0  0  0  0
  188.7910  177.0160  142.5780 C   0  0  0  0  0  3  0  0  0  0  0  0
  190.9820  177.9410  142.5840 N   0  0  0  0  0  0  0  0  0  0  0  0
  189.9330  177.4240  141.8980 C   0  0  0  0  0  0  0  0  0  0  0  0
  189.8310  177.6830  144.6770 C   0  0  0  0  0  0  0  0  0  0  0  0
  189.4140  176.6870  146.9740 C   0  0  0  0  0  2  0  0  0  0  0  0
  189.9110  177.8800  146.1810 C   0  0  0  0  0  3  0  0  0  0  0  0
  190.9050  176.9580  146.8610 C   0  0  0  0  0  2  0  0  0  0  0  0
  190.0010  177.2950  140.4710 C   0  0  0  0  0  0  0  0  0  0  0  0
  190.0590  177.1870  139.2710 C   0  0  0  0  0  0  0  0  0  0  0  0
  190.1300  177.0550  137.8130 C   0  0  2  0  0  3  0  0  0  0  0  0
  191.4510  177.0720  137.4070 F   0  0  0  0  0  0  0  0  0  0  0  0
  189.3740  178.1620  137.1590 C   0  0  0  0  0  0  0  0  0  0  0  0
  189.0530  178.0850  135.9430 O   0  0  0  0  0  0  0  0  0  0  0  0
  189.0490  179.2980  137.8870 O   0  0  0  0  0  1  0  0  0  0  0  0
  187.5730  176.7130  144.6570 O   0  0  0  0  0  0  0  0  0  0  0  0
  186.4250  177.4840  144.8860 C   0  0  0  0  0  0  0  0  0  0  0  0
  184.1640  179.0530  145.4320 C   0  0  0  0  0  3  0  0  0  0  0  0
  185.5970  177.9280  143.8340 C   0  0  0  0  0  0  0  0  0  0  0  0
  184.4700  178.7060  144.1130 C   0  0  0  0  0  3  0  0  0  0  0  0
  184.9920  178.6310  146.4750 C   0  0  0  0  0  3  0  0  0  0  0  0
  185.9070  177.6600  142.5420 F   0  0  0  0  0  0  0  0  0  0  0  0
  186.1210  177.8540  146.2010 C   0  0  0  0  0  3  0  0  0  0  0  0
  1 18  1  0  0  0  0
  1  7  1  0  0  0  0
  2  3  1  0  0  0  0
  2  7  2  0  0  0  0
  4  1  2  0  0  0  0
  5  2  1  0  0  0  0
  6  4  1  0  0  0  0
  6  5  2  0  0  0  0
  7  9  1  0  0  0  0
  9 10  1  0  0  0  0
  9  8  1  0  0  0  0
 10  8  1  0  0  0  0
 11  6  1  0  0  0  0
 12 11  3  0  0  0  0
 13 14  1  6  0  0  0
 13 12  1  0  0  0  0
 15 13  1  0  0  0  0
 15 17  1  0  0  0  0
 16 15  2  0  0  0  0
 18 19  1  0  0  0  0
 19 25  1  0  0  0  0
 20 23  1  0  0  0  0
 21 22  1  0  0  0  0
 21 19  2  0  0  0  0
 22 20  2  0  0  0  0
 24 21  1  0  0  0  0
 25 23  2  0  0  0  0
M  END
>  <MODEL>
2

>  <REMARK>
 VINA RESULT:      -8.2      3.159      5.473
  Name = 
  6 active torsions:
  status: ('A' for Active; 'I' for Inactive)
    1  A    between atoms: O_1  and  C_3
    2  A    between atoms: O_1  and  C_5
    3  A    between atoms: C_2  and  C_21
    4  A    between atoms: C_6  and  C_23
    5  A    between atoms: C_9  and  C_24
    6  A    between atoms: C_15  and  C_21
                            x       y       z     vdW  Elec       q    Type
                         _______ _______ _______ _____ _____    ______ ____

>  <TORSDO>
F 6

$$$$
=
 OpenBabel10262419453D

 25 27  0  0  1  0  0  0  0  0999 V2000
  186.7250  177.5260  145.0800 C   0  0  0  0  0  0  0  0  0  0  0  0
  185.9520  179.1190  146.7390 C   0  0  0  0  0  0  0  0  0  0  0  0
  186.1200  179.8180  147.8900 F   0  0  0  0  0  0  0  0  0  0  0  0
  185.5300  177.7370  144.3770 C   0  0  0  0  0  3  0  0  0  0  0  0
  184.8050  179.2850  146.0310 N   0  0  0  0  0  0  0  0  0  0  0  0
  184.5760  178.6190  144.8720 C   0  0  0  0  0  0  0  0  0  0  0  0
  186.9530  178.2400  146.2870 C   0  0  0  0  0  0  0  0  0  0  0  0
  187.8890  177.8530  148.6150 C   0  0  0  0  0  2  0  0  0  0  0  0
  188.1950  178.1290  147.1550 C   0  0  0  0  0  3  0  0  0  0  0  0
  188.4160  176.7410  147.7230 C   0  0  0  0  0  2  0  0  0  0  0  0
  183.3510  178.8270  144.1540 C   0  0  0  0  0  0  0  0  0  0  0  0
  182.3210  179.0030  143.5510 C   0  0  0  0  0  0  0  0  0  0  0  0
  181.0700  179.2150  142.8180 C   0  0  2  0  0  3  0  0  0  0  0  0
  180.5510  180.4580  143.1330 F   0  0  0  0  0  0  0  0  0  0  0  0
  180.0880  178.1450  143.1550 C   0  0  0  0  0  0  0  0  0  0  0  0
  179.7980  177.8990  144.3570 O   0  0  0  0  0  1  0  0  0  0  0  0
  179.5130  177.3930  142.1400 O   0  0  0  0  0  0  0  0  0  0  0  0
  187.6940  176.6520  144.5640 O   0  0  0  0  0  0  0  0  0  0  0  0
  188.8460  177.0420  143.8660 C   0  0  0  0  0  0  0  0  0  0  0  0
  191.2050  177.7680  142.5330 C   0  0  0  0  0  3  0  0  0  0  0  0
  188.7970  177.4960  142.5320 C   0  0  0  0  0  0  0  0  0  0  0  0
  189.9760  177.8600  141.8750 C   0  0  0  0  0  3  0  0  0  0  0  0
  191.2600  177.3000  143.8480 C   0  0  0  0  0  3  0  0  0  0  0  0
  187.6260  177.5330  141.8500 F   0  0  0  0  0  0  0  0  0  0  0  0
  190.0840  176.9340  144.5080 C   0  0  0  0  0  3  0  0  0  0  0  0
  1  7  1  0  0  0  0
  2  3  1  0  0  0  0
  4  6  1  0  0  0  0
  4  1  2  0  0  0  0
  5  2  1  0  0  0  0
  6  5  2  0  0  0  0
  7  2  2  0  0  0  0
  7  9  1  0  0  0  0
  9 10  1  0  0  0  0
  9  8  1  0  0  0  0
 10  8  1  0  0  0  0
 11  6  1  0  0  0  0
 12 11  3  0  0  0  0
 13 14  1  1  0  0  0
 13 15  1  0  0  0  0
 13 12  1  0  0  0  0
 15 16  1  0  0  0  0
 17 15  2  0  0  0  0
 18  1  1  0  0  0  0
 19 25  1  0  0  0  0
 19 18  1  0  0  0  0
 20 23  1  0  0  0  0
 21 19  2  0  0  0  0
 22 21  1  0  0  0  0
 22 20  2  0  0  0  0
 23 25  2  0  0  0  0
 24 21  1  0  0  0  0
M  END
>  <MODEL>
3

>  <REMARK>
 VINA RESULT:      -8.1      2.838      3.045
  Name = 
  6 active torsions:
  status: ('A' for Active; 'I' for Inactive)
    1  A    between atoms: O_1  and  C_3
    2  A    between atoms: O_1  and  C_5
    3  A    between atoms: C_2  and  C_21
    4  A    between atoms: C_6  and  C_23
    5  A    between atoms: C_9  and  C_24
    6  A    between atoms: C_15  and  C_21
                            x       y       z     vdW  Elec       q    Type
                         _______ _______ _______ _____ _____    ______ ____

>  <TORSDO>
F 6

$$$$
=
 OpenBabel10262419453D

 25 27  0  0  1  0  0  0  0  0999 V2000
  188.1640  177.2590  145.3930 C   0  0  0  0  0  0  0  0  0  0  0  0
  190.5460  176.9790  145.7590 C   0  0  0  0  0  0  0  0  0  0  0  0
  191.6200  176.8500  146.5800 F   0  0  0  0  0  0  0  0  0  0  0  0
  188.4120  177.2310  144.0130 C   0  0  0  0  0  3  0  0  0  0  0  0
  190.7410  176.9690  144.4150 N   0  0  0  0  0  0  0  0  0  0  0  0
  189.7120  177.0900  143.5410 C   0  0  0  0  0  0  0  0  0  0  0  0
  189.2530  177.1190  146.2950 C   0  0  0  0  0  0  0  0  0  0  0  0
  189.5710  178.4290  148.4460 C   0  0  0  0  0  2  0  0  0  0  0  0
  189.1480  177.1190  147.8100 C   0  0  0  0  0  3  0  0  0  0  0  0
  188.0970  178.0730  148.3450 C   0  0  0  0  0  2  0  0  0  0  0  0
  189.9640  177.0700  142.1280 C   0  0  0  0  0  0  0  0  0  0  0  0
  190.1760  177.0540  140.9410 C   0  0  0  0  0  0  0  0  0  0  0  0
  190.4330  177.0340  139.4980 C   0  0  2  0  0  3  0  0  0  0  0  0
  191.7750  177.2710  139.2610 F   0  0  0  0  0  0  0  0  0  0  0  0
  189.5980  178.0620  138.8120 C   0  0  0  0  0  0  0  0  0  0  0  0
  188.8130  178.7920  139.4740 O   0  0  0  0  0  1  0  0  0  0  0  0
  189.6630  178.1920  137.4320 O   0  0  0  0  0  0  0  0  0  0  0  0
  186.8470  177.3770  145.8640 O   0  0  0  0  0  0  0  0  0  0  0  0
  185.7920  177.9900  145.1740 C   0  0  0  0  0  0  0  0  0  0  0  0
  183.7120  179.1710  143.7080 C   0  0  0  0  0  3  0  0  0  0  0  0
  184.6370  178.4590  145.8320 C   0  0  0  0  0  0  0  0  0  0  0  0
  183.6050  179.0500  145.0970 C   0  0  0  0  0  3  0  0  0  0  0  0
  184.8460  178.6890  143.0500 C   0  0  0  0  0  3  0  0  0  0  0  0
  184.4810  178.2960  147.1680 F   0  0  0  0  0  0  0  0  0  0  0  0
  185.8780  178.0960  143.7810 C   0  0  0  0  0  3  0  0  0  0  0  0
  1 18  1  0  0  0  0
  1  7  1  0  0  0  0
  2  7  2  0  0  0  0
  2  3  1  0  0  0  0
  4  1  2  0  0  0  0
  5  2  1  0  0  0  0
  6  4  1  0  0  0  0
  6  5  2  0  0  0  0
  7  9  1  0  0  0  0
  9 10  1  0  0  0  0
  9  8  1  0  0  0  0
 10  8  1  0  0  0  0
 11  6  1  0  0  0  0
 12 11  3  0  0  0  0
 13 14  1  1  0  0  0
 13 12  1  0  0  0  0
 15 16  1  0  0  0  0
 15 13  1  0  0  0  0
 17 15  2  0  0  0  0
 19 21  1  0  0  0  0
 19 18  1  0  0  0  0
 20 22  1  0  0  0  0
 21 24  1  0  0  0  0
 22 21  2  0  0  0  0
 23 20  2  0  0  0  0
 23 25  1  0  0  0  0
 25 19  2  0  0  0  0
M  END
>  <MODEL>
4

>  <REMARK>
 VINA RESULT:      -8.1      2.820      5.436
  Name = 
  6 active torsions:
  status: ('A' for Active; 'I' for Inactive)
    1  A    between atoms: O_1  and  C_3
    2  A    between atoms: O_1  and  C_5
    3  A    between atoms: C_2  and  C_21
    4  A    between atoms: C_6  and  C_23
    5  A    between atoms: C_9  and  C_24
    6  A    between atoms: C_15  and  C_21
                            x       y       z     vdW  Elec       q    Type
                         _______ _______ _______ _____ _____    ______ ____

>  <TORSDO>
F 6

$$$$
=
 OpenBabel10262419453D

 25 27  0  0  1  0  0  0  0  0999 V2000
  188.6790  177.1560  143.8870 C   0  0  0  0  0  0  0  0  0  0  0  0
  190.9750  177.9110  144.1000 C   0  0  0  0  0  0  0  0  0  0  0  0
  192.0150  178.3740  144.8400 F   0  0  0  0  0  0  0  0  0  0  0  0
  188.9090  176.9650  142.5170 C   0  0  0  0  0  3  0  0  0  0  0  0
  191.1500  177.7210  142.7670 N   0  0  0  0  0  0  0  0  0  0  0  0
  190.1540  177.2590  141.9720 C   0  0  0  0  0  0  0  0  0  0  0  0
  189.7380  177.6310  144.7080 C   0  0  0  0  0  0  0  0  0  0  0  0
  189.0850  176.7050  146.9790 C   0  0  0  0  0  2  0  0  0  0  0  0
  189.6500  177.8790  146.2040 C   0  0  0  0  0  3  0  0  0  0  0  0
  190.5760  176.9970  147.0190 C   0  0  0  0  0  2  0  0  0  0  0  0
  190.3840  177.0700  140.5680 C   0  0  0  0  0  0  0  0  0  0  0  0
  190.5770  176.9120  139.3880 C   0  0  0  0  0  0  0  0  0  0  0  0
  190.8120  176.7190  137.9540 C   0  0  2  0  0  3  0  0  0  0  0  0
  190.1070  177.6670  137.2350 F   0  0  0  0  0  0  0  0  0  0  0  0
  190.3980  175.3460  137.5450 C   0  0  0  0  0  0  0  0  0  0  0  0
  191.0280  174.3380  137.9620 O   0  0  0  0  0  1  0  0  0  0  0  0
  189.3300  175.1800  136.6740 O   0  0  0  0  0  0  0  0  0  0  0  0
  187.4280  176.8350  144.4370 O   0  0  0  0  0  0  0  0  0  0  0  0
  186.3030  177.6700  144.4310 C   0  0  0  0  0  0  0  0  0  0  0  0
  184.0280  179.3090  144.3270 C   0  0  0  0  0  3  0  0  0  0  0  0
  185.7120  178.1410  145.6210 C   0  0  0  0  0  0  0  0  0  0  0  0
  184.5810  178.9610  145.5630 C   0  0  0  0  0  3  0  0  0  0  0  0
  184.5990  178.8280  143.1460 C   0  0  0  0  0  3  0  0  0  0  0  0
  186.1890  177.7670  146.8330 F   0  0  0  0  0  0  0  0  0  0  0  0
  185.7280  178.0070  143.2010 C   0  0  0  0  0  3  0  0  0  0  0  0
  1 18  1  0  0  0  0
  1  7  1  0  0  0  0
  2  7  2  0  0  0  0
  2  3  1  0  0  0  0
  4  1  2  0  0  0  0
  5  2  1  0  0  0  0
  6  4  1  0  0  0  0
  6  5  2  0  0  0  0
  7  9  1  0  0  0  0
  8 10  1  0  0  0  0
  9  8  1  0  0  0  0
  9 10  1  0  0  0  0
 11  6  1  0  0  0  0
 12 11  3  0  0  0  0
 13 14  1  6  0  0  0
 13 12  1  0  0  0  0
 15 13  1  0  0  0  0
 15 16  1  0  0  0  0
 17 15  2  0  0  0  0
 19 18  1  0  0  0  0
 19 21  1  0  0  0  0
 20 22  1  0  0  0  0
 21 24  1  0  0  0  0
 22 21  2  0  0  0  0
 23 25  1  0  0  0  0
 23 20  2  0  0  0  0
 25 19  2  0  0  0  0
M  END
>  <MODEL>
5

>  <REMARK>
 VINA RESULT:      -8.1      3.317      5.868
  Name = 
  6 active torsions:
  status: ('A' for Active; 'I' for Inactive)
    1  A    between atoms: O_1  and  C_3
    2  A    between atoms: O_1  and  C_5
    3  A    between atoms: C_2  and  C_21
    4  A    between atoms: C_6  and  C_23
    5  A    between atoms: C_9  and  C_24
    6  A    between atoms: C_15  and  C_21
                            x       y       z     vdW  Elec       q    Type
                         _______ _______ _______ _____ _____    ______ ____

>  <TORSDO>
F 6

$$$$
=
 OpenBabel10262419453D

 25 27  0  0  1  0  0  0  0  0999 V2000
  187.4180  177.4190  143.4000 C   0  0  0  0  0  0  0  0  0  0  0  0
  187.7450  178.5430  141.2740 C   0  0  0  0  0  0  0  0  0  0  0  0
  188.5450  179.0110  140.2830 F   0  0  0  0  0  0  0  0  0  0  0  0
  186.0370  177.6140  143.2480 C   0  0  0  0  0  3  0  0  0  0  0  0
  186.4020  178.7200  141.1730 N   0  0  0  0  0  0  0  0  0  0  0  0
  185.5460  178.2740  142.1270 C   0  0  0  0  0  0  0  0  0  0  0  0
  188.2990  177.8830  142.3860 C   0  0  0  0  0  0  0  0  0  0  0  0
  190.2820  176.3270  142.6860 C   0  0  0  0  0  2  0  0  0  0  0  0
  189.8110  177.7400  142.3990 C   0  0  0  0  0  3  0  0  0  0  0  0
  190.3480  176.8790  141.2720 C   0  0  0  0  0  2  0  0  0  0  0  0
  184.1340  178.4800  141.9770 C   0  0  0  0  0  0  0  0  0  0  0  0
  182.9470  178.6530  141.8510 C   0  0  0  0  0  0  0  0  0  0  0  0
  181.5050  178.8630  141.6990 C   0  0  2  0  0  3  0  0  0  0  0  0
  181.2710  179.7590  140.6720 F   0  0  0  0  0  0  0  0  0  0  0  0
  180.9210  179.3740  142.9730 C   0  0  0  0  0  0  0  0  0  0  0  0
  181.0680  178.7300  144.0460 O   0  0  0  0  0  1  0  0  0  0  0  0
  180.1860  180.5510  142.9700 O   0  0  0  0  0  0  0  0  0  0  0  0
  187.9070  176.7320  144.5220 O   0  0  0  0  0  0  0  0  0  0  0  0
  188.0380  177.2720  145.8090 C   0  0  0  0  0  0  0  0  0  0  0  0
  188.2010  178.3440  148.3960 C   0  0  0  0  0  3  0  0  0  0  0  0
  189.2620  177.2560  146.5080 C   0  0  0  0  0  0  0  0  0  0  0  0
  189.3380  177.7960  147.7960 C   0  0  0  0  0  3  0  0  0  0  0  0
  186.9820  178.3430  147.7140 C   0  0  0  0  0  3  0  0  0  0  0  0
  190.3630  176.6730  145.9740 F   0  0  0  0  0  0  0  0  0  0  0  0
  186.9010  177.8040  146.4280 C   0  0  0  0  0  3  0  0  0  0  0  0
  1 18  1  0  0  0  0
  2  7  1  0  0  0  0
  3  2  1  0  0  0  0
  4  1  1  0  0  0  0
  5  2  2  0  0  0  0
  5  6  1  0  0  0  0
  6  4  2  0  0  0  0
  7  9  1  0  0  0  0
  7  1  2  0  0  0  0
  9  8  1  0  0  0  0
 10  9  1  0  0  0  0
 10  8  1  0  0  0  0
 11  6  1  0  0  0  0
 12 11  3  0  0  0  0
 13 14  1  6  0  0  0
 13 12  1  0  0  0  0
 13 15  1  0  0  0  0
 15 16  1  0  0  0  0
 17 15  2  0  0  0  0
 18 19  1  0  0  0  0
 19 25  2  0  0  0  0
 19 21  1  0  0  0  0
 21 22  2  0  0  0  0
 22 20  1  0  0  0  0
 23 20  2  0  0  0  0
 24 21  1  0  0  0  0
 25 23  1  0  0  0  0
M  END
>  <MODEL>
6

>  <REMARK>
 VINA RESULT:      -8.0      2.696      4.725
  Name = 
  6 active torsions:
  status: ('A' for Active; 'I' for Inactive)
    1  A    between atoms: O_1  and  C_3
    2  A    between atoms: O_1  and  C_5
    3  A    between atoms: C_2  and  C_21
    4  A    between atoms: C_6  and  C_23
    5  A    between atoms: C_9  and  C_24
    6  A    between atoms: C_15  and  C_21
                            x       y       z     vdW  Elec       q    Type
                         _______ _______ _______ _____ _____    ______ ____

>  <TORSDO>
F 6

$$$$
=
 OpenBabel10262419453D

 25 27  0  0  1  0  0  0  0  0999 V2000
  187.0860  177.5590  145.1730 C   0  0  0  0  0  0  0  0  0  0  0  0
  186.0720  179.1370  146.7140 C   0  0  0  0  0  0  0  0  0  0  0  0
  186.0920  179.8680  147.8570 F   0  0  0  0  0  0  0  0  0  0  0  0
  185.9510  177.6840  144.3590 C   0  0  0  0  0  3  0  0  0  0  0  0
  184.9880  179.2190  145.9000 N   0  0  0  0  0  0  0  0  0  0  0  0
  184.9060  178.5170  144.7430 C   0  0  0  0  0  0  0  0  0  0  0  0
  187.1610  178.3100  146.3780 C   0  0  0  0  0  0  0  0  0  0  0  0
  187.9560  177.7260  148.7160 C   0  0  0  0  0  2  0  0  0  0  0  0
  188.3210  178.2930  147.3580 C   0  0  0  0  0  3  0  0  0  0  0  0
  188.7710  176.8960  147.7380 C   0  0  0  0  0  2  0  0  0  0  0  0
  183.7420  178.6360  143.9120 C   0  0  0  0  0  0  0  0  0  0  0  0
  182.7640  178.7350  143.2140 C   0  0  0  0  0  0  0  0  0  0  0  0
  181.5750  178.8570  142.3650 C   0  0  2  0  0  3  0  0  0  0  0  0
  181.8900  179.5660  141.2200 F   0  0  0  0  0  0  0  0  0  0  0  0
  180.4780  179.5400  143.1100 C   0  0  0  0  0  0  0  0  0  0  0  0
  179.9360  178.9830  144.1020 O   0  0  0  0  0  1  0  0  0  0  0  0
  180.0310  180.7850  142.6890 O   0  0  0  0  0  0  0  0  0  0  0  0
  188.1490  176.7350  144.7700 O   0  0  0  0  0  0  0  0  0  0  0  0
  189.0650  177.0350  143.7530 C   0  0  0  0  0  0  0  0  0  0  0  0
  190.8240  177.6360  141.6520 C   0  0  0  0  0  3  0  0  0  0  0  0
  190.3190  177.6210  144.0220 C   0  0  0  0  0  0  0  0  0  0  0  0
  191.1930  177.9140  142.9710 C   0  0  0  0  0  3  0  0  0  0  0  0
  189.5740  177.0740  141.3800 C   0  0  0  0  0  3  0  0  0  0  0  0
  190.6740  177.9600  145.2850 F   0  0  0  0  0  0  0  0  0  0  0  0
  188.6980  176.7810  142.4270 C   0  0  0  0  0  3  0  0  0  0  0  0
  1  7  1  0  0  0  0
  2  3  1  0  0  0  0
  4  6  1  0  0  0  0
  4  1  2  0  0  0  0
  5  2  1  0  0  0  0
  6  5  2  0  0  0  0
  7  2  2  0  0  0  0
  7  9  1  0  0  0  0
  9 10  1  0  0  0  0
  9  8  1  0  0  0  0
 10  8  1  0  0  0  0
 11  6  1  0  0  0  0
 12 11  3  0  0  0  0
 13 14  1  6  0  0  0
 13 15  1  0  0  0  0
 13 12  1  0  0  0  0
 15 16  1  0  0  0  0
 17 15  2  0  0  0  0
 18  1  1  0  0  0  0
 19 21  1  0  0  0  0
 19 18  1  0  0  0  0
 20 22  1  0  0  0  0
 21 24  1  0  0  0  0
 22 21  2  0  0  0  0
 23 20  2  0  0  0  0
 23 25  1  0  0  0  0
 25 19  2  0  0  0  0
M  END
>  <MODEL>
7

>  <REMARK>
 VINA RESULT:      -8.0      2.472      2.876
  Name = 
  6 active torsions:
  status: ('A' for Active; 'I' for Inactive)
    1  A    between atoms: O_1  and  C_3
    2  A    between atoms: O_1  and  C_5
    3  A    between atoms: C_2  and  C_21
    4  A    between atoms: C_6  and  C_23
    5  A    between atoms: C_9  and  C_24
    6  A    between atoms: C_15  and  C_21
                            x       y       z     vdW  Elec       q    Type
                         _______ _______ _______ _____ _____    ______ ____

>  <TORSDO>
F 6

$$$$
=
 OpenBabel10262419453D

 25 27  0  0  1  0  0  0  0  0999 V2000
  186.5890  177.7670  144.4040 C   0  0  0  0  0  0  0  0  0  0  0  0
  184.4360  178.8670  144.6210 C   0  0  0  0  0  0  0  0  0  0  0  0
  183.4230  179.3650  145.3730 F   0  0  0  0  0  0  0  0  0  0  0  0
  186.4620  177.8790  143.0110 C   0  0  0  0  0  3  0  0  0  0  0  0
  184.3510  178.9430  143.2680 N   0  0  0  0  0  0  0  0  0  0  0  0
  185.3300  178.4670  142.4600 C   0  0  0  0  0  0  0  0  0  0  0  0
  185.5590  178.2820  145.2370 C   0  0  0  0  0  0  0  0  0  0  0  0
  186.9400  178.2740  147.3660 C   0  0  0  0  0  2  0  0  0  0  0  0
  185.5520  178.2470  146.7550 C   0  0  0  0  0  3  0  0  0  0  0  0
  186.0710  179.5210  147.3930 C   0  0  0  0  0  2  0  0  0  0  0  0
  185.1990  178.5720  141.0350 C   0  0  0  0  0  0  0  0  0  0  0  0
  185.0890  178.6610  139.8370 C   0  0  0  0  0  0  0  0  0  0  0  0
  184.9550  178.7680  138.3810 C   0  0  2  0  0  3  0  0  0  0  0  0
  183.8380  178.0680  137.9630 F   0  0  0  0  0  0  0  0  0  0  0  0
  186.1780  178.2380  137.7110 C   0  0  0  0  0  0  0  0  0  0  0  0
  187.2890  178.2550  138.3050 O   0  0  0  0  0  1  0  0  0  0  0  0
  186.0960  177.7530  136.4140 O   0  0  0  0  0  0  0  0  0  0  0  0
  187.7450  177.1940  144.9570 O   0  0  0  0  0  0  0  0  0  0  0  0
  189.0300  177.2690  144.4030 C   0  0  0  0  0  0  0  0  0  0  0  0
  191.6320  177.4710  143.3750 C   0  0  0  0  0  3  0  0  0  0  0  0
  189.4810  176.3570  143.4270 C   0  0  0  0  0  0  0  0  0  0  0  0
  190.7770  176.4660  142.9150 C   0  0  0  0  0  3  0  0  0  0  0  0
  191.1960  178.3640  144.3570 C   0  0  0  0  0  3  0  0  0  0  0  0
  188.6940  175.3350  143.0110 F   0  0  0  0  0  0  0  0  0  0  0  0
  189.9020  178.2580  144.8720 C   0  0  0  0  0  3  0  0  0  0  0  0
  1 18  1  0  0  0  0
  1  7  1  0  0  0  0
  2  7  2  0  0  0  0
  2  3  1  0  0  0  0
  4  1  2  0  0  0  0
  5  2  1  0  0  0  0
  6  4  1  0  0  0  0
  6  5  2  0  0  0  0
  7  9  1  0  0  0  0
  8 10  1  0  0  0  0
  9  8  1  0  0  0  0
  9 10  1  0  0  0  0
 11  6  1  0  0  0  0
 12 11  3  0  0  0  0
 13 14  1  6  0  0  0
 13 12  1  0  0  0  0
 15 16  1  0  0  0  0
 15 13  1  0  0  0  0
 17 15  2  0  0  0  0
 19 25  1  0  0  0  0
 19 18  1  0  0  0  0
 20 23  1  0  0  0  0
 21 19  2  0  0  0  0
 22 20  2  0  0  0  0
 22 21  1  0  0  0  0
 23 25  2  0  0  0  0
 24 21  1  0  0  0  0
M  END
>  <MODEL>
8

>  <REMARK>
 VINA RESULT:      -7.7      1.586      2.017
  Name = 
  6 active torsions:
  status: ('A' for Active; 'I' for Inactive)
    1  A    between atoms: O_1  and  C_3
    2  A    between atoms: O_1  and  C_5
    3  A    between atoms: C_2  and  C_21
    4  A    between atoms: C_6  and  C_23
    5  A    between atoms: C_9  and  C_24
    6  A    between atoms: C_15  and  C_21
                            x       y       z     vdW  Elec       q    Type
                         _______ _______ _______ _____ _____    ______ ____

>  <TORSDO>
F 6

$$$$
=
 OpenBabel10262419453D

 25 27  0  0  1  0  0  0  0  0999 V2000
  189.5660  177.0480  145.4310 C   0  0  0  0  0  0  0  0  0  0  0  0
  188.8570  177.7860  147.6320 C   0  0  0  0  0  0  0  0  0  0  0  0
  189.0790  177.9650  148.9580 F   0  0  0  0  0  0  0  0  0  0  0  0
  188.3210  177.4610  144.9340 C   0  0  0  0  0  3  0  0  0  0  0  0
  187.6610  178.1610  147.1090 N   0  0  0  0  0  0  0  0  0  0  0  0
  187.3760  178.0120  145.7920 C   0  0  0  0  0  0  0  0  0  0  0  0
  189.8520  177.2220  146.8130 C   0  0  0  0  0  0  0  0  0  0  0  0
  191.3090  175.3420  147.6990 C   0  0  0  0  0  2  0  0  0  0  0  0
  191.1510  176.8370  147.4990 C   0  0  0  0  0  3  0  0  0  0  0  0
  192.0970  176.0520  146.6110 C   0  0  0  0  0  2  0  0  0  0  0  0
  186.1000  178.4260  145.2810 C   0  0  0  0  0  0  0  0  0  0  0  0
  185.0280  178.7740  144.8520 C   0  0  0  0  0  0  0  0  0  0  0  0
  183.7250  179.1960  144.3310 C   0  0  2  0  0  3  0  0  0  0  0  0
  182.7150  178.5670  145.0360 F   0  0  0  0  0  0  0  0  0  0  0  0
  183.6210  178.8710  142.8790 C   0  0  0  0  0  0  0  0  0  0  0  0
  184.6570  178.8030  142.1640 O   0  0  0  0  0  0  0  0  0  0  0  0
  182.3740  178.6730  142.3050 O   0  0  0  0  0  1  0  0  0  0  0  0
  190.5260  176.5140  144.5570 O   0  0  0  0  0  0  0  0  0  0  0  0
  190.6030  176.7750  143.1830 C   0  0  0  0  0  0  0  0  0  0  0  0
  190.8560  177.3040  140.4390 C   0  0  0  0  0  3  0  0  0  0  0  0
  189.5800  176.3970  142.2890 C   0  0  0  0  0  0  0  0  0  0  0  0
  189.7100  176.6670  140.9230 C   0  0  0  0  0  3  0  0  0  0  0  0
  191.8810  177.6620  141.3190 C   0  0  0  0  0  3  0  0  0  0  0  0
  188.4890  175.7210  142.7240 F   0  0  0  0  0  0  0  0  0  0  0  0
  191.7550  177.3930  142.6840 C   0  0  0  0  0  3  0  0  0  0  0  0
  1  7  1  0  0  0  0
  2  3  1  0  0  0  0
  4  1  2  0  0  0  0
  4  6  1  0  0  0  0
  5  2  1  0  0  0  0
  6  5  2  0  0  0  0
  7  9  1  0  0  0  0
  7  2  2  0  0  0  0
  9  8  1  0  0  0  0
 10  9  1  0  0  0  0
 10  8  1  0  0  0  0
 11  6  1  0  0  0  0
 12 11  3  0  0  0  0
 13 12  1  0  0  0  0
 13 14  1  1  0  0  0
 15 13  1  0  0  0  0
 16 15  2  0  0  0  0
 17 15  1  0  0  0  0
 18  1  1  0  0  0  0
 19 18  1  0  0  0  0
 20 22  2  0  0  0  0
 20 23  1  0  0  0  0
 21 24  1  0  0  0  0
 21 19  2  0  0  0  0
 22 21  1  0  0  0  0
 23 25  2  0  0  0  0
 25 19  1  0  0  0  0
M  END
>  <MODEL>
9

>  <REMARK>
 VINA RESULT:      -7.5      2.279      3.182
  Name = 
  6 active torsions:
  status: ('A' for Active; 'I' for Inactive)
    1  A    between atoms: O_1  and  C_3
    2  A    between atoms: O_1  and  C_5
    3  A    between atoms: C_2  and  C_21
    4  A    between atoms: C_6  and  C_23
    5  A    between atoms: C_9  and  C_24
    6  A    between atoms: C_15  and  C_21
                            x       y       z     vdW  Elec       q    Type
                         _______ _______ _______ _____ _____    ______ ____

>  <TORSDO>
F 6

$$$$
