=
 OpenBabel10262419433D

 25 28  0  0  1  0  0  0  0  0999 V2000
  187.4940  177.8910  145.9040 C   0  0  0  0  0  0  0  0  0  0  0  0
  188.8070  177.4580  145.6860 C   0  0  0  0  0  0  0  0  0  0  0  0
  187.8550  178.1360  148.2830 C   0  0  0  0  0  3  0  0  0  0  0  0
  186.4290  178.0900  145.0590 C   0  0  1  0  0  3  0  0  0  0  0  0
  183.9740  178.6710  143.9230 C   0  0  0  0  0  3  0  0  0  0  0  0
  189.1750  177.6950  148.0990 C   0  0  0  0  0  3  0  0  0  0  0  0
  185.3900  178.5290  145.8530 C   0  0  0  0  0  0  0  0  0  0  0  0
  184.1420  178.8300  145.3100 C   0  0  0  0  0  3  0  0  0  0  0  0
  191.0560  176.9010  146.6430 C   0  0  0  0  0  0  0  0  0  0  0  0
  191.8270  176.8230  147.6360 O   0  0  0  0  0  0  0  0  0  0  0  0
  189.2730  177.0520  144.3150 C   0  0  0  0  0  2  0  0  0  0  0  0
  185.0410  178.2220  143.1150 C   0  0  0  0  0  3  0  0  0  0  0  0
  187.0330  178.2230  147.1630 C   0  0  0  0  0  0  0  0  0  0  0  0
  185.7390  178.6190  147.1560 N   0  0  0  0  0  0  0  0  0  0  0  0
  191.5620  176.4890  145.2950 C   0  0  0  0  0  2  0  0  0  0  0  0
  186.2930  177.9240  143.6820 C   0  0  0  0  0  3  0  0  0  0  0  0
  190.7940  177.2100  144.1790 C   0  0  1  0  0  3  0  0  0  0  0  0
  189.6570  177.3490  146.8150 C   0  0  0  0  0  0  0  0  0  0  0  0
  191.2700  176.8940  142.8870 O   0  0  0  0  0  0  0  0  0  0  0  0
  190.2080  176.3900  142.1150 C   0  0  0  0  0  2  0  0  0  0  0  0
  190.0520  177.2100  140.8440 C   0  0  0  0  0  2  0  0  0  0  0  0
  188.7070  177.9230  140.8140 C   0  0  0  0  0  2  0  0  0  0  0  0
  188.2280  178.1320  139.3860 C   0  0  0  0  0  3  0  0  0  0  0  0
  189.0140  179.1050  138.7720 O   0  0  0  0  0  1  0  0  0  0  0  0
  186.8970  178.5470  139.3880 O   0  0  0  0  0  1  0  0  0  0  0  0
  1 13  1  0  0  0  0
  2  1  2  0  0  0  0
  2 18  1  0  0  0  0
  4 16  1  6  0  0  0
  4  7  1  0  0  0  0
  4  1  1  0  0  0  0
  5  8  2  0  0  0  0
  6  3  1  0  0  0  0
  7 14  2  0  0  0  0
  8  7  1  0  0  0  0
  9 18  1  0  0  0  0
  9 10  2  0  0  0  0
 11  2  1  0  0  0  0
 12 16  2  0  0  0  0
 12  5  1  0  0  0  0
 13  3  2  0  0  0  0
 14 13  1  0  0  0  0
 15  9  1  0  0  0  0
 17 19  1  6  0  0  0
 17 11  1  0  0  0  0
 17 15  1  0  0  0  0
 18  6  2  0  0  0  0
 20 19  1  0  0  0  0
 21 20  1  0  0  0  0
 22 21  1  0  0  0  0
 23 25  1  0  0  0  0
 23 22  1  0  0  0  0
 24 23  1  0  0  0  0
M  END
>  <MODEL>
1

>  <REMARK>
 VINA RESULT:     -10.8      0.000      0.000
  Name = 
  5 active torsions:
  status: ('A' for Active; 'I' for Inactive)
    1  A    between atoms: C_2  and  C_21
    2  A    between atoms: O_6  and  C_15
    3  A    between atoms: O_6  and  C_23
    4  A    between atoms: C_15  and  C_25
    5  A    between atoms: C_21  and  C_25
                            x       y       z     vdW  Elec       q    Type
                         _______ _______ _______ _____ _____    ______ ____

>  <TORSDO>
F 5

$$$$
=
 OpenBabel10262419433D

 25 28  0  0  1  0  0  0  0  0999 V2000
  187.3400  177.9570  145.8920 C   0  0  0  0  0  0  0  0  0  0  0  0
  188.6570  177.5410  145.6650 C   0  0  0  0  0  0  0  0  0  0  0  0
  187.6990  178.1580  148.2750 C   0  0  0  0  0  3  0  0  0  0  0  0
  186.2720  178.1610  145.0520 C   0  0  2  0  0  3  0  0  0  0  0  0
  183.8100  178.7390  143.9280 C   0  0  0  0  0  3  0  0  0  0  0  0
  189.0240  177.7350  148.0820 C   0  0  0  0  0  3  0  0  0  0  0  0
  185.2290  178.5730  145.8540 C   0  0  0  0  0  0  0  0  0  0  0  0
  183.9780  178.8720  145.3180 C   0  0  0  0  0  3  0  0  0  0  0  0
  190.9120  176.9890  146.6100 C   0  0  0  0  0  0  0  0  0  0  0  0
  191.6850  176.8990  147.6010 O   0  0  0  0  0  0  0  0  0  0  0  0
  189.1260  177.1680  144.2870 C   0  0  0  0  0  2  0  0  0  0  0  0
  184.8820  178.3170  143.1110 C   0  0  0  0  0  3  0  0  0  0  0  0
  186.8760  178.2590  147.1580 C   0  0  0  0  0  0  0  0  0  0  0  0
  185.5780  178.6420  147.1590 N   0  0  0  0  0  0  0  0  0  0  0  0
  191.4220  176.6090  145.2530 C   0  0  0  0  0  2  0  0  0  0  0  0
  186.1360  178.0200  143.6720 C   0  0  0  0  0  3  0  0  0  0  0  0
  190.6450  177.3440  144.1520 C   0  0  1  0  0  3  0  0  0  0  0  0
  189.5090  177.4190  146.7910 C   0  0  0  0  0  0  0  0  0  0  0  0
  191.1240  177.0580  142.8550 O   0  0  0  0  0  0  0  0  0  0  0  0
  190.0990  176.4490  142.1090 C   0  0  0  0  0  2  0  0  0  0  0  0
  189.9630  177.1290  140.7550 C   0  0  0  0  0  2  0  0  0  0  0  0
  191.3040  177.1910  140.0370 C   0  0  0  0  0  2  0  0  0  0  0  0
  191.1870  176.6770  138.6100 C   0  0  0  0  0  3  0  0  0  0  0  0
  190.2070  177.4060  137.9360 O   0  0  0  0  0  1  0  0  0  0  0  0
  190.8350  175.3280  138.6190 O   0  0  0  0  0  1  0  0  0  0  0  0
  1 13  1  0  0  0  0
  2  1  2  0  0  0  0
  2 18  1  0  0  0  0
  4 16  1  1  0  0  0
  4  7  1  0  0  0  0
  4  1  1  0  0  0  0
  5  8  2  0  0  0  0
  6  3  1  0  0  0  0
  7 14  2  0  0  0  0
  8  7  1  0  0  0  0
  9 18  1  0  0  0  0
  9 10  2  0  0  0  0
 11  2  1  0  0  0  0
 12 16  2  0  0  0  0
 12  5  1  0  0  0  0
 13 14  1  0  0  0  0
 13  3  2  0  0  0  0
 15  9  1  0  0  0  0
 17 19  1  6  0  0  0
 17 11  1  0  0  0  0
 17 15  1  0  0  0  0
 18  6  2  0  0  0  0
 20 19  1  0  0  0  0
 21 20  1  0  0  0  0
 22 21  1  0  0  0  0
 23 25  1  0  0  0  0
 23 22  1  0  0  0  0
 24 23  1  0  0  0  0
M  END
>  <MODEL>
2

>  <REMARK>
 VINA RESULT:     -10.2      1.132      1.435
  Name = 
  5 active torsions:
  status: ('A' for Active; 'I' for Inactive)
    1  A    between atoms: C_2  and  C_21
    2  A    between atoms: O_6  and  C_15
    3  A    between atoms: O_6  and  C_23
    4  A    between atoms: C_15  and  C_25
    5  A    between atoms: C_21  and  C_25
                            x       y       z     vdW  Elec       q    Type
                         _______ _______ _______ _____ _____    ______ ____

>  <TORSDO>
F 5

$$$$
=
 OpenBabel10262419433D

 25 28  0  0  1  0  0  0  0  0999 V2000
  186.8490  178.0360  145.4460 C   0  0  0  0  0  0  0  0  0  0  0  0
  188.1420  177.6090  145.1240 C   0  0  0  0  0  0  0  0  0  0  0  0
  187.3680  178.1840  147.8040 C   0  0  0  0  0  3  0  0  0  0  0  0
  185.7310  178.2700  144.6830 C   0  0  1  0  0  3  0  0  0  0  0  0
  183.2080  178.9020  143.7370 C   0  0  0  0  0  3  0  0  0  0  0  0
  188.6710  177.7490  147.5150 C   0  0  0  0  0  3  0  0  0  0  0  0
  184.7490  178.6790  145.5610 C   0  0  0  0  0  0  0  0  0  0  0  0
  183.4690  179.0050  145.1150 C   0  0  0  0  0  3  0  0  0  0  0  0
  190.4470  177.0100  145.9060 C   0  0  0  0  0  0  0  0  0  0  0  0
  191.2830  176.8900  146.8420 O   0  0  0  0  0  0  0  0  0  0  0  0
  188.5140  177.2580  143.7110 C   0  0  0  0  0  2  0  0  0  0  0  0
  184.2180  178.4840  142.8420 C   0  0  0  0  0  3  0  0  0  0  0  0
  186.4740  178.3180  146.7460 C   0  0  0  0  0  0  0  0  0  0  0  0
  185.1840  178.7170  146.8400 N   0  0  0  0  0  0  0  0  0  0  0  0
  190.8610  176.6510  144.5120 C   0  0  0  0  0  2  0  0  0  0  0  0
  185.5020  178.1600  143.3130 C   0  0  0  0  0  3  0  0  0  0  0  0
  190.0240  177.4180  143.4790 C   0  0  1  0  0  3  0  0  0  0  0  0
  189.0660  177.4540  146.1890 C   0  0  0  0  0  0  0  0  0  0  0  0
  190.4110  177.1530  142.1470 O   0  0  0  0  0  0  0  0  0  0  0  0
  189.3570  177.4980  141.2830 C   0  0  0  0  0  2  0  0  0  0  0  0
  189.8780  177.6650  139.8640 C   0  0  0  0  0  2  0  0  0  0  0  0
  188.8980  177.0930  138.8490 C   0  0  0  0  0  2  0  0  0  0  0  0
  188.2240  178.1990  138.0530 C   0  0  0  0  0  3  0  0  0  0  0  0
  188.9840  179.3640  138.1450 O   0  0  0  0  0  1  0  0  0  0  0  0
  186.9470  178.4390  138.5600 O   0  0  0  0  0  1  0  0  0  0  0  0
  1 13  1  0  0  0  0
  2  1  2  0  0  0  0
  2 18  1  0  0  0  0
  4 16  1  6  0  0  0
  4  1  1  0  0  0  0
  4  7  1  0  0  0  0
  5  8  2  0  0  0  0
  6  3  1  0  0  0  0
  7 14  2  0  0  0  0
  8  7  1  0  0  0  0
  9 18  1  0  0  0  0
  9 10  2  0  0  0  0
 11  2  1  0  0  0  0
 12 16  2  0  0  0  0
 12  5  1  0  0  0  0
 13 14  1  0  0  0  0
 13  3  2  0  0  0  0
 15  9  1  0  0  0  0
 17 19  1  6  0  0  0
 17 11  1  0  0  0  0
 17 15  1  0  0  0  0
 18  6  2  0  0  0  0
 20 19  1  0  0  0  0
 21 20  1  0  0  0  0
 22 21  1  0  0  0  0
 23 24  1  0  0  0  0
 23 25  1  0  0  0  0
 23 22  1  0  0  0  0
M  END
>  <MODEL>
3

>  <REMARK>
 VINA RESULT:     -10.1      0.887      1.020
  Name = 
  5 active torsions:
  status: ('A' for Active; 'I' for Inactive)
    1  A    between atoms: C_2  and  C_21
    2  A    between atoms: O_6  and  C_15
    3  A    between atoms: O_6  and  C_23
    4  A    between atoms: C_15  and  C_25
    5  A    between atoms: C_21  and  C_25
                            x       y       z     vdW  Elec       q    Type
                         _______ _______ _______ _____ _____    ______ ____

>  <TORSDO>
F 5

$$$$
=
 OpenBabel10262419433D

 25 28  0  0  1  0  0  0  0  0999 V2000
  185.6170  178.2240  144.5680 C   0  0  0  0  0  0  0  0  0  0  0  0
  186.9450  177.7980  144.4670 C   0  0  0  0  0  0  0  0  0  0  0  0
  185.7950  178.5710  146.9550 C   0  0  0  0  0  3  0  0  0  0  0  0
  184.6170  178.3750  143.6390 C   0  0  1  0  0  3  0  0  0  0  0  0
  182.2490  178.8800  142.2980 C   0  0  0  0  0  3  0  0  0  0  0  0
  187.1290  178.1390  146.8890 C   0  0  0  0  0  3  0  0  0  0  0  0
  183.5170  178.8340  144.3330 C   0  0  0  0  0  0  0  0  0  0  0  0
  182.3110  179.0980  143.6860 C   0  0  0  0  0  3  0  0  0  0  0  0
  189.1210  177.3070  145.6130 C   0  0  0  0  0  0  0  0  0  0  0  0
  189.8160  177.2790  146.6640 O   0  0  0  0  0  0  0  0  0  0  0  0
  187.5170  177.3410  143.1540 C   0  0  0  0  0  2  0  0  0  0  0  0
  183.3780  178.4110  141.5920 C   0  0  0  0  0  3  0  0  0  0  0  0
  185.0590  178.6030  145.7740 C   0  0  0  0  0  0  0  0  0  0  0  0
  183.7660  178.9830  145.6530 N   0  0  0  0  0  0  0  0  0  0  0  0
  189.7310  176.8450  144.3250 C   0  0  0  0  0  2  0  0  0  0  0  0
  184.5860  178.1500  142.2630 C   0  0  0  0  0  3  0  0  0  0  0  0
  189.0430  177.5100  143.1260 C   0  0  1  0  0  3  0  0  0  0  0  0
  187.7100  177.7460  145.6610 C   0  0  0  0  0  0  0  0  0  0  0  0
  189.6180  177.1470  141.8880 O   0  0  0  0  0  0  0  0  0  0  0  0
  188.8060  177.6260  140.8440 C   0  0  0  0  0  2  0  0  0  0  0  0
  189.6110  177.7220  139.5580 C   0  0  0  0  0  2  0  0  0  0  0  0
  188.8080  177.2130  138.3690 C   0  0  0  0  0  2  0  0  0  0  0  0
  188.1870  178.3630  137.5930 C   0  0  0  0  0  3  0  0  0  0  0  0
  188.9690  179.5060  137.7550 O   0  0  0  0  0  1  0  0  0  0  0  0
  186.8990  178.6140  138.0650 O   0  0  0  0  0  1  0  0  0  0  0  0
  1 13  1  0  0  0  0
  2  1  2  0  0  0  0
  2 18  1  0  0  0  0
  4 16  1  6  0  0  0
  4  7  1  0  0  0  0
  4  1  1  0  0  0  0
  5  8  2  0  0  0  0
  6  3  1  0  0  0  0
  7 14  2  0  0  0  0
  8  7  1  0  0  0  0
  9 18  1  0  0  0  0
  9 10  2  0  0  0  0
 11  2  1  0  0  0  0
 12 16  2  0  0  0  0
 12  5  1  0  0  0  0
 13  3  2  0  0  0  0
 14 13  1  0  0  0  0
 15  9  1  0  0  0  0
 17 19  1  6  0  0  0
 17 11  1  0  0  0  0
 17 15  1  0  0  0  0
 18  6  2  0  0  0  0
 20 19  1  0  0  0  0
 21 20  1  0  0  0  0
 22 21  1  0  0  0  0
 23 24  1  0  0  0  0
 23 25  1  0  0  0  0
 23 22  1  0  0  0  0
M  END
>  <MODEL>
4

>  <REMARK>
 VINA RESULT:      -9.6      1.428      2.193
  Name = 
  5 active torsions:
  status: ('A' for Active; 'I' for Inactive)
    1  A    between atoms: C_2  and  C_21
    2  A    between atoms: O_6  and  C_15
    3  A    between atoms: O_6  and  C_23
    4  A    between atoms: C_15  and  C_25
    5  A    between atoms: C_21  and  C_25
                            x       y       z     vdW  Elec       q    Type
                         _______ _______ _______ _____ _____    ______ ____

>  <TORSDO>
F 5

$$$$
=
 OpenBabel10262419433D

 25 28  0  0  1  0  0  0  0  0999 V2000
  189.3850  177.4370  144.5410 C   0  0  0  0  0  0  0  0  0  0  0  0
  189.1390  177.4920  143.1650 C   0  0  0  0  0  0  0  0  0  0  0  0
  191.7000  176.8190  144.2140 C   0  0  0  0  0  3  0  0  0  0  0  0
  188.5850  177.6550  145.6360 C   0  0  1  0  0  3  0  0  0  0  0  0
  187.5350  177.9530  148.1800 C   0  0  0  0  0  3  0  0  0  0  0  0
  191.4840  176.8570  142.8270 C   0  0  0  0  0  3  0  0  0  0  0  0
  189.3870  177.4530  146.7400 C   0  0  0  0  0  0  0  0  0  0  0  0
  188.8880  177.5960  148.0340 C   0  0  0  0  0  3  0  0  0  0  0  0
  190.0150  177.2310  140.8300 C   0  0  0  0  0  0  0  0  0  0  0  0
  190.9700  176.9810  140.0470 O   0  0  0  0  0  0  0  0  0  0  0  0
  187.7670  177.7950  142.6320 C   0  0  0  0  0  2  0  0  0  0  0  0
  186.7190  178.1590  147.0460 C   0  0  0  0  0  3  0  0  0  0  0  0
  190.6270  177.1130  145.0510 C   0  0  0  0  0  0  0  0  0  0  0  0
  190.6520  177.1180  146.4040 N   0  0  0  0  0  0  0  0  0  0  0  0
  188.6640  177.5300  140.2570 C   0  0  0  0  0  2  0  0  0  0  0  0
  187.2420  178.0100  145.7500 C   0  0  0  0  0  3  0  0  0  0  0  0
  187.8410  178.3950  141.2210 C   0  0  1  0  0  3  0  0  0  0  0  0
  190.2160  177.1830  142.2940 C   0  0  0  0  0  0  0  0  0  0  0  0
  186.5760  178.7490  140.7020 O   0  0  0  0  0  0  0  0  0  0  0  0
  185.8230  179.3770  141.7110 C   0  0  0  0  0  2  0  0  0  0  0  0
  184.5240  178.6210  141.9410 C   0  0  0  0  0  2  0  0  0  0  0  0
  184.3380  178.2880  143.4150 C   0  0  0  0  0  2  0  0  0  0  0  0
  183.5190  179.3570  144.1200 C   0  0  0  0  0  3  0  0  0  0  0  0
  183.5640  179.1410  145.4970 O   0  0  0  0  0  1  0  0  0  0  0  0
  182.1950  179.3040  143.6870 O   0  0  0  0  0  1  0  0  0  0  0  0
  1 13  2  0  0  0  0
  1  4  1  0  0  0  0
  2  1  1  0  0  0  0
  3 13  1  0  0  0  0
  4 16  1  6  0  0  0
  4  7  1  0  0  0  0
  6  3  2  0  0  0  0
  7  8  1  0  0  0  0
  8  5  2  0  0  0  0
  9 18  1  0  0  0  0
 10  9  2  0  0  0  0
 11  2  1  0  0  0  0
 12  5  1  0  0  0  0
 13 14  1  0  0  0  0
 14  7  2  0  0  0  0
 15  9  1  0  0  0  0
 15 17  1  0  0  0  0
 16 12  2  0  0  0  0
 17 19  1  6  0  0  0
 17 11  1  0  0  0  0
 18  6  1  0  0  0  0
 18  2  2  0  0  0  0
 19 20  1  0  0  0  0
 20 21  1  0  0  0  0
 21 22  1  0  0  0  0
 22 23  1  0  0  0  0
 23 24  1  0  0  0  0
 25 23  1  0  0  0  0
M  END
>  <MODEL>
5

>  <REMARK>
 VINA RESULT:      -9.5      2.416      5.245
  Name = 
  5 active torsions:
  status: ('A' for Active; 'I' for Inactive)
    1  A    between atoms: C_2  and  C_21
    2  A    between atoms: O_6  and  C_15
    3  A    between atoms: O_6  and  C_23
    4  A    between atoms: C_15  and  C_25
    5  A    between atoms: C_21  and  C_25
                            x       y       z     vdW  Elec       q    Type
                         _______ _______ _______ _____ _____    ______ ____

>  <TORSDO>
F 5

$$$$
=
 OpenBabel10262419433D

 25 28  0  0  1  0  0  0  0  0999 V2000
  187.1100  178.1090  142.7670 C   0  0  0  0  0  0  0  0  0  0  0  0
  186.4860  178.1460  144.0180 C   0  0  0  0  0  0  0  0  0  0  0  0
  185.2160  179.1370  141.6690 C   0  0  0  0  0  3  0  0  0  0  0  0
  188.3380  177.6520  142.3550 C   0  0  0  0  0  0  0  0  0  0  0  0
  190.5990  176.9390  140.9270 C   0  0  0  0  0  3  0  0  0  0  0  0
  184.5580  179.1810  142.9090 C   0  0  0  0  0  3  0  0  0  0  0  0
  188.3960  177.8840  140.9970 C   0  0  0  0  0  0  0  0  0  0  0  0
  189.5200  177.5370  140.2500 C   0  0  0  0  0  2  0  0  0  0  0  0
  184.4690  178.7540  145.3780 C   0  0  0  0  0  0  0  0  0  0  0  0
  183.3130  179.2520  145.4500 O   0  0  0  0  0  0  0  0  0  0  0  0
  187.1510  177.5680  145.2360 C   0  0  0  0  0  2  0  0  0  0  0  0
  190.5350  176.7030  142.3170 C   0  0  0  0  0  3  0  0  0  0  0  0
  186.4960  178.5930  141.6270 C   0  0  0  0  0  0  0  0  0  0  0  0
  187.2700  178.4650  140.5250 N   0  0  0  0  0  0  0  0  0  0  0  0
  185.0960  178.1910  146.6160 C   0  0  0  0  0  2  0  0  0  0  0  0
  189.3910  177.0610  143.0530 C   0  0  0  0  0  3  0  0  0  0  0  0
  186.6270  178.2280  146.5190 C   0  0  1  0  0  3  0  0  0  0  0  0
  185.1750  178.6860  144.0810 C   0  0  0  0  0  0  0  0  0  0  0  0
  187.2660  177.7550  147.6870 O   0  0  0  0  0  0  0  0  0  0  0  0
  188.3180  176.8960  147.3200 C   0  0  0  0  0  2  0  0  0  0  0  0
  189.6540  177.5950  147.5120 C   0  0  0  0  0  2  0  0  0  0  0  0
  190.7300  176.9720  146.6330 C   0  0  0  0  0  2  0  0  0  0  0  0
  191.6270  176.0450  147.4370 C   0  0  0  0  0  3  0  0  0  0  0  0
  192.4680  176.8040  148.2490 O   0  0  0  0  0  1  0  0  0  0  0  0
  192.3970  175.2650  146.5750 O   0  0  0  0  0  1  0  0  0  0  0  0
  1  2  2  0  0  0  0
  2 18  1  0  0  0  0
  2 11  1  0  0  0  0
  3  6  1  0  0  0  0
  4  1  1  0  0  0  0
  4 16  2  0  0  0  0
  5 12  2  0  0  0  0
  6 18  2  0  0  0  0
  7  4  1  0  0  0  0
  8  5  1  0  0  0  0
  8  7  1  0  0  0  0
  9 10  2  0  0  0  0
  9 15  1  0  0  0  0
 11 17  1  0  0  0  0
 12 16  1  0  0  0  0
 13  3  2  0  0  0  0
 13  1  1  0  0  0  0
 14  7  2  0  0  0  0
 14 13  1  0  0  0  0
 17 15  1  0  0  0  0
 17 19  1  1  0  0  0
 18  9  1  0  0  0  0
 20 21  1  0  0  0  0
 20 19  1  0  0  0  0
 22 23  1  0  0  0  0
 22 21  1  0  0  0  0
 23 24  1  0  0  0  0
 25 23  1  0  0  0  0
M  END
>  <MODEL>
6

>  <REMARK>
 VINA RESULT:      -9.3      2.936      6.542
  Name = 
  5 active torsions:
  status: ('A' for Active; 'I' for Inactive)
    1  A    between atoms: C_2  and  C_21
    2  A    between atoms: O_6  and  C_15
    3  A    between atoms: O_6  and  C_23
    4  A    between atoms: C_15  and  C_25
    5  A    between atoms: C_21  and  C_25
                            x       y       z     vdW  Elec       q    Type
                         _______ _______ _______ _____ _____    ______ ____

>  <TORSDO>
F 5

$$$$
=
 OpenBabel10262419433D

 25 28  0  0  1  0  0  0  0  0999 V2000
  189.5230  177.4490  144.1950 C   0  0  0  0  0  0  0  0  0  0  0  0
  188.5840  177.6970  145.2020 C   0  0  0  0  0  0  0  0  0  0  0  0
  191.2370  176.8450  145.7900 C   0  0  0  0  0  3  0  0  0  0  0  0
  189.4600  177.5310  142.8250 C   0  0  0  0  0  0  0  0  0  0  0  0
  189.9680  177.4930  140.1050 C   0  0  0  0  0  3  0  0  0  0  0  0
  190.3210  177.0940  146.8250 C   0  0  0  0  0  3  0  0  0  0  0  0
  190.7050  177.1610  142.3630 C   0  0  0  0  0  0  0  0  0  0  0  0
  190.9920  177.1310  140.9990 C   0  0  0  0  0  2  0  0  0  0  0  0
  188.0510  177.7670  147.6500 C   0  0  0  0  0  0  0  0  0  0  0  0
  188.4050  177.5940  148.8480 O   0  0  0  0  0  0  0  0  0  0  0  0
  187.2070  178.2000  144.8720 C   0  0  0  0  0  2  0  0  0  0  0  0
  188.6950  177.8710  140.5840 C   0  0  0  0  0  3  0  0  0  0  0  0
  190.8100  177.0330  144.4790 C   0  0  0  0  0  0  0  0  0  0  0  0
  191.5560  176.8480  143.3650 N   0  0  0  0  0  0  0  0  0  0  0  0
  186.6680  178.2670  147.3670 C   0  0  0  0  0  2  0  0  0  0  0  0
  188.4260  177.8940  141.9630 C   0  0  0  0  0  3  0  0  0  0  0  0
  186.2030  177.8260  145.9720 C   0  0  1  0  0  3  0  0  0  0  0  0
  189.0030  177.5240  146.5460 C   0  0  0  0  0  0  0  0  0  0  0  0
  184.8810  178.2290  145.6780 O   0  0  0  0  0  0  0  0  0  0  0  0
  184.9190  179.3230  144.7940 C   0  0  0  0  0  2  0  0  0  0  0  0
  183.9360  179.1070  143.6550 C   0  0  0  0  0  2  0  0  0  0  0  0
  184.5660  178.2920  142.5340 C   0  0  0  0  0  2  0  0  0  0  0  0
  184.1790  178.8420  141.1700 C   0  0  0  0  0  3  0  0  0  0  0  0
  183.6580  177.8130  140.3870 O   0  0  0  0  0  1  0  0  0  0  0  0
  185.3000  179.3800  140.5400 O   0  0  0  0  0  1  0  0  0  0  0  0
  1 13  1  0  0  0  0
  1  2  2  0  0  0  0
  2 18  1  0  0  0  0
  3  6  1  0  0  0  0
  4  1  1  0  0  0  0
  5 12  2  0  0  0  0
  5  8  1  0  0  0  0
  7  4  1  0  0  0  0
  7 14  2  0  0  0  0
  8  7  1  0  0  0  0
  9 10  2  0  0  0  0
 11  2  1  0  0  0  0
 11 17  1  0  0  0  0
 12 16  1  0  0  0  0
 13  3  2  0  0  0  0
 14 13  1  0  0  0  0
 15  9  1  0  0  0  0
 16  4  2  0  0  0  0
 17 19  1  6  0  0  0
 17 15  1  0  0  0  0
 18  6  2  0  0  0  0
 18  9  1  0  0  0  0
 20 19  1  0  0  0  0
 21 20  1  0  0  0  0
 22 21  1  0  0  0  0
 23 22  1  0  0  0  0
 24 23  1  0  0  0  0
 25 23  1  0  0  0  0
M  END
>  <MODEL>
7

>  <REMARK>
 VINA RESULT:      -9.2      2.417      4.967
  Name = 
  5 active torsions:
  status: ('A' for Active; 'I' for Inactive)
    1  A    between atoms: C_2  and  C_21
    2  A    between atoms: O_6  and  C_15
    3  A    between atoms: O_6  and  C_23
    4  A    between atoms: C_15  and  C_25
    5  A    between atoms: C_21  and  C_25
                            x       y       z     vdW  Elec       q    Type
                         _______ _______ _______ _____ _____    ______ ____

>  <TORSDO>
F 5

$$$$
=
 OpenBabel10262419433D

 25 28  0  0  1  0  0  0  0  0999 V2000
  187.8320  177.8290  145.6430 C   0  0  0  0  0  0  0  0  0  0  0  0
  186.9840  178.2530  144.6150 C   0  0  0  0  0  0  0  0  0  0  0  0
  186.1210  178.1290  147.3260 C   0  0  0  0  0  3  0  0  0  0  0  0
  189.1400  177.4080  145.6550 C   0  0  0  0  0  0  0  0  0  0  0  0
  191.6630  176.4980  146.3360 C   0  0  0  0  0  3  0  0  0  0  0  0
  185.2480  178.5680  146.3180 C   0  0  0  0  0  3  0  0  0  0  0  0
  189.4350  177.1160  146.9700 C   0  0  0  0  0  0  0  0  0  0  0  0
  190.6960  176.6550  147.3450 C   0  0  0  0  0  3  0  0  0  0  0  0
  184.7260  179.0930  143.9220 C   0  0  0  0  0  0  0  0  0  0  0  0
  183.5460  179.4180  144.2220 O   0  0  0  0  0  0  0  0  0  0  0  0
  187.4760  178.3640  143.1990 C   0  0  0  0  0  2  0  0  0  0  0  0
  191.3560  176.7980  144.9910 C   0  0  0  0  0  3  0  0  0  0  0  0
  187.4130  177.7650  146.9590 C   0  0  2  0  0  3  0  0  0  0  0  0
  188.3840  177.3280  147.7940 N   0  0  0  0  0  0  0  0  0  0  0  0
  185.1740  179.2160  142.4980 C   0  0  0  0  0  2  0  0  0  0  0  0
  190.0770  177.2610  144.6340 C   0  0  0  0  0  3  0  0  0  0  0  0
  186.3180  178.2380  142.1990 C   0  0  1  0  0  3  0  0  0  0  0  0
  185.6670  178.6400  144.9690 C   0  0  0  0  0  0  0  0  0  0  0  0
  186.7410  178.2790  140.8520 O   0  0  0  0  0  0  0  0  0  0  0  0
  188.1180  178.5650  140.8100 C   0  0  0  0  0  2  0  0  0  0  0  0
  188.6810  178.2230  139.4400 C   0  0  0  0  0  2  0  0  0  0  0  0
  189.8350  177.2370  139.5520 C   0  0  0  0  0  2  0  0  0  0  0  0
  190.4280  177.2420  140.9520 C   0  0  0  0  0  3  0  0  0  0  0  0
  191.7960  177.5030  140.8740 O   0  0  0  0  0  1  0  0  0  0  0  0
  190.2270  176.0020  141.5570 O   0  0  0  0  0  1  0  0  0  0  0  0
  1  4  2  0  0  0  0
  1 13  1  0  0  0  0
  2 18  2  0  0  0  0
  2  1  1  0  0  0  0
  4  7  1  0  0  0  0
  5  8  2  0  0  0  0
  6  3  2  0  0  0  0
  7  8  1  0  0  0  0
  7 14  2  0  0  0  0
  9 10  2  0  0  0  0
  9 18  1  0  0  0  0
 11  2  1  0  0  0  0
 12  5  1  0  0  0  0
 13  3  1  1  0  0  0
 13 14  1  0  0  0  0
 15  9  1  0  0  0  0
 16 12  2  0  0  0  0
 16  4  1  0  0  0  0
 17 19  1  6  0  0  0
 17 15  1  0  0  0  0
 17 11  1  0  0  0  0
 18  6  1  0  0  0  0
 20 19  1  0  0  0  0
 21 22  1  0  0  0  0
 21 20  1  0  0  0  0
 22 23  1  0  0  0  0
 23 25  1  0  0  0  0
 24 23  1  0  0  0  0
M  END
>  <MODEL>
8

>  <REMARK>
 VINA RESULT:      -9.0      1.813      4.844
  Name = 
  5 active torsions:
  status: ('A' for Active; 'I' for Inactive)
    1  A    between atoms: C_2  and  C_21
    2  A    between atoms: O_6  and  C_15
    3  A    between atoms: O_6  and  C_23
    4  A    between atoms: C_15  and  C_25
    5  A    between atoms: C_21  and  C_25
                            x       y       z     vdW  Elec       q    Type
                         _______ _______ _______ _____ _____    ______ ____

>  <TORSDO>
F 5

$$$$
=
 OpenBabel10262419433D

 25 28  0  0  1  0  0  0  0  0999 V2000
  189.3780  177.4580  144.5760 C   0  0  0  0  0  0  0  0  0  0  0  0
  189.1110  177.5430  143.2060 C   0  0  0  0  0  0  0  0  0  0  0  0
  191.6840  176.8330  144.1990 C   0  0  0  0  0  3  0  0  0  0  0  0
  188.5980  177.6590  145.6890 C   0  0  1  0  0  3  0  0  0  0  0  0
  187.5910  177.9110  148.2540 C   0  0  0  0  0  3  0  0  0  0  0  0
  191.4460  176.9010  142.8170 C   0  0  0  0  0  3  0  0  0  0  0  0
  189.4160  177.4300  146.7750 C   0  0  0  0  0  0  0  0  0  0  0  0
  188.9390  177.5490  148.0790 C   0  0  0  0  0  3  0  0  0  0  0  0
  189.9470  177.3240  140.8520 C   0  0  0  0  0  0  0  0  0  0  0  0
  190.8880  177.0840  140.0490 O   0  0  0  0  0  0  0  0  0  0  0  0
  187.7320  177.8650  142.7020 C   0  0  0  0  0  2  0  0  0  0  0  0
  186.7580  178.1450  147.1390 C   0  0  0  0  0  3  0  0  0  0  0  0
  190.6270  177.1170  145.0590 C   0  0  0  0  0  0  0  0  0  0  0  0
  190.6740  177.0930  146.4120 N   0  0  0  0  0  0  0  0  0  0  0  0
  188.5890  177.6430  140.3070 C   0  0  0  0  0  2  0  0  0  0  0  0
  187.2590  178.0200  145.8310 C   0  0  0  0  0  3  0  0  0  0  0  0
  187.7870  178.4930  141.3010 C   0  0  1  0  0  3  0  0  0  0  0  0
  190.1710  177.2460  142.3110 C   0  0  0  0  0  0  0  0  0  0  0  0
  186.5160  178.8650  140.8110 O   0  0  0  0  0  0  0  0  0  0  0  0
  185.6450  179.0730  141.8960 C   0  0  0  0  0  2  0  0  0  0  0  0
  184.2420  178.6150  141.5350 C   0  0  0  0  0  2  0  0  0  0  0  0
  184.1310  178.3070  140.0480 C   0  0  0  0  0  2  0  0  0  0  0  0
  183.3580  179.3950  139.3180 C   0  0  0  0  0  3  0  0  0  0  0  0
  182.9040  178.9000  138.0970 O   0  0  0  0  0  1  0  0  0  0  0  0
  184.1850  180.4950  139.0930 O   0  0  0  0  0  1  0  0  0  0  0  0
  1 13  2  0  0  0  0
  1  4  1  0  0  0  0
  2  1  1  0  0  0  0
  3 13  1  0  0  0  0
  4 16  1  1  0  0  0
  4  7  1  0  0  0  0
  6  3  2  0  0  0  0
  7  8  1  0  0  0  0
  8  5  2  0  0  0  0
  9 18  1  0  0  0  0
 10  9  2  0  0  0  0
 11  2  1  0  0  0  0
 12  5  1  0  0  0  0
 13 14  1  0  0  0  0
 14  7  2  0  0  0  0
 15  9  1  0  0  0  0
 15 17  1  0  0  0  0
 16 12  2  0  0  0  0
 17 19  1  6  0  0  0
 17 11  1  0  0  0  0
 18  6  1  0  0  0  0
 18  2  2  0  0  0  0
 19 20  1  0  0  0  0
 21 20  1  0  0  0  0
 22 21  1  0  0  0  0
 23 22  1  0  0  0  0
 24 23  1  0  0  0  0
 25 23  1  0  0  0  0
M  END
>  <MODEL>
9

>  <REMARK>
 VINA RESULT:      -8.9      2.370      4.907
  Name = 
  5 active torsions:
  status: ('A' for Active; 'I' for Inactive)
    1  A    between atoms: C_2  and  C_21
    2  A    between atoms: O_6  and  C_15
    3  A    between atoms: O_6  and  C_23
    4  A    between atoms: C_15  and  C_25
    5  A    between atoms: C_21  and  C_25
                            x       y       z     vdW  Elec       q    Type
                         _______ _______ _______ _____ _____    ______ ____

>  <TORSDO>
F 5

$$$$
