=
 OpenBabel10262419433D

 25 28  0  0  1  0  0  0  0  0999 V2000
  187.7030  178.0280  145.5840 C   0  0  0  0  0  0  0  0  0  0  0  0
  188.9990  177.6020  145.2940 C   0  0  0  0  0  0  0  0  0  0  0  0
  187.9320  177.4100  147.9100 C   0  0  0  0  0  3  0  0  0  0  0  0
  186.6950  178.7050  144.7280 C   0  0  2  0  0  3  0  0  0  0  0  0
  183.9050  178.5860  144.0240 C   0  0  0  0  0  3  0  0  0  0  0  0
  189.2350  176.9570  147.6440 C   0  0  0  0  0  3  0  0  0  0  0  0
  185.5740  178.8380  145.7270 C   0  0  0  0  0  0  0  0  0  0  0  0
  184.1980  179.0160  145.2570 C   0  0  0  0  0  3  0  0  0  0  0  0
  191.0780  176.6260  146.0370 C   0  0  0  0  0  0  0  0  0  0  0  0
  191.9710  176.0360  147.0770 C   0  0  0  0  0  1  0  0  0  0  0  0
  189.5160  177.7100  144.0430 N   0  0  0  0  0  0  0  0  0  0  0  0
  184.9310  177.9060  143.1880 C   0  0  0  0  0  3  0  0  0  0  0  0
  187.1970  177.9550  146.8590 C   0  0  0  0  0  0  0  0  0  0  0  0
  185.8590  178.4240  146.9230 N   0  0  0  0  0  0  0  0  0  0  0  0
  191.5460  176.7550  144.7670 N   0  0  0  0  0  0  0  0  0  0  0  0
  186.2270  177.9010  143.5420 C   0  0  0  0  0  3  0  0  0  0  0  0
  190.7780  177.2830  143.7760 C   0  0  0  0  0  0  0  0  0  0  0  0
  189.7770  177.0520  146.3410 C   0  0  0  0  0  0  0  0  0  0  0  0
  191.3350  177.4330  142.4060 C   0  0  0  0  0  2  0  0  0  0  0  0
  190.5160  176.6810  141.4590 N   0  0  0  0  0  2  0  0  0  0  0  0
  190.0590  177.5400  140.3630 C   0  0  2  0  0  3  0  0  0  0  0  0
  188.6230  178.0140  140.5540 C   0  0  0  0  0  1  0  0  0  0  0  0
  190.2940  176.9240  139.0170 C   0  0  0  0  0  0  0  0  0  0  0  0
  190.7930  175.6310  138.9350 O   0  0  0  0  0  1  0  0  0  0  0  0
  190.0120  177.5520  137.9620 O   0  0  0  0  0  0  0  0  0  0  0  0
  1 13  1  0  0  0  0
  2  1  2  0  0  0  0
  2 18  1  0  0  0  0
  4 16  1  6  0  0  0
  4  1  1  0  0  0  0
  4  7  1  0  0  0  0
  5  8  2  0  0  0  0
  6  3  1  0  0  0  0
  7 14  2  0  0  0  0
  8  7  1  0  0  0  0
  9 18  1  0  0  0  0
  9 10  1  0  0  0  0
 11  2  1  0  0  0  0
 12 16  2  0  0  0  0
 12  5  1  0  0  0  0
 13 14  1  0  0  0  0
 13  3  2  0  0  0  0
 15  9  2  0  0  0  0
 17 11  2  0  0  0  0
 17 15  1  0  0  0  0
 18  6  2  0  0  0  0
 19 17  1  0  0  0  0
 20 19  1  0  0  0  0
 21 22  1  1  0  0  0
 21 20  1  0  0  0  0
 23 21  1  0  0  0  0
 24 23  1  0  0  0  0
 25 23  2  0  0  0  0
M  END
>  <MODEL>
1

>  <REMARK>
 VINA RESULT:      -9.5      0.000      0.000
  Name = 
  4 active torsions:
  status: ('A' for Active; 'I' for Inactive)
    1  A    between atoms: C_2  and  CA_21
    2  A    between atoms: C_6  and  N_15
    3  A    between atoms: C_6  and  C_23
    4  A    between atoms: N_15  and  CA_21
                            x       y       z     vdW  Elec       q    Type
                         _______ _______ _______ _____ _____    ______ ____

>  <TORSDO>
F 4

$$$$
=
 OpenBabel10262419433D

 25 28  0  0  1  0  0  0  0  0999 V2000
  187.5740  177.6430  145.2320 C   0  0  0  0  0  0  0  0  0  0  0  0
  186.6890  178.0920  144.2510 C   0  0  0  0  0  0  0  0  0  0  0  0
  186.0080  178.1600  146.9990 C   0  0  0  0  0  3  0  0  0  0  0  0
  188.9060  176.9960  145.1070 C   0  0  2  0  0  3  0  0  0  0  0  0
  191.5730  177.1230  146.1870 C   0  0  0  0  0  3  0  0  0  0  0  0
  185.1030  178.6350  146.0350 C   0  0  0  0  0  3  0  0  0  0  0  0
  189.2260  176.8100  146.5690 C   0  0  0  0  0  0  0  0  0  0  0  0
  190.6180  176.6410  146.9930 C   0  0  0  0  0  3  0  0  0  0  0  0
  184.5530  179.0520  143.6650 C   0  0  0  0  0  0  0  0  0  0  0  0
  183.2080  179.6030  144.0030 C   0  0  0  0  0  1  0  0  0  0  0  0
  187.0100  178.0430  142.9330 N   0  0  0  0  0  0  0  0  0  0  0  0
  191.2220  177.8480  144.9360 C   0  0  0  0  0  3  0  0  0  0  0  0
  187.2310  177.6550  146.5620 C   0  0  0  0  0  0  0  0  0  0  0  0
  188.2830  177.1730  147.3830 N   0  0  0  0  0  0  0  0  0  0  0  0
  184.9260  178.9830  142.3600 N   0  0  0  0  0  0  0  0  0  0  0  0
  189.9660  177.8480  144.4580 C   0  0  0  0  0  3  0  0  0  0  0  0
  186.1400  178.4920  141.9920 C   0  0  0  0  0  0  0  0  0  0  0  0
  185.4340  178.6020  144.6610 C   0  0  0  0  0  0  0  0  0  0  0  0
  186.4990  178.4080  140.5520 C   0  0  0  0  0  2  0  0  0  0  0  0
  187.8860  178.8250  140.3670 N   0  0  0  0  0  2  0  0  0  0  0  0
  188.6670  177.7750  139.7070 C   0  0  2  0  0  3  0  0  0  0  0  0
  189.6950  177.1410  140.6370 C   0  0  0  0  0  1  0  0  0  0  0  0
  189.2620  178.2340  138.4100 C   0  0  0  0  0  0  0  0  0  0  0  0
  188.9210  179.4820  137.9060 O   0  0  0  0  0  1  0  0  0  0  0  0
  190.0910  177.5160  137.7900 O   0  0  0  0  0  0  0  0  0  0  0  0
  1 13  1  0  0  0  0
  2 18  1  0  0  0  0
  2  1  2  0  0  0  0
  4 16  1  1  0  0  0
  4  1  1  0  0  0  0
  4  7  1  0  0  0  0
  5  8  2  0  0  0  0
  6  3  1  0  0  0  0
  7  8  1  0  0  0  0
  7 14  2  0  0  0  0
  9 10  1  0  0  0  0
  9 18  1  0  0  0  0
 11  2  1  0  0  0  0
 12  5  1  0  0  0  0
 13  3  2  0  0  0  0
 13 14  1  0  0  0  0
 15  9  2  0  0  0  0
 16 12  2  0  0  0  0
 17 15  1  0  0  0  0
 17 11  2  0  0  0  0
 18  6  2  0  0  0  0
 19 17  1  0  0  0  0
 20 19  1  0  0  0  0
 21 20  1  0  0  0  0
 21 22  1  1  0  0  0
 23 21  1  0  0  0  0
 24 23  1  0  0  0  0
 25 23  2  0  0  0  0
M  END
>  <MODEL>
2

>  <REMARK>
 VINA RESULT:      -9.3      1.776      4.793
  Name = 
  4 active torsions:
  status: ('A' for Active; 'I' for Inactive)
    1  A    between atoms: C_2  and  CA_21
    2  A    between atoms: C_6  and  N_15
    3  A    between atoms: C_6  and  C_23
    4  A    between atoms: N_15  and  CA_21
                            x       y       z     vdW  Elec       q    Type
                         _______ _______ _______ _____ _____    ______ ____

>  <TORSDO>
F 4

$$$$
=
 OpenBabel10262419433D

 25 28  0  0  1  0  0  0  0  0999 V2000
  189.1020  177.1030  143.9210 C   0  0  0  0  0  0  0  0  0  0  0  0
  188.2840  177.4800  144.9860 C   0  0  0  0  0  0  0  0  0  0  0  0
  191.0020  176.7890  145.3830 C   0  0  0  0  0  3  0  0  0  0  0  0
  188.7820  176.8910  142.4850 C   0  0  2  0  0  3  0  0  0  0  0  0
  189.7560  177.5300  139.8510 C   0  0  0  0  0  3  0  0  0  0  0  0
  190.2060  177.1810  146.4730 C   0  0  0  0  0  3  0  0  0  0  0  0
  190.1500  176.5060  141.9840 C   0  0  0  0  0  0  0  0  0  0  0  0
  190.4700  176.6470  140.5610 C   0  0  0  0  0  3  0  0  0  0  0  0
  188.0150  177.9070  147.3460 C   0  0  0  0  0  0  0  0  0  0  0  0
  188.5210  177.9800  148.7490 C   0  0  0  0  0  1  0  0  0  0  0  0
  186.9770  177.7940  144.7970 N   0  0  0  0  0  0  0  0  0  0  0  0
  188.7160  178.3700  140.5030 C   0  0  0  0  0  3  0  0  0  0  0  0
  190.4140  176.7450  144.1200 C   0  0  0  0  0  0  0  0  0  0  0  0
  191.0620  176.4160  142.9020 N   0  0  0  0  0  0  0  0  0  0  0  0
  186.7140  178.2140  147.1020 N   0  0  0  0  0  0  0  0  0  0  0  0
  188.3000  178.1190  141.7560 C   0  0  0  0  0  3  0  0  0  0  0  0
  186.1960  178.1670  145.8440 C   0  0  0  0  0  0  0  0  0  0  0  0
  188.8480  177.5240  146.2840 C   0  0  0  0  0  0  0  0  0  0  0  0
  184.7610  178.4840  145.6210 C   0  0  0  0  0  2  0  0  0  0  0  0
  184.6460  179.7080  144.8340 N   0  0  0  0  0  2  0  0  0  0  0  0
  183.7460  179.5160  143.6930 C   0  0  2  0  0  3  0  0  0  0  0  0
  182.5080  178.7060  144.0580 C   0  0  0  0  0  1  0  0  0  0  0  0
  184.4570  178.9810  142.4870 C   0  0  0  0  0  0  0  0  0  0  0  0
  185.4560  179.7380  141.8900 O   0  0  0  0  0  0  0  0  0  0  0  0
  184.1820  177.8400  142.0300 O   0  0  0  0  0  1  0  0  0  0  0  0
  1 13  2  0  0  0  0
  1  2  1  0  0  0  0
  2 18  2  0  0  0  0
  3  6  2  0  0  0  0
  4 16  1  6  0  0  0
  4  1  1  0  0  0  0
  5 12  1  0  0  0  0
  5  8  2  0  0  0  0
  7  4  1  0  0  0  0
  7 14  2  0  0  0  0
  8  7  1  0  0  0  0
  9 10  1  0  0  0  0
 11  2  1  0  0  0  0
 11 17  2  0  0  0  0
 12 16  2  0  0  0  0
 13  3  1  0  0  0  0
 14 13  1  0  0  0  0
 15  9  2  0  0  0  0
 17 15  1  0  0  0  0
 18  6  1  0  0  0  0
 18  9  1  0  0  0  0
 19 17  1  0  0  0  0
 20 19  1  0  0  0  0
 21 22  1  1  0  0  0
 21 20  1  0  0  0  0
 23 21  1  0  0  0  0
 24 23  2  0  0  0  0
 25 23  1  0  0  0  0
M  END
>  <MODEL>
3

>  <REMARK>
 VINA RESULT:      -9.3      2.318      5.512
  Name = 
  4 active torsions:
  status: ('A' for Active; 'I' for Inactive)
    1  A    between atoms: C_2  and  CA_21
    2  A    between atoms: C_6  and  N_15
    3  A    between atoms: C_6  and  C_23
    4  A    between atoms: N_15  and  CA_21
                            x       y       z     vdW  Elec       q    Type
                         _______ _______ _______ _____ _____    ______ ____

>  <TORSDO>
F 4

$$$$
=
 OpenBabel10262419433D

 25 28  0  0  1  0  0  0  0  0999 V2000
  185.7970  178.5030  144.6360 C   0  0  0  0  0  0  0  0  0  0  0  0
  187.1000  178.0090  144.7100 C   0  0  0  0  0  0  0  0  0  0  0  0
  185.5250  178.3800  147.0350 C   0  0  0  0  0  3  0  0  0  0  0  0
  185.0190  179.0020  143.4720 C   0  0  2  0  0  3  0  0  0  0  0  0
  182.4220  178.7780  142.2480 C   0  0  0  0  0  3  0  0  0  0  0  0
  186.8280  177.8630  147.1390 C   0  0  0  0  0  3  0  0  0  0  0  0
  183.7320  179.3550  144.1720 C   0  0  0  0  0  0  0  0  0  0  0  0
  182.4880  179.4510  143.4040 C   0  0  0  0  0  3  0  0  0  0  0  0
  188.9320  177.1790  146.0450 C   0  0  0  0  0  0  0  0  0  0  0  0
  189.5660  176.8060  147.3440 C   0  0  0  0  0  1  0  0  0  0  0  0
  187.8590  177.8470  143.5970 N   0  0  0  0  0  0  0  0  0  0  0  0
  183.5540  177.9240  141.7960 C   0  0  0  0  0  3  0  0  0  0  0  0
  185.0450  178.7050  145.7670 C   0  0  0  0  0  0  0  0  0  0  0  0
  183.7500  179.1960  145.4600 N   0  0  0  0  0  0  0  0  0  0  0  0
  189.6490  177.0350  144.8990 N   0  0  0  0  0  0  0  0  0  0  0  0
  184.7520  177.9750  142.4020 C   0  0  0  0  0  3  0  0  0  0  0  0
  189.1230  177.3560  143.6860 C   0  0  0  0  0  0  0  0  0  0  0  0
  187.6220  177.6780  145.9830 C   0  0  0  0  0  0  0  0  0  0  0  0
  189.9480  177.2100  142.4590 C   0  0  0  0  0  2  0  0  0  0  0  0
  189.5210  178.1870  141.4620 N   0  0  0  0  0  2  0  0  0  0  0  0
  189.1990  177.5340  140.1900 C   0  0  2  0  0  3  0  0  0  0  0  0
  190.4440  177.1390  139.4050 C   0  0  0  0  0  1  0  0  0  0  0  0
  188.2230  178.3250  139.3720 C   0  0  0  0  0  0  0  0  0  0  0  0
  188.6080  178.8080  138.1280 O   0  0  0  0  0  0  0  0  0  0  0  0
  187.0500  178.5270  139.7840 O   0  0  0  0  0  1  0  0  0  0  0  0
  1  2  2  0  0  0  0
  1 13  1  0  0  0  0
  2 18  1  0  0  0  0
  3  6  1  0  0  0  0
  4 16  1  6  0  0  0
  4  7  1  0  0  0  0
  4  1  1  0  0  0  0
  5  8  2  0  0  0  0
  7 14  2  0  0  0  0
  8  7  1  0  0  0  0
  9 10  1  0  0  0  0
 11 17  2  0  0  0  0
 11  2  1  0  0  0  0
 12  5  1  0  0  0  0
 12 16  2  0  0  0  0
 13  3  2  0  0  0  0
 14 13  1  0  0  0  0
 15  9  2  0  0  0  0
 17 15  1  0  0  0  0
 18  9  1  0  0  0  0
 18  6  2  0  0  0  0
 19 17  1  0  0  0  0
 20 19  1  0  0  0  0
 21 22  1  6  0  0  0
 21 20  1  0  0  0  0
 23 25  1  0  0  0  0
 23 21  1  0  0  0  0
 24 23  2  0  0  0  0
M  END
>  <MODEL>
4

>  <REMARK>
 VINA RESULT:      -9.0      1.554      2.357
  Name = 
  4 active torsions:
  status: ('A' for Active; 'I' for Inactive)
    1  A    between atoms: C_2  and  CA_21
    2  A    between atoms: C_6  and  N_15
    3  A    between atoms: C_6  and  C_23
    4  A    between atoms: N_15  and  CA_21
                            x       y       z     vdW  Elec       q    Type
                         _______ _______ _______ _____ _____    ______ ____

>  <TORSDO>
F 4

$$$$
=
 OpenBabel10262419433D

 25 28  0  0  1  0  0  0  0  0999 V2000
  187.3040  177.7680  143.1410 C   0  0  0  0  0  0  0  0  0  0  0  0
  188.6580  177.4510  143.0270 C   0  0  0  0  0  0  0  0  0  0  0  0
  187.1850  178.4550  140.8260 C   0  0  0  0  0  3  0  0  0  0  0  0
  186.3630  177.5910  144.2770 C   0  0  2  0  0  3  0  0  0  0  0  0
  184.3340  179.0060  145.7520 C   0  0  0  0  0  3  0  0  0  0  0  0
  188.5530  178.1610  140.6860 C   0  0  0  0  0  3  0  0  0  0  0  0
  185.1130  178.1540  143.6500 C   0  0  0  0  0  0  0  0  0  0  0  0
  184.0230  178.6340  144.5040 C   0  0  0  0  0  3  0  0  0  0  0  0
  190.6560  177.3370  141.6780 C   0  0  0  0  0  0  0  0  0  0  0  0
  191.4090  177.5170  140.4020 C   0  0  0  0  0  1  0  0  0  0  0  0
  189.3580  176.9550  144.0780 N   0  0  0  0  0  0  0  0  0  0  0  0
  185.7430  178.9800  146.2280 C   0  0  0  0  0  3  0  0  0  0  0  0
  186.5870  178.2320  142.0640 C   0  0  0  0  0  0  0  0  0  0  0  0
  185.2380  178.5050  142.4070 N   0  0  0  0  0  0  0  0  0  0  0  0
  191.3110  176.8440  142.7630 N   0  0  0  0  0  0  0  0  0  0  0  0
  186.7100  178.3770  145.5150 C   0  0  0  0  0  3  0  0  0  0  0  0
  190.6790  176.6600  143.9530 C   0  0  0  0  0  0  0  0  0  0  0  0
  189.2940  177.6570  141.7790 C   0  0  0  0  0  0  0  0  0  0  0  0
  191.4230  176.0930  145.1080 C   0  0  0  0  0  2  0  0  0  0  0  0
  191.7090  177.1510  146.0730 N   0  0  0  0  0  2  0  0  0  0  0  0
  191.3030  176.7540  147.4240 C   0  0  2  0  0  3  0  0  0  0  0  0
  191.6080  175.2890  147.7170 C   0  0  0  0  0  1  0  0  0  0  0  0
  189.8820  177.1230  147.7270 C   0  0  0  0  0  0  0  0  0  0  0  0
  189.6110  178.3220  148.3720 O   0  0  0  0  0  1  0  0  0  0  0  0
  188.9320  176.3760  147.3730 O   0  0  0  0  0  0  0  0  0  0  0  0
  1  4  1  0  0  0  0
  2  1  1  0  0  0  0
  2 11  1  0  0  0  0
  3 13  1  0  0  0  0
  4 16  1  1  0  0  0
  5 12  1  0  0  0  0
  6  3  2  0  0  0  0
  6 18  1  0  0  0  0
  7  4  1  0  0  0  0
  7  8  1  0  0  0  0
  8  5  2  0  0  0  0
  9 18  1  0  0  0  0
  9 15  2  0  0  0  0
 10  9  1  0  0  0  0
 13 14  1  0  0  0  0
 13  1  2  0  0  0  0
 14  7  2  0  0  0  0
 15 17  1  0  0  0  0
 16 12  2  0  0  0  0
 17 11  2  0  0  0  0
 17 19  1  0  0  0  0
 18  2  2  0  0  0  0
 19 20  1  0  0  0  0
 20 21  1  0  0  0  0
 21 22  1  6  0  0  0
 21 23  1  0  0  0  0
 23 24  1  0  0  0  0
 25 23  2  0  0  0  0
M  END
>  <MODEL>
5

>  <REMARK>
 VINA RESULT:      -8.8      2.977      5.268
  Name = 
  4 active torsions:
  status: ('A' for Active; 'I' for Inactive)
    1  A    between atoms: C_2  and  CA_21
    2  A    between atoms: C_6  and  N_15
    3  A    between atoms: C_6  and  C_23
    4  A    between atoms: N_15  and  CA_21
                            x       y       z     vdW  Elec       q    Type
                         _______ _______ _______ _____ _____    ______ ____

>  <TORSDO>
F 4

$$$$
=
 OpenBabel10262419433D

 25 28  0  0  1  0  0  0  0  0999 V2000
  187.5000  177.7380  144.5530 C   0  0  0  0  0  0  0  0  0  0  0  0
  186.4430  178.1340  143.7340 C   0  0  0  0  0  0  0  0  0  0  0  0
  186.1560  177.9870  146.5470 C   0  0  0  0  0  3  0  0  0  0  0  0
  188.8600  177.2500  144.2060 C   0  0  2  0  0  3  0  0  0  0  0  0
  191.6260  177.6200  144.9190 C   0  0  0  0  0  3  0  0  0  0  0  0
  185.0790  178.4060  145.7490 C   0  0  0  0  0  3  0  0  0  0  0  0
  189.4020  177.0280  145.5950 C   0  0  0  0  0  0  0  0  0  0  0  0
  190.8510  176.9940  145.8140 C   0  0  0  0  0  3  0  0  0  0  0  0
  184.1580  178.8780  143.5090 C   0  0  0  0  0  0  0  0  0  0  0  0
  182.8240  179.2570  144.0620 C   0  0  0  0  0  1  0  0  0  0  0  0
  186.5760  178.1890  142.3840 N   0  0  0  0  0  0  0  0  0  0  0  0
  191.0280  178.3630  143.7780 C   0  0  0  0  0  3  0  0  0  0  0  0
  187.3510  177.6440  145.9160 C   0  0  0  0  0  0  0  0  0  0  0  0
  188.5520  177.2410  146.5520 N   0  0  0  0  0  0  0  0  0  0  0  0
  184.3450  178.9170  142.1630 N   0  0  0  0  0  0  0  0  0  0  0  0
  189.7230  178.2470  143.4770 C   0  0  0  0  0  3  0  0  0  0  0  0
  185.5390  178.5850  141.6010 C   0  0  0  0  0  0  0  0  0  0  0  0
  185.2130  178.4790  144.3430 C   0  0  0  0  0  0  0  0  0  0  0  0
  185.6960  178.6140  140.1240 C   0  0  0  0  0  2  0  0  0  0  0  0
  187.1100  178.4970  139.7790 N   0  0  0  0  0  2  0  0  0  0  0  0
  187.2780  178.0810  138.3830 C   0  0  2  0  0  3  0  0  0  0  0  0
  185.9480  177.7940  137.6960 C   0  0  0  0  0  1  0  0  0  0  0  0
  188.2630  176.9610  138.2350 C   0  0  0  0  0  0  0  0  0  0  0  0
  189.5220  177.0770  138.8090 O   0  0  0  0  0  1  0  0  0  0  0  0
  187.9510  175.9040  137.6250 O   0  0  0  0  0  0  0  0  0  0  0  0
  1 13  1  0  0  0  0
  2 18  1  0  0  0  0
  2  1  2  0  0  0  0
  4 16  1  1  0  0  0
  4  1  1  0  0  0  0
  4  7  1  0  0  0  0
  5  8  2  0  0  0  0
  6  3  1  0  0  0  0
  7  8  1  0  0  0  0
  7 14  2  0  0  0  0
  9 10  1  0  0  0  0
  9 18  1  0  0  0  0
 11  2  1  0  0  0  0
 12  5  1  0  0  0  0
 13  3  2  0  0  0  0
 13 14  1  0  0  0  0
 15  9  2  0  0  0  0
 16 12  2  0  0  0  0
 17 15  1  0  0  0  0
 17 11  2  0  0  0  0
 18  6  2  0  0  0  0
 19 17  1  0  0  0  0
 20 19  1  0  0  0  0
 21 22  1  1  0  0  0
 21 20  1  0  0  0  0
 23 21  1  0  0  0  0
 23 24  1  0  0  0  0
 25 23  2  0  0  0  0
M  END
>  <MODEL>
6

>  <REMARK>
 VINA RESULT:      -8.8      2.228      5.023
  Name = 
  4 active torsions:
  status: ('A' for Active; 'I' for Inactive)
    1  A    between atoms: C_2  and  CA_21
    2  A    between atoms: C_6  and  N_15
    3  A    between atoms: C_6  and  C_23
    4  A    between atoms: N_15  and  CA_21
                            x       y       z     vdW  Elec       q    Type
                         _______ _______ _______ _____ _____    ______ ____

>  <TORSDO>
F 4

$$$$
=
 OpenBabel10262419433D

 25 28  0  0  1  0  0  0  0  0999 V2000
  187.0160  177.7730  143.8450 C   0  0  0  0  0  0  0  0  0  0  0  0
  186.8690  178.0580  142.4880 C   0  0  0  0  0  0  0  0  0  0  0  0
  184.7420  178.4430  144.3170 C   0  0  0  0  0  3  0  0  0  0  0  0
  188.1540  177.1710  144.5880 C   0  0  2  0  0  3  0  0  0  0  0  0
  189.7260  177.5440  146.9720 C   0  0  0  0  0  3  0  0  0  0  0  0
  184.5700  178.7550  142.9570 C   0  0  0  0  0  3  0  0  0  0  0  0
  187.5730  177.1850  145.9790 C   0  0  0  0  0  0  0  0  0  0  0  0
  188.4640  177.1290  147.1400 C   0  0  0  0  0  3  0  0  0  0  0  0
  185.4910  178.8460  140.6700 C   0  0  0  0  0  0  0  0  0  0  0  0
  184.2160  179.3790  140.1040 C   0  0  0  0  0  1  0  0  0  0  0  0
  187.8840  177.8570  141.6090 N   0  0  0  0  0  0  0  0  0  0  0  0
  190.1820  178.0910  145.6650 C   0  0  0  0  0  3  0  0  0  0  0  0
  185.9750  177.9390  144.7260 C   0  0  0  0  0  0  0  0  0  0  0  0
  186.3480  177.6080  146.0540 N   0  0  0  0  0  0  0  0  0  0  0  0
  186.5400  178.6290  139.8330 N   0  0  0  0  0  0  0  0  0  0  0  0
  189.4260  177.9780  144.5600 C   0  0  0  0  0  3  0  0  0  0  0  0
  187.7260  178.1470  140.2910 C   0  0  0  0  0  0  0  0  0  0  0  0
  185.6260  178.5620  142.0370 C   0  0  0  0  0  0  0  0  0  0  0  0
  188.8410  177.8960  139.3400 C   0  0  0  0  0  2  0  0  0  0  0  0
  189.8350  177.0300  139.9680 N   0  0  0  0  0  2  0  0  0  0  0  0
  191.1400  177.1690  139.3140 C   0  0  2  0  0  3  0  0  0  0  0  0
  191.4300  176.0310  138.3440 C   0  0  0  0  0  1  0  0  0  0  0  0
  192.2510  177.3930  140.2970 C   0  0  0  0  0  0  0  0  0  0  0  0
  193.5570  177.5000  139.8380 O   0  0  0  0  0  0  0  0  0  0  0  0
  192.0090  177.5190  141.5260 O   0  0  0  0  0  1  0  0  0  0  0  0
  1  4  1  0  0  0  0
  1 13  1  0  0  0  0
  2  1  2  0  0  0  0
  3 13  2  0  0  0  0
  4 16  1  1  0  0  0
  4  7  1  0  0  0  0
  5  8  2  0  0  0  0
  6  3  1  0  0  0  0
  7 14  2  0  0  0  0
  7  8  1  0  0  0  0
  9 18  1  0  0  0  0
 10  9  1  0  0  0  0
 11  2  1  0  0  0  0
 12  5  1  0  0  0  0
 13 14  1  0  0  0  0
 15 17  1  0  0  0  0
 15  9  2  0  0  0  0
 16 12  2  0  0  0  0
 17 11  2  0  0  0  0
 18  2  1  0  0  0  0
 18  6  2  0  0  0  0
 19 20  1  0  0  0  0
 19 17  1  0  0  0  0
 21 22  1  1  0  0  0
 21 20  1  0  0  0  0
 21 23  1  0  0  0  0
 23 25  1  0  0  0  0
 24 23  2  0  0  0  0
M  END
>  <MODEL>
7

>  <REMARK>
 VINA RESULT:      -8.6      2.028      4.895
  Name = 
  4 active torsions:
  status: ('A' for Active; 'I' for Inactive)
    1  A    between atoms: C_2  and  CA_21
    2  A    between atoms: C_6  and  N_15
    3  A    between atoms: C_6  and  C_23
    4  A    between atoms: N_15  and  CA_21
                            x       y       z     vdW  Elec       q    Type
                         _______ _______ _______ _____ _____    ______ ____

>  <TORSDO>
F 4

$$$$
=
 OpenBabel10262419433D

 25 28  0  0  1  0  0  0  0  0999 V2000
  186.8450  177.7740  143.2990 C   0  0  0  0  0  0  0  0  0  0  0  0
  188.0170  177.3530  142.6700 C   0  0  0  0  0  0  0  0  0  0  0  0
  186.1370  179.0040  141.3420 C   0  0  0  0  0  3  0  0  0  0  0  0
  186.2880  177.4290  144.6330 C   0  0  2  0  0  3  0  0  0  0  0  0
  185.1070  178.6550  146.9560 C   0  0  0  0  0  3  0  0  0  0  0  0
  187.3170  178.6100  140.6890 C   0  0  0  0  0  3  0  0  0  0  0  0
  185.0280  178.2540  144.5930 C   0  0  0  0  0  0  0  0  0  0  0  0
  184.3620  178.6280  145.8440 C   0  0  0  0  0  3  0  0  0  0  0  0
  189.4420  177.3550  140.7220 C   0  0  0  0  0  0  0  0  0  0  0  0
  189.7800  177.7570  139.3240 C   0  0  0  0  0  1  0  0  0  0  0  0
  188.9080  176.5480  143.3010 N   0  0  0  0  0  0  0  0  0  0  0  0
  186.5660  178.3670  146.9060 C   0  0  0  0  0  3  0  0  0  0  0  0
  185.9240  178.5550  142.6440 C   0  0  0  0  0  0  0  0  0  0  0  0
  184.8200  178.8790  143.4740 N   0  0  0  0  0  0  0  0  0  0  0  0
  190.3030  176.5510  141.4000 N   0  0  0  0  0  0  0  0  0  0  0  0
  187.1380  177.8540  145.8030 C   0  0  0  0  0  3  0  0  0  0  0  0
  190.0490  176.1540  142.6760 C   0  0  0  0  0  0  0  0  0  0  0  0
  188.2590  177.7830  141.3430 C   0  0  0  0  0  0  0  0  0  0  0  0
  191.0010  175.2520  143.3750 C   0  0  0  0  0  2  0  0  0  0  0  0
  191.9470  176.0460  144.1540 N   0  0  0  0  0  2  0  0  0  0  0  0
  191.2480  177.0420  144.9720 C   0  0  2  0  0  3  0  0  0  0  0  0
  191.6800  178.4680  144.6520 C   0  0  0  0  0  1  0  0  0  0  0  0
  191.3160  176.7290  146.4370 C   0  0  0  0  0  0  0  0  0  0  0  0
  190.1610  176.7910  147.2030 O   0  0  0  0  0  1  0  0  0  0  0  0
  192.4020  176.3780  146.9710 O   0  0  0  0  0  0  0  0  0  0  0  0
  1  4  1  0  0  0  0
  2  1  1  0  0  0  0
  2 11  1  0  0  0  0
  3 13  1  0  0  0  0
  4 16  1  1  0  0  0
  6  3  2  0  0  0  0
  6 18  1  0  0  0  0
  7  4  1  0  0  0  0
  7  8  1  0  0  0  0
  8  5  2  0  0  0  0
  9 18  1  0  0  0  0
  9 15  2  0  0  0  0
 10  9  1  0  0  0  0
 12  5  1  0  0  0  0
 13  1  2  0  0  0  0
 13 14  1  0  0  0  0
 14  7  2  0  0  0  0
 15 17  1  0  0  0  0
 16 12  2  0  0  0  0
 17 11  2  0  0  0  0
 17 19  1  0  0  0  0
 18  2  2  0  0  0  0
 19 20  1  0  0  0  0
 20 21  1  0  0  0  0
 21 22  1  1  0  0  0
 21 23  1  0  0  0  0
 23 25  2  0  0  0  0
 23 24  1  0  0  0  0
M  END
>  <MODEL>
8

>  <REMARK>
 VINA RESULT:      -8.6      2.856      4.948
  Name = 
  4 active torsions:
  status: ('A' for Active; 'I' for Inactive)
    1  A    between atoms: C_2  and  CA_21
    2  A    between atoms: C_6  and  N_15
    3  A    between atoms: C_6  and  C_23
    4  A    between atoms: N_15  and  CA_21
                            x       y       z     vdW  Elec       q    Type
                         _______ _______ _______ _____ _____    ______ ____

>  <TORSDO>
F 4

$$$$
=
 OpenBabel10262419433D

 25 28  0  0  1  0  0  0  0  0999 V2000
  189.6350  177.8760  142.4170 C   0  0  0  0  0  0  0  0  0  0  0  0
  188.6360  178.0460  141.4580 C   0  0  0  0  0  0  0  0  0  0  0  0
  191.2350  177.1720  140.7470 C   0  0  0  0  0  3  0  0  0  0  0  0
  189.6340  178.1680  143.8740 C   0  0  2  0  0  3  0  0  0  0  0  0
  190.3770  176.9970  146.3980 C   0  0  0  0  0  3  0  0  0  0  0  0
  190.2440  177.3170  139.7610 C   0  0  0  0  0  3  0  0  0  0  0  0
  191.0370  177.7320  144.2130 C   0  0  0  0  0  0  0  0  0  0  0  0
  191.3760  177.3820  145.5940 C   0  0  0  0  0  3  0  0  0  0  0  0
  187.9320  177.9290  139.1520 C   0  0  0  0  0  0  0  0  0  0  0  0
  188.1670  177.6510  137.7040 C   0  0  0  0  0  1  0  0  0  0  0  0
  187.3960  178.4800  141.7980 N   0  0  0  0  0  0  0  0  0  0  0  0
  188.9860  176.8810  145.8850 C   0  0  0  0  0  3  0  0  0  0  0  0
  190.9010  177.4750  142.0660 C   0  0  0  0  0  0  0  0  0  0  0  0
  191.7490  177.3510  143.1970 N   0  0  0  0  0  0  0  0  0  0  0  0
  186.7070  178.3640  139.5460 N   0  0  0  0  0  0  0  0  0  0  0  0
  188.6440  177.3680  144.6800 C   0  0  0  0  0  3  0  0  0  0  0  0
  186.4330  178.6320  140.8520 C   0  0  0  0  0  0  0  0  0  0  0  0
  188.9460  177.7560  140.1070 C   0  0  0  0  0  0  0  0  0  0  0  0
  185.0880  179.1330  141.2390 C   0  0  0  0  0  2  0  0  0  0  0  0
  185.1130  179.5750  142.6310 N   0  0  0  0  0  2  0  0  0  0  0  0
  184.2540  178.7300  143.4650 C   0  0  2  0  0  3  0  0  0  0  0  0
  182.7790  178.8590  143.1030 C   0  0  0  0  0  1  0  0  0  0  0  0
  184.5110  178.9230  144.9300 C   0  0  0  0  0  0  0  0  0  0  0  0
  183.4380  179.0090  145.8060 O   0  0  0  0  0  1  0  0  0  0  0  0
  185.6870  178.9720  145.3770 O   0  0  0  0  0  0  0  0  0  0  0  0
  1  4  1  0  0  0  0
  2 11  1  0  0  0  0
  2  1  2  0  0  0  0
  3 13  2  0  0  0  0
  4  7  1  0  0  0  0
  4 16  1  1  0  0  0
  6 18  2  0  0  0  0
  6  3  1  0  0  0  0
  7  8  1  0  0  0  0
  8  5  2  0  0  0  0
  9 15  2  0  0  0  0
  9 18  1  0  0  0  0
 10  9  1  0  0  0  0
 12  5  1  0  0  0  0
 13  1  1  0  0  0  0
 13 14  1  0  0  0  0
 14  7  2  0  0  0  0
 15 17  1  0  0  0  0
 16 12  2  0  0  0  0
 17 19  1  0  0  0  0
 17 11  2  0  0  0  0
 18  2  1  0  0  0  0
 19 20  1  0  0  0  0
 20 21  1  0  0  0  0
 21 22  1  1  0  0  0
 21 23  1  0  0  0  0
 23 25  2  0  0  0  0
 23 24  1  0  0  0  0
M  END
>  <MODEL>
9

>  <REMARK>
 VINA RESULT:      -8.6      3.295      6.772
  Name = 
  4 active torsions:
  status: ('A' for Active; 'I' for Inactive)
    1  A    between atoms: C_2  and  CA_21
    2  A    between atoms: C_6  and  N_15
    3  A    between atoms: C_6  and  C_23
    4  A    between atoms: N_15  and  CA_21
                            x       y       z     vdW  Elec       q    Type
                         _______ _______ _______ _____ _____    ______ ____

>  <TORSDO>
F 4

$$$$
