=
 OpenBabel10262423373D

 34 38  0  0  1  0  0  0  0  0999 V2000
  182.6660  175.9250  136.8870 C   0  0  2  0  0  0  0  0  0  0  0  0
  187.2550  175.3920  137.5590 C   0  0  0  0  0  1  0  0  0  0  0  0
  184.5470  174.6110  137.5740 O   0  0  0  0  0  0  0  0  0  0  0  0
  180.9060  174.4450  135.9640 C   0  0  0  0  0  2  0  0  0  0  0  0
  181.7290  173.2660  135.8300 O   0  0  0  0  0  0  0  0  0  0  0  0
  183.1070  174.5830  137.7020 C   0  0  2  0  0  3  0  0  0  0  0  0
  181.7060  175.6560  135.7990 C   0  0  0  0  0  2  0  0  0  0  0  0
  182.7680  173.2130  136.8590 C   0  0  0  0  0  2  0  0  0  0  0  0
  186.3240  175.9320  136.6070 C   0  0  0  0  0  0  0  0  0  0  0  0
  186.6750  176.8950  135.6690 C   0  0  0  0  0  0  0  0  0  0  0  0
  185.6610  177.6260  134.9330 C   0  0  0  0  0  3  0  0  0  0  0  0
  184.9650  175.5720  136.8140 C   0  0  0  0  0  0  0  0  0  0  0  0
  184.2420  177.3210  135.2990 C   0  0  0  0  0  3  0  0  0  0  0  0
  183.9630  176.3530  136.2780 C   0  0  0  0  0  0  0  0  0  0  0  0
  182.2080  177.0140  139.2840 C   0  0  1  0  0  3  0  0  0  0  0  0
  183.4340  179.7310  138.6990 C   0  0  0  0  0  2  0  0  0  0  0  0
  184.2860  178.2750  142.2320 C   0  0  0  0  0  2  0  0  0  0  0  0
  181.8590  178.5720  137.2420 C   0  0  0  0  0  0  0  0  0  0  0  0
  182.0040  177.0790  137.7210 C   0  0  1  0  0  3  0  0  0  0  0  0
  186.0120  179.1000  140.9730 C   0  0  2  0  0  3  0  0  0  0  0  0
  183.0930  178.2440  141.4230 C   0  0  0  0  0  2  0  0  0  0  0  0
  186.9760  178.2690  141.6010 O   0  0  0  0  0  1  0  0  0  0  0  0
  183.4360  177.5410  140.0370 C   0  0  2  0  0  3  0  0  0  0  0  0
  181.6030  178.8400  136.0120 O   0  0  0  0  0  0  0  0  0  0  0  0
  181.2920  180.9200  137.8970 C   0  0  0  0  0  1  0  0  0  0  0  0
  184.9950  179.4400  141.8920 O   0  0  0  0  0  0  0  0  0  0  0  0
  185.6680  178.6140  139.5800 C   0  0  0  0  0  0  0  0  0  0  0  0
  184.2010  178.4410  139.1350 C   0  0  2  0  0  3  0  0  0  0  0  0
  186.6110  178.0720  138.8360 C   0  0  0  0  0  2  0  0  0  0  0  0
  181.9470  179.6310  138.2600 C   0  0  2  0  0  3  0  0  0  0  0  0
  181.0790  176.5230  140.2170 C   0  0  0  0  0  1  0  0  0  0  0  0
  188.1180  177.0860  135.3310 C   0  0  0  0  0  0  0  0  0  0  0  0
  188.6580  176.2850  134.5940 O   0  0  0  0  0  0  0  0  0  0  0  0
  188.9170  178.1110  136.0700 C   0  0  0  0  0  1  0  0  0  0  0  0
  1  7  1  6  0  0  0
  1  6  1  0  0  0  0
  1 19  1  0  0  0  0
  3  6  1  0  0  0  0
  5  4  1  0  0  0  0
  5  8  1  0  0  0  0
  6  8  1  6  0  0  0
  7  4  1  0  0  0  0
  9 12  1  0  0  0  0
  9  2  1  0  0  0  0
 10  9  2  0  0  0  0
 11 13  2  0  0  0  0
 11 10  1  0  0  0  0
 12  3  1  0  0  0  0
 13 14  1  0  0  0  0
 14 12  2  0  0  0  0
 14  1  1  0  0  0  0
 15 23  1  0  0  0  0
 15 31  1  1  0  0  0
 18 30  1  0  0  0  0
 19 18  1  6  0  0  0
 19 15  1  0  0  0  0
 20 22  1  1  0  0  0
 20 26  1  0  0  0  0
 21 17  1  0  0  0  0
 23 21  1  1  0  0  0
 24 18  2  0  0  0  0
 26 17  1  0  0  0  0
 27 20  1  0  0  0  0
 28 16  1  1  0  0  0
 28 27  1  0  0  0  0
 28 23  1  0  0  0  0
 29 27  2  0  0  0  0
 30 25  1  6  0  0  0
 30 16  1  0  0  0  0
 32 10  1  0  0  0  0
 32 34  1  0  0  0  0
 33 32  2  0  0  0  0
M  END
>  <MODEL>
1

>  <REMARK>
 VINA RESULT:      -5.8      0.000      0.000
  Name = 
  2 active torsions:
  status: ('A' for Active; 'I' for Inactive)
    1  A    between atoms: C_1  and  C_9
    2  A    between atoms: C_3  and  C_25
                            x       y       z     vdW  Elec       q    Type
                         _______ _______ _______ _____ _____    ______ ____

>  <TORSDO>
F 2

$$$$
=
 OpenBabel10262423373D

 34 38  0  0  1  0  0  0  0  0999 V2000
  181.6290  177.2570  139.7580 C   0  0  2  0  0  0  0  0  0  0  0  0
  181.2860  179.9160  143.5800 C   0  0  0  0  0  1  0  0  0  0  0  0
  180.3540  178.1820  141.5640 O   0  0  0  0  0  0  0  0  0  0  0  0
  180.7330  175.0250  139.1620 C   0  0  0  0  0  2  0  0  0  0  0  0
  179.9160  174.8490  140.3400 O   0  0  0  0  0  0  0  0  0  0  0  0
  180.1140  177.5140  140.3040 C   0  0  2  0  0  3  0  0  0  0  0  0
  181.9080  175.8380  139.4650 C   0  0  0  0  0  2  0  0  0  0  0  0
  179.4110  176.1280  140.8400 C   0  0  0  0  0  2  0  0  0  0  0  0
  182.1630  178.9580  142.9640 C   0  0  0  0  0  0  0  0  0  0  0  0
  183.5130  178.8610  143.2750 C   0  0  0  0  0  0  0  0  0  0  0  0
  184.4210  178.1020  142.4350 C   0  0  0  0  0  3  0  0  0  0  0  0
  181.6120  178.2500  141.8630 C   0  0  0  0  0  0  0  0  0  0  0  0
  183.8210  177.5030  141.2020 C   0  0  0  0  0  3  0  0  0  0  0  0
  182.4520  177.6660  140.9380 C   0  0  0  0  0  0  0  0  0  0  0  0
  183.5950  178.3300  138.3020 C   0  0  1  0  0  3  0  0  0  0  0  0
  183.1230  176.7010  135.7820 C   0  0  0  0  0  2  0  0  0  0  0  0
  186.8880  177.1680  136.7510 C   0  0  0  0  0  2  0  0  0  0  0  0
  181.3800  177.8490  137.0430 C   0  0  0  0  0  0  0  0  0  0  0  0
  182.0550  178.0210  138.4560 C   0  0  1  0  0  3  0  0  0  0  0  0
  186.1750  175.0550  136.2270 C   0  0  2  0  0  3  0  0  0  0  0  0
  185.7430  178.0410  136.8270 C   0  0  0  0  0  2  0  0  0  0  0  0
  187.1790  174.4330  137.0150 O   0  0  0  0  0  1  0  0  0  0  0  0
  184.6400  177.3540  137.7460 C   0  0  2  0  0  3  0  0  0  0  0  0
  180.1120  177.6730  136.9440 O   0  0  0  0  0  0  0  0  0  0  0  0
  181.5280  178.3410  134.5940 C   0  0  0  0  0  1  0  0  0  0  0  0
  186.6620  176.2690  135.6940 O   0  0  0  0  0  0  0  0  0  0  0  0
  184.8140  174.9920  136.8920 C   0  0  0  0  0  0  0  0  0  0  0  0
  183.9380  176.2530  137.0380 C   0  0  2  0  0  3  0  0  0  0  0  0
  184.4910  173.9250  137.5950 C   0  0  0  0  0  2  0  0  0  0  0  0
  182.2370  177.9750  135.8530 C   0  0  2  0  0  3  0  0  0  0  0  0
  184.1580  179.7410  138.5790 C   0  0  0  0  0  1  0  0  0  0  0  0
  184.0070  179.4460  144.5600 C   0  0  0  0  0  0  0  0  0  0  0  0
  184.6080  180.5010  144.5300 O   0  0  0  0  0  0  0  0  0  0  0  0
  183.9510  178.6270  145.8090 C   0  0  0  0  0  1  0  0  0  0  0  0
  1  7  1  6  0  0  0
  1  6  1  0  0  0  0
  1 14  1  0  0  0  0
  3 12  1  0  0  0  0
  4  7  1  0  0  0  0
  4  5  1  0  0  0  0
  5  8  1  0  0  0  0
  6  8  1  1  0  0  0
  6  3  1  0  0  0  0
  9 10  1  0  0  0  0
  9  2  1  0  0  0  0
 10 32  1  0  0  0  0
 11 10  2  0  0  0  0
 12  9  2  0  0  0  0
 13 11  1  0  0  0  0
 14 13  2  0  0  0  0
 14 12  1  0  0  0  0
 15 19  1  0  0  0  0
 15 31  1  6  0  0  0
 16 30  1  0  0  0  0
 17 21  1  0  0  0  0
 19 18  1  6  0  0  0
 19  1  1  0  0  0  0
 20 27  1  0  0  0  0
 20 22  1  1  0  0  0
 23 21  1  6  0  0  0
 23 15  1  0  0  0  0
 24 18  2  0  0  0  0
 26 20  1  0  0  0  0
 26 17  1  0  0  0  0
 27 28  1  0  0  0  0
 27 29  2  0  0  0  0
 28 16  1  6  0  0  0
 28 23  1  0  0  0  0
 30 25  1  6  0  0  0
 30 18  1  0  0  0  0
 32 34  1  0  0  0  0
 33 32  2  0  0  0  0
M  END
>  <MODEL>
2

>  <REMARK>
 VINA RESULT:      -5.6      2.123      6.068
  Name = 
  2 active torsions:
  status: ('A' for Active; 'I' for Inactive)
    1  A    between atoms: C_1  and  C_9
    2  A    between atoms: C_3  and  C_25
                            x       y       z     vdW  Elec       q    Type
                         _______ _______ _______ _____ _____    ______ ____

>  <TORSDO>
F 2

$$$$
=
 OpenBabel10262423373D

 34 38  0  0  1  0  0  0  0  0999 V2000
  181.3510  178.9790  141.5630 C   0  0  2  0  0  0  0  0  0  0  0  0
  184.7690  179.7090  144.6590 C   0  0  0  0  0  1  0  0  0  0  0  0
  182.1030  179.4010  143.7980 O   0  0  0  0  0  0  0  0  0  0  0  0
  179.2710  177.6330  141.6220 C   0  0  0  0  0  2  0  0  0  0  0  0
  179.3580  177.2460  143.0110 O   0  0  0  0  0  0  0  0  0  0  0  0
  180.8680  179.4510  143.0470 C   0  0  2  0  0  3  0  0  0  0  0  0
  180.6030  177.8140  141.0510 C   0  0  0  0  0  2  0  0  0  0  0  0
  180.0130  178.2760  143.8170 C   0  0  0  0  0  2  0  0  0  0  0  0
  184.4460  178.8790  143.5300 C   0  0  0  0  0  0  0  0  0  0  0  0
  185.4100  178.2300  142.7700 C   0  0  0  0  0  0  0  0  0  0  0  0
  185.0820  177.6540  141.4790 C   0  0  0  0  0  3  0  0  0  0  0  0
  183.0900  178.9270  143.1090 C   0  0  0  0  0  0  0  0  0  0  0  0
  183.6770  177.8660  141.0090 C   0  0  0  0  0  3  0  0  0  0  0  0
  182.7620  178.5570  141.8210 C   0  0  0  0  0  0  0  0  0  0  0  0
  182.0070  179.6820  139.0700 C   0  0  1  0  0  3  0  0  0  0  0  0
  179.1770  180.0410  138.0270 C   0  0  0  0  0  2  0  0  0  0  0  0
  181.6170  178.2350  135.5560 C   0  0  0  0  0  2  0  0  0  0  0  0
  180.0140  180.9600  140.1250 C   0  0  0  0  0  0  0  0  0  0  0  0
  181.2610  180.0420  140.4130 C   0  0  1  0  0  3  0  0  0  0  0  0
  179.5640  177.2840  135.9130 C   0  0  2  0  0  3  0  0  0  0  0  0
  181.7940  179.3260  136.4820 C   0  0  0  0  0  2  0  0  0  0  0  0
  180.0230  175.9780  135.6010 O   0  0  0  0  0  1  0  0  0  0  0  0
  181.4300  178.8140  137.9440 C   0  0  2  0  0  3  0  0  0  0  0  0
  179.3170  181.4350  141.0940 O   0  0  0  0  0  0  0  0  0  0  0  0
  178.9310  182.5570  138.5310 C   0  0  0  0  0  1  0  0  0  0  0  0
  180.2700  178.2400  135.1510 O   0  0  0  0  0  0  0  0  0  0  0  0
  179.3670  177.4740  137.4040 C   0  0  0  0  0  0  0  0  0  0  0  0
  179.9610  178.6940  138.1380 C   0  0  2  0  0  3  0  0  0  0  0  0
  178.9310  176.4640  138.1290 C   0  0  0  0  0  2  0  0  0  0  0  0
  179.7300  181.3140  138.7250 C   0  0  2  0  0  3  0  0  0  0  0  0
  183.3700  180.3180  138.7190 C   0  0  0  0  0  1  0  0  0  0  0  0
  186.7720  178.0190  143.3500 C   0  0  0  0  0  0  0  0  0  0  0  0
  187.7440  178.3220  142.6880 O   0  0  0  0  0  0  0  0  0  0  0  0
  186.9170  177.2420  144.6190 C   0  0  0  0  0  1  0  0  0  0  0  0
  1  7  1  6  0  0  0
  1 14  1  0  0  0  0
  1  6  1  0  0  0  0
  4  5  1  0  0  0  0
  5  8  1  0  0  0  0
  6  3  1  0  0  0  0
  6  8  1  1  0  0  0
  7  4  1  0  0  0  0
  9  2  1  0  0  0  0
 10 32  1  0  0  0  0
 10  9  2  0  0  0  0
 11 10  1  0  0  0  0
 12  9  1  0  0  0  0
 12  3  1  0  0  0  0
 13 11  2  0  0  0  0
 13 14  1  0  0  0  0
 14 12  2  0  0  0  0
 15 31  1  6  0  0  0
 15 19  1  0  0  0  0
 16 30  1  0  0  0  0
 17 21  1  0  0  0  0
 18 24  2  0  0  0  0
 19 18  1  6  0  0  0
 19  1  1  0  0  0  0
 20 22  1  1  0  0  0
 20 27  1  0  0  0  0
 23 21  1  6  0  0  0
 23 28  1  0  0  0  0
 23 15  1  0  0  0  0
 26 17  1  0  0  0  0
 26 20  1  0  0  0  0
 27 29  2  0  0  0  0
 27 28  1  0  0  0  0
 28 16  1  6  0  0  0
 30 25  1  1  0  0  0
 30 18  1  0  0  0  0
 32 34  1  0  0  0  0
 33 32  2  0  0  0  0
M  END
>  <MODEL>
3

>  <REMARK>
 VINA RESULT:      -5.5      3.662      6.740
  Name = 
  2 active torsions:
  status: ('A' for Active; 'I' for Inactive)
    1  A    between atoms: C_1  and  C_9
    2  A    between atoms: C_3  and  C_25
                            x       y       z     vdW  Elec       q    Type
                         _______ _______ _______ _____ _____    ______ ____

>  <TORSDO>
F 2

$$$$
=
 OpenBabel10262423373D

 34 38  0  0  1  0  0  0  0  0999 V2000
  183.7460  177.9340  138.3660 C   0  0  2  0  0  0  0  0  0  0  0  0
  188.1940  178.5320  137.0790 C   0  0  0  0  0  1  0  0  0  0  0  0
  185.8810  178.9910  138.6220 O   0  0  0  0  0  0  0  0  0  0  0  0
  182.6300  177.7630  140.5710 C   0  0  0  0  0  2  0  0  0  0  0  0
  183.7910  178.0660  141.3740 O   0  0  0  0  0  0  0  0  0  0  0  0
  184.5180  179.1910  139.0610 C   0  0  2  0  0  3  0  0  0  0  0  0
  183.0180  177.0910  139.3330 C   0  0  0  0  0  2  0  0  0  0  0  0
  184.7020  178.9780  140.6810 C   0  0  0  0  0  2  0  0  0  0  0  0
  187.2250  177.4910  137.2880 C   0  0  0  0  0  0  0  0  0  0  0  0
  187.3330  176.2320  136.7100 C   0  0  0  0  0  0  0  0  0  0  0  0
  186.2060  175.3180  136.6950 C   0  0  0  0  0  3  0  0  0  0  0  0
  186.0370  177.8920  137.9550 C   0  0  0  0  0  0  0  0  0  0  0  0
  184.9300  175.8460  137.2740 C   0  0  0  0  0  3  0  0  0  0  0  0
  184.8890  177.1410  137.8160 C   0  0  0  0  0  0  0  0  0  0  0  0
  182.4250  177.1540  136.1790 C   0  0  1  0  0  3  0  0  0  0  0  0
  179.6210  177.4740  137.3040 C   0  0  0  0  0  2  0  0  0  0  0  0
  180.1670  174.2460  135.1570 C   0  0  0  0  0  2  0  0  0  0  0  0
  181.3910  179.1410  137.4840 C   0  0  0  0  0  0  0  0  0  0  0  0
  182.6860  178.2730  137.2600 C   0  0  1  0  0  3  0  0  0  0  0  0
  179.1390  174.0130  137.1900 C   0  0  2  0  0  3  0  0  0  0  0  0
  180.6540  175.5980  135.0320 C   0  0  0  0  0  2  0  0  0  0  0  0
  179.5610  172.6670  137.3420 O   0  0  0  0  0  1  0  0  0  0  0  0
  181.4670  175.9680  136.3490 C   0  0  2  0  0  3  0  0  0  0  0  0
  181.4170  180.1600  138.2660 O   0  0  0  0  0  0  0  0  0  0  0  0
  179.2040  179.8970  136.5310 C   0  0  0  0  0  1  0  0  0  0  0  0
  178.9310  174.3030  135.8240 O   0  0  0  0  0  0  0  0  0  0  0  0
  179.9320  174.9580  138.0710 C   0  0  0  0  0  0  0  0  0  0  0  0
  180.5640  176.2430  137.4980 C   0  0  2  0  0  3  0  0  0  0  0  0
  180.3220  174.5520  139.2620 C   0  0  0  0  0  2  0  0  0  0  0  0
  180.1880  178.7930  136.7100 C   0  0  2  0  0  3  0  0  0  0  0  0
  183.0310  177.2550  134.7620 C   0  0  0  0  0  1  0  0  0  0  0  0
  188.6650  175.7740  136.2110 C   0  0  0  0  0  0  0  0  0  0  0  0
  188.8810  175.7960  135.0150 O   0  0  0  0  0  0  0  0  0  0  0  0
  189.6090  175.0960  137.1500 C   0  0  0  0  0  1  0  0  0  0  0  0
  1  6  1  0  0  0  0
  1  7  1  1  0  0  0
  2  9  1  0  0  0  0
  3  6  1  0  0  0  0
  4  5  1  0  0  0  0
  6  8  1  1  0  0  0
  7  4  1  0  0  0  0
  8  5  1  0  0  0  0
  9 12  1  0  0  0  0
 10  9  2  0  0  0  0
 11 10  1  0  0  0  0
 11 13  2  0  0  0  0
 12  3  1  0  0  0  0
 13 14  1  0  0  0  0
 14 12  2  0  0  0  0
 14  1  1  0  0  0  0
 15 31  1  6  0  0  0
 15 23  1  0  0  0  0
 15 19  1  0  0  0  0
 17 26  1  0  0  0  0
 18 24  2  0  0  0  0
 19 18  1  1  0  0  0
 19  1  1  0  0  0  0
 20 22  1  6  0  0  0
 20 27  1  0  0  0  0
 21 17  1  0  0  0  0
 23 21  1  6  0  0  0
 23 28  1  0  0  0  0
 26 20  1  0  0  0  0
 27 29  2  0  0  0  0
 28 16  1  6  0  0  0
 28 27  1  0  0  0  0
 30 25  1  1  0  0  0
 30 16  1  0  0  0  0
 30 18  1  0  0  0  0
 32 10  1  0  0  0  0
 32 34  1  0  0  0  0
 33 32  2  0  0  0  0
M  END
>  <MODEL>
4

>  <REMARK>
 VINA RESULT:      -5.5      1.819      5.235
  Name = 
  2 active torsions:
  status: ('A' for Active; 'I' for Inactive)
    1  A    between atoms: C_1  and  C_9
    2  A    between atoms: C_3  and  C_25
                            x       y       z     vdW  Elec       q    Type
                         _______ _______ _______ _____ _____    ______ ____

>  <TORSDO>
F 2

$$$$
=
 OpenBabel10262423373D

 34 38  0  0  1  0  0  0  0  0999 V2000
  180.4160  179.8320  137.2830 C   0  0  2  0  0  0  0  0  0  0  0  0
  181.3180  184.2560  136.0940 C   0  0  0  0  0  1  0  0  0  0  0  0
  181.0370  181.4850  135.6640 O   0  0  0  0  0  0  0  0  0  0  0  0
  179.1750  177.9990  136.1700 C   0  0  0  0  0  2  0  0  0  0  0  0
  178.9320  178.6890  134.9250 O   0  0  0  0  0  0  0  0  0  0  0  0
  181.0610  180.0460  135.8010 C   0  0  2  0  0  3  0  0  0  0  0  0
  179.2370  178.9440  137.2820 C   0  0  0  0  0  2  0  0  0  0  0  0
  180.0120  179.6240  134.6070 C   0  0  0  0  0  2  0  0  0  0  0  0
  180.3890  183.4770  136.8670 C   0  0  0  0  0  0  0  0  0  0  0  0
  179.6240  184.0150  137.8940 C   0  0  0  0  0  0  0  0  0  0  0  0
  178.9310  183.1580  138.8370 C   0  0  0  0  0  3  0  0  0  0  0  0
  180.4510  182.0740  136.6560 C   0  0  0  0  0  0  0  0  0  0  0  0
  179.1520  181.6880  138.6670 C   0  0  0  0  0  3  0  0  0  0  0  0
  179.9630  181.2170  137.6210 C   0  0  0  0  0  0  0  0  0  0  0  0
  181.2920  177.6760  138.5960 C   0  0  1  0  0  3  0  0  0  0  0  0
  184.2370  178.0050  137.9280 C   0  0  0  0  0  2  0  0  0  0  0  0
  182.9100  174.3280  137.7190 C   0  0  0  0  0  2  0  0  0  0  0  0
  182.7890  179.7880  138.7480 C   0  0  0  0  0  0  0  0  0  0  0  0
  181.3560  179.2400  138.3900 C   0  0  1  0  0  3  0  0  0  0  0  0
  184.1540  175.1140  135.9650 C   0  0  2  0  0  3  0  0  0  0  0  0
  182.6270  175.4210  138.6170 C   0  0  0  0  0  2  0  0  0  0  0  0
  183.5520  174.2280  135.0340 O   0  0  0  0  0  1  0  0  0  0  0  0
  182.0670  176.6440  137.7670 C   0  0  2  0  0  3  0  0  0  0  0  0
  183.0280  181.0490  138.7270 O   0  0  0  0  0  0  0  0  0  0  0  0
  184.9190  179.3800  139.9990 C   0  0  0  0  0  1  0  0  0  0  0  0
  184.2190  174.5070  137.2380 O   0  0  0  0  0  0  0  0  0  0  0  0
  183.6440  176.5330  135.8080 C   0  0  0  0  0  0  0  0  0  0  0  0
  183.1490  177.3420  137.0240 C   0  0  2  0  0  3  0  0  0  0  0  0
  183.3610  176.9840  134.6030 C   0  0  0  0  0  2  0  0  0  0  0  0
  183.8070  178.8160  139.1810 C   0  0  2  0  0  3  0  0  0  0  0  0
  180.5220  177.0580  139.7840 C   0  0  0  0  0  1  0  0  0  0  0  0
  179.4150  185.4950  137.9450 C   0  0  0  0  0  0  0  0  0  0  0  0
  178.9750  186.0590  136.9630 O   0  0  0  0  0  0  0  0  0  0  0  0
  179.9540  186.2730  139.1020 C   0  0  0  0  0  1  0  0  0  0  0  0
  1  7  1  6  0  0  0
  1 14  1  0  0  0  0
  1 19  1  0  0  0  0
  2  9  1  0  0  0  0
  3  6  1  0  0  0  0
  3 12  1  0  0  0  0
  4  7  1  0  0  0  0
  5  4  1  0  0  0  0
  6  8  1  6  0  0  0
  6  1  1  0  0  0  0
  8  5  1  0  0  0  0
  9 10  1  0  0  0  0
 10 32  1  0  0  0  0
 10 11  2  0  0  0  0
 12  9  2  0  0  0  0
 12 14  1  0  0  0  0
 13 11  1  0  0  0  0
 14 13  2  0  0  0  0
 15 31  1  1  0  0  0
 16 30  1  0  0  0  0
 17 21  1  0  0  0  0
 18 30  1  0  0  0  0
 19 15  1  0  0  0  0
 19 18  1  6  0  0  0
 20 22  1  6  0  0  0
 20 26  1  0  0  0  0
 23 15  1  0  0  0  0
 23 21  1  1  0  0  0
 24 18  2  0  0  0  0
 26 17  1  0  0  0  0
 27 20  1  0  0  0  0
 27 28  1  0  0  0  0
 28 23  1  0  0  0  0
 28 16  1  1  0  0  0
 29 27  2  0  0  0  0
 30 25  1  6  0  0  0
 32 34  1  0  0  0  0
 33 32  2  0  0  0  0
M  END
>  <MODEL>
5

>  <REMARK>
 VINA RESULT:      -5.4      2.752      6.980
  Name = 
  2 active torsions:
  status: ('A' for Active; 'I' for Inactive)
    1  A    between atoms: C_1  and  C_9
    2  A    between atoms: C_3  and  C_25
                            x       y       z     vdW  Elec       q    Type
                         _______ _______ _______ _____ _____    ______ ____

>  <TORSDO>
F 2

$$$$
=
 OpenBabel10262423373D

 34 38  0  0  1  0  0  0  0  0999 V2000
  180.8740  179.2830  139.3720 C   0  0  2  0  0  0  0  0  0  0  0  0
  185.3670  178.9190  140.5860 C   0  0  0  0  0  1  0  0  0  0  0  0
  183.1790  179.8730  139.0880 O   0  0  0  0  0  0  0  0  0  0  0  0
  179.4390  181.2040  138.7480 C   0  0  0  0  0  2  0  0  0  0  0  0
  180.4860  182.1990  138.7260 O   0  0  0  0  0  0  0  0  0  0  0  0
  181.9380  179.9860  138.3550 C   0  0  2  0  0  3  0  0  0  0  0  0
  179.7400  180.1590  139.7230 C   0  0  0  0  0  2  0  0  0  0  0  0
  181.7690  181.6220  138.3240 C   0  0  0  0  0  2  0  0  0  0  0  0
  184.0600  179.0270  141.1730 C   0  0  0  0  0  0  0  0  0  0  0  0
  183.7800  178.6270  142.4730 C   0  0  0  0  0  0  0  0  0  0  0  0
  182.4120  178.4710  142.9290 C   0  0  0  0  0  3  0  0  0  0  0  0
  183.0180  179.3790  140.2740 C   0  0  0  0  0  0  0  0  0  0  0  0
  181.3510  178.7030  141.9000 C   0  0  0  0  0  3  0  0  0  0  0  0
  181.7100  179.0800  140.5950 C   0  0  0  0  0  0  0  0  0  0  0  0
  180.2810  177.6480  137.3440 C   0  0  1  0  0  3  0  0  0  0  0  0
  181.6870  175.1840  138.4300 C   0  0  0  0  0  2  0  0  0  0  0  0
  182.1780  175.7930  134.5940 C   0  0  0  0  0  2  0  0  0  0  0  0
  180.1780  176.6040  139.7150 C   0  0  0  0  0  0  0  0  0  0  0  0
  180.2080  177.9470  138.8910 C   0  0  1  0  0  3  0  0  0  0  0  0
  184.0390  175.3410  135.8480 C   0  0  2  0  0  3  0  0  0  0  0  0
  181.0530  175.9770  135.4770 C   0  0  0  0  0  2  0  0  0  0  0  0
  184.9060  176.0300  134.9600 O   0  0  0  0  0  1  0  0  0  0  0  0
  181.4700  176.9970  136.6250 C   0  0  2  0  0  3  0  0  0  0  0  0
  180.0350  176.6250  140.9910 O   0  0  0  0  0  0  0  0  0  0  0  0
  179.6810  174.1510  139.6750 C   0  0  0  0  0  1  0  0  0  0  0  0
  182.9700  174.7630  135.1290 O   0  0  0  0  0  0  0  0  0  0  0  0
  183.7830  176.1310  137.1160 C   0  0  0  0  0  0  0  0  0  0  0  0
  182.3500  176.3580  137.6390 C   0  0  2  0  0  3  0  0  0  0  0  0
  184.7540  176.8610  137.6260 C   0  0  0  0  0  2  0  0  0  0  0  0
  180.2370  175.3380  138.9660 C   0  0  2  0  0  3  0  0  0  0  0  0
  179.0570  177.8700  136.4290 C   0  0  0  0  0  1  0  0  0  0  0  0
  184.9060  178.4760  143.4450 C   0  0  0  0  0  0  0  0  0  0  0  0
  185.6790  177.5480  143.3060 O   0  0  0  0  0  0  0  0  0  0  0  0
  184.9310  179.3190  144.6790 C   0  0  0  0  0  1  0  0  0  0  0  0
  1  7  1  1  0  0  0
  1 14  1  0  0  0  0
  2  9  1  0  0  0  0
  3 12  1  0  0  0  0
  4  7  1  0  0  0  0
  5  4  1  0  0  0  0
  6  8  1  1  0  0  0
  6  3  1  0  0  0  0
  6  1  1  0  0  0  0
  8  5  1  0  0  0  0
  9 10  1  0  0  0  0
 10 11  2  0  0  0  0
 10 32  1  0  0  0  0
 12 14  1  0  0  0  0
 12  9  2  0  0  0  0
 13 11  1  0  0  0  0
 14 13  2  0  0  0  0
 15 31  1  1  0  0  0
 15 19  1  0  0  0  0
 16 30  1  0  0  0  0
 17 26  1  0  0  0  0
 17 21  1  0  0  0  0
 18 24  2  0  0  0  0
 19  1  1  0  0  0  0
 19 18  1  1  0  0  0
 20 22  1  6  0  0  0
 20 27  1  0  0  0  0
 23 21  1  6  0  0  0
 23 15  1  0  0  0  0
 23 28  1  0  0  0  0
 26 20  1  0  0  0  0
 27 29  2  0  0  0  0
 27 28  1  0  0  0  0
 28 16  1  6  0  0  0
 30 25  1  1  0  0  0
 30 18  1  0  0  0  0
 32 34  1  0  0  0  0
 33 32  2  0  0  0  0
M  END
>  <MODEL>
6

>  <REMARK>
 VINA RESULT:      -5.3      2.215      6.448
  Name = 
  2 active torsions:
  status: ('A' for Active; 'I' for Inactive)
    1  A    between atoms: C_1  and  C_9
    2  A    between atoms: C_3  and  C_25
                            x       y       z     vdW  Elec       q    Type
                         _______ _______ _______ _____ _____    ______ ____

>  <TORSDO>
F 2

$$$$
=
 OpenBabel10262423373D

 34 38  0  0  1  0  0  0  0  0999 V2000
  183.3550  175.6480  137.1830 C   0  0  2  0  0  0  0  0  0  0  0  0
  187.9010  174.5890  137.3250 C   0  0  0  0  0  1  0  0  0  0  0  0
  185.1440  174.0560  137.0850 O   0  0  0  0  0  0  0  0  0  0  0  0
  181.4850  174.8910  135.7460 C   0  0  0  0  0  2  0  0  0  0  0  0
  182.2180  173.8710  135.0340 O   0  0  0  0  0  0  0  0  0  0  0  0
  183.7070  174.0570  137.2460 C   0  0  2  0  0  3  0  0  0  0  0  0
  182.3690  175.9850  136.1390 C   0  0  0  0  0  2  0  0  0  0  0  0
  183.2610  173.2750  135.8700 C   0  0  0  0  0  2  0  0  0  0  0  0
  187.0010  175.5700  136.7820 C   0  0  0  0  0  0  0  0  0  0  0  0
  187.4130  176.8400  136.3980 C   0  0  0  0  0  0  0  0  0  0  0  0
  186.4470  177.8920  136.1400 C   0  0  0  0  0  3  0  0  0  0  0  0
  185.6230  175.2360  136.8530 C   0  0  0  0  0  0  0  0  0  0  0  0
  185.0130  177.5340  136.3790 C   0  0  0  0  0  3  0  0  0  0  0  0
  184.6740  176.2360  136.7930 C   0  0  0  0  0  0  0  0  0  0  0  0
  183.1580  177.8190  138.7270 C   0  0  1  0  0  3  0  0  0  0  0  0
  180.1260  178.0060  138.7200 C   0  0  0  0  0  2  0  0  0  0  0  0
  181.9800  181.4330  138.3430 C   0  0  0  0  0  2  0  0  0  0  0  0
  181.3930  175.9650  139.1400 C   0  0  0  0  0  0  0  0  0  0  0  0
  182.7870  176.3040  138.4900 C   0  0  1  0  0  3  0  0  0  0  0  0
  180.2750  180.9770  136.8840 C   0  0  2  0  0  3  0  0  0  0  0  0
  182.2600  180.2500  139.1190 C   0  0  0  0  0  2  0  0  0  0  0  0
  180.8050  181.8190  135.8730 O   0  0  0  0  0  1  0  0  0  0  0  0
  182.4100  179.0160  138.1260 C   0  0  2  0  0  3  0  0  0  0  0  0
  180.9450  174.7610  139.1310 O   0  0  0  0  0  0  0  0  0  0  0  0
  179.6800  176.6160  140.8450 C   0  0  0  0  0  1  0  0  0  0  0  0
  180.5880  181.4970  138.1590 O   0  0  0  0  0  0  0  0  0  0  0  0
  180.4920  179.5100  136.5710 C   0  0  0  0  0  0  0  0  0  0  0  0
  181.0920  178.5510  137.6190 C   0  0  2  0  0  3  0  0  0  0  0  0
  180.4310  179.1040  135.3200 C   0  0  0  0  0  2  0  0  0  0  0  0
  180.6700  177.0530  139.8200 C   0  0  2  0  0  3  0  0  0  0  0  0
  184.2570  178.2240  139.7350 C   0  0  0  0  0  1  0  0  0  0  0  0
  188.8630  177.0840  136.1300 C   0  0  0  0  0  0  0  0  0  0  0  0
  189.5270  177.6520  136.9740 O   0  0  0  0  0  0  0  0  0  0  0  0
  189.4090  176.8330  134.7610 C   0  0  0  0  0  1  0  0  0  0  0  0
  1  7  1  6  0  0  0
  1  6  1  0  0  0  0
  1 19  1  0  0  0  0
  3  6  1  0  0  0  0
  4  7  1  0  0  0  0
  5  4  1  0  0  0  0
  5  8  1  0  0  0  0
  6  8  1  6  0  0  0
  9 12  1  0  0  0  0
  9  2  1  0  0  0  0
 10  9  2  0  0  0  0
 11 13  2  0  0  0  0
 11 10  1  0  0  0  0
 12  3  1  0  0  0  0
 13 14  1  0  0  0  0
 14 12  2  0  0  0  0
 14  1  1  0  0  0  0
 15 31  1  1  0  0  0
 16 30  1  0  0  0  0
 17 21  1  0  0  0  0
 18 30  1  0  0  0  0
 19 15  1  0  0  0  0
 19 18  1  6  0  0  0
 20 22  1  6  0  0  0
 20 26  1  0  0  0  0
 23 15  1  0  0  0  0
 23 21  1  1  0  0  0
 24 18  2  0  0  0  0
 26 17  1  0  0  0  0
 27 20  1  0  0  0  0
 27 28  1  0  0  0  0
 28 23  1  0  0  0  0
 28 16  1  1  0  0  0
 29 27  2  0  0  0  0
 30 25  1  6  0  0  0
 32 10  1  0  0  0  0
 32 33  2  0  0  0  0
 34 32  1  0  0  0  0
M  END
>  <MODEL>
7

>  <REMARK>
 VINA RESULT:      -5.0      1.983      3.670
  Name = 
  2 active torsions:
  status: ('A' for Active; 'I' for Inactive)
    1  A    between atoms: C_1  and  C_9
    2  A    between atoms: C_3  and  C_25
                            x       y       z     vdW  Elec       q    Type
                         _______ _______ _______ _____ _____    ______ ____

>  <TORSDO>
F 2

$$$$
=
 OpenBabel10262423373D

 34 38  0  0  1  0  0  0  0  0999 V2000
  180.2320  179.3090  140.3170 C   0  0  2  0  0  0  0  0  0  0  0  0
  178.9310  183.4380  138.5690 C   0  0  0  0  0  1  0  0  0  0  0  0
  178.9560  181.3330  140.4430 O   0  0  0  0  0  0  0  0  0  0  0  0
  180.8090  178.5430  142.6020 C   0  0  0  0  0  2  0  0  0  0  0  0
  180.4630  179.7680  143.2840 O   0  0  0  0  0  0  0  0  0  0  0  0
  178.9830  180.0330  141.0750 C   0  0  2  0  0  3  0  0  0  0  0  0
  181.2710  178.8200  141.2440 C   0  0  0  0  0  2  0  0  0  0  0  0
  179.3670  180.4680  142.6140 C   0  0  0  0  0  2  0  0  0  0  0  0
  180.1020  182.6250  138.7530 C   0  0  0  0  0  0  0  0  0  0  0  0
  181.2570  182.7830  137.9990 C   0  0  0  0  0  0  0  0  0  0  0  0
  182.2960  181.7700  138.0020 C   0  0  0  0  0  3  0  0  0  0  0  0
  179.9370  181.5090  139.6160 C   0  0  0  0  0  0  0  0  0  0  0  0
  182.0060  180.5420  138.8050 C   0  0  0  0  0  3  0  0  0  0  0  0
  180.8030  180.4400  139.5220 C   0  0  0  0  0  0  0  0  0  0  0  0
  180.3020  178.1880  137.8930 C   0  0  1  0  0  3  0  0  0  0  0  0
  181.8670  175.7060  138.6760 C   0  0  0  0  0  2  0  0  0  0  0  0
  182.9530  177.3240  135.2810 C   0  0  0  0  0  2  0  0  0  0  0  0
  179.9340  176.5690  139.8850 C   0  0  0  0  0  0  0  0  0  0  0  0
  179.8950  178.0720  139.4130 C   0  0  1  0  0  3  0  0  0  0  0  0
  184.5980  176.7820  136.7780 C   0  0  2  0  0  3  0  0  0  0  0  0
  181.6690  177.1470  135.9140 C   0  0  0  0  0  2  0  0  0  0  0  0
  185.4890  177.7690  136.2810 O   0  0  0  0  0  1  0  0  0  0  0  0
  181.6930  177.8810  137.3250 C   0  0  2  0  0  3  0  0  0  0  0  0
  179.5560  176.2480  141.0700 O   0  0  0  0  0  0  0  0  0  0  0  0
  179.8620  174.1670  139.1840 C   0  0  0  0  0  1  0  0  0  0  0  0
  183.7910  176.2890  135.7300 O   0  0  0  0  0  0  0  0  0  0  0  0
  183.9860  177.1890  138.1040 C   0  0  0  0  0  0  0  0  0  0  0  0
  182.4630  177.1100  138.3360 C   0  0  2  0  0  3  0  0  0  0  0  0
  184.7120  177.8710  138.9650 C   0  0  0  0  0  2  0  0  0  0  0  0
  180.3380  175.5510  138.9010 C   0  0  2  0  0  3  0  0  0  0  0  0
  179.2480  178.4950  136.8060 C   0  0  0  0  0  1  0  0  0  0  0  0
  181.4810  184.0720  137.2750 C   0  0  0  0  0  0  0  0  0  0  0  0
  182.3620  184.8150  137.6610 O   0  0  0  0  0  0  0  0  0  0  0  0
  180.4900  184.5210  136.2500 C   0  0  0  0  0  1  0  0  0  0  0  0
  1  6  1  0  0  0  0
  1  7  1  1  0  0  0
  2  9  1  0  0  0  0
  3  6  1  0  0  0  0
  4  5  1  0  0  0  0
  6  8  1  1  0  0  0
  7  4  1  0  0  0  0
  8  5  1  0  0  0  0
  9 12  1  0  0  0  0
 10 11  1  0  0  0  0
 10  9  2  0  0  0  0
 11 13  2  0  0  0  0
 12  3  1  0  0  0  0
 13 14  1  0  0  0  0
 14 12  2  0  0  0  0
 14  1  1  0  0  0  0
 15 31  1  6  0  0  0
 15 19  1  0  0  0  0
 16 30  1  0  0  0  0
 17 26  1  0  0  0  0
 17 21  1  0  0  0  0
 18 24  2  0  0  0  0
 19 18  1  1  0  0  0
 19  1  1  0  0  0  0
 20 22  1  6  0  0  0
 20 27  1  0  0  0  0
 23 21  1  6  0  0  0
 23 15  1  0  0  0  0
 23 28  1  0  0  0  0
 26 20  1  0  0  0  0
 27 28  1  0  0  0  0
 27 29  2  0  0  0  0
 28 16  1  6  0  0  0
 30 25  1  1  0  0  0
 30 18  1  0  0  0  0
 32 33  2  0  0  0  0
 32 10  1  0  0  0  0
 34 32  1  0  0  0  0
M  END
>  <MODEL>
8

>  <REMARK>
 VINA RESULT:      -5.0      2.978      6.973
  Name = 
  2 active torsions:
  status: ('A' for Active; 'I' for Inactive)
    1  A    between atoms: C_1  and  C_9
    2  A    between atoms: C_3  and  C_25
                            x       y       z     vdW  Elec       q    Type
                         _______ _______ _______ _____ _____    ______ ____

>  <TORSDO>
F 2

$$$$
=
 OpenBabel10262423373D

 34 38  0  0  1  0  0  0  0  0999 V2000
  182.2110  177.4830  137.0620 C   0  0  2  0  0  0  0  0  0  0  0  0
  180.9590  181.5170  139.0510 C   0  0  0  0  0  1  0  0  0  0  0  0
  182.4650  179.1530  138.7610 O   0  0  0  0  0  0  0  0  0  0  0  0
  184.4080  176.4420  136.5800 C   0  0  0  0  0  2  0  0  0  0  0  0
  185.2160  177.4270  137.2610 O   0  0  0  0  0  0  0  0  0  0  0  0
  182.8840  177.7910  138.5150 C   0  0  2  0  0  3  0  0  0  0  0  0
  183.1910  177.0510  136.0470 C   0  0  0  0  0  2  0  0  0  0  0  0
  184.5110  178.0040  138.4060 C   0  0  0  0  0  2  0  0  0  0  0  0
  181.1820  180.9360  137.7560 C   0  0  0  0  0  0  0  0  0  0  0  0
  180.6370  181.4580  136.5890 C   0  0  0  0  0  0  0  0  0  0  0  0
  180.6330  180.6900  135.3580 C   0  0  0  0  0  3  0  0  0  0  0  0
  181.8270  179.6700  137.7610 C   0  0  0  0  0  0  0  0  0  0  0  0
  181.1840  179.3020  135.4520 C   0  0  0  0  0  3  0  0  0  0  0  0
  181.6940  178.8310  136.6740 C   0  0  0  0  0  0  0  0  0  0  0  0
  181.1600  175.3640  135.8190 C   0  0  1  0  0  3  0  0  0  0  0  0
  181.2900  173.4500  138.1740 C   0  0  0  0  0  2  0  0  0  0  0  0
  182.3230  171.8900  134.7350 C   0  0  0  0  0  2  0  0  0  0  0  0
  180.4190  175.7250  138.2780 C   0  0  0  0  0  0  0  0  0  0  0  0
  181.0860  176.3910  137.0150 C   0  0  1  0  0  3  0  0  0  0  0  0
  183.7010  171.5270  136.5280 C   0  0  2  0  0  3  0  0  0  0  0  0
  181.3100  172.8450  135.1110 C   0  0  0  0  0  2  0  0  0  0  0  0
  184.8520  171.3580  135.7140 O   0  0  0  0  0  1  0  0  0  0  0  0
  182.0180  174.0930  135.7980 C   0  0  2  0  0  3  0  0  0  0  0  0
  180.1890  176.4170  139.3340 O   0  0  0  0  0  0  0  0  0  0  0  0
  178.9360  173.8950  139.1240 C   0  0  0  0  0  1  0  0  0  0  0  0
  182.5550  171.0620  135.8470 O   0  0  0  0  0  0  0  0  0  0  0  0
  183.6950  172.8720  137.2270 C   0  0  0  0  0  0  0  0  0  0  0  0
  182.4540  173.7860  137.1870 C   0  0  2  0  0  3  0  0  0  0  0  0
  184.8360  173.3900  137.6350 C   0  0  0  0  0  2  0  0  0  0  0  0
  180.0020  174.3170  138.1710 C   0  0  2  0  0  3  0  0  0  0  0  0
  180.2290  175.4980  134.5940 C   0  0  0  0  0  1  0  0  0  0  0  0
  180.1640  182.8750  136.5810 C   0  0  0  0  0  0  0  0  0  0  0  0
  178.9790  183.0980  136.7390 O   0  0  0  0  0  0  0  0  0  0  0  0
  181.1010  183.9610  136.1590 C   0  0  0  0  0  1  0  0  0  0  0  0
  1  7  1  6  0  0  0
  1  6  1  0  0  0  0
  4  5  1  0  0  0  0
  5  8  1  0  0  0  0
  6  8  1  6  0  0  0
  6  3  1  0  0  0  0
  7  4  1  0  0  0  0
  9 12  1  0  0  0  0
  9  2  1  0  0  0  0
 10  9  2  0  0  0  0
 11 13  2  0  0  0  0
 11 10  1  0  0  0  0
 12  3  1  0  0  0  0
 13 14  1  0  0  0  0
 14  1  1  0  0  0  0
 14 12  2  0  0  0  0
 15 31  1  1  0  0  0
 15 19  1  0  0  0  0
 17 21  1  0  0  0  0
 17 26  1  0  0  0  0
 18 24  2  0  0  0  0
 19  1  1  0  0  0  0
 19 18  1  1  0  0  0
 20 22  1  6  0  0  0
 20 27  1  0  0  0  0
 23 21  1  1  0  0  0
 23 15  1  0  0  0  0
 23 28  1  0  0  0  0
 26 20  1  0  0  0  0
 27 29  2  0  0  0  0
 28 27  1  0  0  0  0
 28 16  1  1  0  0  0
 30 16  1  0  0  0  0
 30 18  1  0  0  0  0
 30 25  1  1  0  0  0
 32 10  1  0  0  0  0
 32 33  2  0  0  0  0
 34 32  1  0  0  0  0
M  END
>  <MODEL>
9

>  <REMARK>
 VINA RESULT:      -4.7      2.491      6.719
  Name = 
  2 active torsions:
  status: ('A' for Active; 'I' for Inactive)
    1  A    between atoms: C_1  and  C_9
    2  A    between atoms: C_3  and  C_25
                            x       y       z     vdW  Elec       q    Type
                         _______ _______ _______ _____ _____    ______ ____

>  <TORSDO>
F 2

$$$$
