=
 OpenBabel10262419453D

 25 27  0  0  0  0  0  0  0  0999 V2000
  185.6720  178.4420  145.3140 C   0  0  0  0  0  0  0  0  0  0  0  0
  185.9130  178.4010  143.9270 C   0  0  0  0  0  0  0  0  0  0  0  0
  183.3920  178.9660  144.8860 C   0  0  0  0  0  3  0  0  0  0  0  0
  183.6100  178.9310  143.5460 N   0  0  0  0  0  0  0  0  0  0  0  0
  185.0920  178.6350  141.6720 C   0  0  0  0  0  0  0  0  0  0  0  0
  184.0050  178.8990  140.6870 C   0  0  0  0  0  1  0  0  0  0  0  0
  187.1500  178.1520  143.4220 N   0  0  0  0  0  0  0  0  0  0  0  0
  184.4120  178.7250  145.7500 N   0  0  0  0  0  0  0  0  0  0  0  0
  186.3480  178.3780  141.2190 N   0  0  0  0  0  0  0  0  0  0  0  0
  187.3710  178.1340  142.0810 C   0  0  0  0  0  0  0  0  0  0  0  0
  184.8450  178.6580  143.0510 C   0  0  0  0  0  0  0  0  0  0  0  0
  186.7390  178.1780  146.3130 C   0  0  0  0  0  0  0  0  0  0  0  0
  188.7230  177.6310  148.1940 C   0  0  0  0  0  3  0  0  0  0  0  0
  186.8020  178.8720  147.5410 C   0  0  0  0  0  0  0  0  0  0  0  0
  187.7860  178.5830  148.4360 N   0  0  0  0  0  0  0  0  0  0  0  0
  188.6990  176.9150  146.9980 C   0  0  0  0  0  3  0  0  0  0  0  0
  185.8690  179.9040  147.8500 N   0  0  0  0  0  1  0  0  0  0  0  0
  187.7030  177.1920  146.0620 C   0  0  0  0  0  3  0  0  0  0  0  0
  188.7420  177.8790  141.5540 C   0  0  0  0  0  2  0  0  0  0  0  0
  189.5080  177.0020  142.5010 C   0  0  0  0  0  0  0  0  0  0  0  0
  189.0660  175.8890  142.7490 O   0  0  0  0  0  0  0  0  0  0  0  0
  191.8830  177.5210  142.0320 C   0  0  0  0  0  1  0  0  0  0  0  0
  190.7230  178.7960  143.7910 C   0  0  0  0  0  1  0  0  0  0  0  0
  191.2630  176.4240  144.1540 C   0  0  0  0  0  1  0  0  0  0  0  0
  190.8230  177.4370  143.1140 C   0  0  0  0  0  0  0  0  0  0  0  0
  1  8  1  0  0  0  0
  1 12  1  0  0  0  0
  2  1  2  0  0  0  0
  3  8  2  0  0  0  0
  4  3  1  0  0  0  0
  5 11  1  0  0  0  0
  6  5  1  0  0  0  0
  7  2  1  0  0  0  0
  9  5  2  0  0  0  0
  9 10  1  0  0  0  0
 10  7  2  0  0  0  0
 11  4  2  0  0  0  0
 11  2  1  0  0  0  0
 12 14  1  0  0  0  0
 13 15  1  0  0  0  0
 14 17  1  0  0  0  0
 14 15  2  0  0  0  0
 16 13  2  0  0  0  0
 18 12  2  0  0  0  0
 18 16  1  0  0  0  0
 19 10  1  0  0  0  0
 19 20  1  0  0  0  0
 20 21  2  0  0  0  0
 20 25  1  0  0  0  0
 22 25  1  0  0  0  0
 25 23  1  0  0  0  0
 25 24  1  0  0  0  0
M  END
>  <MODEL>
1

>  <REMARK>
 VINA RESULT:      -8.2      0.000      0.000
  Name = 
  4 active torsions:
  status: ('A' for Active; 'I' for Inactive)
    1  A    between atoms: C_1  and  C_5
    2  A    between atoms: C_6  and  C_15
    3  A    between atoms: C_6  and  C_23
    4  A    between atoms: C_15  and  C_21
                            x       y       z     vdW  Elec       q    Type
                         _______ _______ _______ _____ _____    ______ ____

>  <TORSDO>
F 4

$$$$
=
 OpenBabel10262419453D

 25 27  0  0  0  0  0  0  0  0999 V2000
  183.7170  178.4110  142.4720 C   0  0  0  0  0  0  0  0  0  0  0  0
  184.8190  178.1940  143.3230 C   0  0  0  0  0  0  0  0  0  0  0  0
  182.5230  179.3720  144.2890 C   0  0  0  0  0  3  0  0  0  0  0  0
  183.5760  179.1680  145.1220 N   0  0  0  0  0  0  0  0  0  0  0  0
  185.8060  178.3520  145.5170 C   0  0  0  0  0  0  0  0  0  0  0  0
  185.7640  178.7430  146.9540 C   0  0  0  0  0  1  0  0  0  0  0  0
  185.9550  177.5910  142.8840 N   0  0  0  0  0  0  0  0  0  0  0  0
  182.5990  178.9960  142.9860 N   0  0  0  0  0  0  0  0  0  0  0  0
  186.9210  177.7480  145.0270 N   0  0  0  0  0  0  0  0  0  0  0  0
  187.0020  177.3720  143.7230 C   0  0  0  0  0  0  0  0  0  0  0  0
  184.7170  178.5860  144.6680 C   0  0  0  0  0  0  0  0  0  0  0  0
  183.7380  178.0330  141.0350 C   0  0  0  0  0  0  0  0  0  0  0  0
  183.7950  177.2730  138.3540 C   0  0  0  0  0  3  0  0  0  0  0  0
  184.6020  178.6580  140.1110 C   0  0  0  0  0  0  0  0  0  0  0  0
  184.6030  178.2660  138.8080 N   0  0  0  0  0  0  0  0  0  0  0  0
  182.9280  176.6230  139.2300 C   0  0  0  0  0  3  0  0  0  0  0  0
  185.4560  179.7270  140.5100 N   0  0  0  0  0  1  0  0  0  0  0  0
  182.9060  177.0050  140.5710 C   0  0  0  0  0  3  0  0  0  0  0  0
  188.2290  176.6900  143.2210 C   0  0  0  0  0  2  0  0  0  0  0  0
  189.3050  177.6970  142.9360 C   0  0  0  0  0  0  0  0  0  0  0  0
  189.1030  178.5340  142.0670 O   0  0  0  0  0  0  0  0  0  0  0  0
  191.0290  179.1710  143.9290 C   0  0  0  0  0  1  0  0  0  0  0  0
  190.4720  177.0670  145.0810 C   0  0  0  0  0  1  0  0  0  0  0  0
  191.6860  177.0050  142.9430 C   0  0  0  0  0  1  0  0  0  0  0  0
  190.6020  177.7300  143.7180 C   0  0  0  0  0  0  0  0  0  0  0  0
  1  8  2  0  0  0  0
  1  2  1  0  0  0  0
  2 11  2  0  0  0  0
  3  4  2  0  0  0  0
  5  6  1  0  0  0  0
  7  2  1  0  0  0  0
  7 10  2  0  0  0  0
  8  3  1  0  0  0  0
  9  5  2  0  0  0  0
 10  9  1  0  0  0  0
 11  4  1  0  0  0  0
 11  5  1  0  0  0  0
 12  1  1  0  0  0  0
 13 15  2  0  0  0  0
 13 16  1  0  0  0  0
 14 17  1  0  0  0  0
 14 12  2  0  0  0  0
 15 14  1  0  0  0  0
 16 18  2  0  0  0  0
 18 12  1  0  0  0  0
 19 10  1  0  0  0  0
 20 19  1  0  0  0  0
 20 25  1  0  0  0  0
 21 20  2  0  0  0  0
 24 25  1  0  0  0  0
 25 22  1  0  0  0  0
 25 23  1  0  0  0  0
M  END
>  <MODEL>
2

>  <REMARK>
 VINA RESULT:      -8.2      1.843      5.132
  Name = 
  4 active torsions:
  status: ('A' for Active; 'I' for Inactive)
    1  A    between atoms: C_1  and  C_5
    2  A    between atoms: C_6  and  C_15
    3  A    between atoms: C_6  and  C_23
    4  A    between atoms: C_15  and  C_21
                            x       y       z     vdW  Elec       q    Type
                         _______ _______ _______ _____ _____    ______ ____

>  <TORSDO>
F 4

$$$$
=
 OpenBabel10262419453D

 25 27  0  0  0  0  0  0  0  0999 V2000
  190.2640  177.0460  138.3470 C   0  0  0  0  0  0  0  0  0  0  0  0
  189.6300  177.1440  139.6010 C   0  0  0  0  0  0  0  0  0  0  0  0
  188.7400  178.6460  137.4690 C   0  0  0  0  0  3  0  0  0  0  0  0
  188.1170  178.7500  138.6710 N   0  0  0  0  0  0  0  0  0  0  0  0
  187.8950  178.0990  140.9780 C   0  0  0  0  0  0  0  0  0  0  0  0
  186.7300  179.0050  141.1890 C   0  0  0  0  0  1  0  0  0  0  0  0
  190.0260  176.3980  140.6660 N   0  0  0  0  0  0  0  0  0  0  0  0
  189.7960  177.8040  137.3170 N   0  0  0  0  0  0  0  0  0  0  0  0
  188.3340  177.3330  142.0110 N   0  0  0  0  0  0  0  0  0  0  0  0
  189.3910  176.4910  141.8640 C   0  0  0  0  0  0  0  0  0  0  0  0
  188.5360  178.0170  139.7350 C   0  0  0  0  0  0  0  0  0  0  0  0
  191.4290  176.1540  138.1160 C   0  0  0  0  0  0  0  0  0  0  0  0
  193.6340  174.5150  137.6420 C   0  0  0  0  0  3  0  0  0  0  0  0
  191.2770  174.8350  137.6350 C   0  0  0  0  0  0  0  0  0  0  0  0
  192.3740  174.0600  137.4180 N   0  0  0  0  0  0  0  0  0  0  0  0
  193.8350  175.8120  138.1110 C   0  0  0  0  0  3  0  0  0  0  0  0
  189.9840  174.2820  137.4060 N   0  0  0  0  0  1  0  0  0  0  0  0
  192.7280  176.6280  138.3440 C   0  0  0  0  0  3  0  0  0  0  0  0
  189.8340  175.6460  143.0090 C   0  0  0  0  0  2  0  0  0  0  0  0
  190.8730  176.3660  143.8180 C   0  0  0  0  0  0  0  0  0  0  0  0
  192.0480  176.2340  143.5050 O   0  0  0  0  0  0  0  0  0  0  0  0
  190.6400  178.7240  144.5350 C   0  0  0  0  0  1  0  0  0  0  0  0
  189.0780  177.0550  145.4500 C   0  0  0  0  0  1  0  0  0  0  0  0
  191.4390  177.0270  146.1390 C   0  0  0  0  0  1  0  0  0  0  0  0
  190.5050  177.2770  144.9710 C   0  0  0  0  0  0  0  0  0  0  0  0
  1  2  1  0  0  0  0
  2 11  2  0  0  0  0
  2  7  1  0  0  0  0
  3  4  2  0  0  0  0
  4 11  1  0  0  0  0
  5  6  1  0  0  0  0
  5  9  2  0  0  0  0
  7 10  2  0  0  0  0
  8  3  1  0  0  0  0
  8  1  2  0  0  0  0
 10  9  1  0  0  0  0
 10 19  1  0  0  0  0
 11  5  1  0  0  0  0
 12 18  1  0  0  0  0
 12  1  1  0  0  0  0
 13 16  1  0  0  0  0
 14 12  2  0  0  0  0
 15 14  1  0  0  0  0
 15 13  2  0  0  0  0
 16 18  2  0  0  0  0
 17 14  1  0  0  0  0
 19 20  1  0  0  0  0
 20 25  1  0  0  0  0
 21 20  2  0  0  0  0
 22 25  1  0  0  0  0
 25 23  1  0  0  0  0
 25 24  1  0  0  0  0
M  END
>  <MODEL>
3

>  <REMARK>
 VINA RESULT:      -8.2      3.741      7.321
  Name = 
  4 active torsions:
  status: ('A' for Active; 'I' for Inactive)
    1  A    between atoms: C_1  and  C_5
    2  A    between atoms: C_6  and  C_15
    3  A    between atoms: C_6  and  C_23
    4  A    between atoms: C_15  and  C_21
                            x       y       z     vdW  Elec       q    Type
                         _______ _______ _______ _____ _____    ______ ____

>  <TORSDO>
F 4

$$$$
=
 OpenBabel10262419453D

 25 27  0  0  0  0  0  0  0  0999 V2000
  185.6070  178.5750  142.3050 C   0  0  0  0  0  0  0  0  0  0  0  0
  186.7800  178.3330  141.5620 C   0  0  0  0  0  0  0  0  0  0  0  0
  184.4330  179.0020  140.2830 C   0  0  0  0  0  3  0  0  0  0  0  0
  185.5540  178.7740  139.5530 N   0  0  0  0  0  0  0  0  0  0  0  0
  187.8950  178.2230  139.4270 C   0  0  0  0  0  0  0  0  0  0  0  0
  187.9050  178.3260  137.9400 C   0  0  0  0  0  1  0  0  0  0  0  0
  187.9600  178.0270  142.1640 N   0  0  0  0  0  0  0  0  0  0  0  0
  184.4660  178.9040  141.6370 N   0  0  0  0  0  0  0  0  0  0  0  0
  189.0480  177.9170  140.0780 N   0  0  0  0  0  0  0  0  0  0  0  0
  189.0860  177.8150  141.4330 C   0  0  0  0  0  0  0  0  0  0  0  0
  186.7240  178.4460  140.1620 C   0  0  0  0  0  0  0  0  0  0  0  0
  185.5730  178.4740  143.7870 C   0  0  0  0  0  0  0  0  0  0  0  0
  185.4960  178.2300  146.5630 C   0  0  0  0  0  3  0  0  0  0  0  0
  184.6330  179.1860  144.5630 C   0  0  0  0  0  0  0  0  0  0  0  0
  184.6250  179.0470  145.9170 N   0  0  0  0  0  0  0  0  0  0  0  0
  186.4380  177.5020  145.8390 C   0  0  0  0  0  3  0  0  0  0  0  0
  183.7090  180.0840  143.9550 N   0  0  0  0  0  1  0  0  0  0  0  0
  186.4710  177.6260  144.4510 C   0  0  0  0  0  3  0  0  0  0  0  0
  190.3710  177.5020  142.1200 C   0  0  0  0  0  2  0  0  0  0  0  0
  190.1080  176.9270  143.4810 C   0  0  0  0  0  0  0  0  0  0  0  0
  189.3400  175.9800  143.5730 O   0  0  0  0  0  0  0  0  0  0  0  0
  191.6530  178.6510  144.3570 C   0  0  0  0  0  1  0  0  0  0  0  0
  189.8030  177.8880  145.7920 C   0  0  0  0  0  1  0  0  0  0  0  0
  191.6830  176.3760  145.3140 C   0  0  0  0  0  1  0  0  0  0  0  0
  190.7950  177.4550  144.7230 C   0  0  0  0  0  0  0  0  0  0  0  0
  1 12  1  0  0  0  0
  2  7  1  0  0  0  0
  2  1  2  0  0  0  0
  3  8  2  0  0  0  0
  4 11  2  0  0  0  0
  4  3  1  0  0  0  0
  5  9  2  0  0  0  0
  5 11  1  0  0  0  0
  6  5  1  0  0  0  0
  8  1  1  0  0  0  0
  9 10  1  0  0  0  0
 10 19  1  0  0  0  0
 10  7  2  0  0  0  0
 11  2  1  0  0  0  0
 12 18  2  0  0  0  0
 12 14  1  0  0  0  0
 14 15  2  0  0  0  0
 15 13  1  0  0  0  0
 16 13  2  0  0  0  0
 17 14  1  0  0  0  0
 18 16  1  0  0  0  0
 19 20  1  0  0  0  0
 20 21  2  0  0  0  0
 20 25  1  0  0  0  0
 22 25  1  0  0  0  0
 25 24  1  0  0  0  0
 25 23  1  0  0  0  0
M  END
>  <MODEL>
4

>  <REMARK>
 VINA RESULT:      -7.9      1.572      3.106
  Name = 
  4 active torsions:
  status: ('A' for Active; 'I' for Inactive)
    1  A    between atoms: C_1  and  C_5
    2  A    between atoms: C_6  and  C_15
    3  A    between atoms: C_6  and  C_23
    4  A    between atoms: C_15  and  C_21
                            x       y       z     vdW  Elec       q    Type
                         _______ _______ _______ _____ _____    ______ ____

>  <TORSDO>
F 4

$$$$
=
 OpenBabel10262419453D

 25 27  0  0  0  0  0  0  0  0999 V2000
  187.7260  177.8970  144.5670 C   0  0  0  0  0  0  0  0  0  0  0  0
  186.6270  178.1740  143.7300 C   0  0  0  0  0  0  0  0  0  0  0  0
  186.3030  178.0610  146.4650 C   0  0  0  0  0  3  0  0  0  0  0  0
  185.2340  178.3300  145.6720 N   0  0  0  0  0  0  0  0  0  0  0  0
  184.2830  178.6880  143.4890 C   0  0  0  0  0  0  0  0  0  0  0  0
  182.9250  178.9330  144.0500 C   0  0  0  0  0  1  0  0  0  0  0  0
  186.7580  178.2630  142.3810 N   0  0  0  0  0  0  0  0  0  0  0  0
  187.5270  177.8490  145.9140 N   0  0  0  0  0  0  0  0  0  0  0  0
  184.4680  178.7630  142.1450 N   0  0  0  0  0  0  0  0  0  0  0  0
  185.6900  178.5500  141.5890 C   0  0  0  0  0  0  0  0  0  0  0  0
  185.3710  178.3940  144.3220 C   0  0  0  0  0  0  0  0  0  0  0  0
  189.0880  177.6460  144.0300 C   0  0  0  0  0  0  0  0  0  0  0  0
  191.6390  177.2200  142.9870 C   0  0  0  0  0  3  0  0  0  0  0  0
  189.4050  176.4710  143.3140 C   0  0  0  0  0  0  0  0  0  0  0  0
  190.6600  176.2920  142.8210 N   0  0  0  0  0  0  0  0  0  0  0  0
  191.3720  178.3980  143.6820 C   0  0  0  0  0  3  0  0  0  0  0  0
  188.4370  175.4420  143.1260 N   0  0  0  0  0  1  0  0  0  0  0  0
  190.0950  178.6070  144.1990 C   0  0  0  0  0  3  0  0  0  0  0  0
  185.8670  178.6620  140.1130 C   0  0  0  0  0  2  0  0  0  0  0  0
  184.5660  179.0300  139.4600 C   0  0  0  0  0  0  0  0  0  0  0  0
  184.2220  180.2040  139.4720 O   0  0  0  0  0  0  0  0  0  0  0  0
  184.5480  177.2210  137.7710 C   0  0  0  0  0  1  0  0  0  0  0  0
  183.0650  177.0220  139.7260 C   0  0  0  0  0  1  0  0  0  0  0  0
  182.5900  178.7060  137.9990 C   0  0  0  0  0  1  0  0  0  0  0  0
  183.7020  178.0050  138.7560 C   0  0  0  0  0  0  0  0  0  0  0  0
  1  8  1  0  0  0  0
  2 11  1  0  0  0  0
  2  1  2  0  0  0  0
  4  3  1  0  0  0  0
  5  6  1  0  0  0  0
  5 11  1  0  0  0  0
  7  2  1  0  0  0  0
  8  3  2  0  0  0  0
  9  5  2  0  0  0  0
 10  9  1  0  0  0  0
 10  7  2  0  0  0  0
 11  4  2  0  0  0  0
 12 18  1  0  0  0  0
 12  1  1  0  0  0  0
 13 16  1  0  0  0  0
 14 12  2  0  0  0  0
 15 13  2  0  0  0  0
 15 14  1  0  0  0  0
 16 18  2  0  0  0  0
 17 14  1  0  0  0  0
 19 10  1  0  0  0  0
 20 21  2  0  0  0  0
 20 19  1  0  0  0  0
 22 25  1  0  0  0  0
 24 25  1  0  0  0  0
 25 20  1  0  0  0  0
 25 23  1  0  0  0  0
M  END
>  <MODEL>
5

>  <REMARK>
 VINA RESULT:      -7.8      2.338      5.313
  Name = 
  4 active torsions:
  status: ('A' for Active; 'I' for Inactive)
    1  A    between atoms: C_1  and  C_5
    2  A    between atoms: C_6  and  C_15
    3  A    between atoms: C_6  and  C_23
    4  A    between atoms: C_15  and  C_21
                            x       y       z     vdW  Elec       q    Type
                         _______ _______ _______ _____ _____    ______ ____

>  <TORSDO>
F 4

$$$$
=
 OpenBabel10262419453D

 25 27  0  0  0  0  0  0  0  0999 V2000
  188.6550  177.6670  143.5380 C   0  0  0  0  0  0  0  0  0  0  0  0
  187.3010  177.8720  143.8690 C   0  0  0  0  0  0  0  0  0  0  0  0
  189.2120  177.7200  145.8490 C   0  0  0  0  0  3  0  0  0  0  0  0
  187.9110  177.9200  146.1840 N   0  0  0  0  0  0  0  0  0  0  0  0
  185.6080  178.2230  145.5510 C   0  0  0  0  0  0  0  0  0  0  0  0
  185.1700  178.3690  146.9680 C   0  0  0  0  0  1  0  0  0  0  0  0
  186.3380  177.9780  142.9160 N   0  0  0  0  0  0  0  0  0  0  0  0
  189.5710  177.5980  144.5440 N   0  0  0  0  0  0  0  0  0  0  0  0
  184.6840  178.3190  144.5590 N   0  0  0  0  0  0  0  0  0  0  0  0
  185.0380  178.1950  143.2520 C   0  0  0  0  0  0  0  0  0  0  0  0
  186.9520  178.0010  145.2250 C   0  0  0  0  0  0  0  0  0  0  0  0
  189.1130  177.5150  142.1330 C   0  0  0  0  0  0  0  0  0  0  0  0
  189.9200  177.2190  139.4810 C   0  0  0  0  0  3  0  0  0  0  0  0
  190.0050  176.4920  141.7440 C   0  0  0  0  0  0  0  0  0  0  0  0
  190.3820  176.3780  140.4420 N   0  0  0  0  0  0  0  0  0  0  0  0
  189.0330  178.2410  139.8160 C   0  0  0  0  0  3  0  0  0  0  0  0
  190.5520  175.5920  142.7030 N   0  0  0  0  0  1  0  0  0  0  0  0
  188.6310  178.3830  141.1430 C   0  0  0  0  0  3  0  0  0  0  0  0
  184.0060  178.3280  142.1860 C   0  0  0  0  0  2  0  0  0  0  0  0
  184.6020  178.9550  140.9590 C   0  0  0  0  0  0  0  0  0  0  0  0
  185.5170  179.7530  141.1000 O   0  0  0  0  0  0  0  0  0  0  0  0
  185.3360  178.3090  138.6840 C   0  0  0  0  0  1  0  0  0  0  0  0
  183.2350  177.3670  139.5560 C   0  0  0  0  0  1  0  0  0  0  0  0
  183.3540  179.7520  138.9700 C   0  0  0  0  0  1  0  0  0  0  0  0
  184.1330  178.5940  139.5640 C   0  0  0  0  0  0  0  0  0  0  0  0
  1  2  2  0  0  0  0
  1  8  1  0  0  0  0
  2 11  1  0  0  0  0
  3  4  1  0  0  0  0
  5  6  1  0  0  0  0
  7 10  2  0  0  0  0
  7  2  1  0  0  0  0
  8  3  2  0  0  0  0
  9  5  2  0  0  0  0
 10  9  1  0  0  0  0
 11  5  1  0  0  0  0
 11  4  2  0  0  0  0
 12  1  1  0  0  0  0
 13 16  2  0  0  0  0
 13 15  1  0  0  0  0
 14 12  1  0  0  0  0
 14 17  1  0  0  0  0
 15 14  2  0  0  0  0
 16 18  1  0  0  0  0
 18 12  2  0  0  0  0
 19 10  1  0  0  0  0
 20 21  2  0  0  0  0
 20 19  1  0  0  0  0
 22 25  1  0  0  0  0
 23 25  1  0  0  0  0
 24 25  1  0  0  0  0
 25 20  1  0  0  0  0
M  END
>  <MODEL>
6

>  <REMARK>
 VINA RESULT:      -7.8      2.243      6.136
  Name = 
  4 active torsions:
  status: ('A' for Active; 'I' for Inactive)
    1  A    between atoms: C_1  and  C_5
    2  A    between atoms: C_6  and  C_15
    3  A    between atoms: C_6  and  C_23
    4  A    between atoms: C_15  and  C_21
                            x       y       z     vdW  Elec       q    Type
                         _______ _______ _______ _____ _____    ______ ____

>  <TORSDO>
F 4

$$$$
=
 OpenBabel10262419453D

 25 27  0  0  0  0  0  0  0  0999 V2000
  189.6180  177.3100  141.2070 C   0  0  0  0  0  0  0  0  0  0  0  0
  188.4750  177.7680  140.5220 C   0  0  0  0  0  0  0  0  0  0  0  0
  190.4840  176.4630  139.1610 C   0  0  0  0  0  3  0  0  0  0  0  0
  189.3880  176.8970  138.4870 N   0  0  0  0  0  0  0  0  0  0  0  0
  187.2380  177.9800  138.4630 C   0  0  0  0  0  0  0  0  0  0  0  0
  187.0770  177.7700  136.9960 C   0  0  0  0  0  1  0  0  0  0  0  0
  187.4540  178.3910  141.1680 N   0  0  0  0  0  0  0  0  0  0  0  0
  190.5900  176.6690  140.5000 N   0  0  0  0  0  0  0  0  0  0  0  0
  186.2470  178.6000  139.1570 N   0  0  0  0  0  0  0  0  0  0  0  0
  186.3500  178.8100  140.4950 C   0  0  0  0  0  0  0  0  0  0  0  0
  188.3840  177.5400  139.1380 C   0  0  0  0  0  0  0  0  0  0  0  0
  189.8010  177.5110  142.6670 C   0  0  0  0  0  0  0  0  0  0  0  0
  190.2000  177.8790  145.4020 C   0  0  0  0  0  3  0  0  0  0  0  0
  189.1830  176.6740  143.6210 C   0  0  0  0  0  0  0  0  0  0  0  0
  189.3960  176.8830  144.9480 N   0  0  0  0  0  0  0  0  0  0  0  0
  190.8370  178.7280  144.4980 C   0  0  0  0  0  3  0  0  0  0  0  0
  188.3030  175.6280  143.2190 N   0  0  0  0  0  1  0  0  0  0  0  0
  190.6360  178.5380  143.1320 C   0  0  0  0  0  3  0  0  0  0  0  0
  185.2360  179.4730  141.2320 C   0  0  0  0  0  2  0  0  0  0  0  0
  184.6540  178.5350  142.2500 C   0  0  0  0  0  0  0  0  0  0  0  0
  184.1290  177.5030  141.8550 O   0  0  0  0  0  0  0  0  0  0  0  0
  183.3690  178.6280  144.3630 C   0  0  0  0  0  1  0  0  0  0  0  0
  185.7130  177.8780  144.4420 C   0  0  0  0  0  1  0  0  0  0  0  0
  185.1990  180.2360  143.9690 C   0  0  0  0  0  1  0  0  0  0  0  0
  184.7380  178.8090  143.7370 C   0  0  0  0  0  0  0  0  0  0  0  0
  1 12  1  0  0  0  0
  2  7  1  0  0  0  0
  2  1  1  0  0  0  0
  3  8  1  0  0  0  0
  4 11  1  0  0  0  0
  4  3  2  0  0  0  0
  5 11  1  0  0  0  0
  5  9  2  0  0  0  0
  6  5  1  0  0  0  0
  8  1  2  0  0  0  0
  9 10  1  0  0  0  0
 10  7  2  0  0  0  0
 10 19  1  0  0  0  0
 11  2  2  0  0  0  0
 12 18  2  0  0  0  0
 12 14  1  0  0  0  0
 14 15  2  0  0  0  0
 15 13  1  0  0  0  0
 16 13  2  0  0  0  0
 17 14  1  0  0  0  0
 18 16  1  0  0  0  0
 19 20  1  0  0  0  0
 20 25  1  0  0  0  0
 21 20  2  0  0  0  0
 25 24  1  0  0  0  0
 25 22  1  0  0  0  0
 25 23  1  0  0  0  0
M  END
>  <MODEL>
7

>  <REMARK>
 VINA RESULT:      -7.8      2.767      5.576
  Name = 
  4 active torsions:
  status: ('A' for Active; 'I' for Inactive)
    1  A    between atoms: C_1  and  C_5
    2  A    between atoms: C_6  and  C_15
    3  A    between atoms: C_6  and  C_23
    4  A    between atoms: C_15  and  C_21
                            x       y       z     vdW  Elec       q    Type
                         _______ _______ _______ _____ _____    ______ ____

>  <TORSDO>
F 4

$$$$
=
 OpenBabel10262419453D

 25 27  0  0  0  0  0  0  0  0999 V2000
  185.0220  178.5270  144.6410 C   0  0  0  0  0  0  0  0  0  0  0  0
  186.2870  177.9360  144.8220 C   0  0  0  0  0  0  0  0  0  0  0  0
  184.9300  179.0060  146.9680 C   0  0  0  0  0  3  0  0  0  0  0  0
  186.1480  178.4380  147.1590 N   0  0  0  0  0  0  0  0  0  0  0  0
  188.0850  177.2960  146.2970 C   0  0  0  0  0  0  0  0  0  0  0  0
  188.7220  177.2250  147.6430 C   0  0  0  0  0  1  0  0  0  0  0  0
  186.9710  177.3750  143.7900 N   0  0  0  0  0  0  0  0  0  0  0  0
  184.3810  179.0450  145.7260 N   0  0  0  0  0  0  0  0  0  0  0  0
  188.7280  176.7530  145.2300 N   0  0  0  0  0  0  0  0  0  0  0  0
  188.1830  176.7920  143.9850 C   0  0  0  0  0  0  0  0  0  0  0  0
  186.8340  177.9010  146.1160 C   0  0  0  0  0  0  0  0  0  0  0  0
  184.3700  178.6120  143.3090 C   0  0  0  0  0  0  0  0  0  0  0  0
  183.1720  178.8220  140.8000 C   0  0  0  0  0  3  0  0  0  0  0  0
  182.9670  178.6890  143.1660 C   0  0  0  0  0  0  0  0  0  0  0  0
  182.4140  178.7870  141.9270 N   0  0  0  0  0  0  0  0  0  0  0  0
  184.5610  178.7550  140.8910 C   0  0  0  0  0  3  0  0  0  0  0  0
  182.1090  178.6280  144.3020 N   0  0  0  0  0  1  0  0  0  0  0  0
  185.1550  178.6530  142.1480 C   0  0  0  0  0  3  0  0  0  0  0  0
  188.9020  176.1660  142.8390 C   0  0  0  0  0  2  0  0  0  0  0  0
  189.8230  177.1620  142.1950 C   0  0  0  0  0  0  0  0  0  0  0  0
  189.3900  177.8460  141.2780 O   0  0  0  0  0  0  0  0  0  0  0  0
  192.1680  177.5030  141.4800 C   0  0  0  0  0  1  0  0  0  0  0  0
  191.3880  178.6200  143.5300 C   0  0  0  0  0  1  0  0  0  0  0  0
  191.6840  176.1790  143.5060 C   0  0  0  0  0  1  0  0  0  0  0  0
  191.2440  177.3700  142.6760 C   0  0  0  0  0  0  0  0  0  0  0  0
  1  2  2  0  0  0  0
  1  8  1  0  0  0  0
  2 11  1  0  0  0  0
  3  4  1  0  0  0  0
  5  6  1  0  0  0  0
  7 10  2  0  0  0  0
  7  2  1  0  0  0  0
  8  3  2  0  0  0  0
  9  5  2  0  0  0  0
 10  9  1  0  0  0  0
 11  5  1  0  0  0  0
 11  4  2  0  0  0  0
 12  1  1  0  0  0  0
 13 16  2  0  0  0  0
 13 15  1  0  0  0  0
 14 12  1  0  0  0  0
 14 17  1  0  0  0  0
 15 14  2  0  0  0  0
 16 18  1  0  0  0  0
 18 12  2  0  0  0  0
 19 10  1  0  0  0  0
 20 25  1  0  0  0  0
 20 19  1  0  0  0  0
 21 20  2  0  0  0  0
 22 25  1  0  0  0  0
 25 24  1  0  0  0  0
 25 23  1  0  0  0  0
M  END
>  <MODEL>
8

>  <REMARK>
 VINA RESULT:      -7.7      1.334      4.513
  Name = 
  4 active torsions:
  status: ('A' for Active; 'I' for Inactive)
    1  A    between atoms: C_1  and  C_5
    2  A    between atoms: C_6  and  C_15
    3  A    between atoms: C_6  and  C_23
    4  A    between atoms: C_15  and  C_21
                            x       y       z     vdW  Elec       q    Type
                         _______ _______ _______ _____ _____    ______ ____

>  <TORSDO>
F 4

$$$$
=
 OpenBabel10262419453D

 25 27  0  0  0  0  0  0  0  0999 V2000
  189.5600  177.5240  141.9660 C   0  0  0  0  0  0  0  0  0  0  0  0
  188.5980  177.9110  141.0130 C   0  0  0  0  0  0  0  0  0  0  0  0
  191.1180  177.1330  140.2130 C   0  0  0  0  0  3  0  0  0  0  0  0
  190.2010  177.5020  139.2820 N   0  0  0  0  0  0  0  0  0  0  0  0
  187.9880  178.2550  138.7050 C   0  0  0  0  0  0  0  0  0  0  0  0
  188.2960  178.2510  137.2470 C   0  0  0  0  0  1  0  0  0  0  0  0
  187.3390  178.2750  141.3720 N   0  0  0  0  0  0  0  0  0  0  0  0
  190.7950  177.1450  141.5320 N   0  0  0  0  0  0  0  0  0  0  0  0
  186.7430  178.6130  139.1190 N   0  0  0  0  0  0  0  0  0  0  0  0
  186.4170  178.6290  140.4380 C   0  0  0  0  0  0  0  0  0  0  0  0
  188.9520  177.8870  139.6530 C   0  0  0  0  0  0  0  0  0  0  0  0
  189.2760  177.5240  143.4240 C   0  0  0  0  0  0  0  0  0  0  0  0
  188.6940  177.5480  146.1510 C   0  0  0  0  0  3  0  0  0  0  0  0
  190.0570  178.2640  144.3380 C   0  0  0  0  0  0  0  0  0  0  0  0
  189.7480  178.2520  145.6630 N   0  0  0  0  0  0  0  0  0  0  0  0
  187.8900  176.8060  145.2860 C   0  0  0  0  0  3  0  0  0  0  0  0
  191.1950  179.0020  143.9020 N   0  0  0  0  0  1  0  0  0  0  0  0
  188.1850  176.8000  143.9240 C   0  0  0  0  0  3  0  0  0  0  0  0
  185.0370  179.0030  140.8580 C   0  0  0  0  0  2  0  0  0  0  0  0
  184.1770  179.2620  139.6550 C   0  0  0  0  0  0  0  0  0  0  0  0
  184.2750  180.3440  139.0930 O   0  0  0  0  0  0  0  0  0  0  0  0
  181.9230  178.8650  138.7110 C   0  0  0  0  0  1  0  0  0  0  0  0
  183.8060  177.5200  137.8700 C   0  0  0  0  0  1  0  0  0  0  0  0
  182.9680  177.1560  140.1530 C   0  0  0  0  0  1  0  0  0  0  0  0
  183.2370  178.2130  139.0990 C   0  0  0  0  0  0  0  0  0  0  0  0
  1 12  1  0  0  0  0
  2  7  1  0  0  0  0
  2  1  2  0  0  0  0
  3  8  2  0  0  0  0
  4 11  2  0  0  0  0
  4  3  1  0  0  0  0
  5  9  2  0  0  0  0
  5 11  1  0  0  0  0
  6  5  1  0  0  0  0
  8  1  1  0  0  0  0
  9 10  1  0  0  0  0
 10 19  1  0  0  0  0
 10  7  2  0  0  0  0
 11  2  1  0  0  0  0
 12 18  2  0  0  0  0
 12 14  1  0  0  0  0
 14 15  2  0  0  0  0
 15 13  1  0  0  0  0
 16 13  2  0  0  0  0
 17 14  1  0  0  0  0
 18 16  1  0  0  0  0
 20 19  1  0  0  0  0
 21 20  2  0  0  0  0
 22 25  1  0  0  0  0
 23 25  1  0  0  0  0
 25 20  1  0  0  0  0
 25 24  1  0  0  0  0
M  END
>  <MODEL>
9

>  <REMARK>
 VINA RESULT:      -7.6      2.949      6.058
  Name = 
  4 active torsions:
  status: ('A' for Active; 'I' for Inactive)
    1  A    between atoms: C_1  and  C_5
    2  A    between atoms: C_6  and  C_15
    3  A    between atoms: C_6  and  C_23
    4  A    between atoms: C_15  and  C_21
                            x       y       z     vdW  Elec       q    Type
                         _______ _______ _______ _____ _____    ______ ____

>  <TORSDO>
F 4

$$$$
