=
 OpenBabel10262419363D

 31 35  0  0  1  0  0  0  0  0999 V2000
  185.2590  178.2520  144.3350 C   0  0  2  0  0  3  0  0  0  0  0  0
  188.8970  177.4670  143.3700 C   0  0  0  0  0  0  0  0  0  0  0  0
  189.5400  177.0990  144.7000 C   0  0  2  0  0  3  0  0  0  0  0  0
  189.1850  177.7440  147.1580 C   0  0  0  0  0  2  0  0  0  0  0  0
  187.5180  177.7630  143.2670 C   0  0  0  0  0  0  0  0  0  0  0  0
  184.6570  178.0390  142.9490 C   0  0  0  0  0  2  0  0  0  0  0  0
  189.3100  178.2280  145.7060 C   0  0  0  0  0  2  0  0  0  0  0  0
  189.1350  177.9350  140.9990 C   0  0  0  0  0  0  0  0  0  0  0  0
  185.3920  179.7290  144.6720 C   0  0  0  0  0  1  0  0  0  0  0  0
  191.4440  176.2320  143.3460 N   0  0  0  0  0  2  0  0  0  0  0  0
  189.9240  176.5120  147.4350 N   0  0  0  0  0  2  0  0  0  0  0  0
  187.8170  178.2540  140.9370 N   0  0  0  0  0  0  0  0  0  0  0  0
  189.6880  177.5050  142.2120 C   0  0  0  0  0  0  0  0  0  0  0  0
  186.6030  177.5380  144.4490 C   0  0  0  0  0  2  0  0  0  0  0  0
  191.3310  176.7000  147.1100 C   0  0  0  0  0  2  0  0  0  0  0  0
  186.9960  178.1590  142.0150 C   0  0  0  0  0  0  0  0  0  0  0  0
  185.5670  178.5960  141.8580 C   0  0  0  0  0  2  0  0  0  0  0  0
  191.0410  177.0570  142.2850 N   0  0  0  0  0  2  0  0  0  0  0  0
  191.0720  176.8860  144.5970 C   0  0  2  0  0  3  0  0  0  0  0  0
  191.6190  176.0600  145.7600 C   0  0  0  0  0  2  0  0  0  0  0  0
  189.9570  177.9910  139.7500 C   0  0  0  0  0  2  0  0  0  0  0  0
  188.9180  179.3860  138.1410 O   0  0  0  0  0  0  0  0  0  0  0  0
  189.0810  178.2080  138.5570 C   0  0  0  0  0  0  0  0  0  0  0  0
  187.2650  174.8330  136.6040 C   0  0  0  0  0  0  0  0  0  0  0  0
  189.1940  175.9450  137.5410 C   0  0  0  0  0  3  0  0  0  0  0  0
  186.1120  178.1660  137.9260 C   0  0  0  0  0  1  0  0  0  0  0  0
  186.5500  173.4490  135.8090 Cl  0  0  0  0  0  0  0  0  0  0  0  0
  188.6260  174.8390  136.9060 C   0  0  0  0  0  3  0  0  0  0  0  0
  187.0310  177.0450  137.5750 C   0  0  0  0  0  0  0  0  0  0  0  0
  188.4150  177.0620  137.8860 C   0  0  0  0  0  0  0  0  0  0  0  0
  186.4730  175.9310  136.9390 C   0  0  0  0  0  3  0  0  0  0  0  0
  1 14  1  0  0  0  0
  1  9  1  6  0  0  0
  2  3  1  0  0  0  0
  3  7  1  1  0  0  0
  4 11  1  0  0  0  0
  5  2  1  0  0  0  0
  5 14  1  0  0  0  0
  6  1  1  0  0  0  0
  7  4  1  0  0  0  0
  8 13  1  0  0  0  0
 10 19  1  0  0  0  0
 12  8  2  0  0  0  0
 12 16  1  0  0  0  0
 13 18  1  0  0  0  0
 13  2  2  0  0  0  0
 15 11  1  0  0  0  0
 16  5  2  0  0  0  0
 17 16  1  0  0  0  0
 17  6  1  0  0  0  0
 18 10  1  0  0  0  0
 19  3  1  0  0  0  0
 19 20  1  1  0  0  0
 20 15  1  0  0  0  0
 21  8  1  0  0  0  0
 22 23  2  0  0  0  0
 23 21  1  0  0  0  0
 24 28  2  0  0  0  0
 24 31  1  0  0  0  0
 25 30  2  0  0  0  0
 27 24  1  0  0  0  0
 28 25  1  0  0  0  0
 29 30  1  0  0  0  0
 29 26  1  0  0  0  0
 30 23  1  0  0  0  0
 31 29  2  0  0  0  0
M  END
>  <MODEL>
1

>  <REMARK>
 VINA RESULT:     -10.0      0.000      0.000
  Name = 
  3 active torsions:
  status: ('A' for Active; 'I' for Inactive)
    1  A    between atoms: C_9  and  C_22
    2  A    between atoms: C_9  and  C_23
    3  A    between atoms: C_15  and  C_23
                            x       y       z     vdW  Elec       q    Type
                         _______ _______ _______ _____ _____    ______ ____

>  <TORSDO>
F 3

$$$$
=
 OpenBabel10262419363D

 31 35  0  0  1  0  0  0  0  0999 V2000
  184.2900  178.4390  138.3940 C   0  0  2  0  0  3  0  0  0  0  0  0
  188.0030  177.5610  138.8750 C   0  0  0  0  0  0  0  0  0  0  0  0
  188.4030  176.9840  137.5240 C   0  0  2  0  0  3  0  0  0  0  0  0
  187.2180  175.6950  135.6480 C   0  0  0  0  0  2  0  0  0  0  0  0
  186.7090  178.0810  139.1070 C   0  0  0  0  0  0  0  0  0  0  0  0
  184.2010  179.4610  139.5230 C   0  0  0  0  0  2  0  0  0  0  0  0
  187.4550  175.8400  137.1590 C   0  0  0  0  0  2  0  0  0  0  0  0
  188.5630  178.0270  141.1910 C   0  0  0  0  0  0  0  0  0  0  0  0
  183.6570  177.1120  138.7810 C   0  0  0  0  0  1  0  0  0  0  0  0
  190.7550  177.2090  138.3160 N   0  0  0  0  0  2  0  0  0  0  0  0
  188.3440  176.1450  134.8280 N   0  0  0  0  0  2  0  0  0  0  0  0
  187.3020  178.4830  141.3970 N   0  0  0  0  0  0  0  0  0  0  0  0
  188.9430  177.5890  139.9160 C   0  0  0  0  0  0  0  0  0  0  0  0
  185.7410  178.2510  137.9580 C   0  0  0  0  0  2  0  0  0  0  0  0
  189.5460  175.4120  135.2000 C   0  0  0  0  0  2  0  0  0  0  0  0
  186.3810  178.5460  140.4000 C   0  0  0  0  0  0  0  0  0  0  0  0
  184.9930  179.0060  140.7470 C   0  0  0  0  0  2  0  0  0  0  0  0
  190.2900  177.2090  139.6390 N   0  0  0  0  0  2  0  0  0  0  0  0
  189.8410  176.4030  137.5130 C   0  0  2  0  0  3  0  0  0  0  0  0
  190.4060  176.2900  136.0980 C   0  0  0  0  0  2  0  0  0  0  0  0
  189.5440  178.0620  142.3200 C   0  0  0  0  0  2  0  0  0  0  0  0
  189.3230  175.7510  142.8000 O   0  0  0  0  0  0  0  0  0  0  0  0
  189.2970  176.9240  143.2600 C   0  0  0  0  0  0  0  0  0  0  0  0
  188.3810  177.6710  147.3960 C   0  0  0  0  0  0  0  0  0  0  0  0
  187.7010  177.4490  145.0900 C   0  0  0  0  0  3  0  0  0  0  0  0
  191.4580  176.8400  145.3890 C   0  0  0  0  0  1  0  0  0  0  0  0
  187.9830  177.9790  149.0720 Cl  0  0  0  0  0  0  0  0  0  0  0  0
  187.3810  177.6940  146.4250 C   0  0  0  0  0  3  0  0  0  0  0  0
  190.0320  177.1510  145.6950 C   0  0  0  0  0  0  0  0  0  0  0  0
  189.0220  177.1740  144.6990 C   0  0  0  0  0  0  0  0  0  0  0  0
  189.7000  177.3990  147.0310 C   0  0  0  0  0  3  0  0  0  0  0  0
  1  9  1  1  0  0  0
  1  6  1  0  0  0  0
  2  5  2  0  0  0  0
  2 13  1  0  0  0  0
  3  7  1  1  0  0  0
  3  2  1  0  0  0  0
  4  7  1  0  0  0  0
  5 16  1  0  0  0  0
  6 17  1  0  0  0  0
  8 12  1  0  0  0  0
  8 21  1  0  0  0  0
 10 18  1  0  0  0  0
 11 15  1  0  0  0  0
 11  4  1  0  0  0  0
 13  8  2  0  0  0  0
 14  1  1  0  0  0  0
 14  5  1  0  0  0  0
 15 20  1  0  0  0  0
 16 17  1  0  0  0  0
 16 12  2  0  0  0  0
 18 13  1  0  0  0  0
 19 20  1  6  0  0  0
 19  3  1  0  0  0  0
 19 10  1  0  0  0  0
 21 23  1  0  0  0  0
 22 23  2  0  0  0  0
 23 30  1  0  0  0  0
 24 27  1  0  0  0  0
 25 28  1  0  0  0  0
 26 29  1  0  0  0  0
 28 24  2  0  0  0  0
 29 31  2  0  0  0  0
 30 25  2  0  0  0  0
 30 29  1  0  0  0  0
 31 24  1  0  0  0  0
M  END
>  <MODEL>
2

>  <REMARK>
 VINA RESULT:      -9.9      3.394      7.678
  Name = 
  3 active torsions:
  status: ('A' for Active; 'I' for Inactive)
    1  A    between atoms: C_9  and  C_22
    2  A    between atoms: C_9  and  C_23
    3  A    between atoms: C_15  and  C_23
                            x       y       z     vdW  Elec       q    Type
                         _______ _______ _______ _____ _____    ______ ____

>  <TORSDO>
F 3

$$$$
=
 OpenBabel10262419363D

 31 35  0  0  1  0  0  0  0  0999 V2000
  187.4180  177.2510  136.3270 C   0  0  2  0  0  3  0  0  0  0  0  0
  190.6900  176.8820  138.3130 C   0  0  0  0  0  0  0  0  0  0  0  0
  191.6720  176.3590  137.2730 C   0  0  2  0  0  3  0  0  0  0  0  0
  191.5200  174.9170  135.1560 C   0  0  0  0  0  2  0  0  0  0  0  0
  189.3610  177.2240  137.9730 C   0  0  0  0  0  0  0  0  0  0  0  0
  186.7530  178.2550  137.2640 C   0  0  0  0  0  2  0  0  0  0  0  0
  191.1010  175.0970  136.6230 C   0  0  0  0  0  2  0  0  0  0  0  0
  190.1990  177.4260  140.6280 C   0  0  0  0  0  0  0  0  0  0  0  0
  186.8490  175.8520  136.5020 C   0  0  0  0  0  1  0  0  0  0  0  0
  193.4530  176.9010  138.9310 N   0  0  0  0  0  2  0  0  0  0  0  0
  192.8180  175.5120  134.8350 N   0  0  0  0  0  2  0  0  0  0  0  0
  188.9180  177.7080  140.2810 N   0  0  0  0  0  0  0  0  0  0  0  0
  191.1140  177.0390  139.6410 C   0  0  0  0  0  0  0  0  0  0  0  0
  188.9320  177.2580  136.5240 C   0  0  0  0  0  2  0  0  0  0  0  0
  193.8430  174.9480  135.7010 C   0  0  0  0  0  2  0  0  0  0  0  0
  188.4820  177.6440  138.9960 C   0  0  0  0  0  0  0  0  0  0  0  0
  187.0280  177.9140  138.7270 C   0  0  0  0  0  2  0  0  0  0  0  0
  192.4930  176.8430  139.9520 N   0  0  0  0  0  2  0  0  0  0  0  0
  193.0490  175.9770  137.8750 C   0  0  2  0  0  3  0  0  0  0  0  0
  194.1500  175.9360  136.8170 C   0  0  0  0  0  2  0  0  0  0  0  0
  190.6230  177.5950  142.0520 C   0  0  0  0  0  2  0  0  0  0  0  0
  190.2410  175.3740  142.7850 O   0  0  0  0  0  0  0  0  0  0  0  0
  189.9380  176.5890  142.9230 C   0  0  0  0  0  0  0  0  0  0  0  0
  186.9120  177.8240  145.7190 C   0  0  0  0  0  0  0  0  0  0  0  0
  187.5910  177.1600  143.4980 C   0  0  0  0  0  3  0  0  0  0  0  0
  190.6120  177.1310  145.8320 C   0  0  0  0  0  1  0  0  0  0  0  0
  185.6630  178.3240  146.8370 Cl  0  0  0  0  0  0  0  0  0  0  0  0
  186.5920  177.5600  144.3880 C   0  0  0  0  0  3  0  0  0  0  0  0
  189.2370  177.2840  145.2770 C   0  0  0  0  0  0  0  0  0  0  0  0
  188.9230  177.0150  143.9200 C   0  0  0  0  0  0  0  0  0  0  0  0
  188.2280  177.6840  146.1600 C   0  0  0  0  0  3  0  0  0  0  0  0
  1  9  1  1  0  0  0
  1 14  1  0  0  0  0
  1  6  1  0  0  0  0
  2 13  1  0  0  0  0
  3  7  1  1  0  0  0
  3 19  1  0  0  0  0
  3  2  1  0  0  0  0
  4  7  1  0  0  0  0
  5  2  2  0  0  0  0
  5 16  1  0  0  0  0
  6 17  1  0  0  0  0
  8 21  1  0  0  0  0
 10 18  1  0  0  0  0
 11  4  1  0  0  0  0
 11 15  1  0  0  0  0
 12  8  1  0  0  0  0
 13 18  1  0  0  0  0
 13  8  2  0  0  0  0
 14  5  1  0  0  0  0
 15 20  1  0  0  0  0
 16 12  2  0  0  0  0
 17 16  1  0  0  0  0
 19 20  1  6  0  0  0
 19 10  1  0  0  0  0
 21 23  1  0  0  0  0
 22 23  2  0  0  0  0
 23 30  1  0  0  0  0
 24 31  1  0  0  0  0
 24 27  1  0  0  0  0
 25 30  2  0  0  0  0
 25 28  1  0  0  0  0
 28 24  2  0  0  0  0
 29 26  1  0  0  0  0
 29 31  2  0  0  0  0
 30 29  1  0  0  0  0
M  END
>  <MODEL>
3

>  <REMARK>
 VINA RESULT:      -9.8      3.533      7.691
  Name = 
  3 active torsions:
  status: ('A' for Active; 'I' for Inactive)
    1  A    between atoms: C_9  and  C_22
    2  A    between atoms: C_9  and  C_23
    3  A    between atoms: C_15  and  C_23
                            x       y       z     vdW  Elec       q    Type
                         _______ _______ _______ _____ _____    ______ ____

>  <TORSDO>
F 3

$$$$
=
 OpenBabel10262419363D

 31 35  0  0  1  0  0  0  0  0999 V2000
  185.1440  178.2600  144.9930 C   0  0  2  0  0  3  0  0  0  0  0  0
  188.5810  177.6660  143.3750 C   0  0  0  0  0  0  0  0  0  0  0  0
  189.4300  177.1590  144.5330 C   0  0  2  0  0  3  0  0  0  0  0  0
  189.4730  177.5080  147.0750 C   0  0  0  0  0  2  0  0  0  0  0  0
  187.2040  177.9440  143.5290 C   0  0  0  0  0  0  0  0  0  0  0  0
  184.3280  178.1960  143.7050 C   0  0  0  0  0  2  0  0  0  0  0  0
  189.3630  178.1590  145.6890 C   0  0  0  0  0  2  0  0  0  0  0  0
  188.4350  178.4100  141.0680 C   0  0  0  0  0  0  0  0  0  0  0  0
  185.3280  179.6900  145.4760 C   0  0  0  0  0  1  0  0  0  0  0  0
  191.0930  176.4940  142.8010 N   0  0  0  0  0  2  0  0  0  0  0  0
  190.2500  176.2670  147.0840 N   0  0  0  0  0  2  0  0  0  0  0  0
  187.1240  178.7060  141.2550 N   0  0  0  0  0  0  0  0  0  0  0  0
  189.1760  177.8530  142.1180 C   0  0  0  0  0  0  0  0  0  0  0  0
  186.4900  177.5650  144.8060 C   0  0  0  0  0  2  0  0  0  0  0  0
  191.5850  176.5200  146.5640 C   0  0  0  0  0  2  0  0  0  0  0  0
  186.4870  178.4710  142.4310 C   0  0  0  0  0  0  0  0  0  0  0  0
  185.0510  178.8950  142.5560 C   0  0  0  0  0  2  0  0  0  0  0  0
  190.5240  177.4270  141.9230 N   0  0  0  0  0  2  0  0  0  0  0  0
  190.9260  176.9910  144.1630 C   0  0  2  0  0  3  0  0  0  0  0  0
  191.6540  176.0460  145.1190 C   0  0  0  0  0  2  0  0  0  0  0  0
  189.0460  178.6260  139.7200 C   0  0  0  0  0  2  0  0  0  0  0  0
  187.4690  177.1680  138.7180 O   0  0  0  0  0  0  0  0  0  0  0  0
  188.6800  177.5080  138.7960 C   0  0  0  0  0  0  0  0  0  0  0  0
  191.7450  175.4530  136.5840 C   0  0  0  0  0  0  0  0  0  0  0  0
  190.6540  176.0060  138.6670 C   0  0  0  0  0  3  0  0  0  0  0  0
  188.8600  177.7360  135.7750 C   0  0  0  0  0  1  0  0  0  0  0  0
  193.0000  174.6080  135.7070 Cl  0  0  0  0  0  0  0  0  0  0  0  0
  191.6570  175.3310  137.9700 C   0  0  0  0  0  3  0  0  0  0  0  0
  189.8190  176.9300  136.5840 C   0  0  0  0  0  0  0  0  0  0  0  0
  189.7220  176.8130  137.9950 C   0  0  0  0  0  0  0  0  0  0  0  0
  190.8280  176.2480  135.8960 C   0  0  0  0  0  3  0  0  0  0  0  0
  1  9  1  6  0  0  0
  2  5  1  0  0  0  0
  2  3  1  0  0  0  0
  3  7  1  1  0  0  0
  4 11  1  0  0  0  0
  5 14  1  0  0  0  0
  6  1  1  0  0  0  0
  7  4  1  0  0  0  0
  8 12  2  0  0  0  0
  8 13  1  0  0  0  0
 10 19  1  0  0  0  0
 12 16  1  0  0  0  0
 13  2  2  0  0  0  0
 14  1  1  0  0  0  0
 15 11  1  0  0  0  0
 16 17  1  0  0  0  0
 16  5  2  0  0  0  0
 17  6  1  0  0  0  0
 18 13  1  0  0  0  0
 18 10  1  0  0  0  0
 19  3  1  0  0  0  0
 19 20  1  1  0  0  0
 20 15  1  0  0  0  0
 21  8  1  0  0  0  0
 22 23  2  0  0  0  0
 23 21  1  0  0  0  0
 24 28  1  0  0  0  0
 26 29  1  0  0  0  0
 27 24  1  0  0  0  0
 28 25  2  0  0  0  0
 29 30  2  0  0  0  0
 30 25  1  0  0  0  0
 30 23  1  0  0  0  0
 31 29  1  0  0  0  0
 31 24  2  0  0  0  0
M  END
>  <MODEL>
4

>  <REMARK>
 VINA RESULT:      -9.6      1.814      2.109
  Name = 
  3 active torsions:
  status: ('A' for Active; 'I' for Inactive)
    1  A    between atoms: C_9  and  C_22
    2  A    between atoms: C_9  and  C_23
    3  A    between atoms: C_15  and  C_23
                            x       y       z     vdW  Elec       q    Type
                         _______ _______ _______ _____ _____    ______ ____

>  <TORSDO>
F 3

$$$$
=
 OpenBabel10262419363D

 31 35  0  0  1  0  0  0  0  0999 V2000
  185.2890  178.3070  146.5610 C   0  0  2  0  0  3  0  0  0  0  0  0
  187.6110  177.6720  143.5630 C   0  0  0  0  0  0  0  0  0  0  0  0
  188.8870  177.1540  144.2130 C   0  0  2  0  0  3  0  0  0  0  0  0
  190.0830  177.5010  146.4570 C   0  0  0  0  0  2  0  0  0  0  0  0
  186.4560  177.9670  144.3240 C   0  0  0  0  0  0  0  0  0  0  0  0
  183.9760  178.2550  145.7850 C   0  0  0  0  0  2  0  0  0  0  0  0
  189.3630  178.1550  145.2680 C   0  0  0  0  0  2  0  0  0  0  0  0
  186.4420  178.4180  141.5700 C   0  0  0  0  0  0  0  0  0  0  0  0
  185.6880  179.7350  146.9010 C   0  0  0  0  0  1  0  0  0  0  0  0
  189.5750  176.4690  141.9180 N   0  0  0  0  0  2  0  0  0  0  0  0
  190.7650  176.2510  146.1190 N   0  0  0  0  0  2  0  0  0  0  0  0
  185.3620  178.7310  142.3300 N   0  0  0  0  0  0  0  0  0  0  0  0
  187.5730  177.8520  142.1720 C   0  0  0  0  0  0  0  0  0  0  0  0
  186.3960  177.5960  145.7880 C   0  0  0  0  0  2  0  0  0  0  0  0
  191.7220  176.4880  145.0480 C   0  0  0  0  0  2  0  0  0  0  0  0
  185.3250  178.5030  143.6680 C   0  0  0  0  0  0  0  0  0  0  0  0
  184.1060  178.9450  144.4290 C   0  0  0  0  0  2  0  0  0  0  0  0
  188.6800  177.4100  141.3890 N   0  0  0  0  0  2  0  0  0  0  0  0
  190.0500  176.9680  143.2050 C   0  0  2  0  0  3  0  0  0  0  0  0
  191.1220  176.0140  143.7310 C   0  0  0  0  0  2  0  0  0  0  0  0
  186.3770  178.6280  140.0900 C   0  0  0  0  0  2  0  0  0  0  0  0
  184.5550  180.0910  139.6930 O   0  0  0  0  0  0  0  0  0  0  0  0
  184.9690  178.9010  139.6630 C   0  0  0  0  0  0  0  0  0  0  0  0
  182.3420  175.7010  138.4950 C   0  0  0  0  0  0  0  0  0  0  0  0
  183.0440  177.3870  140.0760 C   0  0  0  0  0  3  0  0  0  0  0  0
  185.2860  177.5030  136.9880 C   0  0  0  0  0  1  0  0  0  0  0  0
  181.2600  174.4030  138.0430 Cl  0  0  0  0  0  0  0  0  0  0  0  0
  182.1800  176.3510  139.7190 C   0  0  0  0  0  3  0  0  0  0  0  0
  184.2370  177.1270  137.9790 C   0  0  0  0  0  0  0  0  0  0  0  0
  184.0820  177.7940  139.2220 C   0  0  0  0  0  0  0  0  0  0  0  0
  183.3650  176.0910  137.6300 C   0  0  0  0  0  3  0  0  0  0  0  0
  1  9  1  6  0  0  0
  2  3  1  0  0  0  0
  2  5  1  0  0  0  0
  3  7  1  1  0  0  0
  5 14  1  0  0  0  0
  6  1  1  0  0  0  0
  7  4  1  0  0  0  0
  8 13  1  0  0  0  0
  8 12  2  0  0  0  0
 10 19  1  0  0  0  0
 11  4  1  0  0  0  0
 12 16  1  0  0  0  0
 13  2  2  0  0  0  0
 14  1  1  0  0  0  0
 15 11  1  0  0  0  0
 16  5  2  0  0  0  0
 16 17  1  0  0  0  0
 17  6  1  0  0  0  0
 18 10  1  0  0  0  0
 18 13  1  0  0  0  0
 19 20  1  1  0  0  0
 19  3  1  0  0  0  0
 20 15  1  0  0  0  0
 21  8  1  0  0  0  0
 23 22  2  0  0  0  0
 23 21  1  0  0  0  0
 24 28  1  0  0  0  0
 26 29  1  0  0  0  0
 27 24  1  0  0  0  0
 28 25  2  0  0  0  0
 29 30  2  0  0  0  0
 30 23  1  0  0  0  0
 30 25  1  0  0  0  0
 31 29  1  0  0  0  0
 31 24  2  0  0  0  0
M  END
>  <MODEL>
5

>  <REMARK>
 VINA RESULT:      -9.4      2.391      3.330
  Name = 
  3 active torsions:
  status: ('A' for Active; 'I' for Inactive)
    1  A    between atoms: C_9  and  C_22
    2  A    between atoms: C_9  and  C_23
    3  A    between atoms: C_15  and  C_23
                            x       y       z     vdW  Elec       q    Type
                         _______ _______ _______ _____ _____    ______ ____

>  <TORSDO>
F 3

$$$$
=
 OpenBabel10262419363D

 31 35  0  0  1  0  0  0  0  0999 V2000
  184.5910  178.3390  138.0880 C   0  0  2  0  0  3  0  0  0  0  0  0
  188.2010  177.6320  139.2080 C   0  0  0  0  0  0  0  0  0  0  0  0
  188.8420  177.0320  137.9640 C   0  0  2  0  0  3  0  0  0  0  0  0
  188.0340  175.6400  135.9650 C   0  0  0  0  0  2  0  0  0  0  0  0
  186.8680  178.1050  139.2030 C   0  0  0  0  0  0  0  0  0  0  0  0
  184.2770  179.3900  139.1490 C   0  0  0  0  0  2  0  0  0  0  0  0
  188.0090  175.8400  137.4880 C   0  0  0  0  0  2  0  0  0  0  0  0
  188.3500  178.1910  141.5670 C   0  0  0  0  0  0  0  0  0  0  0  0
  183.9510  176.9980  138.4130 C   0  0  0  0  0  1  0  0  0  0  0  0
  191.0190  177.3800  139.1250 N   0  0  0  0  0  2  0  0  0  0  0  0
  189.2630  176.1120  135.3270 N   0  0  0  0  0  2  0  0  0  0  0  0
  187.0560  178.5990  141.5440 N   0  0  0  0  0  0  0  0  0  0  0  0
  188.9530  177.7310  140.3880 C   0  0  0  0  0  0  0  0  0  0  0  0
  186.1000  178.1990  137.9050 C   0  0  0  0  0  2  0  0  0  0  0  0
  190.4120  175.4410  135.9190 C   0  0  0  0  0  2  0  0  0  0  0  0
  186.3130  178.5930  140.4070 C   0  0  0  0  0  0  0  0  0  0  0  0
  184.8700  179.0040  140.5020 C   0  0  0  0  0  2  0  0  0  0  0  0
  190.3400  177.4000  140.3520 N   0  0  0  0  0  2  0  0  0  0  0  0
  190.2810  176.5120  138.2110 C   0  0  2  0  0  3  0  0  0  0  0  0
  191.0780  176.3810  136.9150 C   0  0  0  0  0  2  0  0  0  0  0  0
  189.1270  178.2990  142.8400 C   0  0  0  0  0  2  0  0  0  0  0  0
  188.1880  176.1630  143.2540 O   0  0  0  0  0  0  0  0  0  0  0  0
  189.0280  177.0270  143.6210 C   0  0  0  0  0  0  0  0  0  0  0  0
  191.6310  176.3050  146.9700 C   0  0  0  0  0  0  0  0  0  0  0  0
  191.1940  176.2970  144.5940 C   0  0  0  0  0  3  0  0  0  0  0  0
  188.1300  177.6000  146.4630 C   0  0  0  0  0  1  0  0  0  0  0  0
  192.7080  176.0030  148.3140 Cl  0  0  0  0  0  0  0  0  0  0  0  0
  192.0550  176.0550  145.6650 C   0  0  0  0  0  3  0  0  0  0  0  0
  189.4750  177.0450  146.1350 C   0  0  0  0  0  0  0  0  0  0  0  0
  189.8970  176.7930  144.8040 C   0  0  0  0  0  0  0  0  0  0  0  0
  190.3470  176.7990  147.2010 C   0  0  0  0  0  3  0  0  0  0  0  0
  1  9  1  1  0  0  0
  1  6  1  0  0  0  0
  2 13  1  0  0  0  0
  3  7  1  1  0  0  0
  3 19  1  0  0  0  0
  3  2  1  0  0  0  0
  4  7  1  0  0  0  0
  5  2  2  0  0  0  0
  5 16  1  0  0  0  0
  6 17  1  0  0  0  0
  8 21  1  0  0  0  0
 10 18  1  0  0  0  0
 11 15  1  0  0  0  0
 11  4  1  0  0  0  0
 12  8  1  0  0  0  0
 13  8  2  0  0  0  0
 14  1  1  0  0  0  0
 14  5  1  0  0  0  0
 15 20  1  0  0  0  0
 16 17  1  0  0  0  0
 16 12  2  0  0  0  0
 18 13  1  0  0  0  0
 19 20  1  6  0  0  0
 19 10  1  0  0  0  0
 21 23  1  0  0  0  0
 22 23  2  0  0  0  0
 23 30  1  0  0  0  0
 24 31  1  0  0  0  0
 24 27  1  0  0  0  0
 25 30  2  0  0  0  0
 25 28  1  0  0  0  0
 28 24  2  0  0  0  0
 29 26  1  0  0  0  0
 29 31  2  0  0  0  0
 30 29  1  0  0  0  0
M  END
>  <MODEL>
6

>  <REMARK>
 VINA RESULT:      -9.3      3.458      7.494
  Name = 
  3 active torsions:
  status: ('A' for Active; 'I' for Inactive)
    1  A    between atoms: C_9  and  C_22
    2  A    between atoms: C_9  and  C_23
    3  A    between atoms: C_15  and  C_23
                            x       y       z     vdW  Elec       q    Type
                         _______ _______ _______ _____ _____    ______ ____

>  <TORSDO>
F 3

$$$$
=
 OpenBabel10262419363D

 31 35  0  0  1  0  0  0  0  0999 V2000
  179.5130  178.1300  141.6950 C   0  0  2  0  0  3  0  0  0  0  0  0
  183.3200  178.6550  141.5890 C   0  0  0  0  0  0  0  0  0  0  0  0
  183.6750  178.3490  140.1400 C   0  0  2  0  0  3  0  0  0  0  0  0
  182.7380  176.8310  138.2950 C   0  0  0  0  0  2  0  0  0  0  0  0
  181.9820  178.6460  142.0440 C   0  0  0  0  0  0  0  0  0  0  0  0
  179.2510  178.9760  142.9380 C   0  0  0  0  0  2  0  0  0  0  0  0
  183.1490  176.9610  139.7700 C   0  0  0  0  0  2  0  0  0  0  0  0
  184.0470  179.1540  143.8520 C   0  0  0  0  0  0  0  0  0  0  0  0
  179.4650  176.6410  142.0040 C   0  0  0  0  0  1  0  0  0  0  0  0
  185.8890  179.3780  140.6430 N   0  0  0  0  0  2  0  0  0  0  0  0
  183.4810  177.7130  137.3950 N   0  0  0  0  0  2  0  0  0  0  0  0
  182.7570  179.0990  144.2700 N   0  0  0  0  0  0  0  0  0  0  0  0
  184.3450  178.9650  142.4960 C   0  0  0  0  0  0  0  0  0  0  0  0
  180.8440  178.5160  141.0570 C   0  0  0  0  0  2  0  0  0  0  0  0
  184.9080  177.4540  137.5220 C   0  0  0  0  0  2  0  0  0  0  0  0
  181.7250  178.8780  143.4140 C   0  0  0  0  0  0  0  0  0  0  0  0
  180.3400  178.7710  143.9870 C   0  0  0  0  0  2  0  0  0  0  0  0
  185.6750  179.1260  142.0060 N   0  0  0  0  0  2  0  0  0  0  0  0
  185.2030  178.3420  139.8760 C   0  0  2  0  0  3  0  0  0  0  0  0
  185.5340  178.5310  138.3970 C   0  0  0  0  0  2  0  0  0  0  0  0
  185.1210  179.4780  144.8410 C   0  0  0  0  0  2  0  0  0  0  0  0
  184.7730  177.5760  146.2110 O   0  0  0  0  0  0  0  0  0  0  0  0
  185.5970  178.2330  145.5210 C   0  0  0  0  0  0  0  0  0  0  0  0
  189.6620  176.9170  145.0170 C   0  0  0  0  0  0  0  0  0  0  0  0
  187.4570  177.3530  144.1300 C   0  0  0  0  0  3  0  0  0  0  0  0
  187.5550  178.2530  147.8390 C   0  0  0  0  0  1  0  0  0  0  0  0
  191.3090  176.3770  144.7860 Cl  0  0  0  0  0  0  0  0  0  0  0  0
  188.7710  176.9220  143.9430 C   0  0  0  0  0  3  0  0  0  0  0  0
  187.9230  177.7820  146.4730 C   0  0  0  0  0  0  0  0  0  0  0  0
  187.0090  177.7890  145.3880 C   0  0  0  0  0  0  0  0  0  0  0  0
  189.2380  177.3480  146.2740 C   0  0  0  0  0  3  0  0  0  0  0  0
  1  9  1  1  0  0  0
  1  6  1  0  0  0  0
  2  5  2  0  0  0  0
  2 13  1  0  0  0  0
  3  7  1  1  0  0  0
  3  2  1  0  0  0  0
  4  7  1  0  0  0  0
  5 16  1  0  0  0  0
  6 17  1  0  0  0  0
  8 12  1  0  0  0  0
  8 21  1  0  0  0  0
 10 18  1  0  0  0  0
 11 15  1  0  0  0  0
 11  4  1  0  0  0  0
 13  8  2  0  0  0  0
 14  1  1  0  0  0  0
 14  5  1  0  0  0  0
 15 20  1  0  0  0  0
 16 17  1  0  0  0  0
 16 12  2  0  0  0  0
 18 13  1  0  0  0  0
 19 20  1  6  0  0  0
 19  3  1  0  0  0  0
 19 10  1  0  0  0  0
 21 23  1  0  0  0  0
 23 22  2  0  0  0  0
 24 31  1  0  0  0  0
 25 30  2  0  0  0  0
 27 24  1  0  0  0  0
 28 25  1  0  0  0  0
 28 24  2  0  0  0  0
 29 26  1  0  0  0  0
 30 23  1  0  0  0  0
 30 29  1  0  0  0  0
 31 29  2  0  0  0  0
M  END
>  <MODEL>
7

>  <REMARK>
 VINA RESULT:      -9.3      3.952      8.029
  Name = 
  3 active torsions:
  status: ('A' for Active; 'I' for Inactive)
    1  A    between atoms: C_9  and  C_22
    2  A    between atoms: C_9  and  C_23
    3  A    between atoms: C_15  and  C_23
                            x       y       z     vdW  Elec       q    Type
                         _______ _______ _______ _____ _____    ______ ____

>  <TORSDO>
F 3

$$$$
=
 OpenBabel10262419363D

 31 35  0  0  1  0  0  0  0  0999 V2000
  190.7970  177.7530  144.7290 C   0  0  2  0  0  3  0  0  0  0  0  0
  187.5970  178.3120  142.6730 C   0  0  0  0  0  0  0  0  0  0  0  0
  186.5380  178.5710  143.7360 C   0  0  2  0  0  3  0  0  0  0  0  0
  186.1530  177.8430  146.1670 C   0  0  0  0  0  2  0  0  0  0  0  0
  188.9570  178.1230  143.0080 C   0  0  0  0  0  0  0  0  0  0  0  0
  191.7850  178.0730  143.6110 C   0  0  0  0  0  2  0  0  0  0  0  0
  186.5330  177.4170  144.7410 C   0  0  0  0  0  2  0  0  0  0  0  0
  188.1590  177.9370  140.3400 C   0  0  0  0  0  0  0  0  0  0  0  0
  190.6880  176.2570  144.9770 C   0  0  0  0  0  1  0  0  0  0  0  0
  185.0930  179.3570  141.8650 N   0  0  0  0  0  2  0  0  0  0  0  0
  185.2630  179.0030  146.2190 N   0  0  0  0  0  2  0  0  0  0  0  0
  189.4500  177.7190  140.6950 N   0  0  0  0  0  0  0  0  0  0  0  0
  187.2170  178.2690  141.3230 C   0  0  0  0  0  0  0  0  0  0  0  0
  189.4300  178.3610  144.4240 C   0  0  0  0  0  2  0  0  0  0  0  0
  184.0510  178.7270  145.4590 C   0  0  0  0  0  2  0  0  0  0  0  0
  189.8780  177.8240  141.9790 C   0  0  0  0  0  0  0  0  0  0  0  0
  191.3160  177.5010  142.2760 C   0  0  0  0  0  2  0  0  0  0  0  0
  185.8780  178.6130  140.9710 N   0  0  0  0  0  2  0  0  0  0  0  0
  185.1040  178.6750  143.1560 C   0  0  2  0  0  3  0  0  0  0  0  0
  184.1510  179.4050  144.1000 C   0  0  0  0  0  2  0  0  0  0  0  0
  187.7800  177.8780  138.8940 C   0  0  0  0  0  2  0  0  0  0  0  0
  189.0550  179.6480  137.9690 O   0  0  0  0  0  0  0  0  0  0  0  0
  188.8930  178.4000  138.0420 C   0  0  0  0  0  0  0  0  0  0  0  0
  191.5350  175.7040  135.9800 C   0  0  0  0  0  0  0  0  0  0  0  0
  190.9240  176.9750  137.9410 C   0  0  0  0  0  3  0  0  0  0  0  0
  188.3190  177.5030  135.2000 C   0  0  0  0  0  1  0  0  0  0  0  0
  192.6260  174.6070  135.1630 Cl  0  0  0  0  0  0  0  0  0  0  0  0
  191.7960  176.0990  137.2920 C   0  0  0  0  0  3  0  0  0  0  0  0
  189.5220  177.0600  135.9620 C   0  0  0  0  0  0  0  0  0  0  0  0
  189.7790  177.4690  137.2960 C   0  0  0  0  0  0  0  0  0  0  0  0
  190.4030  176.1820  135.3210 C   0  0  0  0  0  3  0  0  0  0  0  0
  1  9  1  6  0  0  0
  2  5  1  0  0  0  0
  2  3  1  0  0  0  0
  3  7  1  1  0  0  0
  4 11  1  0  0  0  0
  5 14  1  0  0  0  0
  6  1  1  0  0  0  0
  7  4  1  0  0  0  0
  8 12  2  0  0  0  0
  8 13  1  0  0  0  0
 10 19  1  0  0  0  0
 12 16  1  0  0  0  0
 13  2  2  0  0  0  0
 14  1  1  0  0  0  0
 15 11  1  0  0  0  0
 16 17  1  0  0  0  0
 16  5  2  0  0  0  0
 17  6  1  0  0  0  0
 18 13  1  0  0  0  0
 18 10  1  0  0  0  0
 19  3  1  0  0  0  0
 19 20  1  1  0  0  0
 20 15  1  0  0  0  0
 21  8  1  0  0  0  0
 22 23  2  0  0  0  0
 23 21  1  0  0  0  0
 24 28  1  0  0  0  0
 26 29  1  0  0  0  0
 27 24  1  0  0  0  0
 28 25  2  0  0  0  0
 29 30  2  0  0  0  0
 30 25  1  0  0  0  0
 30 23  1  0  0  0  0
 31 29  1  0  0  0  0
 31 24  2  0  0  0  0
M  END
>  <MODEL>
8

>  <REMARK>
 VINA RESULT:      -9.3      2.267      4.500
  Name = 
  3 active torsions:
  status: ('A' for Active; 'I' for Inactive)
    1  A    between atoms: C_9  and  C_22
    2  A    between atoms: C_9  and  C_23
    3  A    between atoms: C_15  and  C_23
                            x       y       z     vdW  Elec       q    Type
                         _______ _______ _______ _____ _____    ______ ____

>  <TORSDO>
F 3

$$$$
=
 OpenBabel10262419363D

 31 35  0  0  1  0  0  0  0  0999 V2000
  185.9590  178.0350  146.9370 C   0  0  2  0  0  3  0  0  0  0  0  0
  187.2730  177.9190  143.3260 C   0  0  0  0  0  0  0  0  0  0  0  0
  188.7020  177.4180  143.4890 C   0  0  2  0  0  3  0  0  0  0  0  0
  190.5150  177.5820  145.2980 C   0  0  0  0  0  2  0  0  0  0  0  0
  186.3970  178.0410  144.4290 C   0  0  0  0  0  0  0  0  0  0  0  0
  184.4740  177.9820  146.5890 C   0  0  0  0  0  2  0  0  0  0  0  0
  189.4460  178.3190  144.4770 C   0  0  0  0  0  2  0  0  0  0  0  0
  185.5290  178.8110  141.8910 C   0  0  0  0  0  0  0  0  0  0  0  0
  186.3990  179.4370  147.3290 C   0  0  0  0  0  1  0  0  0  0  0  0
  188.6770  177.0570  141.0240 N   0  0  0  0  0  2  0  0  0  0  0  0
  191.0990  176.4310  144.6090 N   0  0  0  0  0  2  0  0  0  0  0  0
  184.7230  178.9570  142.9730 N   0  0  0  0  0  0  0  0  0  0  0  0
  186.8060  178.2580  142.0470 C   0  0  0  0  0  0  0  0  0  0  0  0
  186.7980  177.4980  145.7810 C   0  0  0  0  0  2  0  0  0  0  0  0
  191.6750  176.8580  143.3420 C   0  0  0  0  0  2  0  0  0  0  0  0
  185.1040  178.5710  144.2190 C   0  0  0  0  0  0  0  0  0  0  0  0
  184.1630  178.8340  145.3610 C   0  0  0  0  0  2  0  0  0  0  0  0
  187.6340  177.9890  140.9160 N   0  0  0  0  0  2  0  0  0  0  0  0
  189.5070  177.4330  142.1640 C   0  0  2  0  0  3  0  0  0  0  0  0
  190.7170  176.5010  142.2140 C   0  0  0  0  0  2  0  0  0  0  0  0
  185.0090  179.1880  140.5400 C   0  0  0  0  0  2  0  0  0  0  0  0
  183.5900  177.2950  140.3920 O   0  0  0  0  0  0  0  0  0  0  0  0
  183.6780  178.5490  140.2960 C   0  0  0  0  0  0  0  0  0  0  0  0
  180.3090  180.9760  139.1740 C   0  0  0  0  0  0  0  0  0  0  0  0
  182.5230  180.1090  138.7470 C   0  0  0  0  0  3  0  0  0  0  0  0
  181.1930  178.6870  142.0310 C   0  0  0  0  0  1  0  0  0  0  0  0
  178.9530  181.9710  138.6950 Cl  0  0  0  0  0  0  0  0  0  0  0  0
  181.4420  180.9040  138.3630 C   0  0  0  0  0  3  0  0  0  0  0  0
  181.3360  179.4530  140.7590 C   0  0  0  0  0  0  0  0  0  0  0  0
  182.4930  179.3730  139.9430 C   0  0  0  0  0  0  0  0  0  0  0  0
  180.2580  180.2520  140.3650 C   0  0  0  0  0  3  0  0  0  0  0  0
  1  9  1  6  0  0  0
  2  3  1  0  0  0  0
  2  5  1  0  0  0  0
  3  7  1  1  0  0  0
  5 14  1  0  0  0  0
  6  1  1  0  0  0  0
  7  4  1  0  0  0  0
  8 13  1  0  0  0  0
  8 12  2  0  0  0  0
 10 19  1  0  0  0  0
 11  4  1  0  0  0  0
 12 16  1  0  0  0  0
 13  2  2  0  0  0  0
 14  1  1  0  0  0  0
 15 11  1  0  0  0  0
 16  5  2  0  0  0  0
 16 17  1  0  0  0  0
 17  6  1  0  0  0  0
 18 10  1  0  0  0  0
 18 13  1  0  0  0  0
 19 20  1  1  0  0  0
 19  3  1  0  0  0  0
 20 15  1  0  0  0  0
 21  8  1  0  0  0  0
 23 22  2  0  0  0  0
 23 21  1  0  0  0  0
 24 31  1  0  0  0  0
 25 30  2  0  0  0  0
 27 24  1  0  0  0  0
 28 25  1  0  0  0  0
 28 24  2  0  0  0  0
 29 26  1  0  0  0  0
 30 23  1  0  0  0  0
 30 29  1  0  0  0  0
 31 29  2  0  0  0  0
M  END
>  <MODEL>
9

>  <REMARK>
 VINA RESULT:      -9.3      3.629      5.283
  Name = 
  3 active torsions:
  status: ('A' for Active; 'I' for Inactive)
    1  A    between atoms: C_9  and  C_22
    2  A    between atoms: C_9  and  C_23
    3  A    between atoms: C_15  and  C_23
                            x       y       z     vdW  Elec       q    Type
                         _______ _______ _______ _____ _____    ______ ____

>  <TORSDO>
F 3

$$$$
