=
 OpenBabel10262422313D

 43 46  0  0  1  0  0  0  0  0999 V2000
  185.2250  178.8750  138.5500 C   0  0  0  0  0  1  0  0  0  0  0  0
  184.1810  178.8770  142.2110 C   0  0  0  0  0  0  0  0  0  0  0  0
  186.5520  178.6150  140.7010 C   0  0  0  0  0  0  0  0  0  0  0  0
  184.2090  178.7160  145.0750 C   0  0  0  0  0  0  0  0  0  0  0  0
  185.5360  178.6110  144.3690 C   0  0  2  0  0  3  0  0  0  0  0  0
  184.1640  179.0460  146.2500 O   0  0  0  0  0  0  0  0  0  0  0  0
  186.5810  178.5550  142.0930 C   0  0  0  0  0  3  0  0  0  0  0  0
  185.4190  178.6750  142.8580 C   0  0  0  0  0  0  0  0  0  0  0  0
  182.9400  179.1510  143.0260 C   0  0  0  0  0  2  0  0  0  0  0  0
  184.1270  178.9370  140.8030 C   0  0  0  0  0  0  0  0  0  0  0  0
  185.3120  178.8060  140.0420 C   0  0  0  0  0  0  0  0  0  0  0  0
  182.9500  178.3940  144.3440 C   0  0  0  0  0  2  0  0  0  0  0  0
  182.8020  179.1330  140.1130 C   0  0  0  0  0  2  0  0  0  0  0  0
  181.7640  175.5290  139.5840 C   0  0  0  0  0  3  0  0  0  0  0  0
  180.4800  175.5170  140.1390 C   0  0  0  0  0  0  0  0  0  0  0  0
  180.7140  177.8700  140.6880 C   0  0  0  0  0  3  0  0  0  0  0  0
  182.5210  176.7030  139.5780 C   0  0  0  0  0  3  0  0  0  0  0  0
  181.9970  177.8750  140.1310 C   0  0  0  0  0  0  0  0  0  0  0  0
  179.9580  176.6970  140.6930 C   0  0  0  0  0  3  0  0  0  0  0  0
  179.7500  174.3260  140.1260 O   0  0  0  0  0  0  0  0  0  0  0  0
  179.2760  173.7030  141.3120 C   0  0  0  0  0  1  0  0  0  0  0  0
  187.8100  178.4640  140.0230 N   0  0  0  0  0  2  0  0  0  0  0  0
  188.7430  177.3560  140.1570 C   0  0  0  0  0  2  0  0  0  0  0  0
  189.4090  177.0830  138.8210 C   0  0  1  0  0  3  0  0  0  0  0  0
  189.3800  178.3370  137.9710 C   0  0  0  0  0  1  0  0  0  0  0  0
  190.8570  176.6570  139.0450 C   0  0  0  0  0  2  0  0  0  0  0  0
  191.2380  175.4240  138.3430 N   0  0  0  0  0  0  0  0  0  0  0  0
  192.7840  175.5710  137.5470 S   0  0  0  0  0  0  0  0  0  0  0  0
  192.5960  175.7900  136.0710 O   0  0  0  0  0  0  0  0  0  0  0  0
  193.5260  176.7440  138.1250 O   0  0  0  0  0  0  0  0  0  0  0  0
  193.7010  174.1170  137.7920 N   0  0  0  0  0  0  0  0  0  0  0  0
  196.0390  173.3000  138.1180 C   0  0  0  0  0  2  0  0  0  0  0  0
  194.3940  172.0100  136.7040 C   0  0  0  0  0  2  0  0  0  0  0  0
  195.3010  171.9720  137.9370 C   0  0  0  0  0  2  0  0  0  0  0  0
  193.6820  173.3590  136.5410 C   0  0  0  0  0  2  0  0  0  0  0  0
  195.0860  174.5060  138.0820 C   0  0  0  0  0  2  0  0  0  0  0  0
  190.1870  174.9200  137.4500 C   0  0  0  0  0  2  0  0  0  0  0  0
  188.9450  173.1840  136.8840 C   0  0  0  0  0  1  0  0  0  0  0  0
  190.2160  173.5260  137.3450 O   0  0  0  0  0  0  0  0  0  0  0  0
  186.3280  177.3920  144.8520 C   0  0  0  0  0  2  0  0  0  0  0  0
  187.6070  177.7840  145.5860 C   0  0  0  0  0  2  0  0  0  0  0  0
  188.8220  177.1990  144.8860 C   0  0  0  0  0  2  0  0  0  0  0  0
  189.9470  178.2180  144.8340 C   0  0  0  0  0  1  0  0  0  0  0  0
  1 11  1  0  0  0  0
  2  8  1  0  0  0  0
  2  9  1  0  0  0  0
  3  7  1  0  0  0  0
  4  6  2  0  0  0  0
  5 40  1  6  0  0  0
  5  4  1  0  0  0  0
  7  8  2  0  0  0  0
  8  5  1  0  0  0  0
  9 12  1  0  0  0  0
 10  2  2  0  0  0  0
 11  3  2  0  0  0  0
 11 10  1  0  0  0  0
 12  4  1  0  0  0  0
 13 18  1  0  0  0  0
 13 10  1  0  0  0  0
 14 15  1  0  0  0  0
 15 19  2  0  0  0  0
 16 19  1  0  0  0  0
 17 14  2  0  0  0  0
 17 18  1  0  0  0  0
 18 16  2  0  0  0  0
 20 15  1  0  0  0  0
 20 21  1  0  0  0  0
 22 23  1  0  0  0  0
 22  3  1  0  0  0  0
 24 25  1  6  0  0  0
 24 26  1  0  0  0  0
 24 23  1  0  0  0  0
 27 26  1  0  0  0  0
 28 31  1  0  0  0  0
 28 30  2  0  0  0  0
 28 27  1  0  0  0  0
 29 28  2  0  0  0  0
 31 36  1  0  0  0  0
 33 34  1  0  0  0  0
 34 32  1  0  0  0  0
 35 33  1  0  0  0  0
 35 31  1  0  0  0  0
 36 32  1  0  0  0  0
 37 27  1  0  0  0  0
 38 39  1  0  0  0  0
 39 37  1  0  0  0  0
 40 41  1  0  0  0  0
 42 41  1  0  0  0  0
 43 42  1  0  0  0  0
M  END
>  <MODEL>
1

>  <REMARK>
 VINA RESULT:      -8.2      0.000      0.000
  Name = 
  15 active torsions:
  status: ('A' for Active; 'I' for Inactive)
    1  A    between atoms: C_1  and  C_34
    2  A    between atoms: C_1  and  C_35
    3  A    between atoms: N_2  and  C_6
    4  A    between atoms: N_2  and  C_13
    5  A    between atoms: C_3  and  N_4
    6  A    between atoms: C_3  and  C_12
    7  A    between atoms: N_4  and  S_14
    8  A    between atoms: N_4  and  C_42
    9  A    between atoms: C_5  and  C_18
   10  A    between atoms: C_6  and  C_12
   11  A    between atoms: N_11  and  S_14
   12  A    between atoms: O_15  and  C_42
   13  A    between atoms: C_18  and  C_24
   14  A    between atoms: C_19  and  O_25
   15  A    between atoms: C_21  and  C_24
                            x       y       z     vdW  Elec       q    Type
                         _______ _______ _______ _____ _____    ______ ____

>  <TORSDO>
F 15

$$$$
=
 OpenBabel10262422313D

 43 46  0  0  1  0  0  0  0  0999 V2000
  184.7390  178.7930  138.5430 C   0  0  0  0  0  1  0  0  0  0  0  0
  184.0770  178.8870  142.2910 C   0  0  0  0  0  0  0  0  0  0  0  0
  186.2700  178.5130  140.5520 C   0  0  0  0  0  0  0  0  0  0  0  0
  184.3950  178.7650  145.1400 C   0  0  0  0  0  0  0  0  0  0  0  0
  185.6370  178.6000  144.3040 C   0  0  2  0  0  3  0  0  0  0  0  0
  184.4830  179.1140  146.3070 O   0  0  0  0  0  0  0  0  0  0  0  0
  186.4390  178.4720  141.9350 C   0  0  0  0  0  3  0  0  0  0  0  0
  185.3670  178.6470  142.8120 C   0  0  0  0  0  0  0  0  0  0  0  0
  182.9380  179.2190  143.2230 C   0  0  0  0  0  2  0  0  0  0  0  0
  183.8810  178.9290  140.8950 C   0  0  0  0  0  0  0  0  0  0  0  0
  184.9760  178.7420  140.0200 C   0  0  0  0  0  0  0  0  0  0  0  0
  183.0560  178.4810  144.5470 C   0  0  0  0  0  2  0  0  0  0  0  0
  182.5010  179.1650  140.3410 C   0  0  0  0  0  2  0  0  0  0  0  0
  181.3960  175.5800  139.8180 C   0  0  0  0  0  3  0  0  0  0  0  0
  180.1440  175.5730  140.4430 C   0  0  0  0  0  0  0  0  0  0  0  0
  180.4330  177.9150  141.0120 C   0  0  0  0  0  3  0  0  0  0  0  0
  182.1630  176.7470  139.7870 C   0  0  0  0  0  3  0  0  0  0  0  0
  181.6840  177.9150  140.3850 C   0  0  0  0  0  0  0  0  0  0  0  0
  179.6660  176.7500  141.0420 C   0  0  0  0  0  3  0  0  0  0  0  0
  179.4010  174.3890  140.4530 O   0  0  0  0  0  0  0  0  0  0  0  0
  179.2780  173.5710  141.6070 C   0  0  0  0  0  1  0  0  0  0  0  0
  187.4450  178.3050  139.7520 N   0  0  0  0  0  2  0  0  0  0  0  0
  188.8120  178.6530  140.1060 C   0  0  0  0  0  2  0  0  0  0  0  0
  189.7610  177.5810  139.6030 C   0  0  1  0  0  3  0  0  0  0  0  0
  190.3830  176.8570  140.7810 C   0  0  0  0  0  1  0  0  0  0  0  0
  188.9960  176.5800  138.7420 C   0  0  0  0  0  2  0  0  0  0  0  0
  189.2690  176.6930  137.3020 N   0  0  0  0  0  0  0  0  0  0  0  0
  187.8190  176.5340  136.3430 S   0  0  0  0  0  0  0  0  0  0  0  0
  187.0560  177.8300  136.3260 O   0  0  0  0  0  0  0  0  0  0  0  0
  188.1990  176.1710  134.9340 O   0  0  0  0  0  0  0  0  0  0  0  0
  186.8130  175.2910  137.0190 N   0  0  0  0  0  0  0  0  0  0  0  0
  186.2870  172.8580  136.8100 C   0  0  0  0  0  2  0  0  0  0  0  0
  184.4660  174.5510  137.2400 C   0  0  0  0  0  2  0  0  0  0  0  0
  185.1800  173.3020  137.7670 C   0  0  0  0  0  2  0  0  0  0  0  0
  185.4350  175.5550  136.6050 C   0  0  0  0  0  2  0  0  0  0  0  0
  187.2370  174.0100  136.4420 C   0  0  0  0  0  2  0  0  0  0  0  0
  190.3490  175.8090  136.8480 C   0  0  0  0  0  2  0  0  0  0  0  0
  191.3950  173.8820  137.1120 C   0  0  0  0  0  1  0  0  0  0  0  0
  190.6820  174.8550  137.8140 O   0  0  0  0  0  0  0  0  0  0  0  0
  186.4290  177.3590  144.7250 C   0  0  0  0  0  2  0  0  0  0  0  0
  187.4810  177.6740  145.7860 C   0  0  0  0  0  2  0  0  0  0  0  0
  188.8400  177.8810  145.1420 C   0  0  0  0  0  2  0  0  0  0  0  0
  189.0920  176.8260  144.0790 C   0  0  0  0  0  1  0  0  0  0  0  0
  1 11  1  0  0  0  0
  2  8  1  0  0  0  0
  2  9  1  0  0  0  0
  3  7  1  0  0  0  0
  4  6  2  0  0  0  0
  5 40  1  6  0  0  0
  5  4  1  0  0  0  0
  7  8  2  0  0  0  0
  8  5  1  0  0  0  0
  9 12  1  0  0  0  0
 10  2  2  0  0  0  0
 11  3  2  0  0  0  0
 11 10  1  0  0  0  0
 12  4  1  0  0  0  0
 13 18  1  0  0  0  0
 13 10  1  0  0  0  0
 14 15  1  0  0  0  0
 15 20  1  0  0  0  0
 15 19  2  0  0  0  0
 16 19  1  0  0  0  0
 17 14  2  0  0  0  0
 17 18  1  0  0  0  0
 18 16  2  0  0  0  0
 20 21  1  0  0  0  0
 22 23  1  0  0  0  0
 22  3  1  0  0  0  0
 24 23  1  0  0  0  0
 24 25  1  1  0  0  0
 26 24  1  0  0  0  0
 27 26  1  0  0  0  0
 28 31  1  0  0  0  0
 28 27  1  0  0  0  0
 29 28  2  0  0  0  0
 30 28  2  0  0  0  0
 32 34  1  0  0  0  0
 33 34  1  0  0  0  0
 35 31  1  0  0  0  0
 35 33  1  0  0  0  0
 36 32  1  0  0  0  0
 36 31  1  0  0  0  0
 37 27  1  0  0  0  0
 37 39  1  0  0  0  0
 38 39  1  0  0  0  0
 40 41  1  0  0  0  0
 42 41  1  0  0  0  0
 43 42  1  0  0  0  0
M  END
>  <MODEL>
2

>  <REMARK>
 VINA RESULT:      -8.1      2.017      3.842
  Name = 
  15 active torsions:
  status: ('A' for Active; 'I' for Inactive)
    1  A    between atoms: C_1  and  C_34
    2  A    between atoms: C_1  and  C_35
    3  A    between atoms: N_2  and  C_6
    4  A    between atoms: N_2  and  C_13
    5  A    between atoms: C_3  and  N_4
    6  A    between atoms: C_3  and  C_12
    7  A    between atoms: N_4  and  S_14
    8  A    between atoms: N_4  and  C_42
    9  A    between atoms: C_5  and  C_18
   10  A    between atoms: C_6  and  C_12
   11  A    between atoms: N_11  and  S_14
   12  A    between atoms: O_15  and  C_42
   13  A    between atoms: C_18  and  C_24
   14  A    between atoms: C_19  and  O_25
   15  A    between atoms: C_21  and  C_24
                            x       y       z     vdW  Elec       q    Type
                         _______ _______ _______ _____ _____    ______ ____

>  <TORSDO>
F 15

$$$$
=
 OpenBabel10262422313D

 43 46  0  0  1  0  0  0  0  0999 V2000
  184.1820  179.0000  138.6690 C   0  0  0  0  0  1  0  0  0  0  0  0
  183.7900  178.9460  142.4560 C   0  0  0  0  0  0  0  0  0  0  0  0
  185.8630  178.7170  140.5530 C   0  0  0  0  0  0  0  0  0  0  0  0
  184.3180  178.7450  145.2700 C   0  0  0  0  0  0  0  0  0  0  0  0
  185.5010  178.6570  144.3420 C   0  0  2  0  0  3  0  0  0  0  0  0
  184.4770  179.0590  146.4380 O   0  0  0  0  0  0  0  0  0  0  0  0
  186.1340  178.6370  141.9180 C   0  0  0  0  0  3  0  0  0  0  0  0
  185.1230  178.7410  142.8750 C   0  0  0  0  0  0  0  0  0  0  0  0
  182.7100  179.2030  143.4790 C   0  0  0  0  0  2  0  0  0  0  0  0
  183.4920  179.0260  141.0800 C   0  0  0  0  0  0  0  0  0  0  0  0
  184.5270  178.9110  140.1230 C   0  0  0  0  0  0  0  0  0  0  0  0
  182.9510  178.4280  144.7640 C   0  0  0  0  0  2  0  0  0  0  0  0
  182.0670  179.2250  140.6340 C   0  0  0  0  0  2  0  0  0  0  0  0
  179.4580  176.5530  141.2670 C   0  0  0  0  0  3  0  0  0  0  0  0
  179.9630  175.4790  140.5250 C   0  0  0  0  0  0  0  0  0  0  0  0
  181.8440  176.8560  139.8440 C   0  0  0  0  0  3  0  0  0  0  0  0
  180.1400  177.7710  141.3000 C   0  0  0  0  0  3  0  0  0  0  0  0
  181.3330  177.9250  140.5880 C   0  0  0  0  0  0  0  0  0  0  0  0
  181.1620  175.6380  139.8110 C   0  0  0  0  0  3  0  0  0  0  0  0
  179.2570  174.2730  140.5150 O   0  0  0  0  0  0  0  0  0  0  0  0
  178.9360  173.5620  141.7020 C   0  0  0  0  0  1  0  0  0  0  0  0
  186.9840  178.5810  139.6650 N   0  0  0  0  0  2  0  0  0  0  0  0
  188.2870  178.0180  139.9870 C   0  0  0  0  0  2  0  0  0  0  0  0
  188.7400  177.1020  138.8650 C   0  0  1  0  0  3  0  0  0  0  0  0
  187.6400  176.9810  137.8300 C   0  0  0  0  0  1  0  0  0  0  0  0
  189.9920  177.6760  138.2070 C   0  0  0  0  0  2  0  0  0  0  0  0
  191.2310  176.9630  138.5470 N   0  0  0  0  0  0  0  0  0  0  0  0
  191.5320  175.6170  137.4770 S   0  0  0  0  0  0  0  0  0  0  0  0
  190.8520  174.3770  137.9910 O   0  0  0  0  0  0  0  0  0  0  0  0
  190.9890  175.9420  136.1130 O   0  0  0  0  0  0  0  0  0  0  0  0
  193.2400  175.3280  137.3770 N   0  0  0  0  0  0  0  0  0  0  0  0
  195.1670  175.4680  135.7930 C   0  0  0  0  0  2  0  0  0  0  0  0
  194.9490  173.5430  137.4100 C   0  0  0  0  0  2  0  0  0  0  0  0
  195.8170  174.7210  136.9590 C   0  0  0  0  0  2  0  0  0  0  0  0
  193.4520  173.8810  137.4010 C   0  0  0  0  0  2  0  0  0  0  0  0
  193.7050  175.8480  136.0860 C   0  0  0  0  0  2  0  0  0  0  0  0
  191.3120  176.5890  139.9650 C   0  0  0  0  0  2  0  0  0  0  0  0
  191.4920  177.4410  141.9940 C   0  0  0  0  0  1  0  0  0  0  0  0
  192.0320  177.5270  140.7110 O   0  0  0  0  0  0  0  0  0  0  0  0
  186.3680  177.4350  144.6620 C   0  0  0  0  0  2  0  0  0  0  0  0
  187.2510  177.6540  145.8870 C   0  0  0  0  0  2  0  0  0  0  0  0
  188.7160  177.6850  145.4890 C   0  0  0  0  0  2  0  0  0  0  0  0
  189.6040  177.5790  146.7170 C   0  0  0  0  0  1  0  0  0  0  0  0
  1 11  1  0  0  0  0
  2  8  1  0  0  0  0
  2  9  1  0  0  0  0
  3  7  1  0  0  0  0
  4  6  2  0  0  0  0
  5 40  1  6  0  0  0
  5  4  1  0  0  0  0
  7  8  2  0  0  0  0
  8  5  1  0  0  0  0
  9 12  1  0  0  0  0
 10  2  2  0  0  0  0
 11  3  2  0  0  0  0
 11 10  1  0  0  0  0
 12  4  1  0  0  0  0
 13 10  1  0  0  0  0
 14 17  1  0  0  0  0
 15 14  2  0  0  0  0
 16 18  1  0  0  0  0
 18 13  1  0  0  0  0
 18 17  2  0  0  0  0
 19 16  2  0  0  0  0
 19 15  1  0  0  0  0
 20 15  1  0  0  0  0
 20 21  1  0  0  0  0
 22 23  1  0  0  0  0
 22  3  1  0  0  0  0
 24 25  1  6  0  0  0
 24 23  1  0  0  0  0
 26 27  1  0  0  0  0
 26 24  1  0  0  0  0
 27 37  1  0  0  0  0
 28 29  2  0  0  0  0
 28 27  1  0  0  0  0
 30 28  2  0  0  0  0
 31 35  1  0  0  0  0
 31 28  1  0  0  0  0
 32 36  1  0  0  0  0
 32 34  1  0  0  0  0
 34 33  1  0  0  0  0
 35 33  1  0  0  0  0
 36 31  1  0  0  0  0
 37 39  1  0  0  0  0
 39 38  1  0  0  0  0
 40 41  1  0  0  0  0
 42 41  1  0  0  0  0
 42 43  1  0  0  0  0
M  END
>  <MODEL>
3

>  <REMARK>
 VINA RESULT:      -7.6      1.279      2.130
  Name = 
  15 active torsions:
  status: ('A' for Active; 'I' for Inactive)
    1  A    between atoms: C_1  and  C_34
    2  A    between atoms: C_1  and  C_35
    3  A    between atoms: N_2  and  C_6
    4  A    between atoms: N_2  and  C_13
    5  A    between atoms: C_3  and  N_4
    6  A    between atoms: C_3  and  C_12
    7  A    between atoms: N_4  and  S_14
    8  A    between atoms: N_4  and  C_42
    9  A    between atoms: C_5  and  C_18
   10  A    between atoms: C_6  and  C_12
   11  A    between atoms: N_11  and  S_14
   12  A    between atoms: O_15  and  C_42
   13  A    between atoms: C_18  and  C_24
   14  A    between atoms: C_19  and  O_25
   15  A    between atoms: C_21  and  C_24
                            x       y       z     vdW  Elec       q    Type
                         _______ _______ _______ _____ _____    ______ ____

>  <TORSDO>
F 15

$$$$
=
 OpenBabel10262422313D

 43 46  0  0  1  0  0  0  0  0999 V2000
  184.5480  178.9190  138.4790 C   0  0  0  0  0  1  0  0  0  0  0  0
  183.9930  178.9280  142.2450 C   0  0  0  0  0  0  0  0  0  0  0  0
  186.1440  178.6520  140.4380 C   0  0  0  0  0  0  0  0  0  0  0  0
  184.3960  178.7670  145.0820 C   0  0  0  0  0  0  0  0  0  0  0  0
  185.6170  178.6550  144.2080 C   0  0  2  0  0  3  0  0  0  0  0  0
  184.5070  179.0980  146.2510 O   0  0  0  0  0  0  0  0  0  0  0  0
  186.3550  178.5930  141.8150 C   0  0  0  0  0  3  0  0  0  0  0  0
  185.3040  178.7200  142.7250 C   0  0  0  0  0  0  0  0  0  0  0  0
  182.8710  179.2090  143.2150 C   0  0  0  0  0  2  0  0  0  0  0  0
  183.7550  178.9880  140.8560 C   0  0  0  0  0  0  0  0  0  0  0  0
  184.8290  178.8500  139.9470 C   0  0  0  0  0  0  0  0  0  0  0  0
  183.0490  178.4530  144.5220 C   0  0  0  0  0  2  0  0  0  0  0  0
  182.3530  179.1910  140.3460 C   0  0  0  0  0  2  0  0  0  0  0  0
  181.3890  175.5620  139.8450 C   0  0  0  0  0  3  0  0  0  0  0  0
  180.1180  175.5210  140.4290 C   0  0  0  0  0  0  0  0  0  0  0  0
  180.3080  177.8800  140.9700 C   0  0  0  0  0  3  0  0  0  0  0  0
  182.1170  176.7550  139.8200 C   0  0  0  0  0  3  0  0  0  0  0  0
  181.5780  177.9140  140.3830 C   0  0  0  0  0  0  0  0  0  0  0  0
  179.5810  176.6890  140.9940 C   0  0  0  0  0  3  0  0  0  0  0  0
  179.4160  174.3130  140.4350 O   0  0  0  0  0  0  0  0  0  0  0  0
  179.4540  173.4090  141.5290 C   0  0  0  0  0  1  0  0  0  0  0  0
  187.3020  178.4940  139.6020 N   0  0  0  0  0  2  0  0  0  0  0  0
  187.4790  177.5190  138.5360 C   0  0  0  0  0  2  0  0  0  0  0  0
  187.9790  178.2140  137.2830 C   0  0  1  0  0  3  0  0  0  0  0  0
  189.0850  179.1850  137.6460 C   0  0  0  0  0  1  0  0  0  0  0  0
  188.5160  177.1790  136.3000 C   0  0  0  0  0  2  0  0  0  0  0  0
  188.7860  175.8640  136.8980 N   0  0  0  0  0  0  0  0  0  0  0  0
  190.4950  175.5300  137.0100 S   0  0  0  0  0  0  0  0  0  0  0  0
  190.7250  174.0890  137.3780 O   0  0  0  0  0  0  0  0  0  0  0  0
  191.1380  175.8030  135.6770 O   0  0  0  0  0  0  0  0  0  0  0  0
  191.2050  176.5470  138.2240 N   0  0  0  0  0  0  0  0  0  0  0  0
  193.3160  176.8840  139.5160 C   0  0  0  0  0  2  0  0  0  0  0  0
  191.0610  177.1710  140.6110 C   0  0  0  0  0  2  0  0  0  0  0  0
  192.3840  177.8510  140.2470 C   0  0  0  0  0  2  0  0  0  0  0  0
  190.5530  176.2440  139.4990 C   0  0  0  0  0  2  0  0  0  0  0  0
  192.6250  176.1910  138.3290 C   0  0  0  0  0  2  0  0  0  0  0  0
  188.0360  174.7750  136.2590 C   0  0  0  0  0  2  0  0  0  0  0  0
  187.4340  172.6830  136.6300 C   0  0  0  0  0  1  0  0  0  0  0  0
  187.4050  173.9560  137.2000 O   0  0  0  0  0  0  0  0  0  0  0  0
  186.4590  177.4320  144.5840 C   0  0  0  0  0  2  0  0  0  0  0  0
  187.7240  177.8100  145.3500 C   0  0  0  0  0  2  0  0  0  0  0  0
  187.6710  177.2640  146.7660 C   0  0  0  0  0  2  0  0  0  0  0  0
  188.5380  178.1010  147.6920 C   0  0  0  0  0  1  0  0  0  0  0  0
  1 11  1  0  0  0  0
  2  8  1  0  0  0  0
  2  9  1  0  0  0  0
  3  7  1  0  0  0  0
  4  6  2  0  0  0  0
  5 40  1  6  0  0  0
  5  4  1  0  0  0  0
  7  8  2  0  0  0  0
  8  5  1  0  0  0  0
  9 12  1  0  0  0  0
 10  2  2  0  0  0  0
 11  3  2  0  0  0  0
 11 10  1  0  0  0  0
 12  4  1  0  0  0  0
 13 18  1  0  0  0  0
 13 10  1  0  0  0  0
 14 15  1  0  0  0  0
 15 20  1  0  0  0  0
 15 19  2  0  0  0  0
 16 19  1  0  0  0  0
 17 14  2  0  0  0  0
 17 18  1  0  0  0  0
 18 16  2  0  0  0  0
 20 21  1  0  0  0  0
 22  3  1  0  0  0  0
 23 22  1  0  0  0  0
 24 25  1  1  0  0  0
 24 23  1  0  0  0  0
 26 27  1  0  0  0  0
 26 24  1  0  0  0  0
 27 28  1  0  0  0  0
 28 29  2  0  0  0  0
 28 31  1  0  0  0  0
 30 28  2  0  0  0  0
 31 36  1  0  0  0  0
 31 35  1  0  0  0  0
 32 34  1  0  0  0  0
 34 33  1  0  0  0  0
 35 33  1  0  0  0  0
 36 32  1  0  0  0  0
 37 27  1  0  0  0  0
 37 39  1  0  0  0  0
 38 39  1  0  0  0  0
 40 41  1  0  0  0  0
 41 42  1  0  0  0  0
 42 43  1  0  0  0  0
M  END
>  <MODEL>
4

>  <REMARK>
 VINA RESULT:      -7.4      1.883      2.489
  Name = 
  15 active torsions:
  status: ('A' for Active; 'I' for Inactive)
    1  A    between atoms: C_1  and  C_34
    2  A    between atoms: C_1  and  C_35
    3  A    between atoms: N_2  and  C_6
    4  A    between atoms: N_2  and  C_13
    5  A    between atoms: C_3  and  N_4
    6  A    between atoms: C_3  and  C_12
    7  A    between atoms: N_4  and  S_14
    8  A    between atoms: N_4  and  C_42
    9  A    between atoms: C_5  and  C_18
   10  A    between atoms: C_6  and  C_12
   11  A    between atoms: N_11  and  S_14
   12  A    between atoms: O_15  and  C_42
   13  A    between atoms: C_18  and  C_24
   14  A    between atoms: C_19  and  O_25
   15  A    between atoms: C_21  and  C_24
                            x       y       z     vdW  Elec       q    Type
                         _______ _______ _______ _____ _____    ______ ____

>  <TORSDO>
F 15

$$$$
=
 OpenBabel10262422313D

 43 46  0  0  1  0  0  0  0  0999 V2000
  186.3430  178.6450  140.3260 C   0  0  0  0  0  1  0  0  0  0  0  0
  189.4040  177.8390  142.4420 C   0  0  0  0  0  0  0  0  0  0  0  0
  186.5960  177.8860  142.7380 C   0  0  0  0  0  0  0  0  0  0  0  0
  191.1230  177.1300  144.6280 C   0  0  0  0  0  0  0  0  0  0  0  0
  189.6380  177.0760  144.8770 C   0  0  2  0  0  3  0  0  0  0  0  0
  191.8870  176.4910  145.3340 O   0  0  0  0  0  0  0  0  0  0  0  0
  187.4210  177.5200  143.8000 C   0  0  0  0  0  3  0  0  0  0  0  0
  188.8110  177.4980  143.6770 C   0  0  0  0  0  0  0  0  0  0  0  0
  190.8930  177.6820  142.2520 C   0  0  0  0  0  2  0  0  0  0  0  0
  188.5890  178.2160  141.3540 C   0  0  0  0  0  0  0  0  0  0  0  0
  187.1830  178.2420  141.4980 C   0  0  0  0  0  0  0  0  0  0  0  0
  191.6620  177.9820  143.5280 C   0  0  0  0  0  2  0  0  0  0  0  0
  189.2240  178.5990  140.0430 C   0  0  0  0  0  2  0  0  0  0  0  0
  190.8810  175.6370  138.3620 C   0  0  0  0  0  3  0  0  0  0  0  0
  189.8520  175.1610  137.5420 C   0  0  0  0  0  0  0  0  0  0  0  0
  188.4040  176.9290  138.3620 C   0  0  0  0  0  3  0  0  0  0  0  0
  190.6760  176.7520  139.1780 C   0  0  0  0  0  3  0  0  0  0  0  0
  189.4380  177.3990  139.1790 C   0  0  0  0  0  0  0  0  0  0  0  0
  188.6090  175.8150  137.5470 C   0  0  0  0  0  3  0  0  0  0  0  0
  190.0910  174.0440  136.7370 O   0  0  0  0  0  0  0  0  0  0  0  0
  191.3910  173.5120  136.5300 C   0  0  0  0  0  1  0  0  0  0  0  0
  185.1820  177.8850  142.9900 N   0  0  0  0  0  2  0  0  0  0  0  0
  184.2900  179.0350  142.9510 C   0  0  0  0  0  2  0  0  0  0  0  0
  182.8650  178.5690  142.7110 C   0  0  1  0  0  3  0  0  0  0  0  0
  182.0300  178.8270  143.9490 C   0  0  0  0  0  1  0  0  0  0  0  0
  182.2680  179.3300  141.5300 C   0  0  0  0  0  2  0  0  0  0  0  0
  182.0630  178.5110  140.3280 N   0  0  0  0  0  0  0  0  0  0  0  0
  182.5710  179.3350  138.8760 S   0  0  0  0  0  0  0  0  0  0  0  0
  183.7220  180.2580  139.1710 O   0  0  0  0  0  0  0  0  0  0  0  0
  183.0110  178.3160  137.8600 O   0  0  0  0  0  0  0  0  0  0  0  0
  181.2470  180.2620  138.2440 N   0  0  0  0  0  0  0  0  0  0  0  0
  180.0910  180.8310  136.1040 C   0  0  0  0  0  2  0  0  0  0  0  0
  180.4380  182.5710  137.8970 C   0  0  0  0  0  2  0  0  0  0  0  0
  179.4070  181.8100  137.0600 C   0  0  0  0  0  2  0  0  0  0  0  0
  181.6000  181.6780  138.3510 C   0  0  0  0  0  2  0  0  0  0  0  0
  181.1020  179.9220  136.8230 C   0  0  0  0  0  2  0  0  0  0  0  0
  180.7030  177.9660  140.2240 C   0  0  0  0  0  2  0  0  0  0  0  0
  179.5410  176.1770  140.7920 C   0  0  0  0  0  1  0  0  0  0  0  0
  180.7060  176.5710  140.1340 O   0  0  0  0  0  0  0  0  0  0  0  0
  189.2620  177.8360  146.1540 C   0  0  0  0  0  2  0  0  0  0  0  0
  188.9920  176.8990  147.3280 C   0  0  0  0  0  2  0  0  0  0  0  0
  188.0270  177.5420  148.3100 C   0  0  0  0  0  2  0  0  0  0  0  0
  186.9550  178.3210  147.5680 C   0  0  0  0  0  1  0  0  0  0  0  0
  1 11  1  0  0  0  0
  2  8  1  0  0  0  0
  3 22  1  0  0  0  0
  3  7  1  0  0  0  0
  4  5  1  0  0  0  0
  4  6  2  0  0  0  0
  5 40  1  1  0  0  0
  8  7  2  0  0  0  0
  8  5  1  0  0  0  0
  9  2  1  0  0  0  0
  9 12  1  0  0  0  0
 10 11  1  0  0  0  0
 10  2  2  0  0  0  0
 11  3  2  0  0  0  0
 12  4  1  0  0  0  0
 13 10  1  0  0  0  0
 14 17  1  0  0  0  0
 15 19  1  0  0  0  0
 15 14  2  0  0  0  0
 16 18  1  0  0  0  0
 17 18  2  0  0  0  0
 18 13  1  0  0  0  0
 19 16  2  0  0  0  0
 20 15  1  0  0  0  0
 21 20  1  0  0  0  0
 23 22  1  0  0  0  0
 24 23  1  0  0  0  0
 24 25  1  1  0  0  0
 26 24  1  0  0  0  0
 27 26  1  0  0  0  0
 28 29  2  0  0  0  0
 28 27  1  0  0  0  0
 30 28  2  0  0  0  0
 31 35  1  0  0  0  0
 31 28  1  0  0  0  0
 32 36  1  0  0  0  0
 32 34  1  0  0  0  0
 33 35  1  0  0  0  0
 34 33  1  0  0  0  0
 36 31  1  0  0  0  0
 37 27  1  0  0  0  0
 39 37  1  0  0  0  0
 39 38  1  0  0  0  0
 40 41  1  0  0  0  0
 41 42  1  0  0  0  0
 43 42  1  0  0  0  0
M  END
>  <MODEL>
5

>  <REMARK>
 VINA RESULT:      -7.4      3.562      9.464
  Name = 
  15 active torsions:
  status: ('A' for Active; 'I' for Inactive)
    1  A    between atoms: C_1  and  C_34
    2  A    between atoms: C_1  and  C_35
    3  A    between atoms: N_2  and  C_6
    4  A    between atoms: N_2  and  C_13
    5  A    between atoms: C_3  and  N_4
    6  A    between atoms: C_3  and  C_12
    7  A    between atoms: N_4  and  S_14
    8  A    between atoms: N_4  and  C_42
    9  A    between atoms: C_5  and  C_18
   10  A    between atoms: C_6  and  C_12
   11  A    between atoms: N_11  and  S_14
   12  A    between atoms: O_15  and  C_42
   13  A    between atoms: C_18  and  C_24
   14  A    between atoms: C_19  and  O_25
   15  A    between atoms: C_21  and  C_24
                            x       y       z     vdW  Elec       q    Type
                         _______ _______ _______ _____ _____    ______ ____

>  <TORSDO>
F 15

$$$$
=
 OpenBabel10262422313D

 43 46  0  0  1  0  0  0  0  0999 V2000
  186.3830  178.5680  140.1520 C   0  0  0  0  0  1  0  0  0  0  0  0
  189.4020  177.8620  142.3600 C   0  0  0  0  0  0  0  0  0  0  0  0
  186.5880  177.8630  142.5850 C   0  0  0  0  0  0  0  0  0  0  0  0
  191.0780  177.2270  144.6020 C   0  0  0  0  0  0  0  0  0  0  0  0
  189.5890  177.1520  144.8150 C   0  0  2  0  0  3  0  0  0  0  0  0
  191.8360  176.6170  145.3390 O   0  0  0  0  0  0  0  0  0  0  0  0
  187.3920  177.5330  143.6750 C   0  0  0  0  0  3  0  0  0  0  0  0
  188.7850  177.5340  143.5870 C   0  0  0  0  0  0  0  0  0  0  0  0
  190.8990  177.7280  142.2100 C   0  0  0  0  0  2  0  0  0  0  0  0
  188.6090  178.2020  141.2450 C   0  0  0  0  0  0  0  0  0  0  0  0
  187.1990  178.2040  141.3530 C   0  0  0  0  0  0  0  0  0  0  0  0
  191.6300  178.0670  143.4990 C   0  0  0  0  0  2  0  0  0  0  0  0
  189.2700  178.5700  139.9420 C   0  0  0  0  0  2  0  0  0  0  0  0
  190.9800  175.6140  138.3050 C   0  0  0  0  0  3  0  0  0  0  0  0
  189.9570  175.1030  137.4970 C   0  0  0  0  0  0  0  0  0  0  0  0
  188.4770  176.8550  138.2940 C   0  0  0  0  0  3  0  0  0  0  0  0
  190.7560  176.7390  139.1020 C   0  0  0  0  0  3  0  0  0  0  0  0
  189.5040  177.3600  139.0980 C   0  0  0  0  0  0  0  0  0  0  0  0
  188.7010  175.7310  137.4970 C   0  0  0  0  0  3  0  0  0  0  0  0
  190.2160  173.9780  136.7100 O   0  0  0  0  0  0  0  0  0  0  0  0
  191.5260  173.4730  136.5010 C   0  0  0  0  0  1  0  0  0  0  0  0
  185.1680  177.8410  142.8010 N   0  0  0  0  0  2  0  0  0  0  0  0
  184.2550  178.9700  142.7050 C   0  0  0  0  0  2  0  0  0  0  0  0
  182.8240  178.4680  142.6470 C   0  0  1  0  0  3  0  0  0  0  0  0
  182.0700  178.9360  143.8750 C   0  0  0  0  0  1  0  0  0  0  0  0
  182.1390  179.0110  141.3960 C   0  0  0  0  0  2  0  0  0  0  0  0
  181.8380  177.9900  140.3840 N   0  0  0  0  0  0  0  0  0  0  0  0
  182.5480  178.3680  138.8350 S   0  0  0  0  0  0  0  0  0  0  0  0
  181.4740  178.5610  137.7990 O   0  0  0  0  0  0  0  0  0  0  0  0
  183.3440  179.6380  138.9560 O   0  0  0  0  0  0  0  0  0  0  0  0
  183.5860  177.0680  138.3410 N   0  0  0  0  0  0  0  0  0  0  0  0
  185.0970  176.3570  136.4840 C   0  0  0  0  0  2  0  0  0  0  0  0
  183.5910  174.6970  137.6430 C   0  0  0  0  0  2  0  0  0  0  0  0
  185.0370  175.0680  137.3050 C   0  0  0  0  0  2  0  0  0  0  0  0
  182.7410  175.9230  138.0010 C   0  0  0  0  0  2  0  0  0  0  0  0
  184.2980  177.4990  137.1330 C   0  0  0  0  0  2  0  0  0  0  0  0
  180.4070  177.6750  140.2890 C   0  0  0  0  0  2  0  0  0  0  0  0
  179.3710  175.8410  140.9530 C   0  0  0  0  0  1  0  0  0  0  0  0
  180.1890  176.3390  139.9390 O   0  0  0  0  0  0  0  0  0  0  0  0
  189.1670  177.9290  146.0660 C   0  0  0  0  0  2  0  0  0  0  0  0
  188.7090  177.0100  147.1940 C   0  0  0  0  0  2  0  0  0  0  0  0
  187.7410  177.7360  148.1120 C   0  0  0  0  0  2  0  0  0  0  0  0
  186.6310  178.3890  147.3060 C   0  0  0  0  0  1  0  0  0  0  0  0
  1 11  1  0  0  0  0
  2  8  1  0  0  0  0
  3 22  1  0  0  0  0
  3  7  1  0  0  0  0
  4  5  1  0  0  0  0
  4  6  2  0  0  0  0
  5 40  1  1  0  0  0
  8  7  2  0  0  0  0
  8  5  1  0  0  0  0
  9  2  1  0  0  0  0
  9 12  1  0  0  0  0
 10 11  1  0  0  0  0
 10  2  2  0  0  0  0
 11  3  2  0  0  0  0
 12  4  1  0  0  0  0
 13 10  1  0  0  0  0
 14 17  1  0  0  0  0
 15 19  1  0  0  0  0
 15 14  2  0  0  0  0
 16 18  1  0  0  0  0
 18 17  2  0  0  0  0
 18 13  1  0  0  0  0
 19 16  2  0  0  0  0
 20 15  1  0  0  0  0
 21 20  1  0  0  0  0
 23 22  1  0  0  0  0
 24 23  1  0  0  0  0
 24 25  1  1  0  0  0
 26 24  1  0  0  0  0
 27 26  1  0  0  0  0
 28 30  2  0  0  0  0
 28 27  1  0  0  0  0
 29 28  2  0  0  0  0
 31 28  1  0  0  0  0
 32 36  1  0  0  0  0
 32 34  1  0  0  0  0
 33 35  1  0  0  0  0
 34 33  1  0  0  0  0
 35 31  1  0  0  0  0
 36 31  1  0  0  0  0
 37 27  1  0  0  0  0
 39 37  1  0  0  0  0
 39 38  1  0  0  0  0
 40 41  1  0  0  0  0
 41 42  1  0  0  0  0
 43 42  1  0  0  0  0
M  END
>  <MODEL>
6

>  <REMARK>
 VINA RESULT:      -7.3      3.490      8.381
  Name = 
  15 active torsions:
  status: ('A' for Active; 'I' for Inactive)
    1  A    between atoms: C_1  and  C_34
    2  A    between atoms: C_1  and  C_35
    3  A    between atoms: N_2  and  C_6
    4  A    between atoms: N_2  and  C_13
    5  A    between atoms: C_3  and  N_4
    6  A    between atoms: C_3  and  C_12
    7  A    between atoms: N_4  and  S_14
    8  A    between atoms: N_4  and  C_42
    9  A    between atoms: C_5  and  C_18
   10  A    between atoms: C_6  and  C_12
   11  A    between atoms: N_11  and  S_14
   12  A    between atoms: O_15  and  C_42
   13  A    between atoms: C_18  and  C_24
   14  A    between atoms: C_19  and  O_25
   15  A    between atoms: C_21  and  C_24
                            x       y       z     vdW  Elec       q    Type
                         _______ _______ _______ _____ _____    ______ ____

>  <TORSDO>
F 15

$$$$
=
 OpenBabel10262422313D

 43 46  0  0  1  0  0  0  0  0999 V2000
  186.5600  178.6330  139.3800 C   0  0  0  0  0  1  0  0  0  0  0  0
  189.4480  177.5520  141.6120 C   0  0  0  0  0  0  0  0  0  0  0  0
  186.6760  178.0330  141.8460 C   0  0  0  0  0  0  0  0  0  0  0  0
  191.0240  176.7670  143.8790 C   0  0  0  0  0  0  0  0  0  0  0  0
  189.5450  176.9520  144.1020 C   0  0  2  0  0  3  0  0  0  0  0  0
  191.6780  176.0800  144.6460 O   0  0  0  0  0  0  0  0  0  0  0  0
  187.4280  177.6320  142.9500 C   0  0  0  0  0  3  0  0  0  0  0  0
  188.8000  177.3960  142.8570 C   0  0  0  0  0  0  0  0  0  0  0  0
  190.9000  177.1640  141.4640 C   0  0  0  0  0  2  0  0  0  0  0  0
  188.7090  177.9600  140.4830 C   0  0  0  0  0  0  0  0  0  0  0  0
  187.3200  178.2020  140.5950 C   0  0  0  0  0  0  0  0  0  0  0  0
  191.6930  177.4440  142.7300 C   0  0  0  0  0  2  0  0  0  0  0  0
  189.4050  178.1440  139.1600 C   0  0  0  0  0  2  0  0  0  0  0  0
  190.4820  174.8710  137.5860 C   0  0  0  0  0  3  0  0  0  0  0  0
  189.3490  174.5250  136.8420 C   0  0  0  0  0  0  0  0  0  0  0  0
  188.2430  176.5420  137.6200 C   0  0  0  0  0  3  0  0  0  0  0  0
  190.4990  176.0460  138.3420 C   0  0  0  0  0  3  0  0  0  0  0  0
  189.3800  176.8820  138.3600 C   0  0  0  0  0  0  0  0  0  0  0  0
  188.2260  175.3690  136.8640 C   0  0  0  0  0  3  0  0  0  0  0  0
  189.3650  173.3450  136.0950 O   0  0  0  0  0  0  0  0  0  0  0  0
  188.2770  172.4330  136.0760 C   0  0  0  0  0  1  0  0  0  0  0  0
  185.2750  178.2590  142.0690 N   0  0  0  0  0  2  0  0  0  0  0  0
  184.6830  179.2100  142.9970 C   0  0  0  0  0  2  0  0  0  0  0  0
  183.3660  178.6660  143.5180 C   0  0  1  0  0  3  0  0  0  0  0  0
  183.2190  179.0070  144.9880 C   0  0  0  0  0  1  0  0  0  0  0  0
  182.2090  179.2840  142.7380 C   0  0  0  0  0  2  0  0  0  0  0  0
  181.3570  178.3060  142.0490 N   0  0  0  0  0  0  0  0  0  0  0  0
  181.3930  178.5070  140.3150 S   0  0  0  0  0  0  0  0  0  0  0  0
  179.9950  178.6080  139.7700 O   0  0  0  0  0  0  0  0  0  0  0  0
  182.1400  179.7700  139.9820 O   0  0  0  0  0  0  0  0  0  0  0  0
  182.1880  177.1450  139.5910 N   0  0  0  0  0  0  0  0  0  0  0  0
  183.7730  176.5410  137.7570 C   0  0  0  0  0  2  0  0  0  0  0  0
  181.7860  175.0810  138.2930 C   0  0  0  0  0  2  0  0  0  0  0  0
  183.3130  175.1510  138.1970 C   0  0  0  0  0  2  0  0  0  0  0  0
  181.1770  176.3590  138.8840 C   0  0  0  0  0  2  0  0  0  0  0  0
  183.1510  177.6600  138.6100 C   0  0  0  0  0  2  0  0  0  0  0  0
  179.9910  178.2510  142.5840 C   0  0  0  0  0  2  0  0  0  0  0  0
  178.9510  179.0640  144.3550 C   0  0  0  0  0  1  0  0  0  0  0  0
  179.6220  179.4530  143.1950 O   0  0  0  0  0  0  0  0  0  0  0  0
  189.2740  177.8540  145.3100 C   0  0  0  0  0  2  0  0  0  0  0  0
  188.4980  177.1340  146.4100 C   0  0  0  0  0  2  0  0  0  0  0  0
  187.9610  178.1310  147.4220 C   0  0  0  0  0  2  0  0  0  0  0  0
  188.9060  178.2490  148.6050 C   0  0  0  0  0  1  0  0  0  0  0  0
  1 11  1  0  0  0  0
  2  8  1  0  0  0  0
  3 22  1  0  0  0  0
  3  7  1  0  0  0  0
  4  5  1  0  0  0  0
  4  6  2  0  0  0  0
  5 40  1  1  0  0  0
  8  7  2  0  0  0  0
  8  5  1  0  0  0  0
  9  2  1  0  0  0  0
  9 12  1  0  0  0  0
 10 11  1  0  0  0  0
 10  2  2  0  0  0  0
 11  3  2  0  0  0  0
 12  4  1  0  0  0  0
 13 10  1  0  0  0  0
 14 17  1  0  0  0  0
 15 19  1  0  0  0  0
 15 14  2  0  0  0  0
 16 18  1  0  0  0  0
 17 18  2  0  0  0  0
 18 13  1  0  0  0  0
 19 16  2  0  0  0  0
 20 15  1  0  0  0  0
 21 20  1  0  0  0  0
 22 23  1  0  0  0  0
 23 24  1  0  0  0  0
 24 25  1  1  0  0  0
 26 24  1  0  0  0  0
 27 37  1  0  0  0  0
 27 26  1  0  0  0  0
 28 27  1  0  0  0  0
 29 28  2  0  0  0  0
 30 28  2  0  0  0  0
 31 28  1  0  0  0  0
 32 34  1  0  0  0  0
 32 36  1  0  0  0  0
 33 35  1  0  0  0  0
 34 33  1  0  0  0  0
 35 31  1  0  0  0  0
 36 31  1  0  0  0  0
 37 39  1  0  0  0  0
 39 38  1  0  0  0  0
 40 41  1  0  0  0  0
 41 42  1  0  0  0  0
 42 43  1  0  0  0  0
M  END
>  <MODEL>
7

>  <REMARK>
 VINA RESULT:      -7.0      3.791      8.958
  Name = 
  15 active torsions:
  status: ('A' for Active; 'I' for Inactive)
    1  A    between atoms: C_1  and  C_34
    2  A    between atoms: C_1  and  C_35
    3  A    between atoms: N_2  and  C_6
    4  A    between atoms: N_2  and  C_13
    5  A    between atoms: C_3  and  N_4
    6  A    between atoms: C_3  and  C_12
    7  A    between atoms: N_4  and  S_14
    8  A    between atoms: N_4  and  C_42
    9  A    between atoms: C_5  and  C_18
   10  A    between atoms: C_6  and  C_12
   11  A    between atoms: N_11  and  S_14
   12  A    between atoms: O_15  and  C_42
   13  A    between atoms: C_18  and  C_24
   14  A    between atoms: C_19  and  O_25
   15  A    between atoms: C_21  and  C_24
                            x       y       z     vdW  Elec       q    Type
                         _______ _______ _______ _____ _____    ______ ____

>  <TORSDO>
F 15

$$$$
=
 OpenBabel10262422313D

 43 46  0  0  1  0  0  0  0  0999 V2000
  185.7200  179.2880  141.6190 C   0  0  0  0  0  1  0  0  0  0  0  0
  186.5600  178.0000  138.1370 C   0  0  0  0  0  0  0  0  0  0  0  0
  187.7080  177.9900  140.7150 C   0  0  0  0  0  0  0  0  0  0  0  0
  187.8970  176.7950  135.9020 C   0  0  0  0  0  0  0  0  0  0  0  0
  188.5740  176.6920  137.2430 C   0  0  2  0  0  3  0  0  0  0  0  0
  188.1750  176.0070  135.0120 O   0  0  0  0  0  0  0  0  0  0  0  0
  188.3580  177.3830  139.6410 C   0  0  0  0  0  3  0  0  0  0  0  0
  187.8100  177.3840  138.3570 C   0  0  0  0  0  0  0  0  0  0  0  0
  185.8900  177.8850  136.7880 C   0  0  0  0  0  2  0  0  0  0  0  0
  185.8860  178.6230  139.2080 C   0  0  0  0  0  0  0  0  0  0  0  0
  186.4580  178.6210  140.5010 C   0  0  0  0  0  0  0  0  0  0  0  0
  186.9000  177.8770  135.6530 C   0  0  0  0  0  2  0  0  0  0  0  0
  184.5610  179.2970  138.9660 C   0  0  0  0  0  2  0  0  0  0  0  0
  181.3190  178.1270  140.5390 C   0  0  0  0  0  3  0  0  0  0  0  0
  181.3100  176.7700  140.1980 C   0  0  0  0  0  0  0  0  0  0  0  0
  183.4250  177.0630  139.0410 C   0  0  0  0  0  3  0  0  0  0  0  0
  182.3750  178.9490  140.1360 C   0  0  0  0  0  3  0  0  0  0  0  0
  183.4280  178.4190  139.3860 C   0  0  0  0  0  0  0  0  0  0  0  0
  182.3710  176.2420  139.4440 C   0  0  0  0  0  3  0  0  0  0  0  0
  180.2410  175.9750  140.6180 O   0  0  0  0  0  0  0  0  0  0  0  0
  179.1480  175.6480  139.7720 C   0  0  0  0  0  1  0  0  0  0  0  0
  188.3770  177.9370  141.9860 N   0  0  0  0  0  2  0  0  0  0  0  0
  188.8770  176.7470  142.6580 C   0  0  0  0  0  2  0  0  0  0  0  0
  190.2390  177.0330  143.2630 C   0  0  1  0  0  3  0  0  0  0  0  0
  191.0490  177.8900  142.3100 C   0  0  0  0  0  1  0  0  0  0  0  0
  190.0690  177.7720  144.5870 C   0  0  0  0  0  2  0  0  0  0  0  0
  190.2740  176.9330  145.7750 N   0  0  0  0  0  0  0  0  0  0  0  0
  189.1240  177.2890  147.0390 S   0  0  0  0  0  0  0  0  0  0  0  0
  188.6770  176.0210  147.7140 O   0  0  0  0  0  0  0  0  0  0  0  0
  189.7760  178.1830  148.0590 O   0  0  0  0  0  0  0  0  0  0  0  0
  187.7420  178.0870  146.3560 N   0  0  0  0  0  0  0  0  0  0  0  0
  185.5060  179.0140  146.9710 C   0  0  0  0  0  2  0  0  0  0  0  0
  185.8480  177.7740  144.8000 C   0  0  0  0  0  2  0  0  0  0  0  0
  185.4340  179.1000  145.4460 C   0  0  0  0  0  2  0  0  0  0  0  0
  187.0350  177.1190  145.5170 C   0  0  0  0  0  2  0  0  0  0  0  0
  186.8610  178.4780  147.4630 C   0  0  0  0  0  2  0  0  0  0  0  0
  191.6620  176.9390  146.2530 C   0  0  0  0  0  2  0  0  0  0  0  0
  192.4690  175.6380  147.8450 C   0  0  0  0  0  1  0  0  0  0  0  0
  192.1380  175.6460  146.4900 O   0  0  0  0  0  0  0  0  0  0  0  0
  190.0380  177.1360  137.1630 C   0  0  0  0  0  2  0  0  0  0  0  0
  191.0040  175.9540  137.1640 C   0  0  0  0  0  2  0  0  0  0  0  0
  191.9540  176.0450  138.3450 C   0  0  0  0  0  2  0  0  0  0  0  0
  193.2360  176.7550  137.9430 C   0  0  0  0  0  1  0  0  0  0  0  0
  2  8  2  0  0  0  0
  2 10  1  0  0  0  0
  3 22  1  0  0  0  0
  4  5  1  0  0  0  0
  5 40  1  6  0  0  0
  5  8  1  0  0  0  0
  6  4  2  0  0  0  0
  7  3  2  0  0  0  0
  8  7  1  0  0  0  0
  9  2  1  0  0  0  0
 10 11  2  0  0  0  0
 11  3  1  0  0  0  0
 11  1  1  0  0  0  0
 12  4  1  0  0  0  0
 12  9  1  0  0  0  0
 13 10  1  0  0  0  0
 13 18  1  0  0  0  0
 15 14  1  0  0  0  0
 15 20  1  0  0  0  0
 16 18  2  0  0  0  0
 16 19  1  0  0  0  0
 17 14  2  0  0  0  0
 18 17  1  0  0  0  0
 19 15  2  0  0  0  0
 21 20  1  0  0  0  0
 22 23  1  0  0  0  0
 23 24  1  0  0  0  0
 24 25  1  6  0  0  0
 24 26  1  0  0  0  0
 26 27  1  0  0  0  0
 27 37  1  0  0  0  0
 27 28  1  0  0  0  0
 28 29  2  0  0  0  0
 28 30  2  0  0  0  0
 31 28  1  0  0  0  0
 31 36  1  0  0  0  0
 32 36  1  0  0  0  0
 33 34  1  0  0  0  0
 33 35  1  0  0  0  0
 34 32  1  0  0  0  0
 35 31  1  0  0  0  0
 37 39  1  0  0  0  0
 39 38  1  0  0  0  0
 40 41  1  0  0  0  0
 41 42  1  0  0  0  0
 43 42  1  0  0  0  0
M  END
>  <MODEL>
8

>  <REMARK>
 VINA RESULT:      -7.0      3.308      7.961
  Name = 
  15 active torsions:
  status: ('A' for Active; 'I' for Inactive)
    1  A    between atoms: C_1  and  C_34
    2  A    between atoms: C_1  and  C_35
    3  A    between atoms: N_2  and  C_6
    4  A    between atoms: N_2  and  C_13
    5  A    between atoms: C_3  and  N_4
    6  A    between atoms: C_3  and  C_12
    7  A    between atoms: N_4  and  S_14
    8  A    between atoms: N_4  and  C_42
    9  A    between atoms: C_5  and  C_18
   10  A    between atoms: C_6  and  C_12
   11  A    between atoms: N_11  and  S_14
   12  A    between atoms: O_15  and  C_42
   13  A    between atoms: C_18  and  C_24
   14  A    between atoms: C_19  and  O_25
   15  A    between atoms: C_21  and  C_24
                            x       y       z     vdW  Elec       q    Type
                         _______ _______ _______ _____ _____    ______ ____

>  <TORSDO>
F 15

$$$$
=
 OpenBabel10262422313D

 43 46  0  0  1  0  0  0  0  0999 V2000
  184.8060  178.9190  138.6750 C   0  0  0  0  0  1  0  0  0  0  0  0
  186.7050  176.0860  136.9830 C   0  0  0  0  0  0  0  0  0  0  0  0
  184.0690  176.6390  137.8290 C   0  0  0  0  0  0  0  0  0  0  0  0
  187.3870  173.5780  135.7660 C   0  0  0  0  0  0  0  0  0  0  0  0
  185.9430  173.7900  136.1370 C   0  0  2  0  0  3  0  0  0  0  0  0
  187.6880  172.7500  134.9220 O   0  0  0  0  0  0  0  0  0  0  0  0
  184.3850  175.4250  137.2210 C   0  0  0  0  0  3  0  0  0  0  0  0
  185.6830  175.1290  136.8020 C   0  0  0  0  0  0  0  0  0  0  0  0
  188.0790  175.8390  136.4080 C   0  0  0  0  0  2  0  0  0  0  0  0
  186.4100  177.3200  137.5990 C   0  0  0  0  0  0  0  0  0  0  0  0
  185.0910  177.6010  138.0250 C   0  0  0  0  0  0  0  0  0  0  0  0
  188.4540  174.3660  136.4490 C   0  0  0  0  0  2  0  0  0  0  0  0
  187.5050  178.3310  137.8090 C   0  0  0  0  0  2  0  0  0  0  0  0
  190.3070  177.2100  140.1000 C   0  0  0  0  0  3  0  0  0  0  0  0
  189.7480  177.4320  141.3630 C   0  0  0  0  0  0  0  0  0  0  0  0
  187.7220  178.2520  140.3060 C   0  0  0  0  0  3  0  0  0  0  0  0
  189.5790  177.5050  138.9440 C   0  0  0  0  0  3  0  0  0  0  0  0
  188.2870  178.0270  139.0460 C   0  0  0  0  0  0  0  0  0  0  0  0
  188.4490  177.9570  141.4600 C   0  0  0  0  0  3  0  0  0  0  0  0
  190.5030  177.1240  142.4990 O   0  0  0  0  0  0  0  0  0  0  0  0
  190.5350  175.8230  143.0680 C   0  0  0  0  0  1  0  0  0  0  0  0
  182.7020  176.8220  138.2300 N   0  0  0  0  0  2  0  0  0  0  0  0
  182.0350  176.1960  139.3610 C   0  0  0  0  0  2  0  0  0  0  0  0
  180.5620  176.5610  139.3540 C   0  0  1  0  0  3  0  0  0  0  0  0
  179.7250  175.3040  139.2200 C   0  0  0  0  0  1  0  0  0  0  0  0
  180.2010  177.2720  140.6550 C   0  0  0  0  0  2  0  0  0  0  0  0
  180.7880  178.6130  140.7910 N   0  0  0  0  0  0  0  0  0  0  0  0
  180.7610  179.1780  142.4420 S   0  0  0  0  0  0  0  0  0  0  0  0
  180.0600  180.5070  142.5300 O   0  0  0  0  0  0  0  0  0  0  0  0
  180.0250  178.1800  143.2920 O   0  0  0  0  0  0  0  0  0  0  0  0
  182.3880  179.3560  143.0190 N   0  0  0  0  0  0  0  0  0  0  0  0
  184.7150  178.5410  142.6180 C   0  0  0  0  0  2  0  0  0  0  0  0
  183.8560  178.9250  144.9590 C   0  0  0  0  0  2  0  0  0  0  0  0
  184.9110  179.3170  143.9210 C   0  0  0  0  0  2  0  0  0  0  0  0
  182.4670  178.7280  144.3370 C   0  0  0  0  0  2  0  0  0  0  0  0
  183.2700  178.6270  142.1000 C   0  0  0  0  0  2  0  0  0  0  0  0
  180.2240  179.5880  139.8480 C   0  0  0  0  0  2  0  0  0  0  0  0
  180.9570  180.0070  137.8080 C   0  0  0  0  0  1  0  0  0  0  0  0
  181.2230  180.2740  139.1510 O   0  0  0  0  0  0  0  0  0  0  0  0
  185.3980  172.6090  136.9480 C   0  0  0  0  0  2  0  0  0  0  0  0
  184.5450  171.6680  136.1010 C   0  0  0  0  0  2  0  0  0  0  0  0
  183.2770  171.2870  136.8450 C   0  0  0  0  0  2  0  0  0  0  0  0
  182.2830  172.4350  136.8260 C   0  0  0  0  0  1  0  0  0  0  0  0
  2 10  1  0  0  0  0
  3 11  1  0  0  0  0
  3 22  1  0  0  0  0
  4  5  1  0  0  0  0
  4 12  1  0  0  0  0
  5  8  1  0  0  0  0
  5 40  1  1  0  0  0
  6  4  2  0  0  0  0
  7  3  2  0  0  0  0
  8  2  2  0  0  0  0
  8  7  1  0  0  0  0
  9 12  1  0  0  0  0
  9  2  1  0  0  0  0
 10 13  1  0  0  0  0
 10 11  2  0  0  0  0
 11  1  1  0  0  0  0
 13 18  1  0  0  0  0
 14 15  1  0  0  0  0
 15 19  2  0  0  0  0
 15 20  1  0  0  0  0
 16 19  1  0  0  0  0
 17 18  1  0  0  0  0
 17 14  2  0  0  0  0
 18 16  2  0  0  0  0
 20 21  1  0  0  0  0
 22 23  1  0  0  0  0
 24 25  1  1  0  0  0
 24 23  1  0  0  0  0
 24 26  1  0  0  0  0
 26 27  1  0  0  0  0
 27 28  1  0  0  0  0
 28 29  2  0  0  0  0
 28 31  1  0  0  0  0
 28 30  2  0  0  0  0
 31 35  1  0  0  0  0
 32 34  1  0  0  0  0
 34 33  1  0  0  0  0
 35 33  1  0  0  0  0
 36 32  1  0  0  0  0
 36 31  1  0  0  0  0
 37 27  1  0  0  0  0
 38 39  1  0  0  0  0
 39 37  1  0  0  0  0
 41 42  1  0  0  0  0
 41 40  1  0  0  0  0
 43 42  1  0  0  0  0
M  END
>  <MODEL>
9

>  <REMARK>
 VINA RESULT:      -6.9      4.408     10.339
  Name = 
  15 active torsions:
  status: ('A' for Active; 'I' for Inactive)
    1  A    between atoms: C_1  and  C_34
    2  A    between atoms: C_1  and  C_35
    3  A    between atoms: N_2  and  C_6
    4  A    between atoms: N_2  and  C_13
    5  A    between atoms: C_3  and  N_4
    6  A    between atoms: C_3  and  C_12
    7  A    between atoms: N_4  and  S_14
    8  A    between atoms: N_4  and  C_42
    9  A    between atoms: C_5  and  C_18
   10  A    between atoms: C_6  and  C_12
   11  A    between atoms: N_11  and  S_14
   12  A    between atoms: O_15  and  C_42
   13  A    between atoms: C_18  and  C_24
   14  A    between atoms: C_19  and  O_25
   15  A    between atoms: C_21  and  C_24
                            x       y       z     vdW  Elec       q    Type
                         _______ _______ _______ _____ _____    ______ ____

>  <TORSDO>
F 15

$$$$
