=
 OpenBabel10262420143D

 27 30  0  0  1  0  0  0  0  0999 V2000
  189.2630  178.6800  144.0870 C   0  0  1  0  0  3  0  0  0  0  0  0
  188.6370  178.6490  142.7030 C   0  0  1  0  0  3  0  0  0  0  0  0
  190.7340  177.3810  142.6130 N   0  0  2  0  0  0  0  0  0  0  0  0
  184.8770  177.9830  142.5540 C   0  0  0  0  0  2  0  0  0  0  0  0
  187.0880  177.5750  144.2870 C   0  0  2  0  0  3  0  0  0  0  0  0
  191.6180  175.9710  145.0740 C   0  0  0  0  0  0  0  0  0  0  0  0
  185.9880  178.4970  144.8110 C   0  0  0  0  0  2  0  0  0  0  0  0
  189.3270  175.5870  143.3560 O   0  0  0  0  0  1  0  0  0  0  0  0
  191.6550  175.3120  146.1470 O   0  0  0  0  0  0  0  0  0  0  0  0
  188.3820  177.8520  145.0160 C   0  0  0  0  0  2  0  0  0  0  0  0
  190.6660  178.0890  143.9020 C   0  0  2  0  0  3  0  0  0  0  0  0
  189.7210  178.0580  141.7890 C   0  0  1  0  0  3  0  0  0  0  0  0
  191.9430  175.1420  143.5240 S   0  0  0  0  0  0  0  0  0  0  0  0
  191.4600  178.0590  146.1570 O   0  0  0  0  0  0  0  0  0  0  0  0
  184.6750  178.2870  144.0450 C   0  0  0  0  0  2  0  0  0  0  0  0
  191.2840  177.4000  145.0980 C   0  0  0  0  0  0  0  0  0  0  0  0
  186.2250  178.4910  142.0520 C   0  0  0  0  0  2  0  0  0  0  0  0
  190.5200  175.9210  142.7080 C   0  0  2  0  0  3  0  0  0  0  0  0
  187.3740  177.8000  142.7960 C   0  0  1  0  0  3  0  0  0  0  0  0
  189.2790  177.3210  140.5060 C   0  0  2  0  0  3  0  0  0  0  0  0
  190.0610  175.6400  138.9930 O   0  0  0  0  0  1  0  0  0  0  0  0
  190.4840  176.6850  139.8130 C   0  0  0  0  0  2  0  0  0  0  0  0
  188.5150  178.2680  139.5650 C   0  0  2  0  0  3  0  0  0  0  0  0
  187.3080  177.6030  138.9020 C   0  0  0  0  0  2  0  0  0  0  0  0
  186.2670  178.5150  138.7180 O   0  0  0  0  0  1  0  0  0  0  0  0
  189.0410  178.6290  137.1480 C   0  0  0  0  0  1  0  0  0  0  0  0
  189.4150  179.0000  138.5700 C   0  0  0  0  0  2  0  0  0  0  0  0
  1 10  1  1  0  0  0
  2 19  1  0  0  0  0
  2  1  1  0  0  0  0
  3 18  1  0  0  0  0
  3 11  1  0  0  0  0
  4 15  1  0  0  0  0
  5  7  1  0  0  0  0
  5 10  1  0  0  0  0
  6 16  1  0  0  0  0
  6  9  2  0  0  0  0
 11  1  1  0  0  0  0
 11 16  1  0  0  0  0
 12  3  1  0  0  0  0
 12  2  1  0  0  0  0
 13  6  1  0  0  0  0
 15  7  1  0  0  0  0
 16 14  2  0  0  0  0
 17  4  1  0  0  0  0
 17 19  1  0  0  0  0
 18  8  1  0  0  0  0
 18 13  1  0  0  0  0
 19  5  1  0  0  0  0
 20 12  1  0  0  0  0
 21 22  1  0  0  0  0
 22 20  1  0  0  0  0
 23 20  1  0  0  0  0
 24 23  1  0  0  0  0
 25 24  1  0  0  0  0
 26 27  1  0  0  0  0
 27 23  1  0  0  0  0
M  END
>  <MODEL>
1

>  <REMARK>
 VINA RESULT:      -5.8      0.000      0.000
  Name = 
  5 active torsions:
  status: ('A' for Active; 'I' for Inactive)
    1  A    between atoms: C_4  and  C_17
    2  A    between atoms: C_14  and  C_16
    3  A    between atoms: C_14  and  C_17
    4  A    between atoms: C_14  and  C_19
    5  A    between atoms: C_17  and  C_21
                            x       y       z     vdW  Elec       q    Type
                         _______ _______ _______ _____ _____    ______ ____

>  <TORSDO>
F 5

$$$$
=
 OpenBabel10262420143D

 27 30  0  0  1  0  0  0  0  0999 V2000
  184.2980  179.3800  139.9100 C   0  0  1  0  0  3  0  0  0  0  0  0
  182.9180  179.4370  140.5420 C   0  0  1  0  0  3  0  0  0  0  0  0
  182.7200  178.2600  138.3990 N   0  0  2  0  0  0  0  0  0  0  0  0
  182.7240  178.6440  144.2750 C   0  0  0  0  0  2  0  0  0  0  0  0
  184.4130  178.1810  142.0410 C   0  0  2  0  0  3  0  0  0  0  0  0
  185.0580  176.6900  137.4500 C   0  0  0  0  0  0  0  0  0  0  0  0
  185.0120  179.0160  143.1720 C   0  0  0  0  0  2  0  0  0  0  0  0
  183.3190  176.3610  139.7340 O   0  0  0  0  0  1  0  0  0  0  0  0
  186.0740  175.9490  137.3830 O   0  0  0  0  0  0  0  0  0  0  0  0
  185.1590  178.4470  140.7540 C   0  0  0  0  0  2  0  0  0  0  0  0
  184.0630  178.8590  138.4870 C   0  0  2  0  0  3  0  0  0  0  0  0
  181.9560  178.9630  139.4410 C   0  0  1  0  0  3  0  0  0  0  0  0
  183.4450  176.0030  137.1030 S   0  0  0  0  0  0  0  0  0  0  0  0
  186.3060  178.6770  137.6810 O   0  0  0  0  0  0  0  0  0  0  0  0
  184.2350  178.8190  144.4800 C   0  0  0  0  0  2  0  0  0  0  0  0
  185.1980  178.1000  137.8380 C   0  0  0  0  0  0  0  0  0  0  0  0
  182.2610  179.2410  142.9500 C   0  0  0  0  0  2  0  0  0  0  0  0
  182.6970  176.7900  138.5590 C   0  0  2  0  0  3  0  0  0  0  0  0
  182.9440  178.5360  141.7710 C   0  0  1  0  0  3  0  0  0  0  0  0
  180.6180  178.3160  139.8620 C   0  0  2  0  0  3  0  0  0  0  0  0
  179.3130  176.5390  138.9340 O   0  0  0  0  0  1  0  0  0  0  0  0
  179.8760  177.7790  138.6390 C   0  0  0  0  0  2  0  0  0  0  0  0
  179.7570  179.3080  140.6620 C   0  0  2  0  0  3  0  0  0  0  0  0
  178.9310  178.6320  141.7560 C   0  0  0  0  0  2  0  0  0  0  0  0
  179.4610  177.3840  142.0920 O   0  0  0  0  0  1  0  0  0  0  0  0
  179.5040  181.6500  139.8290 C   0  0  0  0  0  1  0  0  0  0  0  0
  178.9310  180.2470  139.7840 C   0  0  0  0  0  2  0  0  0  0  0  0
  1  2  1  0  0  0  0
  1 10  1  1  0  0  0
  2 19  1  0  0  0  0
  3 11  1  0  0  0  0
  3 18  1  0  0  0  0
  3 12  1  0  0  0  0
  4 15  1  0  0  0  0
  5  7  1  0  0  0  0
  6 16  1  0  0  0  0
  7 15  1  0  0  0  0
  9  6  2  0  0  0  0
 10  5  1  0  0  0  0
 11  1  1  0  0  0  0
 12 20  1  0  0  0  0
 12  2  1  0  0  0  0
 13  6  1  0  0  0  0
 13 18  1  0  0  0  0
 14 16  2  0  0  0  0
 16 11  1  0  0  0  0
 17  4  1  0  0  0  0
 18  8  1  0  0  0  0
 19  5  1  0  0  0  0
 19 17  1  0  0  0  0
 20 23  1  0  0  0  0
 22 21  1  0  0  0  0
 22 20  1  0  0  0  0
 23 24  1  0  0  0  0
 24 25  1  0  0  0  0
 27 26  1  0  0  0  0
 27 23  1  0  0  0  0
M  END
>  <MODEL>
2

>  <REMARK>
 VINA RESULT:      -5.6      5.582      8.127
  Name = 
  5 active torsions:
  status: ('A' for Active; 'I' for Inactive)
    1  A    between atoms: C_4  and  C_17
    2  A    between atoms: C_14  and  C_16
    3  A    between atoms: C_14  and  C_17
    4  A    between atoms: C_14  and  C_19
    5  A    between atoms: C_17  and  C_21
                            x       y       z     vdW  Elec       q    Type
                         _______ _______ _______ _____ _____    ______ ____

>  <TORSDO>
F 5

$$$$
=
 OpenBabel10262420143D

 27 30  0  0  1  0  0  0  0  0999 V2000
  183.6200  179.2010  140.0420 C   0  0  1  0  0  3  0  0  0  0  0  0
  182.5160  179.3190  141.0800 C   0  0  1  0  0  3  0  0  0  0  0  0
  181.6550  177.9870  139.2100 N   0  0  2  0  0  0  0  0  0  0  0  0
  183.5490  178.8130  144.7230 C   0  0  0  0  0  2  0  0  0  0  0  0
  184.4340  178.1660  142.1050 C   0  0  2  0  0  3  0  0  0  0  0  0
  183.5840  176.3260  137.6770 C   0  0  0  0  0  0  0  0  0  0  0  0
  185.3540  179.0780  142.9160 C   0  0  0  0  0  2  0  0  0  0  0  0
  182.6810  176.1870  140.4180 O   0  0  0  0  0  1  0  0  0  0  0  0
  184.5350  175.5720  137.3410 O   0  0  0  0  0  0  0  0  0  0  0  0
  184.7210  178.3260  140.6300 C   0  0  0  0  0  2  0  0  0  0  0  0
  182.9450  178.5770  138.8150 C   0  0  2  0  0  3  0  0  0  0  0  0
  181.2580  178.7730  140.3870 C   0  0  1  0  0  3  0  0  0  0  0  0
  181.9560  175.6300  137.9220 S   0  0  0  0  0  0  0  0  0  0  0  0
  184.8100  178.3120  137.3430 O   0  0  0  0  0  0  0  0  0  0  0  0
  185.0430  178.9870  144.4160 C   0  0  0  0  0  2  0  0  0  0  0  0
  183.8210  177.7590  137.8920 C   0  0  0  0  0  0  0  0  0  0  0  0
  182.6750  179.3130  143.5780 C   0  0  0  0  0  2  0  0  0  0  0  0
  181.7070  176.5330  139.4780 C   0  0  2  0  0  3  0  0  0  0  0  0
  182.9510  178.5140  142.2980 C   0  0  1  0  0  3  0  0  0  0  0  0
  180.1380  178.1740  141.2650 C   0  0  2  0  0  3  0  0  0  0  0  0
  178.9310  176.1120  141.3940 O   0  0  0  0  0  1  0  0  0  0  0  0
  179.3890  177.0810  140.5030 C   0  0  0  0  0  2  0  0  0  0  0  0
  179.1850  179.2720  141.7670 C   0  0  2  0  0  3  0  0  0  0  0  0
  179.0320  180.4260  140.7750 C   0  0  0  0  0  2  0  0  0  0  0  0
  179.3680  181.6460  141.3640 O   0  0  0  0  0  1  0  0  0  0  0  0
  179.3850  178.5850  144.1610 C   0  0  0  0  0  1  0  0  0  0  0  0
  179.4880  179.7430  143.1890 C   0  0  0  0  0  2  0  0  0  0  0  0
  1 10  1  1  0  0  0
  1  2  1  0  0  0  0
  2 19  1  0  0  0  0
  3 18  1  0  0  0  0
  3 12  1  0  0  0  0
  5 19  1  0  0  0  0
  5  7  1  0  0  0  0
  6 16  1  0  0  0  0
  6 13  1  0  0  0  0
  7 15  1  0  0  0  0
  9  6  2  0  0  0  0
 10  5  1  0  0  0  0
 11  3  1  0  0  0  0
 11  1  1  0  0  0  0
 12  2  1  0  0  0  0
 12 20  1  0  0  0  0
 13 18  1  0  0  0  0
 14 16  2  0  0  0  0
 15  4  1  0  0  0  0
 16 11  1  0  0  0  0
 17  4  1  0  0  0  0
 18  8  1  0  0  0  0
 19 17  1  0  0  0  0
 20 23  1  0  0  0  0
 22 20  1  0  0  0  0
 22 21  1  0  0  0  0
 23 27  1  0  0  0  0
 24 25  1  0  0  0  0
 24 23  1  0  0  0  0
 27 26  1  0  0  0  0
M  END
>  <MODEL>
3

>  <REMARK>
 VINA RESULT:      -5.2      5.847      8.661
  Name = 
  5 active torsions:
  status: ('A' for Active; 'I' for Inactive)
    1  A    between atoms: C_4  and  C_17
    2  A    between atoms: C_14  and  C_16
    3  A    between atoms: C_14  and  C_17
    4  A    between atoms: C_14  and  C_19
    5  A    between atoms: C_17  and  C_21
                            x       y       z     vdW  Elec       q    Type
                         _______ _______ _______ _____ _____    ______ ____

>  <TORSDO>
F 5

$$$$
=
 OpenBabel10262420143D

 27 30  0  0  1  0  0  0  0  0999 V2000
  189.3730  177.9990  137.3580 C   0  0  1  0  0  3  0  0  0  0  0  0
  188.3020  178.3370  138.3810 C   0  0  1  0  0  3  0  0  0  0  0  0
  187.2070  177.2560  136.4710 N   0  0  2  0  0  0  0  0  0  0  0  0
  189.1300  177.5550  142.0280 C   0  0  0  0  0  2  0  0  0  0  0  0
  189.9030  176.7760  139.4110 C   0  0  2  0  0  3  0  0  0  0  0  0
  188.7590  175.2420  134.9330 C   0  0  0  0  0  0  0  0  0  0  0  0
  190.9830  177.4530  140.2550 C   0  0  0  0  0  2  0  0  0  0  0  0
  187.7950  175.2560  137.6570 O   0  0  0  0  0  1  0  0  0  0  0  0
  189.5300  174.3050  134.5950 O   0  0  0  0  0  0  0  0  0  0  0  0
  190.2460  176.8960  137.9440 C   0  0  0  0  0  2  0  0  0  0  0  0
  188.6020  177.5580  136.1070 C   0  0  2  0  0  3  0  0  0  0  0  0
  186.9680  178.0900  137.6590 C   0  0  1  0  0  3  0  0  0  0  0  0
  187.0140  174.9130  135.1390 S   0  0  0  0  0  0  0  0  0  0  0  0
  190.3930  176.9190  134.6590 O   0  0  0  0  0  0  0  0  0  0  0  0
  190.6320  177.4060  141.7470 C   0  0  0  0  0  2  0  0  0  0  0  0
  189.2970  176.5850  135.1810 C   0  0  0  0  0  0  0  0  0  0  0  0
  188.4070  178.2540  140.8810 C   0  0  0  0  0  2  0  0  0  0  0  0
  186.9370  175.8220  136.7090 C   0  0  2  0  0  3  0  0  0  0  0  0
  188.5280  177.4350  139.5890 C   0  0  1  0  0  3  0  0  0  0  0  0
  185.7280  177.7330  138.5070 C   0  0  2  0  0  3  0  0  0  0  0  0
  183.8410  176.2740  138.3120 O   0  0  0  0  0  1  0  0  0  0  0  0
  184.6030  177.2100  137.6140 C   0  0  0  0  0  2  0  0  0  0  0  0
  185.2740  178.9370  139.3490 C   0  0  2  0  0  3  0  0  0  0  0  0
  185.0280  178.5810  140.8150 C   0  0  0  0  0  2  0  0  0  0  0  0
  185.2850  179.6700  141.6500 O   0  0  0  0  0  1  0  0  0  0  0  0
  182.8160  179.3840  139.4170 C   0  0  0  0  0  1  0  0  0  0  0  0
  184.1210  179.7220  138.7240 C   0  0  0  0  0  2  0  0  0  0  0  0
  1 10  1  1  0  0  0
  1  2  1  0  0  0  0
  2 19  1  0  0  0  0
  3 18  1  0  0  0  0
  3 12  1  0  0  0  0
  5 19  1  0  0  0  0
  5  7  1  0  0  0  0
  6 13  1  0  0  0  0
  6 16  1  0  0  0  0
  7 15  1  0  0  0  0
  9  6  2  0  0  0  0
 10  5  1  0  0  0  0
 11  3  1  0  0  0  0
 11  1  1  0  0  0  0
 12  2  1  0  0  0  0
 12 20  1  0  0  0  0
 13 18  1  0  0  0  0
 14 16  2  0  0  0  0
 15  4  1  0  0  0  0
 16 11  1  0  0  0  0
 17  4  1  0  0  0  0
 18  8  1  0  0  0  0
 19 17  1  0  0  0  0
 20 23  1  0  0  0  0
 22 21  1  0  0  0  0
 22 20  1  0  0  0  0
 23 24  1  0  0  0  0
 24 25  1  0  0  0  0
 27 23  1  0  0  0  0
 27 26  1  0  0  0  0
M  END
>  <MODEL>
4

>  <REMARK>
 VINA RESULT:      -5.2      4.054      6.895
  Name = 
  5 active torsions:
  status: ('A' for Active; 'I' for Inactive)
    1  A    between atoms: C_4  and  C_17
    2  A    between atoms: C_14  and  C_16
    3  A    between atoms: C_14  and  C_17
    4  A    between atoms: C_14  and  C_19
    5  A    between atoms: C_17  and  C_21
                            x       y       z     vdW  Elec       q    Type
                         _______ _______ _______ _____ _____    ______ ____

>  <TORSDO>
F 5

$$$$
=
 OpenBabel10262420143D

 27 30  0  0  1  0  0  0  0  0999 V2000
  191.3050  176.7350  137.0730 C   0  0  1  0  0  3  0  0  0  0  0  0
  189.8480  177.0790  137.3320 C   0  0  1  0  0  3  0  0  0  0  0  0
  189.9170  175.3220  135.6230 N   0  0  2  0  0  0  0  0  0  0  0  0
  188.8220  177.4810  140.9900 C   0  0  0  0  0  2  0  0  0  0  0  0
  190.8370  176.2400  139.4240 C   0  0  2  0  0  3  0  0  0  0  0  0
  192.1620  173.3760  135.7140 C   0  0  0  0  0  0  0  0  0  0  0  0
  191.3110  177.3370  140.3780 C   0  0  0  0  0  2  0  0  0  0  0  0
  189.9810  173.8840  137.5410 O   0  0  0  0  0  1  0  0  0  0  0  0
  193.0620  172.5810  136.0920 O   0  0  0  0  0  0  0  0  0  0  0  0
  191.8500  176.0470  138.3190 C   0  0  0  0  0  2  0  0  0  0  0  0
  191.2850  175.8230  135.8400 C   0  0  2  0  0  3  0  0  0  0  0  0
  189.0660  176.3610  136.2210 C   0  0  1  0  0  3  0  0  0  0  0  0
  190.5700  172.7310  135.2190 S   0  0  0  0  0  0  0  0  0  0  0  0
  193.5970  175.2450  135.6510 O   0  0  0  0  0  0  0  0  0  0  0  0
  190.2730  177.6030  141.4750 C   0  0  0  0  0  2  0  0  0  0  0  0
  192.4130  174.8230  135.7080 C   0  0  0  0  0  0  0  0  0  0  0  0
  188.7120  177.6760  139.4810 C   0  0  0  0  0  2  0  0  0  0  0  0
  189.6660  173.9760  136.1820 C   0  0  2  0  0  3  0  0  0  0  0  0
  189.5120  176.5980  138.7380 C   0  0  1  0  0  3  0  0  0  0  0  0
  187.5970  175.9690  136.4930 C   0  0  2  0  0  3  0  0  0  0  0  0
  186.2020  175.2730  134.6780 O   0  0  0  0  0  1  0  0  0  0  0  0
  187.1710  174.8240  135.5750 C   0  0  0  0  0  2  0  0  0  0  0  0
  186.6690  177.1880  136.3530 C   0  0  2  0  0  3  0  0  0  0  0  0
  187.3970  178.4360  135.8550 C   0  0  0  0  0  2  0  0  0  0  0  0
  187.3430  179.4630  136.8000 O   0  0  0  0  0  1  0  0  0  0  0  0
  184.3950  176.9570  137.3630 C   0  0  0  0  0  1  0  0  0  0  0  0
  185.8100  177.4500  137.5890 C   0  0  0  0  0  2  0  0  0  0  0  0
  1  2  1  0  0  0  0
  1 10  1  1  0  0  0
  2 19  1  0  0  0  0
  3 11  1  0  0  0  0
  3 18  1  0  0  0  0
  3 12  1  0  0  0  0
  4 15  1  0  0  0  0
  5  7  1  0  0  0  0
  6  9  2  0  0  0  0
  7 15  1  0  0  0  0
 10  5  1  0  0  0  0
 11  1  1  0  0  0  0
 12 20  1  0  0  0  0
 12  2  1  0  0  0  0
 13  6  1  0  0  0  0
 13 18  1  0  0  0  0
 14 16  2  0  0  0  0
 16  6  1  0  0  0  0
 16 11  1  0  0  0  0
 17  4  1  0  0  0  0
 18  8  1  0  0  0  0
 19  5  1  0  0  0  0
 19 17  1  0  0  0  0
 21 22  1  0  0  0  0
 22 20  1  0  0  0  0
 23 20  1  0  0  0  0
 23 27  1  0  0  0  0
 24 23  1  0  0  0  0
 24 25  1  0  0  0  0
 26 27  1  0  0  0  0
M  END
>  <MODEL>
5

>  <REMARK>
 VINA RESULT:      -5.0      4.434      6.759
  Name = 
  5 active torsions:
  status: ('A' for Active; 'I' for Inactive)
    1  A    between atoms: C_4  and  C_17
    2  A    between atoms: C_14  and  C_16
    3  A    between atoms: C_14  and  C_17
    4  A    between atoms: C_14  and  C_19
    5  A    between atoms: C_17  and  C_21
                            x       y       z     vdW  Elec       q    Type
                         _______ _______ _______ _____ _____    ______ ____

>  <TORSDO>
F 5

$$$$
=
 OpenBabel10262420143D

 27 30  0  0  1  0  0  0  0  0999 V2000
  188.0730  176.4210  142.8120 C   0  0  1  0  0  3  0  0  0  0  0  0
  187.4410  176.9140  144.1020 C   0  0  1  0  0  3  0  0  0  0  0  0
  189.8770  176.9990  144.3740 N   0  0  2  0  0  0  0  0  0  0  0  0
  184.5120  179.3410  143.7410 C   0  0  0  0  0  2  0  0  0  0  0  0
  186.7580  178.4150  142.2740 C   0  0  2  0  0  3  0  0  0  0  0  0
  191.5310  177.5020  141.9570 C   0  0  0  0  0  0  0  0  0  0  0  0
  185.3890  178.0920  141.6760 C   0  0  0  0  0  2  0  0  0  0  0  0
  189.6100  179.1510  143.3500 O   0  0  0  0  0  1  0  0  0  0  0  0
  191.9730  177.9290  140.8580 O   0  0  0  0  0  0  0  0  0  0  0  0
  187.7950  177.4590  141.7300 C   0  0  0  0  0  2  0  0  0  0  0  0
  189.5640  176.2690  143.1330 C   0  0  2  0  0  3  0  0  0  0  0  0
  188.6010  177.0030  145.1060 C   0  0  1  0  0  3  0  0  0  0  0  0
  192.1040  178.2410  143.4810 S   0  0  0  0  0  0  0  0  0  0  0  0
  190.4390  175.6470  140.9970 O   0  0  0  0  0  0  0  0  0  0  0  0
  184.3010  179.0030  142.2580 C   0  0  0  0  0  2  0  0  0  0  0  0
  190.5330  176.4250  141.9820 C   0  0  0  0  0  0  0  0  0  0  0  0
  185.3840  178.3020  144.4380 C   0  0  0  0  0  2  0  0  0  0  0  0
  190.4240  178.3560  144.1610 C   0  0  2  0  0  3  0  0  0  0  0  0
  186.7790  178.2540  143.8000 C   0  0  1  0  0  3  0  0  0  0  0  0
  188.4860  178.0050  146.2750 C   0  0  2  0  0  3  0  0  0  0  0  0
  190.2610  176.6990  147.2080 O   0  0  0  0  0  1  0  0  0  0  0  0
  189.7650  177.9980  147.1110 C   0  0  0  0  0  2  0  0  0  0  0  0
  187.2440  177.7090  147.1320 C   0  0  2  0  0  3  0  0  0  0  0  0
  186.3800  178.9460  147.3760 C   0  0  0  0  0  2  0  0  0  0  0  0
  185.0210  178.6290  147.3410 O   0  0  0  0  0  1  0  0  0  0  0  0
  187.6180  177.8780  149.5970 C   0  0  0  0  0  1  0  0  0  0  0  0
  187.5530  176.9340  148.4130 C   0  0  0  0  0  2  0  0  0  0  0  0
  1 10  1  6  0  0  0
  1 11  1  0  0  0  0
  1  2  1  0  0  0  0
  2 12  1  0  0  0  0
  3 12  1  0  0  0  0
  4 17  1  0  0  0  0
  5 19  1  0  0  0  0
  6 16  1  0  0  0  0
  6 13  1  0  0  0  0
  7 15  1  0  0  0  0
  7  5  1  0  0  0  0
  8 18  1  0  0  0  0
  9  6  2  0  0  0  0
 10  5  1  0  0  0  0
 11  3  1  0  0  0  0
 12 20  1  0  0  0  0
 13 18  1  0  0  0  0
 14 16  2  0  0  0  0
 15  4  1  0  0  0  0
 16 11  1  0  0  0  0
 18  3  1  0  0  0  0
 19  2  1  0  0  0  0
 19 17  1  0  0  0  0
 20 22  1  0  0  0  0
 20 23  1  0  0  0  0
 22 21  1  0  0  0  0
 23 24  1  0  0  0  0
 23 27  1  0  0  0  0
 25 24  1  0  0  0  0
 27 26  1  0  0  0  0
M  END
>  <MODEL>
6

>  <REMARK>
 VINA RESULT:      -5.0      2.449      5.549
  Name = 
  5 active torsions:
  status: ('A' for Active; 'I' for Inactive)
    1  A    between atoms: C_4  and  C_17
    2  A    between atoms: C_14  and  C_16
    3  A    between atoms: C_14  and  C_17
    4  A    between atoms: C_14  and  C_19
    5  A    between atoms: C_17  and  C_21
                            x       y       z     vdW  Elec       q    Type
                         _______ _______ _______ _____ _____    ______ ____

>  <TORSDO>
F 5

$$$$
=
 OpenBabel10262420143D

 27 30  0  0  1  0  0  0  0  0999 V2000
  182.2510  178.7800  138.4430 C   0  0  1  0  0  3  0  0  0  0  0  0
  181.7310  178.7540  139.8700 C   0  0  1  0  0  3  0  0  0  0  0  0
  180.3120  177.2760  138.5230 N   0  0  2  0  0  0  0  0  0  0  0  0
  184.3580  178.4710  142.6310 C   0  0  0  0  0  2  0  0  0  0  0  0
  184.0440  177.9130  139.8660 C   0  0  2  0  0  3  0  0  0  0  0  0
  181.5500  175.8880  136.2050 C   0  0  0  0  0  0  0  0  0  0  0  0
  185.0950  178.9640  140.2210 C   0  0  0  0  0  2  0  0  0  0  0  0
  182.0120  175.6690  139.0490 O   0  0  0  0  0  1  0  0  0  0  0  0
  182.3410  175.2760  135.4400 O   0  0  0  0  0  0  0  0  0  0  0  0
  183.6080  178.0870  138.4290 C   0  0  0  0  0  2  0  0  0  0  0  0
  181.1890  178.0420  137.6200 C   0  0  2  0  0  3  0  0  0  0  0  0
  180.3850  178.0180  139.7910 C   0  0  1  0  0  3  0  0  0  0  0  0
  180.3220  174.9660  137.1210 S   0  0  0  0  0  0  0  0  0  0  0  0
  182.2040  178.0250  135.4560 O   0  0  0  0  0  0  0  0  0  0  0  0
  185.5110  178.8570  141.6940 C   0  0  0  0  0  2  0  0  0  0  0  0
  181.6570  177.3440  136.3620 C   0  0  0  0  0  0  0  0  0  0  0  0
  183.0000  178.8170  142.0270 C   0  0  0  0  0  2  0  0  0  0  0  0
  180.6800  175.8510  138.6650 C   0  0  2  0  0  3  0  0  0  0  0  0
  182.7770  178.0440  140.7210 C   0  0  1  0  0  3  0  0  0  0  0  0
  179.8780  177.2770  141.0470 C   0  0  2  0  0  3  0  0  0  0  0  0
  178.9310  175.1640  141.6520 O   0  0  0  0  0  1  0  0  0  0  0  0
  178.9420  176.1350  140.6520 C   0  0  0  0  0  2  0  0  0  0  0  0
  179.2030  178.2530  142.0260 C   0  0  2  0  0  3  0  0  0  0  0  0
  178.9320  179.6240  141.4060 C   0  0  0  0  0  2  0  0  0  0  0  0
  179.8920  180.5570  141.8040 O   0  0  0  0  0  1  0  0  0  0  0  0
  179.0280  179.0840  144.3760 C   0  0  0  0  0  1  0  0  0  0  0  0
  179.8980  178.3380  143.3840 C   0  0  0  0  0  2  0  0  0  0  0  0
  1 10  1  1  0  0  0
  1  2  1  0  0  0  0
  2 19  1  0  0  0  0
  3 18  1  0  0  0  0
  3 12  1  0  0  0  0
  5  7  1  0  0  0  0
  5 19  1  0  0  0  0
  6 16  1  0  0  0  0
  6 13  1  0  0  0  0
  7 15  1  0  0  0  0
  9  6  2  0  0  0  0
 10  5  1  0  0  0  0
 11  1  1  0  0  0  0
 11  3  1  0  0  0  0
 12  2  1  0  0  0  0
 12 20  1  0  0  0  0
 13 18  1  0  0  0  0
 14 16  2  0  0  0  0
 15  4  1  0  0  0  0
 16 11  1  0  0  0  0
 17  4  1  0  0  0  0
 18  8  1  0  0  0  0
 19 17  1  0  0  0  0
 20 23  1  0  0  0  0
 22 20  1  0  0  0  0
 22 21  1  0  0  0  0
 23 27  1  0  0  0  0
 24 25  1  0  0  0  0
 24 23  1  0  0  0  0
 27 26  1  0  0  0  0
M  END
>  <MODEL>
7

>  <REMARK>
 VINA RESULT:      -4.6      6.497      9.819
  Name = 
  5 active torsions:
  status: ('A' for Active; 'I' for Inactive)
    1  A    between atoms: C_4  and  C_17
    2  A    between atoms: C_14  and  C_16
    3  A    between atoms: C_14  and  C_17
    4  A    between atoms: C_14  and  C_19
    5  A    between atoms: C_17  and  C_21
                            x       y       z     vdW  Elec       q    Type
                         _______ _______ _______ _____ _____    ______ ____

>  <TORSDO>
F 5

$$$$
=
 OpenBabel10262420143D

 27 30  0  0  1  0  0  0  0  0999 V2000
  182.8460  175.7790  136.1590 C   0  0  1  0  0  3  0  0  0  0  0  0
  184.2680  176.1870  136.5050 C   0  0  1  0  0  3  0  0  0  0  0  0
  182.7400  177.6450  137.7520 N   0  0  2  0  0  0  0  0  0  0  0  0
  186.7280  173.3480  137.2010 C   0  0  0  0  0  2  0  0  0  0  0  0
  183.9350  173.8490  137.1980 C   0  0  2  0  0  3  0  0  0  0  0  0
  180.1070  176.5320  138.5650 C   0  0  0  0  0  0  0  0  0  0  0  0
  184.4310  172.8180  136.1850 C   0  0  0  0  0  2  0  0  0  0  0  0
  182.8060  175.8460  139.3370 O   0  0  0  0  0  1  0  0  0  0  0  0
  179.1810  175.7780  138.9640 O   0  0  0  0  0  0  0  0  0  0  0  0
  182.5980  174.4000  136.7580 C   0  0  0  0  0  2  0  0  0  0  0  0
  181.9600  176.8710  136.7710 C   0  0  2  0  0  3  0  0  0  0  0  0
  184.1270  177.5050  137.2830 C   0  0  1  0  0  3  0  0  0  0  0  0
  180.8900  177.6480  139.7220 S   0  0  0  0  0  0  0  0  0  0  0  0
  179.7770  176.0240  136.2870 O   0  0  0  0  0  0  0  0  0  0  0  0
  185.8180  172.2860  136.5690 C   0  0  0  0  0  2  0  0  0  0  0  0
  180.5560  176.4720  137.1690 C   0  0  0  0  0  0  0  0  0  0  0  0
  186.3020  174.7600  136.8150 C   0  0  0  0  0  2  0  0  0  0  0  0
  182.5580  177.2090  139.1530 C   0  0  2  0  0  3  0  0  0  0  0  0
  184.8810  175.0520  137.3150 C   0  0  1  0  0  3  0  0  0  0  0  0
  185.2320  177.8840  138.2920 C   0  0  2  0  0  3  0  0  0  0  0  0
  185.2470  179.2960  140.2240 O   0  0  0  0  0  1  0  0  0  0  0  0
  184.9840  179.2830  138.8550 C   0  0  0  0  0  2  0  0  0  0  0  0
  186.6250  177.7670  137.6510 C   0  0  2  0  0  3  0  0  0  0  0  0
  187.7550  177.7420  138.6810 C   0  0  0  0  0  2  0  0  0  0  0  0
  188.5290  178.9020  138.6100 O   0  0  0  0  0  1  0  0  0  0  0  0
  187.2400  178.0470  135.2450 C   0  0  0  0  0  1  0  0  0  0  0  0
  186.8670  178.7710  136.5240 C   0  0  0  0  0  2  0  0  0  0  0  0
  1  2  1  0  0  0  0
  1 10  1  1  0  0  0
  1 11  1  0  0  0  0
  2 12  1  0  0  0  0
  2 19  1  0  0  0  0
  3 18  1  0  0  0  0
  5 19  1  0  0  0  0
  6  9  2  0  0  0  0
  6 13  1  0  0  0  0
  7 15  1  0  0  0  0
  7  5  1  0  0  0  0
 10  5  1  0  0  0  0
 11 16  1  0  0  0  0
 11  3  1  0  0  0  0
 12  3  1  0  0  0  0
 12 20  1  0  0  0  0
 14 16  2  0  0  0  0
 15  4  1  0  0  0  0
 16  6  1  0  0  0  0
 17  4  1  0  0  0  0
 17 19  1  0  0  0  0
 18  8  1  0  0  0  0
 18 13  1  0  0  0  0
 20 22  1  0  0  0  0
 22 21  1  0  0  0  0
 23 20  1  0  0  0  0
 23 24  1  0  0  0  0
 25 24  1  0  0  0  0
 26 27  1  0  0  0  0
 27 23  1  0  0  0  0
M  END
>  <MODEL>
8

>  <REMARK>
 VINA RESULT:      -4.6      5.696      8.985
  Name = 
  5 active torsions:
  status: ('A' for Active; 'I' for Inactive)
    1  A    between atoms: C_4  and  C_17
    2  A    between atoms: C_14  and  C_16
    3  A    between atoms: C_14  and  C_17
    4  A    between atoms: C_14  and  C_19
    5  A    between atoms: C_17  and  C_21
                            x       y       z     vdW  Elec       q    Type
                         _______ _______ _______ _____ _____    ______ ____

>  <TORSDO>
F 5

$$$$
=
 OpenBabel10262420143D

 27 30  0  0  1  0  0  0  0  0999 V2000
  189.5140  174.5580  136.5050 C   0  0  1  0  0  3  0  0  0  0  0  0
  189.0820  175.6090  137.5130 C   0  0  1  0  0  3  0  0  0  0  0  0
  191.3540  174.8930  138.0950 N   0  0  2  0  0  0  0  0  0  0  0  0
  187.3230  178.6940  136.1030 C   0  0  0  0  0  2  0  0  0  0  0  0
  189.0830  176.6280  135.2720 C   0  0  2  0  0  3  0  0  0  0  0  0
  193.1470  174.0170  135.8930 C   0  0  0  0  0  0  0  0  0  0  0  0
  187.7140  176.6540  134.5940 C   0  0  0  0  0  2  0  0  0  0  0  0
  191.9660  176.5810  136.5070 O   0  0  0  0  0  1  0  0  0  0  0  0
  193.7510  173.9050  134.7940 O   0  0  0  0  0  0  0  0  0  0  0  0
  189.6890  175.2480  135.1570 C   0  0  0  0  0  2  0  0  0  0  0  0
  190.8230  173.9860  137.0630 C   0  0  2  0  0  3  0  0  0  0  0  0
  190.1570  175.5740  138.6110 C   0  0  1  0  0  3  0  0  0  0  0  0
  193.9140  174.9230  137.2300 S   0  0  0  0  0  0  0  0  0  0  0  0
  191.4550  172.4790  135.3190 O   0  0  0  0  0  0  0  0  0  0  0  0
  187.0420  178.0240  134.7500 C   0  0  0  0  0  2  0  0  0  0  0  0
  191.8110  173.4300  136.0620 C   0  0  0  0  0  0  0  0  0  0  0  0
  187.7080  177.6730  137.1690 C   0  0  0  0  0  2  0  0  0  0  0  0
  192.3870  175.8310  137.6080 C   0  0  2  0  0  3  0  0  0  0  0  0
  188.9950  176.9380  136.7730 C   0  0  1  0  0  3  0  0  0  0  0  0
  190.4010  176.8530  139.4410 C   0  0  2  0  0  3  0  0  0  0  0  0
  192.2680  178.0260  140.3690 O   0  0  0  0  0  1  0  0  0  0  0  0
  191.7250  176.7540  140.1970 C   0  0  0  0  0  2  0  0  0  0  0  0
  189.2220  177.1250  140.3900 C   0  0  2  0  0  3  0  0  0  0  0  0
  188.7310  178.5720  140.3320 C   0  0  0  0  0  2  0  0  0  0  0  0
  187.3380  178.6310  140.2650 O   0  0  0  0  0  1  0  0  0  0  0  0
  189.3980  177.7900  142.7930 C   0  0  0  0  0  1  0  0  0  0  0  0
  189.4570  176.6310  141.8170 C   0  0  0  0  0  2  0  0  0  0  0  0
  1 10  1  6  0  0  0
  1 11  1  0  0  0  0
  1  2  1  0  0  0  0
  2 12  1  0  0  0  0
  3 12  1  0  0  0  0
  4 17  1  0  0  0  0
  5 19  1  0  0  0  0
  6 16  1  0  0  0  0
  6 13  1  0  0  0  0
  7 15  1  0  0  0  0
  7  5  1  0  0  0  0
  8 18  1  0  0  0  0
  9  6  2  0  0  0  0
 10  5  1  0  0  0  0
 11  3  1  0  0  0  0
 12 20  1  0  0  0  0
 13 18  1  0  0  0  0
 14 16  2  0  0  0  0
 15  4  1  0  0  0  0
 16 11  1  0  0  0  0
 18  3  1  0  0  0  0
 19 17  1  0  0  0  0
 19  2  1  0  0  0  0
 20 22  1  0  0  0  0
 20 23  1  0  0  0  0
 22 21  1  0  0  0  0
 23 27  1  0  0  0  0
 24 23  1  0  0  0  0
 25 24  1  0  0  0  0
 27 26  1  0  0  0  0
M  END
>  <MODEL>
9

>  <REMARK>
 VINA RESULT:      -4.5      3.475      7.210
  Name = 
  5 active torsions:
  status: ('A' for Active; 'I' for Inactive)
    1  A    between atoms: C_4  and  C_17
    2  A    between atoms: C_14  and  C_16
    3  A    between atoms: C_14  and  C_17
    4  A    between atoms: C_14  and  C_19
    5  A    between atoms: C_17  and  C_21
                            x       y       z     vdW  Elec       q    Type
                         _______ _______ _______ _____ _____    ______ ____

>  <TORSDO>
F 5

$$$$
