=
 OpenBabel10262421343D

 32 36  0  0  1  0  0  0  0  0999 V2000
  188.3510  177.6720  145.2940 C   0  0  0  0  0  0  0  0  0  0  0  0
  190.0770  176.6070  140.6240 C   0  0  2  0  0  3  0  0  0  0  0  0
  186.4300  178.0490  137.6870 C   0  0  0  0  0  3  0  0  0  0  0  0
  187.0670  177.4240  136.6140 C   0  0  0  0  0  3  0  0  0  0  0  0
  189.9460  177.0920  143.0680 C   0  0  0  0  0  0  0  0  0  0  0  0
  188.1120  177.7120  141.5660 N   0  0  0  0  0  2  0  0  0  0  0  0
  187.8240  177.8120  144.0050 C   0  0  0  0  0  3  0  0  0  0  0  0
  187.0660  178.1280  138.9260 C   0  0  0  0  0  3  0  0  0  0  0  0
  189.0410  177.7140  140.4350 C   0  0  2  0  0  3  0  0  0  0  0  0
  188.3420  177.5750  139.1090 C   0  0  0  0  0  0  0  0  0  0  0  0
  190.3840  176.3470  138.1580 C   0  0  2  0  0  3  0  0  0  0  0  0
  189.6760  177.2510  145.4670 C   0  0  0  0  0  3  0  0  0  0  0  0
  188.6220  177.5350  142.8920 C   0  0  0  0  0  0  0  0  0  0  0  0
  190.4740  176.9610  144.3560 C   0  0  0  0  0  3  0  0  0  0  0  0
  188.3490  176.8930  136.7750 C   0  0  0  0  0  3  0  0  0  0  0  0
  189.0140  176.9880  138.0070 C   0  0  0  0  0  0  0  0  0  0  0  0
  190.7340  176.7620  141.9190 N   0  0  0  0  0  2  0  0  0  0  0  0
  191.0780  176.6740  139.4880 C   0  0  0  0  0  2  0  0  0  0  0  0
  187.4990  177.9540  146.4810 C   0  0  0  0  0  2  0  0  0  0  0  0
  186.0970  177.4140  146.2570 C   0  0  0  0  0  2  0  0  0  0  0  0
  185.0660  178.4700  146.6060 C   0  0  2  0  0  3  0  0  0  0  0  0
  184.3590  178.9170  145.3440 C   0  0  0  0  0  1  0  0  0  0  0  0
  185.6900  179.5670  147.1970 O   0  0  0  0  0  1  0  0  0  0  0  0
  191.3040  176.7330  137.0060 C   0  0  0  0  0  2  0  0  0  0  0  0
  191.9830  175.5520  136.4800 N   0  0  0  0  0  0  0  0  0  0  0  0
  194.3800  175.2430  136.8870 C   0  0  1  0  0  3  0  0  0  0  0  0
  193.8430  174.3820  137.8500 O   0  0  0  0  0  1  0  0  0  0  0  0
  193.3430  175.9310  136.0930 C   0  0  2  0  0  3  0  0  0  0  0  0
  194.0050  176.6270  137.2090 N   0  0  0  0  0  2  0  0  0  0  0  0
  191.2530  175.0450  135.3090 C   0  0  0  0  0  2  0  0  0  0  0  0
  190.9250  173.5530  135.3930 C   0  0  0  0  0  2  0  0  0  0  0  0
  189.7290  173.3510  136.2980 C   0  0  0  0  0  1  0  0  0  0  0  0
  1 12  1  0  0  0  0
  1 19  1  0  0  0  0
  2 18  1  6  0  0  0
  2 17  1  0  0  0  0
  3  8  1  0  0  0  0
  4 15  1  0  0  0  0
  4  3  2  0  0  0  0
  5 14  1  0  0  0  0
  6 13  1  0  0  0  0
  7  1  2  0  0  0  0
  8 10  2  0  0  0  0
  9 10  1  6  0  0  0
  9  2  1  0  0  0  0
  9  6  1  0  0  0  0
 11 24  1  6  0  0  0
 11 18  1  0  0  0  0
 13  5  2  0  0  0  0
 13  7  1  0  0  0  0
 14 12  2  0  0  0  0
 15 16  2  0  0  0  0
 16 11  1  0  0  0  0
 16 10  1  0  0  0  0
 17  5  1  0  0  0  0
 20 19  1  0  0  0  0
 20 21  1  0  0  0  0
 21 22  1  6  0  0  0
 21 23  1  0  0  0  0
 25 24  1  0  0  0  0
 26 29  1  0  0  0  0
 26 27  1  1  0  0  0
 28 25  1  1  0  0  0
 28 26  1  0  0  0  0
 28 29  1  0  0  0  0
 30 31  1  0  0  0  0
 30 25  1  0  0  0  0
 31 32  1  0  0  0  0
M  END
>  <MODEL>
1

>  <REMARK>
 VINA RESULT:      -7.9      0.000      0.000
  Name = 
  8 active torsions:
  status: ('A' for Active; 'I' for Inactive)
    1  A    between atoms: C_1  and  C_10
    2  A    between atoms: C_2  and  C_24
    3  A    between atoms: C_6  and  C_7
    4  A    between atoms: C_7  and  N_32
    5  A    between atoms: C_10  and  C_24
    6  A    between atoms: C_16  and  C_27
    7  A    between atoms: C_22  and  N_32
    8  A    between atoms: C_27  and  N_32
                            x       y       z     vdW  Elec       q    Type
                         _______ _______ _______ _____ _____    ______ ____

>  <TORSDO>
F 8

$$$$
=
 OpenBabel10262421343D

 32 36  0  0  1  0  0  0  0  0999 V2000
  181.7340  178.8230  141.6960 C   0  0  0  0  0  0  0  0  0  0  0  0
  186.0810  177.9250  144.1880 C   0  0  2  0  0  3  0  0  0  0  0  0
  189.3740  177.3630  140.6030 C   0  0  0  0  0  3  0  0  0  0  0  0
  190.2990  176.9100  141.5440 C   0  0  0  0  0  3  0  0  0  0  0  0
  183.7600  178.6410  143.6180 C   0  0  0  0  0  0  0  0  0  0  0  0
  185.4230  178.2600  141.8590 N   0  0  0  0  0  2  0  0  0  0  0  0
  183.0500  178.5630  141.2970 C   0  0  0  0  0  3  0  0  0  0  0  0
  188.1380  177.8580  141.0210 C   0  0  0  0  0  3  0  0  0  0  0  0
  186.4970  178.4840  142.8280 C   0  0  2  0  0  3  0  0  0  0  0  0
  187.8110  177.8970  142.3840 C   0  0  0  0  0  0  0  0  0  0  0  0
  188.4540  177.4810  144.8330 C   0  0  2  0  0  3  0  0  0  0  0  0
  181.4350  178.9990  143.0540 C   0  0  0  0  0  3  0  0  0  0  0  0
  184.0650  178.4840  142.2530 C   0  0  0  0  0  0  0  0  0  0  0  0
  182.4470  178.9090  144.0150 C   0  0  0  0  0  3  0  0  0  0  0  0
  189.9970  176.9680  142.9060 C   0  0  0  0  0  3  0  0  0  0  0  0
  188.7700  177.4880  143.3460 C   0  0  0  0  0  0  0  0  0  0  0  0
  184.8030  178.5050  144.5890 N   0  0  0  0  0  2  0  0  0  0  0  0
  187.1680  178.2370  145.1970 C   0  0  0  0  0  2  0  0  0  0  0  0
  180.6480  178.8940  140.6800 C   0  0  0  0  0  2  0  0  0  0  0  0
  180.1030  180.3080  140.5960 C   0  0  0  0  0  2  0  0  0  0  0  0
  180.1160  180.7920  139.1580 C   0  0  2  0  0  3  0  0  0  0  0  0
  181.5360  180.7670  138.6340 C   0  0  0  0  0  1  0  0  0  0  0  0
  179.6240  182.0960  139.0910 O   0  0  0  0  0  1  0  0  0  0  0  0
  189.6130  178.0460  145.6460 C   0  0  0  0  0  2  0  0  0  0  0  0
  189.8610  177.2170  146.8220 N   0  0  0  0  0  0  0  0  0  0  0  0
  191.9790  176.0570  147.2430 C   0  0  1  0  0  3  0  0  0  0  0  0
  192.0500  177.0770  148.1980 O   0  0  0  0  0  1  0  0  0  0  0  0
  190.7430  176.1150  146.4360 C   0  0  2  0  0  3  0  0  0  0  0  0
  192.0050  176.6490  145.8970 N   0  0  0  0  0  2  0  0  0  0  0  0
  188.5870  176.6850  147.3260 C   0  0  0  0  0  2  0  0  0  0  0  0
  188.0220  177.4740  148.5090 C   0  0  0  0  0  2  0  0  0  0  0  0
  189.0340  178.5080  148.9540 C   0  0  0  0  0  1  0  0  0  0  0  0
  1 12  1  0  0  0  0
  2 17  1  0  0  0  0
  2 18  1  1  0  0  0
  3  8  2  0  0  0  0
  3  4  1  0  0  0  0
  4 15  2  0  0  0  0
  5 14  1  0  0  0  0
  5 17  1  0  0  0  0
  6 13  1  0  0  0  0
  7  1  2  0  0  0  0
  7 13  1  0  0  0  0
  8 10  1  0  0  0  0
  9  6  1  6  0  0  0
  9  2  1  0  0  0  0
 10  9  1  0  0  0  0
 10 16  2  0  0  0  0
 11 18  1  0  0  0  0
 11 24  1  1  0  0  0
 12 14  2  0  0  0  0
 13  5  2  0  0  0  0
 15 16  1  0  0  0  0
 16 11  1  0  0  0  0
 19  1  1  0  0  0  0
 20 19  1  0  0  0  0
 21 22  1  1  0  0  0
 21 20  1  0  0  0  0
 23 21  1  0  0  0  0
 24 25  1  0  0  0  0
 25 30  1  0  0  0  0
 26 27  1  1  0  0  0
 28 25  1  1  0  0  0
 28 26  1  0  0  0  0
 29 28  1  0  0  0  0
 29 26  1  0  0  0  0
 30 31  1  0  0  0  0
 31 32  1  0  0  0  0
M  END
>  <MODEL>
2

>  <REMARK>
 VINA RESULT:      -7.8      4.545      8.283
  Name = 
  8 active torsions:
  status: ('A' for Active; 'I' for Inactive)
    1  A    between atoms: C_1  and  C_10
    2  A    between atoms: C_2  and  C_24
    3  A    between atoms: C_6  and  C_7
    4  A    between atoms: C_7  and  N_32
    5  A    between atoms: C_10  and  C_24
    6  A    between atoms: C_16  and  C_27
    7  A    between atoms: C_22  and  N_32
    8  A    between atoms: C_27  and  N_32
                            x       y       z     vdW  Elec       q    Type
                         _______ _______ _______ _____ _____    ______ ____

>  <TORSDO>
F 8

$$$$
=
 OpenBabel10262421343D

 32 36  0  0  1  0  0  0  0  0999 V2000
  188.5430  177.6420  144.7330 C   0  0  0  0  0  0  0  0  0  0  0  0
  191.5820  176.7110  140.7560 C   0  0  2  0  0  3  0  0  0  0  0  0
  188.4830  176.4420  136.9700 C   0  0  0  0  0  3  0  0  0  0  0  0
  189.5210  175.9590  136.1730 C   0  0  0  0  0  3  0  0  0  0  0  0
  190.7240  177.3990  142.9950 C   0  0  0  0  0  0  0  0  0  0  0  0
  189.2040  177.1640  141.0870 N   0  0  0  0  0  2  0  0  0  0  0  0
  188.3240  177.4390  143.3650 C   0  0  0  0  0  3  0  0  0  0  0  0
  188.7450  176.8810  138.2680 C   0  0  0  0  0  3  0  0  0  0  0  0
  190.3290  177.3580  140.1700 C   0  0  2  0  0  3  0  0  0  0  0  0
  190.0470  176.8320  138.7870 C   0  0  0  0  0  0  0  0  0  0  0  0
  192.5370  176.2910  138.4850 C   0  0  2  0  0  3  0  0  0  0  0  0
  189.8520  177.7310  145.2270 C   0  0  0  0  0  3  0  0  0  0  0  0
  189.4110  177.3300  142.4940 C   0  0  0  0  0  0  0  0  0  0  0  0
  190.9420  177.6100  144.3590 C   0  0  0  0  0  3  0  0  0  0  0  0
  190.8270  175.9300  136.6680 C   0  0  0  0  0  3  0  0  0  0  0  0
  191.1130  176.3930  137.9620 C   0  0  0  0  0  0  0  0  0  0  0  0
  191.8270  177.2330  142.0970 N   0  0  0  0  0  2  0  0  0  0  0  0
  192.7530  176.9900  139.8340 C   0  0  0  0  0  2  0  0  0  0  0  0
  187.3870  177.7450  145.6650 C   0  0  0  0  0  2  0  0  0  0  0  0
  186.1910  178.3450  144.9480 C   0  0  0  0  0  2  0  0  0  0  0  0
  185.0140  178.4610  145.8980 C   0  0  2  0  0  3  0  0  0  0  0  0
  183.8020  178.9540  145.1360 C   0  0  0  0  0  1  0  0  0  0  0  0
  185.3140  179.3630  146.9190 O   0  0  0  0  0  1  0  0  0  0  0  0
  193.5370  176.8370  137.4730 C   0  0  0  0  0  2  0  0  0  0  0  0
  194.5290  175.8180  137.1380 N   0  0  0  0  0  0  0  0  0  0  0  0
  196.1820  175.9460  135.3330 C   0  0  1  0  0  3  0  0  0  0  0  0
  197.0190  176.0060  136.4540 O   0  0  0  0  0  1  0  0  0  0  0  0
  194.7530  175.8460  135.6920 C   0  0  2  0  0  3  0  0  0  0  0  0
  195.3300  177.1430  135.3010 N   0  0  0  0  0  2  0  0  0  0  0  0
  194.0300  174.4950  137.5410 C   0  0  0  0  0  2  0  0  0  0  0  0
  195.0680  173.6530  138.2850 C   0  0  0  0  0  2  0  0  0  0  0  0
  195.7880  174.5180  139.2960 C   0  0  0  0  0  1  0  0  0  0  0  0
  1 12  1  0  0  0  0
  1 19  1  0  0  0  0
  2 18  1  6  0  0  0
  2 17  1  0  0  0  0
  3  8  1  0  0  0  0
  4 15  1  0  0  0  0
  4  3  2  0  0  0  0
  5 14  1  0  0  0  0
  6 13  1  0  0  0  0
  7  1  2  0  0  0  0
  8 10  2  0  0  0  0
  9 10  1  6  0  0  0
  9  2  1  0  0  0  0
  9  6  1  0  0  0  0
 11 24  1  6  0  0  0
 11 18  1  0  0  0  0
 13  5  2  0  0  0  0
 13  7  1  0  0  0  0
 14 12  2  0  0  0  0
 15 16  2  0  0  0  0
 16 11  1  0  0  0  0
 16 10  1  0  0  0  0
 17  5  1  0  0  0  0
 20 19  1  0  0  0  0
 20 21  1  0  0  0  0
 21 22  1  6  0  0  0
 21 23  1  0  0  0  0
 25 24  1  0  0  0  0
 25 30  1  0  0  0  0
 26 28  1  0  0  0  0
 26 27  1  1  0  0  0
 28 25  1  1  0  0  0
 29 26  1  0  0  0  0
 29 28  1  0  0  0  0
 30 31  1  0  0  0  0
 31 32  1  0  0  0  0
M  END
>  <MODEL>
3

>  <REMARK>
 VINA RESULT:      -7.7      1.536      2.408
  Name = 
  8 active torsions:
  status: ('A' for Active; 'I' for Inactive)
    1  A    between atoms: C_1  and  C_10
    2  A    between atoms: C_2  and  C_24
    3  A    between atoms: C_6  and  C_7
    4  A    between atoms: C_7  and  N_32
    5  A    between atoms: C_10  and  C_24
    6  A    between atoms: C_16  and  C_27
    7  A    between atoms: C_22  and  N_32
    8  A    between atoms: C_27  and  N_32
                            x       y       z     vdW  Elec       q    Type
                         _______ _______ _______ _____ _____    ______ ____

>  <TORSDO>
F 8

$$$$
=
 OpenBabel10262421343D

 32 36  0  0  1  0  0  0  0  0999 V2000
  189.0140  177.2820  145.7860 C   0  0  0  0  0  0  0  0  0  0  0  0
  185.7700  178.0930  141.9470 C   0  0  2  0  0  3  0  0  0  0  0  0
  181.4780  178.8220  144.1950 C   0  0  0  0  0  3  0  0  0  0  0  0
  180.8350  178.7520  142.9590 C   0  0  0  0  0  3  0  0  0  0  0  0
  187.8470  177.8780  143.3130 C   0  0  0  0  0  0  0  0  0  0  0  0
  185.6630  178.1560  144.3870 N   0  0  0  0  0  2  0  0  0  0  0  0
  187.6410  177.5390  145.7090 C   0  0  0  0  0  3  0  0  0  0  0  0
  182.8720  178.8120  144.2600 C   0  0  0  0  0  3  0  0  0  0  0  0
  185.1410  178.7690  143.1650 C   0  0  2  0  0  3  0  0  0  0  0  0
  183.6380  178.7240  143.0880 C   0  0  0  0  0  0  0  0  0  0  0  0
  183.7710  178.5800  140.5300 C   0  0  2  0  0  3  0  0  0  0  0  0
  189.8020  177.3310  144.6280 C   0  0  0  0  0  3  0  0  0  0  0  0
  187.0580  177.8500  144.4770 C   0  0  0  0  0  0  0  0  0  0  0  0
  189.2200  177.6290  143.3920 C   0  0  0  0  0  3  0  0  0  0  0  0
  181.5860  178.6900  141.7830 C   0  0  0  0  0  3  0  0  0  0  0  0
  182.9890  178.7070  141.8270 C   0  0  0  0  0  0  0  0  0  0  0  0
  187.2260  178.1460  142.0510 N   0  0  0  0  0  2  0  0  0  0  0  0
  185.2820  178.7920  140.6940 C   0  0  0  0  0  2  0  0  0  0  0  0
  189.6350  176.9380  147.0940 C   0  0  0  0  0  2  0  0  0  0  0  0
  191.1480  177.0060  146.9880 C   0  0  0  0  0  2  0  0  0  0  0  0
  191.7590  175.6590  147.3270 C   0  0  2  0  0  3  0  0  0  0  0  0
  192.8250  175.8450  148.3870 C   0  0  0  0  0  1  0  0  0  0  0  0
  192.3360  175.0990  146.1880 O   0  0  0  0  0  1  0  0  0  0  0  0
  183.2430  179.5410  139.4710 C   0  0  0  0  0  2  0  0  0  0  0  0
  182.7260  178.7990  138.3240 N   0  0  0  0  0  0  0  0  0  0  0  0
  180.5470  179.2530  137.2970 C   0  0  1  0  0  3  0  0  0  0  0  0
  181.4050  179.7770  136.3240 O   0  0  0  0  0  1  0  0  0  0  0  0
  181.2720  178.6930  138.4550 C   0  0  2  0  0  3  0  0  0  0  0  0
  180.6780  180.0380  138.5330 N   0  0  0  0  0  2  0  0  0  0  0  0
  183.3250  177.4570  138.2950 C   0  0  0  0  0  2  0  0  0  0  0  0
  184.0870  177.1560  137.0040 C   0  0  0  0  0  2  0  0  0  0  0  0
  185.5530  177.4800  137.1970 C   0  0  0  0  0  1  0  0  0  0  0  0
  1 19  1  0  0  0  0
  2 18  1  6  0  0  0
  2 17  1  0  0  0  0
  2  9  1  0  0  0  0
  3  8  1  0  0  0  0
  4  3  2  0  0  0  0
  5 14  2  0  0  0  0
  5 13  1  0  0  0  0
  6 13  1  0  0  0  0
  7  1  1  0  0  0  0
  9 10  1  6  0  0  0
  9  6  1  0  0  0  0
 10  8  2  0  0  0  0
 11 24  1  6  0  0  0
 11 18  1  0  0  0  0
 11 16  1  0  0  0  0
 12  1  2  0  0  0  0
 13  7  2  0  0  0  0
 14 12  1  0  0  0  0
 15 16  2  0  0  0  0
 15  4  1  0  0  0  0
 16 10  1  0  0  0  0
 17  5  1  0  0  0  0
 20 19  1  0  0  0  0
 20 21  1  0  0  0  0
 21 22  1  1  0  0  0
 23 21  1  0  0  0  0
 25 24  1  0  0  0  0
 26 27  1  6  0  0  0
 26 28  1  0  0  0  0
 26 29  1  0  0  0  0
 28 25  1  6  0  0  0
 28 29  1  0  0  0  0
 30 25  1  0  0  0  0
 31 32  1  0  0  0  0
 31 30  1  0  0  0  0
M  END
>  <MODEL>
4

>  <REMARK>
 VINA RESULT:      -7.7      4.701      7.678
  Name = 
  8 active torsions:
  status: ('A' for Active; 'I' for Inactive)
    1  A    between atoms: C_1  and  C_10
    2  A    between atoms: C_2  and  C_24
    3  A    between atoms: C_6  and  C_7
    4  A    between atoms: C_7  and  N_32
    5  A    between atoms: C_10  and  C_24
    6  A    between atoms: C_16  and  C_27
    7  A    between atoms: C_22  and  N_32
    8  A    between atoms: C_27  and  N_32
                            x       y       z     vdW  Elec       q    Type
                         _______ _______ _______ _____ _____    ______ ____

>  <TORSDO>
F 8

$$$$
=
 OpenBabel10262421343D

 32 36  0  0  1  0  0  0  0  0999 V2000
  182.5730  179.4990  139.4780 C   0  0  0  0  0  0  0  0  0  0  0  0
  186.6740  178.3760  142.2780 C   0  0  2  0  0  3  0  0  0  0  0  0
  184.9680  178.3530  146.8710 C   0  0  0  0  0  3  0  0  0  0  0  0
  186.2790  178.2850  147.3420 C   0  0  0  0  0  3  0  0  0  0  0  0
  185.0760  178.6280  140.3780 C   0  0  0  0  0  0  0  0  0  0  0  0
  184.2890  178.6970  142.6980 N   0  0  0  0  0  2  0  0  0  0  0  0
  182.8040  179.3460  140.8500 C   0  0  0  0  0  3  0  0  0  0  0  0
  184.7110  178.2580  145.5020 C   0  0  0  0  0  3  0  0  0  0  0  0
  185.4740  177.9480  143.1210 C   0  0  2  0  0  3  0  0  0  0  0  0
  185.7650  178.1040  144.5900 C   0  0  0  0  0  0  0  0  0  0  0  0
  188.2740  177.8420  144.1210 C   0  0  2  0  0  3  0  0  0  0  0  0
  183.5910  179.2090  138.5600 C   0  0  0  0  0  3  0  0  0  0  0  0
  184.0490  178.8990  141.3010 C   0  0  0  0  0  0  0  0  0  0  0  0
  184.8420  178.7730  139.0080 C   0  0  0  0  0  3  0  0  0  0  0  0
  187.3350  178.1040  146.4470 C   0  0  0  0  0  3  0  0  0  0  0  0
  187.0940  177.9800  145.0700 C   0  0  0  0  0  0  0  0  0  0  0  0
  186.3610  178.2220  140.8600 N   0  0  0  0  0  2  0  0  0  0  0  0
  187.8720  177.5350  142.6720 C   0  0  0  0  0  2  0  0  0  0  0  0
  181.2520  179.9880  138.9960 C   0  0  0  0  0  2  0  0  0  0  0  0
  181.4040  181.3600  138.3620 C   0  0  0  0  0  2  0  0  0  0  0  0
  180.4750  181.4920  137.1690 C   0  0  2  0  0  3  0  0  0  0  0  0
  180.7680  180.3840  136.1810 C   0  0  0  0  0  1  0  0  0  0  0  0
  180.6710  182.7260  136.5490 O   0  0  0  0  0  1  0  0  0  0  0  0
  189.2500  176.7770  144.6060 C   0  0  0  0  0  2  0  0  0  0  0  0
  190.6270  177.2160  144.3980 N   0  0  0  0  0  0  0  0  0  0  0  0
  191.7660  176.5440  142.3340 C   0  0  1  0  0  3  0  0  0  0  0  0
  191.3640  177.8410  141.9960 O   0  0  0  0  0  1  0  0  0  0  0  0
  191.3530  176.1550  143.6980 C   0  0  2  0  0  3  0  0  0  0  0  0
  190.5760  175.7040  142.5320 N   0  0  0  0  0  2  0  0  0  0  0  0
  191.2610  177.4820  145.6980 C   0  0  0  0  0  2  0  0  0  0  0  0
  190.8450  176.4960  146.7910 C   0  0  0  0  0  2  0  0  0  0  0  0
  192.0750  175.8130  147.3480 C   0  0  0  0  0  1  0  0  0  0  0  0
  1  7  1  0  0  0  0
  2 18  1  1  0  0  0
  2  9  1  0  0  0  0
  3  4  1  0  0  0  0
  5 17  1  0  0  0  0
  5 13  1  0  0  0  0
  7 13  2  0  0  0  0
  8  3  2  0  0  0  0
  9  6  1  6  0  0  0
  9 10  1  0  0  0  0
 10 16  2  0  0  0  0
 10  8  1  0  0  0  0
 11 24  1  1  0  0  0
 11 16  1  0  0  0  0
 12 14  1  0  0  0  0
 12  1  2  0  0  0  0
 13  6  1  0  0  0  0
 14  5  2  0  0  0  0
 15  4  2  0  0  0  0
 16 15  1  0  0  0  0
 17  2  1  0  0  0  0
 18 11  1  0  0  0  0
 19  1  1  0  0  0  0
 20 19  1  0  0  0  0
 21 22  1  6  0  0  0
 21 20  1  0  0  0  0
 23 21  1  0  0  0  0
 25 24  1  0  0  0  0
 25 30  1  0  0  0  0
 26 27  1  1  0  0  0
 26 29  1  0  0  0  0
 26 28  1  0  0  0  0
 28 25  1  1  0  0  0
 29 28  1  0  0  0  0
 30 31  1  0  0  0  0
 31 32  1  0  0  0  0
M  END
>  <MODEL>
5

>  <REMARK>
 VINA RESULT:      -7.6      4.259      8.208
  Name = 
  8 active torsions:
  status: ('A' for Active; 'I' for Inactive)
    1  A    between atoms: C_1  and  C_10
    2  A    between atoms: C_2  and  C_24
    3  A    between atoms: C_6  and  C_7
    4  A    between atoms: C_7  and  N_32
    5  A    between atoms: C_10  and  C_24
    6  A    between atoms: C_16  and  C_27
    7  A    between atoms: C_22  and  N_32
    8  A    between atoms: C_27  and  N_32
                            x       y       z     vdW  Elec       q    Type
                         _______ _______ _______ _____ _____    ______ ____

>  <TORSDO>
F 8

$$$$
=
 OpenBabel10262421343D

 32 36  0  0  1  0  0  0  0  0999 V2000
  182.8030  179.5680  138.9950 C   0  0  0  0  0  0  0  0  0  0  0  0
  186.6070  178.3830  142.1640 C   0  0  2  0  0  3  0  0  0  0  0  0
  184.5360  178.6280  146.5980 C   0  0  0  0  0  3  0  0  0  0  0  0
  185.8010  178.5210  147.1780 C   0  0  0  0  0  3  0  0  0  0  0  0
  185.1800  178.6260  140.1310 C   0  0  0  0  0  0  0  0  0  0  0  0
  184.2130  178.8260  142.3730 N   0  0  0  0  0  2  0  0  0  0  0  0
  182.9150  179.4630  140.3860 C   0  0  0  0  0  3  0  0  0  0  0  0
  184.3870  178.4870  145.2180 C   0  0  0  0  0  3  0  0  0  0  0  0
  185.3230  178.0450  142.9200 C   0  0  2  0  0  3  0  0  0  0  0  0
  185.5020  178.2480  144.4020 C   0  0  0  0  0  0  0  0  0  0  0  0
  188.0260  177.8570  144.1520 C   0  0  2  0  0  3  0  0  0  0  0  0
  183.8760  179.1960  138.1750 C   0  0  0  0  0  3  0  0  0  0  0  0
  184.0970  178.9800  140.9550 C   0  0  0  0  0  0  0  0  0  0  0  0
  185.0650  178.7240  138.7410 C   0  0  0  0  0  3  0  0  0  0  0  0
  186.9160  178.2570  146.3800 C   0  0  0  0  0  3  0  0  0  0  0  0
  186.7800  178.0860  144.9940 C   0  0  0  0  0  0  0  0  0  0  0  0
  186.4020  178.1840  140.7320 N   0  0  0  0  0  2  0  0  0  0  0  0
  187.7280  177.5080  142.6870 C   0  0  0  0  0  2  0  0  0  0  0  0
  181.5500  180.0950  138.3870 C   0  0  0  0  0  2  0  0  0  0  0  0
  181.5740  181.6130  138.3730 C   0  0  0  0  0  2  0  0  0  0  0  0
  180.6760  182.1430  137.2720 C   0  0  2  0  0  3  0  0  0  0  0  0
  180.6880  181.1760  136.1070 C   0  0  0  0  0  1  0  0  0  0  0  0
  181.1340  183.3880  136.8420 O   0  0  0  0  0  1  0  0  0  0  0  0
  188.9080  176.7700  144.7550 C   0  0  0  0  0  2  0  0  0  0  0  0
  190.2090  177.3200  145.1270 N   0  0  0  0  0  0  0  0  0  0  0  0
  191.2990  176.7530  147.2480 C   0  0  1  0  0  3  0  0  0  0  0  0
  192.0550  175.9840  146.3560 O   0  0  0  0  0  1  0  0  0  0  0  0
  190.2310  177.5220  146.5770 C   0  0  2  0  0  3  0  0  0  0  0  0
  189.9140  176.2580  147.2620 N   0  0  0  0  0  2  0  0  0  0  0  0
  190.4150  178.6030  144.4410 C   0  0  0  0  0  2  0  0  0  0  0  0
  191.6220  178.6060  143.5010 C   0  0  0  0  0  2  0  0  0  0  0  0
  191.6880  177.2860  142.7620 C   0  0  0  0  0  1  0  0  0  0  0  0
  1  7  1  0  0  0  0
  2 18  1  1  0  0  0
  2  9  1  0  0  0  0
  3  4  1  0  0  0  0
  5 17  1  0  0  0  0
  5 13  1  0  0  0  0
  7 13  2  0  0  0  0
  8  3  2  0  0  0  0
  9  6  1  6  0  0  0
  9 10  1  0  0  0  0
 10 16  2  0  0  0  0
 10  8  1  0  0  0  0
 11 24  1  1  0  0  0
 11 16  1  0  0  0  0
 12 14  1  0  0  0  0
 12  1  2  0  0  0  0
 13  6  1  0  0  0  0
 14  5  2  0  0  0  0
 15  4  2  0  0  0  0
 16 15  1  0  0  0  0
 17  2  1  0  0  0  0
 18 11  1  0  0  0  0
 19  1  1  0  0  0  0
 20 19  1  0  0  0  0
 21 22  1  6  0  0  0
 21 20  1  0  0  0  0
 23 21  1  0  0  0  0
 24 25  1  0  0  0  0
 26 27  1  6  0  0  0
 26 29  1  0  0  0  0
 28 25  1  6  0  0  0
 28 26  1  0  0  0  0
 28 29  1  0  0  0  0
 30 25  1  0  0  0  0
 31 30  1  0  0  0  0
 32 31  1  0  0  0  0
M  END
>  <MODEL>
6

>  <REMARK>
 VINA RESULT:      -7.5      4.741      8.496
  Name = 
  8 active torsions:
  status: ('A' for Active; 'I' for Inactive)
    1  A    between atoms: C_1  and  C_10
    2  A    between atoms: C_2  and  C_24
    3  A    between atoms: C_6  and  C_7
    4  A    between atoms: C_7  and  N_32
    5  A    between atoms: C_10  and  C_24
    6  A    between atoms: C_16  and  C_27
    7  A    between atoms: C_22  and  N_32
    8  A    between atoms: C_27  and  N_32
                            x       y       z     vdW  Elec       q    Type
                         _______ _______ _______ _____ _____    ______ ____

>  <TORSDO>
F 8

$$$$
=
 OpenBabel10262421343D

 32 36  0  0  1  0  0  0  0  0999 V2000
  191.8770  176.4070  137.5790 C   0  0  0  0  0  0  0  0  0  0  0  0
  188.7260  177.2250  141.4940 C   0  0  2  0  0  3  0  0  0  0  0  0
  191.6790  177.0910  145.4020 C   0  0  0  0  0  3  0  0  0  0  0  0
  190.5560  177.0830  146.2310 C   0  0  0  0  0  3  0  0  0  0  0  0
  189.7170  177.1320  139.2060 C   0  0  0  0  0  0  0  0  0  0  0  0
  191.1390  176.9800  141.1960 N   0  0  0  0  0  2  0  0  0  0  0  0
  192.0460  176.4830  138.9670 C   0  0  0  0  0  3  0  0  0  0  0  0
  191.5290  177.2630  144.0250 C   0  0  0  0  0  3  0  0  0  0  0  0
  190.1070  177.6590  141.9830 C   0  0  2  0  0  3  0  0  0  0  0  0
  190.2540  177.4190  143.4620 C   0  0  0  0  0  0  0  0  0  0  0  0
  187.7100  177.6020  143.7450 C   0  0  2  0  0  3  0  0  0  0  0  0
  190.6310  176.7010  137.0080 C   0  0  0  0  0  3  0  0  0  0  0  0
  190.9720  176.8570  139.7800 C   0  0  0  0  0  0  0  0  0  0  0  0
  189.5520  177.0630  137.8200 C   0  0  0  0  0  3  0  0  0  0  0  0
  189.2830  177.2650  145.6860 C   0  0  0  0  0  3  0  0  0  0  0  0
  189.1160  177.4660  144.3070 C   0  0  0  0  0  0  0  0  0  0  0  0
  188.6150  177.4610  140.0570 N   0  0  0  0  0  2  0  0  0  0  0  0
  187.6720  177.9960  142.2620 C   0  0  0  0  0  2  0  0  0  0  0  0
  193.0150  175.9960  136.7120 C   0  0  0  0  0  2  0  0  0  0  0  0
  193.6050  174.6890  137.2110 C   0  0  0  0  0  2  0  0  0  0  0  0
  195.0900  174.8520  137.4790 C   0  0  2  0  0  3  0  0  0  0  0  0
  195.8150  173.5880  137.0690 C   0  0  0  0  0  1  0  0  0  0  0  0
  195.3050  175.0860  138.8370 O   0  0  0  0  0  1  0  0  0  0  0  0
  186.8890  178.6030  144.5500 C   0  0  0  0  0  2  0  0  0  0  0  0
  185.6270  178.0010  144.9720 N   0  0  0  0  0  0  0  0  0  0  0  0
  183.7720  178.9170  143.6570 C   0  0  1  0  0  3  0  0  0  0  0  0
  184.1920  177.8780  142.8200 O   0  0  0  0  0  1  0  0  0  0  0  0
  184.5770  179.0180  144.8910 C   0  0  2  0  0  3  0  0  0  0  0  0
  184.8410  179.9210  143.7580 N   0  0  0  0  0  2  0  0  0  0  0  0
  185.7500  177.5180  146.3550 C   0  0  0  0  0  2  0  0  0  0  0  0
  186.0660  178.6260  147.3610 C   0  0  0  0  0  2  0  0  0  0  0  0
  187.3380  178.2820  148.1070 C   0  0  0  0  0  1  0  0  0  0  0  0
  1  7  1  0  0  0  0
  2  9  1  0  0  0  0
  2 18  1  1  0  0  0
  3  4  1  0  0  0  0
  5 13  1  0  0  0  0
  5 17  1  0  0  0  0
  7 13  2  0  0  0  0
  8  3  2  0  0  0  0
  9  6  1  6  0  0  0
  9 10  1  0  0  0  0
 10  8  1  0  0  0  0
 10 16  2  0  0  0  0
 11 16  1  0  0  0  0
 11 24  1  1  0  0  0
 12  1  2  0  0  0  0
 12 14  1  0  0  0  0
 13  6  1  0  0  0  0
 14  5  2  0  0  0  0
 15  4  2  0  0  0  0
 16 15  1  0  0  0  0
 17  2  1  0  0  0  0
 18 11  1  0  0  0  0
 19 20  1  0  0  0  0
 19  1  1  0  0  0  0
 20 21  1  0  0  0  0
 21 22  1  1  0  0  0
 21 23  1  0  0  0  0
 24 25  1  0  0  0  0
 25 30  1  0  0  0  0
 26 27  1  6  0  0  0
 26 29  1  0  0  0  0
 26 28  1  0  0  0  0
 28 25  1  6  0  0  0
 29 28  1  0  0  0  0
 30 31  1  0  0  0  0
 31 32  1  0  0  0  0
M  END
>  <MODEL>
7

>  <REMARK>
 VINA RESULT:      -7.4      2.221      9.583
  Name = 
  8 active torsions:
  status: ('A' for Active; 'I' for Inactive)
    1  A    between atoms: C_1  and  C_10
    2  A    between atoms: C_2  and  C_24
    3  A    between atoms: C_6  and  C_7
    4  A    between atoms: C_7  and  N_32
    5  A    between atoms: C_10  and  C_24
    6  A    between atoms: C_16  and  C_27
    7  A    between atoms: C_22  and  N_32
    8  A    between atoms: C_27  and  N_32
                            x       y       z     vdW  Elec       q    Type
                         _______ _______ _______ _____ _____    ______ ____

>  <TORSDO>
F 8

$$$$
=
 OpenBabel10262421343D

 32 36  0  0  1  0  0  0  0  0999 V2000
  189.0770  177.2640  145.9510 C   0  0  0  0  0  0  0  0  0  0  0  0
  185.8660  177.9980  142.0690 C   0  0  2  0  0  3  0  0  0  0  0  0
  181.5660  178.8270  144.2670 C   0  0  0  0  0  3  0  0  0  0  0  0
  180.9310  178.7280  143.0280 C   0  0  0  0  0  3  0  0  0  0  0  0
  187.9320  177.8020  143.4550 C   0  0  0  0  0  0  0  0  0  0  0  0
  185.7430  178.1290  144.5060 N   0  0  0  0  0  2  0  0  0  0  0  0
  187.7070  177.5310  145.8580 C   0  0  0  0  0  3  0  0  0  0  0  0
  182.9590  178.8070  144.3410 C   0  0  0  0  0  3  0  0  0  0  0  0
  185.2350  178.7130  143.2630 C   0  0  2  0  0  3  0  0  0  0  0  0
  183.7320  178.6790  143.1780 C   0  0  0  0  0  0  0  0  0  0  0  0
  183.8810  178.4640  140.6250 C   0  0  2  0  0  3  0  0  0  0  0  0
  189.8730  177.2740  144.7980 C   0  0  0  0  0  3  0  0  0  0  0  0
  187.1350  177.8130  144.6140 C   0  0  0  0  0  0  0  0  0  0  0  0
  189.3020  177.5430  143.5500 C   0  0  0  0  0  3  0  0  0  0  0  0
  181.6890  178.6270  141.8600 C   0  0  0  0  0  3  0  0  0  0  0  0
  183.0920  178.6330  141.9130 C   0  0  0  0  0  0  0  0  0  0  0  0
  187.3220  178.0410  142.1820 N   0  0  0  0  0  2  0  0  0  0  0  0
  185.3930  178.6670  140.7940 C   0  0  0  0  0  2  0  0  0  0  0  0
  189.6860  176.9500  147.2730 C   0  0  0  0  0  2  0  0  0  0  0  0
  191.2000  177.0160  147.1790 C   0  0  0  0  0  2  0  0  0  0  0  0
  191.7970  175.6310  147.3440 C   0  0  2  0  0  3  0  0  0  0  0  0
  192.8070  175.6520  148.4710 C   0  0  0  0  0  1  0  0  0  0  0  0
  192.4310  175.2420  146.1650 O   0  0  0  0  0  1  0  0  0  0  0  0
  183.3690  179.4000  139.5370 C   0  0  0  0  0  2  0  0  0  0  0  0
  182.3710  178.7230  138.7120 N   0  0  0  0  0  0  0  0  0  0  0  0
  182.7150  176.8410  137.1800 C   0  0  1  0  0  3  0  0  0  0  0  0
  181.8780  176.2490  138.1320 O   0  0  0  0  0  1  0  0  0  0  0  0
  183.0220  178.2520  137.4880 C   0  0  2  0  0  3  0  0  0  0  0  0
  183.9940  177.1950  137.8130 N   0  0  0  0  0  2  0  0  0  0  0  0
  181.2920  179.6630  138.3760 C   0  0  0  0  0  2  0  0  0  0  0  0
  181.6390  181.1220  138.6760 C   0  0  0  0  0  2  0  0  0  0  0  0
  180.8830  182.0250  137.7250 C   0  0  0  0  0  1  0  0  0  0  0  0
  1 19  1  0  0  0  0
  2 18  1  6  0  0  0
  2 17  1  0  0  0  0
  2  9  1  0  0  0  0
  3  8  1  0  0  0  0
  4  3  2  0  0  0  0
  5 14  2  0  0  0  0
  5 13  1  0  0  0  0
  6 13  1  0  0  0  0
  7  1  1  0  0  0  0
  9 10  1  6  0  0  0
  9  6  1  0  0  0  0
 10  8  2  0  0  0  0
 11 24  1  6  0  0  0
 11 18  1  0  0  0  0
 11 16  1  0  0  0  0
 12  1  2  0  0  0  0
 13  7  2  0  0  0  0
 14 12  1  0  0  0  0
 15 16  2  0  0  0  0
 15  4  1  0  0  0  0
 16 10  1  0  0  0  0
 17  5  1  0  0  0  0
 20 19  1  0  0  0  0
 20 21  1  0  0  0  0
 21 22  1  1  0  0  0
 23 21  1  0  0  0  0
 25 24  1  0  0  0  0
 26 28  1  0  0  0  0
 26 29  1  0  0  0  0
 26 27  1  1  0  0  0
 28 29  1  0  0  0  0
 28 25  1  1  0  0  0
 30 31  1  0  0  0  0
 30 25  1  0  0  0  0
 32 31  1  0  0  0  0
M  END
>  <MODEL>
8

>  <REMARK>
 VINA RESULT:      -7.4      5.281      7.725
  Name = 
  8 active torsions:
  status: ('A' for Active; 'I' for Inactive)
    1  A    between atoms: C_1  and  C_10
    2  A    between atoms: C_2  and  C_24
    3  A    between atoms: C_6  and  C_7
    4  A    between atoms: C_7  and  N_32
    5  A    between atoms: C_10  and  C_24
    6  A    between atoms: C_16  and  C_27
    7  A    between atoms: C_22  and  N_32
    8  A    between atoms: C_27  and  N_32
                            x       y       z     vdW  Elec       q    Type
                         _______ _______ _______ _____ _____    ______ ____

>  <TORSDO>
F 8

$$$$
=
 OpenBabel10262421343D

 32 36  0  0  1  0  0  0  0  0999 V2000
  190.3810  177.2350  142.6450 C   0  0  0  0  0  0  0  0  0  0  0  0
  185.9550  178.2530  140.3460 C   0  0  2  0  0  3  0  0  0  0  0  0
  182.8510  178.9550  144.0720 C   0  0  0  0  0  3  0  0  0  0  0  0
  181.7870  178.9460  143.1690 C   0  0  0  0  0  3  0  0  0  0  0  0
  188.3860  177.9500  140.8170 C   0  0  0  0  0  0  0  0  0  0  0  0
  186.7770  178.2180  142.6460 N   0  0  0  0  0  2  0  0  0  0  0  0
  189.0880  177.5160  143.1010 C   0  0  0  0  0  3  0  0  0  0  0  0
  184.1650  178.9220  143.6040 C   0  0  0  0  0  3  0  0  0  0  0  0
  185.8510  178.8880  141.7320 C   0  0  2  0  0  3  0  0  0  0  0  0
  184.4300  178.8690  142.2280 C   0  0  0  0  0  0  0  0  0  0  0  0
  183.5840  178.8290  139.8060 C   0  0  2  0  0  3  0  0  0  0  0  0
  190.6750  177.3190  141.2780 C   0  0  0  0  0  3  0  0  0  0  0  0
  188.0940  177.8860  142.1920 C   0  0  0  0  0  0  0  0  0  0  0  0
  189.6790  177.6770  140.3640 C   0  0  0  0  0  3  0  0  0  0  0  0
  182.0370  178.9210  141.7950 C   0  0  0  0  0  3  0  0  0  0  0  0
  183.3530  178.9150  141.3060 C   0  0  0  0  0  0  0  0  0  0  0  0
  187.3430  178.2790  139.8940 N   0  0  0  0  0  2  0  0  0  0  0  0
  185.0510  179.0100  139.3930 C   0  0  0  0  0  2  0  0  0  0  0  0
  191.4390  176.8280  143.6100 C   0  0  0  0  0  2  0  0  0  0  0  0
  191.3150  177.6340  144.8910 C   0  0  0  0  0  2  0  0  0  0  0  0
  191.0070  176.7170  146.0600 C   0  0  2  0  0  3  0  0  0  0  0  0
  189.7250  177.1690  146.7270 C   0  0  0  0  0  1  0  0  0  0  0  0
  192.0480  176.7630  146.9870 O   0  0  0  0  0  1  0  0  0  0  0  0
  182.7250  179.8400  139.0570 C   0  0  0  0  0  2  0  0  0  0  0  0
  181.8800  179.1630  138.0770 N   0  0  0  0  0  0  0  0  0  0  0  0
  179.8710  180.3580  137.3390 C   0  0  1  0  0  3  0  0  0  0  0  0
  180.7630  180.6970  136.3150 O   0  0  0  0  0  1  0  0  0  0  0  0
  180.4820  179.4890  138.3650 C   0  0  2  0  0  3  0  0  0  0  0  0
  180.3450  180.9340  138.6060 N   0  0  0  0  0  2  0  0  0  0  0  0
  182.0840  177.7100  138.1720 C   0  0  0  0  0  2  0  0  0  0  0  0
  180.8110  176.9360  138.5200 C   0  0  0  0  0  2  0  0  0  0  0  0
  181.0980  175.9810  139.6590 C   0  0  0  0  0  1  0  0  0  0  0  0
  1  7  1  0  0  0  0
  1 19  1  0  0  0  0
  2 18  1  6  0  0  0
  2  9  1  0  0  0  0
  4  3  2  0  0  0  0
  5 13  1  0  0  0  0
  8  3  1  0  0  0  0
  9 10  1  1  0  0  0
  9  6  1  0  0  0  0
 10  8  2  0  0  0  0
 11 24  1  6  0  0  0
 11 16  1  0  0  0  0
 12  1  2  0  0  0  0
 13  6  1  0  0  0  0
 13  7  2  0  0  0  0
 14  5  2  0  0  0  0
 14 12  1  0  0  0  0
 15  4  1  0  0  0  0
 16 15  2  0  0  0  0
 16 10  1  0  0  0  0
 17  2  1  0  0  0  0
 17  5  1  0  0  0  0
 18 11  1  0  0  0  0
 19 20  1  0  0  0  0
 20 21  1  0  0  0  0
 21 22  1  1  0  0  0
 21 23  1  0  0  0  0
 25 30  1  0  0  0  0
 25 24  1  0  0  0  0
 26 27  1  6  0  0  0
 26 28  1  0  0  0  0
 26 29  1  0  0  0  0
 28 25  1  6  0  0  0
 28 29  1  0  0  0  0
 30 31  1  0  0  0  0
 31 32  1  0  0  0  0
M  END
>  <MODEL>
9

>  <REMARK>
 VINA RESULT:      -7.2      4.444      7.998
  Name = 
  8 active torsions:
  status: ('A' for Active; 'I' for Inactive)
    1  A    between atoms: C_1  and  C_10
    2  A    between atoms: C_2  and  C_24
    3  A    between atoms: C_6  and  C_7
    4  A    between atoms: C_7  and  N_32
    5  A    between atoms: C_10  and  C_24
    6  A    between atoms: C_16  and  C_27
    7  A    between atoms: C_22  and  N_32
    8  A    between atoms: C_27  and  N_32
                            x       y       z     vdW  Elec       q    Type
                         _______ _______ _______ _____ _____    ______ ____

>  <TORSDO>
F 8

$$$$
