=
 OpenBabel10262419333D

 31 33  0  0  1  0  0  0  0  0999 V2000
  181.9780  179.1620  140.0400 C   0  0  0  0  0  0  0  0  0  0  0  0
  183.3420  178.6980  140.0650 N   0  0  0  0  0  0  0  0  0  0  0  0
  181.5710  179.8670  139.0800 O   0  0  0  0  0  0  0  0  0  0  0  0
  181.0450  178.8590  141.1440 C   0  0  0  0  0  0  0  0  0  0  0  0
  180.2340  179.3900  143.3650 C   0  0  0  0  0  3  0  0  0  0  0  0
  181.0720  179.6650  142.2860 C   0  0  0  0  0  3  0  0  0  0  0  0
  179.6400  177.3050  138.6960 C   0  0  0  0  0  1  0  0  0  0  0  0
  179.3720  178.2980  143.2960 C   0  0  0  0  0  3  0  0  0  0  0  0
  179.3550  177.5120  142.1860 N   0  0  0  0  0  0  0  0  0  0  0  0
  180.2950  175.4400  140.2180 C   0  0  0  0  0  1  0  0  0  0  0  0
  180.1540  177.7620  141.1080 C   0  0  0  0  0  0  0  0  0  0  0  0
  180.1190  176.8620  139.9960 N   0  0  0  0  0  0  0  0  0  0  0  0
  184.2850  179.1170  139.0300 C   0  0  0  0  0  2  0  0  0  0  0  0
  184.8930  177.9040  138.3520 C   0  0  1  0  0  3  0  0  0  0  0  0
  184.0420  177.5140  137.1570 C   0  0  0  0  0  1  0  0  0  0  0  0
  186.2970  178.2430  137.8930 C   0  0  0  0  0  2  0  0  0  0  0  0
  187.0770  178.6270  138.9830 O   0  0  0  0  0  1  0  0  0  0  0  0
  183.8500  177.9420  141.2060 C   0  0  0  0  0  2  0  0  0  0  0  0
  184.8110  178.7810  142.0280 C   0  0  0  0  0  2  0  0  0  0  0  0
  184.5870  178.5080  143.4760 C   0  0  0  0  0  3  0  0  0  0  0  0
  185.4930  178.0420  144.2860 N   0  0  0  0  0  0  0  0  0  0  0  0
  190.0230  177.0960  146.6460 C   0  0  0  0  0  0  0  0  0  0  0  0
  187.6360  177.4960  146.3360 C   0  0  0  0  0  3  0  0  0  0  0  0
  189.2170  177.4250  143.0300 C   0  0  0  0  0  3  0  0  0  0  0  0
  187.6400  177.7240  142.4940 S   0  0  0  0  0  0  0  0  0  0  0  0
  191.3810  176.8300  147.7190 Cl  0  0  0  0  0  0  0  0  0  0  0  0
  186.8690  177.7380  143.9970 C   0  0  0  0  0  0  0  0  0  0  0  0
  188.7340  177.2800  147.1820 C   0  0  0  0  0  3  0  0  0  0  0  0
  189.1340  177.3460  144.4190 C   0  0  0  0  0  0  0  0  0  0  0  0
  187.8450  177.5250  144.9560 C   0  0  0  0  0  0  0  0  0  0  0  0
  190.2270  177.1290  145.2590 C   0  0  0  0  0  3  0  0  0  0  0  0
  1  2  1  0  0  0  0
  1  4  1  0  0  0  0
  2 18  1  0  0  0  0
  3  1  2  0  0  0  0
  4  6  1  0  0  0  0
  6  5  2  0  0  0  0
  7 12  1  0  0  0  0
  8  5  1  0  0  0  0
  9  8  2  0  0  0  0
 11  4  2  0  0  0  0
 11  9  1  0  0  0  0
 12 10  1  0  0  0  0
 12 11  1  0  0  0  0
 13  2  1  0  0  0  0
 14 15  1  6  0  0  0
 14 13  1  0  0  0  0
 16 14  1  0  0  0  0
 16 17  1  0  0  0  0
 18 19  1  0  0  0  0
 19 20  1  0  0  0  0
 20 21  2  0  0  0  0
 22 28  1  0  0  0  0
 22 26  1  0  0  0  0
 23 28  2  0  0  0  0
 24 29  2  0  0  0  0
 25 24  1  0  0  0  0
 25 27  1  0  0  0  0
 27 21  1  0  0  0  0
 27 30  2  0  0  0  0
 29 30  1  0  0  0  0
 29 31  1  0  0  0  0
 30 23  1  0  0  0  0
 31 22  2  0  0  0  0
M  END
>  <MODEL>
1

>  <REMARK>
 VINA RESULT:      -7.4      0.000      0.000
  Name = 
  8 active torsions:
  status: ('A' for Active; 'I' for Inactive)
    1  A    between atoms: C_2  and  C_13
    2  A    between atoms: C_2  and  C_25
    3  A    between atoms: C_4  and  C_5
    4  A    between atoms: C_9  and  N_23
    5  A    between atoms: N_12  and  C_25
    6  A    between atoms: N_12  and  C_27
    7  A    between atoms: C_15  and  C_20
    8  A    between atoms: C_20  and  C_27
                            x       y       z     vdW  Elec       q    Type
                         _______ _______ _______ _____ _____    ______ ____

>  <TORSDO>
F 8

$$$$
=
 OpenBabel10262419333D

 31 33  0  0  1  0  0  0  0  0999 V2000
  180.1300  177.9170  139.7860 C   0  0  0  0  0  0  0  0  0  0  0  0
  181.3880  177.3330  139.3980 N   0  0  0  0  0  0  0  0  0  0  0  0
  179.1180  177.7800  139.0480 O   0  0  0  0  0  0  0  0  0  0  0  0
  180.0030  178.7130  141.0240 C   0  0  0  0  0  0  0  0  0  0  0  0
  179.7350  178.7530  143.4320 C   0  0  0  0  0  3  0  0  0  0  0  0
  179.8940  178.0400  142.2450 C   0  0  0  0  0  3  0  0  0  0  0  0
  181.1990  180.9080  138.9930 C   0  0  0  0  0  1  0  0  0  0  0  0
  179.6790  180.1450  143.3880 C   0  0  0  0  0  3  0  0  0  0  0  0
  179.7770  180.7930  142.1970 N   0  0  0  0  0  0  0  0  0  0  0  0
  178.9310  181.8160  139.4970 C   0  0  0  0  0  1  0  0  0  0  0  0
  179.9460  180.1250  141.0190 C   0  0  0  0  0  0  0  0  0  0  0  0
  179.9890  180.8720  139.7990 N   0  0  0  0  0  0  0  0  0  0  0  0
  181.5250  176.6610  138.1070 C   0  0  0  0  0  2  0  0  0  0  0  0
  181.5490  175.1560  138.2990 C   0  0  1  0  0  3  0  0  0  0  0  0
  180.1740  174.5870  137.9980 C   0  0  0  0  0  1  0  0  0  0  0  0
  182.5710  174.5520  137.3580 C   0  0  0  0  0  2  0  0  0  0  0  0
  182.2330  173.2290  137.0700 O   0  0  0  0  0  1  0  0  0  0  0  0
  182.5870  177.5440  140.2050 C   0  0  0  0  0  2  0  0  0  0  0  0
  183.8110  177.7120  139.3240 C   0  0  0  0  0  2  0  0  0  0  0  0
  184.2370  179.1400  139.3420 C   0  0  0  0  0  3  0  0  0  0  0  0
  185.1270  179.6340  140.1540 N   0  0  0  0  0  0  0  0  0  0  0  0
  185.1040  178.4230  145.2050 C   0  0  0  0  0  0  0  0  0  0  0  0
  184.3460  179.2600  143.0420 C   0  0  0  0  0  3  0  0  0  0  0  0
  187.6760  177.7950  142.5930 C   0  0  0  0  0  3  0  0  0  0  0  0
  187.4480  178.2770  140.9870 S   0  0  0  0  0  0  0  0  0  0  0  0
  184.8180  178.1890  146.9170 Cl  0  0  0  0  0  0  0  0  0  0  0  0
  185.9020  178.9390  141.1470 C   0  0  0  0  0  0  0  0  0  0  0  0
  184.1310  179.0640  144.4140 C   0  0  0  0  0  3  0  0  0  0  0  0
  186.5160  178.1720  143.2670 C   0  0  0  0  0  0  0  0  0  0  0  0
  185.5410  178.8090  142.4770 C   0  0  0  0  0  0  0  0  0  0  0  0
  186.3030  177.9740  144.6320 C   0  0  0  0  0  3  0  0  0  0  0  0
  1  4  1  0  0  0  0
  2  1  1  0  0  0  0
  2 18  1  0  0  0  0
  3  1  2  0  0  0  0
  4  6  1  0  0  0  0
  6  5  2  0  0  0  0
  7 12  1  0  0  0  0
  8  5  1  0  0  0  0
  9  8  2  0  0  0  0
 10 12  1  0  0  0  0
 11  4  2  0  0  0  0
 11  9  1  0  0  0  0
 12 11  1  0  0  0  0
 13 14  1  0  0  0  0
 13  2  1  0  0  0  0
 14 15  1  6  0  0  0
 16 14  1  0  0  0  0
 17 16  1  0  0  0  0
 19 20  1  0  0  0  0
 19 18  1  0  0  0  0
 20 21  2  0  0  0  0
 21 27  1  0  0  0  0
 22 26  1  0  0  0  0
 23 28  2  0  0  0  0
 24 29  2  0  0  0  0
 25 27  1  0  0  0  0
 25 24  1  0  0  0  0
 27 30  2  0  0  0  0
 28 22  1  0  0  0  0
 29 31  1  0  0  0  0
 30 23  1  0  0  0  0
 30 29  1  0  0  0  0
 31 22  2  0  0  0  0
M  END
>  <MODEL>
2

>  <REMARK>
 VINA RESULT:      -7.4      2.834      4.008
  Name = 
  8 active torsions:
  status: ('A' for Active; 'I' for Inactive)
    1  A    between atoms: C_2  and  C_13
    2  A    between atoms: C_2  and  C_25
    3  A    between atoms: C_4  and  C_5
    4  A    between atoms: C_9  and  N_23
    5  A    between atoms: N_12  and  C_25
    6  A    between atoms: N_12  and  C_27
    7  A    between atoms: C_15  and  C_20
    8  A    between atoms: C_20  and  C_27
                            x       y       z     vdW  Elec       q    Type
                         _______ _______ _______ _____ _____    ______ ____

>  <TORSDO>
F 8

$$$$
=
 OpenBabel10262419333D

 31 33  0  0  1  0  0  0  0  0999 V2000
  189.7180  176.7670  136.4590 C   0  0  0  0  0  0  0  0  0  0  0  0
  190.5960  176.3660  137.5290 N   0  0  0  0  0  0  0  0  0  0  0  0
  190.1960  177.0570  135.3300 O   0  0  0  0  0  0  0  0  0  0  0  0
  188.2610  176.8840  136.6640 C   0  0  0  0  0  0  0  0  0  0  0  0
  186.3720  178.2560  137.3160 C   0  0  0  0  0  3  0  0  0  0  0  0
  187.7380  178.1140  137.0740 C   0  0  0  0  0  3  0  0  0  0  0  0
  188.4220  174.2430  134.8270 C   0  0  0  0  0  1  0  0  0  0  0  0
  185.5340  177.1550  137.1500 C   0  0  0  0  0  3  0  0  0  0  0  0
  186.0500  175.9590  136.7580 N   0  0  0  0  0  0  0  0  0  0  0  0
  187.5340  173.3510  136.9810 C   0  0  0  0  0  1  0  0  0  0  0  0
  187.3790  175.7910  136.5020 C   0  0  0  0  0  0  0  0  0  0  0  0
  187.8570  174.4900  136.1440 N   0  0  0  0  0  0  0  0  0  0  0  0
  192.0450  176.3840  137.3440 C   0  0  0  0  0  2  0  0  0  0  0  0
  192.6300  175.0190  137.6550 C   0  0  1  0  0  3  0  0  0  0  0  0
  192.0140  173.9840  136.7300 C   0  0  0  0  0  1  0  0  0  0  0  0
  194.1300  175.0620  137.4480 C   0  0  0  0  0  2  0  0  0  0  0  0
  194.7710  175.3590  138.6510 O   0  0  0  0  0  1  0  0  0  0  0  0
  190.0660  176.0990  138.8640 C   0  0  0  0  0  2  0  0  0  0  0  0
  190.3900  177.2370  139.8140 C   0  0  0  0  0  2  0  0  0  0  0  0
  189.1210  177.8520  140.2940 C   0  0  0  0  0  3  0  0  0  0  0  0
  188.8290  178.0580  141.5460 N   0  0  0  0  0  0  0  0  0  0  0  0
  188.4950  177.4190  146.6900 C   0  0  0  0  0  0  0  0  0  0  0  0
  187.8160  177.7080  144.3640 C   0  0  0  0  0  3  0  0  0  0  0  0
  191.4760  177.5210  144.4670 C   0  0  0  0  0  3  0  0  0  0  0  0
  191.3300  177.7290  142.7940 S   0  0  0  0  0  0  0  0  0  0  0  0
  188.0630  177.2630  148.3800 Cl  0  0  0  0  0  0  0  0  0  0  0  0
  189.6450  177.7940  142.7010 C   0  0  0  0  0  0  0  0  0  0  0  0
  187.4870  177.5800  145.7210 C   0  0  0  0  0  3  0  0  0  0  0  0
  190.1730  177.5130  144.9600 C   0  0  0  0  0  0  0  0  0  0  0  0
  189.1620  177.6700  143.9920 C   0  0  0  0  0  0  0  0  0  0  0  0
  189.8450  177.3840  146.3110 C   0  0  0  0  0  3  0  0  0  0  0  0
  1  4  1  0  0  0  0
  1  2  1  0  0  0  0
  2 18  1  0  0  0  0
  3  1  2  0  0  0  0
  4  6  1  0  0  0  0
  6  5  2  0  0  0  0
  7 12  1  0  0  0  0
  8  5  1  0  0  0  0
  9  8  2  0  0  0  0
 11  4  2  0  0  0  0
 11  9  1  0  0  0  0
 12 11  1  0  0  0  0
 12 10  1  0  0  0  0
 13  2  1  0  0  0  0
 13 14  1  0  0  0  0
 14 15  1  6  0  0  0
 16 14  1  0  0  0  0
 16 17  1  0  0  0  0
 18 19  1  0  0  0  0
 19 20  1  0  0  0  0
 20 21  2  0  0  0  0
 21 27  1  0  0  0  0
 22 26  1  0  0  0  0
 23 28  2  0  0  0  0
 24 29  2  0  0  0  0
 25 24  1  0  0  0  0
 27 25  1  0  0  0  0
 27 30  2  0  0  0  0
 28 22  1  0  0  0  0
 29 31  1  0  0  0  0
 30 23  1  0  0  0  0
 30 29  1  0  0  0  0
 31 22  2  0  0  0  0
M  END
>  <MODEL>
3

>  <REMARK>
 VINA RESULT:      -7.3      4.921      6.945
  Name = 
  8 active torsions:
  status: ('A' for Active; 'I' for Inactive)
    1  A    between atoms: C_2  and  C_13
    2  A    between atoms: C_2  and  C_25
    3  A    between atoms: C_4  and  C_5
    4  A    between atoms: C_9  and  N_23
    5  A    between atoms: N_12  and  C_25
    6  A    between atoms: N_12  and  C_27
    7  A    between atoms: C_15  and  C_20
    8  A    between atoms: C_20  and  C_27
                            x       y       z     vdW  Elec       q    Type
                         _______ _______ _______ _____ _____    ______ ____

>  <TORSDO>
F 8

$$$$
=
 OpenBabel10262419333D

 31 33  0  0  1  0  0  0  0  0999 V2000
  182.3620  178.8540  139.7630 C   0  0  0  0  0  0  0  0  0  0  0  0
  182.3870  178.8390  141.2040 N   0  0  0  0  0  0  0  0  0  0  0  0
  181.4180  179.4270  139.1570 O   0  0  0  0  0  0  0  0  0  0  0  0
  183.4080  178.1780  138.9700 C   0  0  0  0  0  0  0  0  0  0  0  0
  185.6540  178.2140  138.0590 C   0  0  0  0  0  3  0  0  0  0  0  0
  184.6520  178.8010  138.8300 C   0  0  0  0  0  3  0  0  0  0  0  0
  181.4260  175.7210  139.6120 C   0  0  0  0  0  1  0  0  0  0  0  0
  185.4000  177.0010  137.4230 C   0  0  0  0  0  3  0  0  0  0  0  0
  184.1850  176.4030  137.5560 N   0  0  0  0  0  0  0  0  0  0  0  0
  181.2440  175.9310  137.1320 C   0  0  0  0  0  1  0  0  0  0  0  0
  183.1890  176.9450  138.3140 C   0  0  0  0  0  0  0  0  0  0  0  0
  181.9200  176.2850  138.3650 N   0  0  0  0  0  0  0  0  0  0  0  0
  181.2760  179.4000  141.9690 C   0  0  0  0  0  2  0  0  0  0  0  0
  180.3000  178.3050  142.3560 C   0  0  1  0  0  3  0  0  0  0  0  0
  180.1900  178.2390  143.8690 C   0  0  0  0  0  1  0  0  0  0  0  0
  178.9430  178.6140  141.7570 C   0  0  0  0  0  2  0  0  0  0  0  0
  178.9520  179.8860  141.1840 O   0  0  0  0  0  1  0  0  0  0  0  0
  183.4340  178.1170  141.9210 C   0  0  0  0  0  2  0  0  0  0  0  0
  184.3060  179.0720  142.7150 C   0  0  0  0  0  2  0  0  0  0  0  0
  184.2080  178.7380  144.1640 C   0  0  0  0  0  3  0  0  0  0  0  0
  185.1600  178.1850  144.8580 N   0  0  0  0  0  0  0  0  0  0  0  0
  189.8930  177.1030  146.7050 C   0  0  0  0  0  0  0  0  0  0  0  0
  187.5020  177.5890  146.6610 C   0  0  0  0  0  3  0  0  0  0  0  0
  188.6910  177.4070  143.1980 C   0  0  0  0  0  3  0  0  0  0  0  0
  187.0750  177.7570  142.8400 S   0  0  0  0  0  0  0  0  0  0  0  0
  191.3540  176.8010  147.6210 Cl  0  0  0  0  0  0  0  0  0  0  0  0
  186.4820  177.8240  144.4200 C   0  0  0  0  0  0  0  0  0  0  0  0
  188.6810  177.3440  147.3800 C   0  0  0  0  0  3  0  0  0  0  0  0
  188.7650  177.3510  144.5890 C   0  0  0  0  0  0  0  0  0  0  0  0
  187.5530  177.5880  145.2660 C   0  0  0  0  0  0  0  0  0  0  0  0
  189.9380  177.1060  145.3030 C   0  0  0  0  0  3  0  0  0  0  0  0
  1  2  1  0  0  0  0
  2 18  1  0  0  0  0
  2 13  1  0  0  0  0
  3  1  2  0  0  0  0
  4  1  1  0  0  0  0
  5  6  2  0  0  0  0
  6  4  1  0  0  0  0
  8  9  2  0  0  0  0
  8  5  1  0  0  0  0
  9 11  1  0  0  0  0
 10 12  1  0  0  0  0
 11 12  1  0  0  0  0
 11  4  2  0  0  0  0
 12  7  1  0  0  0  0
 13 14  1  0  0  0  0
 14 15  1  1  0  0  0
 16 14  1  0  0  0  0
 17 16  1  0  0  0  0
 18 19  1  0  0  0  0
 19 20  1  0  0  0  0
 20 21  2  0  0  0  0
 22 28  1  0  0  0  0
 22 26  1  0  0  0  0
 23 28  2  0  0  0  0
 24 29  2  0  0  0  0
 25 24  1  0  0  0  0
 25 27  1  0  0  0  0
 27 21  1  0  0  0  0
 27 30  2  0  0  0  0
 29 30  1  0  0  0  0
 29 31  1  0  0  0  0
 30 23  1  0  0  0  0
 31 22  2  0  0  0  0
M  END
>  <MODEL>
4

>  <REMARK>
 VINA RESULT:      -7.3      1.562      4.092
  Name = 
  8 active torsions:
  status: ('A' for Active; 'I' for Inactive)
    1  A    between atoms: C_2  and  C_13
    2  A    between atoms: C_2  and  C_25
    3  A    between atoms: C_4  and  C_5
    4  A    between atoms: C_9  and  N_23
    5  A    between atoms: N_12  and  C_25
    6  A    between atoms: N_12  and  C_27
    7  A    between atoms: C_15  and  C_20
    8  A    between atoms: C_20  and  C_27
                            x       y       z     vdW  Elec       q    Type
                         _______ _______ _______ _____ _____    ______ ____

>  <TORSDO>
F 8

$$$$
=
 OpenBabel10262419333D

 31 33  0  0  1  0  0  0  0  0999 V2000
  188.9730  176.7400  142.4980 C   0  0  0  0  0  0  0  0  0  0  0  0
  188.4850  177.4970  141.3720 N   0  0  0  0  0  0  0  0  0  0  0  0
  189.6780  175.7140  142.3070 O   0  0  0  0  0  0  0  0  0  0  0  0
  188.6340  177.1210  143.8840 C   0  0  0  0  0  0  0  0  0  0  0  0
  187.0090  177.1330  145.6810 C   0  0  0  0  0  3  0  0  0  0  0  0
  187.3830  176.7600  144.3910 C   0  0  0  0  0  3  0  0  0  0  0  0
  191.8450  177.3800  143.9350 C   0  0  0  0  0  1  0  0  0  0  0  0
  187.8950  177.8760  146.4590 C   0  0  0  0  0  3  0  0  0  0  0  0
  189.1080  178.2320  145.9560 N   0  0  0  0  0  0  0  0  0  0  0  0
  191.1060  179.7370  144.2840 C   0  0  0  0  0  1  0  0  0  0  0  0
  189.5090  177.8710  144.7030 C   0  0  0  0  0  0  0  0  0  0  0  0
  190.7790  178.3260  144.2230 N   0  0  0  0  0  0  0  0  0  0  0  0
  188.7220  177.0300  140.0090 C   0  0  0  0  0  2  0  0  0  0  0  0
  189.7860  177.8800  139.3400 C   0  0  1  0  0  3  0  0  0  0  0  0
  191.1190  177.1550  139.3940 C   0  0  0  0  0  1  0  0  0  0  0  0
  189.3930  178.1240  137.8970 C   0  0  0  0  0  2  0  0  0  0  0  0
  189.0550  179.4650  137.7140 O   0  0  0  0  0  1  0  0  0  0  0  0
  187.6070  178.6460  141.5740 C   0  0  0  0  0  2  0  0  0  0  0  0
  186.1480  178.2290  141.5240 C   0  0  0  0  0  2  0  0  0  0  0  0
  185.3250  179.3790  141.0530 C   0  0  0  0  0  3  0  0  0  0  0  0
  184.6520  179.3950  139.9390 N   0  0  0  0  0  0  0  0  0  0  0  0
  181.5770  175.3970  138.6990 C   0  0  0  0  0  0  0  0  0  0  0  0
  182.3910  177.4030  139.8230 C   0  0  0  0  0  3  0  0  0  0  0  0
  184.7820  176.5270  137.1860 C   0  0  0  0  0  3  0  0  0  0  0  0
  185.6050  177.8890  137.7610 S   0  0  0  0  0  0  0  0  0  0  0  0
  180.3730  174.1340  138.5500 Cl  0  0  0  0  0  0  0  0  0  0  0  0
  184.5150  178.3410  138.9710 C   0  0  0  0  0  0  0  0  0  0  0  0
  181.4350  176.3870  139.6900 C   0  0  0  0  0  3  0  0  0  0  0  0
  183.6330  176.4230  137.9680 C   0  0  0  0  0  0  0  0  0  0  0  0
  183.4860  177.4150  138.9560 C   0  0  0  0  0  0  0  0  0  0  0  0
  182.6800  175.4120  137.8330 C   0  0  0  0  0  3  0  0  0  0  0  0
  1  4  1  0  0  0  0
  2 18  1  0  0  0  0
  2  1  1  0  0  0  0
  3  1  2  0  0  0  0
  4  6  2  0  0  0  0
  4 11  1  0  0  0  0
  5  8  2  0  0  0  0
  6  5  1  0  0  0  0
  7 12  1  0  0  0  0
  9  8  1  0  0  0  0
 11  9  2  0  0  0  0
 12 10  1  0  0  0  0
 12 11  1  0  0  0  0
 13  2  1  0  0  0  0
 14 15  1  6  0  0  0
 14 13  1  0  0  0  0
 16 14  1  0  0  0  0
 17 16  1  0  0  0  0
 19 18  1  0  0  0  0
 20 19  1  0  0  0  0
 21 20  2  0  0  0  0
 22 28  1  0  0  0  0
 24 25  1  0  0  0  0
 24 29  2  0  0  0  0
 25 27  1  0  0  0  0
 26 22  1  0  0  0  0
 27 21  1  0  0  0  0
 28 23  2  0  0  0  0
 29 30  1  0  0  0  0
 30 27  2  0  0  0  0
 30 23  1  0  0  0  0
 31 29  1  0  0  0  0
 31 22  2  0  0  0  0
M  END
>  <MODEL>
5

>  <REMARK>
 VINA RESULT:      -7.2      3.988      8.363
  Name = 
  8 active torsions:
  status: ('A' for Active; 'I' for Inactive)
    1  A    between atoms: C_2  and  C_13
    2  A    between atoms: C_2  and  C_25
    3  A    between atoms: C_4  and  C_5
    4  A    between atoms: C_9  and  N_23
    5  A    between atoms: N_12  and  C_25
    6  A    between atoms: N_12  and  C_27
    7  A    between atoms: C_15  and  C_20
    8  A    between atoms: C_20  and  C_27
                            x       y       z     vdW  Elec       q    Type
                         _______ _______ _______ _____ _____    ______ ____

>  <TORSDO>
F 8

$$$$
=
 OpenBabel10262419333D

 31 33  0  0  1  0  0  0  0  0999 V2000
  187.0740  177.7680  136.9320 C   0  0  0  0  0  0  0  0  0  0  0  0
  188.2580  177.4560  137.6930 N   0  0  0  0  0  0  0  0  0  0  0  0
  187.1800  178.2030  135.7550 O   0  0  0  0  0  0  0  0  0  0  0  0
  185.7270  177.6230  137.5170 C   0  0  0  0  0  0  0  0  0  0  0  0
  183.9690  178.5500  138.9050 C   0  0  0  0  0  3  0  0  0  0  0  0
  185.2210  178.6630  138.3030 C   0  0  0  0  0  3  0  0  0  0  0  0
  185.6260  175.4210  135.1680 C   0  0  0  0  0  1  0  0  0  0  0  0
  183.2270  177.3850  138.7190 C   0  0  0  0  0  3  0  0  0  0  0  0
  183.7270  176.3730  137.9590 N   0  0  0  0  0  0  0  0  0  0  0  0
  185.4580  174.0240  137.2280 C   0  0  0  0  0  1  0  0  0  0  0  0
  184.9440  176.4580  137.3470 C   0  0  0  0  0  0  0  0  0  0  0  0
  185.4270  175.3330  136.6060 N   0  0  0  0  0  0  0  0  0  0  0  0
  189.5840  177.7300  137.1430 C   0  0  0  0  0  2  0  0  0  0  0  0
  190.1820  176.4630  136.5610 C   0  0  1  0  0  3  0  0  0  0  0  0
  190.4480  176.6640  135.0800 C   0  0  0  0  0  1  0  0  0  0  0  0
  191.4810  176.1520  137.2770 C   0  0  0  0  0  2  0  0  0  0  0  0
  191.2410  175.3020  138.3560 O   0  0  0  0  0  1  0  0  0  0  0  0
  188.1550  177.0210  139.0830 C   0  0  0  0  0  2  0  0  0  0  0  0
  188.8330  178.0100  140.0130 C   0  0  0  0  0  2  0  0  0  0  0  0
  189.7830  177.2800  140.8990 C   0  0  0  0  0  3  0  0  0  0  0  0
  189.6030  177.0890  142.1740 N   0  0  0  0  0  0  0  0  0  0  0  0
  188.1250  177.5690  147.1310 C   0  0  0  0  0  0  0  0  0  0  0  0
  189.5530  177.1980  145.1870 C   0  0  0  0  0  3  0  0  0  0  0  0
  186.1970  178.0600  143.9880 C   0  0  0  0  0  3  0  0  0  0  0  0
  186.9110  177.8570  142.4670 S   0  0  0  0  0  0  0  0  0  0  0  0
  187.9260  177.6120  148.8700 Cl  0  0  0  0  0  0  0  0  0  0  0  0
  188.4760  177.4810  142.9780 C   0  0  0  0  0  0  0  0  0  0  0  0
  189.3770  177.2380  146.5770 C   0  0  0  0  0  3  0  0  0  0  0  0
  187.2100  177.8170  144.9140 C   0  0  0  0  0  0  0  0  0  0  0  0
  188.4640  177.4910  144.3620 C   0  0  0  0  0  0  0  0  0  0  0  0
  187.0350  177.8600  146.2970 C   0  0  0  0  0  3  0  0  0  0  0  0
  1  4  1  0  0  0  0
  1  2  1  0  0  0  0
  2 18  1  0  0  0  0
  3  1  2  0  0  0  0
  4  6  1  0  0  0  0
  6  5  2  0  0  0  0
  7 12  1  0  0  0  0
  8  5  1  0  0  0  0
  9  8  2  0  0  0  0
 11  4  2  0  0  0  0
 11  9  1  0  0  0  0
 12 10  1  0  0  0  0
 12 11  1  0  0  0  0
 13  2  1  0  0  0  0
 14 15  1  6  0  0  0
 14 13  1  0  0  0  0
 14 16  1  0  0  0  0
 16 17  1  0  0  0  0
 18 19  1  0  0  0  0
 19 20  1  0  0  0  0
 20 21  2  0  0  0  0
 21 27  1  0  0  0  0
 22 26  1  0  0  0  0
 23 28  2  0  0  0  0
 24 29  2  0  0  0  0
 25 27  1  0  0  0  0
 25 24  1  0  0  0  0
 27 30  2  0  0  0  0
 28 22  1  0  0  0  0
 29 31  1  0  0  0  0
 30 29  1  0  0  0  0
 30 23  1  0  0  0  0
 31 22  2  0  0  0  0
M  END
>  <MODEL>
6

>  <REMARK>
 VINA RESULT:      -7.2      3.286      5.065
  Name = 
  8 active torsions:
  status: ('A' for Active; 'I' for Inactive)
    1  A    between atoms: C_2  and  C_13
    2  A    between atoms: C_2  and  C_25
    3  A    between atoms: C_4  and  C_5
    4  A    between atoms: C_9  and  N_23
    5  A    between atoms: N_12  and  C_25
    6  A    between atoms: N_12  and  C_27
    7  A    between atoms: C_15  and  C_20
    8  A    between atoms: C_20  and  C_27
                            x       y       z     vdW  Elec       q    Type
                         _______ _______ _______ _____ _____    ______ ____

>  <TORSDO>
F 8

$$$$
=
 OpenBabel10262419333D

 31 33  0  0  1  0  0  0  0  0999 V2000
  189.3050  178.2610  138.9880 C   0  0  0  0  0  0  0  0  0  0  0  0
  188.7390  177.8820  140.2580 N   0  0  0  0  0  0  0  0  0  0  0  0
  189.0350  179.3850  138.4900 O   0  0  0  0  0  0  0  0  0  0  0  0
  190.1740  177.3390  138.2300 C   0  0  0  0  0  0  0  0  0  0  0  0
  192.3450  176.2930  137.9720 C   0  0  0  0  0  3  0  0  0  0  0  0
  191.4800  177.1260  138.6800 C   0  0  0  0  0  3  0  0  0  0  0  0
  187.2590  176.4440  137.1890 C   0  0  0  0  0  1  0  0  0  0  0  0
  191.8940  175.6770  136.8060 C   0  0  0  0  0  3  0  0  0  0  0  0
  190.6250  175.8940  136.3680 N   0  0  0  0  0  0  0  0  0  0  0  0
  188.3130  177.3640  135.1240 C   0  0  0  0  0  1  0  0  0  0  0  0
  189.7500  176.6940  137.0450 C   0  0  0  0  0  0  0  0  0  0  0  0
  188.4470  176.9170  136.4960 N   0  0  0  0  0  0  0  0  0  0  0  0
  187.7780  178.7550  140.9290 C   0  0  0  0  0  2  0  0  0  0  0  0
  186.3830  178.1670  140.8390 C   0  0  1  0  0  3  0  0  0  0  0  0
  185.5580  178.6390  142.0230 C   0  0  0  0  0  1  0  0  0  0  0  0
  185.7340  178.6250  139.5480 C   0  0  0  0  0  2  0  0  0  0  0  0
  184.9470  179.7530  139.7820 O   0  0  0  0  0  1  0  0  0  0  0  0
  188.9820  176.5540  140.8140 C   0  0  0  0  0  2  0  0  0  0  0  0
  189.3330  176.6380  142.2880 C   0  0  0  0  0  2  0  0  0  0  0  0
  190.6260  177.3630  142.4440 C   0  0  0  0  0  3  0  0  0  0  0  0
  191.1750  177.6500  143.5890 N   0  0  0  0  0  0  0  0  0  0  0  0
  186.9390  177.9180  146.5830 C   0  0  0  0  0  0  0  0  0  0  0  0
  188.3690  178.0630  144.6110 C   0  0  0  0  0  3  0  0  0  0  0  0
  190.3740  176.7320  147.3760 C   0  0  0  0  0  3  0  0  0  0  0  0
  191.6030  176.7250  146.2120 S   0  0  0  0  0  0  0  0  0  0  0  0
  185.3770  178.1610  147.3350 Cl  0  0  0  0  0  0  0  0  0  0  0  0
  190.7070  177.3120  144.9060 C   0  0  0  0  0  0  0  0  0  0  0  0
  187.1230  178.2500  145.2270 C   0  0  0  0  0  3  0  0  0  0  0  0
  189.2410  177.2140  146.7240 C   0  0  0  0  0  0  0  0  0  0  0  0
  189.4220  177.5420  145.3660 C   0  0  0  0  0  0  0  0  0  0  0  0
  188.0010  177.3980  147.3370 C   0  0  0  0  0  3  0  0  0  0  0  0
  1  2  1  0  0  0  0
  2 18  1  0  0  0  0
  2 13  1  0  0  0  0
  3  1  2  0  0  0  0
  4  6  1  0  0  0  0
  4  1  1  0  0  0  0
  5  6  2  0  0  0  0
  8  5  1  0  0  0  0
  9  8  2  0  0  0  0
  9 11  1  0  0  0  0
 10 12  1  0  0  0  0
 11  4  2  0  0  0  0
 12 11  1  0  0  0  0
 12  7  1  0  0  0  0
 14 13  1  0  0  0  0
 14 15  1  1  0  0  0
 16 17  1  0  0  0  0
 16 14  1  0  0  0  0
 18 19  1  0  0  0  0
 19 20  1  0  0  0  0
 20 21  2  0  0  0  0
 21 27  1  0  0  0  0
 22 26  1  0  0  0  0
 22 31  2  0  0  0  0
 23 28  2  0  0  0  0
 23 30  1  0  0  0  0
 25 24  1  0  0  0  0
 27 30  2  0  0  0  0
 27 25  1  0  0  0  0
 28 22  1  0  0  0  0
 29 31  1  0  0  0  0
 29 24  2  0  0  0  0
 30 29  1  0  0  0  0
M  END
>  <MODEL>
7

>  <REMARK>
 VINA RESULT:      -7.1      4.327      7.173
  Name = 
  8 active torsions:
  status: ('A' for Active; 'I' for Inactive)
    1  A    between atoms: C_2  and  C_13
    2  A    between atoms: C_2  and  C_25
    3  A    between atoms: C_4  and  C_5
    4  A    between atoms: C_9  and  N_23
    5  A    between atoms: N_12  and  C_25
    6  A    between atoms: N_12  and  C_27
    7  A    between atoms: C_15  and  C_20
    8  A    between atoms: C_20  and  C_27
                            x       y       z     vdW  Elec       q    Type
                         _______ _______ _______ _____ _____    ______ ____

>  <TORSDO>
F 8

$$$$
=
 OpenBabel10262419333D

 31 33  0  0  1  0  0  0  0  0999 V2000
  190.0220  178.2480  144.2730 C   0  0  0  0  0  0  0  0  0  0  0  0
  189.6560  177.7250  142.9800 N   0  0  0  0  0  0  0  0  0  0  0  0
  190.8990  179.1480  144.3610 O   0  0  0  0  0  0  0  0  0  0  0  0
  189.4150  177.7250  145.5120 C   0  0  0  0  0  0  0  0  0  0  0  0
  187.5790  177.7800  147.0940 C   0  0  0  0  0  3  0  0  0  0  0  0
  188.1700  178.2200  145.9100 C   0  0  0  0  0  3  0  0  0  0  0  0
  191.5690  175.4220  144.8540 C   0  0  0  0  0  1  0  0  0  0  0  0
  188.2470  176.8440  147.8800 C   0  0  0  0  0  3  0  0  0  0  0  0
  189.4620  176.3720  147.4930 N   0  0  0  0  0  0  0  0  0  0  0  0
  192.4290  176.3730  146.9940 C   0  0  0  0  0  1  0  0  0  0  0  0
  190.0610  176.7730  146.3340 C   0  0  0  0  0  0  0  0  0  0  0  0
  191.3630  176.2710  146.0170 N   0  0  0  0  0  0  0  0  0  0  0  0
  190.3610  178.1630  141.7780 C   0  0  0  0  0  2  0  0  0  0  0  0
  190.0870  177.2080  140.6320 C   0  0  1  0  0  3  0  0  0  0  0  0
  189.2640  177.9160  139.5710 C   0  0  0  0  0  1  0  0  0  0  0  0
  191.4060  176.7530  140.0390 C   0  0  0  0  0  2  0  0  0  0  0  0
  192.4520  177.5140  140.5580 O   0  0  0  0  0  1  0  0  0  0  0  0
  188.6960  176.6310  142.8670 C   0  0  0  0  0  2  0  0  0  0  0  0
  187.2770  177.1320  143.0610 C   0  0  0  0  0  2  0  0  0  0  0  0
  187.0170  178.2530  142.1140 C   0  0  0  0  0  3  0  0  0  0  0  0
  185.9380  178.9810  142.1120 N   0  0  0  0  0  0  0  0  0  0  0  0
  180.7580  178.5930  142.1130 C   0  0  0  0  0  0  0  0  0  0  0  0
  183.0560  178.6460  141.2930 C   0  0  0  0  0  3  0  0  0  0  0  0
  183.1400  179.0050  144.9400 C   0  0  0  0  0  3  0  0  0  0  0  0
  184.8110  179.0930  144.6890 S   0  0  0  0  0  0  0  0  0  0  0  0
  179.0420  178.4720  141.7860 Cl  0  0  0  0  0  0  0  0  0  0  0  0
  184.8170  178.9050  143.0100 C   0  0  0  0  0  0  0  0  0  0  0  0
  181.6780  178.5490  141.0480 C   0  0  0  0  0  3  0  0  0  0  0  0
  182.5780  178.8340  143.6770 C   0  0  0  0  0  0  0  0  0  0  0  0
  183.4970  178.7860  142.6110 C   0  0  0  0  0  0  0  0  0  0  0  0
  181.2070  178.7350  143.4340 C   0  0  0  0  0  3  0  0  0  0  0  0
  1  3  2  0  0  0  0
  1  4  1  0  0  0  0
  2  1  1  0  0  0  0
  4  6  2  0  0  0  0
  4 11  1  0  0  0  0
  5  8  2  0  0  0  0
  6  5  1  0  0  0  0
  7 12  1  0  0  0  0
  9  8  1  0  0  0  0
 11  9  2  0  0  0  0
 12 11  1  0  0  0  0
 12 10  1  0  0  0  0
 13  2  1  0  0  0  0
 14 15  1  6  0  0  0
 14 13  1  0  0  0  0
 16 17  1  0  0  0  0
 16 14  1  0  0  0  0
 18  2  1  0  0  0  0
 18 19  1  0  0  0  0
 20 19  1  0  0  0  0
 21 20  2  0  0  0  0
 21 27  1  0  0  0  0
 22 31  2  0  0  0  0
 23 30  1  0  0  0  0
 25 24  1  0  0  0  0
 26 22  1  0  0  0  0
 27 25  1  0  0  0  0
 28 23  2  0  0  0  0
 28 22  1  0  0  0  0
 29 24  2  0  0  0  0
 30 27  2  0  0  0  0
 30 29  1  0  0  0  0
 31 29  1  0  0  0  0
M  END
>  <MODEL>
8

>  <REMARK>
 VINA RESULT:      -7.1      4.223      8.543
  Name = 
  8 active torsions:
  status: ('A' for Active; 'I' for Inactive)
    1  A    between atoms: C_2  and  C_13
    2  A    between atoms: C_2  and  C_25
    3  A    between atoms: C_4  and  C_5
    4  A    between atoms: C_9  and  N_23
    5  A    between atoms: N_12  and  C_25
    6  A    between atoms: N_12  and  C_27
    7  A    between atoms: C_15  and  C_20
    8  A    between atoms: C_20  and  C_27
                            x       y       z     vdW  Elec       q    Type
                         _______ _______ _______ _____ _____    ______ ____

>  <TORSDO>
F 8

$$$$
=
 OpenBabel10262419333D

 31 33  0  0  1  0  0  0  0  0999 V2000
  182.3230  178.3940  138.3570 C   0  0  0  0  0  0  0  0  0  0  0  0
  183.6960  178.3300  138.7920 N   0  0  0  0  0  0  0  0  0  0  0  0
  181.8460  177.4690  137.6480 O   0  0  0  0  0  0  0  0  0  0  0  0
  181.4630  179.5460  138.6940 C   0  0  0  0  0  0  0  0  0  0  0  0
  180.7400  181.8010  138.1800 C   0  0  0  0  0  3  0  0  0  0  0  0
  181.5070  180.6780  137.8750 C   0  0  0  0  0  3  0  0  0  0  0  0
  180.0180  177.1870  140.3440 C   0  0  0  0  0  1  0  0  0  0  0  0
  179.9320  181.7850  139.3150 C   0  0  0  0  0  3  0  0  0  0  0  0
  179.9000  180.6840  140.1130 N   0  0  0  0  0  0  0  0  0  0  0  0
  180.8430  178.6880  142.1570 C   0  0  0  0  0  1  0  0  0  0  0  0
  180.6290  179.5650  139.8350 C   0  0  0  0  0  0  0  0  0  0  0  0
  180.5840  178.4640  140.7480 N   0  0  0  0  0  0  0  0  0  0  0  0
  184.5660  177.2480  138.3390 C   0  0  0  0  0  2  0  0  0  0  0  0
  185.4960  177.7450  137.2490 C   0  0  1  0  0  3  0  0  0  0  0  0
  186.9330  177.4370  137.6320 C   0  0  0  0  0  1  0  0  0  0  0  0
  185.1530  177.0490  135.9470 C   0  0  0  0  0  2  0  0  0  0  0  0
  184.4570  175.8680  136.2060 O   0  0  0  0  0  1  0  0  0  0  0  0
  184.2850  179.4290  139.5520 C   0  0  0  0  0  2  0  0  0  0  0  0
  185.1000  178.9050  140.7200 C   0  0  0  0  0  2  0  0  0  0  0  0
  184.2190  178.7700  141.9140 C   0  0  0  0  0  3  0  0  0  0  0  0
  184.6180  178.3610  143.0830 N   0  0  0  0  0  0  0  0  0  0  0  0
  187.6140  177.9950  147.3110 C   0  0  0  0  0  0  0  0  0  0  0  0
  185.6320  178.3070  145.9220 C   0  0  0  0  0  3  0  0  0  0  0  0
  188.4460  177.4830  143.7210 C   0  0  0  0  0  3  0  0  0  0  0  0
  187.2790  177.6460  142.5070 S   0  0  0  0  0  0  0  0  0  0  0  0
  188.3600  177.9860  148.8950 Cl  0  0  0  0  0  0  0  0  0  0  0  0
  185.9510  178.0040  143.4880 C   0  0  0  0  0  0  0  0  0  0  0  0
  186.2440  178.2940  147.1840 C   0  0  0  0  0  3  0  0  0  0  0  0
  187.7770  177.7240  144.9200 C   0  0  0  0  0  0  0  0  0  0  0  0
  186.4060  178.0180  144.7960 C   0  0  0  0  0  0  0  0  0  0  0  0
  188.3870  177.7090  146.1760 C   0  0  0  0  0  3  0  0  0  0  0  0
  1  4  1  0  0  0  0
  1  2  1  0  0  0  0
  2 18  1  0  0  0  0
  3  1  2  0  0  0  0
  4 11  1  0  0  0  0
  5  8  2  0  0  0  0
  6  5  1  0  0  0  0
  6  4  2  0  0  0  0
  7 12  1  0  0  0  0
  8  9  1  0  0  0  0
 11  9  2  0  0  0  0
 11 12  1  0  0  0  0
 12 10  1  0  0  0  0
 13  2  1  0  0  0  0
 14 15  1  1  0  0  0
 14 13  1  0  0  0  0
 16 17  1  0  0  0  0
 16 14  1  0  0  0  0
 18 19  1  0  0  0  0
 19 20  1  0  0  0  0
 20 21  2  0  0  0  0
 21 27  1  0  0  0  0
 22 26  1  0  0  0  0
 23 28  2  0  0  0  0
 24 29  2  0  0  0  0
 25 27  1  0  0  0  0
 25 24  1  0  0  0  0
 27 30  2  0  0  0  0
 28 22  1  0  0  0  0
 29 31  1  0  0  0  0
 30 29  1  0  0  0  0
 30 23  1  0  0  0  0
 31 22  2  0  0  0  0
M  END
>  <MODEL>
9

>  <REMARK>
 VINA RESULT:      -7.1      2.018      2.782
  Name = 
  8 active torsions:
  status: ('A' for Active; 'I' for Inactive)
    1  A    between atoms: C_2  and  C_13
    2  A    between atoms: C_2  and  C_25
    3  A    between atoms: C_4  and  C_5
    4  A    between atoms: C_9  and  N_23
    5  A    between atoms: N_12  and  C_25
    6  A    between atoms: N_12  and  C_27
    7  A    between atoms: C_15  and  C_20
    8  A    between atoms: C_20  and  C_27
                            x       y       z     vdW  Elec       q    Type
                         _______ _______ _______ _____ _____    ______ ____

>  <TORSDO>
F 8

$$$$
