=
 OpenBabel10262422093D

 43 50  0  0  1  0  0  0  0  0999 V2000
  191.1050  177.0880  146.1630 C   0  0  2  0  0  3  0  0  0  0  0  0
  187.2470  177.8010  142.9030 C   0  0  0  0  0  0  0  0  0  0  0  0
  187.9560  178.3600  139.3480 N   0  0  0  0  0  2  0  0  0  0  0  0
  188.8530  177.8610  145.2500 C   0  0  2  0  0  3  0  0  0  0  0  0
  191.6750  176.8140  144.7780 C   0  0  0  0  0  2  0  0  0  0  0  0
  191.7360  176.1370  147.1590 C   0  0  0  0  0  1  0  0  0  0  0  0
  189.4650  177.8530  143.8580 C   0  0  0  0  0  0  0  0  0  0  0  0
  189.5940  176.8780  146.1600 C   0  0  0  0  0  2  0  0  0  0  0  0
  191.2200  178.1800  143.6710 S   0  0  0  0  0  0  0  0  0  0  0  0
  189.0480  177.9810  141.4420 N   0  0  0  0  0  0  0  0  0  0  0  0
  188.6710  177.7790  142.7920 C   0  0  0  0  0  0  0  0  0  0  0  0
  186.6260  177.7690  144.0390 N   0  0  0  0  0  0  0  0  0  0  0  0
  186.6720  178.0740  141.5630 C   0  0  2  0  0  3  0  0  0  0  0  0
  187.9510  178.1310  140.7580 C   0  0  0  0  0  0  0  0  0  0  0  0
  187.3520  177.4680  145.2800 C   0  0  0  0  0  2  0  0  0  0  0  0
  189.1850  178.4600  138.5710 C   0  0  2  0  0  3  0  0  0  0  0  0
  189.0210  179.4580  137.4350 C   0  0  0  0  0  1  0  0  0  0  0  0
  189.6050  177.0890  138.0490 C   0  0  0  0  0  2  0  0  0  0  0  0
  191.0280  177.0820  137.4840 C   0  0  2  0  0  3  0  0  0  0  0  0
  191.4800  175.7320  136.9200 C   0  0  1  0  0  0  0  0  0  0  0  0
  191.8910  176.1580  138.3300 C   0  0  1  0  0  3  0  0  0  0  0  0
  193.2010  176.6450  138.3580 O   0  0  0  0  0  1  0  0  0  0  0  0
  189.6860  174.6510  135.4870 N   0  0  0  0  0  2  0  0  0  0  0  0
  190.8000  173.2980  137.1570 N   0  0  0  0  0  2  0  0  0  0  0  0
  190.3760  174.6520  136.7820 C   0  0  2  0  0  0  0  0  0  0  0  0
  190.8050  173.7430  135.7620 C   0  0  2  0  0  3  0  0  0  0  0  0
  192.4970  175.9160  135.7920 C   0  0  0  0  0  2  0  0  0  0  0  0
  193.6500  175.1750  136.0660 O   0  0  0  0  0  0  0  0  0  0  0  0
  194.4770  175.3700  134.9580 C   0  0  1  0  0  3  0  0  0  0  0  0
  198.0110  175.6390  135.2940 N   0  0  0  0  0  1  0  0  0  0  0  0
  196.1040  177.0360  135.5770 N   0  0  0  0  0  2  0  0  0  0  0  0
  196.6690  175.7170  135.8410 C   0  0  1  0  0  3  0  0  0  0  0  0
  194.8500  176.8310  134.8610 C   0  0  0  0  0  2  0  0  0  0  0  0
  195.7900  174.6750  135.1890 C   0  0  0  0  0  2  0  0  0  0  0  0
  186.0370  179.3820  141.5550 N   0  0  0  0  0  2  0  0  0  0  0  0
  184.8270  179.2540  140.7610 C   0  0  0  0  0  2  0  0  0  0  0  0
  183.3670  178.7610  142.7200 C   0  0  0  0  0  2  0  0  0  0  0  0
  181.8950  178.7500  142.5480 C   0  0  0  0  0  0  0  0  0  0  0  0
  182.6880  178.0220  140.4950 C   0  0  0  0  0  2  0  0  0  0  0  0
  183.9020  178.2330  141.3930 C   0  0  1  0  0  3  0  0  0  0  0  0
  181.5180  178.3500  141.3470 C   0  0  0  0  0  3  0  0  0  0  0  0
  179.9110  178.4240  143.9560 C   0  0  0  0  0  2  0  0  0  0  0  0
  180.9740  179.1480  143.6210 C   0  0  0  0  0  3  0  0  0  0  0  0
  1  6  1  1  0  0  0
  2 12  2  0  0  0  0
  3 14  1  0  0  0  0
  4 15  1  6  0  0  0
  4  8  1  0  0  0  0
  5  1  1  0  0  0  0
  7  4  1  0  0  0  0
  8  1  1  0  0  0  0
  9  7  1  0  0  0  0
  9  5  1  0  0  0  0
 10 11  1  0  0  0  0
 11  2  1  0  0  0  0
 11  7  2  0  0  0  0
 12 15  1  0  0  0  0
 13 35  1  1  0  0  0
 13  2  1  0  0  0  0
 14 10  2  0  0  0  0
 14 13  1  0  0  0  0
 16 17  1  6  0  0  0
 16  3  1  0  0  0  0
 18 16  1  0  0  0  0
 19 18  1  1  0  0  0
 19 21  1  0  0  0  0
 20 27  1  6  0  0  0
 20 19  1  0  0  0  0
 20 21  1  0  0  0  0
 21 22  1  6  0  0  0
 25 23  1  1  0  0  0
 25 20  1  0  0  0  0
 25 24  1  0  0  0  0
 26 23  1  6  0  0  0
 26 25  1  0  0  0  0
 26 24  1  0  0  0  0
 27 28  1  0  0  0  0
 29 34  1  0  0  0  0
 29 28  1  1  0  0  0
 31 32  1  0  0  0  0
 32 30  1  6  0  0  0
 33 29  1  0  0  0  0
 33 31  1  0  0  0  0
 34 32  1  0  0  0  0
 36 35  1  0  0  0  0
 38 37  1  0  0  0  0
 38 43  1  0  0  0  0
 39 41  1  0  0  0  0
 39 40  1  0  0  0  0
 40 36  1  6  0  0  0
 40 37  1  0  0  0  0
 41 38  2  0  0  0  0
 43 42  2  0  0  0  0
M  END
>  <MODEL>
1

>  <REMARK>
 VINA RESULT:      -8.7      0.000      0.000
  Name = 
  11 active torsions:
  status: ('A' for Active; 'I' for Inactive)
    1  A    between atoms: N_1  and  C_32
    2  A    between atoms: N_1  and  C_34
    3  A    between atoms: C_2  and  C_6
    4  A    between atoms: C_2  and  N_13
    5  A    between atoms: C_3  and  C_6
    6  A    between atoms: C_4  and  C_22
    7  A    between atoms: C_4  and  C_41
    8  A    between atoms: C_11  and  O_14
    9  A    between atoms: O_14  and  C_41
   10  A    between atoms: C_19  and  C_37
   11  A    between atoms: C_32  and  C_35
                            x       y       z     vdW  Elec       q    Type
                         _______ _______ _______ _____ _____    ______ ____

>  <TORSDO>
F 11

$$$$
=
 OpenBabel10262422093D

 43 50  0  0  1  0  0  0  0  0999 V2000
  191.0520  177.1310  146.1150 C   0  0  2  0  0  3  0  0  0  0  0  0
  187.1590  177.8370  142.8950 C   0  0  0  0  0  0  0  0  0  0  0  0
  187.8270  178.3150  139.3200 N   0  0  0  0  0  2  0  0  0  0  0  0
  188.7990  177.9180  145.2180 C   0  0  2  0  0  3  0  0  0  0  0  0
  191.5980  176.8210  144.7290 C   0  0  0  0  0  2  0  0  0  0  0  0
  191.6830  176.1910  147.1210 C   0  0  0  0  0  1  0  0  0  0  0  0
  189.3910  177.8750  143.8190 C   0  0  0  0  0  0  0  0  0  0  0  0
  189.5380  176.9430  146.1370 C   0  0  0  0  0  2  0  0  0  0  0  0
  191.1480  178.1720  143.6000 S   0  0  0  0  0  0  0  0  0  0  0  0
  188.9430  177.9610  141.4060 N   0  0  0  0  0  0  0  0  0  0  0  0
  188.5810  177.7920  142.7650 C   0  0  0  0  0  0  0  0  0  0  0  0
  186.5550  177.8360  144.0400 N   0  0  0  0  0  0  0  0  0  0  0  0
  186.5700  178.0920  141.5580 C   0  0  2  0  0  3  0  0  0  0  0  0
  187.8380  178.1140  140.7350 C   0  0  0  0  0  0  0  0  0  0  0  0
  187.2930  177.5490  145.2770 C   0  0  0  0  0  2  0  0  0  0  0  0
  189.0460  178.3820  138.5250 C   0  0  2  0  0  3  0  0  0  0  0  0
  188.9320  179.4610  137.4590 C   0  0  0  0  0  1  0  0  0  0  0  0
  189.3620  177.0230  137.9080 C   0  0  0  0  0  2  0  0  0  0  0  0
  188.1110  176.1700  137.6820 C   0  0  2  0  0  3  0  0  0  0  0  0
  188.3190  174.9690  136.7570 C   0  0  1  0  0  0  0  0  0  0  0  0
  187.7060  176.2620  136.2180 C   0  0  1  0  0  3  0  0  0  0  0  0
  186.3160  176.1670  136.1160 O   0  0  0  0  0  1  0  0  0  0  0  0
  190.4860  173.7800  137.3320 N   0  0  0  0  0  2  0  0  0  0  0  0
  189.9760  174.1850  135.0010 N   0  0  0  0  0  2  0  0  0  0  0  0
  189.7890  174.6510  136.3800 C   0  0  2  0  0  0  0  0  0  0  0  0
  189.8610  173.2450  136.1180 C   0  0  2  0  0  3  0  0  0  0  0  0
  187.3710  173.8230  137.1150 C   0  0  0  0  0  2  0  0  0  0  0  0
  186.6670  173.4150  135.9790 O   0  0  0  0  0  0  0  0  0  0  0  0
  185.7830  172.4350  136.4330 C   0  0  1  0  0  3  0  0  0  0  0  0
  182.2940  172.6080  135.7420 N   0  0  0  0  0  1  0  0  0  0  0  0
  183.8360  173.5790  137.2750 N   0  0  0  0  0  2  0  0  0  0  0  0
  183.5990  173.2290  135.8780 C   0  0  1  0  0  3  0  0  0  0  0  0
  185.0790  172.9310  137.6750 C   0  0  0  0  0  2  0  0  0  0  0  0
  184.6730  172.2640  135.4330 C   0  0  0  0  0  2  0  0  0  0  0  0
  185.9540  179.4080  141.5320 N   0  0  0  0  0  2  0  0  0  0  0  0
  184.7520  179.2920  140.7250 C   0  0  0  0  0  2  0  0  0  0  0  0
  183.0130  178.8400  142.4530 C   0  0  0  0  0  2  0  0  0  0  0  0
  181.6070  178.6300  142.0350 C   0  0  0  0  0  0  0  0  0  0  0  0
  182.8340  177.7850  140.2600 C   0  0  0  0  0  2  0  0  0  0  0  0
  183.8340  178.2400  141.3170 C   0  0  1  0  0  3  0  0  0  0  0  0
  181.5000  178.0580  140.8490 C   0  0  0  0  0  3  0  0  0  0  0  0
  180.2360  178.4870  144.0660 C   0  0  0  0  0  2  0  0  0  0  0  0
  180.4680  179.0280  142.8740 C   0  0  0  0  0  3  0  0  0  0  0  0
  1  8  1  0  0  0  0
  1  6  1  1  0  0  0
  2 12  2  0  0  0  0
  3 14  1  0  0  0  0
  4 15  1  6  0  0  0
  4  8  1  0  0  0  0
  5  1  1  0  0  0  0
  7  4  1  0  0  0  0
  9  7  1  0  0  0  0
  9  5  1  0  0  0  0
 10 11  1  0  0  0  0
 11  2  1  0  0  0  0
 11  7  2  0  0  0  0
 12 15  1  0  0  0  0
 13 35  1  1  0  0  0
 13  2  1  0  0  0  0
 14 10  2  0  0  0  0
 14 13  1  0  0  0  0
 16 17  1  6  0  0  0
 16  3  1  0  0  0  0
 18 16  1  0  0  0  0
 19 18  1  6  0  0  0
 20 27  1  1  0  0  0
 20 19  1  0  0  0  0
 21 22  1  1  0  0  0
 21 20  1  0  0  0  0
 21 19  1  0  0  0  0
 25 24  1  6  0  0  0
 25 20  1  0  0  0  0
 25 23  1  0  0  0  0
 26 24  1  6  0  0  0
 26 25  1  0  0  0  0
 26 23  1  0  0  0  0
 28 27  1  0  0  0  0
 29 28  1  6  0  0  0
 29 33  1  0  0  0  0
 31 33  1  0  0  0  0
 32 30  1  1  0  0  0
 32 31  1  0  0  0  0
 34 32  1  0  0  0  0
 34 29  1  0  0  0  0
 36 35  1  0  0  0  0
 38 37  1  0  0  0  0
 38 43  1  0  0  0  0
 39 41  1  0  0  0  0
 39 40  1  0  0  0  0
 40 36  1  6  0  0  0
 40 37  1  0  0  0  0
 41 38  2  0  0  0  0
 43 42  2  0  0  0  0
M  END
>  <MODEL>
2

>  <REMARK>
 VINA RESULT:      -8.7      2.997      5.120
  Name = 
  11 active torsions:
  status: ('A' for Active; 'I' for Inactive)
    1  A    between atoms: N_1  and  C_32
    2  A    between atoms: N_1  and  C_34
    3  A    between atoms: C_2  and  C_6
    4  A    between atoms: C_2  and  N_13
    5  A    between atoms: C_3  and  C_6
    6  A    between atoms: C_4  and  C_22
    7  A    between atoms: C_4  and  C_41
    8  A    between atoms: C_11  and  O_14
    9  A    between atoms: O_14  and  C_41
   10  A    between atoms: C_19  and  C_37
   11  A    between atoms: C_32  and  C_35
                            x       y       z     vdW  Elec       q    Type
                         _______ _______ _______ _____ _____    ______ ____

>  <TORSDO>
F 11

$$$$
=
 OpenBabel10262422093D

 43 50  0  0  1  0  0  0  0  0999 V2000
  188.0280  177.5080  147.2400 C   0  0  2  0  0  3  0  0  0  0  0  0
  188.7930  178.1950  142.2440 C   0  0  0  0  0  0  0  0  0  0  0  0
  185.9380  178.9020  140.0530 N   0  0  0  0  0  2  0  0  0  0  0  0
  189.0190  177.2250  144.9080 C   0  0  2  0  0  3  0  0  0  0  0  0
  186.7900  178.2280  146.7250 C   0  0  0  0  0  2  0  0  0  0  0  0
  188.3530  178.0100  148.6320 C   0  0  0  0  0  1  0  0  0  0  0  0
  187.6920  177.6960  144.3350 C   0  0  0  0  0  0  0  0  0  0  0  0
  189.2140  177.7820  146.3200 C   0  0  0  0  0  2  0  0  0  0  0  0
  186.1800  177.3700  145.2450 S   0  0  0  0  0  0  0  0  0  0  0  0
  186.4830  178.4560  142.3380 N   0  0  0  0  0  0  0  0  0  0  0  0
  187.6470  178.1840  143.0970 C   0  0  0  0  0  0  0  0  0  0  0  0
  189.9760  177.8520  142.6440 N   0  0  0  0  0  0  0  0  0  0  0  0
  188.3440  178.4450  140.8530 C   0  0  2  0  0  3  0  0  0  0  0  0
  186.8630  178.6140  141.1030 C   0  0  0  0  0  0  0  0  0  0  0  0
  190.2540  177.6560  144.0730 C   0  0  0  0  0  2  0  0  0  0  0  0
  184.5030  179.0230  140.2770 C   0  0  2  0  0  3  0  0  0  0  0  0
  183.8930  177.6650  140.5910 C   0  0  0  0  0  1  0  0  0  0  0  0
  183.8230  179.6720  139.0750 C   0  0  0  0  0  2  0  0  0  0  0  0
  182.3160  179.8490  139.2720 C   0  0  2  0  0  3  0  0  0  0  0  0
  181.4540  179.2330  138.1670 C   0  0  1  0  0  0  0  0  0  0  0  0
  181.7710  180.7290  138.1570 C   0  0  1  0  0  3  0  0  0  0  0  0
  180.7000  181.4830  138.6440 O   0  0  0  0  0  1  0  0  0  0  0  0
  182.1890  176.9000  137.4900 N   0  0  0  0  0  2  0  0  0  0  0  0
  181.8190  178.5430  135.7510 N   0  0  0  0  0  2  0  0  0  0  0  0
  182.2000  178.3280  137.1530 C   0  0  2  0  0  0  0  0  0  0  0  0
  181.2190  177.4740  136.5520 C   0  0  2  0  0  3  0  0  0  0  0  0
  180.0920  178.7930  138.7060 C   0  0  0  0  0  2  0  0  0  0  0  0
  180.2640  178.0050  139.8480 O   0  0  0  0  0  0  0  0  0  0  0  0
  179.0950  178.1830  140.5900 C   0  0  1  0  0  3  0  0  0  0  0  0
  179.0910  179.9880  143.6590 N   0  0  0  0  0  1  0  0  0  0  0  0
  179.6620  177.8040  142.9010 N   0  0  0  0  0  2  0  0  0  0  0  0
  179.7750  179.2320  142.6250 C   0  0  1  0  0  3  0  0  0  0  0  0
  179.0630  177.1850  141.7240 C   0  0  0  0  0  2  0  0  0  0  0  0
  179.1440  179.5170  141.2820 C   0  0  0  0  0  2  0  0  0  0  0  0
  188.5650  177.2600  140.0410 N   0  0  0  0  0  2  0  0  0  0  0  0
  189.6890  177.5540  139.1690 C   0  0  0  0  0  2  0  0  0  0  0  0
  187.9320  176.7130  137.6130 C   0  0  0  0  0  2  0  0  0  0  0  0
  187.0140  177.6770  136.9610 C   0  0  0  0  0  0  0  0  0  0  0  0
  188.9870  178.8720  137.1850 C   0  0  0  0  0  2  0  0  0  0  0  0
  189.2520  177.4690  137.7200 C   0  0  1  0  0  3  0  0  0  0  0  0
  187.5760  178.8480  136.7240 C   0  0  0  0  0  3  0  0  0  0  0  0
  185.3110  176.5270  135.6180 C   0  0  0  0  0  2  0  0  0  0  0  0
  185.6250  177.3360  136.6250 C   0  0  0  0  0  3  0  0  0  0  0  0
  1  6  1  1  0  0  0
  2 12  2  0  0  0  0
  2 11  1  0  0  0  0
  3 16  1  0  0  0  0
  3 14  1  0  0  0  0
  4 15  1  6  0  0  0
  4  8  1  0  0  0  0
  5  1  1  0  0  0  0
  7  4  1  0  0  0  0
  7  9  1  0  0  0  0
  8  1  1  0  0  0  0
  9  5  1  0  0  0  0
 10 11  1  0  0  0  0
 11  7  2  0  0  0  0
 12 15  1  0  0  0  0
 13 35  1  6  0  0  0
 13 14  1  0  0  0  0
 13  2  1  0  0  0  0
 14 10  2  0  0  0  0
 16 17  1  6  0  0  0
 18 16  1  0  0  0  0
 19 18  1  6  0  0  0
 20 27  1  1  0  0  0
 20 19  1  0  0  0  0
 21 20  1  0  0  0  0
 21 22  1  1  0  0  0
 21 19  1  0  0  0  0
 25 24  1  6  0  0  0
 25 23  1  0  0  0  0
 25 20  1  0  0  0  0
 26 24  1  6  0  0  0
 26 25  1  0  0  0  0
 26 23  1  0  0  0  0
 27 28  1  0  0  0  0
 29 28  1  6  0  0  0
 29 34  1  0  0  0  0
 29 33  1  0  0  0  0
 32 31  1  0  0  0  0
 32 30  1  1  0  0  0
 33 31  1  0  0  0  0
 34 32  1  0  0  0  0
 36 35  1  0  0  0  0
 37 40  1  0  0  0  0
 38 37  1  0  0  0  0
 39 40  1  0  0  0  0
 40 36  1  1  0  0  0
 41 38  2  0  0  0  0
 41 39  1  0  0  0  0
 42 43  2  0  0  0  0
 43 38  1  0  0  0  0
M  END
>  <MODEL>
3

>  <REMARK>
 VINA RESULT:      -8.4      4.755      9.628
  Name = 
  11 active torsions:
  status: ('A' for Active; 'I' for Inactive)
    1  A    between atoms: N_1  and  C_32
    2  A    between atoms: N_1  and  C_34
    3  A    between atoms: C_2  and  C_6
    4  A    between atoms: C_2  and  N_13
    5  A    between atoms: C_3  and  C_6
    6  A    between atoms: C_4  and  C_22
    7  A    between atoms: C_4  and  C_41
    8  A    between atoms: C_11  and  O_14
    9  A    between atoms: O_14  and  C_41
   10  A    between atoms: C_19  and  C_37
   11  A    between atoms: C_32  and  C_35
                            x       y       z     vdW  Elec       q    Type
                         _______ _______ _______ _____ _____    ______ ____

>  <TORSDO>
F 11

$$$$
=
 OpenBabel10262422093D

 43 50  0  0  1  0  0  0  0  0999 V2000
  180.6370  178.2040  139.5920 C   0  0  2  0  0  3  0  0  0  0  0  0
  184.1650  179.0080  143.1870 C   0  0  0  0  0  0  0  0  0  0  0  0
  187.6250  177.9390  142.6030 N   0  0  0  0  0  2  0  0  0  0  0  0
  181.6960  178.4250  141.9010 C   0  0  2  0  0  3  0  0  0  0  0  0
  181.9810  178.1020  138.8850 C   0  0  0  0  0  2  0  0  0  0  0  0
  179.6330  178.8550  138.6620 C   0  0  0  0  0  1  0  0  0  0  0  0
  183.0320  178.0640  141.2730 C   0  0  0  0  0  0  0  0  0  0  0  0
  180.7710  179.0510  140.8540 C   0  0  0  0  0  2  0  0  0  0  0  0
  183.0640  176.9940  139.8330 S   0  0  0  0  0  0  0  0  0  0  0  0
  185.4670  177.9560  141.5720 N   0  0  0  0  0  0  0  0  0  0  0  0
  184.1620  178.3990  141.8950 C   0  0  0  0  0  0  0  0  0  0  0  0
  183.0850  179.3890  143.7910 N   0  0  0  0  0  0  0  0  0  0  0  0
  185.5340  178.9150  143.7500 C   0  0  2  0  0  3  0  0  0  0  0  0
  186.2300  178.2490  142.5840 C   0  0  0  0  0  0  0  0  0  0  0  0
  181.8030  179.4330  143.0760 C   0  0  0  0  0  2  0  0  0  0  0  0
  188.2950  177.2570  141.5030 C   0  0  2  0  0  3  0  0  0  0  0  0
  189.3890  176.3400  142.0280 C   0  0  0  0  0  1  0  0  0  0  0  0
  188.8500  178.2670  140.5030 C   0  0  0  0  0  2  0  0  0  0  0  0
  188.1880  178.1620  139.1270 C   0  0  2  0  0  3  0  0  0  0  0  0
  189.0390  177.4620  138.0640 C   0  0  1  0  0  0  0  0  0  0  0  0
  188.9860  178.9890  138.1300 C   0  0  1  0  0  3  0  0  0  0  0  0
  188.1200  179.5140  137.1670 O   0  0  0  0  0  1  0  0  0  0  0  0
  190.2180  175.2980  138.6690 N   0  0  0  0  0  2  0  0  0  0  0  0
  191.5530  177.1600  137.8900 N   0  0  0  0  0  2  0  0  0  0  0  0
  190.3210  176.7590  138.5790 C   0  0  2  0  0  0  0  0  0  0  0  0
  190.8180  175.9540  137.5030 C   0  0  2  0  0  3  0  0  0  0  0  0
  188.1610  176.7600  137.0260 C   0  0  0  0  0  2  0  0  0  0  0  0
  187.3670  175.7930  137.6510 O   0  0  0  0  0  0  0  0  0  0  0  0
  186.8320  175.0360  136.6070 C   0  0  1  0  0  3  0  0  0  0  0  0
  184.5510  172.3700  137.2170 N   0  0  0  0  0  1  0  0  0  0  0  0
  186.9040  172.7290  137.3010 N   0  0  0  0  0  2  0  0  0  0  0  0
  185.5980  173.2770  137.6520 C   0  0  1  0  0  3  0  0  0  0  0  0
  187.5870  173.7330  136.4930 C   0  0  0  0  0  2  0  0  0  0  0  0
  185.4340  174.6140  136.9660 C   0  0  0  0  0  2  0  0  0  0  0  0
  185.5400  178.0180  144.8930 N   0  0  0  0  0  2  0  0  0  0  0  0
  186.3900  178.6280  145.9000 C   0  0  0  0  0  2  0  0  0  0  0  0
  188.3500  177.0880  145.8830 C   0  0  0  0  0  2  0  0  0  0  0  0
  189.4900  177.3490  146.7930 C   0  0  0  0  0  0  0  0  0  0  0  0
  187.6590  178.1350  147.9770 C   0  0  0  0  0  2  0  0  0  0  0  0
  187.1300  177.5530  146.6710 C   0  0  1  0  0  3  0  0  0  0  0  0
  189.1260  177.9150  147.9300 C   0  0  0  0  0  3  0  0  0  0  0  0
  191.6310  176.2220  147.2030 C   0  0  0  0  0  2  0  0  0  0  0  0
  190.8740  177.0040  146.4410 C   0  0  0  0  0  3  0  0  0  0  0  0
  1  6  1  6  0  0  0
  1  8  1  0  0  0  0
  2 13  1  0  0  0  0
  2 12  2  0  0  0  0
  4  8  1  6  0  0  0
  4 15  1  0  0  0  0
  5  1  1  0  0  0  0
  5  9  1  0  0  0  0
  7 11  2  0  0  0  0
  7  4  1  0  0  0  0
  9  7  1  0  0  0  0
 10 11  1  0  0  0  0
 10 14  2  0  0  0  0
 11  2  1  0  0  0  0
 13 35  1  1  0  0  0
 14  3  1  0  0  0  0
 14 13  1  0  0  0  0
 15 12  1  0  0  0  0
 16 17  1  1  0  0  0
 16  3  1  0  0  0  0
 18 16  1  0  0  0  0
 19 18  1  1  0  0  0
 20 27  1  6  0  0  0
 20 21  1  0  0  0  0
 20 25  1  0  0  0  0
 20 19  1  0  0  0  0
 21 22  1  6  0  0  0
 21 19  1  0  0  0  0
 25 24  1  1  0  0  0
 25 23  1  0  0  0  0
 26 24  1  1  0  0  0
 26 25  1  0  0  0  0
 26 23  1  0  0  0  0
 27 28  1  0  0  0  0
 29 34  1  0  0  0  0
 29 28  1  1  0  0  0
 31 32  1  0  0  0  0
 32 30  1  6  0  0  0
 33 29  1  0  0  0  0
 33 31  1  0  0  0  0
 34 32  1  0  0  0  0
 35 36  1  0  0  0  0
 37 40  1  0  0  0  0
 37 38  1  0  0  0  0
 38 41  2  0  0  0  0
 40 36  1  6  0  0  0
 40 39  1  0  0  0  0
 41 39  1  0  0  0  0
 43 38  1  0  0  0  0
 43 42  2  0  0  0  0
M  END
>  <MODEL>
4

>  <REMARK>
 VINA RESULT:      -8.3      3.191      7.595
  Name = 
  11 active torsions:
  status: ('A' for Active; 'I' for Inactive)
    1  A    between atoms: N_1  and  C_32
    2  A    between atoms: N_1  and  C_34
    3  A    between atoms: C_2  and  C_6
    4  A    between atoms: C_2  and  N_13
    5  A    between atoms: C_3  and  C_6
    6  A    between atoms: C_4  and  C_22
    7  A    between atoms: C_4  and  C_41
    8  A    between atoms: C_11  and  O_14
    9  A    between atoms: O_14  and  C_41
   10  A    between atoms: C_19  and  C_37
   11  A    between atoms: C_32  and  C_35
                            x       y       z     vdW  Elec       q    Type
                         _______ _______ _______ _____ _____    ______ ____

>  <TORSDO>
F 11

$$$$
=
 OpenBabel10262422093D

 43 50  0  0  1  0  0  0  0  0999 V2000
  191.0800  177.1040  146.3460 C   0  0  2  0  0  3  0  0  0  0  0  0
  187.2590  177.8180  143.0420 C   0  0  0  0  0  0  0  0  0  0  0  0
  188.0090  178.3620  139.4930 N   0  0  0  0  0  2  0  0  0  0  0  0
  188.8410  177.8810  145.4050 C   0  0  2  0  0  3  0  0  0  0  0  0
  191.6630  176.8230  144.9680 C   0  0  0  0  0  2  0  0  0  0  0  0
  191.6970  176.1550  147.3520 C   0  0  0  0  0  1  0  0  0  0  0  0
  189.4670  177.8660  144.0210 C   0  0  0  0  0  0  0  0  0  0  0  0
  189.5680  176.8990  146.3270 C   0  0  0  0  0  2  0  0  0  0  0  0
  191.2250  178.1860  143.8510 S   0  0  0  0  0  0  0  0  0  0  0  0
  189.0770  177.9870  141.6000 N   0  0  0  0  0  0  0  0  0  0  0  0
  188.6840  177.7910  142.9460 C   0  0  0  0  0  0  0  0  0  0  0  0
  186.6260  177.7930  144.1720 N   0  0  0  0  0  0  0  0  0  0  0  0
  186.7000  178.0890  141.6950 C   0  0  2  0  0  3  0  0  0  0  0  0
  187.9870  178.1380  140.9040 C   0  0  0  0  0  0  0  0  0  0  0  0
  187.3380  177.4940  145.4210 C   0  0  0  0  0  2  0  0  0  0  0  0
  189.2460  178.4550  138.7290 C   0  0  2  0  0  3  0  0  0  0  0  0
  189.0070  179.1660  137.4060 C   0  0  0  0  0  1  0  0  0  0  0  0
  189.8520  177.0720  138.5140 C   0  0  0  0  0  2  0  0  0  0  0  0
  191.2570  177.1280  137.9100 C   0  0  2  0  0  3  0  0  0  0  0  0
  191.7050  175.8350  137.2240 C   0  0  1  0  0  0  0  0  0  0  0  0
  192.1540  176.1480  138.6510 C   0  0  1  0  0  3  0  0  0  0  0  0
  193.4590  176.6470  138.6820 O   0  0  0  0  0  1  0  0  0  0  0  0
  189.6850  175.0220  135.9210 N   0  0  0  0  0  2  0  0  0  0  0  0
  191.1130  173.3790  136.9780 N   0  0  0  0  0  2  0  0  0  0  0  0
  190.6090  174.7560  137.0290 C   0  0  2  0  0  0  0  0  0  0  0  0
  190.8470  174.1420  135.7570 C   0  0  2  0  0  3  0  0  0  0  0  0
  192.6860  176.1230  136.0860 C   0  0  0  0  0  2  0  0  0  0  0  0
  193.8350  175.3400  136.2380 O   0  0  0  0  0  0  0  0  0  0  0  0
  194.5620  175.5320  135.0620 C   0  0  1  0  0  3  0  0  0  0  0  0
  198.1220  175.4820  135.0420 N   0  0  0  0  0  1  0  0  0  0  0  0
  196.3850  177.0140  135.5950 N   0  0  0  0  0  2  0  0  0  0  0  0
  196.8530  175.6390  135.7290 C   0  0  1  0  0  3  0  0  0  0  0  0
  195.0540  176.9600  135.0030 C   0  0  0  0  0  2  0  0  0  0  0  0
  195.8230  174.7160  135.1180 C   0  0  0  0  0  2  0  0  0  0  0  0
  186.0690  179.3980  141.6750 N   0  0  0  0  0  2  0  0  0  0  0  0
  184.6350  179.1720  141.6580 C   0  0  0  0  0  2  0  0  0  0  0  0
  182.9170  177.7360  140.5630 C   0  0  0  0  0  2  0  0  0  0  0  0
  182.0260  178.3210  139.5340 C   0  0  0  0  0  0  0  0  0  0  0  0
  184.0000  179.5080  139.2810 C   0  0  0  0  0  2  0  0  0  0  0  0
  184.2390  178.4710  140.3730 C   0  0  1  0  0  3  0  0  0  0  0  0
  182.6030  179.2800  138.8340 C   0  0  0  0  0  3  0  0  0  0  0  0
  180.2590  176.6190  139.6060 C   0  0  0  0  0  2  0  0  0  0  0  0
  180.6440  177.8610  139.3360 C   0  0  0  0  0  3  0  0  0  0  0  0
  1  6  1  1  0  0  0
  2 12  2  0  0  0  0
  3 14  1  0  0  0  0
  4 15  1  6  0  0  0
  4  8  1  0  0  0  0
  5  1  1  0  0  0  0
  7  4  1  0  0  0  0
  8  1  1  0  0  0  0
  9  7  1  0  0  0  0
  9  5  1  0  0  0  0
 10 11  1  0  0  0  0
 11  2  1  0  0  0  0
 11  7  2  0  0  0  0
 12 15  1  0  0  0  0
 13 35  1  1  0  0  0
 13  2  1  0  0  0  0
 14 10  2  0  0  0  0
 14 13  1  0  0  0  0
 16 17  1  6  0  0  0
 16  3  1  0  0  0  0
 18 16  1  0  0  0  0
 19 18  1  1  0  0  0
 19 21  1  0  0  0  0
 20 27  1  6  0  0  0
 20 19  1  0  0  0  0
 20 21  1  0  0  0  0
 21 22  1  6  0  0  0
 24 25  1  0  0  0  0
 25 23  1  1  0  0  0
 25 20  1  0  0  0  0
 26 23  1  6  0  0  0
 26 24  1  0  0  0  0
 26 25  1  0  0  0  0
 27 28  1  0  0  0  0
 29 34  1  0  0  0  0
 29 28  1  1  0  0  0
 31 32  1  0  0  0  0
 32 30  1  6  0  0  0
 33 29  1  0  0  0  0
 33 31  1  0  0  0  0
 34 32  1  0  0  0  0
 36 35  1  0  0  0  0
 38 37  1  0  0  0  0
 39 40  1  0  0  0  0
 40 37  1  0  0  0  0
 40 36  1  1  0  0  0
 41 39  1  0  0  0  0
 41 38  2  0  0  0  0
 43 38  1  0  0  0  0
 43 42  2  0  0  0  0
M  END
>  <MODEL>
5

>  <REMARK>
 VINA RESULT:      -8.2      1.111      1.332
  Name = 
  11 active torsions:
  status: ('A' for Active; 'I' for Inactive)
    1  A    between atoms: N_1  and  C_32
    2  A    between atoms: N_1  and  C_34
    3  A    between atoms: C_2  and  C_6
    4  A    between atoms: C_2  and  N_13
    5  A    between atoms: C_3  and  C_6
    6  A    between atoms: C_4  and  C_22
    7  A    between atoms: C_4  and  C_41
    8  A    between atoms: C_11  and  O_14
    9  A    between atoms: O_14  and  C_41
   10  A    between atoms: C_19  and  C_37
   11  A    between atoms: C_32  and  C_35
                            x       y       z     vdW  Elec       q    Type
                         _______ _______ _______ _____ _____    ______ ____

>  <TORSDO>
F 11

$$$$
=
 OpenBabel10262422093D

 43 50  0  0  1  0  0  0  0  0999 V2000
  188.3810  177.4680  147.1570 C   0  0  2  0  0  3  0  0  0  0  0  0
  188.8690  178.2310  142.1360 C   0  0  0  0  0  0  0  0  0  0  0  0
  185.8890  178.9150  140.1090 N   0  0  0  0  0  2  0  0  0  0  0  0
  189.2520  177.2310  144.7720 C   0  0  2  0  0  3  0  0  0  0  0  0
  187.1060  178.1730  146.7180 C   0  0  0  0  0  2  0  0  0  0  0  0
  188.7720  177.9580  148.5360 C   0  0  0  0  0  1  0  0  0  0  0  0
  187.8890  177.6860  144.2770 C   0  0  0  0  0  0  0  0  0  0  0  0
  189.5120  177.7740  146.1790 C   0  0  0  0  0  2  0  0  0  0  0  0
  186.4320  177.3220  145.2610 S   0  0  0  0  0  0  0  0  0  0  0  0
  186.5630  178.4500  142.3560 N   0  0  0  0  0  0  0  0  0  0  0  0
  187.7700  178.1890  143.0490 C   0  0  0  0  0  0  0  0  0  0  0  0
  190.0760  177.9040  142.4690 N   0  0  0  0  0  0  0  0  0  0  0  0
  188.3420  178.4900  140.7750 C   0  0  2  0  0  3  0  0  0  0  0  0
  186.8730  178.6300  141.1050 C   0  0  0  0  0  0  0  0  0  0  0  0
  190.4340  177.6940  143.8780 C   0  0  0  0  0  2  0  0  0  0  0  0
  184.4670  179.0080  140.4110 C   0  0  2  0  0  3  0  0  0  0  0  0
  184.0480  177.9000  141.3650 C   0  0  0  0  0  1  0  0  0  0  0  0
  183.6420  178.9760  139.1280 C   0  0  0  0  0  2  0  0  0  0  0  0
  182.5190  177.9370  139.1710 C   0  0  2  0  0  3  0  0  0  0  0  0
  181.5170  178.0370  138.0190 C   0  0  1  0  0  0  0  0  0  0  0  0
  181.1920  178.6510  139.3810 C   0  0  1  0  0  3  0  0  0  0  0  0
  180.3380  177.8310  140.1230 O   0  0  0  0  0  1  0  0  0  0  0  0
  181.9230  178.3740  135.5370 N   0  0  0  0  0  2  0  0  0  0  0  0
  181.1550  180.2590  136.8460 N   0  0  0  0  0  2  0  0  0  0  0  0
  181.9040  178.9970  136.8650 C   0  0  2  0  0  0  0  0  0  0  0  0
  180.7560  179.1190  136.0180 C   0  0  2  0  0  3  0  0  0  0  0  0
  180.9140  176.6690  137.6880 C   0  0  0  0  0  2  0  0  0  0  0  0
  181.8410  175.9010  136.9780 O   0  0  0  0  0  0  0  0  0  0  0  0
  182.0050  174.7400  137.7360 C   0  0  1  0  0  3  0  0  0  0  0  0
  185.1130  173.0050  137.8410 N   0  0  0  0  0  1  0  0  0  0  0  0
  183.2420  173.1800  136.3780 N   0  0  0  0  0  2  0  0  0  0  0  0
  184.1860  173.9240  137.2040 C   0  0  1  0  0  3  0  0  0  0  0  0
  181.9020  173.5320  136.8330 C   0  0  0  0  0  2  0  0  0  0  0  0
  183.4130  174.6820  138.2590 C   0  0  0  0  0  2  0  0  0  0  0  0
  188.5390  177.3190  139.9370 N   0  0  0  0  0  2  0  0  0  0  0  0
  189.6190  177.6380  139.0190 C   0  0  0  0  0  2  0  0  0  0  0  0
  187.8150  176.7090  137.5720 C   0  0  0  0  0  2  0  0  0  0  0  0
  186.9220  177.6350  136.8360 C   0  0  0  0  0  0  0  0  0  0  0  0
  188.9370  178.7760  136.9200 C   0  0  0  0  0  2  0  0  0  0  0  0
  189.1610  177.4250  137.5900 C   0  0  1  0  0  3  0  0  0  0  0  0
  187.5210  178.7560  136.4770 C   0  0  0  0  0  3  0  0  0  0  0  0
  185.1060  176.9240  135.3460 C   0  0  0  0  0  2  0  0  0  0  0  0
  185.5180  177.3110  136.5480 C   0  0  0  0  0  3  0  0  0  0  0  0
  1  6  1  1  0  0  0
  2 12  2  0  0  0  0
  2 11  1  0  0  0  0
  3 16  1  0  0  0  0
  3 14  1  0  0  0  0
  4 15  1  6  0  0  0
  4  8  1  0  0  0  0
  5  1  1  0  0  0  0
  7  4  1  0  0  0  0
  7  9  1  0  0  0  0
  8  1  1  0  0  0  0
  9  5  1  0  0  0  0
 10 11  1  0  0  0  0
 11  7  2  0  0  0  0
 12 15  1  0  0  0  0
 13 35  1  6  0  0  0
 13 14  1  0  0  0  0
 13  2  1  0  0  0  0
 14 10  2  0  0  0  0
 16 17  1  1  0  0  0
 18 16  1  0  0  0  0
 19 18  1  6  0  0  0
 19 21  1  0  0  0  0
 20 27  1  6  0  0  0
 20 19  1  0  0  0  0
 20 21  1  0  0  0  0
 21 22  1  1  0  0  0
 24 25  1  0  0  0  0
 25 23  1  6  0  0  0
 25 20  1  0  0  0  0
 26 23  1  6  0  0  0
 26 24  1  0  0  0  0
 26 25  1  0  0  0  0
 28 27  1  0  0  0  0
 29 28  1  6  0  0  0
 29 34  1  0  0  0  0
 31 33  1  0  0  0  0
 31 32  1  0  0  0  0
 32 30  1  1  0  0  0
 32 34  1  0  0  0  0
 33 29  1  0  0  0  0
 36 35  1  0  0  0  0
 37 40  1  0  0  0  0
 38 37  1  0  0  0  0
 39 40  1  0  0  0  0
 40 36  1  1  0  0  0
 41 38  2  0  0  0  0
 41 39  1  0  0  0  0
 42 43  2  0  0  0  0
 43 38  1  0  0  0  0
M  END
>  <MODEL>
6

>  <REMARK>
 VINA RESULT:      -7.8      4.570      8.268
  Name = 
  11 active torsions:
  status: ('A' for Active; 'I' for Inactive)
    1  A    between atoms: N_1  and  C_32
    2  A    between atoms: N_1  and  C_34
    3  A    between atoms: C_2  and  C_6
    4  A    between atoms: C_2  and  N_13
    5  A    between atoms: C_3  and  C_6
    6  A    between atoms: C_4  and  C_22
    7  A    between atoms: C_4  and  C_41
    8  A    between atoms: C_11  and  O_14
    9  A    between atoms: O_14  and  C_41
   10  A    between atoms: C_19  and  C_37
   11  A    between atoms: C_32  and  C_35
                            x       y       z     vdW  Elec       q    Type
                         _______ _______ _______ _____ _____    ______ ____

>  <TORSDO>
F 11

$$$$
=
 OpenBabel10262422093D

 43 50  0  0  1  0  0  0  0  0999 V2000
  188.8560  177.1900  145.8610 C   0  0  2  0  0  3  0  0  0  0  0  0
  190.6280  177.2910  141.0790 C   0  0  0  0  0  0  0  0  0  0  0  0
  188.2700  177.4740  138.2750 N   0  0  0  0  0  2  0  0  0  0  0  0
  190.3330  176.6920  143.8430 C   0  0  2  0  0  3  0  0  0  0  0  0
  187.7190  177.7340  145.0080 C   0  0  0  0  0  2  0  0  0  0  0  0
  188.8510  177.8910  147.2040 C   0  0  0  0  0  1  0  0  0  0  0  0
  189.1360  176.9750  142.9520 C   0  0  0  0  0  0  0  0  0  0  0  0
  190.1940  177.4390  145.1720 C   0  0  0  0  0  2  0  0  0  0  0  0
  187.4840  176.6460  143.5730 S   0  0  0  0  0  0  0  0  0  0  0  0
  188.3400  177.3720  140.6630 N   0  0  0  0  0  0  0  0  0  0  0  0
  189.3290  177.2950  141.6740 C   0  0  0  0  0  0  0  0  0  0  0  0
  191.7150  177.1000  141.7560 N   0  0  0  0  0  0  0  0  0  0  0  0
  190.4720  177.3230  139.6040 C   0  0  2  0  0  3  0  0  0  0  0  0
  188.9640  177.4010  139.5210 C   0  0  0  0  0  0  0  0  0  0  0  0
  191.6930  177.1110  143.2240 C   0  0  0  0  0  2  0  0  0  0  0  0
  186.8160  177.5050  138.1840 C   0  0  2  0  0  3  0  0  0  0  0  0
  186.3700  177.4890  136.7300 C   0  0  0  0  0  1  0  0  0  0  0  0
  186.2560  178.7170  138.9220 C   0  0  0  0  0  2  0  0  0  0  0  0
  184.7290  178.7990  138.8530 C   0  0  2  0  0  3  0  0  0  0  0  0
  184.0170  178.5280  140.1800 C   0  0  1  0  0  0  0  0  0  0  0  0
  184.1460  177.4220  139.1330 C   0  0  1  0  0  3  0  0  0  0  0  0
  182.9640  177.2640  138.4050 O   0  0  0  0  0  1  0  0  0  0  0  0
  185.6040  179.7060  141.7730 N   0  0  0  0  0  2  0  0  0  0  0  0
  184.2870  177.8570  142.6140 N   0  0  0  0  0  2  0  0  0  0  0  0
  184.9270  178.4500  141.4330 C   0  0  2  0  0  0  0  0  0  0  0  0
  184.3520  179.3080  142.4240 C   0  0  2  0  0  3  0  0  0  0  0  0
  182.6900  179.2850  140.2620 C   0  0  0  0  0  2  0  0  0  0  0  0
  181.6720  178.4180  140.6700 O   0  0  0  0  0  0  0  0  0  0  0  0
  180.6580  179.2500  141.1480 C   0  0  1  0  0  3  0  0  0  0  0  0
  179.1420  178.7060  144.3240 N   0  0  0  0  0  1  0  0  0  0  0  0
  178.9760  177.8240  142.1180 N   0  0  0  0  0  2  0  0  0  0  0  0
  179.8940  178.2380  143.1730 C   0  0  1  0  0  3  0  0  0  0  0  0
  179.3180  178.5880  140.9240 C   0  0  0  0  0  2  0  0  0  0  0  0
  180.7650  179.3550  142.6440 C   0  0  0  0  0  2  0  0  0  0  0  0
  190.9230  176.0650  139.0320 N   0  0  0  0  0  2  0  0  0  0  0  0
  191.5600  176.3860  137.7660 C   0  0  0  0  0  2  0  0  0  0  0  0
  190.1430  174.3980  137.2610 C   0  0  0  0  0  2  0  0  0  0  0  0
  189.0910  174.4970  136.2230 C   0  0  0  0  0  0  0  0  0  0  0  0
  190.7390  175.9390  135.4650 C   0  0  0  0  0  2  0  0  0  0  0  0
  191.2590  175.3020  136.7490 C   0  0  1  0  0  3  0  0  0  0  0  0
  189.4050  175.3290  135.2460 C   0  0  0  0  0  3  0  0  0  0  0  0
  186.9200  173.9620  137.2350 C   0  0  0  0  0  2  0  0  0  0  0  0
  187.8360  173.7370  136.2990 C   0  0  0  0  0  3  0  0  0  0  0  0
  1  6  1  1  0  0  0
  2 11  1  0  0  0  0
  2 12  2  0  0  0  0
  3 14  1  0  0  0  0
  4 15  1  6  0  0  0
  4  8  1  0  0  0  0
  5  1  1  0  0  0  0
  7  9  1  0  0  0  0
  7  4  1  0  0  0  0
  8  1  1  0  0  0  0
  9  5  1  0  0  0  0
 10 11  1  0  0  0  0
 11  7  2  0  0  0  0
 12 15  1  0  0  0  0
 13 35  1  6  0  0  0
 13  2  1  0  0  0  0
 14 13  1  0  0  0  0
 14 10  2  0  0  0  0
 16 17  1  6  0  0  0
 16  3  1  0  0  0  0
 16 18  1  0  0  0  0
 19 18  1  1  0  0  0
 19 21  1  0  0  0  0
 19 20  1  0  0  0  0
 20 27  1  1  0  0  0
 20 25  1  0  0  0  0
 21 22  1  6  0  0  0
 21 20  1  0  0  0  0
 25 23  1  6  0  0  0
 25 26  1  0  0  0  0
 25 24  1  0  0  0  0
 26 23  1  1  0  0  0
 26 24  1  0  0  0  0
 27 28  1  0  0  0  0
 29 28  1  1  0  0  0
 29 34  1  0  0  0  0
 31 32  1  0  0  0  0
 32 30  1  1  0  0  0
 33 29  1  0  0  0  0
 33 31  1  0  0  0  0
 34 32  1  0  0  0  0
 36 35  1  0  0  0  0
 38 43  1  0  0  0  0
 38 37  1  0  0  0  0
 39 40  1  0  0  0  0
 40 37  1  0  0  0  0
 40 36  1  1  0  0  0
 41 39  1  0  0  0  0
 41 38  2  0  0  0  0
 43 42  2  0  0  0  0
M  END
>  <MODEL>
7

>  <REMARK>
 VINA RESULT:      -7.7      3.518      9.558
  Name = 
  11 active torsions:
  status: ('A' for Active; 'I' for Inactive)
    1  A    between atoms: N_1  and  C_32
    2  A    between atoms: N_1  and  C_34
    3  A    between atoms: C_2  and  C_6
    4  A    between atoms: C_2  and  N_13
    5  A    between atoms: C_3  and  C_6
    6  A    between atoms: C_4  and  C_22
    7  A    between atoms: C_4  and  C_41
    8  A    between atoms: C_11  and  O_14
    9  A    between atoms: O_14  and  C_41
   10  A    between atoms: C_19  and  C_37
   11  A    between atoms: C_32  and  C_35
                            x       y       z     vdW  Elec       q    Type
                         _______ _______ _______ _____ _____    ______ ____

>  <TORSDO>
F 11

$$$$
=
 OpenBabel10262422093D

 43 50  0  0  1  0  0  0  0  0999 V2000
  181.2250  178.6330  140.9180 C   0  0  2  0  0  3  0  0  0  0  0  0
  186.2500  178.7600  141.7850 C   0  0  0  0  0  0  0  0  0  0  0  0
  188.5810  178.6300  138.9560 N   0  0  0  0  0  2  0  0  0  0  0  0
  183.4710  178.2190  142.0520 C   0  0  2  0  0  3  0  0  0  0  0  0
  181.8640  179.0390  139.5980 C   0  0  0  0  0  2  0  0  0  0  0  0
  179.9120  179.3710  141.0830 C   0  0  0  0  0  1  0  0  0  0  0  0
  184.1330  178.3590  140.6920 C   0  0  0  0  0  0  0  0  0  0  0  0
  182.1480  178.9890  142.0790 C   0  0  0  0  0  2  0  0  0  0  0  0
  183.2200  177.8900  139.2190 S   0  0  0  0  0  0  0  0  0  0  0  0
  186.2450  178.6070  139.4630 N   0  0  0  0  0  0  0  0  0  0  0  0
  185.4290  178.6570  140.6200 C   0  0  0  0  0  0  0  0  0  0  0  0
  185.7790  178.6950  142.9890 N   0  0  0  0  0  0  0  0  0  0  0  0
  187.6720  178.7320  141.3640 C   0  0  2  0  0  3  0  0  0  0  0  0
  187.4810  178.6620  139.8660 C   0  0  0  0  0  0  0  0  0  0  0  0
  184.3310  178.7490  143.2300 C   0  0  0  0  0  2  0  0  0  0  0  0
  188.4080  178.5180  137.5140 C   0  0  2  0  0  3  0  0  0  0  0  0
  186.9420  178.6670  137.1370 C   0  0  0  0  0  1  0  0  0  0  0  0
  188.9810  177.1990  137.0040 C   0  0  0  0  0  2  0  0  0  0  0  0
  190.4500  177.0040  137.3860 C   0  0  2  0  0  3  0  0  0  0  0  0
  190.9500  175.5620  137.2720 C   0  0  1  0  0  0  0  0  0  0  0  0
  190.5270  176.1290  138.6280 C   0  0  1  0  0  3  0  0  0  0  0  0
  191.6320  176.5080  139.3940 O   0  0  0  0  0  1  0  0  0  0  0  0
  190.2050  174.4300  135.1270 N   0  0  0  0  0  2  0  0  0  0  0  0
  189.9000  173.2510  137.2190 N   0  0  0  0  0  2  0  0  0  0  0  0
  189.9910  174.5660  136.5720 C   0  0  2  0  0  0  0  0  0  0  0  0
  190.7930  173.4850  136.0820 C   0  0  2  0  0  3  0  0  0  0  0  0
  192.4450  175.5180  136.9510 C   0  0  0  0  0  2  0  0  0  0  0  0
  193.1250  174.8090  137.9460 O   0  0  0  0  0  0  0  0  0  0  0  0
  194.4300  174.6770  137.4690 C   0  0  1  0  0  3  0  0  0  0  0  0
  196.1620  171.5690  137.6170 N   0  0  0  0  0  1  0  0  0  0  0  0
  195.6430  173.3680  139.0880 N   0  0  0  0  0  2  0  0  0  0  0  0
  195.1150  172.4680  138.0690 C   0  0  1  0  0  3  0  0  0  0  0  0
  195.3970  174.7300  138.6290 C   0  0  0  0  0  2  0  0  0  0  0  0
  194.6150  173.2940  136.9060 C   0  0  0  0  0  2  0  0  0  0  0  0
  188.3010  177.5070  141.8290 N   0  0  0  0  0  2  0  0  0  0  0  0
  189.2290  177.8860  142.8810 C   0  0  0  0  0  2  0  0  0  0  0  0
  190.5780  176.5730  144.5150 C   0  0  0  0  0  2  0  0  0  0  0  0
  190.5300  176.9290  145.9530 C   0  0  0  0  0  0  0  0  0  0  0  0
  188.4100  177.4700  145.1880 C   0  0  0  0  0  2  0  0  0  0  0  0
  189.1710  176.8740  144.0080 C   0  0  1  0  0  3  0  0  0  0  0  0
  189.3600  177.4140  146.3270 C   0  0  0  0  0  3  0  0  0  0  0  0
  191.9580  175.5890  147.4320 C   0  0  0  0  0  2  0  0  0  0  0  0
  191.6810  176.7500  146.8470 C   0  0  0  0  0  3  0  0  0  0  0  0
  1  6  1  1  0  0  0
  1  8  1  0  0  0  0
  2 12  2  0  0  0  0
  3 14  1  0  0  0  0
  4  8  1  6  0  0  0
  4 15  1  0  0  0  0
  5  1  1  0  0  0  0
  7  4  1  0  0  0  0
  9  5  1  0  0  0  0
  9  7  1  0  0  0  0
 10 14  2  0  0  0  0
 10 11  1  0  0  0  0
 11  7  2  0  0  0  0
 11  2  1  0  0  0  0
 12 15  1  0  0  0  0
 13  2  1  0  0  0  0
 13 35  1  1  0  0  0
 14 13  1  0  0  0  0
 16 17  1  1  0  0  0
 16  3  1  0  0  0  0
 18 16  1  0  0  0  0
 19 18  1  6  0  0  0
 19 21  1  0  0  0  0
 20 27  1  6  0  0  0
 20 19  1  0  0  0  0
 20 21  1  0  0  0  0
 21 22  1  1  0  0  0
 25 23  1  6  0  0  0
 25 24  1  0  0  0  0
 25 20  1  0  0  0  0
 26 23  1  6  0  0  0
 26 25  1  0  0  0  0
 26 24  1  0  0  0  0
 27 28  1  0  0  0  0
 29 28  1  1  0  0  0
 29 33  1  0  0  0  0
 32 30  1  6  0  0  0
 32 31  1  0  0  0  0
 33 31  1  0  0  0  0
 34 29  1  0  0  0  0
 34 32  1  0  0  0  0
 35 36  1  0  0  0  0
 37 38  1  0  0  0  0
 38 41  2  0  0  0  0
 38 43  1  0  0  0  0
 39 41  1  0  0  0  0
 40 36  1  6  0  0  0
 40 37  1  0  0  0  0
 40 39  1  0  0  0  0
 43 42  2  0  0  0  0
M  END
>  <MODEL>
8

>  <REMARK>
 VINA RESULT:      -7.6      2.264      5.936
  Name = 
  11 active torsions:
  status: ('A' for Active; 'I' for Inactive)
    1  A    between atoms: N_1  and  C_32
    2  A    between atoms: N_1  and  C_34
    3  A    between atoms: C_2  and  C_6
    4  A    between atoms: C_2  and  N_13
    5  A    between atoms: C_3  and  C_6
    6  A    between atoms: C_4  and  C_22
    7  A    between atoms: C_4  and  C_41
    8  A    between atoms: C_11  and  O_14
    9  A    between atoms: O_14  and  C_41
   10  A    between atoms: C_19  and  C_37
   11  A    between atoms: C_32  and  C_35
                            x       y       z     vdW  Elec       q    Type
                         _______ _______ _______ _____ _____    ______ ____

>  <TORSDO>
F 11

$$$$
=
 OpenBabel10262422093D

 43 50  0  0  1  0  0  0  0  0999 V2000
  188.2910  177.4010  147.1470 C   0  0  2  0  0  3  0  0  0  0  0  0
  188.9560  178.1950  142.1520 C   0  0  0  0  0  0  0  0  0  0  0  0
  186.0510  178.9030  140.0270 N   0  0  0  0  0  2  0  0  0  0  0  0
  189.2430  177.1770  144.7930 C   0  0  2  0  0  3  0  0  0  0  0  0
  187.0340  178.1140  146.6690 C   0  0  0  0  0  2  0  0  0  0  0  0
  188.6350  177.8810  148.5420 C   0  0  0  0  0  1  0  0  0  0  0  0
  187.9000  177.6400  144.2530 C   0  0  0  0  0  0  0  0  0  0  0  0
  189.4570  177.7090  146.2120 C   0  0  0  0  0  2  0  0  0  0  0  0
  186.4090  177.2750  145.1840 S   0  0  0  0  0  0  0  0  0  0  0  0
  186.6440  178.4220  142.2930 N   0  0  0  0  0  0  0  0  0  0  0  0
  187.8260  178.1510  143.0260 C   0  0  0  0  0  0  0  0  0  0  0  0
  190.1500  177.8600  142.5250 N   0  0  0  0  0  0  0  0  0  0  0  0
  188.4780  178.4650  140.7750 C   0  0  2  0  0  3  0  0  0  0  0  0
  186.9990  178.6080  141.0550 C   0  0  0  0  0  0  0  0  0  0  0  0
  190.4570  177.6400  143.9440 C   0  0  0  0  0  2  0  0  0  0  0  0
  184.6200  179.0000  140.2800 C   0  0  2  0  0  3  0  0  0  0  0  0
  184.3370  178.9900  141.7740 C   0  0  0  0  0  1  0  0  0  0  0  0
  183.8700  177.8780  139.5660 C   0  0  0  0  0  2  0  0  0  0  0  0
  183.0590  178.3760  138.3680 C   0  0  2  0  0  3  0  0  0  0  0  0
  181.5430  178.2360  138.5250 C   0  0  1  0  0  0  0  0  0  0  0  0
  182.3380  177.1970  137.7330 C   0  0  1  0  0  3  0  0  0  0  0  0
  182.2290  177.4070  136.3560 O   0  0  0  0  0  1  0  0  0  0  0  0
  180.5070  178.9590  140.7250 N   0  0  0  0  0  2  0  0  0  0  0  0
  180.1290  176.6930  139.9620 N   0  0  0  0  0  2  0  0  0  0  0  0
  181.0420  177.8430  139.9380 C   0  0  2  0  0  0  0  0  0  0  0  0
  179.6280  178.0690  139.9600 C   0  0  2  0  0  3  0  0  0  0  0  0
  180.8020  179.3200  137.7390 C   0  0  0  0  0  2  0  0  0  0  0  0
  181.1020  180.5790  138.2670 O   0  0  0  0  0  0  0  0  0  0  0  0
  180.0080  181.3800  137.9360 C   0  0  1  0  0  3  0  0  0  0  0  0
  179.9830  183.3730  134.9840 N   0  0  0  0  0  1  0  0  0  0  0  0
  180.8860  183.4950  137.1850 N   0  0  0  0  0  2  0  0  0  0  0  0
  180.6860  182.6380  136.0210 C   0  0  1  0  0  3  0  0  0  0  0  0
  180.2960  182.8110  138.3290 C   0  0  0  0  0  2  0  0  0  0  0  0
  179.8690  181.4370  136.4390 C   0  0  0  0  0  2  0  0  0  0  0  0
  188.7000  177.2980  139.9360 N   0  0  0  0  0  2  0  0  0  0  0  0
  189.8490  177.5970  139.1000 C   0  0  0  0  0  2  0  0  0  0  0  0
  188.2050  176.7120  137.4480 C   0  0  0  0  0  2  0  0  0  0  0  0
  187.2010  177.6270  136.8560 C   0  0  0  0  0  0  0  0  0  0  0  0
  189.0390  178.9930  137.2130 C   0  0  0  0  0  2  0  0  0  0  0  0
  189.4400  177.5850  137.6400 C   0  0  1  0  0  3  0  0  0  0  0  0
  187.6440  178.8640  136.7230 C   0  0  0  0  0  3  0  0  0  0  0  0
  185.6160  176.5730  135.3070 C   0  0  0  0  0  2  0  0  0  0  0  0
  185.8580  177.1760  136.4660 C   0  0  0  0  0  3  0  0  0  0  0  0
  1  6  1  1  0  0  0
  2 12  2  0  0  0  0
  2 11  1  0  0  0  0
  3 16  1  0  0  0  0
  3 14  1  0  0  0  0
  4 15  1  6  0  0  0
  4  8  1  0  0  0  0
  5  1  1  0  0  0  0
  7  4  1  0  0  0  0
  7  9  1  0  0  0  0
  8  1  1  0  0  0  0
  9  5  1  0  0  0  0
 10 11  1  0  0  0  0
 11  7  2  0  0  0  0
 12 15  1  0  0  0  0
 13 35  1  6  0  0  0
 13 14  1  0  0  0  0
 13  2  1  0  0  0  0
 14 10  2  0  0  0  0
 16 17  1  1  0  0  0
 18 16  1  0  0  0  0
 19 20  1  0  0  0  0
 19 18  1  1  0  0  0
 20 27  1  6  0  0  0
 20 25  1  0  0  0  0
 21 22  1  6  0  0  0
 21 19  1  0  0  0  0
 21 20  1  0  0  0  0
 25 26  1  0  0  0  0
 25 24  1  1  0  0  0
 25 23  1  0  0  0  0
 26 24  1  1  0  0  0
 26 23  1  0  0  0  0
 27 28  1  0  0  0  0
 29 28  1  6  0  0  0
 29 33  1  0  0  0  0
 31 33  1  0  0  0  0
 32 30  1  6  0  0  0
 32 34  1  0  0  0  0
 32 31  1  0  0  0  0
 34 29  1  0  0  0  0
 36 35  1  0  0  0  0
 37 40  1  0  0  0  0
 38 37  1  0  0  0  0
 39 40  1  0  0  0  0
 40 36  1  1  0  0  0
 41 38  2  0  0  0  0
 41 39  1  0  0  0  0
 42 43  2  0  0  0  0
 43 38  1  0  0  0  0
M  END
>  <MODEL>
9

>  <REMARK>
 VINA RESULT:      -7.6      4.460      9.379
  Name = 
  11 active torsions:
  status: ('A' for Active; 'I' for Inactive)
    1  A    between atoms: N_1  and  C_32
    2  A    between atoms: N_1  and  C_34
    3  A    between atoms: C_2  and  C_6
    4  A    between atoms: C_2  and  N_13
    5  A    between atoms: C_3  and  C_6
    6  A    between atoms: C_4  and  C_22
    7  A    between atoms: C_4  and  C_41
    8  A    between atoms: C_11  and  O_14
    9  A    between atoms: O_14  and  C_41
   10  A    between atoms: C_19  and  C_37
   11  A    between atoms: C_32  and  C_35
                            x       y       z     vdW  Elec       q    Type
                         _______ _______ _______ _____ _____    ______ ____

>  <TORSDO>
F 11

$$$$
