=
 OpenBabel10262422473D

 37 42  0  0  1  0  0  0  0  0999 V2000
  188.4430  177.0530  141.1170 C   0  0  0  0  0  2  0  0  0  0  0  0
  186.7000  178.6150  145.4400 C   0  0  1  0  0  3  0  0  0  0  0  0
  189.5860  176.3400  140.3690 C   0  0  2  0  0  3  0  0  0  0  0  0
  190.2060  178.4530  144.9010 C   0  0  0  0  0  3  0  0  0  0  0  0
  185.3180  177.8490  143.5960 O   0  0  0  0  0  0  0  0  0  0  0  0
  187.7610  177.8220  144.6700 C   0  0  2  0  0  3  0  0  0  0  0  0
  185.4530  178.8500  144.5860 C   0  0  1  0  0  3  0  0  0  0  0  0
  189.1050  177.8370  145.3830 C   0  0  0  0  0  0  0  0  0  0  0  0
  184.2750  178.7700  145.5400 C   0  0  0  0  0  2  0  0  0  0  0  0
  190.8510  176.1530  141.2240 C   0  0  0  0  0  2  0  0  0  0  0  0
  186.3170  178.0280  142.6030 C   0  0  2  0  0  3  0  0  0  0  0  0
  187.0080  178.1270  147.9240 C   0  0  0  0  0  2  0  0  0  0  0  0
  184.7670  178.1270  146.8250 C   0  0  0  0  0  2  0  0  0  0  0  0
  191.2330  177.3950  142.0470 C   0  0  2  0  0  3  0  0  0  0  0  0
  190.2910  179.1800  143.5920 C   0  0  0  0  0  2  0  0  0  0  0  0
  186.2350  177.8080  146.6400 C   0  0  1  0  0  3  0  0  0  0  0  0
  187.7510  178.1960  143.1820 C   0  0  2  0  0  3  0  0  0  0  0  0
  189.1220  177.2450  146.7770 C   0  0  2  0  0  3  0  0  0  0  0  0
  190.0240  178.2790  142.3740 C   0  0  2  0  0  3  0  0  0  0  0  0
  188.8140  177.4470  142.4840 N   0  0  2  0  0  0  0  0  0  0  0  0
  188.5310  178.2450  147.7710 C   0  0  0  0  0  2  0  0  0  0  0  0
  191.0360  175.6400  146.5520 C   0  0  0  0  0  3  0  0  0  0  0  0
  190.4680  176.7320  147.2180 C   0  0  0  0  0  0  0  0  0  0  0  0
  191.1790  177.3550  148.2580 C   0  0  0  0  0  3  0  0  0  0  0  0
  193.1120  177.4790  149.6410 F   0  0  0  0  0  0  0  0  0  0  0  0
  192.9940  175.7800  147.9700 C   0  0  0  0  0  3  0  0  0  0  0  0
  192.4370  176.8790  148.6330 C   0  0  0  0  0  0  0  0  0  0  0  0
  192.2960  175.1620  146.9300 C   0  0  0  0  0  3  0  0  0  0  0  0
  192.3630  178.1870  141.3970 C   0  0  0  0  0  2  0  0  0  0  0  0
  192.9510  177.4630  140.3560 O   0  0  0  0  0  1  0  0  0  0  0  0
  190.4360  176.0880  138.3400 C   0  0  0  0  0  1  0  0  0  0  0  0
  189.8940  177.0410  139.2030 O   0  0  0  0  0  0  0  0  0  0  0  0
  185.9780  179.1820  141.6610 C   0  0  0  0  0  2  0  0  0  0  0  0
  184.5440  179.0670  141.1580 C   0  0  0  0  0  2  0  0  0  0  0  0
  184.4680  179.0350  139.6350 C   0  0  2  0  0  3  0  0  0  0  0  0
  185.7470  178.4800  139.0330 C   0  0  0  0  0  1  0  0  0  0  0  0
  184.2010  180.3060  139.1200 O   0  0  0  0  0  1  0  0  0  0  0  0
  1 20  1  0  0  0  0
  2 16  1  0  0  0  0
  3  1  1  0  0  0  0
  3 10  1  0  0  0  0
  4  8  2  0  0  0  0
  5  7  1  0  0  0  0
  6  8  1  0  0  0  0
  6  2  1  0  0  0  0
  7  2  1  0  0  0  0
  7  9  1  0  0  0  0
  8 18  1  0  0  0  0
  9 13  1  0  0  0  0
 10 14  1  0  0  0  0
 11 17  1  0  0  0  0
 11  5  1  0  0  0  0
 14 19  1  0  0  0  0
 15  4  1  0  0  0  0
 16 13  1  0  0  0  0
 16 12  1  0  0  0  0
 17  6  1  0  0  0  0
 18 23  1  0  0  0  0
 18 21  1  0  0  0  0
 19 20  1  0  0  0  0
 19 15  1  0  0  0  0
 20 17  1  0  0  0  0
 21 12  1  0  0  0  0
 22 28  2  0  0  0  0
 22 23  1  0  0  0  0
 23 24  2  0  0  0  0
 24 27  1  0  0  0  0
 26 27  2  0  0  0  0
 27 25  1  0  0  0  0
 28 26  1  0  0  0  0
 29 14  1  0  0  0  0
 30 29  1  0  0  0  0
 31 32  1  0  0  0  0
 32  3  1  0  0  0  0
 33 11  1  0  0  0  0
 34 33  1  0  0  0  0
 35 34  1  0  0  0  0
 36 35  1  0  0  0  0
 37 35  1  0  0  0  0
M  END
>  <MODEL>
1

>  <REMARK>
 VINA RESULT:      -7.8      0.000      0.000
  Name = 
  6 active torsions:
  status: ('A' for Active; 'I' for Inactive)
    1  A    between atoms: C_3  and  C_21
    2  A    between atoms: C_5  and  O_23
    3  A    between atoms: C_6  and  C_31
    4  A    between atoms: C_11  and  C_26
    5  A    between atoms: C_20  and  C_25
    6  A    between atoms: C_21  and  C_25
                            x       y       z     vdW  Elec       q    Type
                         _______ _______ _______ _____ _____    ______ ____

>  <TORSDO>
F 6

$$$$
=
 OpenBabel10262422473D

 37 42  0  0  1  0  0  0  0  0999 V2000
  182.7790  176.7450  138.0020 C   0  0  0  0  0  2  0  0  0  0  0  0
  181.9550  178.9930  142.2950 C   0  0  1  0  0  3  0  0  0  0  0  0
  183.7940  176.0090  137.1050 C   0  0  2  0  0  3  0  0  0  0  0  0
  185.1970  179.0750  140.8500 C   0  0  0  0  0  3  0  0  0  0  0  0
  180.2890  177.7250  141.0660 O   0  0  0  0  0  0  0  0  0  0  0  0
  182.8980  178.1670  141.4140 C   0  0  2  0  0  3  0  0  0  0  0  0
  180.5130  178.9190  141.7890 C   0  0  1  0  0  3  0  0  0  0  0  0
  184.3590  178.4660  141.7160 C   0  0  0  0  0  0  0  0  0  0  0  0
  179.6370  178.9220  143.0290 C   0  0  0  0  0  2  0  0  0  0  0  0
  185.2460  176.1330  137.5980 C   0  0  0  0  0  2  0  0  0  0  0  0
  180.9690  177.7910  139.8200 C   0  0  2  0  0  3  0  0  0  0  0  0
  182.9440  179.0690  144.6440 C   0  0  0  0  0  2  0  0  0  0  0  0
  180.5270  178.6150  144.2210 C   0  0  0  0  0  2  0  0  0  0  0  0
  185.6280  177.5520  138.0550 C   0  0  2  0  0  3  0  0  0  0  0  0
  184.8410  179.5160  139.4610 C   0  0  0  0  0  2  0  0  0  0  0  0
  181.9330  178.4130  143.6980 C   0  0  1  0  0  3  0  0  0  0  0  0
  182.4590  178.2190  139.9440 C   0  0  2  0  0  3  0  0  0  0  0  0
  184.8140  178.1830  143.1330 C   0  0  2  0  0  3  0  0  0  0  0  0
  184.4180  178.3580  138.5410 C   0  0  2  0  0  3  0  0  0  0  0  0
  183.4160  177.4510  139.1240 N   0  0  2  0  0  0  0  0  0  0  0  0
  184.3450  179.3040  144.0600 C   0  0  0  0  0  2  0  0  0  0  0  0
  186.7930  177.4800  144.5010 C   0  0  0  0  0  3  0  0  0  0  0  0
  186.2880  177.9110  143.2690 C   0  0  0  0  0  0  0  0  0  0  0  0
  187.1580  178.0460  142.1730 C   0  0  0  0  0  3  0  0  0  0  0  0
  189.3510  177.9050  141.2590 F   0  0  0  0  0  0  0  0  0  0  0  0
  189.0180  177.3440  143.5540 C   0  0  0  0  0  3  0  0  0  0  0  0
  188.5180  177.7650  142.3170 C   0  0  0  0  0  0  0  0  0  0  0  0
  188.1580  177.1990  144.6440 C   0  0  0  0  0  3  0  0  0  0  0  0
  186.4250  178.2990  136.9900 C   0  0  0  0  0  2  0  0  0  0  0  0
  187.5810  178.8670  137.5330 O   0  0  0  0  0  1  0  0  0  0  0  0
  182.4130  177.0330  135.7090 C   0  0  0  0  0  1  0  0  0  0  0  0
  183.6900  176.4780  135.7960 O   0  0  0  0  0  0  0  0  0  0  0  0
  180.2340  178.6830  138.8210 C   0  0  0  0  0  2  0  0  0  0  0  0
  181.0840  179.8910  138.4460 C   0  0  0  0  0  2  0  0  0  0  0  0
  180.2810  181.1870  138.4570 C   0  0  2  0  0  3  0  0  0  0  0  0
  181.0810  182.3350  137.8660 C   0  0  0  0  0  1  0  0  0  0  0  0
  179.8620  181.5050  139.7510 O   0  0  0  0  0  1  0  0  0  0  0  0
  1 20  1  0  0  0  0
  2 16  1  0  0  0  0
  3 10  1  0  0  0  0
  3  1  1  0  0  0  0
  4  8  2  0  0  0  0
  5  7  1  0  0  0  0
  6  8  1  0  0  0  0
  6  2  1  0  0  0  0
  7  2  1  0  0  0  0
  7  9  1  0  0  0  0
  8 18  1  0  0  0  0
  9 13  1  0  0  0  0
 10 14  1  0  0  0  0
 11 17  1  0  0  0  0
 11  5  1  0  0  0  0
 14 19  1  0  0  0  0
 15  4  1  0  0  0  0
 16 13  1  0  0  0  0
 16 12  1  0  0  0  0
 17  6  1  0  0  0  0
 18 23  1  0  0  0  0
 18 21  1  0  0  0  0
 19 20  1  0  0  0  0
 19 15  1  0  0  0  0
 20 17  1  0  0  0  0
 21 12  1  0  0  0  0
 22 28  1  0  0  0  0
 23 22  2  0  0  0  0
 24 27  2  0  0  0  0
 24 23  1  0  0  0  0
 25 27  1  0  0  0  0
 26 28  2  0  0  0  0
 27 26  1  0  0  0  0
 29 30  1  0  0  0  0
 29 14  1  0  0  0  0
 31 32  1  0  0  0  0
 32  3  1  0  0  0  0
 33 11  1  0  0  0  0
 34 35  1  0  0  0  0
 34 33  1  0  0  0  0
 35 37  1  0  0  0  0
 36 35  1  0  0  0  0
M  END
>  <MODEL>
2

>  <REMARK>
 VINA RESULT:      -7.8      3.683      6.255
  Name = 
  6 active torsions:
  status: ('A' for Active; 'I' for Inactive)
    1  A    between atoms: C_3  and  C_21
    2  A    between atoms: C_5  and  O_23
    3  A    between atoms: C_6  and  C_31
    4  A    between atoms: C_11  and  C_26
    5  A    between atoms: C_20  and  C_25
    6  A    between atoms: C_21  and  C_25
                            x       y       z     vdW  Elec       q    Type
                         _______ _______ _______ _____ _____    ______ ____

>  <TORSDO>
F 6

$$$$
=
 OpenBabel10262422473D

 37 42  0  0  1  0  0  0  0  0999 V2000
  185.6950  177.4500  138.3320 C   0  0  0  0  0  2  0  0  0  0  0  0
  184.9490  178.9690  142.9470 C   0  0  1  0  0  3  0  0  0  0  0  0
  186.6220  176.7010  137.3550 C   0  0  2  0  0  3  0  0  0  0  0  0
  188.2590  178.6410  141.7070 C   0  0  0  0  0  3  0  0  0  0  0  0
  183.1820  178.3340  141.4070 O   0  0  0  0  0  0  0  0  0  0  0  0
  185.7860  178.1460  141.9630 C   0  0  2  0  0  3  0  0  0  0  0  0
  183.5710  179.2950  142.3680 C   0  0  1  0  0  3  0  0  0  0  0  0
  187.2440  178.0690  142.3900 C   0  0  0  0  0  0  0  0  0  0  0  0
  182.6060  179.2480  143.5380 C   0  0  0  0  0  2  0  0  0  0  0  0
  188.0200  176.4220  137.9320 C   0  0  0  0  0  2  0  0  0  0  0  0
  183.9700  178.4900  140.2350 C   0  0  2  0  0  3  0  0  0  0  0  0
  185.7200  178.3910  145.3080 C   0  0  0  0  0  2  0  0  0  0  0  0
  183.3080  178.5420  144.6850 C   0  0  0  0  0  2  0  0  0  0  0  0
  188.6300  177.6180  138.6850 C   0  0  2  0  0  3  0  0  0  0  0  0
  188.1220  179.4010  140.4220 C   0  0  0  0  0  2  0  0  0  0  0  0
  184.6880  178.1520  144.2000 C   0  0  1  0  0  3  0  0  0  0  0  0
  185.4980  178.5650  140.5150 C   0  0  2  0  0  3  0  0  0  0  0  0
  187.5070  177.4340  143.7400 C   0  0  2  0  0  3  0  0  0  0  0  0
  187.5640  178.5530  139.2660 C   0  0  2  0  0  3  0  0  0  0  0  0
  186.3560  177.7820  139.6030 N   0  0  2  0  0  0  0  0  0  0  0  0
  187.1860  178.4340  144.8520 C   0  0  0  0  0  2  0  0  0  0  0  0
  189.3040  175.8560  142.9870 C   0  0  0  0  0  3  0  0  0  0  0  0
  188.8820  176.8390  143.8900 C   0  0  0  0  0  0  0  0  0  0  0  0
  189.7610  177.2810  144.8940 C   0  0  0  0  0  3  0  0  0  0  0  0
  191.8790  177.1570  145.9720 F   0  0  0  0  0  0  0  0  0  0  0  0
  191.4530  175.7430  144.0990 C   0  0  0  0  0  3  0  0  0  0  0  0
  191.0410  176.7320  144.9980 C   0  0  0  0  0  0  0  0  0  0  0  0
  190.5870  175.3060  143.0940 C   0  0  0  0  0  3  0  0  0  0  0  0
  189.6500  178.3680  137.8350 C   0  0  0  0  0  2  0  0  0  0  0  0
  189.0800  179.4990  137.2450 O   0  0  0  0  0  1  0  0  0  0  0  0
  187.4470  176.5900  135.3020 C   0  0  0  0  0  1  0  0  0  0  0  0
  186.7290  177.4200  136.1640 O   0  0  0  0  0  0  0  0  0  0  0  0
  183.5160  179.6890  139.4040 C   0  0  0  0  0  2  0  0  0  0  0  0
  182.3640  179.3040  138.4830 C   0  0  0  0  0  2  0  0  0  0  0  0
  181.4130  180.4690  138.2310 C   0  0  2  0  0  3  0  0  0  0  0  0
  180.8790  180.4450  136.8090 C   0  0  0  0  0  1  0  0  0  0  0  0
  182.0380  181.6900  138.4930 O   0  0  0  0  0  1  0  0  0  0  0  0
  1 20  1  0  0  0  0
  2 16  1  0  0  0  0
  3 10  1  0  0  0  0
  3  1  1  0  0  0  0
  4  8  2  0  0  0  0
  5  7  1  0  0  0  0
  6  8  1  0  0  0  0
  6  2  1  0  0  0  0
  7  2  1  0  0  0  0
  7  9  1  0  0  0  0
  8 18  1  0  0  0  0
  9 13  1  0  0  0  0
 10 14  1  0  0  0  0
 11 17  1  0  0  0  0
 11  5  1  0  0  0  0
 14 19  1  0  0  0  0
 15  4  1  0  0  0  0
 16 13  1  0  0  0  0
 16 12  1  0  0  0  0
 17  6  1  0  0  0  0
 18 23  1  0  0  0  0
 18 21  1  0  0  0  0
 19 20  1  0  0  0  0
 19 15  1  0  0  0  0
 20 17  1  0  0  0  0
 21 12  1  0  0  0  0
 22 28  2  0  0  0  0
 22 23  1  0  0  0  0
 23 24  2  0  0  0  0
 24 27  1  0  0  0  0
 26 27  2  0  0  0  0
 27 25  1  0  0  0  0
 28 26  1  0  0  0  0
 29 14  1  0  0  0  0
 30 29  1  0  0  0  0
 31 32  1  0  0  0  0
 32  3  1  0  0  0  0
 33 11  1  0  0  0  0
 34 33  1  0  0  0  0
 35 34  1  0  0  0  0
 35 37  1  0  0  0  0
 36 35  1  0  0  0  0
M  END
>  <MODEL>
3

>  <REMARK>
 VINA RESULT:      -7.2      2.500      3.780
  Name = 
  6 active torsions:
  status: ('A' for Active; 'I' for Inactive)
    1  A    between atoms: C_3  and  C_21
    2  A    between atoms: C_5  and  O_23
    3  A    between atoms: C_6  and  C_31
    4  A    between atoms: C_11  and  C_26
    5  A    between atoms: C_20  and  C_25
    6  A    between atoms: C_21  and  C_25
                            x       y       z     vdW  Elec       q    Type
                         _______ _______ _______ _____ _____    ______ ____

>  <TORSDO>
F 6

$$$$
=
 OpenBabel10262422473D

 37 42  0  0  1  0  0  0  0  0999 V2000
  190.1240  176.2210  141.4240 C   0  0  0  0  0  2  0  0  0  0  0  0
  186.8320  178.2530  138.3910 C   0  0  1  0  0  3  0  0  0  0  0  0
  190.4590  175.8010  142.8690 C   0  0  2  0  0  3  0  0  0  0  0  0
  186.9700  179.2720  141.7900 C   0  0  0  0  0  3  0  0  0  0  0  0
  188.3840  176.4960  137.7580 O   0  0  0  0  0  0  0  0  0  0  0  0
  187.1660  177.7250  139.7900 C   0  0  2  0  0  3  0  0  0  0  0  0
  187.8170  177.7240  137.3470 C   0  0  1  0  0  3  0  0  0  0  0  0
  186.3950  178.4660  140.8720 C   0  0  0  0  0  0  0  0  0  0  0  0
  187.0050  177.5020  136.0840 C   0  0  0  0  0  2  0  0  0  0  0  0
  189.4890  176.3780  143.9130 C   0  0  0  0  0  2  0  0  0  0  0  0
  189.2840  176.7250  138.8320 C   0  0  2  0  0  3  0  0  0  0  0  0
  184.3240  178.7060  138.3040 C   0  0  0  0  0  2  0  0  0  0  0  0
  185.5370  177.5210  136.4730 C   0  0  0  0  0  2  0  0  0  0  0  0
  189.1440  177.8600  143.6870 C   0  0  2  0  0  3  0  0  0  0  0  0
  188.4410  179.5370  141.9120 C   0  0  0  0  0  2  0  0  0  0  0  0
  185.4660  177.7410  137.9680 C   0  0  1  0  0  3  0  0  0  0  0  0
  188.6840  177.5910  139.9760 C   0  0  2  0  0  3  0  0  0  0  0  0
  184.8840  178.3820  140.7830 C   0  0  2  0  0  3  0  0  0  0  0  0
  189.2670  178.2750  142.2160 C   0  0  2  0  0  3  0  0  0  0  0  0
  188.9660  177.1250  141.3480 N   0  0  2  0  0  0  0  0  0  0  0  0
  184.3770  179.3370  139.7030 C   0  0  0  0  0  2  0  0  0  0  0  0
  182.7980  178.8400  142.0960 C   0  0  0  0  0  3  0  0  0  0  0  0
  184.1730  178.5790  142.0960 C   0  0  0  0  0  0  0  0  0  0  0  0
  184.8570  178.4670  143.3190 C   0  0  0  0  0  3  0  0  0  0  0  0
  184.8380  178.5260  145.6980 F   0  0  0  0  0  0  0  0  0  0  0  0
  182.7990  178.8990  144.5170 C   0  0  0  0  0  3  0  0  0  0  0  0
  184.1710  178.6280  144.5240 C   0  0  0  0  0  0  0  0  0  0  0  0
  182.1120  179.0030  143.3060 C   0  0  0  0  0  3  0  0  0  0  0  0
  189.9370  178.7790  144.6110 C   0  0  0  0  0  2  0  0  0  0  0  0
  191.0810  179.2670  143.9740 O   0  0  0  0  0  1  0  0  0  0  0  0
  192.0560  175.5330  144.3800 C   0  0  0  0  0  1  0  0  0  0  0  0
  191.7690  176.1710  143.1730 O   0  0  0  0  0  0  0  0  0  0  0  0
  190.6060  177.3160  138.3460 C   0  0  0  0  0  2  0  0  0  0  0  0
  191.4750  176.2420  137.7020 C   0  0  0  0  0  2  0  0  0  0  0  0
  192.9110  176.2800  138.2130 C   0  0  2  0  0  3  0  0  0  0  0  0
  193.0270  177.1280  139.4670 C   0  0  0  0  0  1  0  0  0  0  0  0
  193.7810  176.7530  137.2270 O   0  0  0  0  0  1  0  0  0  0  0  0
  1  3  1  0  0  0  0
  2  6  1  0  0  0  0
  3 32  1  0  0  0  0
  3 10  1  0  0  0  0
  4 15  1  0  0  0  0
  5 11  1  0  0  0  0
  6 17  1  0  0  0  0
  6  8  1  0  0  0  0
  7  5  1  0  0  0  0
  7  2  1  0  0  0  0
  8  4  2  0  0  0  0
  9 13  1  0  0  0  0
  9  7  1  0  0  0  0
 11 17  1  0  0  0  0
 12 21  1  0  0  0  0
 13 16  1  0  0  0  0
 14 10  1  0  0  0  0
 14 29  1  0  0  0  0
 15 19  1  0  0  0  0
 16 12  1  0  0  0  0
 16  2  1  0  0  0  0
 17 20  1  0  0  0  0
 18  8  1  0  0  0  0
 18 23  1  0  0  0  0
 19 14  1  0  0  0  0
 20  1  1  0  0  0  0
 20 19  1  0  0  0  0
 21 18  1  0  0  0  0
 22 23  2  0  0  0  0
 22 28  1  0  0  0  0
 23 24  1  0  0  0  0
 24 27  2  0  0  0  0
 26 27  1  0  0  0  0
 27 25  1  0  0  0  0
 28 26  2  0  0  0  0
 30 29  1  0  0  0  0
 32 31  1  0  0  0  0
 33 11  1  0  0  0  0
 34 35  1  0  0  0  0
 34 33  1  0  0  0  0
 35 36  1  0  0  0  0
 37 35  1  0  0  0  0
M  END
>  <MODEL>
4

>  <REMARK>
 VINA RESULT:      -6.9      3.032      7.218
  Name = 
  6 active torsions:
  status: ('A' for Active; 'I' for Inactive)
    1  A    between atoms: C_3  and  C_21
    2  A    between atoms: C_5  and  O_23
    3  A    between atoms: C_6  and  C_31
    4  A    between atoms: C_11  and  C_26
    5  A    between atoms: C_20  and  C_25
    6  A    between atoms: C_21  and  C_25
                            x       y       z     vdW  Elec       q    Type
                         _______ _______ _______ _____ _____    ______ ____

>  <TORSDO>
F 6

$$$$
=
 OpenBabel10262422473D

 37 42  0  0  1  0  0  0  0  0999 V2000
  191.5430  177.7860  143.2050 C   0  0  0  0  0  2  0  0  0  0  0  0
  187.9550  177.4550  146.5490 C   0  0  1  0  0  3  0  0  0  0  0  0
  191.9150  178.0750  141.7370 C   0  0  2  0  0  3  0  0  0  0  0  0
  187.2730  176.7130  143.1440 C   0  0  0  0  0  3  0  0  0  0  0  0
  190.2220  178.1770  147.0320 O   0  0  0  0  0  0  0  0  0  0  0  0
  188.3840  177.8350  145.1280 C   0  0  2  0  0  3  0  0  0  0  0  0
  189.1590  177.3630  147.4880 C   0  0  1  0  0  3  0  0  0  0  0  0
  187.2560  177.6390  144.1270 C   0  0  0  0  0  0  0  0  0  0  0  0
  188.6780  177.8780  148.8320 C   0  0  0  0  0  2  0  0  0  0  0  0
  190.7000  178.1170  140.7960 C   0  0  0  0  0  2  0  0  0  0  0  0
  190.7930  177.6010  145.8660 C   0  0  2  0  0  3  0  0  0  0  0  0
  185.5710  178.2910  146.8980 C   0  0  0  0  0  2  0  0  0  0  0  0
  187.3670  178.6090  148.6020 C   0  0  0  0  0  2  0  0  0  0  0  0
  189.6860  176.9860  141.0410 C   0  0  2  0  0  3  0  0  0  0  0  0
  188.4020  175.7660  142.8630 C   0  0  0  0  0  2  0  0  0  0  0  0
  187.0660  178.5450  147.1200 C   0  0  1  0  0  3  0  0  0  0  0  0
  189.7450  177.2160  144.7830 C   0  0  2  0  0  3  0  0  0  0  0  0
  186.0000  178.4500  144.3760 C   0  0  2  0  0  3  0  0  0  0  0  0
  189.7150  176.4740  142.4860 C   0  0  2  0  0  3  0  0  0  0  0  0
  190.1010  177.5670  143.3940 N   0  0  2  0  0  0  0  0  0  0  0  0
  185.1820  177.8030  145.4940 C   0  0  0  0  0  2  0  0  0  0  0  0
  185.8190  179.0030  141.9380 C   0  0  0  0  0  3  0  0  0  0  0  0
  185.1740  178.7110  143.1450 C   0  0  0  0  0  0  0  0  0  0  0  0
  183.7710  178.6280  143.1780 C   0  0  0  0  0  3  0  0  0  0  0  0
  181.6750  178.7750  142.0600 F   0  0  0  0  0  0  0  0  0  0  0  0
  183.6770  179.1510  140.8170 C   0  0  0  0  0  3  0  0  0  0  0  0
  183.0260  178.8490  142.0180 C   0  0  0  0  0  0  0  0  0  0  0  0
  185.0700  179.2260  140.7760 C   0  0  0  0  0  3  0  0  0  0  0  0
  189.8350  175.8540  140.0290 C   0  0  0  0  0  2  0  0  0  0  0  0
  190.0510  176.3550  138.7420 O   0  0  0  0  0  1  0  0  0  0  0  0
  193.1380  177.5030  139.9820 C   0  0  0  0  0  1  0  0  0  0  0  0
  192.8370  177.1280  141.2910 O   0  0  0  0  0  0  0  0  0  0  0  0
  191.6840  176.4070  146.2020 C   0  0  0  0  0  2  0  0  0  0  0  0
  191.3990  175.8970  147.6100 C   0  0  0  0  0  2  0  0  0  0  0  0
  192.6490  175.8790  148.4810 C   0  0  2  0  0  3  0  0  0  0  0  0
  192.8050  177.1820  149.2460 C   0  0  0  0  0  1  0  0  0  0  0  0
  193.7900  175.6280  147.7150 O   0  0  0  0  0  1  0  0  0  0  0  0
  1 20  1  0  0  0  0
  2 16  1  0  0  0  0
  2  7  1  0  0  0  0
  3  1  1  0  0  0  0
  4  8  2  0  0  0  0
  5  7  1  0  0  0  0
  6  2  1  0  0  0  0
  7  9  1  0  0  0  0
  8 18  1  0  0  0  0
  8  6  1  0  0  0  0
 10 14  1  0  0  0  0
 10  3  1  0  0  0  0
 11 33  1  0  0  0  0
 11  5  1  0  0  0  0
 12 16  1  0  0  0  0
 13  9  1  0  0  0  0
 14 19  1  0  0  0  0
 15  4  1  0  0  0  0
 16 13  1  0  0  0  0
 17  6  1  0  0  0  0
 17 11  1  0  0  0  0
 18 21  1  0  0  0  0
 19 15  1  0  0  0  0
 19 20  1  0  0  0  0
 20 17  1  0  0  0  0
 21 12  1  0  0  0  0
 22 23  1  0  0  0  0
 23 24  2  0  0  0  0
 23 18  1  0  0  0  0
 26 27  2  0  0  0  0
 27 25  1  0  0  0  0
 27 24  1  0  0  0  0
 28 26  1  0  0  0  0
 28 22  2  0  0  0  0
 29 14  1  0  0  0  0
 30 29  1  0  0  0  0
 31 32  1  0  0  0  0
 32  3  1  0  0  0  0
 33 34  1  0  0  0  0
 34 35  1  0  0  0  0
 35 36  1  0  0  0  0
 37 35  1  0  0  0  0
M  END
>  <MODEL>
5

>  <REMARK>
 VINA RESULT:      -6.0      3.005      6.855
  Name = 
  6 active torsions:
  status: ('A' for Active; 'I' for Inactive)
    1  A    between atoms: C_3  and  C_21
    2  A    between atoms: C_5  and  O_23
    3  A    between atoms: C_6  and  C_31
    4  A    between atoms: C_11  and  C_26
    5  A    between atoms: C_20  and  C_25
    6  A    between atoms: C_21  and  C_25
                            x       y       z     vdW  Elec       q    Type
                         _______ _______ _______ _____ _____    ______ ____

>  <TORSDO>
F 6

$$$$
=
 OpenBabel10262422473D

 37 42  0  0  1  0  0  0  0  0999 V2000
  188.2600  177.3310  143.7770 C   0  0  0  0  0  2  0  0  0  0  0  0
  190.9300  177.5040  139.6530 C   0  0  1  0  0  3  0  0  0  0  0  0
  186.8690  177.1170  144.4040 C   0  0  2  0  0  3  0  0  0  0  0  0
  187.5010  178.4220  139.5790 C   0  0  0  0  0  3  0  0  0  0  0  0
  191.7700  176.7510  141.8030 O   0  0  0  0  0  0  0  0  0  0  0  0
  189.5900  177.1960  140.3290 C   0  0  2  0  0  3  0  0  0  0  0  0
  192.0710  177.5430  140.6720 C   0  0  1  0  0  3  0  0  0  0  0  0
  188.4160  177.4460  139.3940 C   0  0  0  0  0  0  0  0  0  0  0  0
  193.2810  176.9620  139.9640 C   0  0  0  0  0  2  0  0  0  0  0  0
  185.7270  177.1270  143.3750 C   0  0  0  0  0  2  0  0  0  0  0  0
  190.7530  177.3830  142.5680 C   0  0  2  0  0  3  0  0  0  0  0  0
  190.8090  176.6600  137.2500 C   0  0  0  0  0  2  0  0  0  0  0  0
  192.7850  176.2490  138.7180 C   0  0  0  0  0  2  0  0  0  0  0  0
  185.8460  178.2480  142.3270 C   0  0  2  0  0  3  0  0  0  0  0  0
  187.4730  179.3780  140.7340 C   0  0  0  0  0  2  0  0  0  0  0  0
  191.2790  176.3890  138.6840 C   0  0  1  0  0  3  0  0  0  0  0  0
  189.5230  177.8270  141.7260 C   0  0  2  0  0  3  0  0  0  0  0  0
  188.3990  176.6280  138.1180 C   0  0  2  0  0  3  0  0  0  0  0  0
  187.2980  178.6850  142.0970 C   0  0  2  0  0  3  0  0  0  0  0  0
  188.2030  177.5460  142.3230 N   0  0  2  0  0  0  0  0  0  0  0  0
  189.3860  177.2200  137.1120 C   0  0  0  0  0  2  0  0  0  0  0  0
  186.2470  177.5560  137.2260 C   0  0  0  0  0  3  0  0  0  0  0  0
  187.0290  176.4340  137.5240 C   0  0  0  0  0  0  0  0  0  0  0  0
  186.5390  175.1500  137.2280 C   0  0  0  0  0  3  0  0  0  0  0  0
  184.8080  173.7550  136.3790 F   0  0  0  0  0  0  0  0  0  0  0  0
  184.4950  176.1200  136.3680 C   0  0  0  0  0  3  0  0  0  0  0  0
  185.2760  174.9950  136.6530 C   0  0  0  0  0  0  0  0  0  0  0  0
  184.9800  177.3980  136.6510 C   0  0  0  0  0  3  0  0  0  0  0  0
  184.9350  179.4290  142.6460 C   0  0  0  0  0  2  0  0  0  0  0  0
  183.8670  179.0370  143.4570 O   0  0  0  0  0  1  0  0  0  0  0  0
  187.2790  177.5970  146.5270 C   0  0  0  0  0  1  0  0  0  0  0  0
  186.6420  178.0820  145.3850 O   0  0  0  0  0  0  0  0  0  0  0  0
  191.3020  178.5550  143.3790 C   0  0  0  0  0  2  0  0  0  0  0  0
  191.9140  178.0690  144.6870 C   0  0  0  0  0  2  0  0  0  0  0  0
  191.2410  176.8010  145.2030 C   0  0  2  0  0  3  0  0  0  0  0  0
  190.8810  176.9290  146.6730 C   0  0  0  0  0  1  0  0  0  0  0  0
  192.0550  175.6840  145.0000 O   0  0  0  0  0  1  0  0  0  0  0  0
  1  3  1  0  0  0  0
  2  6  1  0  0  0  0
  2  7  1  0  0  0  0
  3 32  1  0  0  0  0
  4 15  1  0  0  0  0
  5 11  1  0  0  0  0
  6 17  1  0  0  0  0
  7  5  1  0  0  0  0
  8  4  2  0  0  0  0
  8  6  1  0  0  0  0
  9  7  1  0  0  0  0
 10  3  1  0  0  0  0
 11 33  1  0  0  0  0
 12 16  1  0  0  0  0
 13  9  1  0  0  0  0
 14 29  1  0  0  0  0
 14 10  1  0  0  0  0
 15 19  1  0  0  0  0
 16 13  1  0  0  0  0
 16  2  1  0  0  0  0
 17 20  1  0  0  0  0
 17 11  1  0  0  0  0
 18  8  1  0  0  0  0
 19 20  1  0  0  0  0
 19 14  1  0  0  0  0
 20  1  1  0  0  0  0
 21 12  1  0  0  0  0
 21 18  1  0  0  0  0
 22 23  1  0  0  0  0
 23 18  1  0  0  0  0
 24 23  2  0  0  0  0
 25 27  1  0  0  0  0
 26 28  1  0  0  0  0
 26 27  2  0  0  0  0
 27 24  1  0  0  0  0
 28 22  2  0  0  0  0
 29 30  1  0  0  0  0
 32 31  1  0  0  0  0
 33 34  1  0  0  0  0
 34 35  1  0  0  0  0
 35 36  1  0  0  0  0
 37 35  1  0  0  0  0
M  END
>  <MODEL>
6

>  <REMARK>
 VINA RESULT:      -6.0      3.368      8.887
  Name = 
  6 active torsions:
  status: ('A' for Active; 'I' for Inactive)
    1  A    between atoms: C_3  and  C_21
    2  A    between atoms: C_5  and  O_23
    3  A    between atoms: C_6  and  C_31
    4  A    between atoms: C_11  and  C_26
    5  A    between atoms: C_20  and  C_25
    6  A    between atoms: C_21  and  C_25
                            x       y       z     vdW  Elec       q    Type
                         _______ _______ _______ _____ _____    ______ ____

>  <TORSDO>
F 6

$$$$
=
 OpenBabel10262422473D

 37 42  0  0  1  0  0  0  0  0999 V2000
  187.7610  177.0770  144.0680 C   0  0  0  0  0  2  0  0  0  0  0  0
  188.3240  178.1640  139.3070 C   0  0  1  0  0  3  0  0  0  0  0  0
  186.7760  176.7740  145.2140 C   0  0  2  0  0  3  0  0  0  0  0  0
  185.4060  179.2240  141.0300 C   0  0  0  0  0  3  0  0  0  0  0  0
  189.8980  176.8560  140.6130 O   0  0  0  0  0  0  0  0  0  0  0  0
  187.3910  177.7560  140.4510 C   0  0  2  0  0  3  0  0  0  0  0  0
  189.7880  177.8940  139.6600 C   0  0  1  0  0  3  0  0  0  0  0  0
  185.9800  178.2870  140.2450 C   0  0  0  0  0  0  0  0  0  0  0  0
  190.4530  177.4560  138.3670 C   0  0  0  0  0  2  0  0  0  0  0  0
  185.3140  177.0960  144.8630 C   0  0  0  0  0  2  0  0  0  0  0  0
  189.4370  177.3200  141.8740 C   0  0  2  0  0  3  0  0  0  0  0  0
  187.0230  177.9600  137.1230 C   0  0  0  0  0  2  0  0  0  0  0  0
  189.3530  177.1030  137.3810 C   0  0  0  0  0  2  0  0  0  0  0  0
  185.1320  178.4380  144.1320 C   0  0  2  0  0  3  0  0  0  0  0  0
  186.0410  179.8580  142.2310 C   0  0  0  0  0  2  0  0  0  0  0  0
  188.0290  177.3150  138.0830 C   0  0  1  0  0  3  0  0  0  0  0  0
  188.0480  178.0170  141.8130 C   0  0  2  0  0  3  0  0  0  0  0  0
  185.2720  177.8190  138.9890 C   0  0  2  0  0  3  0  0  0  0  0  0
  186.3810  178.8530  143.3460 C   0  0  2  0  0  3  0  0  0  0  0  0
  187.1020  177.6540  142.8870 N   0  0  2  0  0  0  0  0  0  0  0  0
  185.7920  178.6000  137.7830 C   0  0  0  0  0  2  0  0  0  0  0  0
  183.0710  178.9410  138.5640 C   0  0  0  0  0  3  0  0  0  0  0  0
  183.7690  177.8420  139.0780 C   0  0  0  0  0  0  0  0  0  0  0  0
  183.0550  176.7650  139.6300 C   0  0  0  0  0  3  0  0  0  0  0  0
  180.9800  175.7590  140.2190 F   0  0  0  0  0  0  0  0  0  0  0  0
  180.9690  177.9030  139.1730 C   0  0  0  0  0  3  0  0  0  0  0  0
  181.6600  176.7970  139.6780 C   0  0  0  0  0  0  0  0  0  0  0  0
  181.6720  178.9730  138.6140 C   0  0  0  0  0  3  0  0  0  0  0  0
  184.6530  179.5400  145.0720 C   0  0  0  0  0  2  0  0  0  0  0  0
  184.0620  179.0030  146.2190 O   0  0  0  0  0  1  0  0  0  0  0  0
  188.4870  177.8350  146.1350 C   0  0  0  0  0  1  0  0  0  0  0  0
  187.1600  177.4710  146.3600 O   0  0  0  0  0  0  0  0  0  0  0  0
  190.4630  178.2230  142.5540 C   0  0  0  0  0  2  0  0  0  0  0  0
  191.6850  177.4230  142.9910 C   0  0  0  0  0  2  0  0  0  0  0  0
  191.3640  176.4560  144.1260 C   0  0  2  0  0  3  0  0  0  0  0  0
  191.6810  177.0720  145.4780 C   0  0  0  0  0  1  0  0  0  0  0  0
  192.0560  175.2530  143.9690 O   0  0  0  0  0  1  0  0  0  0  0  0
  1  3  1  0  0  0  0
  2  7  1  0  0  0  0
  2  6  1  0  0  0  0
  3 32  1  0  0  0  0
  4 15  1  0  0  0  0
  5 11  1  0  0  0  0
  6 17  1  0  0  0  0
  7  5  1  0  0  0  0
  8  6  1  0  0  0  0
  8  4  2  0  0  0  0
  9  7  1  0  0  0  0
 10  3  1  0  0  0  0
 11 33  1  0  0  0  0
 12 21  1  0  0  0  0
 12 16  1  0  0  0  0
 13 16  1  0  0  0  0
 13  9  1  0  0  0  0
 14 10  1  0  0  0  0
 14 29  1  0  0  0  0
 15 19  1  0  0  0  0
 16  2  1  0  0  0  0
 17 11  1  0  0  0  0
 17 20  1  0  0  0  0
 18 23  1  0  0  0  0
 18  8  1  0  0  0  0
 19 14  1  0  0  0  0
 20 19  1  0  0  0  0
 20  1  1  0  0  0  0
 21 18  1  0  0  0  0
 22 28  2  0  0  0  0
 22 23  1  0  0  0  0
 23 24  2  0  0  0  0
 24 27  1  0  0  0  0
 26 27  2  0  0  0  0
 27 25  1  0  0  0  0
 28 26  1  0  0  0  0
 29 30  1  0  0  0  0
 31 32  1  0  0  0  0
 33 34  1  0  0  0  0
 34 35  1  0  0  0  0
 35 36  1  0  0  0  0
 37 35  1  0  0  0  0
M  END
>  <MODEL>
7

>  <REMARK>
 VINA RESULT:      -5.9      3.315      8.816
  Name = 
  6 active torsions:
  status: ('A' for Active; 'I' for Inactive)
    1  A    between atoms: C_3  and  C_21
    2  A    between atoms: C_5  and  O_23
    3  A    between atoms: C_6  and  C_31
    4  A    between atoms: C_11  and  C_26
    5  A    between atoms: C_20  and  C_25
    6  A    between atoms: C_21  and  C_25
                            x       y       z     vdW  Elec       q    Type
                         _______ _______ _______ _____ _____    ______ ____

>  <TORSDO>
F 6

$$$$
=
 OpenBabel10262422473D

 37 42  0  0  1  0  0  0  0  0999 V2000
  189.6340  178.4850  145.1620 C   0  0  0  0  0  2  0  0  0  0  0  0
  185.1960  178.0750  143.0880 C   0  0  1  0  0  3  0  0  0  0  0  0
  191.1510  178.6440  144.9410 C   0  0  2  0  0  3  0  0  0  0  0  0
  188.0620  176.8480  141.3890 C   0  0  0  0  0  3  0  0  0  0  0  0
  185.6210  179.1470  145.2250 O   0  0  0  0  0  0  0  0  0  0  0  0
  186.6960  178.3370  142.9210 C   0  0  2  0  0  3  0  0  0  0  0  0
  184.7580  178.2590  144.5430 C   0  0  1  0  0  3  0  0  0  0  0  0
  187.2010  177.8740  141.5620 C   0  0  0  0  0  0  0  0  0  0  0  0
  183.3660  178.8600  144.4860 C   0  0  0  0  0  2  0  0  0  0  0  0
  191.5830  178.4100  143.4840 C   0  0  0  0  0  2  0  0  0  0  0  0
  186.8770  178.5190  145.4380 C   0  0  2  0  0  3  0  0  0  0  0  0
  184.0520  178.6190  140.8750 C   0  0  0  0  0  2  0  0  0  0  0  0
  183.1460  179.3760  143.0740 C   0  0  0  0  0  2  0  0  0  0  0  0
  190.9140  177.1900  142.8260 C   0  0  2  0  0  3  0  0  0  0  0  0
  188.6760  176.0350  142.4890 C   0  0  0  0  0  2  0  0  0  0  0  0
  184.4080  179.0960  142.2870 C   0  0  1  0  0  3  0  0  0  0  0  0
  187.4750  177.8700  144.1570 C   0  0  2  0  0  3  0  0  0  0  0  0
  186.5600  178.5330  140.3570 C   0  0  2  0  0  3  0  0  0  0  0  0
  189.5500  176.8630  143.4470 C   0  0  2  0  0  3  0  0  0  0  0  0
  188.9170  178.0970  143.9380 N   0  0  2  0  0  0  0  0  0  0  0  0
  185.1820  177.9200  140.1060 C   0  0  0  0  0  2  0  0  0  0  0  0
  188.8080  178.6280  139.2510 C   0  0  0  0  0  3  0  0  0  0  0  0
  187.4180  178.5320  139.1200 C   0  0  0  0  0  0  0  0  0  0  0  0
  186.8510  178.3970  137.8410 C   0  0  0  0  0  3  0  0  0  0  0  0
  187.1130  178.2510  135.4800 F   0  0  0  0  0  0  0  0  0  0  0  0
  189.0550  178.4800  136.8460 C   0  0  0  0  0  3  0  0  0  0  0  0
  187.6670  178.3730  136.7090 C   0  0  0  0  0  0  0  0  0  0  0  0
  189.6260  178.6050  138.1140 C   0  0  0  0  0  3  0  0  0  0  0  0
  191.8380  175.9760  142.7980 C   0  0  0  0  0  2  0  0  0  0  0  0
  191.6940  175.2070  143.9560 O   0  0  0  0  0  1  0  0  0  0  0  0
  190.8540  177.1260  146.5260 C   0  0  0  0  0  1  0  0  0  0  0  0
  191.8430  177.7820  145.7920 O   0  0  0  0  0  0  0  0  0  0  0  0
  186.8160  177.5040  146.5780 C   0  0  0  0  0  2  0  0  0  0  0  0
  186.8310  178.2070  147.9300 C   0  0  0  0  0  2  0  0  0  0  0  0
  187.9300  177.6750  148.8440 C   0  0  2  0  0  3  0  0  0  0  0  0
  189.1380  178.5960  148.8440 C   0  0  0  0  0  1  0  0  0  0  0  0
  188.3070  176.3820  148.4740 O   0  0  0  0  0  1  0  0  0  0  0  0
  2  7  1  0  0  0  0
  3  1  1  0  0  0  0
  3 32  1  0  0  0  0
  4  8  2  0  0  0  0
  4 15  1  0  0  0  0
  5 11  1  0  0  0  0
  6  2  1  0  0  0  0
  6 17  1  0  0  0  0
  7  5  1  0  0  0  0
  8  6  1  0  0  0  0
  9  7  1  0  0  0  0
 10  3  1  0  0  0  0
 11 33  1  0  0  0  0
 12 16  1  0  0  0  0
 13  9  1  0  0  0  0
 14 19  1  0  0  0  0
 14 10  1  0  0  0  0
 15 19  1  0  0  0  0
 16 13  1  0  0  0  0
 16  2  1  0  0  0  0
 17 11  1  0  0  0  0
 18  8  1  0  0  0  0
 19 20  1  0  0  0  0
 20 17  1  0  0  0  0
 20  1  1  0  0  0  0
 21 18  1  0  0  0  0
 21 12  1  0  0  0  0
 23 22  1  0  0  0  0
 23 18  1  0  0  0  0
 24 23  2  0  0  0  0
 25 27  1  0  0  0  0
 26 28  1  0  0  0  0
 27 26  2  0  0  0  0
 27 24  1  0  0  0  0
 28 22  2  0  0  0  0
 29 14  1  0  0  0  0
 29 30  1  0  0  0  0
 32 31  1  0  0  0  0
 33 34  1  0  0  0  0
 34 35  1  0  0  0  0
 35 36  1  0  0  0  0
 37 35  1  0  0  0  0
M  END
>  <MODEL>
8

>  <REMARK>
 VINA RESULT:      -5.6      3.320      7.046
  Name = 
  6 active torsions:
  status: ('A' for Active; 'I' for Inactive)
    1  A    between atoms: C_3  and  C_21
    2  A    between atoms: C_5  and  O_23
    3  A    between atoms: C_6  and  C_31
    4  A    between atoms: C_11  and  C_26
    5  A    between atoms: C_20  and  C_25
    6  A    between atoms: C_21  and  C_25
                            x       y       z     vdW  Elec       q    Type
                         _______ _______ _______ _____ _____    ______ ____

>  <TORSDO>
F 6

$$$$
=
 OpenBabel10262422473D

 37 42  0  0  1  0  0  0  0  0999 V2000
  185.3660  179.5910  142.7470 C   0  0  0  0  0  2  0  0  0  0  0  0
  189.2250  177.0760  141.0310 C   0  0  1  0  0  3  0  0  0  0  0  0
  184.6760  180.2150  143.9760 C   0  0  2  0  0  3  0  0  0  0  0  0
  188.1030  176.5420  144.3570 C   0  0  0  0  0  3  0  0  0  0  0  0
  188.0180  178.7670  139.7740 O   0  0  0  0  0  0  0  0  0  0  0  0
  188.5560  177.8010  142.2030 C   0  0  2  0  0  3  0  0  0  0  0  0
  188.5960  177.4800  139.6960 C   0  0  1  0  0  3  0  0  0  0  0  0
  188.9560  177.1980  143.5420 C   0  0  0  0  0  0  0  0  0  0  0  0
  189.7340  177.5050  138.6910 C   0  0  0  0  0  2  0  0  0  0  0  0
  185.2870  179.7640  145.3130 C   0  0  0  0  0  2  0  0  0  0  0  0
  186.8460  178.7120  140.5760 C   0  0  2  0  0  3  0  0  0  0  0  0
  191.6290  176.5520  141.7030 C   0  0  0  0  0  2  0  0  0  0  0  0
  191.0370  177.5030  139.4730 C   0  0  0  0  0  2  0  0  0  0  0  0
  185.5870  178.2570  145.3810 C   0  0  2  0  0  3  0  0  0  0  0  0
  186.6410  176.3330  144.0970 C   0  0  0  0  0  2  0  0  0  0  0  0
  190.6830  177.4900  140.9440 C   0  0  1  0  0  3  0  0  0  0  0  0
  187.0570  177.9980  141.9410 C   0  0  2  0  0  3  0  0  0  0  0  0
  190.4360  177.2300  143.8670 C   0  0  2  0  0  3  0  0  0  0  0  0
  185.8440  177.6460  143.9980 C   0  0  2  0  0  3  0  0  0  0  0  0
  186.4410  178.6570  143.1100 N   0  0  2  0  0  0  0  0  0  0  0  0
  191.1570  176.1220  143.1000 C   0  0  0  0  0  2  0  0  0  0  0  0
  189.9530  177.9370  146.2240 C   0  0  0  0  0  3  0  0  0  0  0  0
  190.7490  177.1990  145.3390 C   0  0  0  0  0  0  0  0  0  0  0  0
  191.8000  176.4140  145.8440 C   0  0  0  0  0  3  0  0  0  0  0  0
  193.0740  175.6280  147.6940 F   0  0  0  0  0  0  0  0  0  0  0  0
  191.2630  177.1280  148.0940 C   0  0  0  0  0  3  0  0  0  0  0  0
  192.0560  176.3810  147.2160 C   0  0  0  0  0  0  0  0  0  0  0  0
  190.2120  177.9030  147.5990 C   0  0  0  0  0  3  0  0  0  0  0  0
  184.5170  177.4950  146.1550 C   0  0  0  0  0  2  0  0  0  0  0  0
  184.1870  178.1550  147.3420 O   0  0  0  0  0  1  0  0  0  0  0  0
  183.1280  179.1600  142.7950 C   0  0  0  0  0  1  0  0  0  0  0  0
  183.3120  179.9240  143.9480 O   0  0  0  0  0  0  0  0  0  0  0  0
  185.6720  178.0930  139.8200 C   0  0  0  0  0  2  0  0  0  0  0  0
  185.6010  178.6320  138.3960 C   0  0  0  0  0  2  0  0  0  0  0  0
  185.7350  177.5270  137.3540 C   0  0  2  0  0  3  0  0  0  0  0  0
  186.7970  177.8700  136.3230 C   0  0  0  0  0  1  0  0  0  0  0  0
  184.5120  177.2800  136.7250 O   0  0  0  0  0  1  0  0  0  0  0  0
  1 20  1  0  0  0  0
  1  3  1  0  0  0  0
  2  6  1  0  0  0  0
  3 10  1  0  0  0  0
  5 11  1  0  0  0  0
  6  8  1  0  0  0  0
  7  5  1  0  0  0  0
  7  2  1  0  0  0  0
  8 18  1  0  0  0  0
  8  4  2  0  0  0  0
  9 13  1  0  0  0  0
  9  7  1  0  0  0  0
 10 14  1  0  0  0  0
 11 17  1  0  0  0  0
 12 21  1  0  0  0  0
 13 16  1  0  0  0  0
 14 29  1  0  0  0  0
 15  4  1  0  0  0  0
 16  2  1  0  0  0  0
 16 12  1  0  0  0  0
 17  6  1  0  0  0  0
 17 20  1  0  0  0  0
 18 23  1  0  0  0  0
 19 15  1  0  0  0  0
 19 14  1  0  0  0  0
 20 19  1  0  0  0  0
 21 18  1  0  0  0  0
 22 28  1  0  0  0  0
 23 24  1  0  0  0  0
 23 22  2  0  0  0  0
 24 27  2  0  0  0  0
 27 25  1  0  0  0  0
 27 26  1  0  0  0  0
 28 26  2  0  0  0  0
 29 30  1  0  0  0  0
 31 32  1  0  0  0  0
 32  3  1  0  0  0  0
 33 11  1  0  0  0  0
 34 33  1  0  0  0  0
 35 34  1  0  0  0  0
 36 35  1  0  0  0  0
 37 35  1  0  0  0  0
M  END
>  <MODEL>
9

>  <REMARK>
 VINA RESULT:      -5.6      1.891      5.517
  Name = 
  6 active torsions:
  status: ('A' for Active; 'I' for Inactive)
    1  A    between atoms: C_3  and  C_21
    2  A    between atoms: C_5  and  O_23
    3  A    between atoms: C_6  and  C_31
    4  A    between atoms: C_11  and  C_26
    5  A    between atoms: C_20  and  C_25
    6  A    between atoms: C_21  and  C_25
                            x       y       z     vdW  Elec       q    Type
                         _______ _______ _______ _____ _____    ______ ____

>  <TORSDO>
F 6

$$$$
