=
 OpenBabel10262421373D

 32 36  0  0  1  0  0  0  0  0999 V2000
  187.6770  177.6090  143.9560 C   0  0  0  0  0  0  0  0  0  0  0  0
  184.0600  178.3480  140.6140 C   0  0  2  0  0  3  0  0  0  0  0  0
  183.4400  177.8520  138.2380 C   0  0  0  0  0  0  0  0  0  0  0  0
  182.4840  178.0120  137.1510 C   0  0  0  0  0  0  0  0  0  0  0  0
  186.2040  178.8840  141.8620 C   0  0  1  0  0  3  0  0  0  0  0  0
  184.1760  178.4700  143.1320 C   0  0  0  0  0  2  0  0  0  0  0  0
  180.7830  178.8970  136.0670 N   0  0  0  0  0  0  0  0  0  0  0  0
  186.2540  178.0480  144.1280 C   0  0  0  0  0  2  0  0  0  0  0  0
  183.4310  178.9510  141.8770 C   0  0  2  0  0  3  0  0  0  0  0  0
  181.9180  178.6760  141.9510 C   0  0  2  0  0  3  0  0  0  0  0  0
  182.1200  179.5680  139.5670 C   0  0  2  0  0  3  0  0  0  0  0  0
  181.2740  177.8860  135.3200 C   0  0  0  0  0  3  0  0  0  0  0  0
  188.2030  177.4310  142.5610 C   0  0  0  0  0  2  0  0  0  0  0  0
  185.5410  178.0000  142.8500 N   0  0  2  0  0  0  0  0  0  0  0  0
  182.3560  177.2970  135.9740 C   0  0  0  0  0  3  0  0  0  0  0  0
  187.7020  178.5720  141.6750 C   0  0  0  0  0  2  0  0  0  0  0  0
  188.4250  177.3700  145.0370 C   0  0  0  0  0  3  0  0  0  0  0  0
  181.1690  179.0130  140.6400 C   0  0  1  0  0  3  0  0  0  0  0  0
  181.4160  180.0030  138.2600 C   0  0  0  0  0  2  0  0  0  0  0  0
  185.5110  178.8110  140.4930 C   0  0  0  0  0  2  0  0  0  0  0  0
  184.3620  176.9950  138.1580 O   0  0  0  0  0  0  0  0  0  0  0  0
  179.6760  179.7610  135.6950 C   0  0  0  0  0  1  0  0  0  0  0  0
  183.2920  178.6800  139.4080 N   0  0  0  0  0  0  0  0  0  0  0  0
  181.5130  178.9620  137.1880 C   0  0  0  0  0  0  0  0  0  0  0  0
  180.5020  178.5010  143.6470 C   0  0  0  0  0  1  0  0  0  0  0  0
  181.3530  179.4010  143.0040 O   0  0  0  0  0  0  0  0  0  0  0  0
  178.9310  177.9660  140.2650 C   0  0  0  0  0  1  0  0  0  0  0  0
  180.4300  177.7780  140.1370 C   0  0  0  0  0  2  0  0  0  0  0  0
  189.8500  176.9180  144.9540 C   0  0  0  0  0  2  0  0  0  0  0  0
  190.4790  176.9860  146.3000 C   0  0  0  0  0  0  0  0  0  0  0  0
  191.8630  177.0060  146.4190 O   0  0  0  0  0  0  0  0  0  0  0  0
  189.7590  176.9940  147.3310 O   0  0  0  0  0  1  0  0  0  0  0  0
  1  8  1  0  0  0  0
  1 17  2  0  0  0  0
  2 20  1  6  0  0  0
  2  9  1  0  0  0  0
  3 23  1  0  0  0  0
  4 24  2  0  0  0  0
  4  3  1  0  0  0  0
  5 20  1  6  0  0  0
  5 14  1  0  0  0  0
  7 24  1  0  0  0  0
  9 10  1  0  0  0  0
  9  6  1  1  0  0  0
 10 26  1  1  0  0  0
 11 19  1  6  0  0  0
 11 18  1  0  0  0  0
 12 15  2  0  0  0  0
 12  7  1  0  0  0  0
 13  1  1  0  0  0  0
 14  6  1  1  0  0  0
 14  8  1  0  0  0  0
 15  4  1  0  0  0  0
 16  5  1  0  0  0  0
 16 13  1  0  0  0  0
 18 28  1  6  0  0  0
 18 10  1  0  0  0  0
 21  3  2  0  0  0  0
 22  7  1  0  0  0  0
 23 11  1  0  0  0  0
 23  2  1  0  0  0  0
 24 19  1  0  0  0  0
 26 25  1  0  0  0  0
 28 27  1  0  0  0  0
 29 17  1  0  0  0  0
 29 30  1  0  0  0  0
 30 31  2  0  0  0  0
 30 32  1  0  0  0  0
M  END
>  <MODEL>
1

>  <REMARK>
 VINA RESULT:      -7.9      0.000      0.000
  Name = 
  4 active torsions:
  status: ('A' for Active; 'I' for Inactive)
    1  A    between atoms: C_1  and  C_10
    2  A    between atoms: C_10  and  C_24
    3  A    between atoms: O_13  and  C_15
    4  A    between atoms: C_25  and  C_26
                            x       y       z     vdW  Elec       q    Type
                         _______ _______ _______ _____ _____    ______ ____

>  <TORSDO>
F 4

$$$$
=
 OpenBabel10262421373D

 32 36  0  0  1  0  0  0  0  0999 V2000
  189.8420  177.9470  144.0750 C   0  0  0  0  0  0  0  0  0  0  0  0
  185.2920  178.3680  142.0960 C   0  0  2  0  0  3  0  0  0  0  0  0
  182.9250  178.9270  142.6980 C   0  0  0  0  0  0  0  0  0  0  0  0
  181.5400  179.0600  142.2680 C   0  0  0  0  0  0  0  0  0  0  0  0
  187.2230  177.1710  143.2290 C   0  0  1  0  0  3  0  0  0  0  0  0
  187.6270  178.3430  141.1400 C   0  0  0  0  0  2  0  0  0  0  0  0
  179.7920  178.7810  140.9560 N   0  0  0  0  0  0  0  0  0  0  0  0
  189.3960  178.0510  142.6480 C   0  0  0  0  0  2  0  0  0  0  0  0
  186.1390  178.0930  140.8470 C   0  0  2  0  0  3  0  0  0  0  0  0
  185.6390  178.8910  139.6290 C   0  0  2  0  0  3  0  0  0  0  0  0
  183.4520  177.8620  140.4510 C   0  0  2  0  0  3  0  0  0  0  0  0
  179.4020  179.5110  142.0220 C   0  0  0  0  0  3  0  0  0  0  0  0
  188.7920  177.8540  145.1440 C   0  0  0  0  0  2  0  0  0  0  0  0
  187.9520  178.2830  142.5740 N   0  0  2  0  0  0  0  0  0  0  0  0
  180.4840  179.7120  142.8790 C   0  0  0  0  0  3  0  0  0  0  0  0
  187.6720  176.9220  144.6810 C   0  0  0  0  0  2  0  0  0  0  0  0
  191.1480  177.9620  144.3580 C   0  0  0  0  0  3  0  0  0  0  0  0
  184.1140  178.7740  139.4050 C   0  0  1  0  0  3  0  0  0  0  0  0
  181.9370  177.6380  140.2300 C   0  0  0  0  0  2  0  0  0  0  0  0
  185.7070  177.4140  143.2170 C   0  0  0  0  0  2  0  0  0  0  0  0
  183.2990  179.3950  143.8070 O   0  0  0  0  0  0  0  0  0  0  0  0
  178.9320  178.3470  139.8690 C   0  0  0  0  0  1  0  0  0  0  0  0
  183.8550  178.2670  141.8160 N   0  0  0  0  0  0  0  0  0  0  0  0
  181.0980  178.5190  141.1020 C   0  0  0  0  0  0  0  0  0  0  0  0
  185.3360  177.8210  137.7120 C   0  0  0  0  0  1  0  0  0  0  0  0
  186.3080  178.4690  138.4770 O   0  0  0  0  0  0  0  0  0  0  0  0
  182.4150  180.2630  138.3360 C   0  0  0  0  0  1  0  0  0  0  0  0
  183.4850  180.1630  139.4060 C   0  0  0  0  0  2  0  0  0  0  0  0
  191.6770  177.8740  145.7550 C   0  0  0  0  0  2  0  0  0  0  0  0
  191.6990  176.4540  146.1980 C   0  0  0  0  0  0  0  0  0  0  0  0
  191.3460  176.1270  147.5010 O   0  0  0  0  0  1  0  0  0  0  0  0
  192.0660  175.5520  145.4010 O   0  0  0  0  0  0  0  0  0  0  0  0
  1 17  2  0  0  0  0
  1 13  1  0  0  0  0
  2 20  1  1  0  0  0
  3 21  2  0  0  0  0
  4  3  1  0  0  0  0
  4 15  1  0  0  0  0
  5 20  1  1  0  0  0
  5 16  1  0  0  0  0
  7 24  1  0  0  0  0
  7 12  1  0  0  0  0
  8  1  1  0  0  0  0
  9  6  1  1  0  0  0
  9  2  1  0  0  0  0
 10 26  1  6  0  0  0
 10  9  1  0  0  0  0
 11 19  1  1  0  0  0
 11 23  1  0  0  0  0
 12 15  2  0  0  0  0
 14  6  1  6  0  0  0
 14  8  1  0  0  0  0
 14  5  1  0  0  0  0
 16 13  1  0  0  0  0
 17 29  1  0  0  0  0
 18 28  1  1  0  0  0
 18 10  1  0  0  0  0
 18 11  1  0  0  0  0
 19 24  1  0  0  0  0
 22  7  1  0  0  0  0
 23  2  1  0  0  0  0
 23  3  1  0  0  0  0
 24  4  2  0  0  0  0
 25 26  1  0  0  0  0
 27 28  1  0  0  0  0
 29 30  1  0  0  0  0
 30 31  1  0  0  0  0
 32 30  2  0  0  0  0
M  END
>  <MODEL>
2

>  <REMARK>
 VINA RESULT:      -6.7      2.009      4.197
  Name = 
  4 active torsions:
  status: ('A' for Active; 'I' for Inactive)
    1  A    between atoms: C_1  and  C_10
    2  A    between atoms: C_10  and  C_24
    3  A    between atoms: O_13  and  C_15
    4  A    between atoms: C_25  and  C_26
                            x       y       z     vdW  Elec       q    Type
                         _______ _______ _______ _____ _____    ______ ____

>  <TORSDO>
F 4

$$$$
=
 OpenBabel10262421373D

 32 36  0  0  1  0  0  0  0  0999 V2000
  190.9100  176.7960  138.1190 C   0  0  0  0  0  0  0  0  0  0  0  0
  186.0990  178.0360  138.4520 C   0  0  2  0  0  3  0  0  0  0  0  0
  183.8900  177.6860  137.3220 C   0  0  0  0  0  0  0  0  0  0  0  0
  182.4660  177.9850  137.2750 C   0  0  0  0  0  0  0  0  0  0  0  0
  188.5090  178.2910  137.6970 C   0  0  1  0  0  3  0  0  0  0  0  0
  188.0360  178.0670  140.0690 C   0  0  0  0  0  2  0  0  0  0  0  0
  180.6130  179.0870  137.7290 N   0  0  0  0  0  0  0  0  0  0  0  0
  190.1230  177.3850  139.2500 C   0  0  0  0  0  2  0  0  0  0  0  0
  186.6620  178.6660  139.7330 C   0  0  2  0  0  3  0  0  0  0  0  0
  185.6720  178.5590  140.9070 C   0  0  2  0  0  3  0  0  0  0  0  0
  184.1470  179.4970  139.0860 C   0  0  2  0  0  3  0  0  0  0  0  0
  180.2970  178.0520  136.9240 C   0  0  0  0  0  3  0  0  0  0  0  0
  190.2230  176.6030  136.7980 C   0  0  0  0  0  2  0  0  0  0  0  0
  188.7010  177.4560  138.9070 N   0  0  2  0  0  0  0  0  0  0  0  0
  181.4460  177.3250  136.6130 C   0  0  0  0  0  3  0  0  0  0  0  0
  189.3480  177.8190  136.4940 C   0  0  0  0  0  2  0  0  0  0  0  0
  192.1830  176.4410  138.3200 C   0  0  0  0  0  3  0  0  0  0  0  0
  184.2400  179.0180  140.5440 C   0  0  1  0  0  3  0  0  0  0  0  0
  182.7570  180.0480  138.6870 C   0  0  0  0  0  2  0  0  0  0  0  0
  187.0320  178.3370  137.2790 C   0  0  0  0  0  2  0  0  0  0  0  0
  184.3670  176.7340  136.6460 O   0  0  0  0  0  0  0  0  0  0  0  0
  179.6820  180.0810  138.2340 C   0  0  0  0  0  1  0  0  0  0  0  0
  184.7310  178.4890  138.1750 N   0  0  0  0  0  0  0  0  0  0  0  0
  181.9340  179.0360  137.9520 C   0  0  0  0  0  0  0  0  0  0  0  0
  185.9700  178.4810  143.1020 C   0  0  0  0  0  1  0  0  0  0  0  0
  186.1360  179.3100  141.9900 O   0  0  0  0  0  0  0  0  0  0  0  0
  182.1210  178.3760  141.7030 C   0  0  0  0  0  1  0  0  0  0  0  0
  183.2520  177.8890  140.8190 C   0  0  0  0  0  2  0  0  0  0  0  0
  193.0350  175.8350  137.2490 C   0  0  0  0  0  2  0  0  0  0  0  0
  194.0010  174.8790  137.8540 C   0  0  0  0  0  0  0  0  0  0  0  0
  195.0020  175.3430  138.6980 O   0  0  0  0  0  1  0  0  0  0  0  0
  193.9300  173.6540  137.5770 O   0  0  0  0  0  0  0  0  0  0  0  0
  1 17  2  0  0  0  0
  1  8  1  0  0  0  0
  2 20  1  6  0  0  0
  2  9  1  0  0  0  0
  3 23  1  0  0  0  0
  4  3  1  0  0  0  0
  4 24  2  0  0  0  0
  5 16  1  6  0  0  0
  5 14  1  0  0  0  0
  7 24  1  0  0  0  0
  7 22  1  0  0  0  0
  9  6  1  1  0  0  0
  9 10  1  0  0  0  0
 10 26  1  1  0  0  0
 11 19  1  6  0  0  0
 11 18  1  0  0  0  0
 12  7  1  0  0  0  0
 13  1  1  0  0  0  0
 14  8  1  1  0  0  0
 14  6  1  0  0  0  0
 15 12  2  0  0  0  0
 15  4  1  0  0  0  0
 16 13  1  0  0  0  0
 18 28  1  6  0  0  0
 18 10  1  0  0  0  0
 20  5  1  0  0  0  0
 21  3  2  0  0  0  0
 23  2  1  0  0  0  0
 23 11  1  0  0  0  0
 24 19  1  0  0  0  0
 26 25  1  0  0  0  0
 28 27  1  0  0  0  0
 29 30  1  0  0  0  0
 29 17  1  0  0  0  0
 30 31  1  0  0  0  0
 32 30  2  0  0  0  0
M  END
>  <MODEL>
3

>  <REMARK>
 VINA RESULT:      -6.3      4.087      5.017
  Name = 
  4 active torsions:
  status: ('A' for Active; 'I' for Inactive)
    1  A    between atoms: C_1  and  C_10
    2  A    between atoms: C_10  and  C_24
    3  A    between atoms: O_13  and  C_15
    4  A    between atoms: C_25  and  C_26
                            x       y       z     vdW  Elec       q    Type
                         _______ _______ _______ _____ _____    ______ ____

>  <TORSDO>
F 4

$$$$
=
 OpenBabel10262421373D

 32 36  0  0  1  0  0  0  0  0999 V2000
  185.7530  177.4970  136.8720 C   0  0  0  0  0  0  0  0  0  0  0  0
  187.9380  177.5420  141.3460 C   0  0  2  0  0  3  0  0  0  0  0  0
  187.4160  177.4690  143.7950 C   0  0  0  0  0  0  0  0  0  0  0  0
  187.9110  177.5030  145.1650 C   0  0  0  0  0  0  0  0  0  0  0  0
  186.8600  178.5590  139.2850 C   0  0  1  0  0  3  0  0  0  0  0  0
  188.7400  177.0470  139.0050 C   0  0  0  0  0  2  0  0  0  0  0  0
  189.3550  177.8700  146.7870 N   0  0  0  0  0  0  0  0  0  0  0  0
  187.1770  177.2610  137.2730 C   0  0  0  0  0  2  0  0  0  0  0  0
  189.1570  177.4910  140.4160 C   0  0  2  0  0  3  0  0  0  0  0  0
  190.2840  176.6170  140.9970 C   0  0  2  0  0  3  0  0  0  0  0  0
  189.7490  178.0970  143.0070 C   0  0  2  0  0  3  0  0  0  0  0  0
  188.2260  177.3750  147.3370 C   0  0  0  0  0  3  0  0  0  0  0  0
  184.7750  177.9140  137.9320 C   0  0  0  0  0  2  0  0  0  0  0  0
  187.3110  177.2600  138.7310 N   0  0  2  0  0  0  0  0  0  0  0  0
  187.2840  177.1270  146.3400 C   0  0  0  0  0  3  0  0  0  0  0  0
  185.4300  178.9390  138.8580 C   0  0  0  0  0  2  0  0  0  0  0  0
  185.3890  177.3110  135.6000 C   0  0  0  0  0  3  0  0  0  0  0  0
  190.6180  176.9480  142.4700 C   0  0  1  0  0  3  0  0  0  0  0  0
  190.0940  178.5310  144.4520 C   0  0  0  0  0  2  0  0  0  0  0  0
  186.9340  178.5670  140.8200 C   0  0  0  0  0  2  0  0  0  0  0  0
  186.2320  177.1120  143.5500 O   0  0  0  0  0  0  0  0  0  0  0  0
  190.5430  178.2760  147.5180 C   0  0  0  0  0  1  0  0  0  0  0  0
  188.3200  177.8340  142.7330 N   0  0  0  0  0  0  0  0  0  0  0  0
  189.1650  177.9340  145.4620 C   0  0  0  0  0  0  0  0  0  0  0  0
  192.2700  177.6020  140.9560 C   0  0  0  0  0  1  0  0  0  0  0  0
  191.4390  176.7530  140.2210 O   0  0  0  0  0  0  0  0  0  0  0  0
  191.7900  175.3280  143.9680 C   0  0  0  0  0  1  0  0  0  0  0  0
  190.4670  175.6950  143.3260 C   0  0  0  0  0  2  0  0  0  0  0  0
  183.9870  177.5130  135.1180 C   0  0  0  0  0  2  0  0  0  0  0  0
  183.3070  176.1970  134.9800 C   0  0  0  0  0  0  0  0  0  0  0  0
  181.9460  176.0880  135.2350 O   0  0  0  0  0  1  0  0  0  0  0  0
  183.9700  175.1770  134.6620 O   0  0  0  0  0  0  0  0  0  0  0  0
  1  8  1  0  0  0  0
  1 13  1  0  0  0  0
  2 20  1  6  0  0  0
  2 23  1  0  0  0  0
  3  4  1  0  0  0  0
  4 24  2  0  0  0  0
  4 15  1  0  0  0  0
  5 16  1  1  0  0  0
  5 20  1  0  0  0  0
  7 12  1  0  0  0  0
  7 22  1  0  0  0  0
  9  6  1  6  0  0  0
  9 10  1  0  0  0  0
  9  2  1  0  0  0  0
 10 26  1  6  0  0  0
 10 18  1  0  0  0  0
 11 19  1  1  0  0  0
 13 16  1  0  0  0  0
 14  8  1  6  0  0  0
 14  6  1  0  0  0  0
 14  5  1  0  0  0  0
 15 12  2  0  0  0  0
 17  1  2  0  0  0  0
 18 11  1  0  0  0  0
 18 28  1  1  0  0  0
 19 24  1  0  0  0  0
 21  3  2  0  0  0  0
 23 11  1  0  0  0  0
 23  3  1  0  0  0  0
 24  7  1  0  0  0  0
 26 25  1  0  0  0  0
 28 27  1  0  0  0  0
 29 17  1  0  0  0  0
 30 29  1  0  0  0  0
 30 31  1  0  0  0  0
 32 30  2  0  0  0  0
M  END
>  <MODEL>
4

>  <REMARK>
 VINA RESULT:      -5.9      3.828      9.907
  Name = 
  4 active torsions:
  status: ('A' for Active; 'I' for Inactive)
    1  A    between atoms: C_1  and  C_10
    2  A    between atoms: C_10  and  C_24
    3  A    between atoms: O_13  and  C_15
    4  A    between atoms: C_25  and  C_26
                            x       y       z     vdW  Elec       q    Type
                         _______ _______ _______ _____ _____    ______ ____

>  <TORSDO>
F 4

$$$$
=
 OpenBabel10262421373D

 32 36  0  0  1  0  0  0  0  0999 V2000
  182.1350  178.0080  139.6110 C   0  0  0  0  0  0  0  0  0  0  0  0
  186.6910  176.8610  137.9630 C   0  0  2  0  0  3  0  0  0  0  0  0
  189.1070  176.9610  138.6180 C   0  0  0  0  0  0  0  0  0  0  0  0
  190.4960  176.7100  138.2570 C   0  0  0  0  0  0  0  0  0  0  0  0
  184.6520  178.3370  138.2960 C   0  0  1  0  0  3  0  0  0  0  0  0
  184.3600  176.1250  137.3350 C   0  0  0  0  0  2  0  0  0  0  0  0
  192.1960  176.2940  136.9210 N   0  0  0  0  0  0  0  0  0  0  0  0
  182.5790  177.1130  138.4950 C   0  0  0  0  0  2  0  0  0  0  0  0
  185.8120  176.2700  136.8530 C   0  0  2  0  0  3  0  0  0  0  0  0
  186.3840  174.9480  136.3100 C   0  0  2  0  0  3  0  0  0  0  0  0
  188.4580  176.4360  136.2170 C   0  0  2  0  0  3  0  0  0  0  0  0
  192.6670  176.3740  138.1830 C   0  0  0  0  0  3  0  0  0  0  0  0
  183.1760  178.8020  140.3450 C   0  0  0  0  0  2  0  0  0  0  0  0
  184.0390  176.9990  138.4750 N   0  0  2  0  0  0  0  0  0  0  0  0
  191.6180  176.6360  139.0640 C   0  0  0  0  0  3  0  0  0  0  0  0
  184.1890  179.3630  139.3480 C   0  0  0  0  0  2  0  0  0  0  0  0
  180.8390  178.0600  139.9350 C   0  0  0  0  0  3  0  0  0  0  0  0
  187.8880  175.0320  135.9580 C   0  0  1  0  0  3  0  0  0  0  0  0
  189.9390  176.6050  135.8060 C   0  0  0  0  0  2  0  0  0  0  0  0
  186.1860  178.2570  138.3290 C   0  0  0  0  0  2  0  0  0  0  0  0
  188.7910  177.2150  139.8120 O   0  0  0  0  0  0  0  0  0  0  0  0
  193.0000  176.0640  135.7320 C   0  0  0  0  0  1  0  0  0  0  0  0
  188.1080  176.8900  137.5810 N   0  0  0  0  0  0  0  0  0  0  0  0
  190.8710  176.4850  136.9710 C   0  0  0  0  0  0  0  0  0  0  0  0
  185.4020  173.1930  135.3820 C   0  0  0  0  0  1  0  0  0  0  0  0
  185.6680  174.5480  135.1790 O   0  0  0  0  0  0  0  0  0  0  0  0
  189.2010  172.9110  135.7990 C   0  0  0  0  0  1  0  0  0  0  0  0
  188.6590  173.9710  136.7370 C   0  0  0  0  0  2  0  0  0  0  0  0
  180.3120  178.9180  141.0420 C   0  0  0  0  0  2  0  0  0  0  0  0
  179.4910  178.0950  141.9710 C   0  0  0  0  0  0  0  0  0  0  0  0
  179.3060  176.7420  141.7200 O   0  0  0  0  0  0  0  0  0  0  0  0
  178.9390  178.6320  142.9650 O   0  0  0  0  0  1  0  0  0  0  0  0
  1 17  2  0  0  0  0
  1 13  1  0  0  0  0
  2 20  1  6  0  0  0
  3 21  2  0  0  0  0
  4  3  1  0  0  0  0
  4 15  1  0  0  0  0
  5 20  1  1  0  0  0
  5 14  1  0  0  0  0
  5 16  1  0  0  0  0
  7 24  1  0  0  0  0
  7 12  1  0  0  0  0
  8  1  1  0  0  0  0
  9  6  1  1  0  0  0
  9  2  1  0  0  0  0
 10 26  1  6  0  0  0
 10  9  1  0  0  0  0
 11 19  1  1  0  0  0
 11 23  1  0  0  0  0
 12 15  2  0  0  0  0
 14  6  1  6  0  0  0
 14  8  1  0  0  0  0
 16 13  1  0  0  0  0
 17 29  1  0  0  0  0
 18 11  1  0  0  0  0
 18 10  1  0  0  0  0
 18 28  1  1  0  0  0
 19 24  1  0  0  0  0
 22  7  1  0  0  0  0
 23  2  1  0  0  0  0
 23  3  1  0  0  0  0
 24  4  2  0  0  0  0
 26 25  1  0  0  0  0
 27 28  1  0  0  0  0
 29 30  1  0  0  0  0
 30 32  1  0  0  0  0
 31 30  2  0  0  0  0
M  END
>  <MODEL>
5

>  <REMARK>
 VINA RESULT:      -5.8      4.646      8.868
  Name = 
  4 active torsions:
  status: ('A' for Active; 'I' for Inactive)
    1  A    between atoms: C_1  and  C_10
    2  A    between atoms: C_10  and  C_24
    3  A    between atoms: O_13  and  C_15
    4  A    between atoms: C_25  and  C_26
                            x       y       z     vdW  Elec       q    Type
                         _______ _______ _______ _____ _____    ______ ____

>  <TORSDO>
F 4

$$$$
=
 OpenBabel10262421373D

 32 36  0  0  1  0  0  0  0  0999 V2000
  183.8100  178.3420  138.4690 C   0  0  0  0  0  0  0  0  0  0  0  0
  187.1380  177.8840  142.1450 C   0  0  2  0  0  3  0  0  0  0  0  0
  187.3160  177.3620  144.5890 C   0  0  0  0  0  0  0  0  0  0  0  0
  188.1650  177.2230  145.7640 C   0  0  0  0  0  0  0  0  0  0  0  0
  185.4790  179.1060  140.6610 C   0  0  1  0  0  3  0  0  0  0  0  0
  187.2900  177.8610  139.6260 C   0  0  0  0  0  2  0  0  0  0  0  0
  189.9780  177.4690  146.9900 N   0  0  0  0  0  0  0  0  0  0  0  0
  185.3010  178.1920  138.4330 C   0  0  0  0  0  2  0  0  0  0  0  0
  188.0540  178.1100  140.9360 C   0  0  2  0  0  3  0  0  0  0  0  0
  189.3440  177.2750  141.0300 C   0  0  2  0  0  3  0  0  0  0  0  0
  189.3030  178.3460  143.3480 C   0  0  2  0  0  3  0  0  0  0  0  0
  189.0740  176.7780  147.7150 C   0  0  0  0  0  3  0  0  0  0  0  0
  183.1410  178.4780  139.8060 C   0  0  0  0  0  2  0  0  0  0  0  0
  185.8300  177.9680  139.7790 N   0  0  2  0  0  0  0  0  0  0  0  0
  187.9080  176.5990  146.9710 C   0  0  0  0  0  3  0  0  0  0  0  0
  183.9680  179.4020  140.7000 C   0  0  0  0  0  2  0  0  0  0  0  0
  183.1210  178.3280  137.3240 C   0  0  0  0  0  3  0  0  0  0  0  0
  190.0520  177.3950  142.4000 C   0  0  1  0  0  3  0  0  0  0  0  0
  190.0080  178.5720  144.7060 C   0  0  0  0  0  2  0  0  0  0  0  0
  185.9730  178.8730  142.0970 C   0  0  0  0  0  2  0  0  0  0  0  0
  186.1310  176.9290  144.6000 O   0  0  0  0  0  0  0  0  0  0  0  0
  191.2980  177.8710  147.4460 C   0  0  0  0  0  1  0  0  0  0  0  0
  187.8700  177.9850  143.4130 N   0  0  0  0  0  0  0  0  0  0  0  0
  189.4270  177.7270  145.7970 C   0  0  0  0  0  0  0  0  0  0  0  0
  190.6740  176.4530  139.4600 C   0  0  0  0  0  1  0  0  0  0  0  0
  190.2310  177.6530  140.0180 O   0  0  0  0  0  0  0  0  0  0  0  0
  191.6100  175.8370  143.5800 C   0  0  0  0  0  1  0  0  0  0  0  0
  190.2120  176.0100  143.0200 C   0  0  0  0  0  2  0  0  0  0  0  0
  181.6310  178.4600  137.2720 C   0  0  0  0  0  2  0  0  0  0  0  0
  181.2610  179.8460  136.8770 C   0  0  0  0  0  0  0  0  0  0  0  0
  180.7080  180.0880  135.6270 O   0  0  0  0  0  0  0  0  0  0  0  0
  181.4780  180.8030  137.6640 O   0  0  0  0  0  1  0  0  0  0  0  0
  1 13  1  0  0  0  0
  2 20  1  1  0  0  0
  2 23  1  0  0  0  0
  3 21  2  0  0  0  0
  3  4  1  0  0  0  0
  4 24  2  0  0  0  0
  4 15  1  0  0  0  0
  5 16  1  1  0  0  0
  5 20  1  0  0  0  0
  6 14  1  0  0  0  0
  7 22  1  0  0  0  0
  7 12  1  0  0  0  0
  8  1  1  0  0  0  0
  9  6  1  6  0  0  0
  9 10  1  0  0  0  0
  9  2  1  0  0  0  0
 10 26  1  6  0  0  0
 10 18  1  0  0  0  0
 11 23  1  0  0  0  0
 11 19  1  1  0  0  0
 13 16  1  0  0  0  0
 14  8  1  6  0  0  0
 14  5  1  0  0  0  0
 15 12  2  0  0  0  0
 17  1  2  0  0  0  0
 18 28  1  1  0  0  0
 18 11  1  0  0  0  0
 19 24  1  0  0  0  0
 23  3  1  0  0  0  0
 24  7  1  0  0  0  0
 25 26  1  0  0  0  0
 28 27  1  0  0  0  0
 29 17  1  0  0  0  0
 30 29  1  0  0  0  0
 30 32  1  0  0  0  0
 31 30  2  0  0  0  0
M  END
>  <MODEL>
6

>  <REMARK>
 VINA RESULT:      -5.6      2.817      9.822
  Name = 
  4 active torsions:
  status: ('A' for Active; 'I' for Inactive)
    1  A    between atoms: C_1  and  C_10
    2  A    between atoms: C_10  and  C_24
    3  A    between atoms: O_13  and  C_15
    4  A    between atoms: C_25  and  C_26
                            x       y       z     vdW  Elec       q    Type
                         _______ _______ _______ _____ _____    ______ ____

>  <TORSDO>
F 4

$$$$
=
 OpenBabel10262421373D

 32 36  0  0  1  0  0  0  0  0999 V2000
  181.3140  179.7760  140.6240 C   0  0  0  0  0  0  0  0  0  0  0  0
  185.7450  178.2140  142.2730 C   0  0  2  0  0  3  0  0  0  0  0  0
  188.1680  178.1380  141.6410 C   0  0  0  0  0  0  0  0  0  0  0  0
  189.5200  177.7130  141.9770 C   0  0  0  0  0  0  0  0  0  0  0  0
  183.5350  178.0240  141.0380 C   0  0  1  0  0  3  0  0  0  0  0  0
  183.5240  178.6750  143.3770 C   0  0  0  0  0  2  0  0  0  0  0  0
  191.0770  176.5670  143.0340 N   0  0  0  0  0  0  0  0  0  0  0  0
  181.7620  179.3580  141.9910 C   0  0  0  0  0  2  0  0  0  0  0  0
  184.8490  177.9040  143.4790 C   0  0  2  0  0  3  0  0  0  0  0  0
  185.5750  178.1570  144.8120 C   0  0  2  0  0  3  0  0  0  0  0  0
  187.3140  176.7450  143.5870 C   0  0  2  0  0  3  0  0  0  0  0  0
  191.6870  177.3900  142.1550 C   0  0  0  0  0  3  0  0  0  0  0  0
  182.2810  179.6400  139.4850 C   0  0  0  0  0  2  0  0  0  0  0  0
  183.2030  179.0970  142.0050 N   0  0  2  0  0  0  0  0  0  0  0  0
  190.7330  178.1360  141.4640 C   0  0  0  0  0  3  0  0  0  0  0  0
  183.0360  178.3160  139.6090 C   0  0  0  0  0  2  0  0  0  0  0  0
  180.0840  180.2730  140.4600 C   0  0  0  0  0  3  0  0  0  0  0  0
  186.9790  177.5120  144.8770 C   0  0  1  0  0  3  0  0  0  0  0  0
  188.6740  176.0080  143.6230 C   0  0  0  0  0  2  0  0  0  0  0  0
  185.0490  177.7660  140.9880 C   0  0  0  0  0  2  0  0  0  0  0  0
  187.9710  178.9730  140.7160 O   0  0  0  0  0  0  0  0  0  0  0  0
  191.7450  175.6170  143.9060 C   0  0  0  0  0  1  0  0  0  0  0  0
  187.0710  177.5980  142.4030 N   0  0  0  0  0  0  0  0  0  0  0  0
  189.7570  176.7760  142.9330 C   0  0  0  0  0  0  0  0  0  0  0  0
  184.9690  178.6190  146.8930 C   0  0  0  0  0  1  0  0  0  0  0  0
  184.8000  177.6810  145.8740 O   0  0  0  0  0  0  0  0  0  0  0  0
  188.9170  178.1540  146.3170 C   0  0  0  0  0  1  0  0  0  0  0  0
  188.0240  178.5830  145.1700 C   0  0  0  0  0  2  0  0  0  0  0  0
  179.5610  180.7230  139.1320 C   0  0  0  0  0  2  0  0  0  0  0  0
  179.7860  182.1850  138.9710 C   0  0  0  0  0  0  0  0  0  0  0  0
  180.8380  182.6440  138.1890 O   0  0  0  0  0  0  0  0  0  0  0  0
  179.0420  183.0050  139.5670 O   0  0  0  0  0  1  0  0  0  0  0  0
  1  8  1  0  0  0  0
  2 20  1  6  0  0  0
  2 23  1  0  0  0  0
  2  9  1  0  0  0  0
  3  4  1  0  0  0  0
  3 23  1  0  0  0  0
  4 24  2  0  0  0  0
  5 16  1  6  0  0  0
  5 14  1  0  0  0  0
  7 22  1  0  0  0  0
  9  6  1  6  0  0  0
  9 10  1  0  0  0  0
 10 18  1  0  0  0  0
 10 26  1  1  0  0  0
 11 19  1  1  0  0  0
 11 18  1  0  0  0  0
 12  7  1  0  0  0  0
 13 16  1  0  0  0  0
 13  1  1  0  0  0  0
 14  8  1  1  0  0  0
 14  6  1  0  0  0  0
 15  4  1  0  0  0  0
 15 12  2  0  0  0  0
 17  1  2  0  0  0  0
 18 28  1  6  0  0  0
 20  5  1  0  0  0  0
 21  3  2  0  0  0  0
 23 11  1  0  0  0  0
 24  7  1  0  0  0  0
 24 19  1  0  0  0  0
 26 25  1  0  0  0  0
 28 27  1  0  0  0  0
 29 17  1  0  0  0  0
 30 29  1  0  0  0  0
 30 32  1  0  0  0  0
 31 30  2  0  0  0  0
M  END
>  <MODEL>
7

>  <REMARK>
 VINA RESULT:      -5.5      2.945      8.791
  Name = 
  4 active torsions:
  status: ('A' for Active; 'I' for Inactive)
    1  A    between atoms: C_1  and  C_10
    2  A    between atoms: C_10  and  C_24
    3  A    between atoms: O_13  and  C_15
    4  A    between atoms: C_25  and  C_26
                            x       y       z     vdW  Elec       q    Type
                         _______ _______ _______ _____ _____    ______ ____

>  <TORSDO>
F 4

$$$$
=
 OpenBabel10262421373D

 32 36  0  0  1  0  0  0  0  0999 V2000
  190.7110  176.7140  145.7820 C   0  0  0  0  0  0  0  0  0  0  0  0
  189.2020  177.4250  141.0900 C   0  0  2  0  0  3  0  0  0  0  0  0
  189.5830  176.6100  138.7520 C   0  0  0  0  0  0  0  0  0  0  0  0
  189.2640  176.7260  137.3360 C   0  0  0  0  0  0  0  0  0  0  0  0
  190.6470  177.8100  143.1420 C   0  0  1  0  0  3  0  0  0  0  0  0
  188.2340  177.9920  143.3510 C   0  0  0  0  0  2  0  0  0  0  0  0
  188.4700  177.6710  135.5110 N   0  0  0  0  0  0  0  0  0  0  0  0
  189.5050  177.4140  145.2330 C   0  0  0  0  0  2  0  0  0  0  0  0
  188.2490  178.3510  141.8560 C   0  0  2  0  0  3  0  0  0  0  0  0
  186.8380  178.3570  141.2410 C   0  0  2  0  0  3  0  0  0  0  0  0
  188.2640  178.7430  139.1590 C   0  0  2  0  0  3  0  0  0  0  0  0
  188.9830  176.4700  135.1710 C   0  0  0  0  0  3  0  0  0  0  0  0
  191.7340  176.1930  144.8150 C   0  0  0  0  0  2  0  0  0  0  0  0
  189.4310  177.2510  143.7790 N   0  0  2  0  0  0  0  0  0  0  0  0
  189.4970  175.8370  136.3020 C   0  0  0  0  0  3  0  0  0  0  0  0
  191.9550  177.2170  143.7020 C   0  0  0  0  0  2  0  0  0  0  0  0
  190.8320  176.5560  147.1030 C   0  0  0  0  0  3  0  0  0  0  0  0
  186.8390  178.5680  139.7090 C   0  0  1  0  0  3  0  0  0  0  0  0
  188.3260  179.0410  137.6420 C   0  0  0  0  0  2  0  0  0  0  0  0
  190.6250  177.6030  141.6200 C   0  0  0  0  0  2  0  0  0  0  0  0
  190.2150  175.6080  139.1860 O   0  0  0  0  0  0  0  0  0  0  0  0
  187.8760  178.6280  134.5940 C   0  0  0  0  0  1  0  0  0  0  0  0
  189.1410  177.6540  139.6420 N   0  0  0  0  0  0  0  0  0  0  0  0
  188.6310  177.8190  136.8340 C   0  0  0  0  0  0  0  0  0  0  0  0
  184.8100  178.7630  142.0380 C   0  0  0  0  0  1  0  0  0  0  0  0
  186.0610  179.3510  141.8420 O   0  0  0  0  0  0  0  0  0  0  0  0
  184.9360  177.9060  138.2310 C   0  0  0  0  0  1  0  0  0  0  0  0
  186.1240  177.4050  139.0290 C   0  0  0  0  0  2  0  0  0  0  0  0
  191.9980  175.8600  147.7340 C   0  0  0  0  0  2  0  0  0  0  0  0
  192.6370  176.7530  148.7370 C   0  0  0  0  0  0  0  0  0  0  0  0
  192.0140  177.9380  149.1070 O   0  0  0  0  0  0  0  0  0  0  0  0
  193.7550  176.4510  149.2260 O   0  0  0  0  0  1  0  0  0  0  0  0
  1 17  2  0  0  0  0
  2 20  1  1  0  0  0
  2  9  1  0  0  0  0
  3 21  2  0  0  0  0
  3 23  1  0  0  0  0
  4  3  1  0  0  0  0
  5 20  1  6  0  0  0
  5 16  1  0  0  0  0
  5 14  1  0  0  0  0
  7 24  1  0  0  0  0
  8  1  1  0  0  0  0
  9  6  1  1  0  0  0
 10 26  1  1  0  0  0
 10  9  1  0  0  0  0
 11 19  1  6  0  0  0
 11 23  1  0  0  0  0
 11 18  1  0  0  0  0
 12  7  1  0  0  0  0
 12 15  2  0  0  0  0
 13  1  1  0  0  0  0
 14  6  1  6  0  0  0
 14  8  1  0  0  0  0
 15  4  1  0  0  0  0
 16 13  1  0  0  0  0
 17 29  1  0  0  0  0
 18 28  1  6  0  0  0
 18 10  1  0  0  0  0
 22  7  1  0  0  0  0
 23  2  1  0  0  0  0
 24  4  2  0  0  0  0
 24 19  1  0  0  0  0
 26 25  1  0  0  0  0
 27 28  1  0  0  0  0
 29 30  1  0  0  0  0
 30 31  2  0  0  0  0
 30 32  1  0  0  0  0
M  END
>  <MODEL>
8

>  <REMARK>
 VINA RESULT:      -5.2      3.646      5.559
  Name = 
  4 active torsions:
  status: ('A' for Active; 'I' for Inactive)
    1  A    between atoms: C_1  and  C_10
    2  A    between atoms: C_10  and  C_24
    3  A    between atoms: O_13  and  C_15
    4  A    between atoms: C_25  and  C_26
                            x       y       z     vdW  Elec       q    Type
                         _______ _______ _______ _____ _____    ______ ____

>  <TORSDO>
F 4

$$$$
