=
 OpenBabel10262421163D

 32 37  0  0  1  0  0  0  0  0999 V2000
  189.1270  177.4520  141.3630 C   0  0  0  0  0  0  0  0  0  0  0  0
  187.9390  177.5700  143.5750 C   0  0  0  0  0  0  0  0  0  0  0  0
  190.4290  177.3140  140.6740 C   0  0  0  0  0  3  0  0  0  0  0  0
  189.0310  176.9220  142.7760 C   0  0  2  0  0  3  0  0  0  0  0  0
  187.9660  177.5590  144.9240 C   0  0  0  0  0  0  0  0  0  0  0  0
  183.1730  178.9460  143.5960 C   0  0  0  0  0  3  0  0  0  0  0  0
  186.7680  178.0620  142.8290 C   0  0  0  0  0  0  0  0  0  0  0  0
  184.3760  178.6470  145.6770 C   0  0  0  0  0  3  0  0  0  0  0  0
  185.5470  178.3620  144.9680 C   0  0  0  0  0  0  0  0  0  0  0  0
  190.3450  176.9280  143.5070 C   0  0  0  0  0  0  0  0  0  0  0  0
  186.8200  178.1280  145.7370 C   0  0  0  0  0  3  0  0  0  0  0  0
  190.3300  176.8850  144.9000 O   0  0  0  0  0  0  0  0  0  0  0  0
  191.5050  176.9290  142.8420 C   0  0  0  0  0  3  0  0  0  0  0  0
  186.8400  178.2210  141.5380 N   0  0  0  0  0  2  0  0  0  0  0  0
  188.0310  177.9770  140.7640 C   0  0  0  0  0  0  0  0  0  0  0  0
  185.5320  178.3780  143.5620 C   0  0  0  0  0  0  0  0  0  0  0  0
  189.1560  177.0970  145.6000 N   0  0  0  0  0  0  0  0  0  0  0  0
  191.5390  177.0540  141.3710 C   0  0  0  0  0  3  0  0  0  0  0  0
  183.1900  178.9330  144.9930 C   0  0  0  0  0  3  0  0  0  0  0  0
  184.3420  178.6700  142.8810 C   0  0  0  0  0  3  0  0  0  0  0  0
  186.6150  177.0470  137.6840 C   0  0  1  0  0  3  0  0  0  0  0  0
  188.8330  177.7870  135.1800 O   0  0  0  0  0  0  0  0  0  0  0  0
  185.5280  177.2130  136.6360 C   0  0  0  0  0  1  0  0  0  0  0  0
  189.2620  178.8780  137.2230 C   0  0  0  0  0  2  0  0  0  0  0  0
  188.0170  178.3840  139.3350 C   0  0  0  0  0  0  0  0  0  0  0  0
  187.9250  176.6100  137.0070 C   0  0  0  0  0  2  0  0  0  0  0  0
  189.1770  178.6110  138.7020 C   0  0  0  0  0  3  0  0  0  0  0  0
  186.7420  178.3300  138.5230 C   0  0  2  0  0  3  0  0  0  0  0  0
  185.5630  178.5300  139.3530 N   0  0  0  0  0  1  0  0  0  0  0  0
  188.6910  177.7550  136.3900 C   0  0  0  0  0  0  0  0  0  0  0  0
  189.1990  177.0060  147.0520 C   0  0  0  0  0  2  0  0  0  0  0  0
  190.5260  177.0020  147.4820 O   0  0  0  0  0  1  0  0  0  0  0  0
  2  5  1  0  0  0  0
  3  1  1  0  0  0  0
  3 18  2  0  0  0  0
  4  1  1  6  0  0  0
  4 10  1  0  0  0  0
  4  2  1  0  0  0  0
  5 17  1  0  0  0  0
  5 11  2  0  0  0  0
  6 19  1  0  0  0  0
  7 16  1  0  0  0  0
  7  2  2  0  0  0  0
  9  8  1  0  0  0  0
  9 11  1  0  0  0  0
 10 12  1  0  0  0  0
 12 17  1  0  0  0  0
 13 10  2  0  0  0  0
 14  7  1  0  0  0  0
 15  1  2  0  0  0  0
 15 14  1  0  0  0  0
 16  9  2  0  0  0  0
 17 31  1  0  0  0  0
 18 13  1  0  0  0  0
 19  8  2  0  0  0  0
 20 16  1  0  0  0  0
 20  6  2  0  0  0  0
 21 23  1  6  0  0  0
 21 28  1  0  0  0  0
 22 30  2  0  0  0  0
 24 27  1  0  0  0  0
 25 15  1  0  0  0  0
 26 21  1  0  0  0  0
 27 25  2  0  0  0  0
 28 25  1  0  0  0  0
 28 29  1  1  0  0  0
 30 26  1  0  0  0  0
 30 24  1  0  0  0  0
 31 32  1  0  0  0  0
M  END
>  <MODEL>
1

>  <REMARK>
 VINA RESULT:     -11.9      0.000      0.000
  Name = 
  2 active torsions:
  status: ('A' for Active; 'I' for Inactive)
    1  A    between atoms: C_13  and  N_29
    2  A    between atoms: C_16  and  C_27
                            x       y       z     vdW  Elec       q    Type
                         _______ _______ _______ _____ _____    ______ ____

>  <TORSDO>
F 2

$$$$
=
 OpenBabel10262421163D

 32 37  0  0  1  0  0  0  0  0999 V2000
  189.7000  176.9100  142.9450 C   0  0  2  0  0  3  0  0  0  0  0  0
  187.7260  177.5140  144.3800 C   0  0  0  0  0  0  0  0  0  0  0  0
  191.1580  176.6680  142.9020 C   0  0  0  0  0  3  0  0  0  0  0  0
  189.0080  176.7410  144.2800 C   0  0  2  0  0  3  0  0  0  0  0  0
  187.2040  177.8390  145.5810 C   0  0  0  0  0  0  0  0  0  0  0  0
  183.4510  178.6280  142.1240 C   0  0  0  0  0  3  0  0  0  0  0  0
  186.9890  177.7520  143.1270 C   0  0  0  0  0  0  0  0  0  0  0  0
  183.6870  178.9090  144.5170 C   0  0  0  0  0  3  0  0  0  0  0  0
  185.0260  178.5130  144.4390 C   0  0  0  0  0  0  0  0  0  0  0  0
  189.9110  176.9890  145.4560 C   0  0  0  0  0  0  0  0  0  0  0  0
  185.8620  178.5360  145.6920 C   0  0  0  0  0  3  0  0  0  0  0  0
  189.3310  177.2910  146.6860 O   0  0  0  0  0  0  0  0  0  0  0  0
  191.2380  176.8810  145.3420 C   0  0  0  0  0  3  0  0  0  0  0  0
  187.5870  177.5900  141.9810 N   0  0  0  0  0  0  0  0  0  0  0  0
  188.9730  177.2190  141.8440 C   0  0  0  0  0  0  0  0  0  0  0  0
  185.5840  178.1800  143.1920 C   0  0  0  0  0  0  0  0  0  0  0  0
  187.9880  177.6140  146.7730 N   0  0  0  0  0  0  0  0  0  0  0  0
  191.8730  176.6400  144.0310 C   0  0  0  0  0  3  0  0  0  0  0  0
  182.9000  178.9610  143.3630 C   0  0  0  0  0  3  0  0  0  0  0  0
  184.7910  178.2390  142.0370 C   0  0  0  0  0  3  0  0  0  0  0  0
  188.0250  177.5670  138.4770 C   0  0  1  0  0  3  0  0  0  0  0  0
  190.1720  175.7410  136.5300 O   0  0  0  0  0  0  0  0  0  0  0  0
  187.8220  178.4460  137.2560 C   0  0  0  0  0  1  0  0  0  0  0  0
  190.9590  176.1850  138.7060 C   0  0  0  0  0  2  0  0  0  0  0  0
  189.5640  177.2580  140.4810 C   0  0  0  0  0  0  0  0  0  0  0  0
  188.4050  176.1440  138.0340 C   0  0  0  0  0  2  0  0  0  0  0  0
  190.4320  176.3070  140.1100 C   0  0  0  0  0  3  0  0  0  0  0  0
  189.0390  178.2160  139.4330 C   0  0  2  0  0  3  0  0  0  0  0  0
  188.4940  179.4260  140.0310 N   0  0  0  0  0  1  0  0  0  0  0  0
  189.8650  175.9960  137.6810 C   0  0  0  0  0  0  0  0  0  0  0  0
  187.4330  177.8870  148.0910 C   0  0  0  0  0  2  0  0  0  0  0  0
  188.4630  178.2080  148.9750 O   0  0  0  0  0  1  0  0  0  0  0  0
  1  3  1  6  0  0  0
  1  4  1  0  0  0  0
  2  5  1  0  0  0  0
  3 18  2  0  0  0  0
  4  2  1  6  0  0  0
  4 10  1  0  0  0  0
  5 11  2  0  0  0  0
  5 17  1  0  0  0  0
  6 19  1  0  0  0  0
  7 16  1  0  0  0  0
  7  2  2  0  0  0  0
  9  8  1  0  0  0  0
  9 11  1  0  0  0  0
 10 12  1  0  0  0  0
 12 17  1  0  0  0  0
 13 10  2  0  0  0  0
 14  7  1  0  0  0  0
 15 14  2  0  0  0  0
 15  1  1  0  0  0  0
 16  9  2  0  0  0  0
 17 31  1  0  0  0  0
 18 13  1  0  0  0  0
 19  8  2  0  0  0  0
 20  6  2  0  0  0  0
 20 16  1  0  0  0  0
 21 23  1  6  0  0  0
 21 28  1  0  0  0  0
 22 30  2  0  0  0  0
 24 27  1  0  0  0  0
 25 15  1  0  0  0  0
 26 21  1  0  0  0  0
 27 25  2  0  0  0  0
 28 29  1  1  0  0  0
 28 25  1  0  0  0  0
 30 26  1  0  0  0  0
 30 24  1  0  0  0  0
 31 32  1  0  0  0  0
M  END
>  <MODEL>
2

>  <REMARK>
 VINA RESULT:     -11.8      1.464      2.036
  Name = 
  2 active torsions:
  status: ('A' for Active; 'I' for Inactive)
    1  A    between atoms: C_13  and  N_29
    2  A    between atoms: C_16  and  C_27
                            x       y       z     vdW  Elec       q    Type
                         _______ _______ _______ _____ _____    ______ ____

>  <TORSDO>
F 2

$$$$
=
 OpenBabel10262421163D

 32 37  0  0  1  0  0  0  0  0999 V2000
  183.3670  178.7070  142.1110 C   0  0  2  0  0  3  0  0  0  0  0  0
  185.3950  178.4720  143.5770 C   0  0  0  0  0  0  0  0  0  0  0  0
  181.8920  178.8000  142.0620 C   0  0  0  0  0  3  0  0  0  0  0  0
  184.0440  179.1000  143.4050 C   0  0  2  0  0  3  0  0  0  0  0  0
  185.9520  178.3460  144.8000 C   0  0  0  0  0  0  0  0  0  0  0  0
  189.7500  177.5120  141.4030 C   0  0  0  0  0  3  0  0  0  0  0  0
  186.1470  178.1580  142.3500 C   0  0  0  0  0  0  0  0  0  0  0  0
  189.5520  177.4990  143.8170 C   0  0  0  0  0  3  0  0  0  0  0  0
  188.1800  177.7520  143.7130 C   0  0  0  0  0  0  0  0  0  0  0  0
  183.1740  178.9090  144.6170 C   0  0  0  0  0  0  0  0  0  0  0  0
  187.3550  177.7990  144.9720 C   0  0  0  0  0  3  0  0  0  0  0  0
  183.7860  178.8140  145.8650 O   0  0  0  0  0  0  0  0  0  0  0  0
  181.8420  178.8750  144.5110 C   0  0  0  0  0  3  0  0  0  0  0  0
  185.5320  178.1230  141.2020 N   0  0  0  0  0  0  0  0  0  0  0  0
  184.1160  178.3390  141.0430 C   0  0  0  0  0  0  0  0  0  0  0  0
  187.5880  177.8770  142.4440 C   0  0  0  0  0  0  0  0  0  0  0  0
  185.1540  178.6360  145.9690 N   0  0  0  0  0  0  0  0  0  0  0  0
  181.1820  178.8950  143.1900 C   0  0  0  0  0  3  0  0  0  0  0  0
  190.3360  177.3850  142.6650 C   0  0  0  0  0  3  0  0  0  0  0  0
  188.3780  177.7570  141.2920 C   0  0  0  0  0  3  0  0  0  0  0  0
  181.7550  179.6710  138.8040 C   0  0  1  0  0  3  0  0  0  0  0  0
  180.3080  177.0970  137.0660 O   0  0  0  0  0  0  0  0  0  0  0  0
  181.4330  180.5350  137.5990 C   0  0  0  0  0  1  0  0  0  0  0  0
  182.3300  176.5400  138.1390 C   0  0  0  0  0  2  0  0  0  0  0  0
  183.5270  178.0800  139.7050 C   0  0  0  0  0  0  0  0  0  0  0  0
  180.7460  178.5140  138.8970 C   0  0  0  0  0  2  0  0  0  0  0  0
  183.0750  176.8520  139.4090 C   0  0  0  0  0  3  0  0  0  0  0  0
  183.2230  179.2170  138.7530 C   0  0  2  0  0  3  0  0  0  0  0  0
  184.1250  180.3430  138.9510 N   0  0  0  0  0  1  0  0  0  0  0  0
  181.0710  177.3600  137.9790 C   0  0  0  0  0  0  0  0  0  0  0  0
  185.7380  178.5780  147.3010 C   0  0  0  0  0  2  0  0  0  0  0  0
  185.9700  179.8720  147.7670 O   0  0  0  0  0  1  0  0  0  0  0  0
  1  3  1  6  0  0  0
  1  4  1  0  0  0  0
  2  5  1  0  0  0  0
  3 18  2  0  0  0  0
  4  2  1  1  0  0  0
  4 10  1  0  0  0  0
  5 11  2  0  0  0  0
  5 17  1  0  0  0  0
  6 19  1  0  0  0  0
  7 16  1  0  0  0  0
  7  2  2  0  0  0  0
  9  8  1  0  0  0  0
  9 11  1  0  0  0  0
 10 12  1  0  0  0  0
 12 17  1  0  0  0  0
 13 10  2  0  0  0  0
 14  7  1  0  0  0  0
 15 14  2  0  0  0  0
 15  1  1  0  0  0  0
 16  9  2  0  0  0  0
 17 31  1  0  0  0  0
 18 13  1  0  0  0  0
 19  8  2  0  0  0  0
 20  6  2  0  0  0  0
 20 16  1  0  0  0  0
 21 23  1  6  0  0  0
 21 26  1  0  0  0  0
 22 30  2  0  0  0  0
 24 27  1  0  0  0  0
 25 15  1  0  0  0  0
 27 25  2  0  0  0  0
 28 21  1  0  0  0  0
 28 29  1  1  0  0  0
 28 25  1  0  0  0  0
 30 24  1  0  0  0  0
 30 26  1  0  0  0  0
 31 32  1  0  0  0  0
M  END
>  <MODEL>
3

>  <REMARK>
 VINA RESULT:     -11.6      3.345      5.914
  Name = 
  2 active torsions:
  status: ('A' for Active; 'I' for Inactive)
    1  A    between atoms: C_13  and  N_29
    2  A    between atoms: C_16  and  C_27
                            x       y       z     vdW  Elec       q    Type
                         _______ _______ _______ _____ _____    ______ ____

>  <TORSDO>
F 2

$$$$
=
 OpenBabel10262421163D

 32 37  0  0  1  0  0  0  0  0999 V2000
  184.1790  178.6150  142.6220 C   0  0  2  0  0  3  0  0  0  0  0  0
  186.5380  178.2320  143.4030 C   0  0  0  0  0  0  0  0  0  0  0  0
  182.7600  178.7390  143.0180 C   0  0  0  0  0  3  0  0  0  0  0  0
  185.2220  178.8960  143.6810 C   0  0  2  0  0  3  0  0  0  0  0  0
  187.4230  178.0030  144.3950 C   0  0  0  0  0  0  0  0  0  0  0  0
  190.0200  177.3620  139.9790 C   0  0  0  0  0  3  0  0  0  0  0  0
  186.8830  177.9990  141.9900 C   0  0  0  0  0  0  0  0  0  0  0  0
  190.5390  177.1680  142.3360 C   0  0  0  0  0  3  0  0  0  0  0  0
  189.2080  177.4540  142.6600 C   0  0  0  0  0  0  0  0  0  0  0  0
  184.7390  178.6300  145.0800 C   0  0  0  0  0  0  0  0  0  0  0  0
  188.7920  177.4190  144.1070 C   0  0  0  0  0  3  0  0  0  0  0  0
  185.6860  178.4290  146.0820 O   0  0  0  0  0  0  0  0  0  0  0  0
  183.4340  178.6280  145.3720 C   0  0  0  0  0  3  0  0  0  0  0  0
  185.9570  178.0630  141.0760 N   0  0  0  0  0  0  0  0  0  0  0  0
  184.5660  178.3170  141.3580 C   0  0  0  0  0  0  0  0  0  0  0  0
  188.2750  177.6860  141.6340 C   0  0  0  0  0  0  0  0  0  0  0  0
  187.0160  178.2180  145.7640 N   0  0  0  0  0  0  0  0  0  0  0  0
  182.4170  178.7600  144.3090 C   0  0  0  0  0  3  0  0  0  0  0  0
  190.9450  177.1280  140.9990 C   0  0  0  0  0  3  0  0  0  0  0  0
  188.6870  177.6390  140.2950 C   0  0  0  0  0  3  0  0  0  0  0  0
  182.1390  180.1550  139.6010 C   0  0  1  0  0  3  0  0  0  0  0  0
  179.6610  178.0210  138.5810 O   0  0  0  0  0  0  0  0  0  0  0  0
  181.7530  181.0160  138.4110 C   0  0  0  0  0  1  0  0  0  0  0  0
  181.6730  176.9620  139.2010 C   0  0  0  0  0  2  0  0  0  0  0  0
  183.6000  178.1710  140.2390 C   0  0  0  0  0  0  0  0  0  0  0  0
  180.9220  179.3410  140.0690 C   0  0  0  0  0  2  0  0  0  0  0  0
  182.7790  177.1100  140.2100 C   0  0  0  0  0  3  0  0  0  0  0  0
  183.3690  179.2990  139.2580 C   0  0  2  0  0  3  0  0  0  0  0  0
  184.5550  180.1280  139.0980 N   0  0  0  0  0  1  0  0  0  0  0  0
  180.6790  178.0990  139.2470 C   0  0  0  0  0  0  0  0  0  0  0  0
  187.9630  178.0480  146.8570 C   0  0  0  0  0  2  0  0  0  0  0  0
  187.3180  178.2710  148.0740 O   0  0  0  0  0  1  0  0  0  0  0  0
  1  3  1  6  0  0  0
  1  4  1  0  0  0  0
  2  5  1  0  0  0  0
  3 18  2  0  0  0  0
  4  2  1  6  0  0  0
  4 10  1  0  0  0  0
  5 17  1  0  0  0  0
  6 20  2  0  0  0  0
  6 19  1  0  0  0  0
  7  2  2  0  0  0  0
  8  9  1  0  0  0  0
  9 11  1  0  0  0  0
 10 13  2  0  0  0  0
 10 12  1  0  0  0  0
 11  5  2  0  0  0  0
 14 15  2  0  0  0  0
 14  7  1  0  0  0  0
 15  1  1  0  0  0  0
 16  7  1  0  0  0  0
 16  9  2  0  0  0  0
 17 12  1  0  0  0  0
 17 31  1  0  0  0  0
 18 13  1  0  0  0  0
 19  8  2  0  0  0  0
 20 16  1  0  0  0  0
 21 23  1  6  0  0  0
 21 26  1  0  0  0  0
 22 30  2  0  0  0  0
 24 30  1  0  0  0  0
 24 27  1  0  0  0  0
 25 15  1  0  0  0  0
 27 25  2  0  0  0  0
 28 29  1  1  0  0  0
 28 21  1  0  0  0  0
 28 25  1  0  0  0  0
 30 26  1  0  0  0  0
 31 32  1  0  0  0  0
M  END
>  <MODEL>
4

>  <REMARK>
 VINA RESULT:     -11.0      3.094      5.829
  Name = 
  2 active torsions:
  status: ('A' for Active; 'I' for Inactive)
    1  A    between atoms: C_13  and  N_29
    2  A    between atoms: C_16  and  C_27
                            x       y       z     vdW  Elec       q    Type
                         _______ _______ _______ _____ _____    ______ ____

>  <TORSDO>
F 2

$$$$
=
 OpenBabel10262421163D

 32 37  0  0  1  0  0  0  0  0999 V2000
  189.1420  177.5230  140.7580 C   0  0  0  0  0  0  0  0  0  0  0  0
  188.7360  177.4990  143.2390 C   0  0  0  0  0  0  0  0  0  0  0  0
  190.1530  177.5020  139.6790 C   0  0  0  0  0  3  0  0  0  0  0  0
  189.5480  176.9550  142.1000 C   0  0  2  0  0  3  0  0  0  0  0  0
  189.2020  177.4590  144.5040 C   0  0  0  0  0  0  0  0  0  0  0  0
  184.1590  178.5030  144.8660 C   0  0  0  0  0  3  0  0  0  0  0  0
  187.3560  177.9160  142.9360 C   0  0  0  0  0  0  0  0  0  0  0  0
  185.9910  178.2500  146.4290 C   0  0  0  0  0  3  0  0  0  0  0  0
  186.8830  178.0720  145.3660 C   0  0  0  0  0  0  0  0  0  0  0  0
  191.0250  177.0460  142.3650 C   0  0  0  0  0  0  0  0  0  0  0  0
  188.3500  177.9200  145.6700 C   0  0  0  0  0  3  0  0  0  0  0  0
  191.4680  176.9700  143.6840 O   0  0  0  0  0  0  0  0  0  0  0  0
  191.9010  177.1510  141.3620 C   0  0  0  0  0  3  0  0  0  0  0  0
  186.9920  178.1090  141.7010 N   0  0  0  0  0  2  0  0  0  0  0  0
  187.8790  177.9760  140.5710 C   0  0  0  0  0  0  0  0  0  0  0  0
  186.4090  178.1190  144.0430 C   0  0  0  0  0  0  0  0  0  0  0  0
  190.5750  177.0740  144.7360 N   0  0  0  0  0  0  0  0  0  0  0  0
  191.4450  177.3120  139.9660 C   0  0  0  0  0  3  0  0  0  0  0  0
  184.6310  178.4590  146.1800 C   0  0  0  0  0  3  0  0  0  0  0  0
  185.0460  178.3340  143.7990 C   0  0  0  0  0  3  0  0  0  0  0  0
  185.1040  177.5750  138.4510 C   0  0  1  0  0  3  0  0  0  0  0  0
  186.1680  177.7360  135.1980 O   0  0  0  0  0  0  0  0  0  0  0  0
  183.7660  178.0710  137.9340 C   0  0  0  0  0  1  0  0  0  0  0  0
  187.6930  178.6000  136.7720 C   0  0  0  0  0  2  0  0  0  0  0  0
  187.3730  178.4130  139.2450 C   0  0  0  0  0  0  0  0  0  0  0  0
  185.8370  176.8080  137.3370 C   0  0  0  0  0  2  0  0  0  0  0  0
  188.1720  178.3240  138.1720 C   0  0  0  0  0  3  0  0  0  0  0  0
  185.9110  178.7440  139.0400 C   0  0  2  0  0  3  0  0  0  0  0  0
  185.2930  179.2430  140.2600 N   0  0  0  0  0  1  0  0  0  0  0  0
  186.5470  177.7090  136.3560 C   0  0  0  0  0  0  0  0  0  0  0  0
  191.0950  176.9540  146.0900 C   0  0  0  0  0  2  0  0  0  0  0  0
  192.0430  175.9310  146.1390 O   0  0  0  0  0  1  0  0  0  0  0  0
  2  5  1  0  0  0  0
  3 18  2  0  0  0  0
  3  1  1  0  0  0  0
  4  1  1  6  0  0  0
  4 10  1  0  0  0  0
  4  2  1  0  0  0  0
  5 17  1  0  0  0  0
  5 11  2  0  0  0  0
  6 19  1  0  0  0  0
  7  2  2  0  0  0  0
  7 16  1  0  0  0  0
  9 11  1  0  0  0  0
  9  8  1  0  0  0  0
 10 12  1  0  0  0  0
 12 17  1  0  0  0  0
 13 10  2  0  0  0  0
 14  7  1  0  0  0  0
 15  1  2  0  0  0  0
 15 14  1  0  0  0  0
 16  9  2  0  0  0  0
 17 31  1  0  0  0  0
 18 13  1  0  0  0  0
 19  8  2  0  0  0  0
 20 16  1  0  0  0  0
 20  6  2  0  0  0  0
 21 23  1  6  0  0  0
 21 28  1  0  0  0  0
 22 30  2  0  0  0  0
 24 27  1  0  0  0  0
 25 15  1  0  0  0  0
 26 21  1  0  0  0  0
 27 25  2  0  0  0  0
 28 25  1  0  0  0  0
 28 29  1  1  0  0  0
 30 24  1  0  0  0  0
 30 26  1  0  0  0  0
 31 32  1  0  0  0  0
M  END
>  <MODEL>
5

>  <REMARK>
 VINA RESULT:     -10.8      1.265      1.535
  Name = 
  2 active torsions:
  status: ('A' for Active; 'I' for Inactive)
    1  A    between atoms: C_13  and  N_29
    2  A    between atoms: C_16  and  C_27
                            x       y       z     vdW  Elec       q    Type
                         _______ _______ _______ _____ _____    ______ ____

>  <TORSDO>
F 2

$$$$
=
 OpenBabel10262421163D

 32 37  0  0  1  0  0  0  0  0999 V2000
  189.4870  177.4040  142.8740 C   0  0  2  0  0  3  0  0  0  0  0  0
  187.1150  177.8620  143.5690 C   0  0  0  0  0  0  0  0  0  0  0  0
  190.8940  177.2820  143.3150 C   0  0  0  0  0  3  0  0  0  0  0  0
  188.4130  177.1960  143.9190 C   0  0  2  0  0  3  0  0  0  0  0  0
  186.2070  178.1560  144.5230 C   0  0  0  0  0  0  0  0  0  0  0  0
  183.7390  178.5930  140.0090 C   0  0  0  0  0  3  0  0  0  0  0  0
  186.8110  178.0230  142.1370 C   0  0  0  0  0  0  0  0  0  0  0  0
  183.1600  178.9210  142.3380 C   0  0  0  0  0  3  0  0  0  0  0  0
  184.4770  178.6360  142.7130 C   0  0  0  0  0  0  0  0  0  0  0  0
  188.8620  177.5310  145.3140 C   0  0  0  0  0  0  0  0  0  0  0  0
  184.8550  178.7430  144.1670 C   0  0  0  0  0  3  0  0  0  0  0  0
  187.8920  177.7990  146.2770 O   0  0  0  0  0  0  0  0  0  0  0  0
  190.1590  177.5300  145.6400 C   0  0  0  0  0  3  0  0  0  0  0  0
  187.7600  177.8970  141.2530 N   0  0  0  0  0  0  0  0  0  0  0  0
  189.1390  177.6390  141.5860 C   0  0  0  0  0  0  0  0  0  0  0  0
  185.4340  178.3350  141.7270 C   0  0  0  0  0  0  0  0  0  0  0  0
  186.5740  178.0110  145.9120 N   0  0  0  0  0  0  0  0  0  0  0  0
  191.2020  177.3270  144.6150 C   0  0  0  0  0  3  0  0  0  0  0  0
  182.7900  178.8950  140.9900 C   0  0  0  0  0  3  0  0  0  0  0  0
  185.0580  178.3150  140.3760 C   0  0  0  0  0  3  0  0  0  0  0  0
  189.4780  176.9010  138.1670 C   0  0  1  0  0  3  0  0  0  0  0  0
  192.7220  175.9890  137.5500 O   0  0  0  0  0  0  0  0  0  0  0  0
  189.4330  177.3500  136.7170 C   0  0  0  0  0  1  0  0  0  0  0  0
  192.3940  177.1280  139.5870 C   0  0  0  0  0  2  0  0  0  0  0  0
  190.1360  177.7120  140.4880 C   0  0  0  0  0  0  0  0  0  0  0  0
  190.5100  175.7720  138.3270 C   0  0  0  0  0  2  0  0  0  0  0  0
  191.3730  177.2320  140.6870 C   0  0  0  0  0  3  0  0  0  0  0  0
  189.7240  178.1080  139.0870 C   0  0  2  0  0  3  0  0  0  0  0  0
  188.5760  179.0030  139.0930 N   0  0  0  0  0  1  0  0  0  0  0  0
  191.9310  176.2690  138.4340 C   0  0  0  0  0  0  0  0  0  0  0  0
  185.6020  178.2530  146.9680 C   0  0  0  0  0  2  0  0  0  0  0  0
  185.6800  179.5830  147.3810 O   0  0  0  0  0  1  0  0  0  0  0  0
  1  3  1  6  0  0  0
  1  4  1  0  0  0  0
  2  5  1  0  0  0  0
  3 18  2  0  0  0  0
  4  2  1  6  0  0  0
  4 10  1  0  0  0  0
  5 17  1  0  0  0  0
  6 20  2  0  0  0  0
  6 19  1  0  0  0  0
  7  2  2  0  0  0  0
  8  9  1  0  0  0  0
  9 11  1  0  0  0  0
 10 13  2  0  0  0  0
 10 12  1  0  0  0  0
 11  5  2  0  0  0  0
 14 15  2  0  0  0  0
 14  7  1  0  0  0  0
 15  1  1  0  0  0  0
 16  7  1  0  0  0  0
 16  9  2  0  0  0  0
 17 12  1  0  0  0  0
 17 31  1  0  0  0  0
 18 13  1  0  0  0  0
 19  8  2  0  0  0  0
 20 16  1  0  0  0  0
 21 23  1  6  0  0  0
 21 26  1  0  0  0  0
 21 28  1  0  0  0  0
 22 30  2  0  0  0  0
 24 27  1  0  0  0  0
 25 27  2  0  0  0  0
 25 15  1  0  0  0  0
 26 30  1  0  0  0  0
 28 29  1  1  0  0  0
 28 25  1  0  0  0  0
 30 24  1  0  0  0  0
 31 32  1  0  0  0  0
M  END
>  <MODEL>
6

>  <REMARK>
 VINA RESULT:     -10.7      2.131      3.062
  Name = 
  2 active torsions:
  status: ('A' for Active; 'I' for Inactive)
    1  A    between atoms: C_13  and  N_29
    2  A    between atoms: C_16  and  C_27
                            x       y       z     vdW  Elec       q    Type
                         _______ _______ _______ _____ _____    ______ ____

>  <TORSDO>
F 2

$$$$
=
 OpenBabel10262421163D

 32 37  0  0  1  0  0  0  0  0999 V2000
  188.1700  177.8490  142.0890 C   0  0  2  0  0  3  0  0  0  0  0  0
  186.1960  178.1530  143.6160 C   0  0  0  0  0  0  0  0  0  0  0  0
  189.6440  177.7970  141.9840 C   0  0  0  0  0  3  0  0  0  0  0  0
  187.5600  177.5540  143.4420 C   0  0  2  0  0  3  0  0  0  0  0  0
  185.6860  178.3710  144.8460 C   0  0  0  0  0  0  0  0  0  0  0  0
  181.7260  178.7800  141.5580 C   0  0  0  0  0  3  0  0  0  0  0  0
  185.3840  178.3330  142.4000 C   0  0  0  0  0  0  0  0  0  0  0  0
  182.0220  179.0160  143.9500 C   0  0  0  0  0  3  0  0  0  0  0  0
  183.3960  178.7970  143.8090 C   0  0  0  0  0  0  0  0  0  0  0  0
  188.4720  177.8790  144.5920 C   0  0  0  0  0  0  0  0  0  0  0  0
  184.2730  178.8890  145.0300 C   0  0  0  0  0  3  0  0  0  0  0  0
  187.9080  178.0670  145.8530 O   0  0  0  0  0  0  0  0  0  0  0  0
  189.7960  177.9440  144.4270 C   0  0  0  0  0  3  0  0  0  0  0  0
  185.9510  178.2830  141.2280 N   0  0  0  0  0  0  0  0  0  0  0  0
  187.3660  178.0970  141.0270 C   0  0  0  0  0  0  0  0  0  0  0  0
  183.9400  178.5760  142.5320 C   0  0  0  0  0  0  0  0  0  0  0  0
  186.5400  178.2120  146.0000 N   0  0  0  0  0  0  0  0  0  0  0  0
  190.4020  177.8260  143.0850 C   0  0  0  0  0  3  0  0  0  0  0  0
  181.1880  179.0020  142.8280 C   0  0  0  0  0  3  0  0  0  0  0  0
  183.1000  178.5680  141.4090 C   0  0  0  0  0  3  0  0  0  0  0  0
  186.7380  177.0210  137.7400 C   0  0  1  0  0  3  0  0  0  0  0  0
  189.7160  176.8050  136.0610 O   0  0  0  0  0  0  0  0  0  0  0  0
  186.1020  177.2570  136.3820 C   0  0  0  0  0  1  0  0  0  0  0  0
  189.7950  178.0900  138.0330 C   0  0  0  0  0  2  0  0  0  0  0  0
  187.8910  178.2530  139.6460 C   0  0  0  0  0  0  0  0  0  0  0  0
  188.0200  176.1880  137.5740 C   0  0  0  0  0  2  0  0  0  0  0  0
  189.2030  178.0990  139.4170 C   0  0  0  0  0  3  0  0  0  0  0  0
  186.9520  178.3600  138.4640 C   0  0  2  0  0  3  0  0  0  0  0  0
  185.6790  178.9620  138.8370 N   0  0  0  0  0  1  0  0  0  0  0  0
  189.2160  177.0070  137.1540 C   0  0  0  0  0  0  0  0  0  0  0  0
  186.0100  178.3720  147.3460 C   0  0  0  0  0  2  0  0  0  0  0  0
  186.0540  179.7180  147.7100 O   0  0  0  0  0  1  0  0  0  0  0  0
  1  3  1  6  0  0  0
  1  4  1  0  0  0  0
  2  5  1  0  0  0  0
  3 18  2  0  0  0  0
  4  2  1  1  0  0  0
  4 10  1  0  0  0  0
  5 11  2  0  0  0  0
  5 17  1  0  0  0  0
  6 19  1  0  0  0  0
  7 16  1  0  0  0  0
  7  2  2  0  0  0  0
  9  8  1  0  0  0  0
  9 11  1  0  0  0  0
 10 12  1  0  0  0  0
 12 17  1  0  0  0  0
 13 10  2  0  0  0  0
 14  7  1  0  0  0  0
 15 14  2  0  0  0  0
 15  1  1  0  0  0  0
 16  9  2  0  0  0  0
 17 31  1  0  0  0  0
 18 13  1  0  0  0  0
 19  8  2  0  0  0  0
 20  6  2  0  0  0  0
 20 16  1  0  0  0  0
 21 23  1  6  0  0  0
 21 28  1  0  0  0  0
 22 30  2  0  0  0  0
 24 27  1  0  0  0  0
 25 15  1  0  0  0  0
 26 21  1  0  0  0  0
 27 25  2  0  0  0  0
 28 29  1  1  0  0  0
 28 25  1  0  0  0  0
 30 26  1  0  0  0  0
 30 24  1  0  0  0  0
 31 32  1  0  0  0  0
M  END
>  <MODEL>
7

>  <REMARK>
 VINA RESULT:     -10.5      1.590      2.131
  Name = 
  2 active torsions:
  status: ('A' for Active; 'I' for Inactive)
    1  A    between atoms: C_13  and  N_29
    2  A    between atoms: C_16  and  C_27
                            x       y       z     vdW  Elec       q    Type
                         _______ _______ _______ _____ _____    ______ ____

>  <TORSDO>
F 2

$$$$
=
 OpenBabel10262421163D

 32 37  0  0  1  0  0  0  0  0999 V2000
  187.2250  178.2480  139.9990 C   0  0  0  0  0  0  0  0  0  0  0  0
  186.6830  178.2530  142.4540 C   0  0  0  0  0  0  0  0  0  0  0  0
  186.6850  178.2530  138.6230 C   0  0  0  0  0  3  0  0  0  0  0  0
  186.3340  178.7870  141.0960 C   0  0  2  0  0  3  0  0  0  0  0  0
  185.7810  178.2620  143.4570 C   0  0  0  0  0  0  0  0  0  0  0  0
  190.3630  177.3630  145.6590 C   0  0  0  0  0  3  0  0  0  0  0  0
  188.0900  177.8800  142.6840 C   0  0  0  0  0  0  0  0  0  0  0  0
  188.0750  177.5420  146.4330 C   0  0  0  0  0  3  0  0  0  0  0  0
  187.6350  177.7070  145.1160 C   0  0  0  0  0  0  0  0  0  0  0  0
  184.8670  178.6490  140.7960 C   0  0  0  0  0  0  0  0  0  0  0  0
  186.1560  177.8120  144.8550 C   0  0  0  0  0  3  0  0  0  0  0  0
  183.9650  178.6950  141.8570 O   0  0  0  0  0  0  0  0  0  0  0  0
  184.4280  178.5310  139.5390 C   0  0  0  0  0  3  0  0  0  0  0  0
  188.8910  177.7130  141.6710 N   0  0  0  0  0  2  0  0  0  0  0  0
  188.4820  177.8350  140.2930 C   0  0  0  0  0  0  0  0  0  0  0  0
  188.5660  177.6910  144.0620 C   0  0  0  0  0  0  0  0  0  0  0  0
  184.4080  178.6040  143.1650 N   0  0  0  0  0  0  0  0  0  0  0  0
  185.3730  178.4010  138.4110 C   0  0  0  0  0  3  0  0  0  0  0  0
  189.4370  177.3760  146.7050 C   0  0  0  0  0  3  0  0  0  0  0  0
  189.9290  177.5190  144.3400 C   0  0  0  0  0  3  0  0  0  0  0  0
  188.7070  177.3760  136.8160 C   0  0  1  0  0  3  0  0  0  0  0  0
  190.9160  174.8360  136.1770 O   0  0  0  0  0  0  0  0  0  0  0  0
  189.0780  177.9110  135.4430 C   0  0  0  0  0  1  0  0  0  0  0  0
  191.0720  175.7490  138.3440 C   0  0  0  0  0  2  0  0  0  0  0  0
  189.4560  177.4300  139.2480 C   0  0  0  0  0  0  0  0  0  0  0  0
  188.8980  175.8510  136.8470 C   0  0  0  0  0  2  0  0  0  0  0  0
  190.1770  176.3120  139.4150 C   0  0  0  0  0  3  0  0  0  0  0  0
  189.4920  178.1260  137.9050 C   0  0  2  0  0  3  0  0  0  0  0  0
  189.0550  179.5120  138.0030 N   0  0  0  0  0  1  0  0  0  0  0  0
  190.3310  175.4300  137.0670 C   0  0  0  0  0  0  0  0  0  0  0  0
  183.4200  178.6920  144.2300 C   0  0  0  0  0  2  0  0  0  0  0  0
  182.1730  179.0030  143.6870 O   0  0  0  0  0  1  0  0  0  0  0  0
  1 15  2  0  0  0  0
  2  7  2  0  0  0  0
  2  5  1  0  0  0  0
  3  1  1  0  0  0  0
  4  1  1  6  0  0  0
  4  2  1  0  0  0  0
  5 11  2  0  0  0  0
  6 19  1  0  0  0  0
  7 16  1  0  0  0  0
  8 19  2  0  0  0  0
  9  8  1  0  0  0  0
 10  4  1  0  0  0  0
 10 12  1  0  0  0  0
 11  9  1  0  0  0  0
 12 17  1  0  0  0  0
 13 10  2  0  0  0  0
 14  7  1  0  0  0  0
 15 14  1  0  0  0  0
 16 20  1  0  0  0  0
 16  9  2  0  0  0  0
 17  5  1  0  0  0  0
 17 31  1  0  0  0  0
 18  3  2  0  0  0  0
 18 13  1  0  0  0  0
 20  6  2  0  0  0  0
 21 23  1  6  0  0  0
 21 26  1  0  0  0  0
 21 28  1  0  0  0  0
 22 30  2  0  0  0  0
 24 27  1  0  0  0  0
 25 27  2  0  0  0  0
 25 15  1  0  0  0  0
 26 30  1  0  0  0  0
 28 29  1  1  0  0  0
 28 25  1  0  0  0  0
 30 24  1  0  0  0  0
 32 31  1  0  0  0  0
M  END
>  <MODEL>
8

>  <REMARK>
 VINA RESULT:     -10.3      2.627      4.626
  Name = 
  2 active torsions:
  status: ('A' for Active; 'I' for Inactive)
    1  A    between atoms: C_13  and  N_29
    2  A    between atoms: C_16  and  C_27
                            x       y       z     vdW  Elec       q    Type
                         _______ _______ _______ _____ _____    ______ ____

>  <TORSDO>
F 2

$$$$
=
 OpenBabel10262421163D

 32 37  0  0  1  0  0  0  0  0999 V2000
  186.2400  178.5440  139.7070 C   0  0  0  0  0  0  0  0  0  0  0  0
  186.9240  178.2530  142.1090 C   0  0  0  0  0  0  0  0  0  0  0  0
  185.1170  178.7420  138.7660 C   0  0  0  0  0  3  0  0  0  0  0  0
  186.0240  178.9660  141.1440 C   0  0  2  0  0  3  0  0  0  0  0  0
  186.6070  178.1620  143.4170 C   0  0  0  0  0  0  0  0  0  0  0  0
  191.5860  176.8440  143.0550 C   0  0  0  0  0  3  0  0  0  0  0  0
  188.2330  177.8090  141.5990 C   0  0  0  0  0  0  0  0  0  0  0  0
  189.9600  176.9950  144.8440 C   0  0  0  0  0  3  0  0  0  0  0  0
  188.9670  177.3410  143.9220 C   0  0  0  0  0  0  0  0  0  0  0  0
  184.5830  178.9150  141.5710 C   0  0  0  0  0  0  0  0  0  0  0  0
  187.5550  177.5260  144.4130 C   0  0  0  0  0  3  0  0  0  0  0  0
  184.2970  178.8530  142.9340 O   0  0  0  0  0  0  0  0  0  0  0  0
  183.5950  178.9720  140.6740 C   0  0  0  0  0  3  0  0  0  0  0  0
  188.4430  177.7480  140.3150 N   0  0  0  0  0  2  0  0  0  0  0  0
  187.4440  178.0580  139.3210 C   0  0  0  0  0  0  0  0  0  0  0  0
  189.2840  177.4300  142.5550 C   0  0  0  0  0  0  0  0  0  0  0  0
  185.2950  178.5820  143.8530 N   0  0  0  0  0  0  0  0  0  0  0  0
  183.8800  178.9580  139.2250 C   0  0  0  0  0  3  0  0  0  0  0  0
  191.2680  176.7530  144.4120 C   0  0  0  0  0  3  0  0  0  0  0  0
  190.5960  177.1820  142.1270 C   0  0  0  0  0  3  0  0  0  0  0  0
  188.6000  175.4330  137.2900 C   0  0  1  0  0  3  0  0  0  0  0  0
  190.4440  176.7530  134.7220 O   0  0  0  0  0  0  0  0  0  0  0  0
  188.3090  174.2730  136.3530 C   0  0  0  0  0  1  0  0  0  0  0  0
  189.0540  178.3010  135.8270 C   0  0  0  0  0  2  0  0  0  0  0  0
  187.7700  177.7590  137.9030 C   0  0  0  0  0  0  0  0  0  0  0  0
  189.9500  176.0700  136.9210 C   0  0  0  0  0  2  0  0  0  0  0  0
  188.5530  178.6020  137.2150 C   0  0  0  0  0  3  0  0  0  0  0  0
  187.4220  176.4200  137.2900 C   0  0  2  0  0  3  0  0  0  0  0  0
  186.2450  175.8300  137.9110 N   0  0  0  0  0  1  0  0  0  0  0  0
  189.8630  177.0270  135.7580 C   0  0  0  0  0  0  0  0  0  0  0  0
  184.9390  178.5640  145.2640 C   0  0  0  0  0  2  0  0  0  0  0  0
  183.6250  179.0030  145.4210 O   0  0  0  0  0  1  0  0  0  0  0  0
  2  5  1  0  0  0  0
  3 18  2  0  0  0  0
  3  1  1  0  0  0  0
  4  1  1  6  0  0  0
  4 10  1  0  0  0  0
  4  2  1  0  0  0  0
  5 17  1  0  0  0  0
  5 11  2  0  0  0  0
  6 19  1  0  0  0  0
  7  2  2  0  0  0  0
  7 16  1  0  0  0  0
  9 11  1  0  0  0  0
  9  8  1  0  0  0  0
 10 12  1  0  0  0  0
 12 17  1  0  0  0  0
 13 10  2  0  0  0  0
 14  7  1  0  0  0  0
 15  1  2  0  0  0  0
 15 14  1  0  0  0  0
 16  9  2  0  0  0  0
 17 31  1  0  0  0  0
 18 13  1  0  0  0  0
 19  8  2  0  0  0  0
 20 16  1  0  0  0  0
 20  6  2  0  0  0  0
 21 23  1  6  0  0  0
 21 28  1  0  0  0  0
 22 30  2  0  0  0  0
 24 27  1  0  0  0  0
 25 15  1  0  0  0  0
 26 21  1  0  0  0  0
 27 25  2  0  0  0  0
 28 25  1  0  0  0  0
 28 29  1  1  0  0  0
 30 24  1  0  0  0  0
 30 26  1  0  0  0  0
 31 32  1  0  0  0  0
M  END
>  <MODEL>
9

>  <REMARK>
 VINA RESULT:     -10.2      2.376      4.728
  Name = 
  2 active torsions:
  status: ('A' for Active; 'I' for Inactive)
    1  A    between atoms: C_13  and  N_29
    2  A    between atoms: C_16  and  C_27
                            x       y       z     vdW  Elec       q    Type
                         _______ _______ _______ _____ _____    ______ ____

>  <TORSDO>
F 2

$$$$
