=
 OpenBabel10262419313D

 31 35  0  0  1  0  0  0  0  0999 V2000
  184.9710  178.5940  144.3890 C   0  0  0  0  0  0  0  0  0  0  0  0
  188.4690  177.6980  143.3570 C   0  0  0  0  0  0  0  0  0  0  0  0
  189.2020  177.3530  144.6210 C   0  0  0  0  0  0  0  0  0  0  0  0
  189.2830  176.8940  147.0130 C   0  0  0  0  0  0  0  0  0  0  0  0
  187.1040  178.0980  143.3150 C   0  0  0  0  0  0  0  0  0  0  0  0
  184.4110  178.9160  143.1520 C   0  0  0  0  0  3  0  0  0  0  0  0
  188.5540  177.1580  145.8510 C   0  0  0  0  0  3  0  0  0  0  0  0
  188.5620  178.0050  140.9350 C   0  0  0  0  0  0  0  0  0  0  0  0
  184.0030  178.6950  145.8430 Cl  0  0  0  0  0  0  0  0  0  0  0  0
  191.2790  177.4050  143.3680 O   0  0  0  0  0  0  0  0  0  0  0  0
  188.6390  176.7130  148.1900 F   0  0  0  0  0  0  0  0  0  0  0  0
  187.2580  178.3780  140.9330 N   0  0  0  0  0  0  0  0  0  0  0  0
  189.1980  177.6720  142.1430 C   0  0  0  0  0  0  0  0  0  0  0  0
  186.3060  178.1910  144.4670 C   0  0  0  0  0  3  0  0  0  0  0  0
  190.6760  176.8310  146.9620 C   0  0  0  0  0  3  0  0  0  0  0  0
  186.5230  178.4350  142.0680 C   0  0  0  0  0  0  0  0  0  0  0  0
  185.1860  178.8370  141.9950 C   0  0  0  0  0  3  0  0  0  0  0  0
  190.6240  177.1850  142.1220 C   0  0  0  0  0  2  0  0  0  0  0  0
  190.6060  177.2540  144.5790 C   0  0  0  0  0  0  0  0  0  0  0  0
  191.3370  177.0120  145.7460 C   0  0  0  0  0  3  0  0  0  0  0  0
  189.3020  177.9820  139.6340 C   0  0  0  0  0  2  0  0  0  0  0  0
  188.9990  179.2700  137.6310 O   0  0  0  0  0  1  0  0  0  0  0  0
  188.3780  178.3530  138.4820 C   0  0  1  0  0  3  0  0  0  0  0  0
  186.9830  174.5430  136.9960 C   0  0  1  0  0  3  0  0  0  0  0  0
  188.8300  176.1250  137.5310 C   0  0  0  0  0  3  0  0  0  0  0  0
  185.7320  177.9150  137.4590 O   0  0  0  0  0  0  0  0  0  0  0  0
  186.6420  173.4350  136.2440 F   0  0  0  0  0  0  0  0  0  0  0  0
  188.4530  174.8850  136.7700 C   0  0  0  0  0  2  0  0  0  0  0  0
  186.5560  176.9800  137.2830 C   0  0  0  0  0  0  0  0  0  0  0  0
  187.9610  177.1270  137.7240 C   0  0  0  0  0  0  0  0  0  0  0  0
  186.1060  175.7260  136.5910 C   0  0  0  0  0  2  0  0  0  0  0  0
  1 14  1  0  0  0  0
  1  9  1  0  0  0  0
  2  3  1  0  0  0  0
  3  7  1  0  0  0  0
  4 11  1  0  0  0  0
  5  2  1  0  0  0  0
  5 14  2  0  0  0  0
  6  1  2  0  0  0  0
  7  4  2  0  0  0  0
  8 13  1  0  0  0  0
 10 19  1  0  0  0  0
 12  8  2  0  0  0  0
 12 16  1  0  0  0  0
 13  2  2  0  0  0  0
 15  4  1  0  0  0  0
 16  5  1  0  0  0  0
 17 16  2  0  0  0  0
 17  6  1  0  0  0  0
 18 13  1  0  0  0  0
 18 10  1  0  0  0  0
 19  3  2  0  0  0  0
 19 20  1  0  0  0  0
 20 15  2  0  0  0  0
 21  8  1  0  0  0  0
 23 22  1  6  0  0  0
 23 21  1  0  0  0  0
 24 27  1  6  0  0  0
 25 30  2  0  0  0  0
 28 24  1  0  0  0  0
 28 25  1  0  0  0  0
 29 26  2  0  0  0  0
 29 30  1  0  0  0  0
 30 23  1  0  0  0  0
 31 24  1  0  0  0  0
 31 29  1  0  0  0  0
M  END
>  <MODEL>
1

>  <REMARK>
 VINA RESULT:     -10.6      0.000      0.000
  Name = 
  3 active torsions:
  status: ('A' for Active; 'I' for Inactive)
    1  A    between atoms: C_9  and  C_22
    2  A    between atoms: C_9  and  C_23
    3  A    between atoms: C_15  and  C_23
                            x       y       z     vdW  Elec       q    Type
                         _______ _______ _______ _____ _____    ______ ____

>  <TORSDO>
F 3

$$$$
=
 OpenBabel10262419313D

 31 35  0  0  1  0  0  0  0  0999 V2000
  185.2300  178.6000  143.9790 C   0  0  0  0  0  0  0  0  0  0  0  0
  188.7740  177.6140  143.2250 C   0  0  0  0  0  0  0  0  0  0  0  0
  189.4070  177.2870  144.5460 C   0  0  0  0  0  0  0  0  0  0  0  0
  189.3060  176.8850  146.9480 C   0  0  0  0  0  0  0  0  0  0  0  0
  187.4240  178.0380  143.0750 C   0  0  0  0  0  0  0  0  0  0  0  0
  184.7670  178.9020  142.6990 C   0  0  0  0  0  3  0  0  0  0  0  0
  188.6680  177.1340  145.7310 C   0  0  0  0  0  3  0  0  0  0  0  0
  189.0470  177.8590  140.8090 C   0  0  0  0  0  0  0  0  0  0  0  0
  184.1620  178.7560  145.3580 Cl  0  0  0  0  0  0  0  0  0  0  0  0
  191.5690  177.2680  143.4470 O   0  0  0  0  0  0  0  0  0  0  0  0
  188.5750  176.7460  148.0800 F   0  0  0  0  0  0  0  0  0  0  0  0
  187.7550  178.2560  140.7040 N   0  0  0  0  0  0  0  0  0  0  0  0
  189.5870  177.5440  142.0680 C   0  0  0  0  0  0  0  0  0  0  0  0
  186.5470  178.1750  144.1640 C   0  0  0  0  0  3  0  0  0  0  0  0
  190.6980  176.7950  147.0000 C   0  0  0  0  0  3  0  0  0  0  0  0
  186.9410  178.3540  141.7820 C   0  0  0  0  0  0  0  0  0  0  0  0
  185.6220  178.7800  141.6030 C   0  0  0  0  0  3  0  0  0  0  0  0
  191.0010  177.0300  142.1620 C   0  0  0  0  0  2  0  0  0  0  0  0
  190.8080  177.1600  144.6090 C   0  0  0  0  0  0  0  0  0  0  0  0
  191.4480  176.9330  145.8310 C   0  0  0  0  0  3  0  0  0  0  0  0
  189.8780  177.7900  139.5670 C   0  0  0  0  0  2  0  0  0  0  0  0
  188.6060  176.7180  137.8360 O   0  0  0  0  0  1  0  0  0  0  0  0
  189.5950  176.5050  138.8010 C   0  0  1  0  0  3  0  0  0  0  0  0
  193.3410  174.6750  137.6640 C   0  0  1  0  0  3  0  0  0  0  0  0
  191.9870  176.6850  138.2360 C   0  0  0  0  0  3  0  0  0  0  0  0
  189.7890  173.9640  137.4800 O   0  0  0  0  0  0  0  0  0  0  0  0
  194.4890  174.2450  137.0290 F   0  0  0  0  0  0  0  0  0  0  0  0
  193.2610  176.1980  137.6050 C   0  0  0  0  0  2  0  0  0  0  0  0
  190.8530  174.6340  137.5530 C   0  0  0  0  0  0  0  0  0  0  0  0
  190.8480  175.9810  138.1650 C   0  0  0  0  0  0  0  0  0  0  0  0
  192.1190  174.0650  136.9800 C   0  0  0  0  0  2  0  0  0  0  0  0
  1 14  1  0  0  0  0
  1  9  1  0  0  0  0
  2  3  1  0  0  0  0
  3 19  2  0  0  0  0
  3  7  1  0  0  0  0
  4 15  1  0  0  0  0
  4 11  1  0  0  0  0
  5  2  1  0  0  0  0
  5 14  2  0  0  0  0
  6  1  2  0  0  0  0
  7  4  2  0  0  0  0
  8 13  1  0  0  0  0
 10 19  1  0  0  0  0
 12  8  2  0  0  0  0
 12 16  1  0  0  0  0
 13 18  1  0  0  0  0
 13  2  2  0  0  0  0
 16  5  1  0  0  0  0
 17 16  2  0  0  0  0
 17  6  1  0  0  0  0
 18 10  1  0  0  0  0
 19 20  1  0  0  0  0
 20 15  2  0  0  0  0
 21  8  1  0  0  0  0
 23 22  1  6  0  0  0
 23 21  1  0  0  0  0
 24 27  1  6  0  0  0
 26 29  2  0  0  0  0
 28 24  1  0  0  0  0
 28 25  1  0  0  0  0
 29 30  1  0  0  0  0
 30 25  2  0  0  0  0
 30 23  1  0  0  0  0
 31 29  1  0  0  0  0
 31 24  1  0  0  0  0
M  END
>  <MODEL>
2

>  <REMARK>
 VINA RESULT:     -10.6      2.423      2.897
  Name = 
  3 active torsions:
  status: ('A' for Active; 'I' for Inactive)
    1  A    between atoms: C_9  and  C_22
    2  A    between atoms: C_9  and  C_23
    3  A    between atoms: C_15  and  C_23
                            x       y       z     vdW  Elec       q    Type
                         _______ _______ _______ _____ _____    ______ ____

>  <TORSDO>
F 3

$$$$
=
 OpenBabel10262419313D

 31 35  0  0  1  0  0  0  0  0999 V2000
  185.0250  178.5450  144.2850 C   0  0  0  0  0  0  0  0  0  0  0  0
  188.5700  177.3180  144.4440 C   0  0  0  0  0  0  0  0  0  0  0  0
  188.9690  177.3780  145.8900 C   0  0  0  0  0  0  0  0  0  0  0  0
  188.4720  177.6930  148.2550 C   0  0  0  0  0  0  0  0  0  0  0  0
  187.2910  177.7050  143.9560 C   0  0  0  0  0  0  0  0  0  0  0  0
  184.7850  178.4700  142.9130 C   0  0  0  0  0  3  0  0  0  0  0  0
  188.0470  177.5890  146.9280 C   0  0  0  0  0  3  0  0  0  0  0  0
  189.2290  176.8460  142.1380 C   0  0  0  0  0  0  0  0  0  0  0  0
  183.7690  179.1130  145.3640 Cl  0  0  0  0  0  0  0  0  0  0  0  0
  191.2690  177.0020  145.2170 O   0  0  0  0  0  0  0  0  0  0  0  0
  187.5670  177.9020  149.2410 F   0  0  0  0  0  0  0  0  0  0  0  0
  187.9970  177.2190  141.7110 N   0  0  0  0  0  0  0  0  0  0  0  0
  189.5460  176.9000  143.5070 C   0  0  0  0  0  0  0  0  0  0  0  0
  186.2670  178.1680  144.8000 C   0  0  0  0  0  3  0  0  0  0  0  0
  189.8300  177.5970  148.5620 C   0  0  0  0  0  3  0  0  0  0  0  0
  187.0350  177.6400  142.5640 C   0  0  0  0  0  0  0  0  0  0  0  0
  185.7900  178.0200  142.0550 C   0  0  0  0  0  3  0  0  0  0  0  0
  190.8920  176.4100  143.9770 C   0  0  0  0  0  2  0  0  0  0  0  0
  190.3320  177.2500  146.2180 C   0  0  0  0  0  0  0  0  0  0  0  0
  190.7590  177.3760  147.5430 C   0  0  0  0  0  3  0  0  0  0  0  0
  190.2360  176.4040  141.1230 C   0  0  0  0  0  2  0  0  0  0  0  0
  192.1530  177.7500  140.6000 O   0  0  0  0  0  1  0  0  0  0  0  0
  190.7860  177.5980  140.3550 C   0  0  1  0  0  3  0  0  0  0  0  0
  189.5140  176.6300  136.3410 C   0  0  1  0  0  3  0  0  0  0  0  0
  191.1990  176.5340  138.1710 C   0  0  0  0  0  3  0  0  0  0  0  0
  188.8070  179.0930  138.9080 O   0  0  0  0  0  0  0  0  0  0  0  0
  189.3390  176.5190  134.9750 F   0  0  0  0  0  0  0  0  0  0  0  0
  190.9720  176.3570  136.6970 C   0  0  0  0  0  2  0  0  0  0  0  0
  189.4460  178.2320  138.2470 C   0  0  0  0  0  0  0  0  0  0  0  0
  190.5260  177.4470  138.8860 C   0  0  0  0  0  0  0  0  0  0  0  0
  189.1230  178.0360  136.7940 C   0  0  0  0  0  2  0  0  0  0  0  0
  1 14  1  0  0  0  0
  1  9  1  0  0  0  0
  2  3  1  0  0  0  0
  3 19  2  0  0  0  0
  3  7  1  0  0  0  0
  4 15  1  0  0  0  0
  4 11  1  0  0  0  0
  5  2  1  0  0  0  0
  5 14  2  0  0  0  0
  6  1  2  0  0  0  0
  7  4  2  0  0  0  0
  8 13  1  0  0  0  0
 10 19  1  0  0  0  0
 12  8  2  0  0  0  0
 12 16  1  0  0  0  0
 13 18  1  0  0  0  0
 13  2  2  0  0  0  0
 16  5  1  0  0  0  0
 17 16  2  0  0  0  0
 17  6  1  0  0  0  0
 18 10  1  0  0  0  0
 19 20  1  0  0  0  0
 20 15  2  0  0  0  0
 21  8  1  0  0  0  0
 23 22  1  6  0  0  0
 23 21  1  0  0  0  0
 24 27  1  6  0  0  0
 24 28  1  0  0  0  0
 24 31  1  0  0  0  0
 25 30  2  0  0  0  0
 28 25  1  0  0  0  0
 29 30  1  0  0  0  0
 29 26  2  0  0  0  0
 30 23  1  0  0  0  0
 31 29  1  0  0  0  0
M  END
>  <MODEL>
3

>  <REMARK>
 VINA RESULT:     -10.4      1.821      2.330
  Name = 
  3 active torsions:
  status: ('A' for Active; 'I' for Inactive)
    1  A    between atoms: C_9  and  C_22
    2  A    between atoms: C_9  and  C_23
    3  A    between atoms: C_15  and  C_23
                            x       y       z     vdW  Elec       q    Type
                         _______ _______ _______ _____ _____    ______ ____

>  <TORSDO>
F 3

$$$$
=
 OpenBabel10262419313D

 31 35  0  0  1  0  0  0  0  0999 V2000
  190.2650  176.7570  145.6220 C   0  0  0  0  0  0  0  0  0  0  0  0
  187.7940  177.9580  143.0630 C   0  0  0  0  0  0  0  0  0  0  0  0
  186.5200  178.2310  143.8090 C   0  0  0  0  0  0  0  0  0  0  0  0
  185.2290  178.4750  145.8620 C   0  0  0  0  0  0  0  0  0  0  0  0
  188.9850  177.4800  143.6770 C   0  0  0  0  0  0  0  0  0  0  0  0
  191.3770  176.5140  144.8160 C   0  0  0  0  0  3  0  0  0  0  0  0
  186.4480  178.2730  145.2110 C   0  0  0  0  0  3  0  0  0  0  0  0
  188.9500  177.8790  140.9130 C   0  0  0  0  0  0  0  0  0  0  0  0
  190.3520  176.4630  147.3460 Cl  0  0  0  0  0  0  0  0  0  0  0  0
  185.3750  178.4230  141.6780 O   0  0  0  0  0  0  0  0  0  0  0  0
  185.1820  178.5070  147.2150 F   0  0  0  0  0  0  0  0  0  0  0  0
  190.0690  177.4280  141.5320 N   0  0  0  0  0  0  0  0  0  0  0  0
  187.7880  178.1400  141.6590 C   0  0  0  0  0  0  0  0  0  0  0  0
  189.0800  177.2320  145.0560 C   0  0  0  0  0  3  0  0  0  0  0  0
  184.0580  178.6280  145.1180 C   0  0  0  0  0  3  0  0  0  0  0  0
  190.1200  177.2220  142.8690 C   0  0  0  0  0  0  0  0  0  0  0  0
  191.3030  176.7460  143.4410 C   0  0  0  0  0  3  0  0  0  0  0  0
  186.5770  178.7140  140.9700 C   0  0  0  0  0  2  0  0  0  0  0  0
  185.3350  178.4210  143.0710 C   0  0  0  0  0  0  0  0  0  0  0  0
  184.1120  178.6010  143.7230 C   0  0  0  0  0  3  0  0  0  0  0  0
  188.9800  178.0660  139.4280 C   0  0  0  0  0  2  0  0  0  0  0  0
  187.6920  176.9320  137.7500 O   0  0  0  0  0  1  0  0  0  0  0  0
  188.6870  176.7530  138.7140 C   0  0  1  0  0  3  0  0  0  0  0  0
  192.3650  174.7840  137.5910 C   0  0  1  0  0  3  0  0  0  0  0  0
  191.1070  176.8270  138.2570 C   0  0  0  0  0  3  0  0  0  0  0  0
  188.7890  174.3060  137.2180 O   0  0  0  0  0  0  0  0  0  0  0  0
  193.5130  174.3300  136.9710 F   0  0  0  0  0  0  0  0  0  0  0  0
  192.3760  176.3090  137.6420 C   0  0  0  0  0  2  0  0  0  0  0  0
  189.8860  174.9030  137.3810 C   0  0  0  0  0  0  0  0  0  0  0  0
  189.9340  176.2010  138.0900 C   0  0  0  0  0  0  0  0  0  0  0  0
  191.1400  174.3000  136.8170 C   0  0  0  0  0  2  0  0  0  0  0  0
  1  9  1  0  0  0  0
  2  5  1  0  0  0  0
  2  3  1  0  0  0  0
  3  7  1  0  0  0  0
  4 11  1  0  0  0  0
  5 14  2  0  0  0  0
  6  1  2  0  0  0  0
  7  4  2  0  0  0  0
  8 12  2  0  0  0  0
  8 13  1  0  0  0  0
 10 19  1  0  0  0  0
 12 16  1  0  0  0  0
 13  2  2  0  0  0  0
 14  1  1  0  0  0  0
 15  4  1  0  0  0  0
 16 17  2  0  0  0  0
 16  5  1  0  0  0  0
 17  6  1  0  0  0  0
 18 13  1  0  0  0  0
 18 10  1  0  0  0  0
 19 20  1  0  0  0  0
 19  3  2  0  0  0  0
 20 15  2  0  0  0  0
 21  8  1  0  0  0  0
 23 22  1  6  0  0  0
 23 21  1  0  0  0  0
 24 27  1  6  0  0  0
 24 28  1  0  0  0  0
 26 29  2  0  0  0  0
 28 25  1  0  0  0  0
 29 30  1  0  0  0  0
 30 25  2  0  0  0  0
 30 23  1  0  0  0  0
 31 29  1  0  0  0  0
 31 24  1  0  0  0  0
M  END
>  <MODEL>
4

>  <REMARK>
 VINA RESULT:     -10.0      2.716      4.596
  Name = 
  3 active torsions:
  status: ('A' for Active; 'I' for Inactive)
    1  A    between atoms: C_9  and  C_22
    2  A    between atoms: C_9  and  C_23
    3  A    between atoms: C_15  and  C_23
                            x       y       z     vdW  Elec       q    Type
                         _______ _______ _______ _____ _____    ______ ____

>  <TORSDO>
F 3

$$$$
=
 OpenBabel10262419313D

 31 35  0  0  1  0  0  0  0  0999 V2000
  186.7750  177.8870  146.9690 C   0  0  0  0  0  0  0  0  0  0  0  0
  187.5340  177.9010  143.2920 C   0  0  0  0  0  0  0  0  0  0  0  0
  188.9640  177.4650  143.1580 C   0  0  0  0  0  0  0  0  0  0  0  0
  191.0430  176.5740  144.0650 C   0  0  0  0  0  0  0  0  0  0  0  0
  186.8560  178.0310  144.5360 C   0  0  0  0  0  0  0  0  0  0  0  0
  185.4520  178.3290  146.9630 C   0  0  0  0  0  3  0  0  0  0  0  0
  189.6970  176.9130  144.2210 C   0  0  0  0  0  3  0  0  0  0  0  0
  185.5030  178.6860  142.1820 C   0  0  0  0  0  0  0  0  0  0  0  0
  187.5680  177.5150  148.4840 Cl  0  0  0  0  0  0  0  0  0  0  0  0
  188.9040  178.1590  140.8340 O   0  0  0  0  0  0  0  0  0  0  0  0
  191.7330  176.0470  145.1050 F   0  0  0  0  0  0  0  0  0  0  0  0
  184.8880  178.7930  143.3860 N   0  0  0  0  0  0  0  0  0  0  0  0
  186.8380  178.2530  142.1090 C   0  0  0  0  0  0  0  0  0  0  0  0
  187.4690  177.7420  145.7660 C   0  0  0  0  0  3  0  0  0  0  0  0
  191.6800  176.7930  142.8440 C   0  0  0  0  0  3  0  0  0  0  0  0
  185.5140  178.4850  144.5460 C   0  0  0  0  0  0  0  0  0  0  0  0
  184.8240  178.6280  145.7530 C   0  0  0  0  0  3  0  0  0  0  0  0
  187.4840  178.0640  140.7610 C   0  0  0  0  0  2  0  0  0  0  0  0
  189.6110  177.6490  141.9210 C   0  0  0  0  0  0  0  0  0  0  0  0
  190.9640  177.3300  141.7720 C   0  0  0  0  0  3  0  0  0  0  0  0
  184.7380  179.0590  140.9520 C   0  0  0  0  0  2  0  0  0  0  0  0
  182.3680  178.6860  140.8630 O   0  0  0  0  0  1  0  0  0  0  0  0
  183.6100  178.0680  140.6970 C   0  0  1  0  0  3  0  0  0  0  0  0
  184.5270  175.9500  137.0440 C   0  0  1  0  0  3  0  0  0  0  0  0
  184.5500  178.0260  138.4190 C   0  0  0  0  0  3  0  0  0  0  0  0
  182.2360  175.6970  139.8440 O   0  0  0  0  0  0  0  0  0  0  0  0
  184.6000  175.4630  135.7540 F   0  0  0  0  0  0  0  0  0  0  0  0
  184.6880  177.4670  137.0310 C   0  0  0  0  0  2  0  0  0  0  0  0
  183.0120  176.2210  139.0030 C   0  0  0  0  0  0  0  0  0  0  0  0
  183.7270  177.4770  139.3230 C   0  0  0  0  0  0  0  0  0  0  0  0
  183.1790  175.5760  137.6570 C   0  0  0  0  0  2  0  0  0  0  0  0
  1  9  1  0  0  0  0
  2  5  1  0  0  0  0
  3  2  1  0  0  0  0
  3  7  1  0  0  0  0
  4  7  2  0  0  0  0
  4 11  1  0  0  0  0
  5 16  2  0  0  0  0
  5 14  1  0  0  0  0
  6  1  1  0  0  0  0
  8 12  2  0  0  0  0
 10 19  1  0  0  0  0
 12 16  1  0  0  0  0
 13  8  1  0  0  0  0
 13  2  2  0  0  0  0
 14  1  2  0  0  0  0
 15  4  1  0  0  0  0
 16 17  1  0  0  0  0
 17  6  2  0  0  0  0
 18 10  1  0  0  0  0
 18 13  1  0  0  0  0
 19  3  2  0  0  0  0
 20 19  1  0  0  0  0
 20 15  2  0  0  0  0
 21  8  1  0  0  0  0
 23 22  1  6  0  0  0
 23 21  1  0  0  0  0
 24 27  1  6  0  0  0
 24 31  1  0  0  0  0
 25 30  2  0  0  0  0
 28 24  1  0  0  0  0
 28 25  1  0  0  0  0
 29 30  1  0  0  0  0
 29 26  2  0  0  0  0
 30 23  1  0  0  0  0
 31 29  1  0  0  0  0
M  END
>  <MODEL>
5

>  <REMARK>
 VINA RESULT:      -9.7      2.542      3.786
  Name = 
  3 active torsions:
  status: ('A' for Active; 'I' for Inactive)
    1  A    between atoms: C_9  and  C_22
    2  A    between atoms: C_9  and  C_23
    3  A    between atoms: C_15  and  C_23
                            x       y       z     vdW  Elec       q    Type
                         _______ _______ _______ _____ _____    ______ ____

>  <TORSDO>
F 3

$$$$
=
 OpenBabel10262419313D

 31 35  0  0  1  0  0  0  0  0999 V2000
  190.4430  177.6530  140.6820 C   0  0  0  0  0  0  0  0  0  0  0  0
  187.5900  177.9970  143.0990 C   0  0  0  0  0  0  0  0  0  0  0  0
  188.1630  177.7320  144.4610 C   0  0  0  0  0  0  0  0  0  0  0  0
  190.0290  177.3580  145.9840 C   0  0  0  0  0  0  0  0  0  0  0  0
  188.3510  177.9600  141.8980 C   0  0  0  0  0  0  0  0  0  0  0  0
  189.7890  177.8880  139.4730 C   0  0  0  0  0  3  0  0  0  0  0  0
  189.5430  177.6620  144.7100 C   0  0  0  0  0  3  0  0  0  0  0  0
  185.6110  178.4800  141.7490 C   0  0  0  0  0  0  0  0  0  0  0  0
  192.1600  177.3120  140.6970 Cl  0  0  0  0  0  0  0  0  0  0  0  0
  185.9010  177.6100  145.3300 O   0  0  0  0  0  0  0  0  0  0  0  0
  191.3640  177.2910  146.2010 F   0  0  0  0  0  0  0  0  0  0  0  0
  186.3690  178.4410  140.6260 N   0  0  0  0  0  0  0  0  0  0  0  0
  186.1990  178.2460  143.0040 C   0  0  0  0  0  0  0  0  0  0  0  0
  189.7290  177.6860  141.8810 C   0  0  0  0  0  3  0  0  0  0  0  0
  189.1380  177.1080  147.0280 C   0  0  0  0  0  3  0  0  0  0  0  0
  187.6990  178.1920  140.6610 C   0  0  0  0  0  0  0  0  0  0  0  0
  188.4190  178.1560  139.4630 C   0  0  0  0  0  3  0  0  0  0  0  0
  185.3610  178.3680  144.2510 C   0  0  0  0  0  2  0  0  0  0  0  0
  187.2760  177.5110  145.5330 C   0  0  0  0  0  0  0  0  0  0  0  0
  187.7620  177.1840  146.8020 C   0  0  0  0  0  3  0  0  0  0  0  0
  184.1460  178.7510  141.6150 C   0  0  0  0  0  2  0  0  0  0  0  0
  183.1020  176.8880  140.5200 O   0  0  0  0  0  1  0  0  0  0  0  0
  183.6080  178.1740  140.3130 C   0  0  1  0  0  3  0  0  0  0  0  0
  180.6190  181.1310  139.3190 C   0  0  1  0  0  3  0  0  0  0  0  0
  181.2560  178.8040  139.9360 C   0  0  0  0  0  3  0  0  0  0  0  0
  184.1680  180.5670  138.8300 O   0  0  0  0  0  0  0  0  0  0  0  0
  179.6320  181.9030  138.7400 F   0  0  0  0  0  0  0  0  0  0  0  0
  180.1710  179.6730  139.3650 C   0  0  0  0  0  2  0  0  0  0  0  0
  182.9520  180.3080  139.0270 C   0  0  0  0  0  0  0  0  0  0  0  0
  182.5540  179.0690  139.7330 C   0  0  0  0  0  0  0  0  0  0  0  0
  181.9070  181.2530  138.5080 C   0  0  0  0  0  2  0  0  0  0  0  0
  1  9  1  0  0  0  0
  1 14  1  0  0  0  0
  2  3  1  0  0  0  0
  3  7  2  0  0  0  0
  3 19  1  0  0  0  0
  4 11  1  0  0  0  0
  4 15  2  0  0  0  0
  5  2  1  0  0  0  0
  6  1  2  0  0  0  0
  7  4  1  0  0  0  0
  8 13  1  0  0  0  0
 10 19  1  0  0  0  0
 12 16  1  0  0  0  0
 12  8  2  0  0  0  0
 13  2  2  0  0  0  0
 13 18  1  0  0  0  0
 14  5  2  0  0  0  0
 16  5  1  0  0  0  0
 17  6  1  0  0  0  0
 17 16  2  0  0  0  0
 18 10  1  0  0  0  0
 19 20  2  0  0  0  0
 20 15  1  0  0  0  0
 21  8  1  0  0  0  0
 23 22  1  1  0  0  0
 23 21  1  0  0  0  0
 24 27  1  6  0  0  0
 24 28  1  0  0  0  0
 26 29  2  0  0  0  0
 28 25  1  0  0  0  0
 29 30  1  0  0  0  0
 30 25  2  0  0  0  0
 30 23  1  0  0  0  0
 31 29  1  0  0  0  0
 31 24  1  0  0  0  0
M  END
>  <MODEL>
6

>  <REMARK>
 VINA RESULT:      -9.5      3.850      5.617
  Name = 
  3 active torsions:
  status: ('A' for Active; 'I' for Inactive)
    1  A    between atoms: C_9  and  C_22
    2  A    between atoms: C_9  and  C_23
    3  A    between atoms: C_15  and  C_23
                            x       y       z     vdW  Elec       q    Type
                         _______ _______ _______ _____ _____    ______ ____

>  <TORSDO>
F 3

$$$$
=
 OpenBabel10262419313D

 31 35  0  0  1  0  0  0  0  0999 V2000
  188.5970  177.4020  146.8130 C   0  0  0  0  0  0  0  0  0  0  0  0
  186.8750  178.2000  143.5730 C   0  0  0  0  0  0  0  0  0  0  0  0
  187.8460  177.8460  142.4850 C   0  0  0  0  0  0  0  0  0  0  0  0
  189.9210  176.8500  141.6830 C   0  0  0  0  0  0  0  0  0  0  0  0
  187.1480  178.0480  144.9610 C   0  0  0  0  0  0  0  0  0  0  0  0
  187.6210  177.7950  147.7290 C   0  0  0  0  0  3  0  0  0  0  0  0
  189.0190  177.1080  142.7170 C   0  0  0  0  0  3  0  0  0  0  0  0
  184.6980  179.1340  144.1730 C   0  0  0  0  0  0  0  0  0  0  0  0
  190.1190  176.7500  147.3790 Cl  0  0  0  0  0  0  0  0  0  0  0  0
  186.4160  179.0030  140.9030 O   0  0  0  0  0  0  0  0  0  0  0  0
  191.0490  176.1420  141.9300 F   0  0  0  0  0  0  0  0  0  0  0  0
  184.9910  178.9710  145.4870 N   0  0  0  0  0  0  0  0  0  0  0  0
  185.6340  178.7670  143.1910 C   0  0  0  0  0  0  0  0  0  0  0  0
  188.3620  177.5310  145.4420 C   0  0  0  0  0  3  0  0  0  0  0  0
  189.6690  177.3370  140.4000 C   0  0  0  0  0  3  0  0  0  0  0  0
  186.1690  178.4490  145.9040 C   0  0  0  0  0  0  0  0  0  0  0  0
  186.4100  178.3180  147.2740 C   0  0  0  0  0  3  0  0  0  0  0  0
  185.2660  178.8810  141.7340 C   0  0  0  0  0  2  0  0  0  0  0  0
  187.5880  178.3010  141.1770 C   0  0  0  0  0  0  0  0  0  0  0  0
  188.5030  178.0620  140.1480 C   0  0  0  0  0  3  0  0  0  0  0  0
  183.3760  179.7300  143.8040 C   0  0  0  0  0  2  0  0  0  0  0  0
  181.7210  178.2510  144.7180 O   0  0  0  0  0  1  0  0  0  0  0  0
  182.3500  178.6390  143.5320 C   0  0  1  0  0  3  0  0  0  0  0  0
  179.9560  180.5310  140.4730 C   0  0  1  0  0  3  0  0  0  0  0  0
  180.4160  180.0130  142.8650 C   0  0  0  0  0  3  0  0  0  0  0  0
  182.2940  177.7770  140.7940 O   0  0  0  0  0  0  0  0  0  0  0  0
  178.9750  180.9220  139.5830 F   0  0  0  0  0  0  0  0  0  0  0  0
  179.3830  180.4950  141.8870 C   0  0  0  0  0  2  0  0  0  0  0  0
  181.4310  178.6320  141.1240 C   0  0  0  0  0  0  0  0  0  0  0  0
  181.3400  179.1020  142.5250 C   0  0  0  0  0  0  0  0  0  0  0  0
  180.4730  179.1460  140.0890 C   0  0  0  0  0  2  0  0  0  0  0  0
  1  9  1  0  0  0  0
  1  6  1  0  0  0  0
  2  5  1  0  0  0  0
  3  7  1  0  0  0  0
  3  2  1  0  0  0  0
  4 11  1  0  0  0  0
  4  7  2  0  0  0  0
  5 14  1  0  0  0  0
  5 16  2  0  0  0  0
  8 12  2  0  0  0  0
 10 19  1  0  0  0  0
 10 18  1  0  0  0  0
 12 16  1  0  0  0  0
 13  2  2  0  0  0  0
 13  8  1  0  0  0  0
 14  1  2  0  0  0  0
 15  4  1  0  0  0  0
 16 17  1  0  0  0  0
 17  6  2  0  0  0  0
 18 13  1  0  0  0  0
 19  3  2  0  0  0  0
 20 15  2  0  0  0  0
 20 19  1  0  0  0  0
 21  8  1  0  0  0  0
 23 21  1  0  0  0  0
 23 22  1  1  0  0  0
 24 27  1  6  0  0  0
 24 28  1  0  0  0  0
 26 29  2  0  0  0  0
 28 25  1  0  0  0  0
 29 30  1  0  0  0  0
 30 25  2  0  0  0  0
 30 23  1  0  0  0  0
 31 24  1  0  0  0  0
 31 29  1  0  0  0  0
M  END
>  <MODEL>
7

>  <REMARK>
 VINA RESULT:      -9.5      4.020      6.657
  Name = 
  3 active torsions:
  status: ('A' for Active; 'I' for Inactive)
    1  A    between atoms: C_9  and  C_22
    2  A    between atoms: C_9  and  C_23
    3  A    between atoms: C_15  and  C_23
                            x       y       z     vdW  Elec       q    Type
                         _______ _______ _______ _____ _____    ______ ____

>  <TORSDO>
F 3

$$$$
=
 OpenBabel10262419313D

 31 35  0  0  1  0  0  0  0  0999 V2000
  186.4620  177.9950  146.2630 C   0  0  0  0  0  0  0  0  0  0  0  0
  186.3100  178.1970  142.5160 C   0  0  0  0  0  0  0  0  0  0  0  0
  187.6840  177.8460  142.0230 C   0  0  0  0  0  0  0  0  0  0  0  0
  189.9580  177.0350  142.3600 C   0  0  0  0  0  0  0  0  0  0  0  0
  185.9480  178.2390  143.8910 C   0  0  0  0  0  0  0  0  0  0  0  0
  185.1580  178.3640  146.5950 C   0  0  0  0  0  3  0  0  0  0  0  0
  188.6750  177.2930  142.8500 C   0  0  0  0  0  3  0  0  0  0  0  0
  184.0390  178.9110  141.9660 C   0  0  0  0  0  0  0  0  0  0  0  0
  187.6120  177.6080  147.5240 Cl  0  0  0  0  0  0  0  0  0  0  0  0
  187.0350  178.6260  139.8190 O   0  0  0  0  0  0  0  0  0  0  0  0
  190.9000  176.5070  143.1760 F   0  0  0  0  0  0  0  0  0  0  0  0
  183.7280  178.9360  143.2860 N   0  0  0  0  0  0  0  0  0  0  0  0
  185.3350  178.5550  141.5540 C   0  0  0  0  0  0  0  0  0  0  0  0
  186.8520  177.9370  144.9230 C   0  0  0  0  0  3  0  0  0  0  0  0
  190.2710  177.3370  141.0350 C   0  0  0  0  0  3  0  0  0  0  0  0
  184.6290  178.6180  144.2450 C   0  0  0  0  0  0  0  0  0  0  0  0
  184.2450  178.6750  145.5880 C   0  0  0  0  0  3  0  0  0  0  0  0
  185.6450  178.4560  140.0820 C   0  0  0  0  0  2  0  0  0  0  0  0
  188.0050  178.1140  140.6780 C   0  0  0  0  0  0  0  0  0  0  0  0
  189.2950  177.8760  140.1940 C   0  0  0  0  0  3  0  0  0  0  0  0
  182.9840  179.2900  140.9740 C   0  0  0  0  0  2  0  0  0  0  0  0
  180.7690  180.0940  141.4290 O   0  0  0  0  0  1  0  0  0  0  0  0
  181.5980  178.9720  141.5160 C   0  0  1  0  0  3  0  0  0  0  0  0
  180.3440  175.1980  139.8270 C   0  0  1  0  0  3  0  0  0  0  0  0
  181.5590  177.3650  139.6490 C   0  0  0  0  0  3  0  0  0  0  0  0
  179.3040  177.5050  142.4250 O   0  0  0  0  0  0  0  0  0  0  0  0
  179.7690  174.1760  139.0970 F   0  0  0  0  0  0  0  0  0  0  0  0
  180.9810  176.2110  138.8790 C   0  0  0  0  0  2  0  0  0  0  0  0
  179.8410  177.0930  141.3640 C   0  0  0  0  0  0  0  0  0  0  0  0
  180.9960  177.8130  140.7800 C   0  0  0  0  0  0  0  0  0  0  0  0
  179.2760  175.8830  140.6770 C   0  0  0  0  0  2  0  0  0  0  0  0
  1  6  1  0  0  0  0
  1  9  1  0  0  0  0
  2  5  1  0  0  0  0
  3  2  1  0  0  0  0
  3  7  1  0  0  0  0
  4  7  2  0  0  0  0
  4 11  1  0  0  0  0
  5 16  2  0  0  0  0
  5 14  1  0  0  0  0
  8 12  2  0  0  0  0
 10 18  1  0  0  0  0
 10 19  1  0  0  0  0
 12 16  1  0  0  0  0
 13  8  1  0  0  0  0
 13  2  2  0  0  0  0
 14  1  2  0  0  0  0
 15  4  1  0  0  0  0
 16 17  1  0  0  0  0
 17  6  2  0  0  0  0
 18 13  1  0  0  0  0
 19  3  2  0  0  0  0
 20 19  1  0  0  0  0
 20 15  2  0  0  0  0
 21 23  1  0  0  0  0
 21  8  1  0  0  0  0
 23 22  1  6  0  0  0
 24 27  1  6  0  0  0
 24 31  1  0  0  0  0
 25 30  2  0  0  0  0
 28 25  1  0  0  0  0
 28 24  1  0  0  0  0
 29 26  2  0  0  0  0
 30 29  1  0  0  0  0
 30 23  1  0  0  0  0
 31 29  1  0  0  0  0
M  END
>  <MODEL>
8

>  <REMARK>
 VINA RESULT:      -9.4      3.856      5.710
  Name = 
  3 active torsions:
  status: ('A' for Active; 'I' for Inactive)
    1  A    between atoms: C_9  and  C_22
    2  A    between atoms: C_9  and  C_23
    3  A    between atoms: C_15  and  C_23
                            x       y       z     vdW  Elec       q    Type
                         _______ _______ _______ _____ _____    ______ ____

>  <TORSDO>
F 3

$$$$
=
 OpenBabel10262419313D

 31 35  0  0  1  0  0  0  0  0999 V2000
  187.0550  177.9150  147.2660 C   0  0  0  0  0  0  0  0  0  0  0  0
  187.6150  177.8880  143.5530 C   0  0  0  0  0  0  0  0  0  0  0  0
  189.0390  177.4580  143.3480 C   0  0  0  0  0  0  0  0  0  0  0  0
  191.1690  176.5890  144.1530 C   0  0  0  0  0  0  0  0  0  0  0  0
  187.0050  178.0290  144.8300 C   0  0  0  0  0  0  0  0  0  0  0  0
  185.7310  178.3500  147.3250 C   0  0  0  0  0  3  0  0  0  0  0  0
  189.8310  176.9230  144.3770 C   0  0  0  0  0  3  0  0  0  0  0  0
  185.5230  178.6480  142.5450 C   0  0  0  0  0  0  0  0  0  0  0  0
  187.9300  177.5660  148.7410 Cl  0  0  0  0  0  0  0  0  0  0  0  0
  188.8500  178.1230  141.0230 O   0  0  0  0  0  0  0  0  0  0  0  0
  191.9170  176.0790  145.1600 F   0  0  0  0  0  0  0  0  0  0  0  0
  184.9730  178.7670  143.7790 N   0  0  0  0  0  0  0  0  0  0  0  0
  186.8550  178.2210  142.4060 C   0  0  0  0  0  0  0  0  0  0  0  0
  187.6850  177.7590  146.0290 C   0  0  0  0  0  3  0  0  0  0  0  0
  191.7380  176.7960  142.8960 C   0  0  0  0  0  3  0  0  0  0  0  0
  185.6630  178.4760  144.9070 C   0  0  0  0  0  0  0  0  0  0  0  0
  185.0370  178.6310  146.1480 C   0  0  0  0  0  3  0  0  0  0  0  0
  187.4290  178.0190  141.0270 C   0  0  0  0  0  2  0  0  0  0  0  0
  189.6180  177.6300  142.0760 C   0  0  0  0  0  0  0  0  0  0  0  0
  190.9620  177.3170  141.8580 C   0  0  0  0  0  3  0  0  0  0  0  0
  184.6900  179.0020  141.3530 C   0  0  0  0  0  2  0  0  0  0  0  0
  182.5090  178.6740  142.3010 O   0  0  0  0  0  1  0  0  0  0  0  0
  183.4010  178.1930  141.3380 C   0  0  1  0  0  3  0  0  0  0  0  0
  182.3250  178.2570  137.1530 C   0  0  1  0  0  3  0  0  0  0  0  0
  182.5630  179.3950  139.3560 C   0  0  0  0  0  3  0  0  0  0  0  0
  182.6800  175.8510  139.8430 O   0  0  0  0  0  0  0  0  0  0  0  0
  181.6890  178.3140  135.9290 F   0  0  0  0  0  0  0  0  0  0  0  0
  181.9300  179.4680  137.9950 C   0  0  0  0  0  2  0  0  0  0  0  0
  182.4870  176.9550  139.2710 C   0  0  0  0  0  0  0  0  0  0  0  0
  182.7730  178.2250  139.9760 C   0  0  0  0  0  0  0  0  0  0  0  0
  181.9300  176.9710  137.8760 C   0  0  0  0  0  2  0  0  0  0  0  0
  1  6  1  0  0  0  0
  1  9  1  0  0  0  0
  2  5  1  0  0  0  0
  3  2  1  0  0  0  0
  3  7  1  0  0  0  0
  4  7  2  0  0  0  0
  4 11  1  0  0  0  0
  5 16  2  0  0  0  0
  5 14  1  0  0  0  0
  8 12  2  0  0  0  0
 10 18  1  0  0  0  0
 10 19  1  0  0  0  0
 12 16  1  0  0  0  0
 13  8  1  0  0  0  0
 13  2  2  0  0  0  0
 14  1  2  0  0  0  0
 15  4  1  0  0  0  0
 16 17  1  0  0  0  0
 17  6  2  0  0  0  0
 18 13  1  0  0  0  0
 19  3  2  0  0  0  0
 20 19  1  0  0  0  0
 20 15  2  0  0  0  0
 21  8  1  0  0  0  0
 23 21  1  0  0  0  0
 23 22  1  1  0  0  0
 24 27  1  6  0  0  0
 24 31  1  0  0  0  0
 24 28  1  0  0  0  0
 25 30  2  0  0  0  0
 28 25  1  0  0  0  0
 29 26  2  0  0  0  0
 29 30  1  0  0  0  0
 30 23  1  0  0  0  0
 31 29  1  0  0  0  0
M  END
>  <MODEL>
9

>  <REMARK>
 VINA RESULT:      -9.4      3.178      4.556
  Name = 
  3 active torsions:
  status: ('A' for Active; 'I' for Inactive)
    1  A    between atoms: C_9  and  C_22
    2  A    between atoms: C_9  and  C_23
    3  A    between atoms: C_15  and  C_23
                            x       y       z     vdW  Elec       q    Type
                         _______ _______ _______ _____ _____    ______ ____

>  <TORSDO>
F 3

$$$$
