=
 OpenBabel10262419113D

 34 39  0  0  1  0  0  0  0  0999 V2000
  190.3730  175.6220  143.0680 C   0  0  2  0  0  3  0  0  0  0  0  0
  190.5000  177.7260  144.4320 C   0  0  1  0  0  3  0  0  0  0  0  0
  188.4760  177.2700  142.9360 C   0  0  0  0  0  0  0  0  0  0  0  0
  186.2810  178.2490  142.5990 C   0  0  0  0  0  0  0  0  0  0  0  0
  192.0080  175.7570  144.9540 C   0  0  0  0  0  3  0  0  0  0  0  0
  191.4260  177.0580  145.4470 C   0  0  0  0  0  2  0  0  0  0  0  0
  186.9130  177.4920  144.8160 C   0  0  0  0  0  3  0  0  0  0  0  0
  189.5450  176.6730  143.8330 C   0  0  1  0  0  3  0  0  0  0  0  0
  185.6700  177.8980  145.3090 C   0  0  0  0  0  3  0  0  0  0  0  0
  185.0390  178.6550  143.0970 C   0  0  0  0  0  3  0  0  0  0  0  0
  191.5010  175.0840  143.9090 C   0  0  0  0  0  3  0  0  0  0  0  0
  188.7200  177.4120  141.5530 C   0  0  0  0  0  0  0  0  0  0  0  0
  190.9600  176.2450  141.8020 C   0  0  0  0  0  2  0  0  0  0  0  0
  189.7660  178.8590  145.1290 C   0  0  0  0  0  1  0  0  0  0  0  0
  186.5590  178.4050  141.2810 N   0  0  0  0  0  0  0  0  0  0  0  0
  187.7400  178.0120  140.7270 C   0  0  0  0  0  0  0  0  0  0  0  0
  184.7350  178.4880  144.4510 C   0  0  0  0  0  0  0  0  0  0  0  0
  187.2340  177.6700  143.4610 C   0  0  0  0  0  0  0  0  0  0  0  0
  189.9030  176.8290  140.9870 N   0  0  0  0  0  2  0  0  0  0  0  0
  187.0610  178.0240  137.0010 C   0  0  0  0  0  0  0  0  0  0  0  0
  188.2030  178.6540  136.5010 C   0  0  0  0  0  3  0  0  0  0  0  0
  187.9280  178.2230  139.2670 C   0  0  0  0  0  0  0  0  0  0  0  0
  189.2050  179.0750  137.3760 C   0  0  0  0  0  3  0  0  0  0  0  0
  186.9230  177.8140  138.3750 C   0  0  0  0  0  3  0  0  0  0  0  0
  189.0670  178.8650  138.7510 C   0  0  0  0  0  3  0  0  0  0  0  0
  185.8010  177.5000  135.9060 Cl  0  0  0  0  0  0  0  0  0  0  0  0
  183.4060  178.9040  144.9740 C   0  0  0  0  0  2  0  0  0  0  0  0
  182.5980  179.5710  143.8730 C   0  0  0  0  0  2  0  0  0  0  0  0
  181.2310  178.9700  141.8580 C   0  0  0  0  0  2  0  0  0  0  0  0
  180.1780  179.9030  141.8480 O   0  0  0  0  0  0  0  0  0  0  0  0
  179.2080  178.2860  143.3300 O   0  0  0  0  0  0  0  0  0  0  0  0
  180.2990  178.6780  144.1250 C   0  0  0  0  0  2  0  0  0  0  0  0
  181.5790  178.6010  143.3010 C   0  0  0  0  0  3  0  0  0  0  0  0
  178.9960  179.2670  142.3210 C   0  0  0  0  0  2  0  0  0  0  0  0
  1 13  1  6  0  0  0
  1  8  1  0  0  0  0
  1 11  1  0  0  0  0
  2 14  1  1  0  0  0
  2  6  1  0  0  0  0
  3 18  1  0  0  0  0
  4 10  2  0  0  0  0
  4 18  1  0  0  0  0
  5  6  1  0  0  0  0
  7  9  1  0  0  0  0
  8  3  1  6  0  0  0
  8  2  1  0  0  0  0
 10 17  1  0  0  0  0
 11  5  2  0  0  0  0
 12  3  2  0  0  0  0
 15  4  1  0  0  0  0
 16 15  2  0  0  0  0
 16 12  1  0  0  0  0
 17 27  1  0  0  0  0
 17  9  2  0  0  0  0
 18  7  2  0  0  0  0
 19 12  1  0  0  0  0
 19 13  1  0  0  0  0
 20 24  1  0  0  0  0
 21 20  2  0  0  0  0
 21 23  1  0  0  0  0
 22 16  1  0  0  0  0
 23 25  2  0  0  0  0
 24 22  2  0  0  0  0
 25 22  1  0  0  0  0
 26 20  1  0  0  0  0
 28 27  1  0  0  0  0
 29 33  1  0  0  0  0
 30 29  1  0  0  0  0
 30 34  1  0  0  0  0
 31 32  1  0  0  0  0
 33 28  1  0  0  0  0
 33 32  1  0  0  0  0
 34 31  1  0  0  0  0
M  END
>  <MODEL>
1

>  <REMARK>
 VINA RESULT:      -9.8      0.000      0.000
  Name = 
  4 active torsions:
  status: ('A' for Active; 'I' for Inactive)
    1  A    between atoms: C_3  and  C_13
    2  A    between atoms: C_3  and  C_29
    3  A    between atoms: C_12  and  C_28
    4  A    between atoms: C_13  and  C_33
                            x       y       z     vdW  Elec       q    Type
                         _______ _______ _______ _____ _____    ______ ____

>  <TORSDO>
F 4

$$$$
=
 OpenBabel10262419113D

 34 39  0  0  1  0  0  0  0  0999 V2000
  185.1670  179.3100  144.7410 C   0  0  2  0  0  3  0  0  0  0  0  0
  186.4910  177.1890  144.4970 C   0  0  1  0  0  3  0  0  0  0  0  0
  185.6870  178.4620  142.4300 C   0  0  0  0  0  0  0  0  0  0  0  0
  186.0840  178.3610  140.0370 C   0  0  0  0  0  0  0  0  0  0  0  0
  186.4530  178.4410  146.7010 C   0  0  0  0  0  3  0  0  0  0  0  0
  187.1440  177.3950  145.8640 C   0  0  0  0  0  2  0  0  0  0  0  0
  187.9680  178.6510  141.5390 C   0  0  0  0  0  3  0  0  0  0  0  0
  186.1870  178.5610  143.8590 C   0  0  1  0  0  3  0  0  0  0  0  0
  188.8360  178.6730  140.4450 C   0  0  0  0  0  3  0  0  0  0  0  0
  186.9570  178.3820  138.9450 C   0  0  0  0  0  3  0  0  0  0  0  0
  185.5970  179.3370  146.1840 C   0  0  0  0  0  3  0  0  0  0  0  0
  184.3030  178.3610  142.1750 C   0  0  0  0  0  0  0  0  0  0  0  0
  183.8030  178.6290  144.6480 C   0  0  0  0  0  2  0  0  0  0  0  0
  187.4170  176.3370  143.6490 C   0  0  0  0  0  1  0  0  0  0  0  0
  184.7510  178.2300  139.8280 N   0  0  0  0  0  0  0  0  0  0  0  0
  183.8430  178.2230  140.8430 C   0  0  0  0  0  0  0  0  0  0  0  0
  188.3330  178.5300  139.1480 C   0  0  0  0  0  0  0  0  0  0  0  0
  186.5870  178.4870  141.3480 C   0  0  0  0  0  0  0  0  0  0  0  0
  183.3770  178.5310  143.2590 N   0  0  0  0  0  2  0  0  0  0  0  0
  180.5450  176.6560  139.8400 C   0  0  0  0  0  0  0  0  0  0  0  0
  179.6800  177.7520  139.8790 C   0  0  0  0  0  3  0  0  0  0  0  0
  182.4050  178.0840  140.4920 C   0  0  0  0  0  0  0  0  0  0  0  0
  180.1690  179.0120  140.2290 C   0  0  0  0  0  3  0  0  0  0  0  0
  181.8970  176.8210  140.1490 C   0  0  0  0  0  3  0  0  0  0  0  0
  181.5220  179.1760  140.5380 C   0  0  0  0  0  3  0  0  0  0  0  0
  179.9330  175.0740  139.4080 Cl  0  0  0  0  0  0  0  0  0  0  0  0
  189.2570  178.5710  137.9830 C   0  0  0  0  0  2  0  0  0  0  0  0
  189.2200  177.2460  137.2390 C   0  0  0  0  0  2  0  0  0  0  0  0
  191.3040  176.5130  138.4250 C   0  0  0  0  0  2  0  0  0  0  0  0
  192.1650  176.0760  137.4010 O   0  0  0  0  0  0  0  0  0  0  0  0
  190.9350  174.0430  137.7250 O   0  0  0  0  0  0  0  0  0  0  0  0
  189.8850  174.8580  137.2680 C   0  0  0  0  0  2  0  0  0  0  0  0
  189.8600  176.1520  138.0740 C   0  0  0  0  0  3  0  0  0  0  0  0
  192.1740  174.6530  137.3850 C   0  0  0  0  0  2  0  0  0  0  0  0
  1 13  1  1  0  0  0
  1 11  1  0  0  0  0
  2 14  1  6  0  0  0
  2  6  1  0  0  0  0
  4 18  1  0  0  0  0
  6  5  1  0  0  0  0
  8  3  1  6  0  0  0
  8  2  1  0  0  0  0
  8  1  1  0  0  0  0
  9  7  2  0  0  0  0
 10 17  2  0  0  0  0
 10  4  1  0  0  0  0
 11  5  2  0  0  0  0
 12  3  1  0  0  0  0
 12 19  1  0  0  0  0
 15  4  2  0  0  0  0
 15 16  1  0  0  0  0
 16 12  2  0  0  0  0
 17  9  1  0  0  0  0
 18  7  1  0  0  0  0
 18  3  2  0  0  0  0
 19 13  1  0  0  0  0
 20 21  2  0  0  0  0
 20 24  1  0  0  0  0
 21 23  1  0  0  0  0
 22 25  1  0  0  0  0
 22 16  1  0  0  0  0
 23 25  2  0  0  0  0
 24 22  2  0  0  0  0
 26 20  1  0  0  0  0
 27 17  1  0  0  0  0
 28 27  1  0  0  0  0
 28 33  1  0  0  0  0
 30 29  1  0  0  0  0
 32 31  1  0  0  0  0
 32 33  1  0  0  0  0
 33 29  1  0  0  0  0
 34 30  1  0  0  0  0
 34 31  1  0  0  0  0
M  END
>  <MODEL>
2

>  <REMARK>
 VINA RESULT:      -9.0      4.205      7.730
  Name = 
  4 active torsions:
  status: ('A' for Active; 'I' for Inactive)
    1  A    between atoms: C_3  and  C_13
    2  A    between atoms: C_3  and  C_29
    3  A    between atoms: C_12  and  C_28
    4  A    between atoms: C_13  and  C_33
                            x       y       z     vdW  Elec       q    Type
                         _______ _______ _______ _____ _____    ______ ____

>  <TORSDO>
F 4

$$$$
=
 OpenBabel10262419113D

 34 39  0  0  1  0  0  0  0  0999 V2000
  189.8850  178.2480  145.1740 C   0  0  2  0  0  3  0  0  0  0  0  0
  190.2180  175.9870  144.1340 C   0  0  1  0  0  3  0  0  0  0  0  0
  188.8700  177.7880  142.9180 C   0  0  0  0  0  0  0  0  0  0  0  0
  187.9280  178.0840  140.7000 C   0  0  0  0  0  0  0  0  0  0  0  0
  191.6830  176.7520  146.0550 C   0  0  0  0  0  3  0  0  0  0  0  0
  191.5090  175.7720  144.9240 C   0  0  0  0  0  2  0  0  0  0  0  0
  190.3060  177.6600  140.9300 C   0  0  0  0  0  3  0  0  0  0  0  0
  190.0380  177.4910  143.8400 C   0  0  1  0  0  3  0  0  0  0  0  0
  190.4490  177.7130  139.5420 C   0  0  0  0  0  3  0  0  0  0  0  0
  188.0760  178.1350  139.3110 C   0  0  0  0  0  3  0  0  0  0  0  0
  190.9830  177.8940  146.1410 C   0  0  0  0  0  3  0  0  0  0  0  0
  187.5920  178.0380  143.4620 C   0  0  0  0  0  0  0  0  0  0  0  0
  188.5400  177.9070  145.8120 C   0  0  0  0  0  2  0  0  0  0  0  0
  190.2840  175.1430  142.8730 C   0  0  0  0  0  1  0  0  0  0  0  0
  186.7060  178.2840  141.2530 N   0  0  0  0  0  0  0  0  0  0  0  0
  186.4950  178.2690  142.5980 C   0  0  0  0  0  0  0  0  0  0  0  0
  189.3330  177.9430  138.7300 C   0  0  0  0  0  0  0  0  0  0  0  0
  189.0460  177.8360  141.5230 C   0  0  0  0  0  0  0  0  0  0  0  0
  187.4520  178.1810  144.8840 N   0  0  0  0  0  2  0  0  0  0  0  0
  182.7270  178.6490  142.6250 C   0  0  0  0  0  0  0  0  0  0  0  0
  182.4720  178.9040  143.9750 C   0  0  0  0  0  3  0  0  0  0  0  0
  185.1130  178.5130  143.0890 C   0  0  0  0  0  0  0  0  0  0  0  0
  183.5290  178.9590  144.8850 C   0  0  0  0  0  3  0  0  0  0  0  0
  184.0380  178.4500  142.1870 C   0  0  0  0  0  3  0  0  0  0  0  0
  184.8410  178.7600  144.4460 C   0  0  0  0  0  3  0  0  0  0  0  0
  181.4030  178.5740  141.4830 Cl  0  0  0  0  0  0  0  0  0  0  0  0
  189.4910  178.0170  137.2530 C   0  0  0  0  0  2  0  0  0  0  0  0
  188.6730  176.9250  136.5840 C   0  0  0  0  0  2  0  0  0  0  0  0
  189.4940  174.5790  136.9220 C   0  0  0  0  0  2  0  0  0  0  0  0
  190.4150  174.6710  137.9820 O   0  0  0  0  0  0  0  0  0  0  0  0
  191.8930  175.2210  136.1750 O   0  0  0  0  0  0  0  0  0  0  0  0
  191.0260  176.3240  136.0860 C   0  0  0  0  0  2  0  0  0  0  0  0
  189.5840  175.8330  136.0510 C   0  0  0  0  0  3  0  0  0  0  0  0
  191.7340  174.6100  137.4500 C   0  0  0  0  0  2  0  0  0  0  0  0
  1 13  1  1  0  0  0
  1 11  1  0  0  0  0
  2 14  1  6  0  0  0
  2  6  1  0  0  0  0
  3 12  1  0  0  0  0
  4 15  2  0  0  0  0
  4 18  1  0  0  0  0
  5 11  2  0  0  0  0
  6  5  1  0  0  0  0
  7 18  1  0  0  0  0
  8  3  1  6  0  0  0
  8  2  1  0  0  0  0
  8  1  1  0  0  0  0
  9  7  2  0  0  0  0
 10  4  1  0  0  0  0
 12 19  1  0  0  0  0
 15 16  1  0  0  0  0
 16 22  1  0  0  0  0
 16 12  2  0  0  0  0
 17 10  2  0  0  0  0
 17  9  1  0  0  0  0
 18  3  2  0  0  0  0
 19 13  1  0  0  0  0
 20 21  1  0  0  0  0
 21 23  2  0  0  0  0
 22 25  2  0  0  0  0
 24 20  2  0  0  0  0
 24 22  1  0  0  0  0
 25 23  1  0  0  0  0
 26 20  1  0  0  0  0
 27 17  1  0  0  0  0
 28 27  1  0  0  0  0
 29 30  1  0  0  0  0
 31 34  1  0  0  0  0
 32 31  1  0  0  0  0
 33 32  1  0  0  0  0
 33 28  1  0  0  0  0
 33 29  1  0  0  0  0
 34 30  1  0  0  0  0
M  END
>  <MODEL>
3

>  <REMARK>
 VINA RESULT:      -8.9      3.802      7.383
  Name = 
  4 active torsions:
  status: ('A' for Active; 'I' for Inactive)
    1  A    between atoms: C_3  and  C_13
    2  A    between atoms: C_3  and  C_29
    3  A    between atoms: C_12  and  C_28
    4  A    between atoms: C_13  and  C_33
                            x       y       z     vdW  Elec       q    Type
                         _______ _______ _______ _____ _____    ______ ____

>  <TORSDO>
F 4

$$$$
=
 OpenBabel10262419113D

 34 39  0  0  1  0  0  0  0  0999 V2000
  185.1850  179.3760  145.0200 C   0  0  2  0  0  3  0  0  0  0  0  0
  186.4310  177.2130  144.7440 C   0  0  1  0  0  3  0  0  0  0  0  0
  185.6200  178.5140  142.6970 C   0  0  0  0  0  0  0  0  0  0  0  0
  185.9560  178.4010  140.2950 C   0  0  0  0  0  0  0  0  0  0  0  0
  186.4880  178.4630  146.9490 C   0  0  0  0  0  3  0  0  0  0  0  0
  187.1230  177.3950  146.0950 C   0  0  0  0  0  2  0  0  0  0  0  0
  187.8840  178.6270  141.7510 C   0  0  0  0  0  3  0  0  0  0  0  0
  186.1570  178.5940  144.1140 C   0  0  1  0  0  3  0  0  0  0  0  0
  188.7260  178.6210  140.6370 C   0  0  0  0  0  3  0  0  0  0  0  0
  186.8020  178.3940  139.1830 C   0  0  0  0  0  3  0  0  0  0  0  0
  185.6500  179.3870  146.4530 C   0  0  0  0  0  3  0  0  0  0  0  0
  184.2280  178.4590  142.4750 C   0  0  0  0  0  0  0  0  0  0  0  0
  183.7970  178.7410  144.9600 C   0  0  0  0  0  2  0  0  0  0  0  0
  187.3080  176.3310  143.8730 C   0  0  0  0  0  1  0  0  0  0  0  0
  184.6150  178.3140  140.1180 N   0  0  0  0  0  0  0  0  0  0  0  0
  183.7320  178.3370  141.1550 C   0  0  0  0  0  0  0  0  0  0  0  0
  188.1870  178.4960  139.3520 C   0  0  0  0  0  0  0  0  0  0  0  0
  186.4940  178.5090  141.5940 C   0  0  0  0  0  0  0  0  0  0  0  0
  183.3340  178.6580  143.5810 N   0  0  0  0  0  2  0  0  0  0  0  0
  180.0890  179.3020  140.7800 C   0  0  0  0  0  0  0  0  0  0  0  0
  179.5440  178.1550  140.2010 C   0  0  0  0  0  3  0  0  0  0  0  0
  182.2820  178.2470  140.8390 C   0  0  0  0  0  0  0  0  0  0  0  0
  180.3610  177.0550  139.9320 C   0  0  0  0  0  3  0  0  0  0  0  0
  181.4500  179.3490  141.0930 C   0  0  0  0  0  3  0  0  0  0  0  0
  181.7220  177.1020  140.2450 C   0  0  0  0  0  3  0  0  0  0  0  0
  179.0680  180.6850  141.1120 Cl  0  0  0  0  0  0  0  0  0  0  0  0
  189.0840  178.5070  138.1650 C   0  0  0  0  0  2  0  0  0  0  0  0
  190.2310  177.5310  138.3670 C   0  0  0  0  0  2  0  0  0  0  0  0
  189.6970  175.3170  137.3190 C   0  0  0  0  0  2  0  0  0  0  0  0
  190.5620  174.4030  137.9500 O   0  0  0  0  0  0  0  0  0  0  0  0
  192.0460  175.1700  136.2300 O   0  0  0  0  0  0  0  0  0  0  0  0
  191.8920  176.3780  136.9340 C   0  0  0  0  0  2  0  0  0  0  0  0
  190.4080  176.6590  137.1370 C   0  0  0  0  0  3  0  0  0  0  0  0
  191.6310  174.0950  137.0620 C   0  0  0  0  0  2  0  0  0  0  0  0
  1 13  1  1  0  0  0
  1 11  1  0  0  0  0
  2 14  1  6  0  0  0
  2  6  1  0  0  0  0
  4 18  1  0  0  0  0
  6  5  1  0  0  0  0
  8  3  1  6  0  0  0
  8  2  1  0  0  0  0
  8  1  1  0  0  0  0
  9  7  2  0  0  0  0
 10 17  2  0  0  0  0
 10  4  1  0  0  0  0
 11  5  2  0  0  0  0
 12  3  1  0  0  0  0
 12 19  1  0  0  0  0
 15  4  2  0  0  0  0
 15 16  1  0  0  0  0
 16 12  2  0  0  0  0
 17  9  1  0  0  0  0
 18  7  1  0  0  0  0
 18  3  2  0  0  0  0
 19 13  1  0  0  0  0
 20 24  1  0  0  0  0
 20 26  1  0  0  0  0
 21 20  2  0  0  0  0
 22 24  2  0  0  0  0
 22 16  1  0  0  0  0
 23 21  1  0  0  0  0
 23 25  2  0  0  0  0
 25 22  1  0  0  0  0
 27 28  1  0  0  0  0
 27 17  1  0  0  0  0
 29 30  1  0  0  0  0
 31 32  1  0  0  0  0
 31 34  1  0  0  0  0
 32 33  1  0  0  0  0
 33 29  1  0  0  0  0
 33 28  1  0  0  0  0
 34 30  1  0  0  0  0
M  END
>  <MODEL>
4

>  <REMARK>
 VINA RESULT:      -8.8      4.217      7.922
  Name = 
  4 active torsions:
  status: ('A' for Active; 'I' for Inactive)
    1  A    between atoms: C_3  and  C_13
    2  A    between atoms: C_3  and  C_29
    3  A    between atoms: C_12  and  C_28
    4  A    between atoms: C_13  and  C_33
                            x       y       z     vdW  Elec       q    Type
                         _______ _______ _______ _____ _____    ______ ____

>  <TORSDO>
F 4

$$$$
=
 OpenBabel10262419113D

 34 39  0  0  1  0  0  0  0  0999 V2000
  186.7440  176.2920  136.6570 C   0  0  2  0  0  3  0  0  0  0  0  0
  188.3670  178.2020  136.5090 C   0  0  1  0  0  3  0  0  0  0  0  0
  187.1490  177.7010  138.7020 C   0  0  0  0  0  0  0  0  0  0  0  0
  187.3030  178.4430  141.0090 C   0  0  0  0  0  0  0  0  0  0  0  0
  188.3550  176.3790  134.7480 C   0  0  0  0  0  3  0  0  0  0  0  0
  189.1180  177.5250  135.3630 C   0  0  0  0  0  2  0  0  0  0  0  0
  189.2600  177.4880  139.9390 C   0  0  0  0  0  3  0  0  0  0  0  0
  187.7740  177.1270  137.4440 C   0  0  1  0  0  3  0  0  0  0  0  0
  189.9920  177.6740  141.1140 C   0  0  0  0  0  3  0  0  0  0  0  0
  188.0390  178.6280  142.1810 C   0  0  0  0  0  3  0  0  0  0  0  0
  187.3130  175.7910  135.3560 C   0  0  0  0  0  3  0  0  0  0  0  0
  185.7820  178.0500  138.7110 C   0  0  0  0  0  0  0  0  0  0  0  0
  185.5090  177.1400  136.3580 C   0  0  0  0  0  2  0  0  0  0  0  0
  189.3270  179.1380  137.2220 C   0  0  0  0  0  1  0  0  0  0  0  0
  185.9950  178.8000  140.9730 N   0  0  0  0  0  0  0  0  0  0  0  0
  185.2140  178.6280  139.8710 C   0  0  0  0  0  0  0  0  0  0  0  0
  189.3850  178.2520  142.2340 C   0  0  0  0  0  0  0  0  0  0  0  0
  187.9130  177.8770  139.8700 C   0  0  0  0  0  0  0  0  0  0  0  0
  184.9600  177.6920  137.5890 N   0  0  0  0  0  2  0  0  0  0  0  0
  181.9600  180.4030  139.0940 C   0  0  0  0  0  0  0  0  0  0  0  0
  181.0890  179.8310  140.0240 C   0  0  0  0  0  3  0  0  0  0  0  0
  183.7890  179.0470  139.9540 C   0  0  0  0  0  0  0  0  0  0  0  0
  181.5590  178.8650  140.9150 C   0  0  0  0  0  3  0  0  0  0  0  0
  183.3000  180.0100  139.0560 C   0  0  0  0  0  3  0  0  0  0  0  0
  182.9000  178.4720  140.8770 C   0  0  0  0  0  3  0  0  0  0  0  0
  181.3720  181.6110  137.9710 Cl  0  0  0  0  0  0  0  0  0  0  0  0
  190.1610  178.4330  143.4900 C   0  0  0  0  0  2  0  0  0  0  0  0
  189.3070  178.0600  144.6900 C   0  0  0  0  0  2  0  0  0  0  0  0
  189.4110  176.7530  146.8280 C   0  0  0  0  0  2  0  0  0  0  0  0
  190.3290  177.4540  147.6320 O   0  0  0  0  0  0  0  0  0  0  0  0
  191.8860  176.1020  146.4070 O   0  0  0  0  0  0  0  0  0  0  0  0
  191.3780  176.8630  145.3400 C   0  0  0  0  0  2  0  0  0  0  0  0
  189.8540  176.8150  145.3650 C   0  0  0  0  0  3  0  0  0  0  0  0
  191.5680  176.7530  147.6310 C   0  0  0  0  0  2  0  0  0  0  0  0
  1 11  1  6  0  0  0
  1  8  1  0  0  0  0
  2 14  1  1  0  0  0
  2  8  1  0  0  0  0
  3 12  2  0  0  0  0
  3 18  1  0  0  0  0
  4 10  1  0  0  0  0
  5 11  2  0  0  0  0
  5  6  1  0  0  0  0
  6  2  1  0  0  0  0
  7  9  2  0  0  0  0
  8  3  1  1  0  0  0
  9 17  1  0  0  0  0
 10 17  2  0  0  0  0
 12 16  1  0  0  0  0
 13  1  1  0  0  0  0
 13 19  1  0  0  0  0
 15  4  1  0  0  0  0
 16 22  1  0  0  0  0
 16 15  2  0  0  0  0
 17 27  1  0  0  0  0
 18  7  1  0  0  0  0
 18  4  2  0  0  0  0
 19 12  1  0  0  0  0
 20 21  1  0  0  0  0
 21 23  2  0  0  0  0
 22 25  2  0  0  0  0
 24 20  2  0  0  0  0
 24 22  1  0  0  0  0
 25 23  1  0  0  0  0
 26 20  1  0  0  0  0
 27 28  1  0  0  0  0
 28 33  1  0  0  0  0
 29 30  1  0  0  0  0
 31 34  1  0  0  0  0
 32 33  1  0  0  0  0
 32 31  1  0  0  0  0
 33 29  1  0  0  0  0
 34 30  1  0  0  0  0
M  END
>  <MODEL>
5

>  <REMARK>
 VINA RESULT:      -8.5      3.775      7.678
  Name = 
  4 active torsions:
  status: ('A' for Active; 'I' for Inactive)
    1  A    between atoms: C_3  and  C_13
    2  A    between atoms: C_3  and  C_29
    3  A    between atoms: C_12  and  C_28
    4  A    between atoms: C_13  and  C_33
                            x       y       z     vdW  Elec       q    Type
                         _______ _______ _______ _____ _____    ______ ____

>  <TORSDO>
F 4

$$$$
=
 OpenBabel10262419113D

 34 39  0  0  1  0  0  0  0  0999 V2000
  187.8230  176.7370  146.5100 C   0  0  2  0  0  3  0  0  0  0  0  0
  187.1080  179.1030  146.9560 C   0  0  1  0  0  3  0  0  0  0  0  0
  186.4470  177.9360  144.7780 C   0  0  0  0  0  0  0  0  0  0  0  0
  184.9540  178.3950  142.9200 C   0  0  0  0  0  0  0  0  0  0  0  0
  187.9310  177.6260  148.8450 C   0  0  0  0  0  3  0  0  0  0  0  0
  187.1910  178.8840  148.4670 C   0  0  0  0  0  2  0  0  0  0  0  0
  184.0570  178.3390  145.1740 C   0  0  0  0  0  3  0  0  0  0  0  0
  186.7150  177.7810  146.2640 C   0  0  1  0  0  3  0  0  0  0  0  0
  182.7850  178.6280  144.6740 C   0  0  0  0  0  3  0  0  0  0  0  0
  183.6800  178.6860  142.4250 C   0  0  0  0  0  3  0  0  0  0  0  0
  188.1730  176.6350  147.9720 C   0  0  0  0  0  3  0  0  0  0  0  0
  187.5000  177.7710  143.8530 C   0  0  0  0  0  0  0  0  0  0  0  0
  189.0790  177.1200  145.7300 C   0  0  0  0  0  2  0  0  0  0  0  0
  186.1190  180.2240  146.6900 C   0  0  0  0  0  1  0  0  0  0  0  0
  185.9940  178.2650  142.0600 N   0  0  0  0  0  0  0  0  0  0  0  0
  187.2570  177.9620  142.4720 C   0  0  0  0  0  0  0  0  0  0  0  0
  182.5960  178.8100  143.3000 C   0  0  0  0  0  0  0  0  0  0  0  0
  185.1540  178.2280  144.3050 C   0  0  0  0  0  0  0  0  0  0  0  0
  188.7690  177.2850  144.3170 N   0  0  0  0  0  2  0  0  0  0  0  0
  189.0970  178.3090  139.1800 C   0  0  0  0  0  0  0  0  0  0  0  0
  190.3100  177.6750  139.4590 C   0  0  0  0  0  3  0  0  0  0  0  0
  188.3160  177.8330  141.4370 C   0  0  0  0  0  0  0  0  0  0  0  0
  190.5340  177.1250  140.7220 C   0  0  0  0  0  3  0  0  0  0  0  0
  188.1090  178.3910  140.1650 C   0  0  0  0  0  3  0  0  0  0  0  0
  189.5450  177.2080  141.7070 C   0  0  0  0  0  3  0  0  0  0  0  0
  188.8160  179.0040  137.5990 Cl  0  0  0  0  0  0  0  0  0  0  0  0
  181.2380  179.1000  142.7680 C   0  0  0  0  0  2  0  0  0  0  0  0
  180.9520  178.2240  141.5590 C   0  0  0  0  0  2  0  0  0  0  0  0
  180.8560  178.9750  139.1690 C   0  0  0  0  0  2  0  0  0  0  0  0
  181.7650  180.0470  139.0930 O   0  0  0  0  0  0  0  0  0  0  0  0
  179.8390  181.2640  139.8400 O   0  0  0  0  0  0  0  0  0  0  0  0
  180.0260  180.4470  140.9680 C   0  0  0  0  0  2  0  0  0  0  0  0
  180.1490  178.9930  140.5260 C   0  0  0  0  0  3  0  0  0  0  0  0
  181.0340  181.2680  139.0690 C   0  0  0  0  0  2  0  0  0  0  0  0
  1 13  1  6  0  0  0
  1 11  1  0  0  0  0
  2 14  1  1  0  0  0
  2  6  1  0  0  0  0
  4 18  1  0  0  0  0
  6  5  1  0  0  0  0
  8  3  1  6  0  0  0
  8  1  1  0  0  0  0
  8  2  1  0  0  0  0
  9  7  1  0  0  0  0
 10  4  2  0  0  0  0
 10 17  1  0  0  0  0
 11  5  2  0  0  0  0
 12 19  1  0  0  0  0
 12  3  2  0  0  0  0
 15 16  2  0  0  0  0
 15  4  1  0  0  0  0
 16 12  1  0  0  0  0
 17  9  2  0  0  0  0
 18  3  1  0  0  0  0
 18  7  2  0  0  0  0
 19 13  1  0  0  0  0
 20 21  2  0  0  0  0
 20 24  1  0  0  0  0
 21 23  1  0  0  0  0
 22 25  1  0  0  0  0
 22 16  1  0  0  0  0
 23 25  2  0  0  0  0
 24 22  2  0  0  0  0
 26 20  1  0  0  0  0
 27 17  1  0  0  0  0
 28 27  1  0  0  0  0
 29 33  1  0  0  0  0
 30 29  1  0  0  0  0
 31 32  1  0  0  0  0
 33 32  1  0  0  0  0
 33 28  1  0  0  0  0
 34 30  1  0  0  0  0
 34 31  1  0  0  0  0
M  END
>  <MODEL>
6

>  <REMARK>
 VINA RESULT:      -8.2      2.129      3.552
  Name = 
  4 active torsions:
  status: ('A' for Active; 'I' for Inactive)
    1  A    between atoms: C_3  and  C_13
    2  A    between atoms: C_3  and  C_29
    3  A    between atoms: C_12  and  C_28
    4  A    between atoms: C_13  and  C_33
                            x       y       z     vdW  Elec       q    Type
                         _______ _______ _______ _____ _____    ______ ____

>  <TORSDO>
F 4

$$$$
=
 OpenBabel10262419113D

 34 39  0  0  1  0  0  0  0  0999 V2000
  181.7690  177.7370  140.5580 C   0  0  2  0  0  3  0  0  0  0  0  0
  182.3530  179.9110  139.4440 C   0  0  1  0  0  3  0  0  0  0  0  0
  184.1850  178.4260  140.4330 C   0  0  0  0  0  0  0  0  0  0  0  0
  186.6120  178.3590  140.3850 C   0  0  0  0  0  0  0  0  0  0  0  0
  180.0840  178.8410  139.0780 C   0  0  0  0  0  3  0  0  0  0  0  0
  181.0850  179.8580  138.5910 C   0  0  0  0  0  2  0  0  0  0  0  0
  185.3840  178.3120  138.2930 C   0  0  0  0  0  3  0  0  0  0  0  0
  182.8410  178.4750  139.7310 C   0  0  1  0  0  3  0  0  0  0  0  0
  186.5890  178.2580  137.5880 C   0  0  0  0  0  3  0  0  0  0  0  0
  187.8150  178.3060  139.6750 C   0  0  0  0  0  3  0  0  0  0  0  0
  180.4060  177.8540  139.9290 C   0  0  0  0  0  3  0  0  0  0  0  0
  184.2420  178.4180  141.8430 C   0  0  0  0  0  0  0  0  0  0  0  0
  181.7090  178.3190  141.9690 C   0  0  0  0  0  2  0  0  0  0  0  0
  183.3860  180.7490  138.7120 C   0  0  0  0  0  1  0  0  0  0  0  0
  186.6330  178.3880  141.7410 N   0  0  0  0  0  0  0  0  0  0  0  0
  185.4990  178.4180  142.4940 C   0  0  0  0  0  0  0  0  0  0  0  0
  187.8050  178.2630  138.2780 C   0  0  0  0  0  0  0  0  0  0  0  0
  185.3820  178.3710  139.6950 C   0  0  0  0  0  0  0  0  0  0  0  0
  183.0250  178.2770  142.5920 N   0  0  0  0  0  2  0  0  0  0  0  0
  186.9810  177.9260  145.9440 C   0  0  0  0  0  0  0  0  0  0  0  0
  186.0050  178.5000  146.7630 C   0  0  0  0  0  3  0  0  0  0  0  0
  185.6460  178.4360  143.9740 C   0  0  0  0  0  0  0  0  0  0  0  0
  184.8540  179.0470  146.1950 C   0  0  0  0  0  3  0  0  0  0  0  0
  186.8040  177.8990  144.5590 C   0  0  0  0  0  3  0  0  0  0  0  0
  184.6770  179.0200  144.8080 C   0  0  0  0  0  3  0  0  0  0  0  0
  188.4280  177.2440  146.6540 Cl  0  0  0  0  0  0  0  0  0  0  0  0
  189.0870  178.1860  137.5260 C   0  0  0  0  0  2  0  0  0  0  0  0
  189.2280  176.8230  136.8700 C   0  0  0  0  0  2  0  0  0  0  0  0
  191.0690  176.5250  138.5460 C   0  0  0  0  0  2  0  0  0  0  0  0
  192.2420  176.4210  137.7750 O   0  0  0  0  0  0  0  0  0  0  0  0
  191.5620  174.1220  137.7040 O   0  0  0  0  0  0  0  0  0  0  0  0
  190.4800  174.6880  137.0070 C   0  0  0  0  0  2  0  0  0  0  0  0
  189.9090  175.8480  137.8140 C   0  0  0  0  0  3  0  0  0  0  0  0
  192.6360  175.0540  137.7220 C   0  0  0  0  0  2  0  0  0  0  0  0
  1 11  1  6  0  0  0
  1 13  1  0  0  0  0
  2 14  1  6  0  0  0
  2  8  1  0  0  0  0
  3 12  1  0  0  0  0
  4 15  2  0  0  0  0
  5 11  2  0  0  0  0
  6  5  1  0  0  0  0
  6  2  1  0  0  0  0
  7 18  1  0  0  0  0
  8  3  1  1  0  0  0
  8  1  1  0  0  0  0
  9 17  1  0  0  0  0
  9  7  2  0  0  0  0
 10  4  1  0  0  0  0
 12 16  2  0  0  0  0
 12 19  1  0  0  0  0
 13 19  1  0  0  0  0
 15 16  1  0  0  0  0
 16 22  1  0  0  0  0
 17 10  2  0  0  0  0
 18  4  1  0  0  0  0
 18  3  2  0  0  0  0
 20 26  1  0  0  0  0
 20 21  1  0  0  0  0
 22 24  1  0  0  0  0
 22 25  2  0  0  0  0
 23 21  2  0  0  0  0
 24 20  2  0  0  0  0
 25 23  1  0  0  0  0
 27 17  1  0  0  0  0
 28 27  1  0  0  0  0
 28 33  1  0  0  0  0
 30 29  1  0  0  0  0
 31 34  1  0  0  0  0
 32 31  1  0  0  0  0
 32 33  1  0  0  0  0
 33 29  1  0  0  0  0
 34 30  1  0  0  0  0
M  END
>  <MODEL>
7

>  <REMARK>
 VINA RESULT:      -8.1      4.559      9.286
  Name = 
  4 active torsions:
  status: ('A' for Active; 'I' for Inactive)
    1  A    between atoms: C_3  and  C_13
    2  A    between atoms: C_3  and  C_29
    3  A    between atoms: C_12  and  C_28
    4  A    between atoms: C_13  and  C_33
                            x       y       z     vdW  Elec       q    Type
                         _______ _______ _______ _____ _____    ______ ____

>  <TORSDO>
F 4

$$$$
=
 OpenBabel10262419113D

 34 39  0  0  1  0  0  0  0  0999 V2000
  188.5310  178.8030  138.4170 C   0  0  2  0  0  3  0  0  0  0  0  0
  187.2120  176.8350  137.5830 C   0  0  1  0  0  3  0  0  0  0  0  0
  186.3020  178.3010  139.4710 C   0  0  0  0  0  0  0  0  0  0  0  0
  184.1960  178.5380  140.6560 C   0  0  0  0  0  0  0  0  0  0  0  0
  189.1180  177.7860  136.2100 C   0  0  0  0  0  3  0  0  0  0  0  0
  187.8910  176.9100  136.2160 C   0  0  0  0  0  2  0  0  0  0  0  0
  184.2300  178.7700  138.2400 C   0  0  0  0  0  3  0  0  0  0  0  0
  187.1090  178.2510  138.1870 C   0  0  1  0  0  3  0  0  0  0  0  0
  182.8510  178.9960  138.2430 C   0  0  0  0  0  3  0  0  0  0  0  0
  182.8170  178.7630  140.6540 C   0  0  0  0  0  3  0  0  0  0  0  0
  189.3810  178.6750  137.1800 C   0  0  0  0  0  3  0  0  0  0  0  0
  186.9490  178.1320  140.7150 C   0  0  0  0  0  0  0  0  0  0  0  0
  189.2050  178.0420  139.5560 C   0  0  0  0  0  2  0  0  0  0  0  0
  185.8590  176.1690  137.4090 C   0  0  0  0  0  1  0  0  0  0  0  0
  184.8420  178.3370  141.8310 N   0  0  0  0  0  0  0  0  0  0  0  0
  186.1860  178.1330  141.9070 C   0  0  0  0  0  0  0  0  0  0  0  0
  182.1420  178.9850  139.4490 C   0  0  0  0  0  0  0  0  0  0  0  0
  184.9140  178.5310  139.4420 C   0  0  0  0  0  0  0  0  0  0  0  0
  188.3830  178.0930  140.7580 N   0  0  0  0  0  2  0  0  0  0  0  0
  186.5920  178.1280  145.6720 C   0  0  0  0  0  0  0  0  0  0  0  0
  187.8440  177.5280  145.8270 C   0  0  0  0  0  3  0  0  0  0  0  0
  186.7860  177.9360  143.2530 C   0  0  0  0  0  0  0  0  0  0  0  0
  188.5670  177.1260  144.7030 C   0  0  0  0  0  3  0  0  0  0  0  0
  186.0650  178.3260  144.3940 C   0  0  0  0  0  3  0  0  0  0  0  0
  188.0400  177.3240  143.4240 C   0  0  0  0  0  3  0  0  0  0  0  0
  185.6820  178.6290  147.0800 Cl  0  0  0  0  0  0  0  0  0  0  0  0
  180.6770  179.2430  139.4520 C   0  0  0  0  0  2  0  0  0  0  0  0
  180.3500  180.3850  140.4000 C   0  0  0  0  0  2  0  0  0  0  0  0
  179.7030  180.4960  142.8200 C   0  0  0  0  0  2  0  0  0  0  0  0
  180.5920  179.6200  143.4700 O   0  0  0  0  0  0  0  0  0  0  0  0
  178.9310  178.0200  142.8140 O   0  0  0  0  0  0  0  0  0  0  0  0
  179.3630  178.4150  141.5370 C   0  0  0  0  0  2  0  0  0  0  0  0
  179.3420  179.9370  141.4430 C   0  0  0  0  0  3  0  0  0  0  0  0
  179.9060  178.4100  143.7730 C   0  0  0  0  0  2  0  0  0  0  0  0
  1 11  1  6  0  0  0
  1 13  1  0  0  0  0
  2 14  1  6  0  0  0
  2  8  1  0  0  0  0
  3 12  1  0  0  0  0
  4 15  2  0  0  0  0
  5  6  1  0  0  0  0
  5 11  2  0  0  0  0
  6  2  1  0  0  0  0
  7  9  2  0  0  0  0
  7 18  1  0  0  0  0
  8  1  1  0  0  0  0
  8  3  1  1  0  0  0
  9 17  1  0  0  0  0
 10  4  1  0  0  0  0
 12 19  1  0  0  0  0
 12 16  2  0  0  0  0
 13 19  1  0  0  0  0
 15 16  1  0  0  0  0
 16 22  1  0  0  0  0
 17 27  1  0  0  0  0
 17 10  2  0  0  0  0
 18  3  2  0  0  0  0
 18  4  1  0  0  0  0
 20 21  1  0  0  0  0
 20 26  1  0  0  0  0
 22 25  2  0  0  0  0
 22 24  1  0  0  0  0
 23 21  2  0  0  0  0
 24 20  2  0  0  0  0
 25 23  1  0  0  0  0
 27 28  1  0  0  0  0
 28 33  1  0  0  0  0
 29 30  1  0  0  0  0
 30 34  1  0  0  0  0
 31 34  1  0  0  0  0
 32 31  1  0  0  0  0
 33 32  1  0  0  0  0
 33 29  1  0  0  0  0
M  END
>  <MODEL>
8

>  <REMARK>
 VINA RESULT:      -8.1      2.690      5.962
  Name = 
  4 active torsions:
  status: ('A' for Active; 'I' for Inactive)
    1  A    between atoms: C_3  and  C_13
    2  A    between atoms: C_3  and  C_29
    3  A    between atoms: C_12  and  C_28
    4  A    between atoms: C_13  and  C_33
                            x       y       z     vdW  Elec       q    Type
                         _______ _______ _______ _____ _____    ______ ____

>  <TORSDO>
F 4

$$$$
=
 OpenBabel10262419113D

 34 39  0  0  1  0  0  0  0  0999 V2000
  187.8640  176.7500  146.5230 C   0  0  2  0  0  3  0  0  0  0  0  0
  187.1520  179.1180  146.9610 C   0  0  1  0  0  3  0  0  0  0  0  0
  186.4740  177.9390  144.7950 C   0  0  0  0  0  0  0  0  0  0  0  0
  184.9650  178.3870  142.9460 C   0  0  0  0  0  0  0  0  0  0  0  0
  187.9910  177.6520  148.8510 C   0  0  0  0  0  3  0  0  0  0  0  0
  187.2470  178.9070  148.4720 C   0  0  0  0  0  2  0  0  0  0  0  0
  184.0870  178.3430  145.2080 C   0  0  0  0  0  3  0  0  0  0  0  0
  186.7540  177.7920  146.2790 C   0  0  1  0  0  3  0  0  0  0  0  0
  182.8100  178.6290  144.7170 C   0  0  0  0  0  3  0  0  0  0  0  0
  183.6870  178.6740  142.4600 C   0  0  0  0  0  3  0  0  0  0  0  0
  188.2260  176.6560  147.9810 C   0  0  0  0  0  3  0  0  0  0  0  0
  187.5190  177.7690  143.8620 C   0  0  0  0  0  0  0  0  0  0  0  0
  189.1130  177.1290  145.7300 C   0  0  0  0  0  2  0  0  0  0  0  0
  186.1610  180.2370  146.6970 C   0  0  0  0  0  1  0  0  0  0  0  0
  185.9980  178.2520  142.0790 N   0  0  0  0  0  0  0  0  0  0  0  0
  187.2640  177.9520  142.4820 C   0  0  0  0  0  0  0  0  0  0  0  0
  182.6100  178.8030  143.3440 C   0  0  0  0  0  0  0  0  0  0  0  0
  185.1770  178.2270  144.3310 C   0  0  0  0  0  0  0  0  0  0  0  0
  188.7920  177.2860  144.3180 N   0  0  0  0  0  2  0  0  0  0  0  0
  189.0660  178.2580  139.1650 C   0  0  0  0  0  0  0  0  0  0  0  0
  190.2910  177.6480  139.4450 C   0  0  0  0  0  3  0  0  0  0  0  0
  188.3150  177.8180  141.4390 C   0  0  0  0  0  0  0  0  0  0  0  0
  190.5370  177.1290  140.7170 C   0  0  0  0  0  3  0  0  0  0  0  0
  188.0870  178.3460  140.1580 C   0  0  0  0  0  3  0  0  0  0  0  0
  189.5560  177.2170  141.7090 C   0  0  0  0  0  3  0  0  0  0  0  0
  188.7590  178.9150  137.5730 Cl  0  0  0  0  0  0  0  0  0  0  0  0
  181.2470  179.0890  142.8210 C   0  0  0  0  0  2  0  0  0  0  0  0
  181.2620  179.0980  141.3010 C   0  0  0  0  0  2  0  0  0  0  0  0
  179.7590  177.0960  141.1640 C   0  0  0  0  0  2  0  0  0  0  0  0
  180.3700  176.2530  140.2170 O   0  0  0  0  0  0  0  0  0  0  0  0
  179.1200  177.6380  138.7100 O   0  0  0  0  0  0  0  0  0  0  0  0
  179.9840  178.6160  139.2330 C   0  0  0  0  0  2  0  0  0  0  0  0
  179.9530  178.5570  140.7560 C   0  0  0  0  0  3  0  0  0  0  0  0
  179.6570  176.3510  138.9890 C   0  0  0  0  0  2  0  0  0  0  0  0
  1 13  1  6  0  0  0
  1 11  1  0  0  0  0
  2 14  1  1  0  0  0
  2  6  1  0  0  0  0
  4 18  1  0  0  0  0
  6  5  1  0  0  0  0
  8  3  1  6  0  0  0
  8  1  1  0  0  0  0
  8  2  1  0  0  0  0
  9  7  1  0  0  0  0
 10  4  2  0  0  0  0
 10 17  1  0  0  0  0
 11  5  2  0  0  0  0
 12 19  1  0  0  0  0
 12  3  2  0  0  0  0
 15 16  2  0  0  0  0
 15  4  1  0  0  0  0
 16 12  1  0  0  0  0
 17  9  2  0  0  0  0
 18  3  1  0  0  0  0
 18  7  2  0  0  0  0
 19 13  1  0  0  0  0
 20 21  2  0  0  0  0
 20 24  1  0  0  0  0
 21 23  1  0  0  0  0
 22 25  1  0  0  0  0
 22 16  1  0  0  0  0
 23 25  2  0  0  0  0
 24 22  2  0  0  0  0
 26 20  1  0  0  0  0
 27 17  1  0  0  0  0
 28 27  1  0  0  0  0
 30 29  1  0  0  0  0
 31 34  1  0  0  0  0
 31 32  1  0  0  0  0
 32 33  1  0  0  0  0
 33 29  1  0  0  0  0
 33 28  1  0  0  0  0
 34 30  1  0  0  0  0
M  END
>  <MODEL>
9

>  <REMARK>
 VINA RESULT:      -7.9      2.279      3.599
  Name = 
  4 active torsions:
  status: ('A' for Active; 'I' for Inactive)
    1  A    between atoms: C_3  and  C_13
    2  A    between atoms: C_3  and  C_29
    3  A    between atoms: C_12  and  C_28
    4  A    between atoms: C_13  and  C_33
                            x       y       z     vdW  Elec       q    Type
                         _______ _______ _______ _____ _____    ______ ____

>  <TORSDO>
F 4

$$$$
