=
 OpenBabel10262421433D

 30 36  0  0  1  0  0  0  0  0999 V2000
  188.7520  177.7400  139.3160 C   0  0  0  0  0  0  0  0  0  0  0  0
  188.4560  178.8330  137.0420 C   0  0  0  0  0  0  0  0  0  0  0  0
  184.8270  177.5100  137.5610 N   0  0  0  0  0  0  0  0  0  0  0  0
  187.7060  178.1360  140.1660 C   0  0  0  0  0  0  0  0  0  0  0  0
  189.9950  177.3870  139.8520 C   0  0  0  0  0  3  0  0  0  0  0  0
  189.6230  177.7310  143.8020 S   0  0  0  0  0  0  0  0  0  0  0  0
  185.6620  179.4220  142.0630 C   0  0  1  0  0  3  0  0  0  0  0  0
  189.1390  177.7600  142.0780 C   0  0  0  0  0  0  0  0  0  0  0  0
  191.3890  177.1020  141.8720 N   0  0  0  0  0  2  0  0  0  0  0  0
  184.7090  178.9410  141.0520 N   0  0  2  0  0  0  0  0  0  0  0  0
  184.3480  177.8570  138.8710 C   0  0  0  0  0  0  0  0  0  0  0  0
  190.1720  177.4290  141.2330 C   0  0  0  0  0  0  0  0  0  0  0  0
  187.8720  178.1140  141.5700 C   0  0  0  0  0  0  0  0  0  0  0  0
  187.9400  178.7770  135.7160 N   0  0  0  0  0  0  0  0  0  0  0  0
  183.7060  178.2940  141.8640 C   0  0  0  0  0  2  0  0  0  0  0  0
  184.9290  179.8090  143.2010 O   0  0  0  0  0  0  0  0  0  0  0  0
  191.5730  175.8010  143.9120 C   0  0  0  0  0  1  0  0  0  0  0  0
  188.9480  179.9060  137.4800 O   0  0  0  0  0  0  0  0  0  0  0  0
  185.9940  177.0370  137.2410 C   0  0  0  0  0  0  0  0  0  0  0  0
  187.2890  177.7410  135.2820 C   0  0  0  0  0  3  0  0  0  0  0  0
  191.3110  177.1740  143.3250 C   0  0  2  0  0  3  0  0  0  0  0  0
  188.5210  177.5650  137.8410 C   0  0  2  0  0  3  0  0  0  0  0  0
  186.5010  178.5070  139.5870 O   0  0  0  0  0  0  0  0  0  0  0  0
  183.1100  178.0410  139.0200 O   0  0  0  0  0  0  0  0  0  0  0  0
  185.2670  178.0070  140.0600 C   0  0  1  0  0  3  0  0  0  0  0  0
  183.7390  179.0570  143.1650 C   0  0  0  0  0  2  0  0  0  0  0  0
  186.6200  177.8020  143.5590 O   0  0  0  0  0  0  0  0  0  0  0  0
  186.9490  176.5450  136.1470 C   0  0  1  0  0  3  0  0  0  0  0  0
  187.4250  176.5200  137.5110 C   0  0  2  0  0  3  0  0  0  0  0  0
  186.7300  178.4150  142.4630 C   0  0  0  0  0  0  0  0  0  0  0  0
  1  5  2  0  0  0  0
  1  4  1  0  0  0  0
  2 18  2  0  0  0  0
  3 11  1  0  0  0  0
  4 13  2  0  0  0  0
  5 12  1  0  0  0  0
  7 30  1  1  0  0  0
  7 16  1  0  0  0  0
  8  6  1  0  0  0  0
  9 21  1  0  0  0  0
 10 15  1  1  0  0  0
 10  7  1  0  0  0  0
 11 24  2  0  0  0  0
 12  9  1  0  0  0  0
 12  8  2  0  0  0  0
 13  8  1  0  0  0  0
 13 30  1  0  0  0  0
 14  2  1  0  0  0  0
 15 26  1  0  0  0  0
 19  3  2  0  0  0  0
 20 14  2  0  0  0  0
 21  6  1  0  0  0  0
 21 17  1  1  0  0  0
 22  2  1  1  0  0  0
 22  1  1  0  0  0  0
 23 25  1  0  0  0  0
 23  4  1  0  0  0  0
 25 11  1  6  0  0  0
 25 10  1  0  0  0  0
 26 16  1  0  0  0  0
 28 20  1  6  0  0  0
 28 19  1  0  0  0  0
 28 29  1  0  0  0  0
 29 19  1  1  0  0  0
 29 22  1  0  0  0  0
 30 27  2  0  0  0  0
M  END
>  <MODEL>
1

>  <REMARK>
 VINA RESULT:      -8.7      0.000      0.000
  Name = 
  0 active torsions:
  status: ('A' for Active; 'I' for Inactive)
                            x       y       z     vdW  Elec       q    Type
                         _______ _______ _______ _____ _____    ______ ____

>  <TORSDO>
F 0

$$$$
=
 OpenBabel10262421433D

 30 36  0  0  1  0  0  0  0  0999 V2000
  184.1560  178.9780  139.3660 C   0  0  0  0  0  0  0  0  0  0  0  0
  182.2110  180.4190  138.5960 C   0  0  0  0  0  0  0  0  0  0  0  0
  180.4590  178.5470  141.5300 N   0  0  0  0  0  0  0  0  0  0  0  0
  184.2810  179.0670  140.7630 C   0  0  0  0  0  0  0  0  0  0  0  0
  185.2790  178.7030  138.5790 C   0  0  0  0  0  3  0  0  0  0  0  0
  188.3170  178.2640  141.1150 S   0  0  0  0  0  0  0  0  0  0  0  0
  184.7560  179.6950  143.7300 C   0  0  1  0  0  3  0  0  0  0  0  0
  186.6350  178.5420  140.5690 C   0  0  0  0  0  0  0  0  0  0  0  0
  187.7060  178.2430  138.4950 N   0  0  0  0  0  2  0  0  0  0  0  0
  183.3480  179.2840  143.8440 N   0  0  2  0  0  0  0  0  0  0  0  0
  181.2810  178.5800  142.7090 C   0  0  0  0  0  0  0  0  0  0  0  0
  186.5110  178.5150  139.2000 C   0  0  0  0  0  0  0  0  0  0  0  0
  185.5200  178.8100  141.3910 C   0  0  0  0  0  0  0  0  0  0  0  0
  180.8290  180.5380  138.2750 N   0  0  0  0  0  0  0  0  0  0  0  0
  183.3890  178.3700  144.9600 C   0  0  0  0  0  2  0  0  0  0  0  0
  185.2940  179.7650  145.0290 O   0  0  0  0  0  0  0  0  0  0  0  0
  189.3790  176.6270  139.1840 C   0  0  0  0  0  1  0  0  0  0  0  0
  182.9310  181.4500  138.6680 O   0  0  0  0  0  0  0  0  0  0  0  0
  180.8310  178.3020  140.3100 C   0  0  0  0  0  0  0  0  0  0  0  0
  180.0250  179.5210  138.3410 C   0  0  0  0  0  3  0  0  0  0  0  0
  188.8530  178.0360  139.3690 C   0  0  2  0  0  3  0  0  0  0  0  0
  182.8070  179.0470  138.7070 C   0  0  2  0  0  3  0  0  0  0  0  0
  183.1460  179.3710  141.5000 O   0  0  0  0  0  0  0  0  0  0  0  0
  180.7070  178.5650  143.8310 O   0  0  0  0  0  0  0  0  0  0  0  0
  182.7880  178.6310  142.6490 C   0  0  1  0  0  3  0  0  0  0  0  0
  184.5280  178.8790  145.8110 C   0  0  0  0  0  2  0  0  0  0  0  0
  186.4050  177.9730  143.4260 O   0  0  0  0  0  0  0  0  0  0  0  0
  180.4470  178.1530  138.8330 C   0  0  1  0  0  3  0  0  0  0  0  0
  181.8320  177.9420  139.1880 C   0  0  2  0  0  3  0  0  0  0  0  0
  185.6190  178.7860  142.8690 C   0  0  0  0  0  0  0  0  0  0  0  0
  1  4  1  0  0  0  0
  2 18  2  0  0  0  0
  3 11  1  0  0  0  0
  4 13  2  0  0  0  0
  4 23  1  0  0  0  0
  5 12  1  0  0  0  0
  5  1  2  0  0  0  0
  7 30  1  6  0  0  0
  7 10  1  0  0  0  0
  7 16  1  0  0  0  0
  8  6  1  0  0  0  0
  8 13  1  0  0  0  0
  9 12  1  0  0  0  0
  9 21  1  0  0  0  0
 10 15  1  1  0  0  0
 11 24  2  0  0  0  0
 12  8  2  0  0  0  0
 13 30  1  0  0  0  0
 14 20  2  0  0  0  0
 14  2  1  0  0  0  0
 15 26  1  0  0  0  0
 16 26  1  0  0  0  0
 19  3  2  0  0  0  0
 21 17  1  1  0  0  0
 21  6  1  0  0  0  0
 22  2  1  1  0  0  0
 22 29  1  0  0  0  0
 22  1  1  0  0  0  0
 25 23  1  6  0  0  0
 25 11  1  0  0  0  0
 25 10  1  0  0  0  0
 28 20  1  6  0  0  0
 28 29  1  0  0  0  0
 28 19  1  0  0  0  0
 29 19  1  1  0  0  0
 30 27  2  0  0  0  0
M  END
>  <MODEL>
2

>  <REMARK>
 VINA RESULT:      -7.3      2.923      4.852
  Name = 
  0 active torsions:
  status: ('A' for Active; 'I' for Inactive)
                            x       y       z     vdW  Elec       q    Type
                         _______ _______ _______ _____ _____    ______ ____

>  <TORSDO>
F 0

$$$$
=
 OpenBabel10262421433D

 30 36  0  0  1  0  0  0  0  0999 V2000
  189.8700  177.1990  142.2040 C   0  0  0  0  0  0  0  0  0  0  0  0
  190.8040  175.4980  143.8430 C   0  0  0  0  0  0  0  0  0  0  0  0
  189.0950  177.9130  146.3790 N   0  0  0  0  0  0  0  0  0  0  0  0
  188.5250  177.4590  142.5140 C   0  0  0  0  0  0  0  0  0  0  0  0
  190.3260  177.3440  140.8900 C   0  0  0  0  0  3  0  0  0  0  0  0
  187.1880  178.5700  138.7670 S   0  0  0  0  0  0  0  0  0  0  0  0
  185.4930  177.5980  142.9800 C   0  0  1  0  0  3  0  0  0  0  0  0
  188.1270  178.0650  140.2060 C   0  0  0  0  0  0  0  0  0  0  0  0
  189.7890  177.9180  138.5470 N   0  0  0  0  0  2  0  0  0  0  0  0
  185.9130  177.9370  144.3490 N   0  0  2  0  0  0  0  0  0  0  0  0
  187.7550  178.2170  145.9580 C   0  0  0  0  0  0  0  0  0  0  0  0
  189.4310  177.7530  139.9040 C   0  0  0  0  0  0  0  0  0  0  0  0
  187.6380  177.9360  141.5230 C   0  0  0  0  0  0  0  0  0  0  0  0
  191.4850  175.2200  145.0620 N   0  0  0  0  0  0  0  0  0  0  0  0
  185.1010  179.0950  144.6370 C   0  0  0  0  0  2  0  0  0  0  0  0
  184.1180  177.8780  142.8670 O   0  0  0  0  0  0  0  0  0  0  0  0
  189.0550  179.7530  137.1390 C   0  0  0  0  0  1  0  0  0  0  0  0
  190.2640  174.5610  143.1960 O   0  0  0  0  0  0  0  0  0  0  0  0
  190.1680  177.8780  145.6470 C   0  0  0  0  0  0  0  0  0  0  0  0
  191.9190  176.1710  145.8310 C   0  0  0  0  0  3  0  0  0  0  0  0
  188.6920  178.4010  137.7190 C   0  0  2  0  0  3  0  0  0  0  0  0
  190.8650  176.8900  143.2880 C   0  0  2  0  0  3  0  0  0  0  0  0
  188.1110  177.2730  143.8250 O   0  0  0  0  0  0  0  0  0  0  0  0
  186.8970  178.4680  146.8470 O   0  0  0  0  0  0  0  0  0  0  0  0
  187.3440  178.2460  144.5050 C   0  0  1  0  0  3  0  0  0  0  0  0
  183.8500  178.8780  143.8210 C   0  0  0  0  0  2  0  0  0  0  0  0
  185.7070  179.2930  141.2900 O   0  0  0  0  0  0  0  0  0  0  0  0
  191.6810  177.6420  145.5580 C   0  0  1  0  0  3  0  0  0  0  0  0
  190.9900  178.0170  144.3460 C   0  0  2  0  0  3  0  0  0  0  0  0
  186.2540  178.3230  141.8810 C   0  0  0  0  0  0  0  0  0  0  0  0
  1  4  1  0  0  0  0
  2 14  1  0  0  0  0
  4 23  1  0  0  0  0
  5  1  2  0  0  0  0
  6  8  1  0  0  0  0
  7 30  1  6  0  0  0
  7 10  1  0  0  0  0
  8 13  1  0  0  0  0
  9 12  1  0  0  0  0
 10 25  1  0  0  0  0
 10 15  1  6  0  0  0
 11  3  1  0  0  0  0
 11 24  2  0  0  0  0
 12  8  2  0  0  0  0
 12  5  1  0  0  0  0
 13 30  1  0  0  0  0
 13  4  2  0  0  0  0
 14 20  2  0  0  0  0
 16  7  1  0  0  0  0
 16 26  1  0  0  0  0
 18  2  2  0  0  0  0
 19  3  2  0  0  0  0
 21 17  1  1  0  0  0
 21  9  1  0  0  0  0
 21  6  1  0  0  0  0
 22  1  1  1  0  0  0
 22  2  1  0  0  0  0
 22 29  1  0  0  0  0
 25 23  1  6  0  0  0
 25 11  1  0  0  0  0
 26 15  1  0  0  0  0
 27 30  2  0  0  0  0
 28 19  1  0  0  0  0
 28 20  1  6  0  0  0
 29 28  1  0  0  0  0
 29 19  1  1  0  0  0
M  END
>  <MODEL>
3

>  <REMARK>
 VINA RESULT:      -7.3      2.632      6.251
  Name = 
  0 active torsions:
  status: ('A' for Active; 'I' for Inactive)
                            x       y       z     vdW  Elec       q    Type
                         _______ _______ _______ _____ _____    ______ ____

>  <TORSDO>
F 0

$$$$
=
 OpenBabel10262421433D

 30 36  0  0  1  0  0  0  0  0999 V2000
  187.7270  177.9020  139.7040 C   0  0  0  0  0  0  0  0  0  0  0  0
  188.9970  178.5850  137.6140 C   0  0  0  0  0  0  0  0  0  0  0  0
  185.9640  176.8080  135.9320 N   0  0  0  0  0  0  0  0  0  0  0  0
  186.3740  178.2530  139.5670 C   0  0  0  0  0  0  0  0  0  0  0  0
  188.3050  177.8290  140.9760 C   0  0  0  0  0  3  0  0  0  0  0  0
  185.3980  178.6950  143.5550 S   0  0  0  0  0  0  0  0  0  0  0  0
  183.5640  179.4740  139.3610 C   0  0  1  0  0  3  0  0  0  0  0  0
  186.1810  178.3910  141.9740 C   0  0  0  0  0  0  0  0  0  0  0  0
  188.0100  178.0670  143.4180 N   0  0  0  0  0  2  0  0  0  0  0  0
  183.5320  178.7060  138.1060 N   0  0  2  0  0  0  0  0  0  0  0  0
  184.7300  177.2680  136.5080 C   0  0  0  0  0  0  0  0  0  0  0  0
  187.5200  178.1020  142.0930 C   0  0  0  0  0  0  0  0  0  0  0  0
  185.5660  178.4650  140.7070 C   0  0  0  0  0  0  0  0  0  0  0  0
  189.4940  178.2530  136.3210 N   0  0  0  0  0  0  0  0  0  0  0  0
  182.2550  178.0400  138.1920 C   0  0  0  0  0  2  0  0  0  0  0  0
  182.2530  179.9080  139.6380 O   0  0  0  0  0  0  0  0  0  0  0  0
  186.8150  177.1280  145.3090 C   0  0  0  0  0  1  0  0  0  0  0  0
  189.0550  179.7750  138.0240 O   0  0  0  0  0  0  0  0  0  0  0  0
  187.0560  176.4790  136.5530 C   0  0  0  0  0  0  0  0  0  0  0  0
  189.3140  177.0760  135.8040 C   0  0  0  0  0  3  0  0  0  0  0  0
  186.9860  178.3400  144.4170 C   0  0  2  0  0  3  0  0  0  0  0  0
  188.5380  177.4750  138.5130 C   0  0  2  0  0  3  0  0  0  0  0  0
  185.8520  178.3420  138.2850 O   0  0  0  0  0  0  0  0  0  0  0  0
  183.7030  177.2780  135.7770 O   0  0  0  0  0  0  0  0  0  0  0  0
  184.6240  177.7330  137.9400 C   0  0  1  0  0  3  0  0  0  0  0  0
  181.4010  178.9840  139.0030 C   0  0  0  0  0  2  0  0  0  0  0  0
  183.3150  178.2630  141.4220 O   0  0  0  0  0  0  0  0  0  0  0  0
  188.5060  175.9840  136.4740 C   0  0  1  0  0  3  0  0  0  0  0  0
  187.9560  176.2360  137.7860 C   0  0  2  0  0  3  0  0  0  0  0  0
  184.1140  178.7150  140.5590 C   0  0  0  0  0  0  0  0  0  0  0  0
  1  5  1  0  0  0  0
  2 18  2  0  0  0  0
  3 11  1  0  0  0  0
  3 19  2  0  0  0  0
  4  1  2  0  0  0  0
  4 13  1  0  0  0  0
  5 12  2  0  0  0  0
  6 21  1  0  0  0  0
  7 16  1  1  0  0  0
  7 30  1  0  0  0  0
  8 12  1  0  0  0  0
  8  6  1  0  0  0  0
  9 21  1  0  0  0  0
 10 15  1  1  0  0  0
 10  7  1  0  0  0  0
 12  9  1  0  0  0  0
 13  8  2  0  0  0  0
 14  2  1  0  0  0  0
 15 26  1  0  0  0  0
 20 14  2  0  0  0  0
 21 17  1  1  0  0  0
 22  2  1  6  0  0  0
 22  1  1  0  0  0  0
 23  4  1  0  0  0  0
 24 11  2  0  0  0  0
 25 11  1  6  0  0  0
 25 10  1  0  0  0  0
 25 23  1  0  0  0  0
 26 16  1  0  0  0  0
 28 20  1  6  0  0  0
 28 19  1  0  0  0  0
 28 29  1  0  0  0  0
 29 19  1  6  0  0  0
 29 22  1  0  0  0  0
 30 13  1  0  0  0  0
 30 27  2  0  0  0  0
M  END
>  <MODEL>
4

>  <REMARK>
 VINA RESULT:      -7.0      2.236      2.958
  Name = 
  0 active torsions:
  status: ('A' for Active; 'I' for Inactive)
                            x       y       z     vdW  Elec       q    Type
                         _______ _______ _______ _____ _____    ______ ____

>  <TORSDO>
F 0

$$$$
=
 OpenBabel10262421433D

 30 36  0  0  1  0  0  0  0  0999 V2000
  185.5360  178.2530  138.6270 C   0  0  0  0  0  0  0  0  0  0  0  0
  183.6830  179.9250  139.0940 C   0  0  0  0  0  0  0  0  0  0  0  0
  183.7370  178.0980  142.5350 N   0  0  0  0  0  0  0  0  0  0  0  0
  186.4510  178.2570  139.6940 C   0  0  0  0  0  0  0  0  0  0  0  0
  185.9620  177.9030  137.3410 C   0  0  0  0  0  3  0  0  0  0  0  0
  189.8320  177.0220  137.6670 S   0  0  0  0  0  0  0  0  0  0  0  0
  188.6140  178.6800  141.8310 C   0  0  1  0  0  3  0  0  0  0  0  0
  188.1870  177.5010  138.1870 C   0  0  0  0  0  0  0  0  0  0  0  0
  187.8280  177.1990  135.8810 N   0  0  0  0  0  2  0  0  0  0  0  0
  187.4920  178.4120  142.7440 N   0  0  2  0  0  0  0  0  0  0  0  0
  185.0840  177.9860  143.0230 C   0  0  0  0  0  0  0  0  0  0  0  0
  187.2960  177.5560  137.1410 C   0  0  0  0  0  0  0  0  0  0  0  0
  187.7870  177.8410  139.4970 C   0  0  0  0  0  0  0  0  0  0  0  0
  182.3920  180.2030  139.6270 N   0  0  0  0  0  0  0  0  0  0  0  0
  188.0630  177.4440  143.6490 C   0  0  0  0  0  2  0  0  0  0  0  0
  189.8050  178.6280  142.5800 O   0  0  0  0  0  0  0  0  0  0  0  0
  189.3950  175.3850  135.5080 C   0  0  0  0  0  1  0  0  0  0  0  0
  184.4250  180.8710  138.7180 O   0  0  0  0  0  0  0  0  0  0  0  0
  183.3080  177.8780  141.3290 C   0  0  0  0  0  0  0  0  0  0  0  0
  181.6630  179.2730  140.1640 C   0  0  0  0  0  3  0  0  0  0  0  0
  189.2360  176.8290  135.9370 C   0  0  2  0  0  3  0  0  0  0  0  0
  184.0730  178.4950  138.8660 C   0  0  2  0  0  3  0  0  0  0  0  0
  185.9900  178.6390  140.9450 O   0  0  0  0  0  0  0  0  0  0  0  0
  185.2630  177.9730  144.2710 O   0  0  0  0  0  0  0  0  0  0  0  0
  186.2770  177.8830  142.1040 C   0  0  1  0  0  3  0  0  0  0  0  0
  189.5320  177.7870  143.6770 C   0  0  0  0  0  2  0  0  0  0  0  0
  189.5780  176.8140  140.6630 O   0  0  0  0  0  0  0  0  0  0  0  0
  182.1310  177.8450  140.3470 C   0  0  1  0  0  3  0  0  0  0  0  0
  183.4330  177.4740  139.8420 C   0  0  2  0  0  3  0  0  0  0  0  0
  188.7140  177.7310  140.6470 C   0  0  0  0  0  0  0  0  0  0  0  0
  1  4  1  0  0  0  0
  2 14  1  0  0  0  0
  3 11  1  0  0  0  0
  4 23  1  0  0  0  0
  5  1  2  0  0  0  0
  6  8  1  0  0  0  0
  7 30  1  6  0  0  0
  7 16  1  0  0  0  0
  7 10  1  0  0  0  0
  8 13  1  0  0  0  0
  9 21  1  0  0  0  0
  9 12  1  0  0  0  0
 10 15  1  1  0  0  0
 11 24  2  0  0  0  0
 12  5  1  0  0  0  0
 12  8  2  0  0  0  0
 13  4  2  0  0  0  0
 13 30  1  0  0  0  0
 14 20  2  0  0  0  0
 15 26  1  0  0  0  0
 16 26  1  0  0  0  0
 18  2  2  0  0  0  0
 19  3  2  0  0  0  0
 21 17  1  1  0  0  0
 21  6  1  0  0  0  0
 22  1  1  1  0  0  0
 22  2  1  0  0  0  0
 22 29  1  0  0  0  0
 25 23  1  6  0  0  0
 25 10  1  0  0  0  0
 25 11  1  0  0  0  0
 28 20  1  6  0  0  0
 28 19  1  0  0  0  0
 29 28  1  0  0  0  0
 29 19  1  1  0  0  0
 30 27  2  0  0  0  0
M  END
>  <MODEL>
5

>  <REMARK>
 VINA RESULT:      -7.0      2.278      5.113
  Name = 
  0 active torsions:
  status: ('A' for Active; 'I' for Inactive)
                            x       y       z     vdW  Elec       q    Type
                         _______ _______ _______ _____ _____    ______ ____

>  <TORSDO>
F 0

$$$$
=
 OpenBabel10262421433D

 30 36  0  0  1  0  0  0  0  0999 V2000
  184.7320  178.5370  142.7730 C   0  0  0  0  0  0  0  0  0  0  0  0
  185.2720  179.7740  144.9240 C   0  0  0  0  0  0  0  0  0  0  0  0
  188.4040  177.4620  144.7470 N   0  0  0  0  0  0  0  0  0  0  0  0
  185.8640  178.5280  141.9400 C   0  0  0  0  0  0  0  0  0  0  0  0
  183.4510  178.4730  142.2130 C   0  0  0  0  0  3  0  0  0  0  0  0
  183.9840  178.2220  138.2750 S   0  0  0  0  0  0  0  0  0  0  0  0
  188.2210  178.9700  140.0230 C   0  0  1  0  0  3  0  0  0  0  0  0
  184.4210  178.3260  140.0080 C   0  0  0  0  0  0  0  0  0  0  0  0
  182.0730  178.3350  140.1660 N   0  0  0  0  0  2  0  0  0  0  0  0
  188.9830  178.3740  141.1310 N   0  0  2  0  0  0  0  0  0  0  0  0
  188.9860  177.5050  143.4340 C   0  0  0  0  0  0  0  0  0  0  0  0
  183.3200  178.3940  140.8290 C   0  0  0  0  0  0  0  0  0  0  0  0
  185.7260  178.3810  140.5410 C   0  0  0  0  0  0  0  0  0  0  0  0
  185.7250  179.7410  146.2730 N   0  0  0  0  0  0  0  0  0  0  0  0
  189.7850  177.3860  140.4490 C   0  0  0  0  0  2  0  0  0  0  0  0
  189.0550  179.0030  138.8890 O   0  0  0  0  0  0  0  0  0  0  0  0
  181.5800  176.8960  138.2770 C   0  0  0  0  0  1  0  0  0  0  0  0
  185.1040  180.8800  144.3440 O   0  0  0  0  0  0  0  0  0  0  0  0
  187.1450  177.3660  145.0550 C   0  0  0  0  0  0  0  0  0  0  0  0
  186.0550  178.6280  146.8530 C   0  0  0  0  0  3  0  0  0  0  0  0
  182.1970  178.2060  138.7210 C   0  0  2  0  0  3  0  0  0  0  0  0
  184.8750  178.4850  144.2680 C   0  0  2  0  0  3  0  0  0  0  0  0
  187.1120  178.6240  142.5370 O   0  0  0  0  0  0  0  0  0  0  0  0
  190.2300  177.3260  143.3310 O   0  0  0  0  0  0  0  0  0  0  0  0
  188.1690  177.7540  142.1890 C   0  0  1  0  0  3  0  0  0  0  0  0
  189.9910  177.9650  139.0710 C   0  0  0  0  0  2  0  0  0  0  0  0
  186.8830  177.5030  138.6670 O   0  0  0  0  0  0  0  0  0  0  0  0
  186.0700  177.2890  146.1450 C   0  0  1  0  0  3  0  0  0  0  0  0
  185.6330  177.2300  144.7690 C   0  0  2  0  0  3  0  0  0  0  0  0
  186.9250  178.2510  139.6810 C   0  0  0  0  0  0  0  0  0  0  0  0
  2 14  1  0  0  0  0
  3 19  2  0  0  0  0
  4 23  1  0  0  0  0
  4  1  2  0  0  0  0
  5  1  1  0  0  0  0
  6 21  1  0  0  0  0
  6  8  1  0  0  0  0
  7 16  1  6  0  0  0
  7 10  1  0  0  0  0
  8 13  2  0  0  0  0
  8 12  1  0  0  0  0
  9 12  1  0  0  0  0
 10 15  1  6  0  0  0
 10 25  1  0  0  0  0
 11  3  1  0  0  0  0
 12  5  2  0  0  0  0
 13  4  1  0  0  0  0
 14 20  2  0  0  0  0
 16 26  1  0  0  0  0
 18  2  2  0  0  0  0
 19 28  1  0  0  0  0
 21 17  1  1  0  0  0
 21  9  1  0  0  0  0
 22  1  1  6  0  0  0
 22 29  1  0  0  0  0
 22  2  1  0  0  0  0
 24 11  2  0  0  0  0
 25 23  1  1  0  0  0
 25 11  1  0  0  0  0
 26 15  1  0  0  0  0
 27 30  2  0  0  0  0
 28 20  1  6  0  0  0
 29 19  1  6  0  0  0
 29 28  1  0  0  0  0
 30  7  1  0  0  0  0
 30 13  1  0  0  0  0
M  END
>  <MODEL>
6

>  <REMARK>
 VINA RESULT:      -6.4      2.809      7.339
  Name = 
  0 active torsions:
  status: ('A' for Active; 'I' for Inactive)
                            x       y       z     vdW  Elec       q    Type
                         _______ _______ _______ _____ _____    ______ ____

>  <TORSDO>
F 0

$$$$
=
 OpenBabel10262421433D

 30 36  0  0  1  0  0  0  0  0999 V2000
  187.9940  177.9430  142.4970 C   0  0  0  0  0  0  0  0  0  0  0  0
  190.1320  178.4350  143.7770 C   0  0  0  0  0  0  0  0  0  0  0  0
  191.5990  176.1190  141.0070 N   0  0  0  0  0  0  0  0  0  0  0  0
  188.2180  178.1270  141.1220 C   0  0  0  0  0  0  0  0  0  0  0  0
  186.7120  178.1230  143.0270 C   0  0  0  0  0  3  0  0  0  0  0  0
  184.3700  179.0560  139.9450 S   0  0  0  0  0  0  0  0  0  0  0  0
  188.6800  179.0030  138.2160 C   0  0  1  0  0  3  0  0  0  0  0  0
  185.8660  178.6030  140.8180 C   0  0  0  0  0  0  0  0  0  0  0  0
  184.3440  178.6910  142.6100 N   0  0  0  0  0  2  0  0  0  0  0  0
  189.8020  178.0570  138.3110 N   0  0  2  0  0  0  0  0  0  0  0  0
  191.1310  176.5290  139.7110 C   0  0  0  0  0  0  0  0  0  0  0  0
  185.6700  178.4770  142.1730 C   0  0  0  0  0  0  0  0  0  0  0  0
  187.1450  178.4220  140.2510 C   0  0  0  0  0  0  0  0  0  0  0  0
  191.3460  177.9670  144.3570 N   0  0  0  0  0  0  0  0  0  0  0  0
  189.6490  177.2810  137.1040 C   0  0  0  0  0  2  0  0  0  0  0  0
  188.5060  179.3340  136.8580 O   0  0  0  0  0  0  0  0  0  0  0  0
  182.3620  177.9260  141.4380 C   0  0  0  0  0  1  0  0  0  0  0  0
  189.9080  179.6720  143.7000 O   0  0  0  0  0  0  0  0  0  0  0  0
  190.9070  176.0030  142.1000 C   0  0  0  0  0  0  0  0  0  0  0  0
  191.6800  176.7140  144.3160 C   0  0  0  0  0  3  0  0  0  0  0  0
  183.4250  179.0030  141.5230 C   0  0  2  0  0  3  0  0  0  0  0  0
  189.0860  177.4310  143.3940 C   0  0  2  0  0  3  0  0  0  0  0  0
  189.5120  177.9680  140.6460 O   0  0  0  0  0  0  0  0  0  0  0  0
  191.8800  176.3220  138.7190 O   0  0  0  0  0  0  0  0  0  0  0  0
  189.7900  177.1890  139.5000 C   0  0  1  0  0  3  0  0  0  0  0  0
  189.0130  178.2410  136.1280 C   0  0  0  0  0  2  0  0  0  0  0  0
  186.4650  178.0950  138.0040 O   0  0  0  0  0  0  0  0  0  0  0  0
  190.8730  175.6560  143.5930 C   0  0  1  0  0  3  0  0  0  0  0  0
  189.6290  176.0430  142.9680 C   0  0  2  0  0  3  0  0  0  0  0  0
  187.3660  178.4940  138.7890 C   0  0  0  0  0  0  0  0  0  0  0  0
  1  5  1  0  0  0  0
  2 14  1  0  0  0  0
  3 19  2  0  0  0  0
  4  1  2  0  0  0  0
  6  8  1  0  0  0  0
  6 21  1  0  0  0  0
  7 16  1  6  0  0  0
  7 10  1  0  0  0  0
  7 30  1  0  0  0  0
  8 12  1  0  0  0  0
 10 15  1  6  0  0  0
 10 25  1  0  0  0  0
 11  3  1  0  0  0  0
 12  9  1  0  0  0  0
 12  5  2  0  0  0  0
 13  8  2  0  0  0  0
 13  4  1  0  0  0  0
 18  2  2  0  0  0  0
 19 28  1  0  0  0  0
 20 14  2  0  0  0  0
 21 17  1  6  0  0  0
 21  9  1  0  0  0  0
 22  1  1  6  0  0  0
 22  2  1  0  0  0  0
 23  4  1  0  0  0  0
 24 11  2  0  0  0  0
 25 11  1  1  0  0  0
 25 23  1  0  0  0  0
 26 16  1  0  0  0  0
 26 15  1  0  0  0  0
 27 30  2  0  0  0  0
 28 20  1  1  0  0  0
 29 19  1  6  0  0  0
 29 22  1  0  0  0  0
 29 28  1  0  0  0  0
 30 13  1  0  0  0  0
M  END
>  <MODEL>
7

>  <REMARK>
 VINA RESULT:      -6.4      2.505      6.605
  Name = 
  0 active torsions:
  status: ('A' for Active; 'I' for Inactive)
                            x       y       z     vdW  Elec       q    Type
                         _______ _______ _______ _____ _____    ______ ____

>  <TORSDO>
F 0

$$$$
=
 OpenBabel10262421433D

 30 36  0  0  1  0  0  0  0  0999 V2000
  182.9100  176.5620  137.4880 C   0  0  0  0  0  0  0  0  0  0  0  0
  181.3570  178.5390  137.8520 C   0  0  0  0  0  0  0  0  0  0  0  0
  183.6960  179.0250  140.9310 N   0  0  0  0  0  0  0  0  0  0  0  0
  184.2440  176.9840  137.6140 C   0  0  0  0  0  0  0  0  0  0  0  0
  182.5960  175.4660  136.6770 C   0  0  0  0  0  3  0  0  0  0  0  0
  186.0590  174.1600  135.2080 S   0  0  0  0  0  0  0  0  0  0  0  0
  187.1020  178.0940  137.4440 C   0  0  1  0  0  3  0  0  0  0  0  0
  184.9370  175.1720  136.1690 C   0  0  0  0  0  0  0  0  0  0  0  0
  183.4100  173.6950  135.1580 N   0  0  0  0  0  2  0  0  0  0  0  0
  186.7670  178.6280  138.7730 N   0  0  2  0  0  0  0  0  0  0  0  0
  185.0740  178.9380  140.5330 C   0  0  0  0  0  0  0  0  0  0  0  0
  183.6220  174.8040  136.0070 C   0  0  0  0  0  0  0  0  0  0  0  0
  185.2870  176.2680  136.9850 C   0  0  0  0  0  0  0  0  0  0  0  0
  180.5670  179.3270  138.7360 N   0  0  0  0  0  0  0  0  0  0  0  0
  187.9240  178.2530  139.5500 C   0  0  0  0  0  2  0  0  0  0  0  0
  188.4900  178.2350  137.2560 O   0  0  0  0  0  0  0  0  0  0  0  0
  184.8120  171.7160  135.0910 C   0  0  0  0  0  1  0  0  0  0  0  0
  181.5570  178.9290  136.6700 O   0  0  0  0  0  0  0  0  0  0  0  0
  182.7150  178.2520  140.5720 C   0  0  0  0  0  0  0  0  0  0  0  0
  180.4650  179.0390  139.9970 C   0  0  0  0  0  3  0  0  0  0  0  0
  184.6430  173.1440  134.6130 C   0  0  2  0  0  3  0  0  0  0  0  0
  181.8220  177.1900  138.3130 C   0  0  2  0  0  3  0  0  0  0  0  0
  184.5040  178.0940  138.4050 O   0  0  0  0  0  0  0  0  0  0  0  0
  185.9230  179.6000  141.1890 O   0  0  0  0  0  0  0  0  0  0  0  0
  185.5340  178.0900  139.3720 C   0  0  1  0  0  3  0  0  0  0  0  0
  189.0530  178.2430  138.5480 C   0  0  0  0  0  2  0  0  0  0  0  0
  187.5830  175.7460  137.2680 O   0  0  0  0  0  0  0  0  0  0  0  0
  181.2240  177.9080  140.6600 C   0  0  1  0  0  3  0  0  0  0  0  0
  182.0580  177.0600  139.8400 C   0  0  2  0  0  3  0  0  0  0  0  0
  186.7000  176.6450  137.2190 C   0  0  0  0  0  0  0  0  0  0  0  0
  1  4  1  0  0  0  0
  2 22  1  0  0  0  0
  2 14  1  0  0  0  0
  4 23  1  0  0  0  0
  5  1  2  0  0  0  0
  6  8  1  0  0  0  0
  7 30  1  1  0  0  0
  7 10  1  0  0  0  0
  8 13  1  0  0  0  0
  9 12  1  0  0  0  0
 10 25  1  0  0  0  0
 10 15  1  1  0  0  0
 11  3  1  0  0  0  0
 11 24  2  0  0  0  0
 12  8  2  0  0  0  0
 12  5  1  0  0  0  0
 13 30  1  0  0  0  0
 13  4  2  0  0  0  0
 14 20  2  0  0  0  0
 16  7  1  0  0  0  0
 16 26  1  0  0  0  0
 18  2  2  0  0  0  0
 19 28  1  0  0  0  0
 19  3  2  0  0  0  0
 21 17  1  1  0  0  0
 21  9  1  0  0  0  0
 21  6  1  0  0  0  0
 22  1  1  6  0  0  0
 22 29  1  0  0  0  0
 25 23  1  6  0  0  0
 25 11  1  0  0  0  0
 26 15  1  0  0  0  0
 28 20  1  6  0  0  0
 29 19  1  6  0  0  0
 29 28  1  0  0  0  0
 30 27  2  0  0  0  0
M  END
>  <MODEL>
8

>  <REMARK>
 VINA RESULT:      -6.3      3.309      6.989
  Name = 
  0 active torsions:
  status: ('A' for Active; 'I' for Inactive)
                            x       y       z     vdW  Elec       q    Type
                         _______ _______ _______ _____ _____    ______ ____

>  <TORSDO>
F 0

$$$$
=
 OpenBabel10262421433D

 30 36  0  0  1  0  0  0  0  0999 V2000
  187.7910  176.6080  137.2480 C   0  0  0  0  0  0  0  0  0  0  0  0
  188.7310  174.5370  136.1170 C   0  0  0  0  0  0  0  0  0  0  0  0
  192.0800  176.2470  137.1410 N   0  0  0  0  0  0  0  0  0  0  0  0
  188.4260  176.7940  138.4880 C   0  0  0  0  0  0  0  0  0  0  0  0
  186.4880  177.0770  137.0520 C   0  0  0  0  0  3  0  0  0  0  0  0
  185.4260  178.8330  140.4640 S   0  0  0  0  0  0  0  0  0  0  0  0
  189.5260  176.8410  141.3540 C   0  0  1  0  0  3  0  0  0  0  0  0
  186.4710  177.9700  139.2940 C   0  0  0  0  0  0  0  0  0  0  0  0
  184.5210  178.2320  138.0030 N   0  0  0  0  0  2  0  0  0  0  0  0
  190.8190  176.8180  140.6520 N   0  0  2  0  0  0  0  0  0  0  0  0
  192.0320  176.6610  138.5170 C   0  0  0  0  0  0  0  0  0  0  0  0
  185.8390  177.7310  138.0960 C   0  0  0  0  0  0  0  0  0  0  0  0
  187.7870  177.5170  139.5210 C   0  0  0  0  0  0  0  0  0  0  0  0
  189.6770  173.9520  135.2280 N   0  0  0  0  0  0  0  0  0  0  0  0
  191.5440  177.8730  141.3190 C   0  0  0  0  0  2  0  0  0  0  0  0
  189.7710  177.1550  142.7050 O   0  0  0  0  0  0  0  0  0  0  0  0
  183.7910  180.3720  138.8840 C   0  0  0  0  0  1  0  0  0  0  0  0
  187.9990  173.8010  136.8310 O   0  0  0  0  0  0  0  0  0  0  0  0
  191.1580  176.3880  136.2370 C   0  0  0  0  0  0  0  0  0  0  0  0
  190.5510  174.6720  134.5940 C   0  0  0  0  0  3  0  0  0  0  0  0
  184.0820  178.9210  139.2090 C   0  0  2  0  0  3  0  0  0  0  0  0
  188.5360  176.0240  136.0810 C   0  0  2  0  0  3  0  0  0  0  0  0
  189.7060  176.2860  138.6460 O   0  0  0  0  0  0  0  0  0  0  0  0
  193.1130  176.6870  139.1650 O   0  0  0  0  0  0  0  0  0  0  0  0
  190.7490  177.0620  139.2020 C   0  0  1  0  0  3  0  0  0  0  0  0
  190.9770  177.8830  142.7170 C   0  0  0  0  0  2  0  0  0  0  0  0
  188.2990  178.9080  141.3720 O   0  0  0  0  0  0  0  0  0  0  0  0
  190.7030  176.1660  134.7900 C   0  0  1  0  0  3  0  0  0  0  0  0
  189.7890  176.8440  135.6810 C   0  0  2  0  0  3  0  0  0  0  0  0
  188.5070  177.8140  140.7810 C   0  0  0  0  0  0  0  0  0  0  0  0
  1  4  1  0  0  0  0
  2 18  2  0  0  0  0
  3 11  1  0  0  0  0
  4 23  1  0  0  0  0
  4 13  2  0  0  0  0
  5  1  2  0  0  0  0
  5 12  1  0  0  0  0
  7 30  1  6  0  0  0
  7 16  1  0  0  0  0
  8 13  1  0  0  0  0
  8  6  1  0  0  0  0
  9 12  1  0  0  0  0
  9 21  1  0  0  0  0
 10 15  1  1  0  0  0
 10  7  1  0  0  0  0
 11 24  2  0  0  0  0
 12  8  2  0  0  0  0
 13 30  1  0  0  0  0
 14  2  1  0  0  0  0
 15 26  1  0  0  0  0
 16 26  1  0  0  0  0
 19  3  2  0  0  0  0
 20 14  2  0  0  0  0
 21 17  1  6  0  0  0
 21  6  1  0  0  0  0
 22  2  1  1  0  0  0
 22  1  1  0  0  0  0
 23 25  1  0  0  0  0
 25 11  1  6  0  0  0
 25 10  1  0  0  0  0
 28 20  1  1  0  0  0
 28 29  1  0  0  0  0
 28 19  1  0  0  0  0
 29 22  1  0  0  0  0
 29 19  1  1  0  0  0
 30 27  2  0  0  0  0
M  END
>  <MODEL>
9

>  <REMARK>
 VINA RESULT:      -6.2      2.973      5.793
  Name = 
  0 active torsions:
  status: ('A' for Active; 'I' for Inactive)
                            x       y       z     vdW  Elec       q    Type
                         _______ _______ _______ _____ _____    ______ ____

>  <TORSDO>
F 0

$$$$
