=
 OpenBabel10252414513D

 34 37  0  0  1  0  0  0  0  0999 V2000
  183.4390  178.0050  139.7410 C   0  0  1  0  0  3  0  0  0  0  0  0
  185.3700  178.9640  140.9970 C   0  0  0  0  0  0  0  0  0  0  0  0
  183.4790  178.6580  142.2690 C   0  0  0  0  0  2  0  0  0  0  0  0
  185.6720  179.5650  142.1940 O   0  0  0  0  0  0  0  0  0  0  0  0
  184.4540  177.8110  138.6240 C   0  0  0  0  0  0  0  0  0  0  0  0
  186.1430  178.9420  139.9620 N   0  0  0  0  0  0  0  0  0  0  0  0
  185.7310  178.2880  138.7440 C   0  0  0  0  0  0  0  0  0  0  0  0
  184.5650  179.4110  143.0810 C   0  0  2  0  0  3  0  0  0  0  0  0
  184.1040  178.3700  140.9880 N   0  0  0  0  0  0  0  0  0  0  0  0
  182.8060  180.1780  138.8600 N   0  0  0  0  0  0  0  0  0  0  0  0
  180.9590  178.7210  139.5590 C   0  0  0  0  0  0  0  0  0  0  0  0
  180.5940  181.0940  138.7530 C   0  0  0  0  0  3  0  0  0  0  0  0
  180.1120  179.8990  139.3730 N   0  0  0  0  0  0  0  0  0  0  0  0
  182.4210  179.0430  139.3700 C   0  0  0  0  0  0  0  0  0  0  0  0
  181.8920  181.2210  138.4990 C   0  0  0  0  0  3  0  0  0  0  0  0
  180.5800  177.7400  138.6620 F   0  0  0  0  0  0  0  0  0  0  0  0
  186.7640  178.1500  137.6850 C   0  0  0  0  0  0  0  0  0  0  0  0
  186.9350  179.0550  136.8250 O   0  0  0  0  0  0  0  0  0  0  0  0
  188.7130  176.7970  138.1940 N   0  0  0  0  0  0  0  0  0  0  0  0
  187.5610  176.9520  137.6600 N   0  0  0  0  0  0  0  0  0  0  0  0
  189.4550  177.8340  138.9010 C   0  0  0  0  0  2  0  0  0  0  0  0
  189.4920  177.5220  140.3850 C   0  0  0  0  0  2  0  0  0  0  0  0
  190.3960  176.4140  140.6230 N   0  0  0  0  0  1  0  0  0  0  0  0
  183.3840  175.7460  137.7570 C   0  0  0  0  0  1  0  0  0  0  0  0
  183.9580  177.1050  137.3960 C   0  0  0  0  0  2  0  0  0  0  0  0
  184.9900  178.5850  144.2830 C   0  0  0  0  0  2  0  0  0  0  0  0
  186.3090  177.8860  144.0040 C   0  0  0  0  0  2  0  0  0  0  0  0
  188.9020  176.7760  144.1380 O   0  0  0  0  0  0  0  0  0  0  0  0
  187.0700  177.7450  145.2360 N   0  0  0  0  0  0  0  0  0  0  0  0
  188.4050  177.2060  145.2130 C   0  0  0  0  0  0  0  0  0  0  0  0
  188.3920  177.1720  147.7080 C   0  0  0  0  0  2  0  0  0  0  0  0
  187.3060  178.2350  147.6430 C   0  0  0  0  0  2  0  0  0  0  0  0
  186.3520  177.9110  146.4990 C   0  0  0  0  0  2  0  0  0  0  0  0
  189.2520  177.2260  146.4500 C   0  0  0  0  0  2  0  0  0  0  0  0
  1 14  1  6  0  0  0
  1  9  1  0  0  0  0
  2  4  1  0  0  0  0
  3  8  1  0  0  0  0
  4  8  1  0  0  0  0
  5  7  2  0  0  0  0
  5  1  1  0  0  0  0
  6  2  2  0  0  0  0
  7  6  1  0  0  0  0
  8 26  1  1  0  0  0
  9  2  1  0  0  0  0
  9  3  1  0  0  0  0
 10 14  1  0  0  0  0
 12 13  2  0  0  0  0
 13 11  1  0  0  0  0
 14 11  2  0  0  0  0
 15 12  1  0  0  0  0
 15 10  2  0  0  0  0
 16 11  1  0  0  0  0
 17  7  1  0  0  0  0
 18 17  2  0  0  0  0
 19 21  1  0  0  0  0
 20 17  1  0  0  0  0
 20 19  2  0  0  0  0
 21 22  1  0  0  0  0
 22 23  1  0  0  0  0
 25 24  1  0  0  0  0
 25  5  1  0  0  0  0
 27 26  1  0  0  0  0
 27 29  1  0  0  0  0
 28 30  2  0  0  0  0
 29 33  1  0  0  0  0
 30 29  1  0  0  0  0
 30 34  1  0  0  0  0
 32 31  1  0  0  0  0
 33 32  1  0  0  0  0
 34 31  1  0  0  0  0
M  END
>  <MODEL>
1

>  <REMARK>
 VINA RESULT:      -7.7      0.000      0.000
  Name = 
  9 active torsions:
  status: ('A' for Active; 'I' for Inactive)
    1  A    between atoms: C_3  and  N_13
    2  A    between atoms: C_3  and  C_17
    3  A    between atoms: C_4  and  C_15
    4  A    between atoms: C_7  and  C_8
    5  A    between atoms: C_8  and  N_16
    6  A    between atoms: C_12  and  N_27
    7  A    between atoms: C_12  and  C_28
    8  A    between atoms: C_17  and  C_29
    9  A    between atoms: C_21  and  C_32
                            x       y       z     vdW  Elec       q    Type
                         _______ _______ _______ _____ _____    ______ ____

>  <TORSDO>
F 9

$$$$
=
 OpenBabel10252414513D

 34 37  0  0  1  0  0  0  0  0999 V2000
  190.4680  175.8460  138.2770 C   0  0  1  0  0  3  0  0  0  0  0  0
  192.2510  176.9970  139.5880 C   0  0  0  0  0  0  0  0  0  0  0  0
  190.2720  176.7300  140.7260 C   0  0  0  0  0  2  0  0  0  0  0  0
  192.4300  177.7190  140.7440 O   0  0  0  0  0  0  0  0  0  0  0  0
  191.5800  175.5930  137.2690 C   0  0  0  0  0  0  0  0  0  0  0  0
  193.1090  176.9140  138.6260 N   0  0  0  0  0  0  0  0  0  0  0  0
  192.8250  176.1340  137.4460 C   0  0  0  0  0  0  0  0  0  0  0  0
  191.2580  177.5990  141.5480 C   0  0  2  0  0  3  0  0  0  0  0  0
  191.0120  176.3520  139.5340 N   0  0  0  0  0  0  0  0  0  0  0  0
  189.8080  178.0040  137.3780 N   0  0  0  0  0  0  0  0  0  0  0  0
  188.0300  176.3210  137.5520 C   0  0  0  0  0  0  0  0  0  0  0  0
  187.5880  178.6980  136.7990 C   0  0  0  0  0  3  0  0  0  0  0  0
  187.1180  177.4190  137.2300 N   0  0  0  0  0  0  0  0  0  0  0  0
  189.4500  176.8010  137.7280 C   0  0  0  0  0  0  0  0  0  0  0  0
  188.8870  178.9740  136.8640 C   0  0  0  0  0  3  0  0  0  0  0  0
  187.9810  175.3760  136.5450 F   0  0  0  0  0  0  0  0  0  0  0  0
  193.9480  175.9430  136.4930 C   0  0  0  0  0  0  0  0  0  0  0  0
  194.5470  176.9320  135.9910 O   0  0  0  0  0  0  0  0  0  0  0  0
  195.2950  173.9310  136.6590 N   0  0  0  0  0  0  0  0  0  0  0  0
  194.3310  174.6000  136.1470 N   0  0  0  0  0  0  0  0  0  0  0  0
  196.2170  174.4320  137.6710 C   0  0  0  0  0  2  0  0  0  0  0  0
  195.7030  174.0850  139.0560 C   0  0  0  0  0  2  0  0  0  0  0  0
  195.9970  175.1750  139.9660 N   0  0  0  0  0  1  0  0  0  0  0  0
  190.7000  173.3990  136.5170 C   0  0  0  0  0  1  0  0  0  0  0  0
  191.2140  174.7580  136.0780 C   0  0  0  0  0  2  0  0  0  0  0  0
  191.6080  176.9060  142.8540 C   0  0  0  0  0  2  0  0  0  0  0  0
  190.5020  175.9450  143.2550 C   0  0  0  0  0  2  0  0  0  0  0  0
  187.7810  176.6470  142.9780 O   0  0  0  0  0  0  0  0  0  0  0  0
  189.7000  176.5250  144.3220 N   0  0  0  0  0  0  0  0  0  0  0  0
  188.3050  176.8170  144.1120 C   0  0  0  0  0  0  0  0  0  0  0  0
  188.2540  177.9700  146.3230 C   0  0  0  0  0  2  0  0  0  0  0  0
  189.4740  177.1440  146.7000 C   0  0  0  0  0  2  0  0  0  0  0  0
  190.4030  177.0410  145.4950 C   0  0  0  0  0  2  0  0  0  0  0  0
  187.4400  177.2450  145.2580 C   0  0  0  0  0  2  0  0  0  0  0  0
  1 14  1  6  0  0  0
  1  9  1  0  0  0  0
  2  4  1  0  0  0  0
  3  8  1  0  0  0  0
  4  8  1  0  0  0  0
  5  7  2  0  0  0  0
  5  1  1  0  0  0  0
  6  2  2  0  0  0  0
  7  6  1  0  0  0  0
  8 26  1  1  0  0  0
  9  2  1  0  0  0  0
  9  3  1  0  0  0  0
 10 14  1  0  0  0  0
 11 14  2  0  0  0  0
 12 15  1  0  0  0  0
 12 13  2  0  0  0  0
 13 11  1  0  0  0  0
 15 10  2  0  0  0  0
 16 11  1  0  0  0  0
 17  7  1  0  0  0  0
 18 17  2  0  0  0  0
 19 21  1  0  0  0  0
 20 17  1  0  0  0  0
 20 19  2  0  0  0  0
 21 22  1  0  0  0  0
 22 23  1  0  0  0  0
 25 24  1  0  0  0  0
 25  5  1  0  0  0  0
 26 27  1  0  0  0  0
 27 29  1  0  0  0  0
 28 30  2  0  0  0  0
 29 33  1  0  0  0  0
 30 29  1  0  0  0  0
 30 34  1  0  0  0  0
 31 32  1  0  0  0  0
 33 32  1  0  0  0  0
 34 31  1  0  0  0  0
M  END
>  <MODEL>
2

>  <REMARK>
 VINA RESULT:      -7.5      4.299      6.659
  Name = 
  9 active torsions:
  status: ('A' for Active; 'I' for Inactive)
    1  A    between atoms: C_3  and  N_13
    2  A    between atoms: C_3  and  C_17
    3  A    between atoms: C_4  and  C_15
    4  A    between atoms: C_7  and  C_8
    5  A    between atoms: C_8  and  N_16
    6  A    between atoms: C_12  and  N_27
    7  A    between atoms: C_12  and  C_28
    8  A    between atoms: C_17  and  C_29
    9  A    between atoms: C_21  and  C_32
                            x       y       z     vdW  Elec       q    Type
                         _______ _______ _______ _____ _____    ______ ____

>  <TORSDO>
F 9

$$$$
=
 OpenBabel10252414513D

 34 37  0  0  1  0  0  0  0  0999 V2000
  189.6180  176.0900  138.7670 C   0  0  1  0  0  3  0  0  0  0  0  0
  191.2490  177.1630  140.3200 C   0  0  0  0  0  0  0  0  0  0  0  0
  189.1070  177.0390  141.1450 C   0  0  0  0  0  2  0  0  0  0  0  0
  191.2950  177.8990  141.4790 O   0  0  0  0  0  0  0  0  0  0  0  0
  190.8530  175.7500  137.9440 C   0  0  0  0  0  0  0  0  0  0  0  0
  192.2370  177.0070  139.5010 N   0  0  0  0  0  0  0  0  0  0  0  0
  192.0870  176.2190  138.3030 C   0  0  0  0  0  0  0  0  0  0  0  0
  190.0090  177.8670  142.0960 C   0  0  2  0  0  3  0  0  0  0  0  0
  189.9950  176.5910  140.0850 N   0  0  0  0  0  0  0  0  0  0  0  0
  187.5350  176.7810  137.7250 N   0  0  0  0  0  0  0  0  0  0  0  0
  189.3200  178.4640  137.7800 C   0  0  0  0  0  0  0  0  0  0  0  0
  187.1060  178.8630  136.6180 C   0  0  0  0  0  3  0  0  0  0  0  0
  188.4580  179.2400  136.8900 N   0  0  0  0  0  0  0  0  0  0  0  0
  188.7570  177.0910  138.0560 C   0  0  0  0  0  0  0  0  0  0  0  0
  186.6620  177.6800  137.0290 C   0  0  0  0  0  3  0  0  0  0  0  0
  189.4800  179.1470  138.9710 F   0  0  0  0  0  0  0  0  0  0  0  0
  193.3280  175.9410  137.5350 C   0  0  0  0  0  0  0  0  0  0  0  0
  194.0080  176.8790  137.0390 O   0  0  0  0  0  0  0  0  0  0  0  0
  194.6740  173.9740  137.9910 N   0  0  0  0  0  0  0  0  0  0  0  0
  193.7330  174.5710  137.3630 N   0  0  0  0  0  0  0  0  0  0  0  0
  195.5470  174.5950  138.9800 C   0  0  0  0  0  2  0  0  0  0  0  0
  196.9920  174.2360  138.6930 C   0  0  0  0  0  2  0  0  0  0  0  0
  197.6230  175.3180  137.9620 N   0  0  0  0  0  1  0  0  0  0  0  0
  189.8160  173.6710  137.0700 C   0  0  0  0  0  1  0  0  0  0  0  0
  190.6210  174.9100  136.7220 C   0  0  0  0  0  2  0  0  0  0  0  0
  190.1120  177.1840  143.4490 C   0  0  0  0  0  2  0  0  0  0  0  0
  188.8180  176.4590  143.7750 C   0  0  0  0  0  2  0  0  0  0  0  0
  186.2730  177.6620  143.9920 O   0  0  0  0  0  0  0  0  0  0  0  0
  188.2620  176.9660  145.0210 N   0  0  0  0  0  0  0  0  0  0  0  0
  186.9370  177.5290  145.0540 C   0  0  0  0  0  0  0  0  0  0  0  0
  187.3460  178.2540  147.4060 C   0  0  0  0  0  2  0  0  0  0  0  0
  188.4150  177.1730  147.4750 C   0  0  0  0  0  2  0  0  0  0  0  0
  189.1730  177.1300  146.1520 C   0  0  0  0  0  2  0  0  0  0  0  0
  186.2980  177.8860  146.3620 C   0  0  0  0  0  2  0  0  0  0  0  0
  1 14  1  6  0  0  0
  1  9  1  0  0  0  0
  2  4  1  0  0  0  0
  3  8  1  0  0  0  0
  4  8  1  0  0  0  0
  5  7  2  0  0  0  0
  5  1  1  0  0  0  0
  6  2  2  0  0  0  0
  7  6  1  0  0  0  0
  8 26  1  1  0  0  0
  9  2  1  0  0  0  0
  9  3  1  0  0  0  0
 10 14  1  0  0  0  0
 11 14  2  0  0  0  0
 11 16  1  0  0  0  0
 12 13  2  0  0  0  0
 12 15  1  0  0  0  0
 13 11  1  0  0  0  0
 15 10  2  0  0  0  0
 17  7  1  0  0  0  0
 18 17  2  0  0  0  0
 19 21  1  0  0  0  0
 20 17  1  0  0  0  0
 20 19  2  0  0  0  0
 22 21  1  0  0  0  0
 23 22  1  0  0  0  0
 25 24  1  0  0  0  0
 25  5  1  0  0  0  0
 26 27  1  0  0  0  0
 27 29  1  0  0  0  0
 28 30  2  0  0  0  0
 29 30  1  0  0  0  0
 29 33  1  0  0  0  0
 30 34  1  0  0  0  0
 31 32  1  0  0  0  0
 33 32  1  0  0  0  0
 34 31  1  0  0  0  0
M  END
>  <MODEL>
3

>  <REMARK>
 VINA RESULT:      -7.2      4.025      6.164
  Name = 
  9 active torsions:
  status: ('A' for Active; 'I' for Inactive)
    1  A    between atoms: C_3  and  N_13
    2  A    between atoms: C_3  and  C_17
    3  A    between atoms: C_4  and  C_15
    4  A    between atoms: C_7  and  C_8
    5  A    between atoms: C_8  and  N_16
    6  A    between atoms: C_12  and  N_27
    7  A    between atoms: C_12  and  C_28
    8  A    between atoms: C_17  and  C_29
    9  A    between atoms: C_21  and  C_32
                            x       y       z     vdW  Elec       q    Type
                         _______ _______ _______ _____ _____    ______ ____

>  <TORSDO>
F 9

$$$$
=
 OpenBabel10252414513D

 34 37  0  0  1  0  0  0  0  0999 V2000
  188.6920  176.9100  142.4310 C   0  0  1  0  0  3  0  0  0  0  0  0
  188.3350  178.1890  140.3190 C   0  0  0  0  0  0  0  0  0  0  0  0
  190.1720  176.8070  140.2830 C   0  0  0  0  0  2  0  0  0  0  0  0
  188.9700  178.5100  139.1450 O   0  0  0  0  0  0  0  0  0  0  0  0
  187.3260  177.4580  142.8190 C   0  0  0  0  0  0  0  0  0  0  0  0
  187.2700  178.7670  140.7680 N   0  0  0  0  0  0  0  0  0  0  0  0
  186.6790  178.3610  142.0200 C   0  0  0  0  0  0  0  0  0  0  0  0
  190.1250  177.6840  139.0040 C   0  0  2  0  0  3  0  0  0  0  0  0
  188.9690  177.1590  141.0200 N   0  0  0  0  0  0  0  0  0  0  0  0
  190.0560  178.7710  143.1920 N   0  0  0  0  0  0  0  0  0  0  0  0
  190.4800  176.6120  144.2790 C   0  0  0  0  0  0  0  0  0  0  0  0
  191.8610  178.6770  144.7660 C   0  0  0  0  0  3  0  0  0  0  0  0
  191.6470  177.2670  144.8670 N   0  0  0  0  0  0  0  0  0  0  0  0
  189.7730  177.5030  143.2870 C   0  0  0  0  0  0  0  0  0  0  0  0
  191.0870  179.4010  143.9640 C   0  0  0  0  0  3  0  0  0  0  0  0
  189.6030  176.2510  145.2850 F   0  0  0  0  0  0  0  0  0  0  0  0
  185.3540  178.9490  142.3480 C   0  0  0  0  0  0  0  0  0  0  0  0
  185.2540  180.1460  142.7310 O   0  0  0  0  0  0  0  0  0  0  0  0
  183.6220  177.7570  141.1350 N   0  0  0  0  0  0  0  0  0  0  0  0
  184.1870  178.1160  142.2260 N   0  0  0  0  0  0  0  0  0  0  0  0
  184.0430  178.1670  139.8000 C   0  0  0  0  0  2  0  0  0  0  0  0
  183.2700  179.4000  139.3710 C   0  0  0  0  0  2  0  0  0  0  0  0
  184.2000  180.4470  138.9970 N   0  0  0  0  0  1  0  0  0  0  0  0
  186.8920  178.0520  145.1890 C   0  0  0  0  0  1  0  0  0  0  0  0
  186.7680  176.9760  144.1250 C   0  0  0  0  0  2  0  0  0  0  0  0
  189.9750  176.8090  137.7720 C   0  0  0  0  0  2  0  0  0  0  0  0
  189.0640  177.4780  136.7570 C   0  0  0  0  0  2  0  0  0  0  0  0
  186.5480  178.6780  137.2060 O   0  0  0  0  0  0  0  0  0  0  0  0
  187.7980  176.7650  136.6750 N   0  0  0  0  0  0  0  0  0  0  0  0
  186.5530  177.4610  136.8780 C   0  0  0  0  0  0  0  0  0  0  0  0
  185.3670  175.2670  136.8430 C   0  0  0  0  0  2  0  0  0  0  0  0
  186.5590  174.7180  136.0750 C   0  0  0  0  0  2  0  0  0  0  0  0
  187.8430  175.3040  136.6510 C   0  0  0  0  0  2  0  0  0  0  0  0
  185.2490  176.7700  136.6200 C   0  0  0  0  0  2  0  0  0  0  0  0
  1  5  1  0  0  0  0
  1 14  1  1  0  0  0
  2  6  2  0  0  0  0
  2  9  1  0  0  0  0
  3  9  1  0  0  0  0
  4  2  1  0  0  0  0
  5 25  1  0  0  0  0
  6  7  1  0  0  0  0
  7 17  1  0  0  0  0
  7  5  2  0  0  0  0
  8 26  1  6  0  0  0
  8  4  1  0  0  0  0
  8  3  1  0  0  0  0
  9  1  1  0  0  0  0
 10 14  2  0  0  0  0
 10 15  1  0  0  0  0
 11 13  2  0  0  0  0
 11 16  1  0  0  0  0
 12 13  1  0  0  0  0
 14 11  1  0  0  0  0
 15 12  2  0  0  0  0
 17 18  2  0  0  0  0
 19 20  2  0  0  0  0
 20 17  1  0  0  0  0
 21 19  1  0  0  0  0
 22 21  1  0  0  0  0
 23 22  1  0  0  0  0
 25 24  1  0  0  0  0
 27 26  1  0  0  0  0
 29 27  1  0  0  0  0
 29 30  1  0  0  0  0
 30 28  2  0  0  0  0
 32 33  1  0  0  0  0
 32 31  1  0  0  0  0
 33 29  1  0  0  0  0
 34 31  1  0  0  0  0
 34 30  1  0  0  0  0
M  END
>  <MODEL>
4

>  <REMARK>
 VINA RESULT:      -7.2      2.858      8.229
  Name = 
  9 active torsions:
  status: ('A' for Active; 'I' for Inactive)
    1  A    between atoms: C_3  and  N_13
    2  A    between atoms: C_3  and  C_17
    3  A    between atoms: C_4  and  C_15
    4  A    between atoms: C_7  and  C_8
    5  A    between atoms: C_8  and  N_16
    6  A    between atoms: C_12  and  N_27
    7  A    between atoms: C_12  and  C_28
    8  A    between atoms: C_17  and  C_29
    9  A    between atoms: C_21  and  C_32
                            x       y       z     vdW  Elec       q    Type
                         _______ _______ _______ _____ _____    ______ ____

>  <TORSDO>
F 9

$$$$
=
 OpenBabel10252414513D

 34 37  0  0  1  0  0  0  0  0999 V2000
  189.7500  177.5490  137.8550 C   0  0  1  0  0  3  0  0  0  0  0  0
  188.7880  177.3900  140.1510 C   0  0  0  0  0  0  0  0  0  0  0  0
  191.0820  177.2650  140.0830 C   0  0  0  0  0  2  0  0  0  0  0  0
  189.1430  177.0670  141.4380 O   0  0  0  0  0  0  0  0  0  0  0  0
  188.3280  177.8990  137.4440 C   0  0  0  0  0  0  0  0  0  0  0  0
  187.5740  177.5140  139.7260 N   0  0  0  0  0  0  0  0  0  0  0  0
  187.3030  177.8520  138.3500 C   0  0  0  0  0  0  0  0  0  0  0  0
  190.5660  176.9880  141.5180 C   0  0  2  0  0  3  0  0  0  0  0  0
  189.8890  177.5650  139.3080 N   0  0  0  0  0  0  0  0  0  0  0  0
  189.4680  175.1480  137.6120 N   0  0  0  0  0  0  0  0  0  0  0  0
  191.3370  176.1420  136.3710 C   0  0  0  0  0  0  0  0  0  0  0  0
  190.9090  173.6470  136.4230 C   0  0  0  0  0  3  0  0  0  0  0  0
  191.7450  174.7630  136.1080 N   0  0  0  0  0  0  0  0  0  0  0  0
  190.1560  176.2120  137.3080 C   0  0  0  0  0  0  0  0  0  0  0  0
  189.8070  173.8380  137.1410 C   0  0  0  0  0  3  0  0  0  0  0  0
  191.0180  176.7600  135.1760 F   0  0  0  0  0  0  0  0  0  0  0  0
  185.8900  178.1620  138.0110 C   0  0  0  0  0  0  0  0  0  0  0  0
  185.1960  177.3610  137.3310 O   0  0  0  0  0  0  0  0  0  0  0  0
  184.5800  179.5680  139.4940 N   0  0  0  0  0  0  0  0  0  0  0  0
  185.3340  179.4070  138.4720 N   0  0  0  0  0  0  0  0  0  0  0  0
  184.1090  178.4980  140.3640 C   0  0  0  0  0  2  0  0  0  0  0  0
  184.3960  178.8460  141.8130 C   0  0  0  0  0  2  0  0  0  0  0  0
  185.7130  179.4440  141.9140 N   0  0  0  0  0  1  0  0  0  0  0  0
  187.7130  177.0370  135.2000 C   0  0  0  0  0  1  0  0  0  0  0  0
  188.1260  178.2580  136.0010 C   0  0  0  0  0  2  0  0  0  0  0  0
  191.0790  178.0490  142.4760 C   0  0  0  0  0  2  0  0  0  0  0  0
  189.9980  178.4270  143.4740 C   0  0  0  0  0  2  0  0  0  0  0  0
  188.0630  178.1870  145.5170 O   0  0  0  0  0  0  0  0  0  0  0  0
  190.2360  177.7580  144.7450 N   0  0  0  0  0  0  0  0  0  0  0  0
  189.1820  177.6430  145.7190 C   0  0  0  0  0  0  0  0  0  0  0  0
  190.8410  176.7430  147.3500 C   0  0  0  0  0  2  0  0  0  0  0  0
  191.6960  176.3540  146.1540 C   0  0  0  0  0  2  0  0  0  0  0  0
  191.6210  177.4550  145.1020 C   0  0  0  0  0  2  0  0  0  0  0  0
  189.3730  176.8030  146.9460 C   0  0  0  0  0  2  0  0  0  0  0  0
  1 14  1  1  0  0  0
  1  9  1  0  0  0  0
  2  4  1  0  0  0  0
  3  8  1  0  0  0  0
  4  8  1  0  0  0  0
  5  1  1  0  0  0  0
  5  7  2  0  0  0  0
  6  2  2  0  0  0  0
  7  6  1  0  0  0  0
  8 26  1  1  0  0  0
  9  3  1  0  0  0  0
  9  2  1  0  0  0  0
 11 14  2  0  0  0  0
 12 15  1  0  0  0  0
 13 11  1  0  0  0  0
 13 12  2  0  0  0  0
 14 10  1  0  0  0  0
 15 10  2  0  0  0  0
 16 11  1  0  0  0  0
 17  7  1  0  0  0  0
 17 20  1  0  0  0  0
 18 17  2  0  0  0  0
 19 21  1  0  0  0  0
 20 19  2  0  0  0  0
 21 22  1  0  0  0  0
 22 23  1  0  0  0  0
 24 25  1  0  0  0  0
 25  5  1  0  0  0  0
 26 27  1  0  0  0  0
 27 29  1  0  0  0  0
 28 30  2  0  0  0  0
 29 33  1  0  0  0  0
 29 30  1  0  0  0  0
 30 34  1  0  0  0  0
 32 31  1  0  0  0  0
 33 32  1  0  0  0  0
 34 31  1  0  0  0  0
M  END
>  <MODEL>
5

>  <REMARK>
 VINA RESULT:      -7.1      3.066      6.449
  Name = 
  9 active torsions:
  status: ('A' for Active; 'I' for Inactive)
    1  A    between atoms: C_3  and  N_13
    2  A    between atoms: C_3  and  C_17
    3  A    between atoms: C_4  and  C_15
    4  A    between atoms: C_7  and  C_8
    5  A    between atoms: C_8  and  N_16
    6  A    between atoms: C_12  and  N_27
    7  A    between atoms: C_12  and  C_28
    8  A    between atoms: C_17  and  C_29
    9  A    between atoms: C_21  and  C_32
                            x       y       z     vdW  Elec       q    Type
                         _______ _______ _______ _____ _____    ______ ____

>  <TORSDO>
F 9

$$$$
=
 OpenBabel10252414513D

 34 37  0  0  1  0  0  0  0  0999 V2000
  188.6640  176.9960  142.4980 C   0  0  1  0  0  3  0  0  0  0  0  0
  188.2250  178.2360  140.3780 C   0  0  0  0  0  0  0  0  0  0  0  0
  190.1010  176.9080  140.3190 C   0  0  0  0  0  2  0  0  0  0  0  0
  188.8270  178.5600  139.1860 O   0  0  0  0  0  0  0  0  0  0  0  0
  187.2910  177.5090  142.9070 C   0  0  0  0  0  0  0  0  0  0  0  0
  187.1530  178.7880  140.8410 N   0  0  0  0  0  0  0  0  0  0  0  0
  186.6010  178.3820  142.1110 C   0  0  0  0  0  0  0  0  0  0  0  0
  190.0020  177.7660  139.0310 C   0  0  2  0  0  3  0  0  0  0  0  0
  188.9040  177.2350  141.0780 N   0  0  0  0  0  0  0  0  0  0  0  0
  189.9730  178.9110  143.2220 N   0  0  0  0  0  0  0  0  0  0  0  0
  190.5160  176.7690  144.2910 C   0  0  0  0  0  0  0  0  0  0  0  0
  191.8260  178.8890  144.7420 C   0  0  0  0  0  3  0  0  0  0  0  0
  191.6730  177.4710  144.8460 N   0  0  0  0  0  0  0  0  0  0  0  0
  189.7450  177.6320  143.3220 C   0  0  0  0  0  0  0  0  0  0  0  0
  191.0000  179.5810  143.9650 C   0  0  0  0  0  3  0  0  0  0  0  0
  189.6850  176.3720  145.3220 F   0  0  0  0  0  0  0  0  0  0  0  0
  185.2670  178.9350  142.4590 C   0  0  0  0  0  0  0  0  0  0  0  0
  185.1600  180.0250  143.0830 O   0  0  0  0  0  0  0  0  0  0  0  0
  183.4610  178.2970  140.9680 N   0  0  0  0  0  0  0  0  0  0  0  0
  184.0960  178.1920  142.0740 N   0  0  0  0  0  0  0  0  0  0  0  0
  183.7910  179.2320  139.8990 C   0  0  0  0  0  2  0  0  0  0  0  0
  183.7320  178.5250  138.5580 C   0  0  0  0  0  2  0  0  0  0  0  0
  185.0790  178.2230  138.1130 N   0  0  0  0  0  1  0  0  0  0  0  0
  186.9670  178.0910  145.2980 C   0  0  0  0  0  1  0  0  0  0  0  0
  186.7750  177.0280  144.2310 C   0  0  0  0  0  2  0  0  0  0  0  0
  189.8520  176.8710  137.8140 C   0  0  0  0  0  2  0  0  0  0  0  0
  190.7260  175.6370  137.9550 C   0  0  0  0  0  2  0  0  0  0  0  0
  193.3310  176.5900  138.4810 O   0  0  0  0  0  0  0  0  0  0  0  0
  191.7960  175.6670  136.9680 N   0  0  0  0  0  0  0  0  0  0  0  0
  193.1100  176.1310  137.3290 C   0  0  0  0  0  0  0  0  0  0  0  0
  193.7640  176.0290  134.9230 C   0  0  0  0  0  2  0  0  0  0  0  0
  192.6290  175.0340  134.7330 C   0  0  0  0  0  2  0  0  0  0  0  0
  191.4300  175.4730  135.5660 C   0  0  0  0  0  2  0  0  0  0  0  0
  194.2520  175.9960  136.3670 C   0  0  0  0  0  2  0  0  0  0  0  0
  1  5  1  0  0  0  0
  1 14  1  1  0  0  0
  2  6  2  0  0  0  0
  2  9  1  0  0  0  0
  3  9  1  0  0  0  0
  4  2  1  0  0  0  0
  5 25  1  0  0  0  0
  6  7  1  0  0  0  0
  7 17  1  0  0  0  0
  7  5  2  0  0  0  0
  8 26  1  6  0  0  0
  8  4  1  0  0  0  0
  8  3  1  0  0  0  0
  9  1  1  0  0  0  0
 10 14  2  0  0  0  0
 10 15  1  0  0  0  0
 11 13  2  0  0  0  0
 11 16  1  0  0  0  0
 12 13  1  0  0  0  0
 14 11  1  0  0  0  0
 15 12  2  0  0  0  0
 17 18  2  0  0  0  0
 19 20  2  0  0  0  0
 20 17  1  0  0  0  0
 21 19  1  0  0  0  0
 22 21  1  0  0  0  0
 23 22  1  0  0  0  0
 25 24  1  0  0  0  0
 26 27  1  0  0  0  0
 29 30  1  0  0  0  0
 29 27  1  0  0  0  0
 30 28  2  0  0  0  0
 31 34  1  0  0  0  0
 32 31  1  0  0  0  0
 32 33  1  0  0  0  0
 33 29  1  0  0  0  0
 34 30  1  0  0  0  0
M  END
>  <MODEL>
6

>  <REMARK>
 VINA RESULT:      -6.9      3.677      8.559
  Name = 
  9 active torsions:
  status: ('A' for Active; 'I' for Inactive)
    1  A    between atoms: C_3  and  N_13
    2  A    between atoms: C_3  and  C_17
    3  A    between atoms: C_4  and  C_15
    4  A    between atoms: C_7  and  C_8
    5  A    between atoms: C_8  and  N_16
    6  A    between atoms: C_12  and  N_27
    7  A    between atoms: C_12  and  C_28
    8  A    between atoms: C_17  and  C_29
    9  A    between atoms: C_21  and  C_32
                            x       y       z     vdW  Elec       q    Type
                         _______ _______ _______ _____ _____    ______ ____

>  <TORSDO>
F 9

$$$$
=
 OpenBabel10252414513D

 34 37  0  0  1  0  0  0  0  0999 V2000
  184.0190  179.4960  139.4520 C   0  0  1  0  0  3  0  0  0  0  0  0
  183.5670  178.4740  141.6830 C   0  0  0  0  0  0  0  0  0  0  0  0
  185.7920  178.8760  141.2660 C   0  0  0  0  0  2  0  0  0  0  0  0
  184.2170  177.8770  142.7350 O   0  0  0  0  0  0  0  0  0  0  0  0
  182.5050  179.6310  139.3740 C   0  0  0  0  0  0  0  0  0  0  0  0
  182.2900  178.4490  141.4900 N   0  0  0  0  0  0  0  0  0  0  0  0
  181.7010  179.1030  140.3470 C   0  0  0  0  0  0  0  0  0  0  0  0
  185.6200  178.0900  142.5910 C   0  0  2  0  0  3  0  0  0  0  0  0
  184.4370  179.1200  140.7990 N   0  0  0  0  0  0  0  0  0  0  0  0
  185.7300  178.6050  137.9750 N   0  0  0  0  0  0  0  0  0  0  0  0
  183.6210  177.3520  138.0570 C   0  0  0  0  0  0  0  0  0  0  0  0
  185.5120  176.7380  136.4890 C   0  0  0  0  0  3  0  0  0  0  0  0
  184.1550  176.6030  136.9210 N   0  0  0  0  0  0  0  0  0  0  0  0
  184.5220  178.4960  138.4530 C   0  0  0  0  0  0  0  0  0  0  0  0
  186.2710  177.6980  137.0060 C   0  0  0  0  0  3  0  0  0  0  0  0
  183.4590  176.4970  139.1320 F   0  0  0  0  0  0  0  0  0  0  0  0
  180.2180  179.1830  140.3220 C   0  0  0  0  0  0  0  0  0  0  0  0
  179.5220  178.2030  139.9420 O   0  0  0  0  0  0  0  0  0  0  0  0
  179.5050  180.8540  141.9310 N   0  0  0  0  0  0  0  0  0  0  0  0
  179.5920  180.4120  140.7340 N   0  0  0  0  0  0  0  0  0  0  0  0
  179.9960  180.1620  143.1170 C   0  0  0  0  0  2  0  0  0  0  0  0
  178.9840  179.1260  143.5670 C   0  0  0  0  0  2  0  0  0  0  0  0
  179.6600  178.0800  144.3090 N   0  0  0  0  0  1  0  0  0  0  0  0
  181.8760  181.8340  138.4200 C   0  0  0  0  0  1  0  0  0  0  0  0
  181.9670  180.3400  138.1660 C   0  0  0  0  0  2  0  0  0  0  0  0
  186.1300  178.9130  143.7610 C   0  0  0  0  0  2  0  0  0  0  0  0
  185.6490  178.3200  145.0740 C   0  0  0  0  0  2  0  0  0  0  0  0
  185.6870  179.2430  147.7420 O   0  0  0  0  0  0  0  0  0  0  0  0
  186.7720  178.1370  145.9810 N   0  0  0  0  0  0  0  0  0  0  0  0
  186.6960  178.6030  147.3420 C   0  0  0  0  0  0  0  0  0  0  0  0
  189.1160  178.0640  147.6210 C   0  0  0  0  0  2  0  0  0  0  0  0
  188.9590  177.0980  146.4560 C   0  0  0  0  0  2  0  0  0  0  0  0
  188.0490  177.7220  145.4040 C   0  0  0  0  0  2  0  0  0  0  0  0
  187.7770  178.2590  148.3220 C   0  0  0  0  0  2  0  0  0  0  0  0
  1 14  1  6  0  0  0
  1  9  1  0  0  0  0
  2  4  1  0  0  0  0
  3  8  1  0  0  0  0
  5  1  1  0  0  0  0
  5  7  2  0  0  0  0
  6  2  2  0  0  0  0
  7  6  1  0  0  0  0
  8  4  1  0  0  0  0
  8 26  1  1  0  0  0
  9  3  1  0  0  0  0
  9  2  1  0  0  0  0
 10 14  1  0  0  0  0
 11 14  2  0  0  0  0
 11 16  1  0  0  0  0
 12 13  2  0  0  0  0
 12 15  1  0  0  0  0
 13 11  1  0  0  0  0
 15 10  2  0  0  0  0
 17  7  1  0  0  0  0
 17 20  1  0  0  0  0
 18 17  2  0  0  0  0
 19 21  1  0  0  0  0
 20 19  2  0  0  0  0
 21 22  1  0  0  0  0
 22 23  1  0  0  0  0
 25 24  1  0  0  0  0
 25  5  1  0  0  0  0
 26 27  1  0  0  0  0
 27 29  1  0  0  0  0
 29 30  1  0  0  0  0
 30 28  2  0  0  0  0
 30 34  1  0  0  0  0
 31 34  1  0  0  0  0
 32 31  1  0  0  0  0
 33 29  1  0  0  0  0
 33 32  1  0  0  0  0
M  END
>  <MODEL>
7

>  <REMARK>
 VINA RESULT:      -6.8      2.457      5.477
  Name = 
  9 active torsions:
  status: ('A' for Active; 'I' for Inactive)
    1  A    between atoms: C_3  and  N_13
    2  A    between atoms: C_3  and  C_17
    3  A    between atoms: C_4  and  C_15
    4  A    between atoms: C_7  and  C_8
    5  A    between atoms: C_8  and  N_16
    6  A    between atoms: C_12  and  N_27
    7  A    between atoms: C_12  and  C_28
    8  A    between atoms: C_17  and  C_29
    9  A    between atoms: C_21  and  C_32
                            x       y       z     vdW  Elec       q    Type
                         _______ _______ _______ _____ _____    ______ ____

>  <TORSDO>
F 9

$$$$
=
 OpenBabel10252414513D

 34 37  0  0  1  0  0  0  0  0999 V2000
  190.2160  176.0160  138.7120 C   0  0  1  0  0  3  0  0  0  0  0  0
  191.7910  177.1290  140.2950 C   0  0  0  0  0  0  0  0  0  0  0  0
  189.6850  176.7840  141.1500 C   0  0  0  0  0  2  0  0  0  0  0  0
  191.8040  177.7980  141.4940 O   0  0  0  0  0  0  0  0  0  0  0  0
  191.4540  175.8240  137.8480 C   0  0  0  0  0  0  0  0  0  0  0  0
  192.7690  177.1000  139.4510 N   0  0  0  0  0  0  0  0  0  0  0  0
  192.6550  176.3710  138.2110 C   0  0  0  0  0  0  0  0  0  0  0  0
  190.5390  177.6270  142.1320 C   0  0  2  0  0  3  0  0  0  0  0  0
  190.5820  176.4710  140.0500 N   0  0  0  0  0  0  0  0  0  0  0  0
  189.7060  178.0940  137.5590 N   0  0  0  0  0  0  0  0  0  0  0  0
  187.7980  176.6180  138.0110 C   0  0  0  0  0  0  0  0  0  0  0  0
  187.5320  178.9090  136.9670 C   0  0  0  0  0  3  0  0  0  0  0  0
  186.9720  177.7440  137.5770 N   0  0  0  0  0  0  0  0  0  0  0  0
  189.2610  176.9830  138.0760 C   0  0  0  0  0  0  0  0  0  0  0  0
  188.8510  179.0700  136.9530 C   0  0  0  0  0  3  0  0  0  0  0  0
  187.6230  175.5600  137.1380 F   0  0  0  0  0  0  0  0  0  0  0  0
  193.8970  176.2380  137.4060 C   0  0  0  0  0  0  0  0  0  0  0  0
  194.2500  177.1460  136.6060 O   0  0  0  0  0  0  0  0  0  0  0  0
  195.6040  174.6380  136.7640 N   0  0  0  0  0  0  0  0  0  0  0  0
  194.6840  175.0430  137.5560 N   0  0  0  0  0  0  0  0  0  0  0  0
  195.9990  175.3030  135.5280 C   0  0  0  0  0  2  0  0  0  0  0  0
  197.5100  175.4040  135.4550 C   0  0  0  0  0  2  0  0  0  0  0  0
  198.0450  175.6140  136.7860 N   0  0  0  0  0  1  0  0  0  0  0  0
  190.5870  173.7120  136.8770 C   0  0  0  0  0  1  0  0  0  0  0  0
  191.2630  175.0400  136.5840 C   0  0  0  0  0  2  0  0  0  0  0  0
  190.7280  176.8800  143.4400 C   0  0  0  0  0  2  0  0  0  0  0  0
  190.8840  177.8600  144.5900 C   0  0  0  0  0  2  0  0  0  0  0  0
  191.0900  177.1150  147.3060 O   0  0  0  0  0  0  0  0  0  0  0  0
  189.7470  177.7550  145.4930 N   0  0  0  0  0  0  0  0  0  0  0  0
  189.9420  177.4090  146.8770 C   0  0  0  0  0  0  0  0  0  0  0  0
  187.4670  177.2300  147.1410 C   0  0  0  0  0  2  0  0  0  0  0  0
  187.3470  178.1330  145.9230 C   0  0  0  0  0  2  0  0  0  0  0  0
  188.4100  177.7460  144.9010 C   0  0  0  0  0  2  0  0  0  0  0  0
  188.7980  177.4750  147.8430 C   0  0  0  0  0  2  0  0  0  0  0  0
  1 14  1  6  0  0  0
  1  9  1  0  0  0  0
  2  4  1  0  0  0  0
  3  8  1  0  0  0  0
  4  8  1  0  0  0  0
  5  7  2  0  0  0  0
  5  1  1  0  0  0  0
  6  2  2  0  0  0  0
  7  6  1  0  0  0  0
  8 26  1  1  0  0  0
  9  2  1  0  0  0  0
  9  3  1  0  0  0  0
 10 14  1  0  0  0  0
 11 14  2  0  0  0  0
 12 13  2  0  0  0  0
 13 11  1  0  0  0  0
 15 12  1  0  0  0  0
 15 10  2  0  0  0  0
 16 11  1  0  0  0  0
 17 20  1  0  0  0  0
 17  7  1  0  0  0  0
 18 17  2  0  0  0  0
 19 20  2  0  0  0  0
 21 19  1  0  0  0  0
 22 21  1  0  0  0  0
 22 23  1  0  0  0  0
 25 24  1  0  0  0  0
 25  5  1  0  0  0  0
 26 27  1  0  0  0  0
 27 29  1  0  0  0  0
 29 30  1  0  0  0  0
 30 28  2  0  0  0  0
 30 34  1  0  0  0  0
 31 34  1  0  0  0  0
 32 31  1  0  0  0  0
 33 29  1  0  0  0  0
 33 32  1  0  0  0  0
M  END
>  <MODEL>
8

>  <REMARK>
 VINA RESULT:      -6.6      4.285      6.562
  Name = 
  9 active torsions:
  status: ('A' for Active; 'I' for Inactive)
    1  A    between atoms: C_3  and  N_13
    2  A    between atoms: C_3  and  C_17
    3  A    between atoms: C_4  and  C_15
    4  A    between atoms: C_7  and  C_8
    5  A    between atoms: C_8  and  N_16
    6  A    between atoms: C_12  and  N_27
    7  A    between atoms: C_12  and  C_28
    8  A    between atoms: C_17  and  C_29
    9  A    between atoms: C_21  and  C_32
                            x       y       z     vdW  Elec       q    Type
                         _______ _______ _______ _____ _____    ______ ____

>  <TORSDO>
F 9

$$$$
=
 OpenBabel10252414513D

 34 37  0  0  1  0  0  0  0  0999 V2000
  182.1530  177.6980  140.6240 C   0  0  1  0  0  3  0  0  0  0  0  0
  184.3140  178.6690  139.8410 C   0  0  0  0  0  0  0  0  0  0  0  0
  184.0880  178.5980  142.1270 C   0  0  0  0  0  2  0  0  0  0  0  0
  185.4000  179.3700  140.3050 O   0  0  0  0  0  0  0  0  0  0  0  0
  181.9550  177.3370  139.1590 C   0  0  0  0  0  0  0  0  0  0  0  0
  184.0170  178.5010  138.5950 N   0  0  0  0  0  0  0  0  0  0  0  0
  182.8470  177.7520  138.2070 C   0  0  0  0  0  0  0  0  0  0  0  0
  185.3760  179.3670  141.7310 C   0  0  2  0  0  3  0  0  0  0  0  0
  183.5200  178.1490  140.8670 N   0  0  0  0  0  0  0  0  0  0  0  0
  180.8680  179.7250  140.2500 N   0  0  0  0  0  0  0  0  0  0  0  0
  180.5260  178.6180  142.4140 C   0  0  0  0  0  0  0  0  0  0  0  0
  179.4360  180.8270  141.8250 C   0  0  0  0  0  3  0  0  0  0  0  0
  179.7810  179.8220  142.7810 N   0  0  0  0  0  0  0  0  0  0  0  0
  181.1730  178.7480  141.0570 C   0  0  0  0  0  0  0  0  0  0  0  0
  179.9550  180.7720  140.6030 C   0  0  0  0  0  3  0  0  0  0  0  0
  179.6700  177.5330  142.4170 F   0  0  0  0  0  0  0  0  0  0  0  0
  182.7040  177.4510  136.7590 C   0  0  0  0  0  0  0  0  0  0  0  0
  182.0970  178.2430  135.9890 O   0  0  0  0  0  0  0  0  0  0  0  0
  184.4620  176.0610  135.8290 N   0  0  0  0  0  0  0  0  0  0  0  0
  183.2680  176.2260  136.2560 N   0  0  0  0  0  0  0  0  0  0  0  0
  185.4710  177.1100  135.7360 C   0  0  0  0  0  2  0  0  0  0  0  0
  186.6540  176.7700  136.6220 C   0  0  0  0  0  2  0  0  0  0  0  0
  186.6800  175.3400  136.8640 N   0  0  0  0  0  1  0  0  0  0  0  0
  180.6120  175.3370  139.7540 C   0  0  0  0  0  1  0  0  0  0  0  0
  180.7260  176.5400  138.8350 C   0  0  0  0  0  2  0  0  0  0  0  0
  186.6030  178.6440  142.2580 C   0  0  0  0  0  2  0  0  0  0  0  0
  186.1990  177.5810  143.2650 C   0  0  0  0  0  2  0  0  0  0  0  0
  185.5000  178.3030  145.9040 O   0  0  0  0  0  0  0  0  0  0  0  0
  187.1300  177.5730  144.3830 N   0  0  0  0  0  0  0  0  0  0  0  0
  186.6830  177.9170  145.7090 C   0  0  0  0  0  0  0  0  0  0  0  0
  189.0570  177.8740  146.4770 C   0  0  0  0  0  2  0  0  0  0  0  0
  189.3510  176.9810  145.2810 C   0  0  0  0  0  2  0  0  0  0  0  0
  188.5560  177.4730  144.0770 C   0  0  0  0  0  2  0  0  0  0  0  0
  187.5950  177.7370  146.8850 C   0  0  0  0  0  2  0  0  0  0  0  0
  1  9  1  0  0  0  0
  1 14  1  6  0  0  0
  2  4  1  0  0  0  0
  2  9  1  0  0  0  0
  4  8  1  0  0  0  0
  5  1  1  0  0  0  0
  6  2  2  0  0  0  0
  7  6  1  0  0  0  0
  7  5  2  0  0  0  0
  8  3  1  0  0  0  0
  8 26  1  1  0  0  0
  9  3  1  0  0  0  0
 10 15  2  0  0  0  0
 10 14  1  0  0  0  0
 11 16  1  0  0  0  0
 11 13  1  0  0  0  0
 12 13  2  0  0  0  0
 14 11  2  0  0  0  0
 15 12  1  0  0  0  0
 17  7  1  0  0  0  0
 18 17  2  0  0  0  0
 19 20  2  0  0  0  0
 20 17  1  0  0  0  0
 21 19  1  0  0  0  0
 21 22  1  0  0  0  0
 22 23  1  0  0  0  0
 25  5  1  0  0  0  0
 25 24  1  0  0  0  0
 26 27  1  0  0  0  0
 27 29  1  0  0  0  0
 29 30  1  0  0  0  0
 30 28  2  0  0  0  0
 30 34  1  0  0  0  0
 31 34  1  0  0  0  0
 32 31  1  0  0  0  0
 33 29  1  0  0  0  0
 33 32  1  0  0  0  0
M  END
>  <MODEL>
9

>  <REMARK>
 VINA RESULT:      -6.5      2.346      3.192
  Name = 
  9 active torsions:
  status: ('A' for Active; 'I' for Inactive)
    1  A    between atoms: C_3  and  N_13
    2  A    between atoms: C_3  and  C_17
    3  A    between atoms: C_4  and  C_15
    4  A    between atoms: C_7  and  C_8
    5  A    between atoms: C_8  and  N_16
    6  A    between atoms: C_12  and  N_27
    7  A    between atoms: C_12  and  C_28
    8  A    between atoms: C_17  and  C_29
    9  A    between atoms: C_21  and  C_32
                            x       y       z     vdW  Elec       q    Type
                         _______ _______ _______ _____ _____    ______ ____

>  <TORSDO>
F 9

$$$$
