=
 OpenBabel10262421473D

 30 32  0  0  1  0  0  0  0  0999 V2000
  182.7910  178.5520  140.0510 C   0  0  1  0  0  3  0  0  0  0  0  0
  183.7800  177.3350  137.9890 C   0  0  2  0  0  3  0  0  0  0  0  0
  183.3380  179.7030  139.4570 O   0  0  0  0  0  0  0  0  0  0  0  0
  180.9610  179.6500  136.5260 C   0  0  0  0  0  2  0  0  0  0  0  0
  181.7980  178.9490  137.5850 C   0  0  2  0  0  3  0  0  0  0  0  0
  181.5120  181.4520  138.5840 S   0  0  0  0  0  0  0  0  0  0  0  0
  182.6230  180.0550  138.2820 C   0  0  1  0  0  3  0  0  0  0  0  0
  182.6360  177.7710  137.0340 C   0  0  2  0  0  3  0  0  0  0  0  0
  180.7520  181.0370  137.0230 C   0  0  0  0  0  0  0  0  0  0  0  0
  180.1740  181.8750  136.3520 O   0  0  0  0  0  0  0  0  0  0  0  0
  183.4350  177.2700  139.4940 C   0  0  2  0  0  3  0  0  0  0  0  0
  181.8180  178.9840  142.3780 C   0  0  0  0  0  0  0  0  0  0  0  0
  181.9980  179.0390  143.7650 C   0  0  0  0  0  3  0  0  0  0  0  0
  180.2270  179.3650  141.7340 Cl  0  0  0  0  0  0  0  0  0  0  0  0
  184.1440  178.3350  142.1220 C   0  0  0  0  0  3  0  0  0  0  0  0
  185.5190  178.1070  144.0530 F   0  0  0  0  0  0  0  0  0  0  0  0
  182.9020  178.6280  141.5450 C   0  0  0  0  0  0  0  0  0  0  0  0
  183.2420  178.7450  144.3280 C   0  0  0  0  0  3  0  0  0  0  0  0
  184.3130  178.3920  143.5070 C   0  0  0  0  0  0  0  0  0  0  0  0
  186.2660  176.3530  136.9580 O   0  0  0  0  0  0  0  0  0  0  0  0
  186.1860  177.5790  137.2360 C   0  0  0  0  0  0  0  0  0  0  0  0
  187.3610  178.4610  137.0130 C   0  0  0  0  0  1  0  0  0  0  0  0
  184.9820  178.1300  137.7700 N   0  0  0  0  0  2  0  0  0  0  0  0
  182.5710  175.2890  136.4400 C   0  0  0  0  0  1  0  0  0  0  0  0
  181.7520  176.5560  136.6600 C   0  0  2  0  0  3  0  0  0  0  0  0
  180.8940  176.8000  135.4220 C   0  0  0  0  0  2  0  0  0  0  0  0
  179.5600  176.4660  135.6670 O   0  0  0  0  0  1  0  0  0  0  0  0
  182.5650  176.0580  139.8090 C   0  0  0  0  0  2  0  0  0  0  0  0
  180.2930  175.3240  139.8420 O   0  0  0  0  0  1  0  0  0  0  0  0
  181.1030  176.4570  139.9220 C   0  0  0  0  0  2  0  0  0  0  0  0
  1 17  1  1  0  0  0
  2 23  1  1  0  0  0
  2 11  1  0  0  0  0
  3  1  1  0  0  0  0
  4  9  1  0  0  0  0
  5  4  1  6  0  0  0
  5  7  1  0  0  0  0
  7  6  1  1  0  0  0
  7  3  1  0  0  0  0
  8 25  1  1  0  0  0
  8  5  1  0  0  0  0
  8  2  1  0  0  0  0
  9  6  1  0  0  0  0
 10  9  2  0  0  0  0
 11 28  1  6  0  0  0
 11  1  1  0  0  0  0
 12 13  1  0  0  0  0
 13 18  2  0  0  0  0
 14 12  1  0  0  0  0
 15 19  2  0  0  0  0
 17 15  1  0  0  0  0
 17 12  2  0  0  0  0
 19 16  1  0  0  0  0
 19 18  1  0  0  0  0
 20 21  2  0  0  0  0
 21 23  1  0  0  0  0
 22 21  1  0  0  0  0
 25 24  1  6  0  0  0
 26 27  1  0  0  0  0
 26 25  1  0  0  0  0
 28 30  1  0  0  0  0
 29 30  1  0  0  0  0
M  END
>  <MODEL>
1

>  <REMARK>
 VINA RESULT:      -5.7      0.000      0.000
  Name = 
  6 active torsions:
  status: ('A' for Active; 'I' for Inactive)
    1  A    between atoms: C_1  and  C_22
    2  A    between atoms: C_4  and  N_25
    3  A    between atoms: C_7  and  C_30
    4  A    between atoms: C_10  and  C_23
    5  A    between atoms: C_10  and  C_26
    6  A    between atoms: C_13  and  C_30
                            x       y       z     vdW  Elec       q    Type
                         _______ _______ _______ _____ _____    ______ ____

>  <TORSDO>
F 6

$$$$
=
 OpenBabel10262421473D

 30 32  0  0  1  0  0  0  0  0999 V2000
  182.6440  178.2960  140.0590 C   0  0  1  0  0  3  0  0  0  0  0  0
  180.1980  177.9260  139.2920 C   0  0  2  0  0  3  0  0  0  0  0  0
  182.8280  176.9670  139.6390 O   0  0  0  0  0  0  0  0  0  0  0  0
  182.3170  177.7630  135.9860 C   0  0  0  0  0  2  0  0  0  0  0  0
  182.0250  177.9930  137.4610 C   0  0  2  0  0  3  0  0  0  0  0  0
  184.4100  176.7070  137.4980 S   0  0  0  0  0  0  0  0  0  0  0  0
  182.7590  176.8680  138.2250 C   0  0  1  0  0  3  0  0  0  0  0  0
  180.5170  178.1130  137.7830 C   0  0  2  0  0  3  0  0  0  0  0  0
  183.6310  177.0680  135.9330 C   0  0  0  0  0  0  0  0  0  0  0  0
  184.1060  176.6780  134.8800 O   0  0  0  0  0  0  0  0  0  0  0  0
  181.1560  178.6140  140.2890 C   0  0  2  0  0  3  0  0  0  0  0  0
  184.8610  178.8330  141.2200 C   0  0  0  0  0  0  0  0  0  0  0  0
  185.5680  179.0860  142.4000 C   0  0  0  0  0  3  0  0  0  0  0  0
  185.7500  178.8410  139.7030 Cl  0  0  0  0  0  0  0  0  0  0  0  0
  182.8220  178.5900  142.5180 C   0  0  0  0  0  3  0  0  0  0  0  0
  182.8990  178.8510  144.8840 F   0  0  0  0  0  0  0  0  0  0  0  0
  183.4710  178.5810  141.2780 C   0  0  0  0  0  0  0  0  0  0  0  0
  184.9090  179.0920  143.6310 C   0  0  0  0  0  3  0  0  0  0  0  0
  183.5370  178.8450  143.6900 C   0  0  0  0  0  0  0  0  0  0  0  0
  178.9310  176.9080  141.6510 O   0  0  0  0  0  0  0  0  0  0  0  0
  179.3720  176.0770  140.8140 C   0  0  0  0  0  0  0  0  0  0  0  0
  179.2140  174.6220  141.0690 C   0  0  0  0  0  1  0  0  0  0  0  0
  180.0300  176.5170  139.6260 N   0  0  0  0  0  2  0  0  0  0  0  0
  178.9950  179.2350  136.0670 C   0  0  0  0  0  1  0  0  0  0  0  0
  179.9160  179.4420  137.2640 C   0  0  2  0  0  3  0  0  0  0  0  0
  180.9790  180.4700  136.8870 C   0  0  0  0  0  2  0  0  0  0  0  0
  180.5820  181.2090  135.7700 O   0  0  0  0  0  1  0  0  0  0  0  0
  180.9340  180.1220  140.3190 C   0  0  0  0  0  2  0  0  0  0  0  0
  179.9950  180.6380  142.4520 O   0  0  0  0  0  1  0  0  0  0  0  0
  179.6800  180.4690  141.1040 C   0  0  0  0  0  2  0  0  0  0  0  0
  1 11  1  0  0  0  0
  1 17  1  1  0  0  0
  2 23  1  1  0  0  0
  2 11  1  0  0  0  0
  3  1  1  0  0  0  0
  5  4  1  6  0  0  0
  5  8  1  0  0  0  0
  5  7  1  0  0  0  0
  7  6  1  6  0  0  0
  7  3  1  0  0  0  0
  8 25  1  1  0  0  0
  8  2  1  0  0  0  0
  9  4  1  0  0  0  0
  9  6  1  0  0  0  0
 10  9  2  0  0  0  0
 11 28  1  6  0  0  0
 12 17  2  0  0  0  0
 12 13  1  0  0  0  0
 13 18  2  0  0  0  0
 14 12  1  0  0  0  0
 15 19  2  0  0  0  0
 17 15  1  0  0  0  0
 18 19  1  0  0  0  0
 19 16  1  0  0  0  0
 21 22  1  0  0  0  0
 21 20  2  0  0  0  0
 23 21  1  0  0  0  0
 25 24  1  6  0  0  0
 26 25  1  0  0  0  0
 27 26  1  0  0  0  0
 28 30  1  0  0  0  0
 30 29  1  0  0  0  0
M  END
>  <MODEL>
2

>  <REMARK>
 VINA RESULT:      -5.6      2.659      4.650
  Name = 
  6 active torsions:
  status: ('A' for Active; 'I' for Inactive)
    1  A    between atoms: C_1  and  C_22
    2  A    between atoms: C_4  and  N_25
    3  A    between atoms: C_7  and  C_30
    4  A    between atoms: C_10  and  C_23
    5  A    between atoms: C_10  and  C_26
    6  A    between atoms: C_13  and  C_30
                            x       y       z     vdW  Elec       q    Type
                         _______ _______ _______ _____ _____    ______ ____

>  <TORSDO>
F 6

$$$$
=
 OpenBabel10262421473D

 30 32  0  0  1  0  0  0  0  0999 V2000
  181.1680  179.9400  138.0030 C   0  0  1  0  0  3  0  0  0  0  0  0
  181.5440  178.8880  140.3400 C   0  0  2  0  0  3  0  0  0  0  0  0
  182.4120  179.3600  137.6980 O   0  0  0  0  0  0  0  0  0  0  0  0
  181.1200  175.8210  137.9190 C   0  0  0  0  0  2  0  0  0  0  0  0
  181.1210  177.2770  138.3590 C   0  0  2  0  0  3  0  0  0  0  0  0
  182.2800  177.3730  135.9120 S   0  0  0  0  0  0  0  0  0  0  0  0
  182.3080  177.9460  137.6290 C   0  0  1  0  0  3  0  0  0  0  0  0
  181.1240  177.4600  139.8960 C   0  0  2  0  0  3  0  0  0  0  0  0
  181.7350  175.8040  136.5640 C   0  0  0  0  0  0  0  0  0  0  0  0
  181.9440  174.7590  135.9710 O   0  0  0  0  0  0  0  0  0  0  0  0
  180.9610  180.0630  139.5230 C   0  0  2  0  0  3  0  0  0  0  0  0
  180.3800  181.4100  136.0620 C   0  0  0  0  0  0  0  0  0  0  0  0
  180.2860  182.6760  135.4740 C   0  0  0  0  0  3  0  0  0  0  0  0
  179.6810  180.0440  135.2020 Cl  0  0  0  0  0  0  0  0  0  0  0  0
  181.5580  182.3920  137.9450 C   0  0  0  0  0  3  0  0  0  0  0  0
  181.9800  184.7360  137.9730 F   0  0  0  0  0  0  0  0  0  0  0  0
  181.0230  181.2640  137.3110 C   0  0  0  0  0  0  0  0  0  0  0  0
  180.8240  183.7940  136.1160 C   0  0  0  0  0  3  0  0  0  0  0  0
  181.4580  183.6520  137.3510 C   0  0  0  0  0  0  0  0  0  0  0  0
  183.0630  178.6300  142.7550 O   0  0  0  0  0  0  0  0  0  0  0  0
  183.6900  178.8470  141.6840 C   0  0  0  0  0  0  0  0  0  0  0  0
  185.1720  178.9490  141.7070 C   0  0  0  0  0  1  0  0  0  0  0  0
  182.9920  179.0030  140.4480 N   0  0  0  0  0  2  0  0  0  0  0  0
  179.6480  177.5340  141.9780 C   0  0  0  0  0  1  0  0  0  0  0  0
  179.7650  177.0740  140.5290 C   0  0  2  0  0  3  0  0  0  0  0  0
  179.4830  175.5750  140.4700 C   0  0  0  0  0  2  0  0  0  0  0  0
  179.0280  175.1060  141.7050 O   0  0  0  0  0  1  0  0  0  0  0  0
  179.4860  180.2800  139.8420 C   0  0  0  0  0  2  0  0  0  0  0  0
  179.6790  181.0770  142.0840 O   0  0  0  0  0  1  0  0  0  0  0  0
  179.3050  181.4510  140.7930 C   0  0  0  0  0  2  0  0  0  0  0  0
  1 17  1  6  0  0  0
  1 11  1  0  0  0  0
  2 23  1  6  0  0  0
  3  1  1  0  0  0  0
  5  4  1  1  0  0  0
  5  8  1  0  0  0  0
  6  9  1  0  0  0  0
  7  6  1  6  0  0  0
  7  3  1  0  0  0  0
  7  5  1  0  0  0  0
  8  2  1  0  0  0  0
  8 25  1  6  0  0  0
  9  4  1  0  0  0  0
 10  9  2  0  0  0  0
 11 28  1  6  0  0  0
 11  2  1  0  0  0  0
 12 17  1  0  0  0  0
 13 12  2  0  0  0  0
 13 18  1  0  0  0  0
 14 12  1  0  0  0  0
 17 15  2  0  0  0  0
 18 19  2  0  0  0  0
 19 15  1  0  0  0  0
 19 16  1  0  0  0  0
 21 22  1  0  0  0  0
 21 20  2  0  0  0  0
 23 21  1  0  0  0  0
 25 24  1  1  0  0  0
 26 25  1  0  0  0  0
 26 27  1  0  0  0  0
 28 30  1  0  0  0  0
 30 29  1  0  0  0  0
M  END
>  <MODEL>
3

>  <REMARK>
 VINA RESULT:      -5.6      3.252      5.874
  Name = 
  6 active torsions:
  status: ('A' for Active; 'I' for Inactive)
    1  A    between atoms: C_1  and  C_22
    2  A    between atoms: C_4  and  N_25
    3  A    between atoms: C_7  and  C_30
    4  A    between atoms: C_10  and  C_23
    5  A    between atoms: C_10  and  C_26
    6  A    between atoms: C_13  and  C_30
                            x       y       z     vdW  Elec       q    Type
                         _______ _______ _______ _____ _____    ______ ____

>  <TORSDO>
F 6

$$$$
=
 OpenBabel10262421473D

 30 32  0  0  1  0  0  0  0  0999 V2000
  183.2490  177.0810  138.6410 C   0  0  1  0  0  3  0  0  0  0  0  0
  182.1300  178.9840  139.9970 C   0  0  2  0  0  3  0  0  0  0  0  0
  184.0310  178.1180  138.1000 O   0  0  0  0  0  0  0  0  0  0  0  0
  185.8170  178.8300  141.3480 C   0  0  0  0  0  2  0  0  0  0  0  0
  184.5880  178.4030  140.5600 C   0  0  2  0  0  3  0  0  0  0  0  0
  186.6100  178.0170  138.7990 S   0  0  0  0  0  0  0  0  0  0  0  0
  184.9290  178.6330  139.0710 C   0  0  1  0  0  3  0  0  0  0  0  0
  183.2820  179.0840  141.0340 C   0  0  2  0  0  3  0  0  0  0  0  0
  186.9760  178.6280  140.4360 C   0  0  0  0  0  0  0  0  0  0  0  0
  188.1060  178.9540  140.7570 O   0  0  0  0  0  0  0  0  0  0  0  0
  181.9600  177.6240  139.2840 C   0  0  2  0  0  3  0  0  0  0  0  0
  182.2280  176.3240  136.4200 C   0  0  0  0  0  0  0  0  0  0  0  0
  181.9920  175.3040  135.4910 C   0  0  0  0  0  3  0  0  0  0  0  0
  181.5960  177.9260  136.0680 Cl  0  0  0  0  0  0  0  0  0  0  0  0
  183.4360  174.7470  137.8170 C   0  0  0  0  0  3  0  0  0  0  0  0
  183.6620  172.4840  137.1080 F   0  0  0  0  0  0  0  0  0  0  0  0
  182.9580  176.0440  137.5960 C   0  0  0  0  0  0  0  0  0  0  0  0
  182.4740  174.0140  135.7230 C   0  0  0  0  0  3  0  0  0  0  0  0
  183.1950  173.7360  136.8840 C   0  0  0  0  0  0  0  0  0  0  0  0
  180.2370  181.1200  139.7470 O   0  0  0  0  0  0  0  0  0  0  0  0
  181.2260  181.1150  138.9670 C   0  0  0  0  0  0  0  0  0  0  0  0
  181.3800  182.2040  137.9690 C   0  0  0  0  0  1  0  0  0  0  0  0
  182.1970  180.0690  139.0270 N   0  0  0  0  0  2  0  0  0  0  0  0
  181.4030  179.0030  142.7610 C   0  0  0  0  0  1  0  0  0  0  0  0
  182.8160  178.5520  142.4110 C   0  0  2  0  0  3  0  0  0  0  0  0
  183.7490  178.9500  143.5520 C   0  0  0  0  0  2  0  0  0  0  0  0
  183.0580  179.0030  144.7640 O   0  0  0  0  0  1  0  0  0  0  0  0
  181.3540  176.5820  140.2180 C   0  0  0  0  0  2  0  0  0  0  0  0
  179.3050  176.3980  141.4300 O   0  0  0  0  0  1  0  0  0  0  0  0
  179.8360  176.6210  140.1600 C   0  0  0  0  0  2  0  0  0  0  0  0
  1 17  1  6  0  0  0
  1 11  1  0  0  0  0
  2 23  1  6  0  0  0
  2  8  1  0  0  0  0
  3  1  1  0  0  0  0
  5  8  1  0  0  0  0
  5  4  1  1  0  0  0
  6  7  1  0  0  0  0
  6  9  1  0  0  0  0
  7  3  1  6  0  0  0
  7  5  1  0  0  0  0
  8 25  1  1  0  0  0
  9 10  2  0  0  0  0
  9  4  1  0  0  0  0
 11  2  1  0  0  0  0
 11 28  1  1  0  0  0
 12 17  1  0  0  0  0
 13 18  1  0  0  0  0
 13 12  2  0  0  0  0
 14 12  1  0  0  0  0
 17 15  2  0  0  0  0
 18 19  2  0  0  0  0
 19 16  1  0  0  0  0
 19 15  1  0  0  0  0
 21 23  1  0  0  0  0
 21 20  2  0  0  0  0
 22 21  1  0  0  0  0
 25 24  1  1  0  0  0
 25 26  1  0  0  0  0
 26 27  1  0  0  0  0
 30 28  1  0  0  0  0
 30 29  1  0  0  0  0
M  END
>  <MODEL>
4

>  <REMARK>
 VINA RESULT:      -5.2      3.119      6.355
  Name = 
  6 active torsions:
  status: ('A' for Active; 'I' for Inactive)
    1  A    between atoms: C_1  and  C_22
    2  A    between atoms: C_4  and  N_25
    3  A    between atoms: C_7  and  C_30
    4  A    between atoms: C_10  and  C_23
    5  A    between atoms: C_10  and  C_26
    6  A    between atoms: C_13  and  C_30
                            x       y       z     vdW  Elec       q    Type
                         _______ _______ _______ _____ _____    ______ ____

>  <TORSDO>
F 6

$$$$
=
 OpenBabel10262421473D

 30 32  0  0  1  0  0  0  0  0999 V2000
  183.3070  175.2490  137.0920 C   0  0  1  0  0  3  0  0  0  0  0  0
  182.3420  177.5390  137.8250 C   0  0  2  0  0  3  0  0  0  0  0  0
  183.6520  175.9320  135.9120 O   0  0  0  0  0  0  0  0  0  0  0  0
  186.2240  178.1150  137.6040 C   0  0  0  0  0  2  0  0  0  0  0  0
  184.9130  177.3430  137.6040 C   0  0  2  0  0  3  0  0  0  0  0  0
  186.2860  176.2260  135.5520 S   0  0  0  0  0  0  0  0  0  0  0  0
  184.6990  176.8590  136.1510 C   0  0  1  0  0  3  0  0  0  0  0  0
  183.7260  178.1360  138.2000 C   0  0  2  0  0  3  0  0  0  0  0  0
  187.0380  177.5370  136.5010 C   0  0  0  0  0  0  0  0  0  0  0  0
  188.1240  178.0000  136.1990 O   0  0  0  0  0  0  0  0  0  0  0  0
  182.2180  176.0000  137.8800 C   0  0  2  0  0  3  0  0  0  0  0  0
  183.7030  172.7210  137.1030 C   0  0  0  0  0  0  0  0  0  0  0  0
  183.2610  171.4340  136.7800 C   0  0  0  0  0  3  0  0  0  0  0  0
  185.2590  172.8840  137.9050 Cl  0  0  0  0  0  0  0  0  0  0  0  0
  181.6700  173.6400  136.1450 C   0  0  0  0  0  3  0  0  0  0  0  0
  180.0440  172.1720  135.2090 F   0  0  0  0  0  0  0  0  0  0  0  0
  182.9000  173.8380  136.7830 C   0  0  0  0  0  0  0  0  0  0  0  0
  182.0310  171.2490  136.1430 C   0  0  0  0  0  3  0  0  0  0  0  0
  181.2370  172.3520  135.8270 C   0  0  0  0  0  0  0  0  0  0  0  0
  180.8030  179.9230  137.4340 O   0  0  0  0  0  0  0  0  0  0  0  0
  181.1250  179.2550  136.4160 C   0  0  0  0  0  0  0  0  0  0  0  0
  180.7120  179.7260  135.0680 C   0  0  0  0  0  1  0  0  0  0  0  0
  181.8770  178.0480  136.5420 N   0  0  0  0  0  2  0  0  0  0  0  0
  182.5770  178.8580  140.3630 C   0  0  0  0  0  1  0  0  0  0  0  0
  183.8480  178.2970  139.7350 C   0  0  2  0  0  3  0  0  0  0  0  0
  185.0250  179.1750  140.1520 C   0  0  0  0  0  2  0  0  0  0  0  0
  185.0120  179.4020  141.5300 O   0  0  0  0  0  1  0  0  0  0  0  0
  182.1650  175.4990  139.3190 C   0  0  0  0  0  2  0  0  0  0  0  0
  179.8670  175.2020  138.7440 O   0  0  0  0  0  1  0  0  0  0  0  0
  180.7300  175.4300  139.8150 C   0  0  0  0  0  2  0  0  0  0  0  0
  1 17  1  6  0  0  0
  1 11  1  0  0  0  0
  2 23  1  6  0  0  0
  2 11  1  0  0  0  0
  2  8  1  0  0  0  0
  3  7  1  0  0  0  0
  3  1  1  0  0  0  0
  5  4  1  6  0  0  0
  5  8  1  0  0  0  0
  6  9  1  0  0  0  0
  7  6  1  1  0  0  0
  7  5  1  0  0  0  0
  8 25  1  1  0  0  0
  9  4  1  0  0  0  0
 10  9  2  0  0  0  0
 11 28  1  1  0  0  0
 12 14  1  0  0  0  0
 13 12  2  0  0  0  0
 15 17  2  0  0  0  0
 16 19  1  0  0  0  0
 17 12  1  0  0  0  0
 18 13  1  0  0  0  0
 19 18  2  0  0  0  0
 19 15  1  0  0  0  0
 21 23  1  0  0  0  0
 21 20  2  0  0  0  0
 22 21  1  0  0  0  0
 25 26  1  0  0  0  0
 25 24  1  6  0  0  0
 26 27  1  0  0  0  0
 28 30  1  0  0  0  0
 29 30  1  0  0  0  0
M  END
>  <MODEL>
5

>  <REMARK>
 VINA RESULT:      -5.1      3.684      6.712
  Name = 
  6 active torsions:
  status: ('A' for Active; 'I' for Inactive)
    1  A    between atoms: C_1  and  C_22
    2  A    between atoms: C_4  and  N_25
    3  A    between atoms: C_7  and  C_30
    4  A    between atoms: C_10  and  C_23
    5  A    between atoms: C_10  and  C_26
    6  A    between atoms: C_13  and  C_30
                            x       y       z     vdW  Elec       q    Type
                         _______ _______ _______ _____ _____    ______ ____

>  <TORSDO>
F 6

$$$$
=
 OpenBabel10262421473D

 30 32  0  0  1  0  0  0  0  0999 V2000
  181.4610  179.8100  139.2060 C   0  0  1  0  0  3  0  0  0  0  0  0
  182.7720  177.8020  140.1860 C   0  0  2  0  0  3  0  0  0  0  0  0
  180.3250  179.0770  139.5940 O   0  0  0  0  0  0  0  0  0  0  0  0
  181.0110  179.4540  143.2870 C   0  0  0  0  0  2  0  0  0  0  0  0
  181.4760  179.3050  141.8460 C   0  0  2  0  0  3  0  0  0  0  0  0
  178.9310  180.1980  141.5820 S   0  0  0  0  0  0  0  0  0  0  0  0
  180.2030  179.0450  141.0080 C   0  0  1  0  0  3  0  0  0  0  0  0
  182.5950  178.2530  141.6610 C   0  0  2  0  0  3  0  0  0  0  0  0
  179.6130  179.9590  143.2140 C   0  0  0  0  0  0  0  0  0  0  0  0
  178.9360  180.1100  144.2170 O   0  0  0  0  0  0  0  0  0  0  0  0
  182.7080  178.9120  139.1130 C   0  0  2  0  0  3  0  0  0  0  0  0
  181.0470  179.8780  136.6810 C   0  0  0  0  0  0  0  0  0  0  0  0
  180.8100  180.6240  135.5220 C   0  0  0  0  0  3  0  0  0  0  0  0
  181.1410  178.1280  136.5340 Cl  0  0  0  0  0  0  0  0  0  0  0  0
  181.1130  181.9350  137.9700 C   0  0  0  0  0  3  0  0  0  0  0  0
  180.7940  184.0220  136.8670 F   0  0  0  0  0  0  0  0  0  0  0  0
  181.2010  180.5390  137.9210 C   0  0  0  0  0  0  0  0  0  0  0  0
  180.7250  182.0170  135.5840 C   0  0  0  0  0  3  0  0  0  0  0  0
  180.8760  182.6710  136.8070 C   0  0  0  0  0  0  0  0  0  0  0  0
  183.3390  175.6440  138.3890 O   0  0  0  0  0  0  0  0  0  0  0  0
  182.2170  175.6550  138.9610 C   0  0  0  0  0  0  0  0  0  0  0  0
  181.2460  174.5620  138.6970 C   0  0  0  0  0  1  0  0  0  0  0  0
  181.8640  176.7110  139.8540 N   0  0  0  0  0  2  0  0  0  0  0  0
  185.1170  177.8770  141.7810 C   0  0  0  0  0  1  0  0  0  0  0  0
  183.9460  178.7350  142.2440 C   0  0  2  0  0  3  0  0  0  0  0  0
  183.9540  178.7840  143.7700 C   0  0  0  0  0  2  0  0  0  0  0  0
  184.8760  179.7250  144.2330 O   0  0  0  0  0  1  0  0  0  0  0  0
  183.9740  179.7600  139.1180 C   0  0  0  0  0  2  0  0  0  0  0  0
  184.7960  178.2420  137.4690 O   0  0  0  0  0  1  0  0  0  0  0  0
  185.1620  178.9630  138.6060 C   0  0  0  0  0  2  0  0  0  0  0  0
  1 17  1  6  0  0  0
  1  3  1  0  0  0  0
  2 23  1  6  0  0  0
  2  8  1  0  0  0  0
  5  4  1  1  0  0  0
  6  9  1  0  0  0  0
  7  3  1  6  0  0  0
  7  6  1  0  0  0  0
  7  5  1  0  0  0  0
  8  5  1  0  0  0  0
  8 25  1  6  0  0  0
  9  4  1  0  0  0  0
  9 10  2  0  0  0  0
 11 28  1  1  0  0  0
 11  1  1  0  0  0  0
 11  2  1  0  0  0  0
 12 17  1  0  0  0  0
 13 18  1  0  0  0  0
 13 12  2  0  0  0  0
 14 12  1  0  0  0  0
 17 15  2  0  0  0  0
 18 19  2  0  0  0  0
 19 16  1  0  0  0  0
 19 15  1  0  0  0  0
 20 21  2  0  0  0  0
 21 23  1  0  0  0  0
 22 21  1  0  0  0  0
 25 24  1  1  0  0  0
 25 26  1  0  0  0  0
 26 27  1  0  0  0  0
 29 30  1  0  0  0  0
 30 28  1  0  0  0  0
M  END
>  <MODEL>
6

>  <REMARK>
 VINA RESULT:      -5.1      3.209      6.264
  Name = 
  6 active torsions:
  status: ('A' for Active; 'I' for Inactive)
    1  A    between atoms: C_1  and  C_22
    2  A    between atoms: C_4  and  N_25
    3  A    between atoms: C_7  and  C_30
    4  A    between atoms: C_10  and  C_23
    5  A    between atoms: C_10  and  C_26
    6  A    between atoms: C_13  and  C_30
                            x       y       z     vdW  Elec       q    Type
                         _______ _______ _______ _____ _____    ______ ____

>  <TORSDO>
F 6

$$$$
=
 OpenBabel10262421473D

 30 32  0  0  1  0  0  0  0  0999 V2000
  190.3320  176.5080  138.9500 C   0  0  1  0  0  3  0  0  0  0  0  0
  188.6090  175.7940  137.1520 C   0  0  2  0  0  3  0  0  0  0  0  0
  190.8880  175.2370  138.7190 O   0  0  0  0  0  0  0  0  0  0  0  0
  192.0170  176.0720  135.2150 C   0  0  0  0  0  2  0  0  0  0  0  0
  191.0430  176.2040  136.3760 C   0  0  2  0  0  3  0  0  0  0  0  0
  193.3020  175.2970  137.5680 S   0  0  0  0  0  0  0  0  0  0  0  0
  191.4990  175.1780  137.4390 C   0  0  1  0  0  3  0  0  0  0  0  0
  189.5590  176.0800  135.9570 C   0  0  2  0  0  3  0  0  0  0  0  0
  193.2940  175.5880  135.8070 C   0  0  0  0  0  0  0  0  0  0  0  0
  194.2560  175.3110  135.1110 O   0  0  0  0  0  0  0  0  0  0  0  0
  188.8780  176.5860  138.4510 C   0  0  2  0  0  3  0  0  0  0  0  0
  191.6490  177.3250  140.9870 C   0  0  0  0  0  0  0  0  0  0  0  0
  191.6800  177.6440  142.3480 C   0  0  0  0  0  3  0  0  0  0  0  0
  193.1320  177.5060  140.0600 Cl  0  0  0  0  0  0  0  0  0  0  0  0
  189.2980  176.7530  141.1940 C   0  0  0  0  0  3  0  0  0  0  0  0
  188.2230  176.9530  143.3110 F   0  0  0  0  0  0  0  0  0  0  0  0
  190.4450  176.8740  140.4010 C   0  0  0  0  0  0  0  0  0  0  0  0
  190.5290  177.5190  143.1300 C   0  0  0  0  0  3  0  0  0  0  0  0
  189.3390  177.0740  142.5530 C   0  0  0  0  0  0  0  0  0  0  0  0
  186.7200  173.9820  135.9890 O   0  0  0  0  0  0  0  0  0  0  0  0
  187.5630  173.5140  136.7990 C   0  0  0  0  0  0  0  0  0  0  0  0
  187.5560  172.0620  137.1100 C   0  0  0  0  0  1  0  0  0  0  0  0
  188.5210  174.3660  137.4280 N   0  0  0  0  0  2  0  0  0  0  0  0
  189.4300  178.6280  135.8600 C   0  0  0  0  0  1  0  0  0  0  0  0
  189.0750  177.3180  135.1650 C   0  0  2  0  0  3  0  0  0  0  0  0
  187.5720  177.3040  134.8950 C   0  0  0  0  0  2  0  0  0  0  0  0
  187.0260  178.5790  135.0580 O   0  0  0  0  0  1  0  0  0  0  0  0
  188.4420  178.0410  138.3130 C   0  0  0  0  0  2  0  0  0  0  0  0
  186.6880  178.6280  139.8220 O   0  0  0  0  0  1  0  0  0  0  0  0
  186.9440  178.1800  138.5260 C   0  0  0  0  0  2  0  0  0  0  0  0
  1 17  1  1  0  0  0
  2 23  1  1  0  0  0
  2 11  1  0  0  0  0
  3  1  1  0  0  0  0
  4  9  1  0  0  0  0
  5  4  1  6  0  0  0
  5  7  1  0  0  0  0
  7  6  1  1  0  0  0
  7  3  1  0  0  0  0
  8 25  1  1  0  0  0
  8  5  1  0  0  0  0
  8  2  1  0  0  0  0
  9  6  1  0  0  0  0
 10  9  2  0  0  0  0
 11 28  1  6  0  0  0
 11  1  1  0  0  0  0
 12 13  1  0  0  0  0
 13 18  2  0  0  0  0
 14 12  1  0  0  0  0
 15 19  2  0  0  0  0
 17 12  2  0  0  0  0
 17 15  1  0  0  0  0
 19 18  1  0  0  0  0
 19 16  1  0  0  0  0
 20 21  2  0  0  0  0
 21 22  1  0  0  0  0
 21 23  1  0  0  0  0
 25 24  1  1  0  0  0
 26 27  1  0  0  0  0
 26 25  1  0  0  0  0
 28 30  1  0  0  0  0
 30 29  1  0  0  0  0
M  END
>  <MODEL>
7

>  <REMARK>
 VINA RESULT:      -4.9      6.243      8.553
  Name = 
  6 active torsions:
  status: ('A' for Active; 'I' for Inactive)
    1  A    between atoms: C_1  and  C_22
    2  A    between atoms: C_4  and  N_25
    3  A    between atoms: C_7  and  C_30
    4  A    between atoms: C_10  and  C_23
    5  A    between atoms: C_10  and  C_26
    6  A    between atoms: C_13  and  C_30
                            x       y       z     vdW  Elec       q    Type
                         _______ _______ _______ _____ _____    ______ ____

>  <TORSDO>
F 6

$$$$
=
 OpenBabel10262421473D

 30 32  0  0  1  0  0  0  0  0999 V2000
  182.9080  177.4640  139.3010 C   0  0  1  0  0  3  0  0  0  0  0  0
  180.4120  177.0720  138.7290 C   0  0  2  0  0  3  0  0  0  0  0  0
  182.9890  176.0600  139.2720 O   0  0  0  0  0  0  0  0  0  0  0  0
  182.3700  175.8330  135.5560 C   0  0  0  0  0  2  0  0  0  0  0  0
  182.1580  176.4890  136.9110 C   0  0  2  0  0  3  0  0  0  0  0  0
  184.4560  175.0940  137.2550 S   0  0  0  0  0  0  0  0  0  0  0  0
  182.8520  175.5730  137.9460 C   0  0  1  0  0  3  0  0  0  0  0  0
  180.6760  176.8040  137.2230 C   0  0  2  0  0  3  0  0  0  0  0  0
  183.6340  175.0560  135.6710 C   0  0  0  0  0  0  0  0  0  0  0  0
  184.0370  174.3520  134.7610 O   0  0  0  0  0  0  0  0  0  0  0  0
  181.4540  177.9420  139.4680 C   0  0  2  0  0  3  0  0  0  0  0  0
  185.0950  178.5260  140.1000 C   0  0  0  0  0  0  0  0  0  0  0  0
  185.8760  179.0240  141.1490 C   0  0  0  0  0  3  0  0  0  0  0  0
  185.7690  178.5590  138.4770 Cl  0  0  0  0  0  0  0  0  0  0  0  0
  183.3250  178.0220  141.6850 C   0  0  0  0  0  3  0  0  0  0  0  0
  183.6380  178.5190  143.9930 F   0  0  0  0  0  0  0  0  0  0  0  0
  183.8040  178.0190  140.3690 C   0  0  0  0  0  0  0  0  0  0  0  0
  185.3870  179.0210  142.4570 C   0  0  0  0  0  3  0  0  0  0  0  0
  184.1120  178.5210  142.7240 C   0  0  0  0  0  0  0  0  0  0  0  0
  178.9340  176.8230  141.1710 O   0  0  0  0  0  0  0  0  0  0  0  0
  179.4090  175.7740  140.6600 C   0  0  0  0  0  0  0  0  0  0  0  0
  179.1810  174.4650  141.3230 C   0  0  0  0  0  1  0  0  0  0  0  0
  180.1700  175.8310  139.4530 N   0  0  0  0  0  2  0  0  0  0  0  0
  181.2070  179.0220  136.0760 C   0  0  0  0  0  1  0  0  0  0  0  0
  180.1390  177.9740  136.3630 C   0  0  2  0  0  3  0  0  0  0  0  0
  178.9320  178.6690  136.9880 C   0  0  0  0  0  2  0  0  0  0  0  0
  178.9310  180.0320  136.6860 O   0  0  0  0  0  1  0  0  0  0  0  0
  181.3300  179.4090  139.0740 C   0  0  0  0  0  2  0  0  0  0  0  0
  180.1790  181.4370  139.5860 O   0  0  0  0  0  1  0  0  0  0  0  0
  180.4850  180.1700  140.0820 C   0  0  0  0  0  2  0  0  0  0  0  0
  1 11  1  0  0  0  0
  1 17  1  1  0  0  0
  2 23  1  1  0  0  0
  2 11  1  0  0  0  0
  3  1  1  0  0  0  0
  4  9  1  0  0  0  0
  5  4  1  6  0  0  0
  5  8  1  0  0  0  0
  5  7  1  0  0  0  0
  7  6  1  6  0  0  0
  7  3  1  0  0  0  0
  8 25  1  6  0  0  0
  8  2  1  0  0  0  0
  9  6  1  0  0  0  0
 10  9  2  0  0  0  0
 11 28  1  6  0  0  0
 12 17  2  0  0  0  0
 12 13  1  0  0  0  0
 13 18  2  0  0  0  0
 14 12  1  0  0  0  0
 15 19  2  0  0  0  0
 17 15  1  0  0  0  0
 18 19  1  0  0  0  0
 19 16  1  0  0  0  0
 21 20  2  0  0  0  0
 21 22  1  0  0  0  0
 23 21  1  0  0  0  0
 25 24  1  1  0  0  0
 25 26  1  0  0  0  0
 27 26  1  0  0  0  0
 28 30  1  0  0  0  0
 29 30  1  0  0  0  0
M  END
>  <MODEL>
8

>  <REMARK>
 VINA RESULT:      -4.9      2.859      4.908
  Name = 
  6 active torsions:
  status: ('A' for Active; 'I' for Inactive)
    1  A    between atoms: C_1  and  C_22
    2  A    between atoms: C_4  and  N_25
    3  A    between atoms: C_7  and  C_30
    4  A    between atoms: C_10  and  C_23
    5  A    between atoms: C_10  and  C_26
    6  A    between atoms: C_13  and  C_30
                            x       y       z     vdW  Elec       q    Type
                         _______ _______ _______ _____ _____    ______ ____

>  <TORSDO>
F 6

$$$$
=
 OpenBabel10262421473D

 30 32  0  0  1  0  0  0  0  0999 V2000
  182.3000  177.6560  139.3860 C   0  0  1  0  0  3  0  0  0  0  0  0
  180.5570  179.4710  140.0010 C   0  0  2  0  0  3  0  0  0  0  0  0
  183.2300  178.7000  139.5340 O   0  0  0  0  0  0  0  0  0  0  0  0
  182.7040  179.0020  143.2590 C   0  0  0  0  0  2  0  0  0  0  0  0
  182.1980  178.7160  141.8540 C   0  0  2  0  0  3  0  0  0  0  0  0
  184.8800  178.4020  141.6190 S   0  0  0  0  0  0  0  0  0  0  0  0
  183.3600  179.0720  140.8980 C   0  0  1  0  0  3  0  0  0  0  0  0
  180.8560  179.4120  141.5240 C   0  0  2  0  0  3  0  0  0  0  0  0
  184.1810  178.8320  143.2040 C   0  0  0  0  0  0  0  0  0  0  0  0
  184.8870  179.0680  144.1690 O   0  0  0  0  0  0  0  0  0  0  0  0
  180.8720  178.1970  139.1860 C   0  0  2  0  0  3  0  0  0  0  0  0
  182.5740  177.0840  136.9060 C   0  0  0  0  0  0  0  0  0  0  0  0
  182.9760  176.1770  135.9200 C   0  0  0  0  0  3  0  0  0  0  0  0
  181.9100  178.6280  136.3910 Cl  0  0  0  0  0  0  0  0  0  0  0  0
  183.2490  175.4950  138.6140 C   0  0  0  0  0  3  0  0  0  0  0  0
  184.1670  173.3940  137.9670 F   0  0  0  0  0  0  0  0  0  0  0  0
  182.7110  176.7410  138.2700 C   0  0  0  0  0  0  0  0  0  0  0  0
  183.5110  174.9370  136.2760 C   0  0  0  0  0  3  0  0  0  0  0  0
  183.6480  174.5970  137.6220 C   0  0  0  0  0  0  0  0  0  0  0  0
  179.3280  181.1740  138.0520 O   0  0  0  0  0  0  0  0  0  0  0  0
  180.4950  181.4580  138.4310 C   0  0  0  0  0  0  0  0  0  0  0  0
  181.1790  182.6530  137.8720 C   0  0  0  0  0  1  0  0  0  0  0  0
  181.1710  180.6410  139.3870 N   0  0  0  0  0  2  0  0  0  0  0  0
  179.0500  179.7240  143.3010 C   0  0  0  0  0  1  0  0  0  0  0  0
  179.6690  178.7720  142.2830 C   0  0  2  0  0  3  0  0  0  0  0  0
  180.0450  177.4760  142.9970 C   0  0  0  0  0  2  0  0  0  0  0  0
  179.6800  177.5260  144.3440 O   0  0  0  0  0  1  0  0  0  0  0  0
  179.8470  177.1000  139.4550 C   0  0  0  0  0  2  0  0  0  0  0  0
  178.9990  175.3640  138.0520 O   0  0  0  0  0  1  0  0  0  0  0  0
  179.0860  176.7500  138.1870 C   0  0  0  0  0  2  0  0  0  0  0  0
  1 17  1  6  0  0  0
  1  3  1  0  0  0  0
  2 23  1  6  0  0  0
  2  8  1  0  0  0  0
  5  4  1  1  0  0  0
  6  9  1  0  0  0  0
  7  3  1  6  0  0  0
  7  6  1  0  0  0  0
  7  5  1  0  0  0  0
  8  5  1  0  0  0  0
  8 25  1  1  0  0  0
  9  4  1  0  0  0  0
  9 10  2  0  0  0  0
 11  1  1  0  0  0  0
 11 28  1  1  0  0  0
 11  2  1  0  0  0  0
 12 17  1  0  0  0  0
 13 18  1  0  0  0  0
 13 12  2  0  0  0  0
 14 12  1  0  0  0  0
 17 15  2  0  0  0  0
 18 19  2  0  0  0  0
 19 16  1  0  0  0  0
 19 15  1  0  0  0  0
 20 21  2  0  0  0  0
 21 23  1  0  0  0  0
 22 21  1  0  0  0  0
 25 26  1  0  0  0  0
 25 24  1  1  0  0  0
 26 27  1  0  0  0  0
 29 30  1  0  0  0  0
 30 28  1  0  0  0  0
M  END
>  <MODEL>
9

>  <REMARK>
 VINA RESULT:      -4.8      2.979      6.180
  Name = 
  6 active torsions:
  status: ('A' for Active; 'I' for Inactive)
    1  A    between atoms: C_1  and  C_22
    2  A    between atoms: C_4  and  N_25
    3  A    between atoms: C_7  and  C_30
    4  A    between atoms: C_10  and  C_23
    5  A    between atoms: C_10  and  C_26
    6  A    between atoms: C_13  and  C_30
                            x       y       z     vdW  Elec       q    Type
                         _______ _______ _______ _____ _____    ______ ____

>  <TORSDO>
F 6

$$$$
