=
 OpenBabel10262422523D

 37 41  0  0  1  0  0  0  0  0999 V2000
  189.6410  177.0720  141.0000 C   0  0  2  0  0  3  0  0  0  0  0  0
  191.5310  178.9010  143.8390 C   0  0  0  0  0  2  0  0  0  0  0  0
  187.6670  178.6990  139.7960 C   0  0  0  0  0  3  0  0  0  0  0  0
  190.5550  178.1490  141.6170 C   0  0  0  0  0  2  0  0  0  0  0  0
  189.5840  177.1480  139.4620 C   0  0  1  0  0  3  0  0  0  0  0  0
  190.5400  178.0140  143.1240 C   0  0  0  0  0  0  0  0  0  0  0  0
  186.1670  178.3830  141.7060 C   0  0  0  0  0  1  0  0  0  0  0  0
  188.6630  175.3770  143.2800 C   0  0  0  0  0  1  0  0  0  0  0  0
  187.6240  178.3900  141.2680 C   0  0  1  0  0  3  0  0  0  0  0  0
  191.7690  177.3940  143.7490 C   0  0  0  0  0  2  0  0  0  0  0  0
  188.2710  177.0980  141.5620 N   0  0  2  0  0  0  0  0  0  0  0  0
  188.5860  178.1820  138.9600 C   0  0  0  0  0  0  0  0  0  0  0  0
  189.1700  177.8360  143.7890 C   0  0  1  0  0  3  0  0  0  0  0  0
  188.2870  176.8320  143.0160 C   0  0  2  0  0  3  0  0  0  0  0  0
  190.1730  177.2410  145.9770 C   0  0  0  0  0  3  0  0  0  0  0  0
  189.1230  177.7120  145.2910 C   0  0  0  0  0  0  0  0  0  0  0  0
  187.8550  178.1390  145.9830 C   0  0  0  0  0  2  0  0  0  0  0  0
  186.9200  178.3150  148.1730 O   0  0  0  0  0  0  0  0  0  0  0  0
  189.0870  177.4700  148.1160 N   0  0  0  0  0  0  0  0  0  0  0  0
  187.9150  177.9860  147.4760 C   0  0  0  0  0  0  0  0  0  0  0  0
  190.1380  177.1210  147.4410 C   0  0  0  0  0  3  0  0  0  0  0  0
  188.4570  178.5030  137.4880 C   0  0  0  0  0  0  0  0  0  0  0  0
  188.7080  177.3720  136.7300 F   0  0  0  0  0  0  0  0  0  0  0  0
  187.1720  178.9420  137.2280 F   0  0  0  0  0  0  0  0  0  0  0  0
  189.3520  179.4850  137.1030 F   0  0  0  0  0  0  0  0  0  0  0  0
  190.9730  177.3250  138.8420 C   0  0  0  0  0  2  0  0  0  0  0  0
  193.1010  176.1210  138.3840 C   0  0  0  0  0  2  0  0  0  0  0  0
  193.5210  175.0290  137.4240 C   0  0  1  0  0  3  0  0  0  0  0  0
  191.1240  175.4700  137.1670 C   0  0  0  0  0  2  0  0  0  0  0  0
  192.3070  174.7340  136.5550 C   0  0  2  0  0  3  0  0  0  0  0  0
  191.6020  175.9810  138.5120 C   0  0  2  0  0  3  0  0  0  0  0  0
  194.6360  175.4930  136.5950 C   0  0  0  0  0  0  0  0  0  0  0  0
  195.5180  175.8600  135.9410 N   0  0  0  0  0  0  0  0  0  0  0  0
  192.0440  173.2310  136.4240 C   0  0  0  0  0  2  0  0  0  0  0  0
  193.1710  172.4860  135.7770 C   0  0  0  0  0  0  0  0  0  0  0  0
  193.5360  172.7850  134.6110 O   0  0  0  0  0  0  0  0  0  0  0  0
  193.8340  171.4850  136.4750 O   0  0  0  0  0  1  0  0  0  0  0  0
  1 11  1  0  0  0  0
  1  4  1  1  0  0  0
  3  9  1  0  0  0  0
  4  6  1  0  0  0  0
  5 26  1  1  0  0  0
  5  1  1  0  0  0  0
  6 10  1  0  0  0  0
  6 13  1  0  0  0  0
  6  2  1  0  0  0  0
  9 11  1  0  0  0  0
  9  7  1  6  0  0  0
 10  2  1  0  0  0  0
 11 14  1  0  0  0  0
 12  5  1  0  0  0  0
 12  3  2  0  0  0  0
 13 16  1  0  0  0  0
 14  8  1  0  0  0  0
 14 13  1  0  0  0  0
 15 21  1  0  0  0  0
 16 15  2  0  0  0  0
 16 17  1  0  0  0  0
 17 20  1  0  0  0  0
 20 19  1  0  0  0  0
 20 18  2  0  0  0  0
 21 19  2  0  0  0  0
 22 12  1  0  0  0  0
 23 22  1  0  0  0  0
 24 22  1  0  0  0  0
 25 22  1  0  0  0  0
 27 31  1  0  0  0  0
 28 27  1  0  0  0  0
 29 31  1  0  0  0  0
 30 29  1  0  0  0  0
 30 28  1  0  0  0  0
 31 26  1  0  0  0  0
 32 28  1  0  0  0  0
 33 32  3  0  0  0  0
 34 30  1  0  0  0  0
 35 34  1  0  0  0  0
 35 37  1  0  0  0  0
 36 35  2  0  0  0  0
M  END
>  <MODEL>
1

>  <REMARK>
 VINA RESULT:      -7.8      0.000      0.000
  Name = 
  7 active torsions:
  status: ('A' for Active; 'I' for Inactive)
    1  A    between atoms: C_3  and  C_30
    2  A    between atoms: C_5  and  C_12
    3  A    between atoms: C_6  and  C_31
    4  A    between atoms: C_11  and  C_26
    5  A    between atoms: C_13  and  C_20
    6  A    between atoms: C_20  and  C_36
    7  A    between atoms: C_26  and  C_33
                            x       y       z     vdW  Elec       q    Type
                         _______ _______ _______ _____ _____    ______ ____

>  <TORSDO>
F 7

$$$$
=
 OpenBabel10262422523D

 37 41  0  0  1  0  0  0  0  0999 V2000
  183.7810  178.5350  141.1570 C   0  0  2  0  0  3  0  0  0  0  0  0
  182.3410  175.6190  139.0580 C   0  0  0  0  0  2  0  0  0  0  0  0
  182.3390  178.9540  143.5520 C   0  0  0  0  0  3  0  0  0  0  0  0
  183.4010  177.0720  140.8530 C   0  0  0  0  0  2  0  0  0  0  0  0
  184.5660  178.6860  142.4740 C   0  0  1  0  0  3  0  0  0  0  0  0
  182.6230  177.0170  139.5560 C   0  0  0  0  0  0  0  0  0  0  0  0
  180.5190  180.0450  142.3270 C   0  0  0  0  0  1  0  0  0  0  0  0
  182.8390  180.1640  138.8130 C   0  0  0  0  0  1  0  0  0  0  0  0
  181.6580  179.0420  142.2130 C   0  0  1  0  0  3  0  0  0  0  0  0
  183.3720  176.4980  138.3500 C   0  0  0  0  0  2  0  0  0  0  0  0
  182.6080  179.4390  141.1560 N   0  0  2  0  0  0  0  0  0  0  0  0
  183.6600  178.7410  143.6960 C   0  0  0  0  0  0  0  0  0  0  0  0
  181.5050  178.0510  139.3760 C   0  0  1  0  0  3  0  0  0  0  0  0
  181.9500  179.4570  139.8320 C   0  0  2  0  0  3  0  0  0  0  0  0
  179.7200  177.1170  137.9310 C   0  0  0  0  0  3  0  0  0  0  0  0
  180.7030  178.0110  138.1000 C   0  0  0  0  0  0  0  0  0  0  0  0
  181.0520  179.0120  137.0300 C   0  0  0  0  0  2  0  0  0  0  0  0
  180.3750  179.6800  134.8390 O   0  0  0  0  0  0  0  0  0  0  0  0
  179.1620  177.9020  135.7220 N   0  0  0  0  0  0  0  0  0  0  0  0
  180.1890  178.8950  135.8050 C   0  0  0  0  0  0  0  0  0  0  0  0
  178.9310  177.0730  136.6920 C   0  0  0  0  0  3  0  0  0  0  0  0
  184.2270  178.7680  145.0970 C   0  0  0  0  0  0  0  0  0  0  0  0
  183.2230  179.0360  146.0130 F   0  0  0  0  0  0  0  0  0  0  0  0
  184.7830  177.5360  145.3870 F   0  0  0  0  0  0  0  0  0  0  0  0
  185.2010  179.7420  145.2310 F   0  0  0  0  0  0  0  0  0  0  0  0
  185.6710  177.6350  142.6100 C   0  0  0  0  0  2  0  0  0  0  0  0
  187.9300  178.3350  141.8410 C   0  0  0  0  0  2  0  0  0  0  0  0
  189.3190  178.2920  142.4400 C   0  0  1  0  0  3  0  0  0  0  0  0
  187.6980  177.4340  144.0650 C   0  0  0  0  0  2  0  0  0  0  0  0
  189.1850  177.5810  143.7790 C   0  0  2  0  0  3  0  0  0  0  0  0
  186.9880  178.2720  143.0200 C   0  0  2  0  0  3  0  0  0  0  0  0
  190.2210  177.5470  141.5580 C   0  0  0  0  0  0  0  0  0  0  0  0
  190.9350  176.9590  140.8620 N   0  0  0  0  0  0  0  0  0  0  0  0
  189.9170  178.3230  144.9010 C   0  0  0  0  0  2  0  0  0  0  0  0
  190.4920  177.4110  145.9390 C   0  0  0  0  0  0  0  0  0  0  0  0
  191.7140  177.1160  145.9110 O   0  0  0  0  0  0  0  0  0  0  0  0
  189.6820  176.9130  146.9520 O   0  0  0  0  0  1  0  0  0  0  0  0
  1  4  1  1  0  0  0
  1  5  1  0  0  0  0
  2  6  1  0  0  0  0
  3 12  2  0  0  0  0
  5 26  1  1  0  0  0
  5 12  1  0  0  0  0
  6  4  1  0  0  0  0
  8 14  1  0  0  0  0
  9  7  1  1  0  0  0
  9  3  1  0  0  0  0
 10  2  1  0  0  0  0
 10  6  1  0  0  0  0
 11  1  1  0  0  0  0
 11  9  1  0  0  0  0
 12 22  1  0  0  0  0
 13  6  1  0  0  0  0
 13 14  1  0  0  0  0
 14 11  1  0  0  0  0
 15 16  2  0  0  0  0
 16 13  1  0  0  0  0
 17 16  1  0  0  0  0
 18 20  2  0  0  0  0
 19 20  1  0  0  0  0
 19 21  2  0  0  0  0
 20 17  1  0  0  0  0
 21 15  1  0  0  0  0
 22 25  1  0  0  0  0
 22 24  1  0  0  0  0
 22 23  1  0  0  0  0
 26 31  1  0  0  0  0
 27 28  1  0  0  0  0
 27 31  1  0  0  0  0
 28 30  1  0  0  0  0
 30 29  1  0  0  0  0
 30 34  1  0  0  0  0
 31 29  1  0  0  0  0
 32 28  1  0  0  0  0
 33 32  3  0  0  0  0
 34 35  1  0  0  0  0
 35 37  1  0  0  0  0
 36 35  2  0  0  0  0
M  END
>  <MODEL>
2

>  <REMARK>
 VINA RESULT:      -7.3      5.768      9.697
  Name = 
  7 active torsions:
  status: ('A' for Active; 'I' for Inactive)
    1  A    between atoms: C_3  and  C_30
    2  A    between atoms: C_5  and  C_12
    3  A    between atoms: C_6  and  C_31
    4  A    between atoms: C_11  and  C_26
    5  A    between atoms: C_13  and  C_20
    6  A    between atoms: C_20  and  C_36
    7  A    between atoms: C_26  and  C_33
                            x       y       z     vdW  Elec       q    Type
                         _______ _______ _______ _____ _____    ______ ____

>  <TORSDO>
F 7

$$$$
=
 OpenBabel10262422523D

 37 41  0  0  1  0  0  0  0  0999 V2000
  189.0460  177.4530  141.1560 C   0  0  2  0  0  3  0  0  0  0  0  0
  191.0410  179.6270  143.6600 C   0  0  0  0  0  2  0  0  0  0  0  0
  186.4240  178.4220  140.7360 C   0  0  0  0  0  3  0  0  0  0  0  0
  189.7380  178.7300  141.6720 C   0  0  0  0  0  2  0  0  0  0  0  0
  188.5340  177.5950  139.7090 C   0  0  1  0  0  3  0  0  0  0  0  0
  190.1940  178.5100  143.0980 C   0  0  0  0  0  0  0  0  0  0  0  0
  185.6920  177.5290  142.8970 C   0  0  0  0  0  1  0  0  0  0  0  0
  189.3020  175.4040  143.3390 C   0  0  0  0  0  1  0  0  0  0  0  0
  186.8950  178.0320  142.1110 C   0  0  1  0  0  3  0  0  0  0  0  0
  191.6760  178.2850  143.2970 C   0  0  0  0  0  2  0  0  0  0  0  0
  187.9490  177.0020  142.0420 N   0  0  2  0  0  0  0  0  0  0  0  0
  187.1760  178.2780  139.6300 C   0  0  0  0  0  0  0  0  0  0  0  0
  189.1860  177.8610  144.0540 C   0  0  1  0  0  3  0  0  0  0  0  0
  188.4560  176.6720  143.3910 C   0  0  2  0  0  3  0  0  0  0  0  0
  188.8290  178.0370  146.5010 C   0  0  0  0  0  3  0  0  0  0  0  0
  189.6070  177.6430  145.4850 C   0  0  0  0  0  0  0  0  0  0  0  0
  190.9330  176.9660  145.7210 C   0  0  0  0  0  2  0  0  0  0  0  0
  192.3310  176.2280  147.5110 O   0  0  0  0  0  0  0  0  0  0  0  0
  190.3530  177.2460  148.1920 N   0  0  0  0  0  0  0  0  0  0  0  0
  191.2540  176.7870  147.1790 C   0  0  0  0  0  0  0  0  0  0  0  0
  189.2300  177.8250  147.8990 C   0  0  0  0  0  3  0  0  0  0  0  0
  186.5450  178.6250  138.3010 C   0  0  0  0  0  0  0  0  0  0  0  0
  186.2290  177.4680  137.6070 F   0  0  0  0  0  0  0  0  0  0  0  0
  185.3870  179.3480  138.5210 F   0  0  0  0  0  0  0  0  0  0  0  0
  187.3990  179.3770  137.5140 F   0  0  0  0  0  0  0  0  0  0  0  0
  189.5730  178.2460  138.7920 C   0  0  0  0  0  2  0  0  0  0  0  0
  189.2270  176.4260  137.1330 C   0  0  0  0  0  2  0  0  0  0  0  0
  189.8620  175.0730  136.8880 C   0  0  1  0  0  3  0  0  0  0  0  0
  191.0000  176.1890  138.7510 C   0  0  0  0  0  2  0  0  0  0  0  0
  190.8730  174.8680  138.0070 C   0  0  2  0  0  3  0  0  0  0  0  0
  190.2560  177.2110  137.9130 C   0  0  2  0  0  3  0  0  0  0  0  0
  188.8400  174.0250  136.9300 C   0  0  0  0  0  0  0  0  0  0  0  0
  188.0320  173.1970  136.9630 N   0  0  0  0  0  0  0  0  0  0  0  0
  192.2230  174.3710  137.4800 C   0  0  0  0  0  2  0  0  0  0  0  0
  193.1820  175.4780  137.1690 C   0  0  0  0  0  0  0  0  0  0  0  0
  194.1040  175.7570  137.9770 O   0  0  0  0  0  1  0  0  0  0  0  0
  193.0720  176.1760  135.9730 O   0  0  0  0  0  0  0  0  0  0  0  0
  1  4  1  1  0  0  0
  1 11  1  0  0  0  0
  3  9  1  0  0  0  0
  4  6  1  0  0  0  0
  5 26  1  6  0  0  0
  5  1  1  0  0  0  0
  6 10  1  0  0  0  0
  6  2  1  0  0  0  0
  6 13  1  0  0  0  0
  8 14  1  0  0  0  0
  9  7  1  1  0  0  0
 10  2  1  0  0  0  0
 11  9  1  0  0  0  0
 11 14  1  0  0  0  0
 12  5  1  0  0  0  0
 12  3  2  0  0  0  0
 13 16  1  0  0  0  0
 14 13  1  0  0  0  0
 15 21  1  0  0  0  0
 16 17  1  0  0  0  0
 16 15  2  0  0  0  0
 17 20  1  0  0  0  0
 20 18  2  0  0  0  0
 20 19  1  0  0  0  0
 21 19  2  0  0  0  0
 22 24  1  0  0  0  0
 22 12  1  0  0  0  0
 23 22  1  0  0  0  0
 25 22  1  0  0  0  0
 27 31  1  0  0  0  0
 28 32  1  0  0  0  0
 28 27  1  0  0  0  0
 28 30  1  0  0  0  0
 30 29  1  0  0  0  0
 31 29  1  0  0  0  0
 31 26  1  0  0  0  0
 32 33  3  0  0  0  0
 34 30  1  0  0  0  0
 35 34  1  0  0  0  0
 35 36  1  0  0  0  0
 37 35  2  0  0  0  0
M  END
>  <MODEL>
3

>  <REMARK>
 VINA RESULT:      -7.0      2.213      2.846
  Name = 
  7 active torsions:
  status: ('A' for Active; 'I' for Inactive)
    1  A    between atoms: C_3  and  C_30
    2  A    between atoms: C_5  and  C_12
    3  A    between atoms: C_6  and  C_31
    4  A    between atoms: C_11  and  C_26
    5  A    between atoms: C_13  and  C_20
    6  A    between atoms: C_20  and  C_36
    7  A    between atoms: C_26  and  C_33
                            x       y       z     vdW  Elec       q    Type
                         _______ _______ _______ _____ _____    ______ ____

>  <TORSDO>
F 7

$$$$
=
 OpenBabel10262422523D

 37 41  0  0  1  0  0  0  0  0999 V2000
  185.0830  177.9160  139.3430 C   0  0  2  0  0  3  0  0  0  0  0  0
  182.4290  180.6760  138.7810 C   0  0  0  0  0  2  0  0  0  0  0  0
  187.2570  178.1280  137.5480 C   0  0  0  0  0  3  0  0  0  0  0  0
  184.5390  179.3570  139.2970 C   0  0  0  0  0  2  0  0  0  0  0  0
  186.5160  177.8380  139.9060 C   0  0  1  0  0  3  0  0  0  0  0  0
  183.1400  179.3450  138.7190 C   0  0  0  0  0  0  0  0  0  0  0  0
  185.9120  177.1920  135.7270 C   0  0  0  0  0  1  0  0  0  0  0  0
  182.8490  176.1310  138.4180 C   0  0  0  0  0  1  0  0  0  0  0  0
  185.8500  177.9520  137.0440 C   0  0  1  0  0  3  0  0  0  0  0  0
  182.0100  179.5330  139.7050 C   0  0  0  0  0  2  0  0  0  0  0  0
  185.0150  177.2390  138.0280 N   0  0  2  0  0  0  0  0  0  0  0  0
  187.5770  178.1290  138.8550 C   0  0  0  0  0  0  0  0  0  0  0  0
  182.9210  178.5040  137.4550 C   0  0  1  0  0  3  0  0  0  0  0  0
  183.6180  177.1300  137.5570 C   0  0  2  0  0  3  0  0  0  0  0  0
  180.6880  177.4840  137.1080 C   0  0  0  0  0  3  0  0  0  0  0  0
  181.5410  178.4840  136.8500 C   0  0  0  0  0  0  0  0  0  0  0  0
  181.1630  179.6300  135.9470 C   0  0  0  0  0  2  0  0  0  0  0  0
  179.3270  180.4190  134.6410 O   0  0  0  0  0  0  0  0  0  0  0  0
  178.9310  178.4070  135.7410 N   0  0  0  0  0  0  0  0  0  0  0  0
  179.7660  179.5200  135.4040 C   0  0  0  0  0  0  0  0  0  0  0  0
  179.3400  177.4580  136.5250 C   0  0  0  0  0  3  0  0  0  0  0  0
  189.0420  178.2220  139.2190 C   0  0  0  0  0  0  0  0  0  0  0  0
  189.8230  178.1480  138.0770 F   0  0  0  0  0  0  0  0  0  0  0  0
  189.2800  179.4300  139.8480 F   0  0  0  0  0  0  0  0  0  0  0  0
  189.4200  177.1950  140.0650 F   0  0  0  0  0  0  0  0  0  0  0  0
  186.6870  178.6900  141.1660 C   0  0  0  0  0  2  0  0  0  0  0  0
  185.8350  178.0170  143.4030 C   0  0  0  0  0  2  0  0  0  0  0  0
  186.4760  177.7280  144.7440 C   0  0  1  0  0  3  0  0  0  0  0  0
  188.2170  178.2230  143.0920 C   0  0  0  0  0  2  0  0  0  0  0  0
  187.9620  178.0110  144.5760 C   0  0  2  0  0  3  0  0  0  0  0  0
  186.9360  177.8210  142.3880 C   0  0  2  0  0  3  0  0  0  0  0  0
  185.9060  178.6040  145.7710 C   0  0  0  0  0  0  0  0  0  0  0  0
  185.4560  179.2960  146.5830 N   0  0  0  0  0  0  0  0  0  0  0  0
  188.8300  176.8900  145.1560 C   0  0  0  0  0  2  0  0  0  0  0  0
  189.5110  177.2680  146.4360 C   0  0  0  0  0  0  0  0  0  0  0  0
  189.0740  178.2280  147.1200 O   0  0  0  0  0  1  0  0  0  0  0  0
  190.6060  176.5400  146.8820 O   0  0  0  0  0  0  0  0  0  0  0  0
  1  4  1  6  0  0  0
  1  5  1  0  0  0  0
  2 10  1  0  0  0  0
  3 12  2  0  0  0  0
  5 26  1  1  0  0  0
  6  2  1  0  0  0  0
  6  4  1  0  0  0  0
  6 10  1  0  0  0  0
  9  7  1  6  0  0  0
  9  3  1  0  0  0  0
  9 11  1  0  0  0  0
 11  1  1  0  0  0  0
 12 22  1  0  0  0  0
 12  5  1  0  0  0  0
 13 14  1  0  0  0  0
 13  6  1  0  0  0  0
 14 11  1  0  0  0  0
 14  8  1  0  0  0  0
 16 15  2  0  0  0  0
 16 13  1  0  0  0  0
 17 16  1  0  0  0  0
 18 20  2  0  0  0  0
 19 21  2  0  0  0  0
 20 19  1  0  0  0  0
 20 17  1  0  0  0  0
 21 15  1  0  0  0  0
 22 24  1  0  0  0  0
 22 25  1  0  0  0  0
 23 22  1  0  0  0  0
 26 31  1  0  0  0  0
 27 28  1  0  0  0  0
 28 32  1  0  0  0  0
 29 30  1  0  0  0  0
 30 28  1  0  0  0  0
 30 34  1  0  0  0  0
 31 29  1  0  0  0  0
 31 27  1  0  0  0  0
 32 33  3  0  0  0  0
 34 35  1  0  0  0  0
 35 37  2  0  0  0  0
 35 36  1  0  0  0  0
M  END
>  <MODEL>
4

>  <REMARK>
 VINA RESULT:      -6.7      5.123      9.711
  Name = 
  7 active torsions:
  status: ('A' for Active; 'I' for Inactive)
    1  A    between atoms: C_3  and  C_30
    2  A    between atoms: C_5  and  C_12
    3  A    between atoms: C_6  and  C_31
    4  A    between atoms: C_11  and  C_26
    5  A    between atoms: C_13  and  C_20
    6  A    between atoms: C_20  and  C_36
    7  A    between atoms: C_26  and  C_33
                            x       y       z     vdW  Elec       q    Type
                         _______ _______ _______ _____ _____    ______ ____

>  <TORSDO>
F 7

$$$$
=
 OpenBabel10262422523D

 37 41  0  0  1  0  0  0  0  0999 V2000
  188.0200  177.5020  141.3850 C   0  0  2  0  0  3  0  0  0  0  0  0
  190.8150  179.3190  143.3510 C   0  0  0  0  0  2  0  0  0  0  0  0
  185.5820  178.9320  141.4040 C   0  0  0  0  0  3  0  0  0  0  0  0
  189.0150  178.6380  141.6910 C   0  0  0  0  0  2  0  0  0  0  0  0
  187.2740  177.7060  140.0520 C   0  0  1  0  0  3  0  0  0  0  0  0
  189.6900  178.3670  143.0190 C   0  0  0  0  0  0  0  0  0  0  0  0
  185.1320  178.2360  143.7090 C   0  0  0  0  0  1  0  0  0  0  0  0
  188.3210  175.4870  143.5950 C   0  0  0  0  0  1  0  0  0  0  0  0
  186.2310  178.4900  142.6880 C   0  0  1  0  0  3  0  0  0  0  0  0
  191.1180  177.8760  142.9520 C   0  0  0  0  0  2  0  0  0  0  0  0
  187.0520  177.2810  142.4830 N   0  0  2  0  0  0  0  0  0  0  0  0
  186.0700  178.6280  140.1880 C   0  0  0  0  0  0  0  0  0  0  0  0
  188.7850  177.9370  144.1790 C   0  0  1  0  0  3  0  0  0  0  0  0
  187.7410  176.8910  143.7310 C   0  0  2  0  0  3  0  0  0  0  0  0
  190.5910  177.0180  145.6070 C   0  0  0  0  0  3  0  0  0  0  0  0
  189.4280  177.6750  145.5170 C   0  0  0  0  0  0  0  0  0  0  0  0
  188.7100  178.1800  146.7420 C   0  0  0  0  0  2  0  0  0  0  0  0
  188.9460  178.2520  149.1170 O   0  0  0  0  0  0  0  0  0  0  0  0
  190.6800  177.1650  148.0110 N   0  0  0  0  0  0  0  0  0  0  0  0
  189.4380  177.8770  148.0220 C   0  0  0  0  0  0  0  0  0  0  0  0
  191.2270  176.7600  146.9060 C   0  0  0  0  0  3  0  0  0  0  0  0
  185.2670  179.0580  138.9810 C   0  0  0  0  0  0  0  0  0  0  0  0
  186.0910  179.1620  137.8730 F   0  0  0  0  0  0  0  0  0  0  0  0
  184.2880  178.1160  138.7250 F   0  0  0  0  0  0  0  0  0  0  0  0
  184.6640  180.2860  139.1850 F   0  0  0  0  0  0  0  0  0  0  0  0
  188.2160  178.1330  138.9240 C   0  0  0  0  0  2  0  0  0  0  0  0
  190.2230  176.6640  138.9170 C   0  0  0  0  0  2  0  0  0  0  0  0
  191.0530  175.9990  137.8400 C   0  0  1  0  0  3  0  0  0  0  0  0
  189.1700  177.1850  136.8110 C   0  0  0  0  0  2  0  0  0  0  0  0
  190.4730  176.4590  136.5100 C   0  0  2  0  0  3  0  0  0  0  0  0
  188.8800  176.9280  138.2770 C   0  0  2  0  0  3  0  0  0  0  0  0
  192.4510  176.4170  137.9550 C   0  0  0  0  0  0  0  0  0  0  0  0
  193.5570  176.7470  138.0480 N   0  0  0  0  0  0  0  0  0  0  0  0
  190.2710  175.2950  135.5360 C   0  0  0  0  0  2  0  0  0  0  0  0
  189.3700  174.2240  136.0680 C   0  0  0  0  0  0  0  0  0  0  0  0
  189.7680  173.4670  136.9900 O   0  0  0  0  0  1  0  0  0  0  0  0
  188.0830  174.0860  135.5640 O   0  0  0  0  0  0  0  0  0  0  0  0
  1  4  1  1  0  0  0
  1 11  1  0  0  0  0
  3  9  1  0  0  0  0
  4  6  1  0  0  0  0
  5 26  1  6  0  0  0
  5 12  1  0  0  0  0
  5  1  1  0  0  0  0
  6  2  1  0  0  0  0
  6 13  1  0  0  0  0
  8 14  1  0  0  0  0
  9  7  1  1  0  0  0
 10  6  1  0  0  0  0
 10  2  1  0  0  0  0
 11  9  1  0  0  0  0
 11 14  1  0  0  0  0
 12  3  2  0  0  0  0
 13 16  1  0  0  0  0
 14 13  1  0  0  0  0
 15 21  1  0  0  0  0
 16 15  2  0  0  0  0
 16 17  1  0  0  0  0
 17 20  1  0  0  0  0
 19 20  1  0  0  0  0
 20 18  2  0  0  0  0
 21 19  2  0  0  0  0
 22 25  1  0  0  0  0
 22 12  1  0  0  0  0
 23 22  1  0  0  0  0
 24 22  1  0  0  0  0
 28 32  1  0  0  0  0
 28 27  1  0  0  0  0
 29 31  1  0  0  0  0
 30 29  1  0  0  0  0
 30 28  1  0  0  0  0
 31 27  1  0  0  0  0
 31 26  1  0  0  0  0
 32 33  3  0  0  0  0
 34 35  1  0  0  0  0
 34 30  1  0  0  0  0
 35 36  1  0  0  0  0
 37 35  2  0  0  0  0
M  END
>  <MODEL>
5

>  <REMARK>
 VINA RESULT:      -6.5      1.997      2.689
  Name = 
  7 active torsions:
  status: ('A' for Active; 'I' for Inactive)
    1  A    between atoms: C_3  and  C_30
    2  A    between atoms: C_5  and  C_12
    3  A    between atoms: C_6  and  C_31
    4  A    between atoms: C_11  and  C_26
    5  A    between atoms: C_13  and  C_20
    6  A    between atoms: C_20  and  C_36
    7  A    between atoms: C_26  and  C_33
                            x       y       z     vdW  Elec       q    Type
                         _______ _______ _______ _____ _____    ______ ____

>  <TORSDO>
F 7

$$$$
=
 OpenBabel10262422523D

 37 41  0  0  1  0  0  0  0  0999 V2000
  185.7960  177.5430  138.7770 C   0  0  2  0  0  3  0  0  0  0  0  0
  182.6300  179.7490  139.0760 C   0  0  0  0  0  2  0  0  0  0  0  0
  187.4050  178.2600  136.5650 C   0  0  0  0  0  3  0  0  0  0  0  0
  185.0050  178.8500  138.9830 C   0  0  0  0  0  2  0  0  0  0  0  0
  187.3110  177.7240  138.9930 C   0  0  1  0  0  3  0  0  0  0  0  0
  183.5340  178.5880  138.7370 C   0  0  0  0  0  0  0  0  0  0  0  0
  185.8570  177.1590  135.0170 C   0  0  0  0  0  1  0  0  0  0  0  0
  183.7670  175.3970  138.2220 C   0  0  0  0  0  1  0  0  0  0  0  0
  185.9740  177.8330  136.3770 C   0  0  1  0  0  3  0  0  0  0  0  0
  182.6570  178.5060  139.9650 C   0  0  0  0  0  2  0  0  0  0  0  0
  185.5410  176.9260  137.4560 N   0  0  2  0  0  0  0  0  0  0  0  0
  188.0210  178.2650  137.7610 C   0  0  0  0  0  0  0  0  0  0  0  0
  183.1770  177.7780  137.4850 C   0  0  1  0  0  3  0  0  0  0  0  0
  184.1150  176.5650  137.3040 C   0  0  2  0  0  3  0  0  0  0  0  0
  181.0520  178.2260  136.2900 C   0  0  0  0  0  3  0  0  0  0  0  0
  181.7190  177.5140  137.2060 C   0  0  0  0  0  0  0  0  0  0  0  0
  181.0490  176.4200  137.9970 C   0  0  0  0  0  2  0  0  0  0  0  0
  178.9310  175.3420  138.2230 O   0  0  0  0  0  0  0  0  0  0  0  0
  178.9790  177.0480  136.6410 N   0  0  0  0  0  0  0  0  0  0  0  0
  179.6030  176.2300  137.6370 C   0  0  0  0  0  0  0  0  0  0  0  0
  179.6320  177.9740  136.0090 C   0  0  0  0  0  3  0  0  0  0  0  0
  189.4890  178.6290  137.7920 C   0  0  0  0  0  0  0  0  0  0  0  0
  190.1620  177.9810  136.7700 F   0  0  0  0  0  0  0  0  0  0  0  0
  189.6240  179.9950  137.6250 F   0  0  0  0  0  0  0  0  0  0  0  0
  190.0750  178.2640  138.9910 F   0  0  0  0  0  0  0  0  0  0  0  0
  187.6200  178.5370  140.2530 C   0  0  0  0  0  2  0  0  0  0  0  0
  187.0450  177.5120  142.4450 C   0  0  0  0  0  2  0  0  0  0  0  0
  187.8010  177.2530  143.7310 C   0  0  1  0  0  3  0  0  0  0  0  0
  189.3130  178.2420  142.0750 C   0  0  0  0  0  2  0  0  0  0  0  0
  189.1860  177.8560  143.5410 C   0  0  2  0  0  3  0  0  0  0  0  0
  188.1080  177.6400  141.3790 C   0  0  2  0  0  3  0  0  0  0  0  0
  187.1170  177.8980  144.8530 C   0  0  0  0  0  0  0  0  0  0  0  0
  186.5750  178.4070  145.7410 N   0  0  0  0  0  0  0  0  0  0  0  0
  190.2970  176.8990  143.9840 C   0  0  0  0  0  2  0  0  0  0  0  0
  191.3620  177.5640  144.7990 C   0  0  0  0  0  0  0  0  0  0  0  0
  191.9260  178.6030  144.3710 O   0  0  0  0  0  0  0  0  0  0  0  0
  191.7080  177.0500  146.0420 O   0  0  0  0  0  1  0  0  0  0  0  0
  1  4  1  6  0  0  0
  1  5  1  0  0  0  0
  2 10  1  0  0  0  0
  3 12  2  0  0  0  0
  5 26  1  1  0  0  0
  6  4  1  0  0  0  0
  6  2  1  0  0  0  0
  6 10  1  0  0  0  0
  9  7  1  6  0  0  0
  9  3  1  0  0  0  0
  9 11  1  0  0  0  0
 11  1  1  0  0  0  0
 12 22  1  0  0  0  0
 12  5  1  0  0  0  0
 13  6  1  0  0  0  0
 14 11  1  0  0  0  0
 14 13  1  0  0  0  0
 14  8  1  0  0  0  0
 15 16  2  0  0  0  0
 16 13  1  0  0  0  0
 16 17  1  0  0  0  0
 19 20  1  0  0  0  0
 20 17  1  0  0  0  0
 20 18  2  0  0  0  0
 21 15  1  0  0  0  0
 21 19  2  0  0  0  0
 22 25  1  0  0  0  0
 23 22  1  0  0  0  0
 24 22  1  0  0  0  0
 26 31  1  0  0  0  0
 27 28  1  0  0  0  0
 28 32  1  0  0  0  0
 29 30  1  0  0  0  0
 30 28  1  0  0  0  0
 30 34  1  0  0  0  0
 31 29  1  0  0  0  0
 31 27  1  0  0  0  0
 32 33  3  0  0  0  0
 34 35  1  0  0  0  0
 35 37  1  0  0  0  0
 36 35  2  0  0  0  0
M  END
>  <MODEL>
6

>  <REMARK>
 VINA RESULT:      -6.3      4.813      8.843
  Name = 
  7 active torsions:
  status: ('A' for Active; 'I' for Inactive)
    1  A    between atoms: C_3  and  C_30
    2  A    between atoms: C_5  and  C_12
    3  A    between atoms: C_6  and  C_31
    4  A    between atoms: C_11  and  C_26
    5  A    between atoms: C_13  and  C_20
    6  A    between atoms: C_20  and  C_36
    7  A    between atoms: C_26  and  C_33
                            x       y       z     vdW  Elec       q    Type
                         _______ _______ _______ _____ _____    ______ ____

>  <TORSDO>
F 7

$$$$
=
 OpenBabel10262422523D

 37 41  0  0  1  0  0  0  0  0999 V2000
  185.7390  178.2180  137.9570 C   0  0  2  0  0  3  0  0  0  0  0  0
  189.0870  176.7680  139.2480 C   0  0  0  0  0  2  0  0  0  0  0  0
  183.6470  176.3170  138.0130 C   0  0  0  0  0  3  0  0  0  0  0  0
  186.7020  177.6070  138.9940 C   0  0  0  0  0  2  0  0  0  0  0  0
  184.3850  178.6270  138.5700 C   0  0  1  0  0  3  0  0  0  0  0  0
  187.9950  177.2200  138.3080 C   0  0  0  0  0  0  0  0  0  0  0  0
  184.5350  175.2060  136.0180 C   0  0  0  0  0  1  0  0  0  0  0  0
  187.2530  178.3560  135.3650 C   0  0  0  0  0  1  0  0  0  0  0  0
  184.9010  176.0670  137.2180 C   0  0  1  0  0  3  0  0  0  0  0  0
  189.1780  178.1280  138.5560 C   0  0  0  0  0  2  0  0  0  0  0  0
  185.5230  177.3340  136.7900 N   0  0  2  0  0  0  0  0  0  0  0  0
  183.4130  177.4620  138.6800 C   0  0  0  0  0  0  0  0  0  0  0  0
  187.8730  176.4660  136.9790 C   0  0  1  0  0  3  0  0  0  0  0  0
  186.7900  177.0850  136.0690 C   0  0  2  0  0  3  0  0  0  0  0  0
  189.7290  176.8590  135.3820 C   0  0  0  0  0  3  0  0  0  0  0  0
  189.1440  176.0550  136.2800 C   0  0  0  0  0  0  0  0  0  0  0  0
  189.7260  174.7110  136.6330 C   0  0  0  0  0  2  0  0  0  0  0  0
  191.5860  173.3110  136.1010 O   0  0  0  0  0  0  0  0  0  0  0  0
  191.5410  175.3300  134.9470 N   0  0  0  0  0  0  0  0  0  0  0  0
  190.9960  174.4020  135.8910 C   0  0  0  0  0  0  0  0  0  0  0  0
  190.9700  176.4690  134.6990 C   0  0  0  0  0  3  0  0  0  0  0  0
  182.0720  177.6160  139.3610 C   0  0  0  0  0  0  0  0  0  0  0  0
  181.0590  177.1800  138.5230 F   0  0  0  0  0  0  0  0  0  0  0  0
  182.0570  176.8570  140.5170 F   0  0  0  0  0  0  0  0  0  0  0  0
  181.8190  178.9360  139.6890 F   0  0  0  0  0  0  0  0  0  0  0  0
  184.5550  179.3780  139.8940 C   0  0  0  0  0  2  0  0  0  0  0  0
  184.0030  178.4240  142.1230 C   0  0  0  0  0  2  0  0  0  0  0  0
  184.8000  178.0980  143.3690 C   0  0  1  0  0  3  0  0  0  0  0  0
  186.3080  178.9260  141.6240 C   0  0  0  0  0  2  0  0  0  0  0  0
  186.2240  178.5610  143.0980 C   0  0  2  0  0  3  0  0  0  0  0  0
  185.0140  178.4420  141.0000 C   0  0  2  0  0  3  0  0  0  0  0  0
  184.2440  178.8120  144.5200 C   0  0  0  0  0  0  0  0  0  0  0  0
  183.8060  179.3780  145.4300 N   0  0  0  0  0  0  0  0  0  0  0  0
  187.2590  177.5020  143.4890 C   0  0  0  0  0  2  0  0  0  0  0  0
  187.9070  177.7660  144.8130 C   0  0  0  0  0  0  0  0  0  0  0  0
  187.2670  177.5660  145.8780 O   0  0  0  0  0  1  0  0  0  0  0  0
  189.2240  178.2030  144.8680 O   0  0  0  0  0  0  0  0  0  0  0  0
  1  5  1  0  0  0  0
  1  4  1  1  0  0  0
  3 12  2  0  0  0  0
  5 12  1  0  0  0  0
  5 26  1  1  0  0  0
  6 10  1  0  0  0  0
  6  4  1  0  0  0  0
  6  2  1  0  0  0  0
  8 14  1  0  0  0  0
  9  7  1  6  0  0  0
  9  3  1  0  0  0  0
 10  2  1  0  0  0  0
 11  9  1  0  0  0  0
 11  1  1  0  0  0  0
 12 22  1  0  0  0  0
 13  6  1  0  0  0  0
 14 11  1  0  0  0  0
 14 13  1  0  0  0  0
 15 16  2  0  0  0  0
 16 17  1  0  0  0  0
 16 13  1  0  0  0  0
 19 20  1  0  0  0  0
 20 18  2  0  0  0  0
 20 17  1  0  0  0  0
 21 19  2  0  0  0  0
 21 15  1  0  0  0  0
 22 25  1  0  0  0  0
 22 24  1  0  0  0  0
 23 22  1  0  0  0  0
 26 31  1  0  0  0  0
 27 28  1  0  0  0  0
 28 32  1  0  0  0  0
 29 30  1  0  0  0  0
 30 28  1  0  0  0  0
 30 34  1  0  0  0  0
 31 29  1  0  0  0  0
 31 27  1  0  0  0  0
 32 33  3  0  0  0  0
 34 35  1  0  0  0  0
 35 37  2  0  0  0  0
 35 36  1  0  0  0  0
M  END
>  <MODEL>
7

>  <REMARK>
 VINA RESULT:      -6.1      3.476      9.246
  Name = 
  7 active torsions:
  status: ('A' for Active; 'I' for Inactive)
    1  A    between atoms: C_3  and  C_30
    2  A    between atoms: C_5  and  C_12
    3  A    between atoms: C_6  and  C_31
    4  A    between atoms: C_11  and  C_26
    5  A    between atoms: C_13  and  C_20
    6  A    between atoms: C_20  and  C_36
    7  A    between atoms: C_26  and  C_33
                            x       y       z     vdW  Elec       q    Type
                         _______ _______ _______ _____ _____    ______ ____

>  <TORSDO>
F 7

$$$$
=
 OpenBabel10262422523D

 37 41  0  0  1  0  0  0  0  0999 V2000
  189.3940  177.2780  138.5050 C   0  0  2  0  0  3  0  0  0  0  0  0
  187.0420  174.6020  136.9920 C   0  0  0  0  0  2  0  0  0  0  0  0
  188.9790  177.6350  141.2780 C   0  0  0  0  0  3  0  0  0  0  0  0
  188.8080  175.8650  138.3120 C   0  0  0  0  0  2  0  0  0  0  0  0
  190.6190  177.2930  139.4390 C   0  0  1  0  0  3  0  0  0  0  0  0
  187.6040  175.9430  137.3980 C   0  0  0  0  0  0  0  0  0  0  0  0
  186.9340  178.9170  140.8600 C   0  0  0  0  0  1  0  0  0  0  0  0
  187.7940  179.1110  136.7410 C   0  0  0  0  0  1  0  0  0  0  0  0
  187.8620  177.8520  140.2930 C   0  0  1  0  0  3  0  0  0  0  0  0
  187.8090  175.4550  135.9830 C   0  0  0  0  0  2  0  0  0  0  0  0
  188.3840  178.2540  138.9730 N   0  0  2  0  0  0  0  0  0  0  0  0
  190.2360  177.3280  140.9110 C   0  0  0  0  0  0  0  0  0  0  0  0
  186.5900  177.0570  137.6850 C   0  0  1  0  0  3  0  0  0  0  0  0
  187.2880  178.3990  137.9920 C   0  0  2  0  0  3  0  0  0  0  0  0
  185.4860  177.1110  135.4660 C   0  0  0  0  0  3  0  0  0  0  0  0
  185.3730  177.1500  136.8000 C   0  0  0  0  0  0  0  0  0  0  0  0
  184.0330  177.2890  137.4750 C   0  0  0  0  0  2  0  0  0  0  0  0
  181.7120  177.4740  136.9440 O   0  0  0  0  0  0  0  0  0  0  0  0
  183.1130  177.3140  135.0930 N   0  0  0  0  0  0  0  0  0  0  0  0
  182.8870  177.3640  136.5060 C   0  0  0  0  0  0  0  0  0  0  0  0
  184.3050  177.1970  134.5950 C   0  0  0  0  0  3  0  0  0  0  0  0
  191.2810  177.2280  142.0000 C   0  0  0  0  0  0  0  0  0  0  0  0
  192.5450  177.1460  141.4410 F   0  0  0  0  0  0  0  0  0  0  0  0
  191.2150  178.3540  142.8000 F   0  0  0  0  0  0  0  0  0  0  0  0
  191.0870  176.1070  142.7870 F   0  0  0  0  0  0  0  0  0  0  0  0
  191.6040  176.1660  139.1150 C   0  0  0  0  0  2  0  0  0  0  0  0
  191.8980  174.8370  137.0330 C   0  0  0  0  0  2  0  0  0  0  0  0
  192.9320  174.8050  135.9270 C   0  0  1  0  0  3  0  0  0  0  0  0
  193.4900  176.5820  137.5210 C   0  0  0  0  0  2  0  0  0  0  0  0
  194.0120  175.8010  136.3240 C   0  0  2  0  0  3  0  0  0  0  0  0
  192.0260  176.2080  137.6560 C   0  0  2  0  0  3  0  0  0  0  0  0
  193.5000  173.4600  135.8130 C   0  0  0  0  0  0  0  0  0  0  0  0
  193.9490  172.3960  135.7230 N   0  0  0  0  0  0  0  0  0  0  0  0
  194.4020  176.7200  135.1630 C   0  0  0  0  0  2  0  0  0  0  0  0
  195.7210  177.4010  135.3610 C   0  0  0  0  0  0  0  0  0  0  0  0
  196.7290  176.7320  135.7030 O   0  0  0  0  0  1  0  0  0  0  0  0
  195.8380  178.7670  135.1410 O   0  0  0  0  0  0  0  0  0  0  0  0
  1  4  1  1  0  0  0
  1 11  1  0  0  0  0
  1  5  1  0  0  0  0
  2  6  1  0  0  0  0
  5 26  1  1  0  0  0
  5 12  1  0  0  0  0
  6 13  1  0  0  0  0
  6  4  1  0  0  0  0
  8 14  1  0  0  0  0
  9  7  1  1  0  0  0
  9  3  1  0  0  0  0
 10  2  1  0  0  0  0
 10  6  1  0  0  0  0
 11  9  1  0  0  0  0
 12  3  2  0  0  0  0
 12 22  1  0  0  0  0
 13 14  1  0  0  0  0
 14 11  1  0  0  0  0
 15 16  2  0  0  0  0
 16 17  1  0  0  0  0
 16 13  1  0  0  0  0
 19 20  1  0  0  0  0
 20 18  2  0  0  0  0
 20 17  1  0  0  0  0
 21 19  2  0  0  0  0
 21 15  1  0  0  0  0
 22 25  1  0  0  0  0
 22 24  1  0  0  0  0
 23 22  1  0  0  0  0
 27 31  1  0  0  0  0
 28 30  1  0  0  0  0
 28 27  1  0  0  0  0
 29 31  1  0  0  0  0
 30 29  1  0  0  0  0
 31 26  1  0  0  0  0
 32 28  1  0  0  0  0
 33 32  3  0  0  0  0
 34 35  1  0  0  0  0
 34 30  1  0  0  0  0
 35 36  1  0  0  0  0
 37 35  2  0  0  0  0
M  END
>  <MODEL>
8

>  <REMARK>
 VINA RESULT:      -6.1      4.098      6.861
  Name = 
  7 active torsions:
  status: ('A' for Active; 'I' for Inactive)
    1  A    between atoms: C_3  and  C_30
    2  A    between atoms: C_5  and  C_12
    3  A    between atoms: C_6  and  C_31
    4  A    between atoms: C_11  and  C_26
    5  A    between atoms: C_13  and  C_20
    6  A    between atoms: C_20  and  C_36
    7  A    between atoms: C_26  and  C_33
                            x       y       z     vdW  Elec       q    Type
                         _______ _______ _______ _____ _____    ______ ____

>  <TORSDO>
F 7

$$$$
=
 OpenBabel10262422523D

 37 41  0  0  1  0  0  0  0  0999 V2000
  188.9340  177.4310  141.3080 C   0  0  2  0  0  3  0  0  0  0  0  0
  191.1100  179.5550  143.7030 C   0  0  0  0  0  2  0  0  0  0  0  0
  186.3130  178.4550  141.0380 C   0  0  0  0  0  3  0  0  0  0  0  0
  189.6800  178.6920  141.7880 C   0  0  0  0  0  2  0  0  0  0  0  0
  188.3450  177.5890  139.8930 C   0  0  1  0  0  3  0  0  0  0  0  0
  190.2110  178.4580  143.1860 C   0  0  0  0  0  0  0  0  0  0  0  0
  185.6860  177.5680  143.2340 C   0  0  0  0  0  1  0  0  0  0  0  0
  189.2710  175.3690  143.4680 C   0  0  0  0  0  1  0  0  0  0  0  0
  186.8520  178.0490  142.3840 C   0  0  1  0  0  3  0  0  0  0  0  0
  191.6960  178.2020  143.3000 C   0  0  0  0  0  2  0  0  0  0  0  0
  187.8800  176.9990  142.2530 N   0  0  2  0  0  0  0  0  0  0  0  0
  186.9990  178.3000  139.8920 C   0  0  0  0  0  0  0  0  0  0  0  0
  189.2440  177.8250  144.1940 C   0  0  1  0  0  3  0  0  0  0  0  0
  188.4550  176.6540  143.5710 C   0  0  2  0  0  3  0  0  0  0  0  0
  190.8790  176.9250  145.8270 C   0  0  0  0  0  3  0  0  0  0  0  0
  189.7410  177.5930  145.5990 C   0  0  0  0  0  0  0  0  0  0  0  0
  188.9080  178.1420  146.7280 C   0  0  0  0  0  2  0  0  0  0  0  0
  188.8970  178.2790  149.1120 O   0  0  0  0  0  0  0  0  0  0  0  0
  190.7200  177.1390  148.2220 N   0  0  0  0  0  0  0  0  0  0  0  0
  189.4950  177.8660  148.0840 C   0  0  0  0  0  0  0  0  0  0  0  0
  191.3720  176.6970  147.1920 C   0  0  0  0  0  3  0  0  0  0  0  0
  186.3020  178.6640  138.6010 C   0  0  0  0  0  0  0  0  0  0  0  0
  185.9760  177.5180  137.8950 F   0  0  0  0  0  0  0  0  0  0  0  0
  185.1420  179.3590  138.8900 F   0  0  0  0  0  0  0  0  0  0  0  0
  187.1050  179.4500  137.7940 F   0  0  0  0  0  0  0  0  0  0  0  0
  189.3440  178.2230  138.9200 C   0  0  0  0  0  2  0  0  0  0  0  0
  188.7800  177.8010  136.5350 C   0  0  0  0  0  2  0  0  0  0  0  0
  188.5230  176.5610  135.7050 C   0  0  1  0  0  3  0  0  0  0  0  0
  189.1160  175.9090  137.9920 C   0  0  0  0  0  2  0  0  0  0  0  0
  188.5850  175.3830  136.6670 C   0  0  2  0  0  3  0  0  0  0  0  0
  189.5880  177.3230  137.7200 C   0  0  2  0  0  3  0  0  0  0  0  0
  187.1990  176.6410  135.0850 C   0  0  0  0  0  0  0  0  0  0  0  0
  186.1520  176.7040  134.5940 N   0  0  0  0  0  0  0  0  0  0  0  0
  189.4380  174.2360  136.1180 C   0  0  0  0  0  2  0  0  0  0  0  0
  188.6280  173.1290  135.5160 C   0  0  0  0  0  0  0  0  0  0  0  0
  187.5130  173.3790  134.9910 O   0  0  0  0  0  0  0  0  0  0  0  0
  189.1210  171.8310  135.5120 O   0  0  0  0  0  1  0  0  0  0  0  0
  1  4  1  1  0  0  0
  1 11  1  0  0  0  0
  3  9  1  0  0  0  0
  4  6  1  0  0  0  0
  5 26  1  6  0  0  0
  5  1  1  0  0  0  0
  6 10  1  0  0  0  0
  6  2  1  0  0  0  0
  6 13  1  0  0  0  0
  8 14  1  0  0  0  0
  9  7  1  1  0  0  0
 10  2  1  0  0  0  0
 11  9  1  0  0  0  0
 11 14  1  0  0  0  0
 12  5  1  0  0  0  0
 12  3  2  0  0  0  0
 13 16  1  0  0  0  0
 14 13  1  0  0  0  0
 15 21  1  0  0  0  0
 16 15  2  0  0  0  0
 16 17  1  0  0  0  0
 17 20  1  0  0  0  0
 20 19  1  0  0  0  0
 20 18  2  0  0  0  0
 21 19  2  0  0  0  0
 22 24  1  0  0  0  0
 22 12  1  0  0  0  0
 23 22  1  0  0  0  0
 25 22  1  0  0  0  0
 27 31  1  0  0  0  0
 28 27  1  0  0  0  0
 28 30  1  0  0  0  0
 30 29  1  0  0  0  0
 31 29  1  0  0  0  0
 31 26  1  0  0  0  0
 32 28  1  0  0  0  0
 33 32  3  0  0  0  0
 34 30  1  0  0  0  0
 35 34  1  0  0  0  0
 36 35  2  0  0  0  0
 37 35  1  0  0  0  0
M  END
>  <MODEL>
9

>  <REMARK>
 VINA RESULT:      -6.1      2.770      3.222
  Name = 
  7 active torsions:
  status: ('A' for Active; 'I' for Inactive)
    1  A    between atoms: C_3  and  C_30
    2  A    between atoms: C_5  and  C_12
    3  A    between atoms: C_6  and  C_31
    4  A    between atoms: C_11  and  C_26
    5  A    between atoms: C_13  and  C_20
    6  A    between atoms: C_20  and  C_36
    7  A    between atoms: C_26  and  C_33
                            x       y       z     vdW  Elec       q    Type
                         _______ _______ _______ _____ _____    ______ ____

>  <TORSDO>
F 7

$$$$
