=
 OpenBabel10262419533D

 25 28  0  0  0  0  0  0  0  0999 V2000
  187.2100  178.0170  145.5010 N   0  0  0  0  0  0  0  0  0  0  0  0
  188.4740  177.7060  145.0930 C   0  0  0  0  0  0  0  0  0  0  0  0
  187.8380  177.9360  147.7930 C   0  0  0  0  0  3  0  0  0  0  0  0
  186.0800  178.2650  144.8150 C   0  0  0  0  0  0  0  0  0  0  0  0
  190.1170  177.2670  143.3590 C   0  0  0  0  0  0  0  0  0  0  0  0
  183.5400  178.8370  143.8640 C   0  0  0  0  0  3  0  0  0  0  0  0
  189.1070  177.6250  147.4060 N   0  0  0  0  0  0  0  0  0  0  0  0
  185.0550  178.5330  145.6950 C   0  0  0  0  0  0  0  0  0  0  0  0
  183.7680  178.8250  145.2520 C   0  0  0  0  0  3  0  0  0  0  0  0
  188.8100  177.5870  143.7410 C   0  0  0  0  0  3  0  0  0  0  0  0
  184.5890  178.5630  142.9610 C   0  0  0  0  0  3  0  0  0  0  0  0
  186.8800  178.1330  146.8050 C   0  0  0  0  0  0  0  0  0  0  0  0
  185.5380  178.4570  146.9930 C   0  0  0  0  0  3  0  0  0  0  0  0
  190.7890  177.1770  145.7060 C   0  0  0  0  0  0  0  0  0  0  0  0
  185.8800  178.2710  143.4330 C   0  0  0  0  0  3  0  0  0  0  0  0
  191.0900  177.0660  144.3440 C   0  0  0  0  0  3  0  0  0  0  0  0
  189.4630  177.5010  146.0910 C   0  0  0  0  0  0  0  0  0  0  0  0
  192.2890  177.2520  140.1600 C   0  0  0  0  0  0  0  0  0  0  0  0
  193.6330  177.4690  139.8880 O   0  0  0  0  0  1  0  0  0  0  0  0
  191.5020  176.9770  139.2160 O   0  0  0  0  0  0  0  0  0  0  0  0
  190.4660  177.1430  141.9320 C   0  0  0  0  0  0  0  0  0  0  0  0
  191.8210  177.3430  141.5100 N   0  0  0  0  0  2  0  0  0  0  0  0
  189.5700  176.8610  141.0890 O   0  0  0  0  0  0  0  0  0  0  0  0
  191.8400  176.9540  146.6090 O   0  0  0  0  0  0  0  0  0  0  0  0
  192.1810  175.6970  147.1760 C   0  0  0  0  0  1  0  0  0  0  0  0
  1 12  1  0  0  0  0
  2  1  1  0  0  0  0
  2 17  1  0  0  0  0
  4  1  1  0  0  0  0
  4  8  1  0  0  0  0
  5 10  1  0  0  0  0
  5 16  2  0  0  0  0
  6  9  1  0  0  0  0
  7  3  2  0  0  0  0
  8 13  1  0  0  0  0
  9  8  2  0  0  0  0
 10  2  2  0  0  0  0
 11 15  1  0  0  0  0
 11  6  2  0  0  0  0
 12 13  2  0  0  0  0
 12  3  1  0  0  0  0
 14 17  2  0  0  0  0
 14 24  1  0  0  0  0
 15  4  2  0  0  0  0
 16 14  1  0  0  0  0
 17  7  1  0  0  0  0
 18 22  1  0  0  0  0
 19 18  1  0  0  0  0
 20 18  2  0  0  0  0
 21  5  1  0  0  0  0
 22 21  1  0  0  0  0
 23 21  2  0  0  0  0
 24 25  1  0  0  0  0
M  END
>  <MODEL>
1

>  <REMARK>
 VINA RESULT:     -11.1      0.000      0.000
  Name = 
  2 active torsions:
  status: ('A' for Active; 'I' for Inactive)
    1  A    between atoms: C_6  and  C_15
    2  A    between atoms: O_13  and  C_20
                            x       y       z     vdW  Elec       q    Type
                         _______ _______ _______ _____ _____    ______ ____

>  <TORSDO>
F 2

$$$$
=
 OpenBabel10262419533D

 25 28  0  0  0  0  0  0  0  0999 V2000
  187.2400  178.0190  145.6670 N   0  0  0  0  0  0  0  0  0  0  0  0
  188.5330  177.7050  145.3660 C   0  0  0  0  0  0  0  0  0  0  0  0
  187.6750  177.9400  148.0030 C   0  0  0  0  0  3  0  0  0  0  0  0
  186.1710  178.2670  144.8890 C   0  0  0  0  0  0  0  0  0  0  0  0
  190.3140  177.2610  143.7750 C   0  0  0  0  0  0  0  0  0  0  0  0
  183.7200  178.8430  143.7300 C   0  0  0  0  0  3  0  0  0  0  0  0
  188.9710  177.6270  147.7240 N   0  0  0  0  0  0  0  0  0  0  0  0
  185.0780  178.5390  145.6810 C   0  0  0  0  0  0  0  0  0  0  0  0
  183.8320  178.8320  145.1310 C   0  0  0  0  0  3  0  0  0  0  0  0
  188.9800  177.5840  144.0470 C   0  0  0  0  0  3  0  0  0  0  0  0
  184.8400  178.5650  142.9170 C   0  0  0  0  0  3  0  0  0  0  0  0
  186.8030  178.1380  146.9400 C   0  0  0  0  0  0  0  0  0  0  0  0
  185.4510  178.4640  147.0150 C   0  0  0  0  0  3  0  0  0  0  0  0
  190.7880  177.1730  146.1700 C   0  0  0  0  0  0  0  0  0  0  0  0
  186.0870  178.2720  143.4950 C   0  0  0  0  0  3  0  0  0  0  0  0
  191.2010  177.0600  144.8390 C   0  0  0  0  0  3  0  0  0  0  0  0
  189.4350  177.5010  146.4430 C   0  0  0  0  0  0  0  0  0  0  0  0
  190.1450  176.9040  139.9280 C   0  0  0  0  0  0  0  0  0  0  0  0
  189.1190  176.8140  138.9970 O   0  0  0  0  0  0  0  0  0  0  0  0
  191.3420  176.8730  139.5380 O   0  0  0  0  0  1  0  0  0  0  0  0
  190.7800  177.1340  142.3820 C   0  0  0  0  0  0  0  0  0  0  0  0
  189.8240  177.0310  141.3180 N   0  0  0  0  0  2  0  0  0  0  0  0
  192.0170  177.1160  142.1340 O   0  0  0  0  0  0  0  0  0  0  0  0
  191.7600  176.9510  147.1570 O   0  0  0  0  0  0  0  0  0  0  0  0
  192.3220  175.6870  147.4840 C   0  0  0  0  0  1  0  0  0  0  0  0
  1 12  1  0  0  0  0
  2  1  1  0  0  0  0
  2 17  1  0  0  0  0
  4  1  1  0  0  0  0
  4  8  1  0  0  0  0
  5 10  1  0  0  0  0
  5 16  2  0  0  0  0
  6  9  1  0  0  0  0
  7  3  2  0  0  0  0
  8 13  1  0  0  0  0
  9  8  2  0  0  0  0
 10  2  2  0  0  0  0
 11 15  1  0  0  0  0
 11  6  2  0  0  0  0
 12 13  2  0  0  0  0
 12  3  1  0  0  0  0
 14 17  2  0  0  0  0
 14 24  1  0  0  0  0
 15  4  2  0  0  0  0
 16 14  1  0  0  0  0
 17  7  1  0  0  0  0
 18 22  1  0  0  0  0
 19 18  2  0  0  0  0
 20 18  1  0  0  0  0
 21  5  1  0  0  0  0
 22 21  1  0  0  0  0
 23 21  2  0  0  0  0
 24 25  1  0  0  0  0
M  END
>  <MODEL>
2

>  <REMARK>
 VINA RESULT:     -11.1      0.945      1.264
  Name = 
  2 active torsions:
  status: ('A' for Active; 'I' for Inactive)
    1  A    between atoms: C_6  and  C_15
    2  A    between atoms: O_13  and  C_20
                            x       y       z     vdW  Elec       q    Type
                         _______ _______ _______ _____ _____    ______ ____

>  <TORSDO>
F 2

$$$$
=
 OpenBabel10262419533D

 25 28  0  0  0  0  0  0  0  0999 V2000
  187.3920  177.9290  145.6940 N   0  0  0  0  0  0  0  0  0  0  0  0
  186.5590  178.2730  144.6690 C   0  0  0  0  0  0  0  0  0  0  0  0
  185.6900  178.2930  147.3130 C   0  0  0  0  0  3  0  0  0  0  0  0
  188.6790  177.5390  145.7130 C   0  0  0  0  0  0  0  0  0  0  0  0
  186.0990  178.6270  142.3110 C   0  0  0  0  0  0  0  0  0  0  0  0
  191.2670  176.7100  146.2600 C   0  0  0  0  0  3  0  0  0  0  0  0
  184.8420  178.6400  146.3050 N   0  0  0  0  0  0  0  0  0  0  0  0
  189.0700  177.3020  147.0120 C   0  0  0  0  0  0  0  0  0  0  0  0
  190.3620  176.8850  147.3220 C   0  0  0  0  0  3  0  0  0  0  0  0
  186.9800  178.2670  143.3360 C   0  0  0  0  0  3  0  0  0  0  0  0
  190.8680  176.9510  144.9280 C   0  0  0  0  0  3  0  0  0  0  0  0
  186.9910  177.9320  146.9840 C   0  0  0  0  0  0  0  0  0  0  0  0
  188.0010  177.5470  147.8610 C   0  0  0  0  0  3  0  0  0  0  0  0
  184.3320  179.0090  143.9550 C   0  0  0  0  0  0  0  0  0  0  0  0
  189.5580  177.3730  144.6410 C   0  0  0  0  0  3  0  0  0  0  0  0
  184.7860  178.9920  142.6320 C   0  0  0  0  0  3  0  0  0  0  0  0
  185.2280  178.6450  144.9920 C   0  0  0  0  0  0  0  0  0  0  0  0
  188.4750  178.2740  139.2810 C   0  0  0  0  0  0  0  0  0  0  0  0
  189.8180  177.9630  139.1210 O   0  0  0  0  0  1  0  0  0  0  0  0
  187.7690  178.5150  138.2670 O   0  0  0  0  0  0  0  0  0  0  0  0
  186.5480  178.6200  140.9070 C   0  0  0  0  0  0  0  0  0  0  0  0
  187.9150  178.3150  140.5980 N   0  0  0  0  0  2  0  0  0  0  0  0
  185.7280  178.8820  139.9850 O   0  0  0  0  0  0  0  0  0  0  0  0
  182.9980  179.3920  144.1630 O   0  0  0  0  0  0  0  0  0  0  0  0
  181.9010  179.0180  143.3410 C   0  0  0  0  0  1  0  0  0  0  0  0
  1  4  1  0  0  0  0
  1 12  1  0  0  0  0
  2 17  1  0  0  0  0
  2  1  1  0  0  0  0
  4  8  1  0  0  0  0
  5 16  2  0  0  0  0
  5 10  1  0  0  0  0
  6  9  1  0  0  0  0
  7  3  2  0  0  0  0
  8  9  2  0  0  0  0
  8 13  1  0  0  0  0
 10  2  2  0  0  0  0
 11  6  2  0  0  0  0
 12  3  1  0  0  0  0
 12 13  2  0  0  0  0
 14 24  1  0  0  0  0
 14 17  2  0  0  0  0
 15 11  1  0  0  0  0
 15  4  2  0  0  0  0
 16 14  1  0  0  0  0
 17  7  1  0  0  0  0
 18 22  1  0  0  0  0
 19 18  1  0  0  0  0
 20 18  2  0  0  0  0
 21  5  1  0  0  0  0
 22 21  1  0  0  0  0
 23 21  2  0  0  0  0
 25 24  1  0  0  0  0
M  END
>  <MODEL>
3

>  <REMARK>
 VINA RESULT:     -10.3      2.486      5.337
  Name = 
  2 active torsions:
  status: ('A' for Active; 'I' for Inactive)
    1  A    between atoms: C_6  and  C_15
    2  A    between atoms: O_13  and  C_20
                            x       y       z     vdW  Elec       q    Type
                         _______ _______ _______ _____ _____    ______ ____

>  <TORSDO>
F 2

$$$$
=
 OpenBabel10262419533D

 25 28  0  0  0  0  0  0  0  0999 V2000
  187.0040  178.0850  142.9100 N   0  0  0  0  0  0  0  0  0  0  0  0
  188.2620  177.6290  142.6480 C   0  0  0  0  0  0  0  0  0  0  0  0
  186.6440  178.6590  140.6310 C   0  0  0  0  0  3  0  0  0  0  0  0
  186.2930  178.1560  144.0500 C   0  0  0  0  0  0  0  0  0  0  0  0
  190.3720  176.6480  143.3440 C   0  0  0  0  0  0  0  0  0  0  0  0
  184.4640  178.5060  146.1030 C   0  0  0  0  0  3  0  0  0  0  0  0
  187.8980  178.2080  140.3480 N   0  0  0  0  0  0  0  0  0  0  0  0
  185.0560  178.7030  143.7890 C   0  0  0  0  0  0  0  0  0  0  0  0
  184.1140  178.8930  144.7970 C   0  0  0  0  0  3  0  0  0  0  0  0
  189.0870  177.1070  143.6490 C   0  0  0  0  0  3  0  0  0  0  0  0
  185.7300  177.9450  146.3710 C   0  0  0  0  0  3  0  0  0  0  0  0
  186.2020  178.5900  141.9470 C   0  0  0  0  0  0  0  0  0  0  0  0
  184.9630  178.9960  142.4370 C   0  0  0  0  0  3  0  0  0  0  0  0
  190.0290  177.2280  140.9950 C   0  0  0  0  0  0  0  0  0  0  0  0
  186.6650  177.7640  145.3380 C   0  0  0  0  0  3  0  0  0  0  0  0
  190.8280  176.7130  142.0220 C   0  0  0  0  0  3  0  0  0  0  0  0
  188.7270  177.6940  141.3080 C   0  0  0  0  0  0  0  0  0  0  0  0
  192.0110  176.2500  146.8240 C   0  0  0  0  0  0  0  0  0  0  0  0
  191.8980  176.9090  148.0400 O   0  0  0  0  0  1  0  0  0  0  0  0
  192.8040  175.2780  146.7160 O   0  0  0  0  0  0  0  0  0  0  0  0
  191.2380  176.0990  144.4030 C   0  0  0  0  0  0  0  0  0  0  0  0
  191.2220  176.6870  145.7110 N   0  0  0  0  0  2  0  0  0  0  0  0
  191.9880  175.1160  144.1540 O   0  0  0  0  0  0  0  0  0  0  0  0
  190.5860  177.2470  139.7070 O   0  0  0  0  0  0  0  0  0  0  0  0
  190.4170  176.2330  138.7270 C   0  0  0  0  0  1  0  0  0  0  0  0
  1  4  1  0  0  0  0
  2  1  1  0  0  0  0
  2 10  1  0  0  0  0
  3 12  1  0  0  0  0
  4 15  1  0  0  0  0
  5 10  2  0  0  0  0
  5 21  1  0  0  0  0
  6 11  1  0  0  0  0
  7  3  2  0  0  0  0
  7 17  1  0  0  0  0
  8  4  2  0  0  0  0
  8  9  1  0  0  0  0
  9  6  2  0  0  0  0
 12 13  2  0  0  0  0
 12  1  1  0  0  0  0
 13  8  1  0  0  0  0
 14 17  1  0  0  0  0
 14 16  2  0  0  0  0
 15 11  2  0  0  0  0
 16  5  1  0  0  0  0
 17  2  2  0  0  0  0
 18 19  1  0  0  0  0
 20 18  2  0  0  0  0
 21 22  1  0  0  0  0
 22 18  1  0  0  0  0
 23 21  2  0  0  0  0
 24 14  1  0  0  0  0
 25 24  1  0  0  0  0
M  END
>  <MODEL>
4

>  <REMARK>
 VINA RESULT:      -9.9      1.802      4.854
  Name = 
  2 active torsions:
  status: ('A' for Active; 'I' for Inactive)
    1  A    between atoms: C_6  and  C_15
    2  A    between atoms: O_13  and  C_20
                            x       y       z     vdW  Elec       q    Type
                         _______ _______ _______ _____ _____    ______ ____

>  <TORSDO>
F 2

$$$$
=
 OpenBabel10262419533D

 25 28  0  0  0  0  0  0  0  0999 V2000
  187.9310  177.6800  145.3400 N   0  0  0  0  0  0  0  0  0  0  0  0
  187.2670  177.9780  144.1860 C   0  0  0  0  0  0  0  0  0  0  0  0
  185.9870  178.0550  146.6560 C   0  0  0  0  0  3  0  0  0  0  0  0
  189.2050  177.3180  145.5760 C   0  0  0  0  0  0  0  0  0  0  0  0
  187.1830  178.2550  141.7750 C   0  0  0  0  0  0  0  0  0  0  0  0
  191.6850  176.5600  146.5520 C   0  0  0  0  0  3  0  0  0  0  0  0
  185.3050  178.3550  145.5150 N   0  0  0  0  0  0  0  0  0  0  0  0
  189.3880  177.1270  146.9270 C   0  0  0  0  0  0  0  0  0  0  0  0
  190.6200  176.7460  147.4510 C   0  0  0  0  0  3  0  0  0  0  0  0
  187.8950  177.9440  142.9370 C   0  0  0  0  0  3  0  0  0  0  0  0
  191.5000  176.7550  145.1670 C   0  0  0  0  0  3  0  0  0  0  0  0
  187.3290  177.7120  146.5490 C   0  0  0  0  0  0  0  0  0  0  0  0
  188.1930  177.3730  147.5880 C   0  0  0  0  0  3  0  0  0  0  0  0
  185.1700  178.6460  143.1040 C   0  0  0  0  0  0  0  0  0  0  0  0
  190.2460  177.1400  144.6620 C   0  0  0  0  0  3  0  0  0  0  0  0
  185.8300  178.6020  141.8710 C   0  0  0  0  0  3  0  0  0  0  0  0
  185.8950  178.3310  144.2810 C   0  0  0  0  0  0  0  0  0  0  0  0
  189.9440  177.6220  139.1430 C   0  0  0  0  0  0  0  0  0  0  0  0
  191.2340  177.1100  139.1810 O   0  0  0  0  0  1  0  0  0  0  0  0
  189.4590  177.9990  138.0440 O   0  0  0  0  0  0  0  0  0  0  0  0
  187.8500  178.2180  140.4610 C   0  0  0  0  0  0  0  0  0  0  0  0
  189.1880  177.7120  140.3550 N   0  0  0  0  0  2  0  0  0  0  0  0
  187.2410  178.6310  139.4360 O   0  0  0  0  0  0  0  0  0  0  0  0
  183.8140  179.0070  143.0850 O   0  0  0  0  0  0  0  0  0  0  0  0
  182.8790  178.6280  142.0850 C   0  0  0  0  0  1  0  0  0  0  0  0
  1  4  1  0  0  0  0
  1 12  1  0  0  0  0
  2 17  1  0  0  0  0
  2  1  1  0  0  0  0
  4  8  1  0  0  0  0
  5 16  2  0  0  0  0
  5 10  1  0  0  0  0
  6  9  1  0  0  0  0
  7  3  2  0  0  0  0
  8  9  2  0  0  0  0
  8 13  1  0  0  0  0
 10  2  2  0  0  0  0
 11  6  2  0  0  0  0
 12  3  1  0  0  0  0
 12 13  2  0  0  0  0
 14 17  2  0  0  0  0
 15 11  1  0  0  0  0
 15  4  2  0  0  0  0
 16 14  1  0  0  0  0
 17  7  1  0  0  0  0
 18 19  1  0  0  0  0
 18 22  1  0  0  0  0
 20 18  2  0  0  0  0
 21  5  1  0  0  0  0
 22 21  1  0  0  0  0
 23 21  2  0  0  0  0
 24 14  1  0  0  0  0
 25 24  1  0  0  0  0
M  END
>  <MODEL>
5

>  <REMARK>
 VINA RESULT:      -9.8      2.182      5.060
  Name = 
  2 active torsions:
  status: ('A' for Active; 'I' for Inactive)
    1  A    between atoms: C_6  and  C_15
    2  A    between atoms: O_13  and  C_20
                            x       y       z     vdW  Elec       q    Type
                         _______ _______ _______ _____ _____    ______ ____

>  <TORSDO>
F 2

$$$$
=
 OpenBabel10262419533D

 25 28  0  0  0  0  0  0  0  0999 V2000
  187.3100  177.9330  145.6120 N   0  0  0  0  0  0  0  0  0  0  0  0
  186.3890  178.2630  144.6610 C   0  0  0  0  0  0  0  0  0  0  0  0
  185.7400  178.2620  147.3670 C   0  0  0  0  0  3  0  0  0  0  0  0
  188.6020  177.5690  145.5250 C   0  0  0  0  0  0  0  0  0  0  0  0
  185.7300  178.6100  142.3490 C   0  0  0  0  0  0  0  0  0  0  0  0
  191.2420  176.7910  145.8560 C   0  0  0  0  0  3  0  0  0  0  0  0
  184.8050  178.5930  146.4330 N   0  0  0  0  0  0  0  0  0  0  0  0
  189.1030  177.3390  146.7870 C   0  0  0  0  0  0  0  0  0  0  0  0
  190.4240  176.9470  146.9890 C   0  0  0  0  0  3  0  0  0  0  0  0
  186.7000  178.2670  143.2980 C   0  0  0  0  0  3  0  0  0  0  0  0
  190.7300  177.0270  144.5620 C   0  0  0  0  0  3  0  0  0  0  0  0
  187.0160  177.9270  146.9310 C   0  0  0  0  0  0  0  0  0  0  0  0
  188.1030  177.5610  147.7220 C   0  0  0  0  0  3  0  0  0  0  0  0
  184.0970  178.9540  144.1330 C   0  0  0  0  0  0  0  0  0  0  0  0
  189.3930  177.4220  144.3840 C   0  0  0  0  0  3  0  0  0  0  0  0
  184.4410  178.9480  142.7780 C   0  0  0  0  0  3  0  0  0  0  0  0
  185.0820  178.6070  145.0930 C   0  0  0  0  0  0  0  0  0  0  0  0
  185.2160  178.3940  138.5230 C   0  0  0  0  0  0  0  0  0  0  0  0
  184.1240  178.1900  137.6920 O   0  0  0  0  0  0  0  0  0  0  0  0
  186.3580  178.5600  138.0180 O   0  0  0  0  0  1  0  0  0  0  0  0
  186.0620  178.6130  140.9130 C   0  0  0  0  0  0  0  0  0  0  0  0
  185.0270  178.4130  139.9420 N   0  0  0  0  0  2  0  0  0  0  0  0
  187.2560  178.7920  140.5460 O   0  0  0  0  0  0  0  0  0  0  0  0
  182.7770  179.3100  144.4510 O   0  0  0  0  0  0  0  0  0  0  0  0
  181.6250  178.9260  143.7140 C   0  0  0  0  0  1  0  0  0  0  0  0
  1 12  1  0  0  0  0
  2 17  1  0  0  0  0
  2  1  1  0  0  0  0
  4  1  1  0  0  0  0
  4  8  1  0  0  0  0
  5 16  2  0  0  0  0
  5 10  1  0  0  0  0
  6  9  1  0  0  0  0
  7  3  2  0  0  0  0
  8  9  2  0  0  0  0
  8 13  1  0  0  0  0
 10  2  2  0  0  0  0
 11  6  2  0  0  0  0
 12  3  1  0  0  0  0
 12 13  2  0  0  0  0
 14 24  1  0  0  0  0
 14 17  2  0  0  0  0
 15 11  1  0  0  0  0
 15  4  2  0  0  0  0
 16 14  1  0  0  0  0
 17  7  1  0  0  0  0
 18 22  1  0  0  0  0
 19 18  2  0  0  0  0
 20 18  1  0  0  0  0
 21  5  1  0  0  0  0
 22 21  1  0  0  0  0
 23 21  2  0  0  0  0
 25 24  1  0  0  0  0
M  END
>  <MODEL>
6

>  <REMARK>
 VINA RESULT:      -9.7      2.971      5.921
  Name = 
  2 active torsions:
  status: ('A' for Active; 'I' for Inactive)
    1  A    between atoms: C_6  and  C_15
    2  A    between atoms: O_13  and  C_20
                            x       y       z     vdW  Elec       q    Type
                         _______ _______ _______ _____ _____    ______ ____

>  <TORSDO>
F 2

$$$$
=
 OpenBabel10262419533D

 25 28  0  0  0  0  0  0  0  0999 V2000
  186.0580  178.3820  144.8050 N   0  0  0  0  0  0  0  0  0  0  0  0
  185.9580  178.4580  143.4470 C   0  0  0  0  0  0  0  0  0  0  0  0
  183.7670  178.9500  145.0920 C   0  0  0  0  0  3  0  0  0  0  0  0
  187.0920  178.0900  145.6150 C   0  0  0  0  0  0  0  0  0  0  0  0
  186.9090  178.3010  141.2180 C   0  0  0  0  0  0  0  0  0  0  0  0
  188.8850  177.5610  147.6620 C   0  0  0  0  0  3  0  0  0  0  0  0
  183.6460  179.0310  143.7370 N   0  0  0  0  0  0  0  0  0  0  0  0
  186.6800  178.1450  146.9280 C   0  0  0  0  0  0  0  0  0  0  0  0
  187.5540  177.8850  147.9810 C   0  0  0  0  0  3  0  0  0  0  0  0
  187.0490  178.2130  142.6070 C   0  0  0  0  0  3  0  0  0  0  0  0
  189.3090  177.5040  146.3170 C   0  0  0  0  0  3  0  0  0  0  0  0
  185.0080  178.6170  145.6220 C   0  0  0  0  0  0  0  0  0  0  0  0
  185.3350  178.4830  146.9700 C   0  0  0  0  0  3  0  0  0  0  0  0
  184.5520  178.8860  141.4840 C   0  0  0  0  0  0  0  0  0  0  0  0
  188.4080  177.7710  145.2730 C   0  0  0  0  0  3  0  0  0  0  0  0
  185.6640  178.6350  140.6730 C   0  0  0  0  0  3  0  0  0  0  0  0
  184.6960  178.7980  142.8920 C   0  0  0  0  0  0  0  0  0  0  0  0
  189.1630  178.4560  138.0790 C   0  0  0  0  0  0  0  0  0  0  0  0
  189.0790  179.0830  136.8440 O   0  0  0  0  0  0  0  0  0  0  0  0
  190.1680  177.7470  138.3480 O   0  0  0  0  0  1  0  0  0  0  0  0
  188.0620  178.0420  140.3370 C   0  0  0  0  0  0  0  0  0  0  0  0
  188.1050  178.6280  139.0290 N   0  0  0  0  0  2  0  0  0  0  0  0
  189.0050  177.3060  140.7380 O   0  0  0  0  0  0  0  0  0  0  0  0
  183.3530  179.2140  140.8330 O   0  0  0  0  0  0  0  0  0  0  0  0
  183.2010  179.3790  139.4300 C   0  0  0  0  0  1  0  0  0  0  0  0
  1  4  1  0  0  0  0
  1 12  1  0  0  0  0
  2  1  1  0  0  0  0
  3 12  1  0  0  0  0
  4  8  1  0  0  0  0
  5 10  1  0  0  0  0
  6  9  1  0  0  0  0
  7  3  2  0  0  0  0
  8 13  1  0  0  0  0
  8  9  2  0  0  0  0
 10  2  2  0  0  0  0
 11  6  2  0  0  0  0
 12 13  2  0  0  0  0
 14 17  2  0  0  0  0
 15  4  2  0  0  0  0
 15 11  1  0  0  0  0
 16  5  2  0  0  0  0
 16 14  1  0  0  0  0
 17  2  1  0  0  0  0
 17  7  1  0  0  0  0
 18 20  1  0  0  0  0
 18 22  1  0  0  0  0
 19 18  2  0  0  0  0
 21 23  2  0  0  0  0
 21  5  1  0  0  0  0
 22 21  1  0  0  0  0
 24 14  1  0  0  0  0
 25 24  1  0  0  0  0
M  END
>  <MODEL>
7

>  <REMARK>
 VINA RESULT:      -9.7      2.561      5.339
  Name = 
  2 active torsions:
  status: ('A' for Active; 'I' for Inactive)
    1  A    between atoms: C_6  and  C_15
    2  A    between atoms: O_13  and  C_20
                            x       y       z     vdW  Elec       q    Type
                         _______ _______ _______ _____ _____    ______ ____

>  <TORSDO>
F 2

$$$$
=
 OpenBabel10262419533D

 25 28  0  0  0  0  0  0  0  0999 V2000
  188.7970  177.4900  143.9290 N   0  0  0  0  0  0  0  0  0  0  0  0
  188.9450  177.6190  142.5790 C   0  0  0  0  0  0  0  0  0  0  0  0
  186.5220  178.1730  143.8310 C   0  0  0  0  0  3  0  0  0  0  0  0
  189.6540  177.1140  144.8950 C   0  0  0  0  0  0  0  0  0  0  0  0
  190.2710  177.4870  140.5490 C   0  0  0  0  0  0  0  0  0  0  0  0
  191.0240  176.4160  147.2010 C   0  0  0  0  0  3  0  0  0  0  0  0
  186.6490  178.3080  142.4810 N   0  0  0  0  0  0  0  0  0  0  0  0
  189.0170  177.1460  146.1150 C   0  0  0  0  0  0  0  0  0  0  0  0
  189.6750  176.8010  147.2940 C   0  0  0  0  0  3  0  0  0  0  0  0
  190.1550  177.3440  141.9350 C   0  0  0  0  0  3  0  0  0  0  0  0
  191.6780  176.3820  145.9520 C   0  0  0  0  0  3  0  0  0  0  0  0
  187.6300  177.7540  144.5570 C   0  0  0  0  0  0  0  0  0  0  0  0
  187.7040  177.5560  145.9340 C   0  0  0  0  0  3  0  0  0  0  0  0
  187.9350  178.1920  140.4200 C   0  0  0  0  0  0  0  0  0  0  0  0
  190.9930  176.7350  144.7770 C   0  0  0  0  0  3  0  0  0  0  0  0
  189.1610  177.9090  139.8070 C   0  0  0  0  0  3  0  0  0  0  0  0
  187.8210  178.0470  141.8250 C   0  0  0  0  0  0  0  0  0  0  0  0
  192.7150  176.2320  137.8280 C   0  0  0  0  0  0  0  0  0  0  0  0
  192.5730  175.6230  136.5890 O   0  0  0  0  0  0  0  0  0  0  0  0
  193.8690  176.4810  138.2670 O   0  0  0  0  0  1  0  0  0  0  0  0
  191.5490  177.1960  139.8740 C   0  0  0  0  0  0  0  0  0  0  0  0
  191.5480  176.5670  138.5860 N   0  0  0  0  0  2  0  0  0  0  0  0
  192.6380  177.5020  140.4340 O   0  0  0  0  0  0  0  0  0  0  0  0
  186.8890  178.6080  139.5810 O   0  0  0  0  0  0  0  0  0  0  0  0
  186.6660  178.1440  138.2570 C   0  0  0  0  0  1  0  0  0  0  0  0
  1 12  1  0  0  0  0
  1  4  1  0  0  0  0
  2  1  1  0  0  0  0
  3 12  1  0  0  0  0
  4  8  1  0  0  0  0
  5 10  2  0  0  0  0
  6  9  1  0  0  0  0
  7  3  2  0  0  0  0
  8  9  2  0  0  0  0
 10  2  1  0  0  0  0
 11  6  2  0  0  0  0
 12 13  2  0  0  0  0
 13  8  1  0  0  0  0
 14 17  1  0  0  0  0
 15  4  2  0  0  0  0
 15 11  1  0  0  0  0
 16 14  2  0  0  0  0
 16  5  1  0  0  0  0
 17  7  1  0  0  0  0
 17  2  2  0  0  0  0
 18 20  1  0  0  0  0
 18 22  1  0  0  0  0
 19 18  2  0  0  0  0
 21 23  2  0  0  0  0
 21  5  1  0  0  0  0
 22 21  1  0  0  0  0
 24 14  1  0  0  0  0
 25 24  1  0  0  0  0
M  END
>  <MODEL>
8

>  <REMARK>
 VINA RESULT:      -9.6      2.303      5.128
  Name = 
  2 active torsions:
  status: ('A' for Active; 'I' for Inactive)
    1  A    between atoms: C_6  and  C_15
    2  A    between atoms: O_13  and  C_20
                            x       y       z     vdW  Elec       q    Type
                         _______ _______ _______ _____ _____    ______ ____

>  <TORSDO>
F 2

$$$$
=
 OpenBabel10262419533D

 25 28  0  0  0  0  0  0  0  0999 V2000
  189.2490  177.4920  143.2220 N   0  0  0  0  0  0  0  0  0  0  0  0
  188.2940  177.6300  144.1860 C   0  0  0  0  0  0  0  0  0  0  0  0
  190.8940  176.8650  144.8200 C   0  0  0  0  0  3  0  0  0  0  0  0
  189.2110  177.6600  141.8880 C   0  0  0  0  0  0  0  0  0  0  0  0
  186.0310  178.1450  144.8990 C   0  0  0  0  0  0  0  0  0  0  0  0
  189.6250  177.8760  139.1560 C   0  0  0  0  0  3  0  0  0  0  0  0
  189.9550  176.9970  145.7980 N   0  0  0  0  0  0  0  0  0  0  0  0
  190.4510  177.3950  141.3530 C   0  0  0  0  0  0  0  0  0  0  0  0
  190.6940  177.4940  139.9850 C   0  0  0  0  0  3  0  0  0  0  0  0
  186.9840  178.0130  143.8840 C   0  0  0  0  0  3  0  0  0  0  0  0
  188.3530  178.1480  139.7020 C   0  0  0  0  0  3  0  0  0  0  0  0
  190.5170  177.1220  143.5070 C   0  0  0  0  0  0  0  0  0  0  0  0
  191.3220  177.0430  142.3730 C   0  0  0  0  0  3  0  0  0  0  0  0
  187.7020  177.5040  146.5620 C   0  0  0  0  0  0  0  0  0  0  0  0
  188.1330  178.0420  141.0860 C   0  0  0  0  0  3  0  0  0  0  0  0
  186.4000  177.8890  146.2250 C   0  0  0  0  0  3  0  0  0  0  0  0
  188.6670  177.3710  145.5310 C   0  0  0  0  0  0  0  0  0  0  0  0
  182.8540  178.7770  142.7870 C   0  0  0  0  0  0  0  0  0  0  0  0
  182.5140  178.6020  141.4530 O   0  0  0  0  0  0  0  0  0  0  0  0
  182.0010  179.2440  143.5880 O   0  0  0  0  0  1  0  0  0  0  0  0
  184.6500  178.5490  144.5750 C   0  0  0  0  0  0  0  0  0  0  0  0
  184.1680  178.4220  143.2310 N   0  0  0  0  0  2  0  0  0  0  0  0
  183.9010  179.0040  145.4820 O   0  0  0  0  0  0  0  0  0  0  0  0
  187.9630  177.2730  147.9220 O   0  0  0  0  0  0  0  0  0  0  0  0
  188.4150  178.2520  148.8470 C   0  0  0  0  0  1  0  0  0  0  0  0
  1 12  1  0  0  0  0
  1  2  1  0  0  0  0
  2 17  1  0  0  0  0
  3  7  2  0  0  0  0
  4  1  1  0  0  0  0
  5 16  2  0  0  0  0
  6 11  2  0  0  0  0
  6  9  1  0  0  0  0
  8  4  1  0  0  0  0
  8 13  1  0  0  0  0
  9  8  2  0  0  0  0
 10  2  2  0  0  0  0
 10  5  1  0  0  0  0
 11 15  1  0  0  0  0
 12  3  1  0  0  0  0
 13 12  2  0  0  0  0
 14 24  1  0  0  0  0
 15  4  2  0  0  0  0
 16 14  1  0  0  0  0
 17  7  1  0  0  0  0
 17 14  2  0  0  0  0
 18 22  1  0  0  0  0
 18 20  1  0  0  0  0
 19 18  2  0  0  0  0
 21  5  1  0  0  0  0
 21 23  2  0  0  0  0
 22 21  1  0  0  0  0
 24 25  1  0  0  0  0
M  END
>  <MODEL>
9

>  <REMARK>
 VINA RESULT:      -9.6      3.467      6.195
  Name = 
  2 active torsions:
  status: ('A' for Active; 'I' for Inactive)
    1  A    between atoms: C_6  and  C_15
    2  A    between atoms: O_13  and  C_20
                            x       y       z     vdW  Elec       q    Type
                         _______ _______ _______ _____ _____    ______ ____

>  <TORSDO>
F 2

$$$$
