=
 OpenBabel10262422103D

 43 50  0  0  1  0  0  0  0  0999 V2000
  191.2040  176.3960  147.0780 C   0  0  0  0  0  0  0  0  0  0  0  0
  187.4150  178.1100  144.1800 C   0  0  0  0  0  0  0  0  0  0  0  0
  188.3130  177.9760  141.5090 C   0  0  0  0  0  0  0  0  0  0  0  0
  189.0930  177.2780  146.2820 C   0  0  0  0  0  0  0  0  0  0  0  0
  191.6810  176.3420  145.7670 C   0  0  0  0  0  3  0  0  0  0  0  0
  191.9930  175.9920  148.1030 F   0  0  0  0  0  0  0  0  0  0  0  0
  189.5640  177.2190  144.9470 C   0  0  0  0  0  0  0  0  0  0  0  0
  189.9120  176.8650  147.3350 C   0  0  0  0  0  3  0  0  0  0  0  0
  190.8670  176.7490  144.7060 C   0  0  0  0  0  3  0  0  0  0  0  0
  189.1500  177.5750  142.5590 C   0  0  0  0  0  3  0  0  0  0  0  0
  188.7210  177.6330  143.8930 C   0  0  0  0  0  0  0  0  0  0  0  0
  186.9770  178.1570  145.5110 C   0  0  0  0  0  3  0  0  0  0  0  0
  186.5750  178.5380  143.1320 C   0  0  0  0  0  0  0  0  0  0  0  0
  187.0310  178.4530  141.8090 C   0  0  0  0  0  3  0  0  0  0  0  0
  187.8070  177.7450  146.5520 C   0  0  0  0  0  3  0  0  0  0  0  0
  185.1760  179.0650  143.4250 C   0  0  2  0  0  3  0  0  0  0  0  0
  184.7630  178.5900  141.0950 C   0  0  2  0  0  3  0  0  0  0  0  0
  183.9430  179.1610  139.9570 C   0  0  2  0  0  3  0  0  0  0  0  0
  183.6640  177.6860  141.4710 C   0  0  1  0  0  3  0  0  0  0  0  0
  184.2920  178.0200  143.5700 O   0  0  0  0  0  0  0  0  0  0  0  0
  184.0240  178.8320  142.4330 C   0  0  2  0  0  0  0  0  0  0  0  0
  182.8180  178.2230  140.3340 C   0  0  0  0  0  2  0  0  0  0  0  0
  183.8490  178.0440  137.7710 C   0  0  0  0  0  2  0  0  0  0  0  0
  184.5470  178.7600  138.6490 C   0  0  0  0  0  3  0  0  0  0  0  0
  188.7660  177.9120  140.1430 N   0  0  0  0  0  0  0  0  0  0  0  0
  190.1650  177.6500  139.8340 C   0  0  0  0  0  1  0  0  0  0  0  0
  187.8340  178.0070  139.0250 C   0  0  0  0  0  2  0  0  0  0  0  0
  188.5950  178.0840  137.7090 C   0  0  2  0  0  3  0  0  0  0  0  0
  188.5630  179.3920  137.2330 O   0  0  0  0  0  1  0  0  0  0  0  0
  187.9930  177.1560  136.6640 C   0  0  0  0  0  2  0  0  0  0  0  0
  188.5530  175.8140  136.7560 N   0  0  0  0  0  0  0  0  0  0  0  0
  188.7550  173.5910  136.7810 N   0  0  0  0  0  0  0  0  0  0  0  0
  189.8370  175.5280  137.0260 C   0  0  0  0  0  3  0  0  0  0  0  0
  187.9210  174.6350  136.6140 C   0  0  0  0  0  0  0  0  0  0  0  0
  189.9600  174.1510  137.0370 C   0  0  0  0  0  3  0  0  0  0  0  0
  186.4420  174.4830  136.3400 C   0  0  1  0  0  3  0  0  0  0  0  0
  186.2370  173.7880  135.1490 O   0  0  0  0  0  1  0  0  0  0  0  0
  185.6780  173.8520  137.4300 N   0  0  0  0  0  0  0  0  0  0  0  0
  183.6160  171.4010  135.8840 C   0  0  0  0  0  1  0  0  0  0  0  0
  183.3530  173.5100  137.0550 N   0  0  0  0  0  2  0  0  0  0  0  0
  183.9890  172.2080  137.1080 C   0  0  2  0  0  3  0  0  0  0  0  0
  184.3460  174.4380  137.5800 C   0  0  0  0  0  2  0  0  0  0  0  0
  185.4750  172.4480  137.1200 C   0  0  0  0  0  2  0  0  0  0  0  0
  1  8  1  0  0  0  0
  1  6  1  0  0  0  0
  2 12  1  0  0  0  0
  3 14  2  0  0  0  0
  3 10  1  0  0  0  0
  4 15  1  0  0  0  0
  4  8  2  0  0  0  0
  5  1  2  0  0  0  0
  7  4  1  0  0  0  0
  9  7  2  0  0  0  0
  9  5  1  0  0  0  0
 10 11  2  0  0  0  0
 11  2  1  0  0  0  0
 11  7  1  0  0  0  0
 12 15  2  0  0  0  0
 13  2  2  0  0  0  0
 14 13  1  0  0  0  0
 16 13  1  6  0  0  0
 16 20  1  0  0  0  0
 17 19  1  0  0  0  0
 17 21  1  0  0  0  0
 18 22  1  0  0  0  0
 18 17  1  0  0  0  0
 19 21  1  0  0  0  0
 21 16  1  0  0  0  0
 21 20  1  0  0  0  0
 22 19  1  0  0  0  0
 23 24  2  0  0  0  0
 24 18  1  0  0  0  0
 25  3  1  0  0  0  0
 26 25  1  0  0  0  0
 27 25  1  0  0  0  0
 28 27  1  0  0  0  0
 29 28  1  0  0  0  0
 30 31  1  0  0  0  0
 30 28  1  0  0  0  0
 31 33  1  0  0  0  0
 32 35  1  0  0  0  0
 33 35  2  0  0  0  0
 34 31  1  0  0  0  0
 34 32  2  0  0  0  0
 36 34  1  0  0  0  0
 36 38  1  0  0  0  0
 37 36  1  0  0  0  0
 38 42  1  0  0  0  0
 39 41  1  0  0  0  0
 40 41  1  0  0  0  0
 40 42  1  0  0  0  0
 41 43  1  0  0  0  0
 43 38  1  0  0  0  0
M  END
>  <MODEL>
1

>  <REMARK>
 VINA RESULT:      -9.8      0.000      0.000
  Name = 
  9 active torsions:
  status: ('A' for Active; 'I' for Inactive)
    1  A    between atoms: C_1  and  C_34
    2  A    between atoms: N_2  and  C_6
    3  A    between atoms: N_2  and  C_13
    4  A    between atoms: C_3  and  N_4
    5  A    between atoms: C_3  and  C_12
    6  A    between atoms: C_6  and  C_12
    7  A    between atoms: N_11  and  C_14
    8  A    between atoms: C_14  and  C_22
    9  A    between atoms: C_19  and  C_37
                            x       y       z     vdW  Elec       q    Type
                         _______ _______ _______ _____ _____    ______ ____

>  <TORSDO>
F 9

$$$$
=
 OpenBabel10262422103D

 43 50  0  0  1  0  0  0  0  0999 V2000
  184.9370  178.6840  145.0190 C   0  0  0  0  0  0  0  0  0  0  0  0
  182.2670  178.6890  140.7110 C   0  0  0  0  0  0  0  0  0  0  0  0
  184.0750  178.0730  138.6360 C   0  0  0  0  0  0  0  0  0  0  0  0
  183.1640  178.8300  143.3760 C   0  0  0  0  0  0  0  0  0  0  0  0
  185.8580  178.4010  144.0080 C   0  0  0  0  0  3  0  0  0  0  0  0
  185.3480  178.7480  146.3090 F   0  0  0  0  0  0  0  0  0  0  0  0
  184.0870  178.5350  142.3430 C   0  0  0  0  0  0  0  0  0  0  0  0
  183.5930  178.9000  144.7030 C   0  0  0  0  0  3  0  0  0  0  0  0
  185.4370  178.3250  142.6770 C   0  0  0  0  0  3  0  0  0  0  0  0
  184.5210  178.1560  139.9610 C   0  0  0  0  0  3  0  0  0  0  0  0
  183.6370  178.4600  141.0070 C   0  0  0  0  0  0  0  0  0  0  0  0
  181.3770  178.9800  141.7550 C   0  0  0  0  0  3  0  0  0  0  0  0
  181.8150  178.6300  139.3770 C   0  0  0  0  0  0  0  0  0  0  0  0
  182.7230  178.3100  138.3590 C   0  0  0  0  0  3  0  0  0  0  0  0
  181.8200  179.0490  143.0750 C   0  0  0  0  0  3  0  0  0  0  0  0
  180.3510  178.8850  139.0420 C   0  0  2  0  0  3  0  0  0  0  0  0
  181.1660  180.9670  138.1310 C   0  0  2  0  0  3  0  0  0  0  0  0
  180.6860  182.3950  137.9840 C   0  0  2  0  0  3  0  0  0  0  0  0
  180.6050  180.6140  136.8160 C   0  0  1  0  0  3  0  0  0  0  0  0
  180.1180  178.6430  137.7070 O   0  0  0  0  0  0  0  0  0  0  0  0
  179.9510  180.0090  138.0710 C   0  0  2  0  0  0  0  0  0  0  0  0
  180.1220  182.0380  136.6270 C   0  0  0  0  0  2  0  0  0  0  0  0
  181.7050  184.5480  137.3820 C   0  0  0  0  0  2  0  0  0  0  0  0
  181.8610  183.3100  137.8410 C   0  0  0  0  0  3  0  0  0  0  0  0
  184.9940  177.7600  137.5710 N   0  0  0  0  0  0  0  0  0  0  0  0
  184.6380  176.7950  136.5390 C   0  0  0  0  0  1  0  0  0  0  0  0
  186.2650  178.4620  137.4290 C   0  0  0  0  0  2  0  0  0  0  0  0
  187.4200  177.5370  137.7860 C   0  0  2  0  0  3  0  0  0  0  0  0
  186.9680  176.2190  137.8050 O   0  0  0  0  0  1  0  0  0  0  0  0
  188.0100  177.8830  139.1450 C   0  0  0  0  0  2  0  0  0  0  0  0
  189.3950  177.4450  139.2530 N   0  0  0  0  0  0  0  0  0  0  0  0
  191.3840  176.8660  140.0850 N   0  0  0  0  0  0  0  0  0  0  0  0
  190.1980  177.1570  138.2160 C   0  0  0  0  0  3  0  0  0  0  0  0
  190.1290  177.2640  140.3660 C   0  0  0  0  0  0  0  0  0  0  0  0
  191.4290  176.7950  138.7340 C   0  0  0  0  0  3  0  0  0  0  0  0
  189.6300  177.5140  141.7700 C   0  0  1  0  0  3  0  0  0  0  0  0
  188.5330  176.6990  142.0500 O   0  0  0  0  0  1  0  0  0  0  0  0
  190.6520  177.3600  142.8200 N   0  0  0  0  0  0  0  0  0  0  0  0
  188.8820  177.3070  145.9050 C   0  0  0  0  0  1  0  0  0  0  0  0
  190.4420  178.7540  144.7380 N   0  0  0  0  0  2  0  0  0  0  0  0
  190.1940  177.3880  145.1550 C   0  0  2  0  0  3  0  0  0  0  0  0
  191.0330  178.6440  143.4110 C   0  0  0  0  0  2  0  0  0  0  0  0
  190.1090  176.5570  143.9020 C   0  0  0  0  0  2  0  0  0  0  0  0
  1  6  1  0  0  0  0
  2 11  1  0  0  0  0
  2 12  1  0  0  0  0
  3 10  1  0  0  0  0
  4  8  2  0  0  0  0
  5  1  2  0  0  0  0
  7  9  2  0  0  0  0
  7  4  1  0  0  0  0
  8  1  1  0  0  0  0
  9  5  1  0  0  0  0
 10 11  2  0  0  0  0
 11  7  1  0  0  0  0
 12 15  2  0  0  0  0
 13  2  2  0  0  0  0
 14  3  2  0  0  0  0
 14 13  1  0  0  0  0
 15  4  1  0  0  0  0
 16 13  1  6  0  0  0
 18 17  1  0  0  0  0
 19 21  1  0  0  0  0
 19 17  1  0  0  0  0
 20 21  1  0  0  0  0
 20 16  1  0  0  0  0
 21 17  1  0  0  0  0
 21 16  1  0  0  0  0
 22 19  1  0  0  0  0
 22 18  1  0  0  0  0
 23 24  2  0  0  0  0
 24 18  1  0  0  0  0
 25  3  1  0  0  0  0
 26 25  1  0  0  0  0
 27 25  1  0  0  0  0
 27 28  1  0  0  0  0
 28 29  1  0  0  0  0
 28 30  1  0  0  0  0
 30 31  1  0  0  0  0
 31 34  1  0  0  0  0
 32 34  2  0  0  0  0
 33 35  2  0  0  0  0
 33 31  1  0  0  0  0
 34 36  1  0  0  0  0
 35 32  1  0  0  0  0
 36 37  1  0  0  0  0
 36 38  1  0  0  0  0
 38 42  1  0  0  0  0
 38 43  1  0  0  0  0
 40 41  1  0  0  0  0
 41 39  1  0  0  0  0
 42 40  1  0  0  0  0
 43 41  1  0  0  0  0
M  END
>  <MODEL>
2

>  <REMARK>
 VINA RESULT:      -9.8      3.184      6.647
  Name = 
  9 active torsions:
  status: ('A' for Active; 'I' for Inactive)
    1  A    between atoms: C_1  and  C_34
    2  A    between atoms: N_2  and  C_6
    3  A    between atoms: N_2  and  C_13
    4  A    between atoms: C_3  and  N_4
    5  A    between atoms: C_3  and  C_12
    6  A    between atoms: C_6  and  C_12
    7  A    between atoms: N_11  and  C_14
    8  A    between atoms: C_14  and  C_22
    9  A    between atoms: C_19  and  C_37
                            x       y       z     vdW  Elec       q    Type
                         _______ _______ _______ _____ _____    ______ ____

>  <TORSDO>
F 9

$$$$
=
 OpenBabel10262422103D

 43 50  0  0  1  0  0  0  0  0999 V2000
  188.0020  177.4860  147.4160 C   0  0  0  0  0  0  0  0  0  0  0  0
  185.5670  178.5450  143.0990 C   0  0  0  0  0  0  0  0  0  0  0  0
  187.4210  178.1620  141.0080 C   0  0  0  0  0  0  0  0  0  0  0  0
  186.3340  178.1020  145.7710 C   0  0  0  0  0  0  0  0  0  0  0  0
  188.9460  177.3110  146.4020 C   0  0  0  0  0  3  0  0  0  0  0  0
  188.3490  177.2690  148.7080 F   0  0  0  0  0  0  0  0  0  0  0  0
  187.2810  177.9200  144.7340 C   0  0  0  0  0  0  0  0  0  0  0  0
  186.6990  177.8820  147.1010 C   0  0  0  0  0  3  0  0  0  0  0  0
  188.5890  177.5250  145.0680 C   0  0  0  0  0  3  0  0  0  0  0  0
  187.8030  177.9540  142.3400 C   0  0  0  0  0  3  0  0  0  0  0  0
  186.8950  178.1380  143.3930 C   0  0  0  0  0  0  0  0  0  0  0  0
  184.6530  178.7190  144.1480 C   0  0  0  0  0  3  0  0  0  0  0  0
  185.1810  178.7800  141.7640 C   0  0  0  0  0  0  0  0  0  0  0  0
  186.1100  178.5720  140.7350 C   0  0  0  0  0  3  0  0  0  0  0  0
  185.0320  178.4980  145.4710 C   0  0  0  0  0  3  0  0  0  0  0  0
  183.7630  179.2300  141.4330 C   0  0  2  0  0  3  0  0  0  0  0  0
  184.0010  177.7800  139.5180 C   0  0  2  0  0  3  0  0  0  0  0  0
  183.5340  177.7300  138.0790 C   0  0  2  0  0  3  0  0  0  0  0  0
  182.8270  177.0060  139.9550 C   0  0  1  0  0  3  0  0  0  0  0  0
  182.8580  178.2550  141.7860 O   0  0  0  0  0  0  0  0  0  0  0  0
  182.9250  178.4820  140.3830 C   0  0  2  0  0  0  0  0  0  0  0  0
  182.3340  176.9240  138.5230 C   0  0  0  0  0  2  0  0  0  0  0  0
  184.1830  175.6090  137.0230 C   0  0  0  0  0  2  0  0  0  0  0  0
  184.4680  176.8840  137.2740 C   0  0  0  0  0  3  0  0  0  0  0  0
  188.3630  177.9690  139.9350 N   0  0  0  0  0  0  0  0  0  0  0  0
  189.7640  177.6850  140.2170 C   0  0  0  0  0  1  0  0  0  0  0  0
  187.9380  177.9520  138.5400 C   0  0  0  0  0  2  0  0  0  0  0  0
  189.1140  178.2670  137.6260 C   0  0  2  0  0  3  0  0  0  0  0  0
  189.0900  179.6190  137.2930 O   0  0  0  0  0  1  0  0  0  0  0  0
  189.0650  177.4370  136.3520 C   0  0  0  0  0  2  0  0  0  0  0  0
  189.0090  176.0110  136.6460 N   0  0  0  0  0  0  0  0  0  0  0  0
  189.5850  173.9380  137.2400 N   0  0  0  0  0  0  0  0  0  0  0  0
  187.9260  175.2320  136.4960 C   0  0  0  0  0  3  0  0  0  0  0  0
  189.9940  175.2130  137.0940 C   0  0  0  0  0  0  0  0  0  0  0  0
  188.2850  173.9490  136.8680 C   0  0  0  0  0  3  0  0  0  0  0  0
  191.4100  175.6690  137.3650 C   0  0  1  0  0  3  0  0  0  0  0  0
  191.7500  175.4320  138.6970 O   0  0  0  0  0  1  0  0  0  0  0  0
  192.4250  175.0810  136.4740 N   0  0  0  0  0  0  0  0  0  0  0  0
  195.1990  174.2770  138.5490 C   0  0  0  0  0  1  0  0  0  0  0  0
  194.6670  175.8270  136.7590 N   0  0  0  0  0  2  0  0  0  0  0  0
  194.6080  174.4370  137.1650 C   0  0  2  0  0  3  0  0  0  0  0  0
  193.4190  176.0660  136.0460 C   0  0  0  0  0  2  0  0  0  0  0  0
  193.1530  174.0500  137.1920 C   0  0  0  0  0  2  0  0  0  0  0  0
  1  6  1  0  0  0  0
  2 11  1  0  0  0  0
  2 12  1  0  0  0  0
  3 10  1  0  0  0  0
  4  8  2  0  0  0  0
  5  1  2  0  0  0  0
  7  9  2  0  0  0  0
  7  4  1  0  0  0  0
  8  1  1  0  0  0  0
  9  5  1  0  0  0  0
 10 11  2  0  0  0  0
 11  7  1  0  0  0  0
 12 15  2  0  0  0  0
 13  2  2  0  0  0  0
 14  3  2  0  0  0  0
 14 13  1  0  0  0  0
 15  4  1  0  0  0  0
 16 13  1  6  0  0  0
 16 20  1  0  0  0  0
 17 19  1  0  0  0  0
 17 21  1  0  0  0  0
 18 22  1  0  0  0  0
 18 17  1  0  0  0  0
 19 21  1  0  0  0  0
 21 16  1  0  0  0  0
 21 20  1  0  0  0  0
 22 19  1  0  0  0  0
 23 24  2  0  0  0  0
 24 18  1  0  0  0  0
 25 26  1  0  0  0  0
 25  3  1  0  0  0  0
 27 25  1  0  0  0  0
 28 27  1  0  0  0  0
 29 28  1  0  0  0  0
 30 31  1  0  0  0  0
 30 28  1  0  0  0  0
 31 34  1  0  0  0  0
 33 31  1  0  0  0  0
 33 35  2  0  0  0  0
 34 32  2  0  0  0  0
 34 36  1  0  0  0  0
 35 32  1  0  0  0  0
 36 37  1  0  0  0  0
 38 43  1  0  0  0  0
 38 36  1  0  0  0  0
 40 41  1  0  0  0  0
 41 43  1  0  0  0  0
 41 39  1  0  0  0  0
 42 38  1  0  0  0  0
 42 40  1  0  0  0  0
M  END
>  <MODEL>
3

>  <REMARK>
 VINA RESULT:      -9.7      2.223      4.406
  Name = 
  9 active torsions:
  status: ('A' for Active; 'I' for Inactive)
    1  A    between atoms: C_1  and  C_34
    2  A    between atoms: N_2  and  C_6
    3  A    between atoms: N_2  and  C_13
    4  A    between atoms: C_3  and  N_4
    5  A    between atoms: C_3  and  C_12
    6  A    between atoms: C_6  and  C_12
    7  A    between atoms: N_11  and  C_14
    8  A    between atoms: C_14  and  C_22
    9  A    between atoms: C_19  and  C_37
                            x       y       z     vdW  Elec       q    Type
                         _______ _______ _______ _____ _____    ______ ____

>  <TORSDO>
F 9

$$$$
=
 OpenBabel10262422103D

 43 50  0  0  1  0  0  0  0  0999 V2000
  194.0810  173.5670  135.6590 C   0  0  0  0  0  0  0  0  0  0  0  0
  190.3370  176.7850  136.8050 C   0  0  0  0  0  0  0  0  0  0  0  0
  190.4150  177.1570  139.6000 C   0  0  0  0  0  0  0  0  0  0  0  0
  192.1980  175.0860  135.5500 C   0  0  0  0  0  0  0  0  0  0  0  0
  194.1270  173.7150  137.0470 C   0  0  0  0  0  3  0  0  0  0  0  0
  194.9730  172.7600  135.0350 F   0  0  0  0  0  0  0  0  0  0  0  0
  192.2400  175.2510  136.9560 C   0  0  0  0  0  0  0  0  0  0  0  0
  193.1170  174.2500  134.9130 C   0  0  0  0  0  3  0  0  0  0  0  0
  193.2140  174.5530  137.6930 C   0  0  0  0  0  3  0  0  0  0  0  0
  191.3320  176.3030  138.9740 C   0  0  0  0  0  3  0  0  0  0  0  0
  191.3100  176.1060  137.5860 C   0  0  0  0  0  0  0  0  0  0  0  0
  190.3190  176.6010  135.4150 C   0  0  0  0  0  3  0  0  0  0  0  0
  189.3950  177.6280  137.4300 C   0  0  0  0  0  0  0  0  0  0  0  0
  189.4560  177.8130  138.8190 C   0  0  0  0  0  3  0  0  0  0  0  0
  191.2410  175.7600  134.7930 C   0  0  0  0  0  3  0  0  0  0  0  0
  188.3370  178.3530  136.6090 C   0  0  2  0  0  3  0  0  0  0  0  0
  186.9330  176.4790  137.1960 C   0  0  2  0  0  3  0  0  0  0  0  0
  185.8100  175.6760  136.5740 C   0  0  2  0  0  3  0  0  0  0  0  0
  185.9670  177.3960  137.8240 C   0  0  1  0  0  3  0  0  0  0  0  0
  187.4490  178.9990  137.4390 O   0  0  0  0  0  0  0  0  0  0  0  0
  186.8570  177.9410  136.6920 C   0  0  2  0  0  0  0  0  0  0  0  0
  184.8170  176.6080  137.2300 C   0  0  0  0  0  2  0  0  0  0  0  0
  184.5840  173.7340  137.4460 C   0  0  0  0  0  2  0  0  0  0  0  0
  185.7530  174.3190  137.2020 C   0  0  0  0  0  3  0  0  0  0  0  0
  190.4490  177.3510  141.0280 N   0  0  0  0  0  0  0  0  0  0  0  0
  191.6970  177.6730  141.7060 C   0  0  0  0  0  1  0  0  0  0  0  0
  189.2310  177.3300  141.8290 C   0  0  0  0  0  2  0  0  0  0  0  0
  189.4690  176.5760  143.1300 C   0  0  2  0  0  3  0  0  0  0  0  0
  189.9590  175.3040  142.8440 O   0  0  0  0  0  1  0  0  0  0  0  0
  188.1870  176.4470  143.9400 C   0  0  0  0  0  2  0  0  0  0  0  0
  188.3150  177.0840  145.2450 N   0  0  0  0  0  0  0  0  0  0  0  0
  187.8420  178.1720  147.1350 N   0  0  0  0  0  0  0  0  0  0  0  0
  189.4570  177.1990  145.9410 C   0  0  0  0  0  3  0  0  0  0  0  0
  187.3580  177.6760  145.9810 C   0  0  0  0  0  0  0  0  0  0  0  0
  189.1610  177.8710  147.1130 C   0  0  0  0  0  3  0  0  0  0  0  0
  185.9130  177.8120  145.5580 C   0  0  1  0  0  3  0  0  0  0  0  0
  185.1020  178.0510  146.6670 O   0  0  0  0  0  1  0  0  0  0  0  0
  185.6700  178.8360  144.5270 N   0  0  0  0  0  0  0  0  0  0  0  0
  182.1580  178.8440  143.9670 C   0  0  0  0  0  1  0  0  0  0  0  0
  184.1810  178.2540  142.7650 N   0  0  0  0  0  2  0  0  0  0  0  0
  183.5450  179.2870  143.5580 C   0  0  2  0  0  3  0  0  0  0  0  0
  185.5760  178.2560  143.1870 C   0  0  0  0  0  2  0  0  0  0  0  0
  184.3950  179.4810  144.7850 C   0  0  0  0  0  2  0  0  0  0  0  0
  1  5  1  0  0  0  0
  2 13  2  0  0  0  0
  2 11  1  0  0  0  0
  3 25  1  0  0  0  0
  4  7  2  0  0  0  0
  5  9  2  0  0  0  0
  6  1  1  0  0  0  0
  7 11  1  0  0  0  0
  7  9  1  0  0  0  0
  8  4  1  0  0  0  0
  8  1  2  0  0  0  0
 10  3  1  0  0  0  0
 11 10  2  0  0  0  0
 12  2  1  0  0  0  0
 13 14  1  0  0  0  0
 14  3  2  0  0  0  0
 15 12  2  0  0  0  0
 15  4  1  0  0  0  0
 16 21  1  0  0  0  0
 16 13  1  1  0  0  0
 16 20  1  0  0  0  0
 17 19  1  0  0  0  0
 18 17  1  0  0  0  0
 18 24  1  0  0  0  0
 18 22  1  0  0  0  0
 21 17  1  0  0  0  0
 21 20  1  0  0  0  0
 21 19  1  0  0  0  0
 22 19  1  0  0  0  0
 24 23  2  0  0  0  0
 25 26  1  0  0  0  0
 25 27  1  0  0  0  0
 27 28  1  0  0  0  0
 28 30  1  0  0  0  0
 29 28  1  0  0  0  0
 30 31  1  0  0  0  0
 31 33  1  0  0  0  0
 31 34  1  0  0  0  0
 33 35  2  0  0  0  0
 34 32  2  0  0  0  0
 35 32  1  0  0  0  0
 36 34  1  0  0  0  0
 36 37  1  0  0  0  0
 38 43  1  0  0  0  0
 38 36  1  0  0  0  0
 40 42  1  0  0  0  0
 40 41  1  0  0  0  0
 41 39  1  0  0  0  0
 41 43  1  0  0  0  0
 42 38  1  0  0  0  0
M  END
>  <MODEL>
4

>  <REMARK>
 VINA RESULT:      -9.5      3.475      8.367
  Name = 
  9 active torsions:
  status: ('A' for Active; 'I' for Inactive)
    1  A    between atoms: C_1  and  C_34
    2  A    between atoms: N_2  and  C_6
    3  A    between atoms: N_2  and  C_13
    4  A    between atoms: C_3  and  N_4
    5  A    between atoms: C_3  and  C_12
    6  A    between atoms: C_6  and  C_12
    7  A    between atoms: N_11  and  C_14
    8  A    between atoms: C_14  and  C_22
    9  A    between atoms: C_19  and  C_37
                            x       y       z     vdW  Elec       q    Type
                         _______ _______ _______ _____ _____    ______ ____

>  <TORSDO>
F 9

$$$$
=
 OpenBabel10262422103D

 43 50  0  0  1  0  0  0  0  0999 V2000
  189.0080  177.0770  146.4830 C   0  0  0  0  0  0  0  0  0  0  0  0
  185.9350  178.4440  142.6910 C   0  0  0  0  0  0  0  0  0  0  0  0
  187.4230  178.1870  140.3080 C   0  0  0  0  0  0  0  0  0  0  0  0
  187.1110  177.8160  145.1700 C   0  0  0  0  0  0  0  0  0  0  0  0
  189.7740  176.9630  145.3210 C   0  0  0  0  0  3  0  0  0  0  0  0
  189.5520  176.7700  147.6850 F   0  0  0  0  0  0  0  0  0  0  0  0
  187.8760  177.6960  143.9850 C   0  0  0  0  0  0  0  0  0  0  0  0
  187.6790  177.5030  146.4070 C   0  0  0  0  0  3  0  0  0  0  0  0
  189.2130  177.2690  144.0780 C   0  0  0  0  0  3  0  0  0  0  0  0
  188.0090  177.8870  141.5450 C   0  0  0  0  0  3  0  0  0  0  0  0
  187.2850  178.0070  142.7400 C   0  0  0  0  0  0  0  0  0  0  0  0
  185.2040  178.5540  143.8820 C   0  0  0  0  0  3  0  0  0  0  0  0
  185.3450  178.7710  141.4530 C   0  0  0  0  0  0  0  0  0  0  0  0
  186.0940  178.6250  140.2770 C   0  0  0  0  0  3  0  0  0  0  0  0
  185.7850  178.2420  145.1100 C   0  0  0  0  0  3  0  0  0  0  0  0
  183.9020  179.2540  141.3840 C   0  0  2  0  0  3  0  0  0  0  0  0
  183.7090  177.6820  139.5640 C   0  0  2  0  0  3  0  0  0  0  0  0
  182.9580  177.5620  138.2540 C   0  0  2  0  0  3  0  0  0  0  0  0
  182.6280  176.9820  140.2790 C   0  0  1  0  0  3  0  0  0  0  0  0
  183.0630  178.3390  141.9770 O   0  0  0  0  0  0  0  0  0  0  0  0
  182.8490  178.4760  140.5770 C   0  0  2  0  0  0  0  0  0  0  0  0
  181.8540  176.8320  138.9850 C   0  0  0  0  0  2  0  0  0  0  0  0
  184.2540  177.0860  136.2220 C   0  0  0  0  0  2  0  0  0  0  0  0
  183.6870  176.6330  137.3370 C   0  0  0  0  0  3  0  0  0  0  0  0
  188.1790  178.0580  139.0880 N   0  0  0  0  0  0  0  0  0  0  0  0
  189.0270  179.1450  138.6200 C   0  0  0  0  0  1  0  0  0  0  0  0
  188.2000  176.8110  138.3320 C   0  0  0  0  0  2  0  0  0  0  0  0
  189.5020  176.6890  137.5540 C   0  0  2  0  0  3  0  0  0  0  0  0
  189.2250  176.2760  136.2520 O   0  0  0  0  0  1  0  0  0  0  0  0
  190.4470  175.6890  138.2040 C   0  0  0  0  0  2  0  0  0  0  0  0
  191.5340  176.3610  138.9050 N   0  0  0  0  0  0  0  0  0  0  0  0
  193.5560  177.1290  139.4530 N   0  0  0  0  0  0  0  0  0  0  0  0
  191.4120  177.0230  140.0660 C   0  0  0  0  0  3  0  0  0  0  0  0
  192.8300  176.4360  138.5560 C   0  0  0  0  0  0  0  0  0  0  0  0
  192.6660  177.5010  140.4020 C   0  0  0  0  0  3  0  0  0  0  0  0
  193.4250  175.7900  137.3250 C   0  0  1  0  0  3  0  0  0  0  0  0
  194.3400  176.6500  136.7180 O   0  0  0  0  0  1  0  0  0  0  0  0
  194.0490  174.4770  137.5630 N   0  0  0  0  0  0  0  0  0  0  0  0
  197.4710  174.8450  136.6680 C   0  0  0  0  0  1  0  0  0  0  0  0
  195.5100  173.6590  135.8720 N   0  0  0  0  0  2  0  0  0  0  0  0
  196.3100  173.9510  137.0450 C   0  0  2  0  0  3  0  0  0  0  0  0
  194.1300  173.6760  136.3410 C   0  0  0  0  0  2  0  0  0  0  0  0
  195.4140  174.6720  138.0170 C   0  0  0  0  0  2  0  0  0  0  0  0
  1  6  1  0  0  0  0
  2 11  1  0  0  0  0
  2 12  1  0  0  0  0
  3 10  1  0  0  0  0
  4  8  2  0  0  0  0
  5  1  2  0  0  0  0
  7  9  2  0  0  0  0
  7  4  1  0  0  0  0
  8  1  1  0  0  0  0
  9  5  1  0  0  0  0
 10 11  2  0  0  0  0
 11  7  1  0  0  0  0
 12 15  2  0  0  0  0
 13  2  2  0  0  0  0
 14  3  2  0  0  0  0
 14 13  1  0  0  0  0
 15  4  1  0  0  0  0
 16 13  1  6  0  0  0
 16 20  1  0  0  0  0
 17 19  1  0  0  0  0
 17 21  1  0  0  0  0
 18 22  1  0  0  0  0
 18 17  1  0  0  0  0
 19 21  1  0  0  0  0
 21 16  1  0  0  0  0
 21 20  1  0  0  0  0
 22 19  1  0  0  0  0
 23 24  2  0  0  0  0
 24 18  1  0  0  0  0
 25  3  1  0  0  0  0
 26 25  1  0  0  0  0
 27 25  1  0  0  0  0
 28 30  1  0  0  0  0
 28 27  1  0  0  0  0
 29 28  1  0  0  0  0
 30 31  1  0  0  0  0
 31 33  1  0  0  0  0
 32 35  1  0  0  0  0
 33 35  2  0  0  0  0
 34 31  1  0  0  0  0
 34 32  2  0  0  0  0
 36 38  1  0  0  0  0
 36 34  1  0  0  0  0
 37 36  1  0  0  0  0
 38 43  1  0  0  0  0
 39 41  1  0  0  0  0
 40 42  1  0  0  0  0
 40 41  1  0  0  0  0
 41 43  1  0  0  0  0
 42 38  1  0  0  0  0
M  END
>  <MODEL>
5

>  <REMARK>
 VINA RESULT:      -9.2      3.006      5.251
  Name = 
  9 active torsions:
  status: ('A' for Active; 'I' for Inactive)
    1  A    between atoms: C_1  and  C_34
    2  A    between atoms: N_2  and  C_6
    3  A    between atoms: N_2  and  C_13
    4  A    between atoms: C_3  and  N_4
    5  A    between atoms: C_3  and  C_12
    6  A    between atoms: C_6  and  C_12
    7  A    between atoms: N_11  and  C_14
    8  A    between atoms: C_14  and  C_22
    9  A    between atoms: C_19  and  C_37
                            x       y       z     vdW  Elec       q    Type
                         _______ _______ _______ _____ _____    ______ ____

>  <TORSDO>
F 9

$$$$
=
 OpenBabel10262422103D

 43 50  0  0  1  0  0  0  0  0999 V2000
  186.8020  177.8460  145.5040 C   0  0  0  0  0  0  0  0  0  0  0  0
  183.4480  178.7730  141.8200 C   0  0  0  0  0  0  0  0  0  0  0  0
  184.7670  178.2710  139.3770 C   0  0  0  0  0  0  0  0  0  0  0  0
  184.8060  178.4240  144.2610 C   0  0  0  0  0  0  0  0  0  0  0  0
  187.4860  177.6130  144.3090 C   0  0  0  0  0  3  0  0  0  0  0  0
  187.4360  177.6750  146.6900 F   0  0  0  0  0  0  0  0  0  0  0  0
  185.4870  178.1830  143.0420 C   0  0  0  0  0  0  0  0  0  0  0  0
  185.4660  178.2520  145.4800 C   0  0  0  0  0  3  0  0  0  0  0  0
  186.8330  177.7790  143.0840 C   0  0  0  0  0  3  0  0  0  0  0  0
  185.4440  178.1110  140.5940 C   0  0  0  0  0  3  0  0  0  0  0  0
  184.8050  178.3540  141.8180 C   0  0  0  0  0  0  0  0  0  0  0  0
  182.8010  179.0050  143.0420 C   0  0  0  0  0  3  0  0  0  0  0  0
  182.7670  178.9600  140.6000 C   0  0  0  0  0  0  0  0  0  0  0  0
  183.4320  178.6940  139.3950 C   0  0  0  0  0  3  0  0  0  0  0  0
  183.4730  178.8320  144.2510 C   0  0  0  0  0  3  0  0  0  0  0  0
  181.3150  179.4210  140.5840 C   0  0  2  0  0  3  0  0  0  0  0  0
  180.8360  177.1260  140.0120 C   0  0  2  0  0  3  0  0  0  0  0  0
  179.8330  176.3600  139.1760 C   0  0  2  0  0  3  0  0  0  0  0  0
  179.9770  177.0060  141.2020 C   0  0  1  0  0  3  0  0  0  0  0  0
  180.6790  179.0380  141.7430 O   0  0  0  0  0  0  0  0  0  0  0  0
  180.1650  178.4010  140.5780 C   0  0  2  0  0  0  0  0  0  0  0  0
  178.9560  176.2240  140.4000 C   0  0  0  0  0  2  0  0  0  0  0  0
  181.5840  174.9580  138.1750 C   0  0  0  0  0  2  0  0  0  0  0  0
  180.4060  175.0340  138.7890 C   0  0  0  0  0  3  0  0  0  0  0  0
  185.4360  178.0180  138.1260 N   0  0  0  0  0  0  0  0  0  0  0  0
  184.8020  177.2080  137.0940 C   0  0  0  0  0  1  0  0  0  0  0  0
  186.7180  178.6360  137.8080 C   0  0  0  0  0  2  0  0  0  0  0  0
  187.8480  177.6330  137.9930 C   0  0  2  0  0  3  0  0  0  0  0  0
  187.3410  176.3410  137.8750 O   0  0  0  0  0  1  0  0  0  0  0  0
  188.5110  177.7880  139.3530 C   0  0  0  0  0  2  0  0  0  0  0  0
  189.9020  177.3550  139.3210 N   0  0  0  0  0  0  0  0  0  0  0  0
  191.9490  176.7270  139.9520 N   0  0  0  0  0  0  0  0  0  0  0  0
  190.6260  177.1620  138.2070 C   0  0  0  0  0  3  0  0  0  0  0  0
  190.7170  177.0890  140.3570 C   0  0  0  0  0  0  0  0  0  0  0  0
  191.8930  176.7690  138.6010 C   0  0  0  0  0  3  0  0  0  0  0  0
  190.3240  177.2160  141.8110 C   0  0  1  0  0  3  0  0  0  0  0  0
  189.9010  175.9840  142.3110 O   0  0  0  0  0  1  0  0  0  0  0  0
  191.3690  177.7810  142.6820 N   0  0  0  0  0  0  0  0  0  0  0  0
  190.6430  176.6140  145.9620 C   0  0  0  0  0  1  0  0  0  0  0  0
  190.6550  178.7160  144.7500 N   0  0  0  0  0  2  0  0  0  0  0  0
  191.4290  177.5270  145.0470 C   0  0  2  0  0  3  0  0  0  0  0  0
  190.9280  179.0070  143.3490 C   0  0  0  0  0  2  0  0  0  0  0  0
  191.6790  176.8300  143.7350 C   0  0  0  0  0  2  0  0  0  0  0  0
  1  6  1  0  0  0  0
  2 12  1  0  0  0  0
  3 14  2  0  0  0  0
  3 10  1  0  0  0  0
  4  8  2  0  0  0  0
  5  1  2  0  0  0  0
  7  9  2  0  0  0  0
  7  4  1  0  0  0  0
  8  1  1  0  0  0  0
  9  5  1  0  0  0  0
 10 11  2  0  0  0  0
 11  2  1  0  0  0  0
 11  7  1  0  0  0  0
 12 15  2  0  0  0  0
 13  2  2  0  0  0  0
 14 13  1  0  0  0  0
 15  4  1  0  0  0  0
 16 13  1  1  0  0  0
 16 20  1  0  0  0  0
 17 21  1  0  0  0  0
 17 19  1  0  0  0  0
 18 17  1  0  0  0  0
 18 22  1  0  0  0  0
 21 16  1  0  0  0  0
 21 19  1  0  0  0  0
 21 20  1  0  0  0  0
 22 19  1  0  0  0  0
 23 24  2  0  0  0  0
 24 18  1  0  0  0  0
 25  3  1  0  0  0  0
 26 25  1  0  0  0  0
 27 28  1  0  0  0  0
 27 25  1  0  0  0  0
 28 30  1  0  0  0  0
 29 28  1  0  0  0  0
 31 30  1  0  0  0  0
 31 34  1  0  0  0  0
 32 34  2  0  0  0  0
 33 35  2  0  0  0  0
 33 31  1  0  0  0  0
 34 36  1  0  0  0  0
 35 32  1  0  0  0  0
 36 37  1  0  0  0  0
 36 38  1  0  0  0  0
 38 42  1  0  0  0  0
 38 43  1  0  0  0  0
 40 41  1  0  0  0  0
 41 39  1  0  0  0  0
 42 40  1  0  0  0  0
 43 41  1  0  0  0  0
M  END
>  <MODEL>
6

>  <REMARK>
 VINA RESULT:      -9.1      2.598      5.968
  Name = 
  9 active torsions:
  status: ('A' for Active; 'I' for Inactive)
    1  A    between atoms: C_1  and  C_34
    2  A    between atoms: N_2  and  C_6
    3  A    between atoms: N_2  and  C_13
    4  A    between atoms: C_3  and  N_4
    5  A    between atoms: C_3  and  C_12
    6  A    between atoms: C_6  and  C_12
    7  A    between atoms: N_11  and  C_14
    8  A    between atoms: C_14  and  C_22
    9  A    between atoms: C_19  and  C_37
                            x       y       z     vdW  Elec       q    Type
                         _______ _______ _______ _____ _____    ______ ____

>  <TORSDO>
F 9

$$$$
=
 OpenBabel10262422103D

 43 50  0  0  1  0  0  0  0  0999 V2000
  188.7390  178.1500  138.3030 C   0  0  0  0  0  0  0  0  0  0  0  0
  183.8990  178.4930  139.7680 C   0  0  0  0  0  0  0  0  0  0  0  0
  183.9210  178.8060  142.5710 C   0  0  0  0  0  0  0  0  0  0  0  0
  186.3190  178.2510  138.3510 C   0  0  0  0  0  0  0  0  0  0  0  0
  188.7770  178.2810  139.6920 C   0  0  0  0  0  3  0  0  0  0  0  0
  189.8930  178.0420  137.6010 F   0  0  0  0  0  0  0  0  0  0  0  0
  186.3460  178.3920  139.7600 C   0  0  0  0  0  0  0  0  0  0  0  0
  187.5120  178.1340  137.6330 C   0  0  0  0  0  3  0  0  0  0  0  0
  187.5890  178.4030  140.4180 C   0  0  0  0  0  3  0  0  0  0  0  0
  185.1230  178.6730  141.8640 C   0  0  0  0  0  3  0  0  0  0  0  0
  185.1330  178.5180  140.4700 C   0  0  0  0  0  0  0  0  0  0  0  0
  183.9040  178.3500  138.3730 C   0  0  0  0  0  3  0  0  0  0  0  0
  182.6840  178.6020  140.4740 C   0  0  0  0  0  0  0  0  0  0  0  0
  182.7120  178.7710  141.8650 C   0  0  0  0  0  3  0  0  0  0  0  0
  185.1030  178.2320  137.6710 C   0  0  0  0  0  3  0  0  0  0  0  0
  181.3510  178.5640  139.7370 C   0  0  2  0  0  3  0  0  0  0  0  0
  182.0180  176.3260  139.1290 C   0  0  2  0  0  3  0  0  0  0  0  0
  181.8570  175.3820  137.9550 C   0  0  2  0  0  3  0  0  0  0  0  0
  180.8030  175.7880  139.7630 C   0  0  1  0  0  3  0  0  0  0  0  0
  180.4230  177.8560  140.4650 O   0  0  0  0  0  0  0  0  0  0  0  0
  180.7680  177.2330  139.2330 C   0  0  2  0  0  0  0  0  0  0  0  0
  180.6160  174.8200  138.6120 C   0  0  0  0  0  2  0  0  0  0  0  0
  184.1900  174.7120  137.5860 C   0  0  0  0  0  2  0  0  0  0  0  0
  182.9600  174.3740  137.9630 C   0  0  0  0  0  3  0  0  0  0  0  0
  183.9260  178.9660  144.0040 N   0  0  0  0  0  0  0  0  0  0  0  0
  182.7410  178.6520  144.7910 C   0  0  0  0  0  1  0  0  0  0  0  0
  185.1340  179.3490  144.7240 C   0  0  0  0  0  2  0  0  0  0  0  0
  185.2950  178.4950  145.9740 C   0  0  2  0  0  3  0  0  0  0  0  0
  185.6530  179.3100  147.0460 O   0  0  0  0  0  1  0  0  0  0  0  0
  186.3590  177.4250  145.7830 C   0  0  0  0  0  2  0  0  0  0  0  0
  187.5030  177.6470  146.6590 N   0  0  0  0  0  0  0  0  0  0  0  0
  189.5770  178.0130  147.3960 N   0  0  0  0  0  0  0  0  0  0  0  0
  187.4590  177.6530  148.0010 C   0  0  0  0  0  3  0  0  0  0  0  0
  188.7850  177.8640  146.3180 C   0  0  0  0  0  0  0  0  0  0  0  0
  188.7450  177.8840  148.4550 C   0  0  0  0  0  3  0  0  0  0  0  0
  189.2990  177.8980  144.8970 C   0  0  1  0  0  3  0  0  0  0  0  0
  190.2110  178.9410  144.7340 O   0  0  0  0  0  1  0  0  0  0  0  0
  189.8930  176.6330  144.4280 N   0  0  0  0  0  0  0  0  0  0  0  0
  191.9560  177.4880  141.6600 C   0  0  0  0  0  1  0  0  0  0  0  0
  189.9070  176.2580  142.0790 N   0  0  0  0  0  2  0  0  0  0  0  0
  191.2810  176.4320  142.5070 C   0  0  2  0  0  3  0  0  0  0  0  0
  189.1490  176.0580  143.3070 C   0  0  0  0  0  2  0  0  0  0  0  0
  191.2370  176.8870  143.9410 C   0  0  0  0  0  2  0  0  0  0  0  0
  1  5  1  0  0  0  0
  2 11  1  0  0  0  0
  2 13  1  0  0  0  0
  3 25  1  0  0  0  0
  4  7  1  0  0  0  0
  5  9  2  0  0  0  0
  6  1  1  0  0  0  0
  7  9  1  0  0  0  0
  7 11  2  0  0  0  0
  8  1  2  0  0  0  0
  8  4  1  0  0  0  0
 10  3  2  0  0  0  0
 11 10  1  0  0  0  0
 12  2  2  0  0  0  0
 13 14  2  0  0  0  0
 14  3  1  0  0  0  0
 15  4  2  0  0  0  0
 15 12  1  0  0  0  0
 16 20  1  0  0  0  0
 16 13  1  1  0  0  0
 17 21  1  0  0  0  0
 17 19  1  0  0  0  0
 18 24  1  0  0  0  0
 18 22  1  0  0  0  0
 18 17  1  0  0  0  0
 21 16  1  0  0  0  0
 21 19  1  0  0  0  0
 21 20  1  0  0  0  0
 22 19  1  0  0  0  0
 23 24  2  0  0  0  0
 25 27  1  0  0  0  0
 25 26  1  0  0  0  0
 27 28  1  0  0  0  0
 28 29  1  0  0  0  0
 30 28  1  0  0  0  0
 30 31  1  0  0  0  0
 31 33  1  0  0  0  0
 32 35  1  0  0  0  0
 33 35  2  0  0  0  0
 34 31  1  0  0  0  0
 34 32  2  0  0  0  0
 36 34  1  0  0  0  0
 37 36  1  0  0  0  0
 38 36  1  0  0  0  0
 39 41  1  0  0  0  0
 40 41  1  0  0  0  0
 40 42  1  0  0  0  0
 41 43  1  0  0  0  0
 42 38  1  0  0  0  0
 43 38  1  0  0  0  0
M  END
>  <MODEL>
7

>  <REMARK>
 VINA RESULT:      -9.1      3.711      8.054
  Name = 
  9 active torsions:
  status: ('A' for Active; 'I' for Inactive)
    1  A    between atoms: C_1  and  C_34
    2  A    between atoms: N_2  and  C_6
    3  A    between atoms: N_2  and  C_13
    4  A    between atoms: C_3  and  N_4
    5  A    between atoms: C_3  and  C_12
    6  A    between atoms: C_6  and  C_12
    7  A    between atoms: N_11  and  C_14
    8  A    between atoms: C_14  and  C_22
    9  A    between atoms: C_19  and  C_37
                            x       y       z     vdW  Elec       q    Type
                         _______ _______ _______ _____ _____    ______ ____

>  <TORSDO>
F 9

$$$$
=
 OpenBabel10262422103D

 43 50  0  0  1  0  0  0  0  0999 V2000
  189.7280  176.8340  146.9010 C   0  0  0  0  0  0  0  0  0  0  0  0
  185.6570  178.6890  144.5200 C   0  0  0  0  0  0  0  0  0  0  0  0
  186.2010  178.5500  141.7560 C   0  0  0  0  0  0  0  0  0  0  0  0
  187.5620  177.7880  146.3860 C   0  0  0  0  0  0  0  0  0  0  0  0
  190.0320  176.7760  145.5400 C   0  0  0  0  0  3  0  0  0  0  0  0
  190.6290  176.3970  147.8150 F   0  0  0  0  0  0  0  0  0  0  0  0
  187.8560  177.7250  145.0020 C   0  0  0  0  0  0  0  0  0  0  0  0
  188.4960  177.3400  147.3230 C   0  0  0  0  0  3  0  0  0  0  0  0
  189.1030  177.2170  144.5940 C   0  0  0  0  0  3  0  0  0  0  0  0
  187.1520  178.1140  142.6880 C   0  0  0  0  0  3  0  0  0  0  0  0
  186.8990  178.1740  144.0660 C   0  0  0  0  0  0  0  0  0  0  0  0
  185.3950  178.7390  145.8970 C   0  0  0  0  0  3  0  0  0  0  0  0
  184.7030  179.1520  143.5910 C   0  0  0  0  0  0  0  0  0  0  0  0
  184.9840  179.0640  142.2200 C   0  0  0  0  0  3  0  0  0  0  0  0
  186.3370  178.2920  146.8210 C   0  0  0  0  0  3  0  0  0  0  0  0
  183.3710  179.7200  144.0620 C   0  0  2  0  0  3  0  0  0  0  0  0
  182.5060  178.7560  142.0250 C   0  0  2  0  0  3  0  0  0  0  0  0
  181.4370  179.0660  140.9990 C   0  0  2  0  0  3  0  0  0  0  0  0
  181.5580  177.9460  142.8080 C   0  0  1  0  0  3  0  0  0  0  0  0
  182.5930  178.7240  144.6070 O   0  0  0  0  0  0  0  0  0  0  0  0
  182.0510  179.2730  143.4120 C   0  0  2  0  0  0  0  0  0  0  0  0
  180.4660  178.2230  141.7940 C   0  0  0  0  0  2  0  0  0  0  0  0
  181.8950  179.1130  138.5860 C   0  0  0  0  0  2  0  0  0  0  0  0
  181.7740  178.4000  139.7030 C   0  0  0  0  0  3  0  0  0  0  0  0
  186.4730  178.4820  140.3420 N   0  0  0  0  0  0  0  0  0  0  0  0
  185.4100  178.6930  139.3690 C   0  0  0  0  0  1  0  0  0  0  0  0
  187.8280  178.3010  139.8350 C   0  0  0  0  0  2  0  0  0  0  0  0
  187.7940  177.9590  138.3520 C   0  0  2  0  0  3  0  0  0  0  0  0
  187.6270  176.5850  138.1990 O   0  0  0  0  0  1  0  0  0  0  0  0
  189.0760  178.3880  137.6540 C   0  0  0  0  0  2  0  0  0  0  0  0
  189.4110  177.4910  136.5550 N   0  0  0  0  0  0  0  0  0  0  0  0
  190.3950  175.9110  135.3240 N   0  0  0  0  0  0  0  0  0  0  0  0
  188.8120  177.4840  135.3530 C   0  0  0  0  0  3  0  0  0  0  0  0
  190.3590  176.5390  136.5140 C   0  0  0  0  0  0  0  0  0  0  0  0
  189.4210  176.5020  134.5940 C   0  0  0  0  0  3  0  0  0  0  0  0
  191.3070  176.2260  137.6490 C   0  0  1  0  0  3  0  0  0  0  0  0
  191.2030  174.8840  138.0140 O   0  0  0  0  0  1  0  0  0  0  0  0
  192.7150  176.5670  137.3830 N   0  0  0  0  0  0  0  0  0  0  0  0
  194.4770  173.4780  137.3300 C   0  0  0  0  0  1  0  0  0  0  0  0
  194.3570  175.4700  138.7110 N   0  0  0  0  0  2  0  0  0  0  0  0
  194.4970  174.9910  137.3500 C   0  0  2  0  0  3  0  0  0  0  0  0
  193.5050  176.6480  138.6130 C   0  0  0  0  0  2  0  0  0  0  0  0
  193.3180  175.5200  136.5770 C   0  0  0  0  0  2  0  0  0  0  0  0
  1  8  1  0  0  0  0
  1  6  1  0  0  0  0
  2 12  1  0  0  0  0
  3 14  2  0  0  0  0
  3 10  1  0  0  0  0
  4 15  1  0  0  0  0
  4  8  2  0  0  0  0
  5  1  2  0  0  0  0
  7  4  1  0  0  0  0
  9  7  2  0  0  0  0
  9  5  1  0  0  0  0
 10 11  2  0  0  0  0
 11  2  1  0  0  0  0
 11  7  1  0  0  0  0
 12 15  2  0  0  0  0
 13  2  2  0  0  0  0
 14 13  1  0  0  0  0
 16 13  1  6  0  0  0
 16 20  1  0  0  0  0
 17 19  1  0  0  0  0
 17 21  1  0  0  0  0
 18 22  1  0  0  0  0
 18 17  1  0  0  0  0
 19 21  1  0  0  0  0
 21 16  1  0  0  0  0
 21 20  1  0  0  0  0
 22 19  1  0  0  0  0
 23 24  2  0  0  0  0
 24 18  1  0  0  0  0
 25  3  1  0  0  0  0
 26 25  1  0  0  0  0
 27 25  1  0  0  0  0
 28 27  1  0  0  0  0
 29 28  1  0  0  0  0
 30 28  1  0  0  0  0
 31 30  1  0  0  0  0
 32 34  2  0  0  0  0
 33 31  1  0  0  0  0
 34 31  1  0  0  0  0
 34 36  1  0  0  0  0
 35 32  1  0  0  0  0
 35 33  2  0  0  0  0
 36 37  1  0  0  0  0
 38 36  1  0  0  0  0
 38 42  1  0  0  0  0
 39 41  1  0  0  0  0
 41 40  1  0  0  0  0
 42 40  1  0  0  0  0
 43 41  1  0  0  0  0
 43 38  1  0  0  0  0
M  END
>  <MODEL>
8

>  <REMARK>
 VINA RESULT:      -9.1      2.956      4.428
  Name = 
  9 active torsions:
  status: ('A' for Active; 'I' for Inactive)
    1  A    between atoms: C_1  and  C_34
    2  A    between atoms: N_2  and  C_6
    3  A    between atoms: N_2  and  C_13
    4  A    between atoms: C_3  and  N_4
    5  A    between atoms: C_3  and  C_12
    6  A    between atoms: C_6  and  C_12
    7  A    between atoms: N_11  and  C_14
    8  A    between atoms: C_14  and  C_22
    9  A    between atoms: C_19  and  C_37
                            x       y       z     vdW  Elec       q    Type
                         _______ _______ _______ _____ _____    ______ ____

>  <TORSDO>
F 9

$$$$
=
 OpenBabel10262422103D

 43 50  0  0  1  0  0  0  0  0999 V2000
  188.4610  177.2000  146.8800 C   0  0  0  0  0  0  0  0  0  0  0  0
  188.5670  178.0870  141.8920 C   0  0  0  0  0  0  0  0  0  0  0  0
  185.9010  178.5400  141.0910 C   0  0  0  0  0  0  0  0  0  0  0  0
  189.1640  177.5390  144.5870 C   0  0  0  0  0  0  0  0  0  0  0  0
  187.1300  177.3970  146.5070 C   0  0  0  0  0  3  0  0  0  0  0  0
  188.7700  176.9430  148.1750 F   0  0  0  0  0  0  0  0  0  0  0  0
  187.8180  177.7480  144.1990 C   0  0  0  0  0  0  0  0  0  0  0  0
  189.4760  177.2690  145.9220 C   0  0  0  0  0  3  0  0  0  0  0  0
  186.8090  177.6710  145.1750 C   0  0  0  0  0  3  0  0  0  0  0  0
  186.2000  178.2540  142.4300 C   0  0  0  0  0  3  0  0  0  0  0  0
  187.5190  178.0280  142.8470 C   0  0  0  0  0  0  0  0  0  0  0  0
  189.8900  177.8740  142.3060 C   0  0  0  0  0  3  0  0  0  0  0  0
  188.2730  178.3510  140.5380 C   0  0  0  0  0  0  0  0  0  0  0  0
  186.9440  178.5860  140.1590 C   0  0  0  0  0  3  0  0  0  0  0  0
  190.1860  177.6030  143.6410 C   0  0  0  0  0  3  0  0  0  0  0  0
  189.3850  178.4050  139.4980 C   0  0  2  0  0  3  0  0  0  0  0  0
  187.9300  176.9730  138.2100 C   0  0  2  0  0  3  0  0  0  0  0  0
  188.0600  175.8380  137.2160 C   0  0  2  0  0  3  0  0  0  0  0  0
  187.9160  177.9630  137.1200 C   0  0  1  0  0  3  0  0  0  0  0  0
  189.0530  179.2820  138.4910 O   0  0  0  0  0  0  0  0  0  0  0  0
  189.1380  177.9300  138.0570 C   0  0  2  0  0  0  0  0  0  0  0  0
  188.0310  176.8520  136.0950 C   0  0  0  0  0  2  0  0  0  0  0  0
  186.8630  173.6960  137.1000 C   0  0  0  0  0  2  0  0  0  0  0  0
  186.8080  175.0200  137.2180 C   0  0  0  0  0  3  0  0  0  0  0  0
  184.5400  178.7710  140.6760 N   0  0  0  0  0  0  0  0  0  0  0  0
  183.4550  178.7680  141.6470 C   0  0  0  0  0  1  0  0  0  0  0  0
  184.2110  179.1110  139.2970 C   0  0  0  0  0  2  0  0  0  0  0  0
  183.7640  177.8680  138.5400 C   0  0  2  0  0  3  0  0  0  0  0  0
  184.5520  177.7130  137.4010 O   0  0  0  0  0  1  0  0  0  0  0  0
  182.3030  177.9640  138.1270 C   0  0  0  0  0  2  0  0  0  0  0  0
  181.4880  176.9740  138.8190 N   0  0  0  0  0  0  0  0  0  0  0  0
  180.5130  175.0510  139.3970 N   0  0  0  0  0  0  0  0  0  0  0  0
  180.6740  177.2300  139.8550 C   0  0  0  0  0  3  0  0  0  0  0  0
  181.3750  175.6590  138.5600 C   0  0  0  0  0  0  0  0  0  0  0  0
  180.0740  176.0360  140.2140 C   0  0  0  0  0  3  0  0  0  0  0  0
  182.0910  174.9420  137.4390 C   0  0  1  0  0  3  0  0  0  0  0  0
  183.3490  174.5120  137.8620 O   0  0  0  0  0  1  0  0  0  0  0  0
  181.3440  173.8150  136.8550 N   0  0  0  0  0  0  0  0  0  0  0  0
  183.7750  171.3580  136.0190 C   0  0  0  0  0  1  0  0  0  0  0  0
  182.2370  172.8440  134.8740 N   0  0  0  0  0  2  0  0  0  0  0  0
  182.3520  171.8660  135.9370 C   0  0  2  0  0  3  0  0  0  0  0  0
  181.3310  173.8610  135.3920 C   0  0  0  0  0  2  0  0  0  0  0  0
  181.9940  172.5700  137.2200 C   0  0  0  0  0  2  0  0  0  0  0  0
  1  6  1  0  0  0  0
  2 12  1  0  0  0  0
  2 11  1  0  0  0  0
  3 10  1  0  0  0  0
  4  8  1  0  0  0  0
  5  1  1  0  0  0  0
  7  4  2  0  0  0  0
  7  9  1  0  0  0  0
  8  1  2  0  0  0  0
  9  5  2  0  0  0  0
 10 11  2  0  0  0  0
 11  7  1  0  0  0  0
 12 15  2  0  0  0  0
 13  2  2  0  0  0  0
 14 13  1  0  0  0  0
 14  3  2  0  0  0  0
 15  4  1  0  0  0  0
 16 13  1  1  0  0  0
 18 24  1  0  0  0  0
 18 17  1  0  0  0  0
 19 21  1  0  0  0  0
 19 17  1  0  0  0  0
 20 16  1  0  0  0  0
 21 17  1  0  0  0  0
 21 20  1  0  0  0  0
 21 16  1  0  0  0  0
 22 19  1  0  0  0  0
 22 18  1  0  0  0  0
 23 24  2  0  0  0  0
 25  3  1  0  0  0  0
 25 26  1  0  0  0  0
 27 25  1  0  0  0  0
 28 27  1  0  0  0  0
 29 28  1  0  0  0  0
 30 28  1  0  0  0  0
 30 31  1  0  0  0  0
 31 33  1  0  0  0  0
 32 35  1  0  0  0  0
 33 35  2  0  0  0  0
 34 31  1  0  0  0  0
 34 32  2  0  0  0  0
 36 37  1  0  0  0  0
 36 34  1  0  0  0  0
 38 43  1  0  0  0  0
 38 36  1  0  0  0  0
 40 42  1  0  0  0  0
 40 41  1  0  0  0  0
 41 39  1  0  0  0  0
 41 43  1  0  0  0  0
 42 38  1  0  0  0  0
M  END
>  <MODEL>
9

>  <REMARK>
 VINA RESULT:      -9.1      2.437      5.055
  Name = 
  9 active torsions:
  status: ('A' for Active; 'I' for Inactive)
    1  A    between atoms: C_1  and  C_34
    2  A    between atoms: N_2  and  C_6
    3  A    between atoms: N_2  and  C_13
    4  A    between atoms: C_3  and  N_4
    5  A    between atoms: C_3  and  C_12
    6  A    between atoms: C_6  and  C_12
    7  A    between atoms: N_11  and  C_14
    8  A    between atoms: C_14  and  C_22
    9  A    between atoms: C_19  and  C_37
                            x       y       z     vdW  Elec       q    Type
                         _______ _______ _______ _____ _____    ______ ____

>  <TORSDO>
F 9

$$$$
