=
 OpenBabel10252415023D

 34 38  0  0  1  0  0  0  0  0999 V2000
  184.8010  178.7350  145.1140 C   0  0  0  0  0  0  0  0  0  0  0  0
  186.9030  177.5690  144.7480 C   0  0  0  0  0  0  0  0  0  0  0  0
  185.4990  178.3700  142.7970 C   0  0  0  0  0  0  0  0  0  0  0  0
  185.9990  178.1260  140.3800 C   0  0  2  0  0  3  0  0  0  0  0  0
  186.2520  178.2550  146.9860 C   0  0  0  0  0  3  0  0  0  0  0  0
  187.1440  177.6200  146.1260 C   0  0  0  0  0  3  0  0  0  0  0  0
  187.9680  178.2310  141.8180 C   0  0  0  0  0  2  0  0  0  0  0  0
  185.7710  178.2350  144.1970 C   0  0  0  0  0  0  0  0  0  0  0  0
  187.3430  178.2680  139.1640 S   0  0  0  0  0  0  0  0  0  0  0  0
  185.0680  178.7810  146.4830 C   0  0  0  0  0  3  0  0  0  0  0  0
  183.2320  179.1070  143.3190 C   0  0  0  0  0  3  0  0  0  0  0  0
  183.5480  179.1510  144.6700 C   0  0  0  0  0  3  0  0  0  0  0  0
  187.6940  176.5510  144.0040 C   0  0  0  0  0  1  0  0  0  0  0  0
  184.8950  178.9070  139.9890 O   0  0  0  0  0  0  0  0  0  0  0  0
  183.8230  178.7380  140.9110 C   0  0  2  0  0  3  0  0  0  0  0  0
  188.5920  178.5280  140.4690 C   0  0  2  0  0  3  0  0  0  0  0  0
  186.5230  178.6230  141.7050 C   0  0  2  0  0  3  0  0  0  0  0  0
  184.1900  178.7150  142.3860 C   0  0  0  0  0  0  0  0  0  0  0  0
  181.3190  176.6770  138.9130 C   0  0  1  0  0  3  0  0  0  0  0  0
  181.2990  175.3040  139.1590 O   0  0  0  0  0  1  0  0  0  0  0  0
  182.7520  177.7170  140.4810 C   0  0  2  0  0  3  0  0  0  0  0  0
  180.4640  177.3590  139.8870 N   0  0  0  0  0  2  0  0  0  0  0  0
  182.7350  177.1950  139.0580 C   0  0  2  0  0  3  0  0  0  0  0  0
  181.3320  178.1300  140.7740 C   0  0  0  0  0  2  0  0  0  0  0  0
  182.9560  178.2750  138.0100 C   0  0  0  0  0  1  0  0  0  0  0  0
  189.7860  177.6240  140.2340 C   0  0  0  0  0  2  0  0  0  0  0  0
  190.2070  177.0570  141.4660 O   0  0  0  0  0  0  0  0  0  0  0  0
  191.3840  177.4470  142.1060 C   0  0  0  0  0  0  0  0  0  0  0  0
  192.4830  177.3060  141.5090 O   0  0  0  0  0  0  0  0  0  0  0  0
  191.3690  178.1740  143.7490 S   0  0  0  0  0  0  0  0  0  0  0  0
  191.4060  176.5570  144.5820 C   0  0  0  0  0  2  0  0  0  0  0  0
  190.3300  176.9950  146.7680 C   0  0  0  0  0  1  0  0  0  0  0  0
  192.2820  175.4910  146.6510 C   0  0  0  0  0  1  0  0  0  0  0  0
  191.6490  176.7380  146.0700 C   0  0  0  0  0  3  0  0  0  0  0  0
  1 10  2  0  0  0  0
  2  6  1  0  0  0  0
  3  8  1  0  0  0  0
  4  9  1  6  0  0  0
  4 17  1  0  0  0  0
  6  5  2  0  0  0  0
  8  2  2  0  0  0  0
  8  1  1  0  0  0  0
  9 16  1  0  0  0  0
 10  5  1  0  0  0  0
 11 12  2  0  0  0  0
 12  1  1  0  0  0  0
 13  2  1  0  0  0  0
 14  4  1  0  0  0  0
 15 14  1  6  0  0  0
 15 18  1  0  0  0  0
 16 26  1  6  0  0  0
 16  7  1  0  0  0  0
 17  7  1  1  0  0  0
 17  3  1  0  0  0  0
 18  3  2  0  0  0  0
 18 11  1  0  0  0  0
 19 23  1  0  0  0  0
 19 20  1  1  0  0  0
 19 22  1  0  0  0  0
 21 24  1  6  0  0  0
 21 15  1  0  0  0  0
 22 24  1  0  0  0  0
 23 25  1  6  0  0  0
 23 21  1  0  0  0  0
 26 27  1  0  0  0  0
 27 28  1  0  0  0  0
 28 30  1  0  0  0  0
 29 28  2  0  0  0  0
 30 31  1  0  0  0  0
 31 34  1  0  0  0  0
 34 33  1  0  0  0  0
 34 32  1  0  0  0  0
M  END
>  <MODEL>
1

>  <REMARK>
 VINA RESULT:      -9.9      0.000      0.000
  Name = 
  7 active torsions:
  status: ('A' for Active; 'I' for Inactive)
    1  A    between atoms: O_3  and  C_13
    2  A    between atoms: O_3  and  C_17
    3  A    between atoms: S_11  and  C_13
    4  A    between atoms: S_11  and  C_14
    5  A    between atoms: C_12  and  C_28
    6  A    between atoms: C_14  and  C_34
    7  A    between atoms: C_17  and  C_29
                            x       y       z     vdW  Elec       q    Type
                         _______ _______ _______ _____ _____    ______ ____

>  <TORSDO>
F 7

$$$$
=
 OpenBabel10252415023D

 34 38  0  0  1  0  0  0  0  0999 V2000
  184.5850  178.8260  144.3690 C   0  0  0  0  0  0  0  0  0  0  0  0
  186.5930  177.4720  144.5810 C   0  0  0  0  0  0  0  0  0  0  0  0
  185.8650  178.3820  142.3300 C   0  0  0  0  0  0  0  0  0  0  0  0
  186.9950  178.0760  140.1440 C   0  0  2  0  0  3  0  0  0  0  0  0
  185.4090  178.2300  146.5610 C   0  0  0  0  0  3  0  0  0  0  0  0
  186.4450  177.5110  145.9720 C   0  0  0  0  0  3  0  0  0  0  0  0
  188.4870  178.0140  142.0750 C   0  0  0  0  0  2  0  0  0  0  0  0
  185.7230  178.2330  143.7490 C   0  0  0  0  0  0  0  0  0  0  0  0
  188.6310  178.0880  139.3530 S   0  0  0  0  0  0  0  0  0  0  0  0
  184.4630  178.8570  145.7590 C   0  0  0  0  0  3  0  0  0  0  0  0
  183.6170  179.3250  142.2160 C   0  0  0  0  0  3  0  0  0  0  0  0
  183.5470  179.3500  143.6020 C   0  0  0  0  0  3  0  0  0  0  0  0
  187.4660  176.3810  144.0670 C   0  0  0  0  0  1  0  0  0  0  0  0
  186.1170  178.9510  139.4760 O   0  0  0  0  0  0  0  0  0  0  0  0
  184.8200  178.8860  140.0610 C   0  0  2  0  0  3  0  0  0  0  0  0
  189.4850  178.2440  140.9570 C   0  0  2  0  0  3  0  0  0  0  0  0
  187.1710  178.5340  141.5710 C   0  0  2  0  0  3  0  0  0  0  0  0
  184.7590  178.8410  141.5790 C   0  0  0  0  0  0  0  0  0  0  0  0
  181.7660  177.4720  138.2750 C   0  0  1  0  0  3  0  0  0  0  0  0
  182.0090  176.6600  137.1670 O   0  0  0  0  0  1  0  0  0  0  0  0
  183.8250  177.9620  139.3310 C   0  0  2  0  0  3  0  0  0  0  0  0
  181.8250  176.6630  139.4940 N   0  0  0  0  0  2  0  0  0  0  0  0
  182.8280  178.5500  138.3520 C   0  0  2  0  0  3  0  0  0  0  0  0
  183.0190  177.0640  140.2350 C   0  0  0  0  0  2  0  0  0  0  0  0
  182.1720  179.8290  138.8450 C   0  0  0  0  0  1  0  0  0  0  0  0
  190.6120  177.2330  141.0470 C   0  0  0  0  0  2  0  0  0  0  0  0
  191.6750  177.7680  141.8230 O   0  0  0  0  0  0  0  0  0  0  0  0
  191.5860  177.9240  143.2070 C   0  0  0  0  0  0  0  0  0  0  0  0
  191.6720  179.0780  143.7010 O   0  0  0  0  0  0  0  0  0  0  0  0
  191.3230  176.5230  144.3000 S   0  0  0  0  0  0  0  0  0  0  0  0
  190.4430  177.5190  145.5420 C   0  0  0  0  0  2  0  0  0  0  0  0
  191.6210  176.3560  147.3830 C   0  0  0  0  0  1  0  0  0  0  0  0
  189.5100  177.5460  147.8470 C   0  0  0  0  0  1  0  0  0  0  0  0
  190.2630  176.7230  146.8220 C   0  0  0  0  0  3  0  0  0  0  0  0
  1 10  2  0  0  0  0
  2  6  1  0  0  0  0
  3  8  1  0  0  0  0
  4  9  1  6  0  0  0
  4 17  1  0  0  0  0
  6  5  2  0  0  0  0
  8  1  1  0  0  0  0
  8  2  2  0  0  0  0
  9 16  1  0  0  0  0
 10  5  1  0  0  0  0
 11 12  2  0  0  0  0
 12  1  1  0  0  0  0
 13  2  1  0  0  0  0
 14  4  1  0  0  0  0
 15 14  1  1  0  0  0
 15 18  1  0  0  0  0
 16 26  1  6  0  0  0
 16  7  1  0  0  0  0
 17  7  1  1  0  0  0
 17  3  1  0  0  0  0
 18 11  1  0  0  0  0
 18  3  2  0  0  0  0
 19 20  1  6  0  0  0
 19 23  1  0  0  0  0
 19 22  1  0  0  0  0
 21 15  1  0  0  0  0
 21 24  1  1  0  0  0
 22 24  1  0  0  0  0
 23 25  1  1  0  0  0
 23 21  1  0  0  0  0
 26 27  1  0  0  0  0
 27 28  1  0  0  0  0
 28 29  2  0  0  0  0
 28 30  1  0  0  0  0
 30 31  1  0  0  0  0
 31 34  1  0  0  0  0
 34 32  1  0  0  0  0
 34 33  1  0  0  0  0
M  END
>  <MODEL>
2

>  <REMARK>
 VINA RESULT:      -9.9      1.220      1.504
  Name = 
  7 active torsions:
  status: ('A' for Active; 'I' for Inactive)
    1  A    between atoms: O_3  and  C_13
    2  A    between atoms: O_3  and  C_17
    3  A    between atoms: S_11  and  C_13
    4  A    between atoms: S_11  and  C_14
    5  A    between atoms: C_12  and  C_28
    6  A    between atoms: C_14  and  C_34
    7  A    between atoms: C_17  and  C_29
                            x       y       z     vdW  Elec       q    Type
                         _______ _______ _______ _____ _____    ______ ____

>  <TORSDO>
F 7

$$$$
=
 OpenBabel10252415023D

 34 38  0  0  1  0  0  0  0  0999 V2000
  185.8930  178.4790  145.2440 C   0  0  0  0  0  0  0  0  0  0  0  0
  187.8520  177.2600  144.4830 C   0  0  0  0  0  0  0  0  0  0  0  0
  186.2250  178.2750  142.8270 C   0  0  0  0  0  0  0  0  0  0  0  0
  186.3550  178.2080  140.3520 C   0  0  2  0  0  3  0  0  0  0  0  0
  187.5720  177.7870  146.8370 C   0  0  0  0  0  3  0  0  0  0  0  0
  188.2940  177.1880  145.8090 C   0  0  0  0  0  3  0  0  0  0  0  0
  188.5150  178.1130  141.4840 C   0  0  0  0  0  2  0  0  0  0  0  0
  186.6900  178.0150  144.1580 C   0  0  0  0  0  0  0  0  0  0  0  0
  187.5130  178.3920  138.9630 S   0  0  0  0  0  0  0  0  0  0  0  0
  186.3570  178.4020  146.5570 C   0  0  0  0  0  3  0  0  0  0  0  0
  184.1010  179.0630  143.7360 C   0  0  0  0  0  3  0  0  0  0  0  0
  184.6120  178.9830  145.0240 C   0  0  0  0  0  3  0  0  0  0  0  0
  188.4710  176.2730  143.5550 C   0  0  0  0  0  1  0  0  0  0  0  0
  185.2490  179.0650  140.1890 O   0  0  0  0  0  0  0  0  0  0  0  0
  184.3150  178.8660  141.2460 C   0  0  2  0  0  3  0  0  0  0  0  0
  188.9510  178.4930  140.0820 C   0  0  2  0  0  3  0  0  0  0  0  0
  187.0910  178.5730  141.6170 C   0  0  2  0  0  3  0  0  0  0  0  0
  184.8910  178.7070  142.6430 C   0  0  0  0  0  0  0  0  0  0  0  0
  181.5310  176.9840  139.4510 C   0  0  1  0  0  3  0  0  0  0  0  0
  181.4150  175.6220  139.7300 O   0  0  0  0  0  1  0  0  0  0  0  0
  183.1400  177.9300  140.9050 C   0  0  2  0  0  3  0  0  0  0  0  0
  180.7980  177.7510  140.4600 N   0  0  0  0  0  2  0  0  0  0  0  0
  182.9910  177.3850  139.4980 C   0  0  2  0  0  3  0  0  0  0  0  0
  181.7790  178.4640  141.2740 C   0  0  0  0  0  2  0  0  0  0  0  0
  183.2330  178.4230  138.4140 C   0  0  0  0  0  1  0  0  0  0  0  0
  190.0470  177.5600  139.6050 C   0  0  0  0  0  2  0  0  0  0  0  0
  189.9150  177.3400  138.2090 O   0  0  0  0  0  0  0  0  0  0  0  0
  190.6180  176.3360  137.5400 C   0  0  0  0  0  0  0  0  0  0  0  0
  191.8430  176.4990  137.3030 O   0  0  0  0  0  0  0  0  0  0  0  0
  189.8250  174.8060  137.0330 S   0  0  0  0  0  0  0  0  0  0  0  0
  188.3200  175.6500  136.4560 C   0  0  0  0  0  2  0  0  0  0  0  0
  185.8460  175.6620  136.5270 C   0  0  0  0  0  1  0  0  0  0  0  0
  187.0670  173.5660  136.9810 C   0  0  0  0  0  1  0  0  0  0  0  0
  187.0970  175.0720  137.1440 C   0  0  0  0  0  3  0  0  0  0  0  0
  1 10  2  0  0  0  0
  2  6  1  0  0  0  0
  3  8  1  0  0  0  0
  4  9  1  6  0  0  0
  4 17  1  0  0  0  0
  6  5  2  0  0  0  0
  8  2  2  0  0  0  0
  8  1  1  0  0  0  0
  9 16  1  0  0  0  0
 10  5  1  0  0  0  0
 11 12  2  0  0  0  0
 12  1  1  0  0  0  0
 13  2  1  0  0  0  0
 14  4  1  0  0  0  0
 15 14  1  6  0  0  0
 15 18  1  0  0  0  0
 16 26  1  6  0  0  0
 16  7  1  0  0  0  0
 17  7  1  1  0  0  0
 17  3  1  0  0  0  0
 18  3  2  0  0  0  0
 18 11  1  0  0  0  0
 19 23  1  0  0  0  0
 19 20  1  1  0  0  0
 19 22  1  0  0  0  0
 21 15  1  0  0  0  0
 21 24  1  6  0  0  0
 22 24  1  0  0  0  0
 23 25  1  6  0  0  0
 23 21  1  0  0  0  0
 27 26  1  0  0  0  0
 28 27  1  0  0  0  0
 29 28  2  0  0  0  0
 30 28  1  0  0  0  0
 31 30  1  0  0  0  0
 31 34  1  0  0  0  0
 32 34  1  0  0  0  0
 33 34  1  0  0  0  0
M  END
>  <MODEL>
3

>  <REMARK>
 VINA RESULT:      -8.8      2.218      4.058
  Name = 
  7 active torsions:
  status: ('A' for Active; 'I' for Inactive)
    1  A    between atoms: O_3  and  C_13
    2  A    between atoms: O_3  and  C_17
    3  A    between atoms: S_11  and  C_13
    4  A    between atoms: S_11  and  C_14
    5  A    between atoms: C_12  and  C_28
    6  A    between atoms: C_14  and  C_34
    7  A    between atoms: C_17  and  C_29
                            x       y       z     vdW  Elec       q    Type
                         _______ _______ _______ _____ _____    ______ ____

>  <TORSDO>
F 7

$$$$
=
 OpenBabel10252415023D

 34 38  0  0  1  0  0  0  0  0999 V2000
  184.4570  178.8790  143.2260 C   0  0  0  0  0  0  0  0  0  0  0  0
  186.4250  177.6680  143.9800 C   0  0  0  0  0  0  0  0  0  0  0  0
  186.1460  178.3150  141.5450 C   0  0  0  0  0  0  0  0  0  0  0  0
  187.7130  177.8650  139.6770 C   0  0  2  0  0  3  0  0  0  0  0  0
  184.8310  178.5440  145.5890 C   0  0  0  0  0  3  0  0  0  0  0  0
  185.9920  177.8320  145.3000 C   0  0  0  0  0  3  0  0  0  0  0  0
  188.7760  178.0730  141.8640 C   0  0  0  0  0  2  0  0  0  0  0  0
  185.7200  178.2950  142.9140 C   0  0  0  0  0  0  0  0  0  0  0  0
  189.4760  177.8930  139.2350 S   0  0  0  0  0  0  0  0  0  0  0  0
  184.0490  179.0370  144.5510 C   0  0  0  0  0  3  0  0  0  0  0  0
  183.9380  179.1130  140.8810 C   0  0  0  0  0  3  0  0  0  0  0  0
  183.5820  179.2670  142.2140 C   0  0  0  0  0  3  0  0  0  0  0  0
  187.4250  176.5840  143.7710 C   0  0  0  0  0  1  0  0  0  0  0  0
  186.9610  178.6200  138.7570 O   0  0  0  0  0  0  0  0  0  0  0  0
  185.5740  178.5380  139.0710 C   0  0  2  0  0  3  0  0  0  0  0  0
  189.9740  178.2510  140.9530 C   0  0  2  0  0  3  0  0  0  0  0  0
  187.5740  178.4670  141.0530 C   0  0  2  0  0  3  0  0  0  0  0  0
  185.2030  178.6350  140.5420 C   0  0  0  0  0  0  0  0  0  0  0  0
  184.2740  176.2760  136.2960 C   0  0  1  0  0  3  0  0  0  0  0  0
  183.9950  174.9540  136.6440 O   0  0  0  0  0  1  0  0  0  0  0  0
  184.7850  177.4940  138.2580 C   0  0  2  0  0  3  0  0  0  0  0  0
  183.1110  177.1140  136.5940 N   0  0  0  0  0  2  0  0  0  0  0  0
  185.4550  176.7710  137.1060 C   0  0  2  0  0  3  0  0  0  0  0  0
  183.4670  177.9830  137.7140 C   0  0  0  0  0  2  0  0  0  0  0  0
  186.2900  177.6810  136.2190 C   0  0  0  0  0  1  0  0  0  0  0  0
  191.0940  177.3190  141.3750 C   0  0  0  0  0  2  0  0  0  0  0  0
  190.6600  176.5070  142.4560 O   0  0  0  0  0  0  0  0  0  0  0  0
  191.3780  176.4010  143.6480 C   0  0  0  0  0  0  0  0  0  0  0  0
  191.9000  175.2970  143.9540 O   0  0  0  0  0  0  0  0  0  0  0  0
  191.6020  177.8070  144.7440 S   0  0  0  0  0  0  0  0  0  0  0  0
  189.9520  177.6270  145.4880 C   0  0  0  0  0  2  0  0  0  0  0  0
  188.7890  176.7730  147.4990 C   0  0  0  0  0  1  0  0  0  0  0  0
  191.2240  176.4490  147.2710 C   0  0  0  0  0  1  0  0  0  0  0  0
  190.0720  177.3890  146.9820 C   0  0  0  0  0  3  0  0  0  0  0  0
  1 10  2  0  0  0  0
  2  6  1  0  0  0  0
  3  8  1  0  0  0  0
  4 14  1  6  0  0  0
  4 17  1  0  0  0  0
  6  5  2  0  0  0  0
  8  1  1  0  0  0  0
  8  2  2  0  0  0  0
  9  4  1  0  0  0  0
  9 16  1  0  0  0  0
 10  5  1  0  0  0  0
 11 12  2  0  0  0  0
 12  1  1  0  0  0  0
 13  2  1  0  0  0  0
 15 14  1  1  0  0  0
 15 18  1  0  0  0  0
 16 26  1  1  0  0  0
 16  7  1  0  0  0  0
 17  3  1  0  0  0  0
 17  7  1  1  0  0  0
 18 11  1  0  0  0  0
 18  3  2  0  0  0  0
 19 22  1  0  0  0  0
 19 20  1  1  0  0  0
 19 23  1  0  0  0  0
 21 24  1  6  0  0  0
 21 15  1  0  0  0  0
 22 24  1  0  0  0  0
 23 25  1  6  0  0  0
 23 21  1  0  0  0  0
 26 27  1  0  0  0  0
 27 28  1  0  0  0  0
 28 29  2  0  0  0  0
 28 30  1  0  0  0  0
 30 31  1  0  0  0  0
 31 34  1  0  0  0  0
 34 33  1  0  0  0  0
 34 32  1  0  0  0  0
M  END
>  <MODEL>
4

>  <REMARK>
 VINA RESULT:      -8.7      1.819      2.367
  Name = 
  7 active torsions:
  status: ('A' for Active; 'I' for Inactive)
    1  A    between atoms: O_3  and  C_13
    2  A    between atoms: O_3  and  C_17
    3  A    between atoms: S_11  and  C_13
    4  A    between atoms: S_11  and  C_14
    5  A    between atoms: C_12  and  C_28
    6  A    between atoms: C_14  and  C_34
    7  A    between atoms: C_17  and  C_29
                            x       y       z     vdW  Elec       q    Type
                         _______ _______ _______ _____ _____    ______ ____

>  <TORSDO>
F 7

$$$$
=
 OpenBabel10252415023D

 34 38  0  0  1  0  0  0  0  0999 V2000
  185.2820  178.7930  145.0230 C   0  0  0  0  0  0  0  0  0  0  0  0
  187.2910  177.4910  144.6010 C   0  0  0  0  0  0  0  0  0  0  0  0
  185.9130  178.4190  142.6880 C   0  0  0  0  0  0  0  0  0  0  0  0
  186.3540  178.1820  140.2590 C   0  0  2  0  0  3  0  0  0  0  0  0
  186.7270  178.1820  146.8600 C   0  0  0  0  0  3  0  0  0  0  0  0
  187.5590  177.5020  145.9750 C   0  0  0  0  0  3  0  0  0  0  0  0
  188.3500  178.1270  141.6630 C   0  0  0  0  0  2  0  0  0  0  0  0
  186.1990  178.2420  144.0810 C   0  0  0  0  0  0  0  0  0  0  0  0
  187.6840  178.2510  139.0220 S   0  0  0  0  0  0  0  0  0  0  0  0
  185.5740  178.7970  146.3880 C   0  0  0  0  0  3  0  0  0  0  0  0
  183.7120  179.3020  143.2630 C   0  0  0  0  0  3  0  0  0  0  0  0
  184.0530  179.3020  144.6090 C   0  0  0  0  0  3  0  0  0  0  0  0
  187.9970  176.4330  143.8270 C   0  0  0  0  0  1  0  0  0  0  0  0
  185.3010  179.0440  139.9010 O   0  0  0  0  0  0  0  0  0  0  0  0
  184.2350  178.9340  140.8390 C   0  0  2  0  0  3  0  0  0  0  0  0
  188.9700  178.4030  140.3070 C   0  0  2  0  0  3  0  0  0  0  0  0
  186.9330  178.6200  141.5820 C   0  0  2  0  0  3  0  0  0  0  0  0
  184.6250  178.8600  142.3060 C   0  0  0  0  0  0  0  0  0  0  0  0
  181.3360  177.2990  138.9850 C   0  0  1  0  0  3  0  0  0  0  0  0
  181.3630  175.9080  138.8820 O   0  0  0  0  0  1  0  0  0  0  0  0
  183.0890  177.9960  140.4120 C   0  0  2  0  0  3  0  0  0  0  0  0
  180.7240  177.6810  140.2590 N   0  0  0  0  0  2  0  0  0  0  0  0
  182.7530  177.8340  138.9430 C   0  0  2  0  0  3  0  0  0  0  0  0
  181.7720  178.2550  141.1000 C   0  0  0  0  0  2  0  0  0  0  0  0
  182.7410  179.1460  138.1730 C   0  0  0  0  0  1  0  0  0  0  0  0
  190.0940  177.4220  140.0370 C   0  0  0  0  0  2  0  0  0  0  0  0
  190.0560  177.0130  138.6780 O   0  0  0  0  0  0  0  0  0  0  0  0
  190.9070  176.0310  138.1680 C   0  0  0  0  0  0  0  0  0  0  0  0
  190.4570  174.8720  137.9680 O   0  0  0  0  0  0  0  0  0  0  0  0
  192.6210  176.3840  137.7620 S   0  0  0  0  0  0  0  0  0  0  0  0
  192.6590  175.1790  136.3990 C   0  0  0  0  0  2  0  0  0  0  0  0
  194.3960  174.3730  137.9690 C   0  0  0  0  0  1  0  0  0  0  0  0
  193.3770  172.7980  136.3660 C   0  0  0  0  0  1  0  0  0  0  0  0
  193.8300  174.2280  136.5710 C   0  0  0  0  0  3  0  0  0  0  0  0
  1 10  2  0  0  0  0
  2  6  1  0  0  0  0
  3  8  1  0  0  0  0
  4  9  1  6  0  0  0
  4 17  1  0  0  0  0
  6  5  2  0  0  0  0
  8  2  2  0  0  0  0
  8  1  1  0  0  0  0
  9 16  1  0  0  0  0
 10  5  1  0  0  0  0
 11 12  2  0  0  0  0
 12  1  1  0  0  0  0
 13  2  1  0  0  0  0
 14  4  1  0  0  0  0
 15 14  1  6  0  0  0
 15 18  1  0  0  0  0
 16 26  1  6  0  0  0
 16  7  1  0  0  0  0
 17  7  1  1  0  0  0
 17  3  1  0  0  0  0
 18  3  2  0  0  0  0
 18 11  1  0  0  0  0
 19 20  1  1  0  0  0
 19 22  1  0  0  0  0
 21 15  1  0  0  0  0
 21 24  1  1  0  0  0
 22 24  1  0  0  0  0
 23 25  1  6  0  0  0
 23 19  1  0  0  0  0
 23 21  1  0  0  0  0
 27 26  1  0  0  0  0
 28 27  1  0  0  0  0
 29 28  2  0  0  0  0
 30 28  1  0  0  0  0
 31 34  1  0  0  0  0
 31 30  1  0  0  0  0
 33 34  1  0  0  0  0
 34 32  1  0  0  0  0
M  END
>  <MODEL>
5

>  <REMARK>
 VINA RESULT:      -8.6      2.601      3.766
  Name = 
  7 active torsions:
  status: ('A' for Active; 'I' for Inactive)
    1  A    between atoms: O_3  and  C_13
    2  A    between atoms: O_3  and  C_17
    3  A    between atoms: S_11  and  C_13
    4  A    between atoms: S_11  and  C_14
    5  A    between atoms: C_12  and  C_28
    6  A    between atoms: C_14  and  C_34
    7  A    between atoms: C_17  and  C_29
                            x       y       z     vdW  Elec       q    Type
                         _______ _______ _______ _____ _____    ______ ____

>  <TORSDO>
F 7

$$$$
=
 OpenBabel10252415023D

 34 38  0  0  1  0  0  0  0  0999 V2000
  185.0490  178.8260  141.6800 C   0  0  0  0  0  0  0  0  0  0  0  0
  186.5060  177.8090  143.3380 C   0  0  0  0  0  0  0  0  0  0  0  0
  187.2670  178.1040  140.9390 C   0  0  0  0  0  0  0  0  0  0  0  0
  189.4550  177.4640  139.9630 C   0  0  2  0  0  3  0  0  0  0  0  0
  184.4090  178.8340  144.0100 C   0  0  0  0  0  3  0  0  0  0  0  0
  185.5710  178.1350  144.3270 C   0  0  0  0  0  3  0  0  0  0  0  0
  189.5270  178.0120  142.3400 C   0  0  0  0  0  2  0  0  0  0  0  0
  186.3150  178.2550  142.0000 C   0  0  0  0  0  0  0  0  0  0  0  0
  191.2440  177.5010  140.2850 S   0  0  0  0  0  0  0  0  0  0  0  0
  184.1350  179.1480  142.6840 C   0  0  0  0  0  3  0  0  0  0  0  0
  185.5460  178.7150  139.3210 C   0  0  0  0  0  3  0  0  0  0  0  0
  184.6760  179.0370  140.3540 C   0  0  0  0  0  3  0  0  0  0  0  0
  187.4800  176.7470  143.7140 C   0  0  0  0  0  1  0  0  0  0  0  0
  189.1650  178.0560  138.7190 O   0  0  0  0  0  0  0  0  0  0  0  0
  187.7700  177.9630  138.4440 C   0  0  2  0  0  3  0  0  0  0  0  0
  190.9970  178.1110  141.9870 C   0  0  2  0  0  3  0  0  0  0  0  0
  188.7740  178.2430  141.0610 C   0  0  2  0  0  3  0  0  0  0  0  0
  186.8280  178.2460  139.6030 C   0  0  0  0  0  0  0  0  0  0  0  0
  187.7120  175.2490  135.7710 C   0  0  1  0  0  3  0  0  0  0  0  0
  187.2220  174.0010  136.1560 O   0  0  0  0  0  1  0  0  0  0  0  0
  187.3650  176.7860  137.5350 C   0  0  2  0  0  3  0  0  0  0  0  0
  186.5960  176.1100  135.3750 N   0  0  0  0  0  2  0  0  0  0  0  0
  188.4320  175.8890  136.9400 C   0  0  2  0  0  3  0  0  0  0  0  0
  186.4650  177.1590  136.3840 C   0  0  0  0  0  2  0  0  0  0  0  0
  189.6340  176.6490  136.3990 C   0  0  0  0  0  1  0  0  0  0  0  0
  191.8250  177.2910  142.9580 C   0  0  0  0  0  2  0  0  0  0  0  0
  191.1570  177.2130  144.2090 O   0  0  0  0  0  0  0  0  0  0  0  0
  191.4910  176.2660  145.1780 C   0  0  0  0  0  0  0  0  0  0  0  0
  192.0570  175.1990  144.8240 O   0  0  0  0  0  0  0  0  0  0  0  0
  191.1610  176.5430  146.9220 S   0  0  0  0  0  0  0  0  0  0  0  0
  189.6540  177.5070  146.5950 C   0  0  0  0  0  2  0  0  0  0  0  0
  189.1180  178.2530  148.8940 C   0  0  0  0  0  1  0  0  0  0  0  0
  187.2870  177.7740  147.3110 C   0  0  0  0  0  1  0  0  0  0  0  0
  188.6780  177.3650  147.7490 C   0  0  0  0  0  3  0  0  0  0  0  0
  1  8  1  0  0  0  0
  1 10  2  0  0  0  0
  2 13  1  0  0  0  0
  2  6  1  0  0  0  0
  3 17  1  0  0  0  0
  3  8  1  0  0  0  0
  4 14  1  6  0  0  0
  4  9  1  0  0  0  0
  4 17  1  0  0  0  0
  5  6  2  0  0  0  0
  8  2  2  0  0  0  0
  9 16  1  0  0  0  0
 10  5  1  0  0  0  0
 11 18  1  0  0  0  0
 11 12  2  0  0  0  0
 12  1  1  0  0  0  0
 15 14  1  1  0  0  0
 15 18  1  0  0  0  0
 16  7  1  0  0  0  0
 16 26  1  1  0  0  0
 17  7  1  1  0  0  0
 18  3  2  0  0  0  0
 19 20  1  1  0  0  0
 19 23  1  0  0  0  0
 21 24  1  6  0  0  0
 21 15  1  0  0  0  0
 22 19  1  0  0  0  0
 22 24  1  0  0  0  0
 23 25  1  6  0  0  0
 23 21  1  0  0  0  0
 26 27  1  0  0  0  0
 27 28  1  0  0  0  0
 28 30  1  0  0  0  0
 29 28  2  0  0  0  0
 31 30  1  0  0  0  0
 31 34  1  0  0  0  0
 33 34  1  0  0  0  0
 34 32  1  0  0  0  0
M  END
>  <MODEL>
6

>  <REMARK>
 VINA RESULT:      -8.4      2.900      4.362
  Name = 
  7 active torsions:
  status: ('A' for Active; 'I' for Inactive)
    1  A    between atoms: O_3  and  C_13
    2  A    between atoms: O_3  and  C_17
    3  A    between atoms: S_11  and  C_13
    4  A    between atoms: S_11  and  C_14
    5  A    between atoms: C_12  and  C_28
    6  A    between atoms: C_14  and  C_34
    7  A    between atoms: C_17  and  C_29
                            x       y       z     vdW  Elec       q    Type
                         _______ _______ _______ _____ _____    ______ ____

>  <TORSDO>
F 7

$$$$
=
 OpenBabel10252415023D

 34 38  0  0  1  0  0  0  0  0999 V2000
  192.7480  176.3480  138.4550 C   0  0  0  0  0  0  0  0  0  0  0  0
  191.1080  175.3370  136.9730 C   0  0  0  0  0  0  0  0  0  0  0  0
  190.3980  176.9380  138.8050 C   0  0  0  0  0  0  0  0  0  0  0  0
  188.0960  177.6880  139.3420 C   0  0  2  0  0  3  0  0  0  0  0  0
  193.4830  175.0690  136.5420 C   0  0  0  0  0  3  0  0  0  0  0  0
  192.1560  174.8030  136.2150 C   0  0  0  0  0  3  0  0  0  0  0  0
  188.4490  177.0950  137.0010 C   0  0  0  0  0  2  0  0  0  0  0  0
  191.3870  176.2240  138.0510 C   0  0  0  0  0  0  0  0  0  0  0  0
  186.5480  178.2530  138.5750 S   0  0  0  0  0  0  0  0  0  0  0  0
  193.7760  175.8120  137.6790 C   0  0  0  0  0  3  0  0  0  0  0  0
  192.0900  177.5030  140.4690 C   0  0  0  0  0  3  0  0  0  0  0  0
  193.0820  176.9710  139.6560 C   0  0  0  0  0  3  0  0  0  0  0  0
  189.7870  174.6780  136.7780 C   0  0  0  0  0  1  0  0  0  0  0  0
  188.5360  178.6130  140.3070 O   0  0  0  0  0  0  0  0  0  0  0  0
  189.7120  178.1310  140.9500 C   0  0  2  0  0  3  0  0  0  0  0  0
  187.1640  177.8920  136.8960 C   0  0  2  0  0  3  0  0  0  0  0  0
  189.1320  177.5690  138.2520 C   0  0  2  0  0  3  0  0  0  0  0  0
  190.7590  177.4840  140.0580 C   0  0  0  0  0  0  0  0  0  0  0  0
  189.8760  177.0640  144.6030 C   0  0  1  0  0  3  0  0  0  0  0  0
  188.6580  176.8410  145.2460 O   0  0  0  0  0  1  0  0  0  0  0  0
  189.4720  177.4310  142.3020 C   0  0  2  0  0  3  0  0  0  0  0  0
  190.2840  175.8470  143.8980 N   0  0  0  0  0  2  0  0  0  0  0  0
  189.7160  178.1830  143.5960 C   0  0  2  0  0  3  0  0  0  0  0  0
  190.1830  176.1110  142.4650 C   0  0  0  0  0  2  0  0  0  0  0  0
  190.9960  179.0040  143.5900 C   0  0  0  0  0  1  0  0  0  0  0  0
  186.1250  177.1070  136.1190 C   0  0  0  0  0  2  0  0  0  0  0  0
  184.9840  176.8840  136.9340 O   0  0  0  0  0  0  0  0  0  0  0  0
  183.7560  176.4800  136.4080 C   0  0  0  0  0  0  0  0  0  0  0  0
  182.8950  177.3510  136.1190 O   0  0  0  0  0  0  0  0  0  0  0  0
  183.3820  174.7490  136.1060 S   0  0  0  0  0  0  0  0  0  0  0  0
  183.9900  174.2210  137.7370 C   0  0  0  0  0  2  0  0  0  0  0  0
  184.3550  172.1010  136.5110 C   0  0  0  0  0  1  0  0  0  0  0  0
  186.2970  173.4490  137.2180 C   0  0  0  0  0  1  0  0  0  0  0  0
  184.8960  173.0110  137.5940 C   0  0  0  0  0  3  0  0  0  0  0  0
  1 12  1  0  0  0  0
  2  8  1  0  0  0  0
  3 18  2  0  0  0  0
  4  9  1  6  0  0  0
  4 14  1  0  0  0  0
  5 10  2  0  0  0  0
  6  5  1  0  0  0  0
  6  2  2  0  0  0  0
  8  1  2  0  0  0  0
  8  3  1  0  0  0  0
 10  1  1  0  0  0  0
 12 11  2  0  0  0  0
 13  2  1  0  0  0  0
 14 15  1  0  0  0  0
 15 18  1  6  0  0  0
 15 21  1  0  0  0  0
 16 26  1  6  0  0  0
 16  7  1  0  0  0  0
 16  9  1  0  0  0  0
 17  7  1  6  0  0  0
 17  3  1  0  0  0  0
 17  4  1  0  0  0  0
 18 11  1  0  0  0  0
 19 20  1  6  0  0  0
 21 24  1  1  0  0  0
 21 23  1  0  0  0  0
 22 19  1  0  0  0  0
 23 25  1  6  0  0  0
 23 19  1  0  0  0  0
 24 22  1  0  0  0  0
 26 27  1  0  0  0  0
 28 27  1  0  0  0  0
 29 28  2  0  0  0  0
 30 28  1  0  0  0  0
 30 31  1  0  0  0  0
 32 34  1  0  0  0  0
 33 34  1  0  0  0  0
 34 31  1  0  0  0  0
M  END
>  <MODEL>
7

>  <REMARK>
 VINA RESULT:      -7.0      4.223      9.048
  Name = 
  7 active torsions:
  status: ('A' for Active; 'I' for Inactive)
    1  A    between atoms: O_3  and  C_13
    2  A    between atoms: O_3  and  C_17
    3  A    between atoms: S_11  and  C_13
    4  A    between atoms: S_11  and  C_14
    5  A    between atoms: C_12  and  C_28
    6  A    between atoms: C_14  and  C_34
    7  A    between atoms: C_17  and  C_29
                            x       y       z     vdW  Elec       q    Type
                         _______ _______ _______ _____ _____    ______ ____

>  <TORSDO>
F 7

$$$$
=
 OpenBabel10252415023D

 34 38  0  0  1  0  0  0  0  0999 V2000
  190.9090  176.3710  137.8810 C   0  0  0  0  0  0  0  0  0  0  0  0
  188.7650  175.6470  136.9970 C   0  0  0  0  0  0  0  0  0  0  0  0
  188.8940  177.1810  139.0100 C   0  0  0  0  0  0  0  0  0  0  0  0
  187.0040  178.1310  140.3040 C   0  0  2  0  0  3  0  0  0  0  0  0
  190.8170  175.1600  135.7930 C   0  0  0  0  0  3  0  0  0  0  0  0
  189.4340  175.0610  135.9170 C   0  0  0  0  0  3  0  0  0  0  0  0
  186.4990  177.6720  137.9610 C   0  0  0  0  0  2  0  0  0  0  0  0
  189.4870  176.4210  137.9490 C   0  0  0  0  0  0  0  0  0  0  0  0
  185.3730  178.9110  140.1130 S   0  0  0  0  0  0  0  0  0  0  0  0
  191.5540  175.7850  136.7910 C   0  0  0  0  0  3  0  0  0  0  0  0
  191.0920  177.4430  140.0360 C   0  0  0  0  0  3  0  0  0  0  0  0
  191.6900  176.8680  138.9230 C   0  0  0  0  0  3  0  0  0  0  0  0
  187.3810  175.1490  137.2300 C   0  0  0  0  0  1  0  0  0  0  0  0
  187.8450  178.9330  141.0980 O   0  0  0  0  0  0  0  0  0  0  0  0
  189.0970  178.2850  141.2980 C   0  0  2  0  0  3  0  0  0  0  0  0
  185.3590  178.6060  138.3150 C   0  0  2  0  0  3  0  0  0  0  0  0
  187.6060  177.9800  138.9290 C   0  0  2  0  0  3  0  0  0  0  0  0
  189.7080  177.5950  140.0890 C   0  0  0  0  0  0  0  0  0  0  0  0
  190.2140  177.0680  144.7310 C   0  0  1  0  0  3  0  0  0  0  0  0
  189.2070  176.7780  145.6520 O   0  0  0  0  0  1  0  0  0  0  0  0
  189.2260  177.5200  142.6300 C   0  0  2  0  0  3  0  0  0  0  0  0
  190.4520  175.8960  143.8850 N   0  0  0  0  0  2  0  0  0  0  0  0
  189.7780  178.2230  143.8540 C   0  0  2  0  0  3  0  0  0  0  0  0
  189.9810  176.2180  142.5400 C   0  0  0  0  0  2  0  0  0  0  0  0
  190.9970  179.0850  143.5640 C   0  0  0  0  0  1  0  0  0  0  0  0
  184.0340  177.9940  137.9010 C   0  0  0  0  0  2  0  0  0  0  0  0
  184.1120  176.5780  137.9900 O   0  0  0  0  0  0  0  0  0  0  0  0
  183.0850  175.8050  138.5330 C   0  0  0  0  0  0  0  0  0  0  0  0
  182.6770  176.0570  139.6970 O   0  0  0  0  0  0  0  0  0  0  0  0
  182.3100  174.4780  137.6030 S   0  0  0  0  0  0  0  0  0  0  0  0
  183.8690  173.9750  136.8130 C   0  0  0  0  0  2  0  0  0  0  0  0
  182.9640  171.6700  136.8470 C   0  0  0  0  0  1  0  0  0  0  0  0
  185.3410  172.0370  136.2980 C   0  0  0  0  0  1  0  0  0  0  0  0
  184.1800  172.5250  137.1390 C   0  0  0  0  0  3  0  0  0  0  0  0
  1  8  2  0  0  0  0
  1 12  1  0  0  0  0
  2 13  1  0  0  0  0
  2  8  1  0  0  0  0
  3 18  2  0  0  0  0
  4  9  1  6  0  0  0
  4 14  1  0  0  0  0
  5  6  1  0  0  0  0
  5 10  2  0  0  0  0
  6  2  2  0  0  0  0
  7 16  1  0  0  0  0
  8  3  1  0  0  0  0
 10  1  1  0  0  0  0
 11 18  1  0  0  0  0
 12 11  2  0  0  0  0
 14 15  1  0  0  0  0
 15 18  1  6  0  0  0
 15 21  1  0  0  0  0
 16 26  1  1  0  0  0
 16  9  1  0  0  0  0
 17  7  1  6  0  0  0
 17  3  1  0  0  0  0
 17  4  1  0  0  0  0
 19 20  1  1  0  0  0
 21 24  1  6  0  0  0
 21 23  1  0  0  0  0
 22 19  1  0  0  0  0
 23 25  1  6  0  0  0
 23 19  1  0  0  0  0
 24 22  1  0  0  0  0
 26 27  1  0  0  0  0
 27 28  1  0  0  0  0
 28 29  2  0  0  0  0
 30 28  1  0  0  0  0
 31 34  1  0  0  0  0
 31 30  1  0  0  0  0
 32 34  1  0  0  0  0
 33 34  1  0  0  0  0
M  END
>  <MODEL>
8

>  <REMARK>
 VINA RESULT:      -6.9      3.814      8.881
  Name = 
  7 active torsions:
  status: ('A' for Active; 'I' for Inactive)
    1  A    between atoms: O_3  and  C_13
    2  A    between atoms: O_3  and  C_17
    3  A    between atoms: S_11  and  C_13
    4  A    between atoms: S_11  and  C_14
    5  A    between atoms: C_12  and  C_28
    6  A    between atoms: C_14  and  C_34
    7  A    between atoms: C_17  and  C_29
                            x       y       z     vdW  Elec       q    Type
                         _______ _______ _______ _____ _____    ______ ____

>  <TORSDO>
F 7

$$$$
