=
 OpenBabel10262422383D

 43 48  0  0  1  0  0  0  0  0999 V2000
  187.6320  177.3790  145.2250 C   0  0  0  0  0  0  0  0  0  0  0  0
  190.0360  177.2520  140.7570 C   0  0  1  0  0  3  0  0  0  0  0  0
  188.0250  178.6420  140.2540 C   0  0  0  0  0  2  0  0  0  0  0  0
  189.1800  176.9570  143.4100 C   0  0  0  0  0  0  0  0  0  0  0  0
  186.6820  177.8450  144.3110 C   0  0  0  0  0  3  0  0  0  0  0  0
  187.3350  177.3520  146.5800 O   0  0  0  0  0  1  0  0  0  0  0  0
  188.2400  177.4650  142.4870 C   0  0  0  0  0  0  0  0  0  0  0  0
  188.8780  176.9360  144.7750 C   0  0  0  0  0  3  0  0  0  0  0  0
  186.9820  177.8800  142.9470 C   0  0  0  0  0  3  0  0  0  0  0  0
  188.3200  178.5730  138.8100 N   0  0  0  0  0  0  0  0  0  0  0  0
  188.5380  177.4150  141.0100 C   0  0  2  0  0  3  0  0  0  0  0  0
  190.5250  176.1180  141.5380 N   0  0  0  0  0  2  0  0  0  0  0  0
  190.2630  177.0500  139.2600 C   0  0  1  0  0  3  0  0  0  0  0  0
  189.7270  178.2700  138.5030 C   0  0  0  0  0  2  0  0  0  0  0  0
  190.5430  176.5150  142.9460 C   0  0  0  0  0  2  0  0  0  0  0  0
  187.3850  177.7480  138.0240 C   0  0  1  0  0  3  0  0  0  0  0  0
  187.7760  176.2780  137.9470 C   0  0  0  0  0  1  0  0  0  0  0  0
  185.9630  177.8770  138.5530 C   0  0  0  0  0  2  0  0  0  0  0  0
  184.4770  175.8470  137.6270 O   0  0  0  0  0  0  0  0  0  0  0  0
  184.7710  177.2960  137.3530 S   0  0  0  0  0  0  0  0  0  0  0  0
  185.3480  177.4170  135.9690 O   0  0  0  0  0  0  0  0  0  0  0  0
  183.2790  178.2060  137.4600 N   0  0  0  0  0  0  0  0  0  0  0  0
  181.1900  178.0610  136.2140 C   0  0  0  0  0  2  0  0  0  0  0  0
  182.1550  177.3320  137.1340 C   0  0  0  0  0  3  0  0  0  0  0  0
  182.1500  177.0440  135.6430 C   0  0  0  0  0  2  0  0  0  0  0  0
  183.0570  178.8050  138.7910 C   0  0  1  0  0  3  0  0  0  0  0  0
  182.5430  180.2400  138.7550 C   0  0  0  0  0  1  0  0  0  0  0  0
  182.1650  177.9290  139.6630 C   0  0  0  0  0  2  0  0  0  0  0  0
  182.2380  178.3500  141.0920 C   0  0  0  0  0  0  0  0  0  0  0  0
  183.5390  178.7940  143.0870 C   0  0  0  0  0  3  0  0  0  0  0  0
  181.1270  179.0090  143.1430 C   0  0  0  0  0  3  0  0  0  0  0  0
  182.3640  179.0880  143.7880 C   0  0  0  0  0  3  0  0  0  0  0  0
  181.0620  178.6390  141.7960 C   0  0  0  0  0  3  0  0  0  0  0  0
  183.4760  178.4240  141.7410 C   0  0  0  0  0  3  0  0  0  0  0  0
  191.7450  176.9030  138.9320 C   0  0  0  0  0  2  0  0  0  0  0  0
  193.4710  174.5040  136.5550 C   0  0  0  0  0  3  0  0  0  0  0  0
  192.4310  173.6150  136.2610 C   0  0  0  0  0  0  0  0  0  0  0  0
  190.9530  174.8640  137.7180 C   0  0  0  0  0  3  0  0  0  0  0  0
  193.2490  175.5770  137.4230 C   0  0  0  0  0  3  0  0  0  0  0  0
  191.9870  175.7630  138.0010 C   0  0  0  0  0  0  0  0  0  0  0  0
  191.1740  173.7910  136.8500 C   0  0  0  0  0  3  0  0  0  0  0  0
  193.3140  171.3840  136.0860 N   0  0  0  0  0  1  0  0  0  0  0  0
  192.6720  172.4610  135.3530 C   0  0  0  0  0  2  0  0  0  0  0  0
  1  6  1  0  0  0  0
  2 11  1  0  0  0  0
  2 12  1  1  0  0  0
  4  8  2  0  0  0  0
  5  1  2  0  0  0  0
  7  9  2  0  0  0  0
  7  4  1  0  0  0  0
  8  1  1  0  0  0  0
  9  5  1  0  0  0  0
 10  3  1  0  0  0  0
 11  3  1  6  0  0  0
 11  7  1  0  0  0  0
 12 15  1  0  0  0  0
 13 35  1  1  0  0  0
 13  2  1  0  0  0  0
 14 10  1  0  0  0  0
 14 13  1  0  0  0  0
 15  4  1  0  0  0  0
 16 17  1  1  0  0  0
 16 18  1  0  0  0  0
 16 10  1  0  0  0  0
 20 22  1  0  0  0  0
 20 19  2  0  0  0  0
 20 18  1  0  0  0  0
 21 20  2  0  0  0  0
 22 26  1  0  0  0  0
 23 24  1  0  0  0  0
 24 22  1  0  0  0  0
 25 23  1  0  0  0  0
 25 24  1  0  0  0  0
 26 27  1  6  0  0  0
 26 28  1  0  0  0  0
 28 29  1  0  0  0  0
 29 34  2  0  0  0  0
 29 33  1  0  0  0  0
 30 32  2  0  0  0  0
 31 32  1  0  0  0  0
 33 31  2  0  0  0  0
 34 30  1  0  0  0  0
 36 39  1  0  0  0  0
 37 36  2  0  0  0  0
 37 41  1  0  0  0  0
 38 40  1  0  0  0  0
 39 40  2  0  0  0  0
 40 35  1  0  0  0  0
 41 38  2  0  0  0  0
 43 42  1  0  0  0  0
 43 37  1  0  0  0  0
M  END
>  <MODEL>
1

>  <REMARK>
 VINA RESULT:      -7.9      0.000      0.000
  Name = 
  11 active torsions:
  status: ('A' for Active; 'I' for Inactive)
    1  A    between atoms: C_1  and  C_34
    2  A    between atoms: C_1  and  C_35
    3  A    between atoms: C_2  and  C_6
    4  A    between atoms: C_2  and  N_27
    5  A    between atoms: N_4  and  S_12
    6  A    between atoms: N_4  and  C_15
    7  A    between atoms: N_4  and  C_22
    8  A    between atoms: C_6  and  S_12
    9  A    between atoms: C_11  and  C_14
   10  A    between atoms: C_14  and  C_22
   11  A    between atoms: C_19  and  C_37
                            x       y       z     vdW  Elec       q    Type
                         _______ _______ _______ _____ _____    ______ ____

>  <TORSDO>
F 11

$$$$
=
 OpenBabel10262422383D

 43 48  0  0  1  0  0  0  0  0999 V2000
  192.0460  176.2130  147.6370 C   0  0  0  0  0  0  0  0  0  0  0  0
  187.6980  177.5220  145.3720 C   0  0  1  0  0  3  0  0  0  0  0  0
  188.9220  176.3310  143.5530 C   0  0  0  0  0  2  0  0  0  0  0  0
  189.8530  177.0980  147.1140 C   0  0  0  0  0  0  0  0  0  0  0  0
  192.2960  176.0160  146.2760 C   0  0  0  0  0  3  0  0  0  0  0  0
  193.0120  175.8760  148.5750 O   0  0  0  0  0  1  0  0  0  0  0  0
  190.0840  176.8620  145.7410 C   0  0  0  0  0  0  0  0  0  0  0  0
  190.8270  176.7520  148.0540 C   0  0  0  0  0  3  0  0  0  0  0  0
  191.3220  176.3470  145.3310 C   0  0  0  0  0  3  0  0  0  0  0  0
  187.9250  176.7840  142.5640 N   0  0  0  0  0  0  0  0  0  0  0  0
  189.0640  177.3060  144.7220 C   0  0  2  0  0  3  0  0  0  0  0  0
  187.8580  178.4000  146.5280 N   0  0  0  0  0  2  0  0  0  0  0  0
  186.7480  178.1170  144.3340 C   0  0  1  0  0  3  0  0  0  0  0  0
  186.6270  177.1490  143.1530 C   0  0  0  0  0  2  0  0  0  0  0  0
  188.5290  177.6390  147.5830 C   0  0  0  0  0  2  0  0  0  0  0  0
  188.4120  177.7960  141.6090 C   0  0  1  0  0  3  0  0  0  0  0  0
  189.5640  178.6390  142.1400 C   0  0  0  0  0  1  0  0  0  0  0  0
  188.8090  177.1540  140.2860 C   0  0  0  0  0  2  0  0  0  0  0  0
  189.0170  179.1810  138.5450 O   0  0  0  0  0  0  0  0  0  0  0  0
  188.1060  178.0400  138.9000 S   0  0  0  0  0  0  0  0  0  0  0  0
  186.7630  178.5980  139.2880 O   0  0  0  0  0  0  0  0  0  0  0  0
  187.9390  176.9930  137.5070 N   0  0  0  0  0  0  0  0  0  0  0  0
  186.8090  177.3720  135.3830 C   0  0  0  0  0  2  0  0  0  0  0  0
  187.9470  177.8030  136.2910 C   0  0  0  0  0  3  0  0  0  0  0  0
  186.6720  178.6230  136.2180 C   0  0  0  0  0  2  0  0  0  0  0  0
  189.0010  175.9710  137.4170 C   0  0  1  0  0  3  0  0  0  0  0  0
  188.4920  174.5610  137.1360 C   0  0  0  0  0  1  0  0  0  0  0  0
  190.0840  176.3680  136.4200 C   0  0  0  0  0  2  0  0  0  0  0  0
  191.4370  176.0000  136.9280 C   0  0  0  0  0  0  0  0  0  0  0  0
  193.4190  174.6120  136.8090 C   0  0  0  0  0  3  0  0  0  0  0  0
  193.2280  176.3030  138.5330 C   0  0  0  0  0  3  0  0  0  0  0  0
  193.9520  175.2780  137.9170 C   0  0  0  0  0  3  0  0  0  0  0  0
  191.9690  176.6630  138.0400 C   0  0  0  0  0  3  0  0  0  0  0  0
  192.1610  174.9720  136.3150 C   0  0  0  0  0  3  0  0  0  0  0  0
  185.3530  178.3370  144.9110 C   0  0  0  0  0  2  0  0  0  0  0  0
  183.7690  178.6560  141.4790 C   0  0  0  0  0  3  0  0  0  0  0  0
  182.4380  178.9220  141.8160 C   0  0  0  0  0  0  0  0  0  0  0  0
  183.0090  178.7930  144.1670 C   0  0  0  0  0  3  0  0  0  0  0  0
  184.7210  178.4670  142.4860 C   0  0  0  0  0  3  0  0  0  0  0  0
  184.3440  178.5430  143.8320 C   0  0  0  0  0  0  0  0  0  0  0  0
  182.0570  178.9820  143.1620 C   0  0  0  0  0  3  0  0  0  0  0  0
  180.2850  179.8430  141.2660 N   0  0  0  0  0  1  0  0  0  0  0  0
  181.4200  179.1020  140.7460 C   0  0  0  0  0  2  0  0  0  0  0  0
  1  8  1  0  0  0  0
  1  6  1  0  0  0  0
  2 12  1  1  0  0  0
  4 15  1  0  0  0  0
  4  8  2  0  0  0  0
  5  1  2  0  0  0  0
  7  4  1  0  0  0  0
  9  7  2  0  0  0  0
  9  5  1  0  0  0  0
 10 14  1  0  0  0  0
 10  3  1  0  0  0  0
 11  3  1  6  0  0  0
 11  2  1  0  0  0  0
 11  7  1  0  0  0  0
 12 15  1  0  0  0  0
 13 35  1  1  0  0  0
 13  2  1  0  0  0  0
 14 13  1  0  0  0  0
 16 17  1  1  0  0  0
 16 10  1  0  0  0  0
 18 16  1  0  0  0  0
 19 20  2  0  0  0  0
 20 21  2  0  0  0  0
 20 18  1  0  0  0  0
 22 20  1  0  0  0  0
 23 25  1  0  0  0  0
 23 24  1  0  0  0  0
 24 22  1  0  0  0  0
 25 24  1  0  0  0  0
 26 27  1  6  0  0  0
 26 22  1  0  0  0  0
 28 29  1  0  0  0  0
 28 26  1  0  0  0  0
 29 33  1  0  0  0  0
 30 32  2  0  0  0  0
 32 31  1  0  0  0  0
 33 31  2  0  0  0  0
 34 30  1  0  0  0  0
 34 29  2  0  0  0  0
 36 37  2  0  0  0  0
 36 39  1  0  0  0  0
 37 41  1  0  0  0  0
 39 40  2  0  0  0  0
 40 38  1  0  0  0  0
 40 35  1  0  0  0  0
 41 38  2  0  0  0  0
 43 42  1  0  0  0  0
 43 37  1  0  0  0  0
M  END
>  <MODEL>
2

>  <REMARK>
 VINA RESULT:      -7.9      2.682      8.345
  Name = 
  11 active torsions:
  status: ('A' for Active; 'I' for Inactive)
    1  A    between atoms: C_1  and  C_34
    2  A    between atoms: C_1  and  C_35
    3  A    between atoms: C_2  and  C_6
    4  A    between atoms: C_2  and  N_27
    5  A    between atoms: N_4  and  S_12
    6  A    between atoms: N_4  and  C_15
    7  A    between atoms: N_4  and  C_22
    8  A    between atoms: C_6  and  S_12
    9  A    between atoms: C_11  and  C_14
   10  A    between atoms: C_14  and  C_22
   11  A    between atoms: C_19  and  C_37
                            x       y       z     vdW  Elec       q    Type
                         _______ _______ _______ _____ _____    ______ ____

>  <TORSDO>
F 11

$$$$
=
 OpenBabel10262422383D

 43 48  0  0  1  0  0  0  0  0999 V2000
  191.9060  176.2470  147.3230 C   0  0  0  0  0  0  0  0  0  0  0  0
  187.4840  177.6570  145.2700 C   0  0  1  0  0  3  0  0  0  0  0  0
  188.6040  176.4660  143.3850 C   0  0  0  0  0  2  0  0  0  0  0  0
  189.7070  177.1750  146.9080 C   0  0  0  0  0  0  0  0  0  0  0  0
  192.0910  176.0610  145.9500 C   0  0  0  0  0  3  0  0  0  0  0  0
  192.9070  175.8830  148.2120 O   0  0  0  0  0  1  0  0  0  0  0  0
  189.8720  176.9520  145.5240 C   0  0  0  0  0  0  0  0  0  0  0  0
  190.7160  176.8020  147.8000 C   0  0  0  0  0  3  0  0  0  0  0  0
  191.0810  176.4200  145.0530 C   0  0  0  0  0  3  0  0  0  0  0  0
  187.5720  176.9480  142.4480 N   0  0  0  0  0  0  0  0  0  0  0  0
  188.8150  177.4250  144.5580 C   0  0  2  0  0  3  0  0  0  0  0  0
  187.7120  178.5180  146.4280 N   0  0  0  0  0  2  0  0  0  0  0  0
  186.4990  178.2800  144.2830 C   0  0  1  0  0  3  0  0  0  0  0  0
  186.3080  177.3290  143.0980 C   0  0  0  0  0  2  0  0  0  0  0  0
  188.4150  177.7330  147.4430 C   0  0  0  0  0  2  0  0  0  0  0  0
  188.0330  177.9620  141.4820 C   0  0  1  0  0  3  0  0  0  0  0  0
  188.8680  179.0720  142.1080 C   0  0  0  0  0  1  0  0  0  0  0  0
  188.8050  177.3190  140.3380 C   0  0  0  0  0  2  0  0  0  0  0  0
  189.0320  179.4190  138.6880 O   0  0  0  0  0  0  0  0  0  0  0  0
  188.3810  178.0670  138.7700 S   0  0  0  0  0  0  0  0  0  0  0  0
  186.8890  178.2440  138.6830 O   0  0  0  0  0  0  0  0  0  0  0  0
  188.9450  177.0860  137.4350 N   0  0  0  0  0  0  0  0  0  0  0  0
  191.0740  175.9900  136.9860 C   0  0  0  0  0  2  0  0  0  0  0  0
  189.8910  176.0900  137.9330 C   0  0  0  0  0  3  0  0  0  0  0  0
  191.2070  176.7650  138.2750 C   0  0  0  0  0  2  0  0  0  0  0  0
  187.8540  176.4000  136.7140 C   0  0  1  0  0  3  0  0  0  0  0  0
  187.9040  176.5620  135.1980 C   0  0  0  0  0  1  0  0  0  0  0  0
  187.7580  174.9290  137.1010 C   0  0  0  0  0  2  0  0  0  0  0  0
  186.3340  174.4980  137.2100 C   0  0  0  0  0  0  0  0  0  0  0  0
  184.6840  172.7390  137.4420 C   0  0  0  0  0  3  0  0  0  0  0  0
  183.9720  175.0420  137.2010 C   0  0  0  0  0  3  0  0  0  0  0  0
  183.6600  173.6890  137.3610 C   0  0  0  0  0  3  0  0  0  0  0  0
  185.3090  175.4470  137.1240 C   0  0  0  0  0  3  0  0  0  0  0  0
  186.0200  173.1440  137.3660 C   0  0  0  0  0  3  0  0  0  0  0  0
  185.1360  178.5170  144.9250 C   0  0  0  0  0  2  0  0  0  0  0  0
  183.3820  178.7890  141.5720 C   0  0  0  0  0  3  0  0  0  0  0  0
  182.0440  178.8870  141.9710 C   0  0  0  0  0  0  0  0  0  0  0  0
  182.7250  178.7300  144.2910 C   0  0  0  0  0  3  0  0  0  0  0  0
  184.3910  178.6710  142.5330 C   0  0  0  0  0  3  0  0  0  0  0  0
  184.0650  178.6490  143.8950 C   0  0  0  0  0  0  0  0  0  0  0  0
  181.7160  178.8490  143.3310 C   0  0  0  0  0  3  0  0  0  0  0  0
  180.1520  180.1640  141.2120 N   0  0  0  0  0  1  0  0  0  0  0  0
  180.9680  178.9920  140.9490 C   0  0  0  0  0  2  0  0  0  0  0  0
  1  8  1  0  0  0  0
  1  6  1  0  0  0  0
  2 12  1  1  0  0  0
  4 15  1  0  0  0  0
  4  8  2  0  0  0  0
  5  1  2  0  0  0  0
  7  4  1  0  0  0  0
  9  7  2  0  0  0  0
  9  5  1  0  0  0  0
 10 14  1  0  0  0  0
 10  3  1  0  0  0  0
 11  3  1  6  0  0  0
 11  2  1  0  0  0  0
 11  7  1  0  0  0  0
 12 15  1  0  0  0  0
 13 35  1  1  0  0  0
 13  2  1  0  0  0  0
 14 13  1  0  0  0  0
 16 17  1  1  0  0  0
 16 10  1  0  0  0  0
 18 16  1  0  0  0  0
 19 20  2  0  0  0  0
 20 18  1  0  0  0  0
 21 20  2  0  0  0  0
 22 24  1  0  0  0  0
 22 20  1  0  0  0  0
 23 24  1  0  0  0  0
 23 25  1  0  0  0  0
 24 25  1  0  0  0  0
 26 27  1  6  0  0  0
 26 28  1  0  0  0  0
 26 22  1  0  0  0  0
 28 29  1  0  0  0  0
 29 34  1  0  0  0  0
 31 32  2  0  0  0  0
 32 30  1  0  0  0  0
 33 31  1  0  0  0  0
 33 29  2  0  0  0  0
 34 30  2  0  0  0  0
 36 37  2  0  0  0  0
 36 39  1  0  0  0  0
 37 41  1  0  0  0  0
 39 40  2  0  0  0  0
 40 38  1  0  0  0  0
 40 35  1  0  0  0  0
 41 38  2  0  0  0  0
 43 42  1  0  0  0  0
 43 37  1  0  0  0  0
M  END
>  <MODEL>
3

>  <REMARK>
 VINA RESULT:      -7.8      2.766      7.829
  Name = 
  11 active torsions:
  status: ('A' for Active; 'I' for Inactive)
    1  A    between atoms: C_1  and  C_34
    2  A    between atoms: C_1  and  C_35
    3  A    between atoms: C_2  and  C_6
    4  A    between atoms: C_2  and  N_27
    5  A    between atoms: N_4  and  S_12
    6  A    between atoms: N_4  and  C_15
    7  A    between atoms: N_4  and  C_22
    8  A    between atoms: C_6  and  S_12
    9  A    between atoms: C_11  and  C_14
   10  A    between atoms: C_14  and  C_22
   11  A    between atoms: C_19  and  C_37
                            x       y       z     vdW  Elec       q    Type
                         _______ _______ _______ _____ _____    ______ ____

>  <TORSDO>
F 11

$$$$
=
 OpenBabel10262422383D

 43 48  0  0  1  0  0  0  0  0999 V2000
  191.8310  176.2390  147.4440 C   0  0  0  0  0  0  0  0  0  0  0  0
  187.3880  177.6360  145.4280 C   0  0  1  0  0  3  0  0  0  0  0  0
  188.5950  176.6710  143.4690 C   0  0  0  0  0  2  0  0  0  0  0  0
  189.6010  177.1040  147.0660 C   0  0  0  0  0  0  0  0  0  0  0  0
  192.0490  176.1860  146.0650 C   0  0  0  0  0  3  0  0  0  0  0  0
  192.8310  175.8380  148.3200 O   0  0  0  0  0  1  0  0  0  0  0  0
  189.8000  177.0150  145.6710 C   0  0  0  0  0  0  0  0  0  0  0  0
  190.6090  176.6960  147.9430 C   0  0  0  0  0  3  0  0  0  0  0  0
  191.0410  176.5820  145.1820 C   0  0  0  0  0  3  0  0  0  0  0  0
  187.5600  177.1920  142.5560 N   0  0  0  0  0  0  0  0  0  0  0  0
  188.7420  177.5280  144.7280 C   0  0  2  0  0  3  0  0  0  0  0  0
  187.5560  178.3990  146.6640 N   0  0  0  0  0  2  0  0  0  0  0  0
  186.3940  178.3040  144.4800 C   0  0  1  0  0  3  0  0  0  0  0  0
  186.2680  177.4570  143.2100 C   0  0  0  0  0  2  0  0  0  0  0  0
  188.2750  177.5550  147.6190 C   0  0  0  0  0  2  0  0  0  0  0  0
  187.9930  178.3080  141.6970 C   0  0  1  0  0  3  0  0  0  0  0  0
  189.3800  178.1200  141.0960 C   0  0  0  0  0  1  0  0  0  0  0  0
  186.9820  178.5700  140.5880 C   0  0  0  0  0  2  0  0  0  0  0  0
  188.3080  176.8770  138.9890 O   0  0  0  0  0  0  0  0  0  0  0  0
  187.6880  178.2460  138.9780 S   0  0  0  0  0  0  0  0  0  0  0  0
  188.7620  179.2580  138.6860 O   0  0  0  0  0  0  0  0  0  0  0  0
  186.4600  178.3010  137.7320 N   0  0  0  0  0  0  0  0  0  0  0  0
  186.6580  177.9280  135.3330 C   0  0  0  0  0  2  0  0  0  0  0  0
  186.7610  177.3000  136.7120 C   0  0  0  0  0  3  0  0  0  0  0  0
  188.0150  177.7040  135.9570 C   0  0  0  0  0  2  0  0  0  0  0  0
  185.0960  178.0710  138.2490 C   0  0  1  0  0  3  0  0  0  0  0  0
  184.2890  179.3450  138.4780 C   0  0  0  0  0  1  0  0  0  0  0  0
  184.3220  177.0850  137.3820 C   0  0  0  0  0  2  0  0  0  0  0  0
  182.9800  176.7990  137.9680 C   0  0  0  0  0  0  0  0  0  0  0  0
  180.5740  177.0860  137.9460 C   0  0  0  0  0  3  0  0  0  0  0  0
  181.6200  175.7720  139.6920 C   0  0  0  0  0  3  0  0  0  0  0  0
  180.4710  176.3040  139.1010 C   0  0  0  0  0  3  0  0  0  0  0  0
  182.8760  176.0210  139.1270 C   0  0  0  0  0  3  0  0  0  0  0  0
  181.8290  177.3340  137.3800 C   0  0  0  0  0  3  0  0  0  0  0  0
  185.0110  178.4230  145.1090 C   0  0  0  0  0  2  0  0  0  0  0  0
  183.2730  178.6870  141.7480 C   0  0  0  0  0  3  0  0  0  0  0  0
  181.9680  179.0020  142.1390 C   0  0  0  0  0  0  0  0  0  0  0  0
  182.6470  178.9260  144.4630 C   0  0  0  0  0  3  0  0  0  0  0  0
  184.2670  178.5000  142.7140 C   0  0  0  0  0  3  0  0  0  0  0  0
  183.9560  178.6260  144.0730 C   0  0  0  0  0  0  0  0  0  0  0  0
  181.6530  179.1130  143.4980 C   0  0  0  0  0  3  0  0  0  0  0  0
  179.8750  180.0700  141.6200 N   0  0  0  0  0  1  0  0  0  0  0  0
  180.9050  179.1810  141.1120 C   0  0  0  0  0  2  0  0  0  0  0  0
  1  8  1  0  0  0  0
  1  6  1  0  0  0  0
  2 12  1  1  0  0  0
  4 15  1  0  0  0  0
  4  8  2  0  0  0  0
  5  1  2  0  0  0  0
  7  4  1  0  0  0  0
  9  7  2  0  0  0  0
  9  5  1  0  0  0  0
 10 14  1  0  0  0  0
 10  3  1  0  0  0  0
 11  3  1  6  0  0  0
 11  2  1  0  0  0  0
 11  7  1  0  0  0  0
 12 15  1  0  0  0  0
 13 35  1  1  0  0  0
 13  2  1  0  0  0  0
 14 13  1  0  0  0  0
 16 17  1  6  0  0  0
 16 10  1  0  0  0  0
 18 16  1  0  0  0  0
 20 19  2  0  0  0  0
 20 18  1  0  0  0  0
 21 20  2  0  0  0  0
 22 26  1  0  0  0  0
 22 20  1  0  0  0  0
 23 25  1  0  0  0  0
 23 24  1  0  0  0  0
 24 22  1  0  0  0  0
 25 24  1  0  0  0  0
 26 27  1  6  0  0  0
 28 29  1  0  0  0  0
 28 26  1  0  0  0  0
 29 33  1  0  0  0  0
 30 32  2  0  0  0  0
 32 31  1  0  0  0  0
 33 31  2  0  0  0  0
 34 30  1  0  0  0  0
 34 29  2  0  0  0  0
 36 37  2  0  0  0  0
 36 39  1  0  0  0  0
 37 41  1  0  0  0  0
 39 40  2  0  0  0  0
 40 38  1  0  0  0  0
 40 35  1  0  0  0  0
 41 38  2  0  0  0  0
 43 42  1  0  0  0  0
 43 37  1  0  0  0  0
M  END
>  <MODEL>
4

>  <REMARK>
 VINA RESULT:      -7.7      3.400      7.089
  Name = 
  11 active torsions:
  status: ('A' for Active; 'I' for Inactive)
    1  A    between atoms: C_1  and  C_34
    2  A    between atoms: C_1  and  C_35
    3  A    between atoms: C_2  and  C_6
    4  A    between atoms: C_2  and  N_27
    5  A    between atoms: N_4  and  S_12
    6  A    between atoms: N_4  and  C_15
    7  A    between atoms: N_4  and  C_22
    8  A    between atoms: C_6  and  S_12
    9  A    between atoms: C_11  and  C_14
   10  A    between atoms: C_14  and  C_22
   11  A    between atoms: C_19  and  C_37
                            x       y       z     vdW  Elec       q    Type
                         _______ _______ _______ _____ _____    ______ ____

>  <TORSDO>
F 11

$$$$
=
 OpenBabel10262422383D

 43 48  0  0  1  0  0  0  0  0999 V2000
  191.9050  173.0760  135.5930 C   0  0  0  0  0  0  0  0  0  0  0  0
  188.6790  176.6500  137.2000 C   0  0  1  0  0  3  0  0  0  0  0  0
  190.6920  177.0560  138.6170 C   0  0  0  0  0  2  0  0  0  0  0  0
  189.9870  174.5140  135.9390 C   0  0  0  0  0  0  0  0  0  0  0  0
  192.4710  173.5380  136.7840 C   0  0  0  0  0  3  0  0  0  0  0  0
  192.5730  172.1290  134.8300 O   0  0  0  0  0  1  0  0  0  0  0  0
  190.5720  175.0150  137.1220 C   0  0  0  0  0  0  0  0  0  0  0  0
  190.6660  173.5640  135.1710 C   0  0  0  0  0  3  0  0  0  0  0  0
  191.8030  174.4970  137.5500 C   0  0  0  0  0  3  0  0  0  0  0  0
  189.9250  177.9890  139.4650 N   0  0  0  0  0  0  0  0  0  0  0  0
  189.8050  175.9820  137.9880 C   0  0  2  0  0  3  0  0  0  0  0  0
  187.8800  175.6150  136.5480 N   0  0  0  0  0  2  0  0  0  0  0  0
  187.8420  177.4950  138.1570 C   0  0  1  0  0  3  0  0  0  0  0  0
  188.7390  178.5550  138.8050 C   0  0  0  0  0  2  0  0  0  0  0  0
  188.6710  175.0600  135.4490 C   0  0  0  0  0  2  0  0  0  0  0  0
  189.6300  177.4960  140.8220 C   0  0  1  0  0  3  0  0  0  0  0  0
  190.5980  176.4260  141.3130 C   0  0  0  0  0  1  0  0  0  0  0  0
  189.5780  178.6420  141.8230 C   0  0  0  0  0  2  0  0  0  0  0  0
  190.9190  179.5600  143.9540 O   0  0  0  0  0  0  0  0  0  0  0  0
  190.5380  178.2700  143.2850 S   0  0  0  0  0  0  0  0  0  0  0  0
  191.7950  177.5420  142.8910 O   0  0  0  0  0  0  0  0  0  0  0  0
  189.6140  177.3000  144.4110 N   0  0  0  0  0  0  0  0  0  0  0  0
  189.9140  176.6090  146.7280 C   0  0  0  0  0  2  0  0  0  0  0  0
  189.8440  177.7850  145.7700 C   0  0  0  0  0  3  0  0  0  0  0  0
  191.1860  177.2810  146.2690 C   0  0  0  0  0  2  0  0  0  0  0  0
  188.1640  177.3080  144.1330 C   0  0  1  0  0  3  0  0  0  0  0  0
  187.6220  175.9910  143.5880 C   0  0  0  0  0  1  0  0  0  0  0  0
  187.3580  177.7690  145.3420 C   0  0  0  0  0  2  0  0  0  0  0  0
  185.9950  178.2160  144.9360 C   0  0  0  0  0  0  0  0  0  0  0  0
  183.7570  178.9320  145.5270 C   0  0  0  0  0  3  0  0  0  0  0  0
  184.3700  178.6770  143.1980 C   0  0  0  0  0  3  0  0  0  0  0  0
  183.4210  179.0020  144.1710 C   0  0  0  0  0  3  0  0  0  0  0  0
  185.6570  178.2820  143.5790 C   0  0  0  0  0  3  0  0  0  0  0  0
  185.0430  178.5380  145.9100 C   0  0  0  0  0  3  0  0  0  0  0  0
  186.7100  178.2120  137.4300 C   0  0  0  0  0  2  0  0  0  0  0  0
  183.7070  178.4340  139.7370 C   0  0  0  0  0  3  0  0  0  0  0  0
  182.9050  177.4000  139.2420 C   0  0  0  0  0  0  0  0  0  0  0  0
  184.5790  176.9070  137.5610 C   0  0  0  0  0  3  0  0  0  0  0  0
  184.9480  178.6990  139.1490 C   0  0  0  0  0  3  0  0  0  0  0  0
  185.3890  177.9310  138.0640 C   0  0  0  0  0  0  0  0  0  0  0  0
  183.3390  176.6420  138.1480 C   0  0  0  0  0  3  0  0  0  0  0  0
  180.5610  177.0680  138.8170 N   0  0  0  0  0  1  0  0  0  0  0  0
  181.5750  177.1300  139.8540 C   0  0  0  0  0  2  0  0  0  0  0  0
  1  5  1  0  0  0  0
  2 12  1  1  0  0  0
  2 11  1  0  0  0  0
  2 13  1  0  0  0  0
  3 10  1  0  0  0  0
  4  7  2  0  0  0  0
  5  9  2  0  0  0  0
  6  1  1  0  0  0  0
  7  9  1  0  0  0  0
  7 11  1  0  0  0  0
  8  1  2  0  0  0  0
  8  4  1  0  0  0  0
 10 16  1  0  0  0  0
 11  3  1  6  0  0  0
 13 35  1  6  0  0  0
 13 14  1  0  0  0  0
 14 10  1  0  0  0  0
 15  4  1  0  0  0  0
 15 12  1  0  0  0  0
 16 17  1  1  0  0  0
 16 18  1  0  0  0  0
 18 20  1  0  0  0  0
 20 19  2  0  0  0  0
 20 22  1  0  0  0  0
 21 20  2  0  0  0  0
 22 24  1  0  0  0  0
 24 25  1  0  0  0  0
 24 23  1  0  0  0  0
 25 23  1  0  0  0  0
 26 27  1  1  0  0  0
 26 22  1  0  0  0  0
 26 28  1  0  0  0  0
 29 28  1  0  0  0  0
 29 34  1  0  0  0  0
 30 34  2  0  0  0  0
 31 33  1  0  0  0  0
 31 32  2  0  0  0  0
 32 30  1  0  0  0  0
 33 29  2  0  0  0  0
 35 40  1  0  0  0  0
 37 36  1  0  0  0  0
 37 43  1  0  0  0  0
 38 40  2  0  0  0  0
 38 41  1  0  0  0  0
 39 36  2  0  0  0  0
 40 39  1  0  0  0  0
 41 37  2  0  0  0  0
 42 43  1  0  0  0  0
M  END
>  <MODEL>
5

>  <REMARK>
 VINA RESULT:      -7.5      3.092      8.240
  Name = 
  11 active torsions:
  status: ('A' for Active; 'I' for Inactive)
    1  A    between atoms: C_1  and  C_34
    2  A    between atoms: C_1  and  C_35
    3  A    between atoms: C_2  and  C_6
    4  A    between atoms: C_2  and  N_27
    5  A    between atoms: N_4  and  S_12
    6  A    between atoms: N_4  and  C_15
    7  A    between atoms: N_4  and  C_22
    8  A    between atoms: C_6  and  S_12
    9  A    between atoms: C_11  and  C_14
   10  A    between atoms: C_14  and  C_22
   11  A    between atoms: C_19  and  C_37
                            x       y       z     vdW  Elec       q    Type
                         _______ _______ _______ _____ _____    ______ ____

>  <TORSDO>
F 11

$$$$
=
 OpenBabel10262422383D

 43 48  0  0  1  0  0  0  0  0999 V2000
  194.1360  175.1440  138.1010 C   0  0  0  0  0  0  0  0  0  0  0  0
  189.4510  174.8710  136.1680 C   0  0  1  0  0  3  0  0  0  0  0  0
  189.6870  177.3010  136.6840 C   0  0  0  0  0  2  0  0  0  0  0  0
  192.0380  174.4040  137.1440 C   0  0  0  0  0  0  0  0  0  0  0  0
  193.5550  176.3700  138.4360 C   0  0  0  0  0  3  0  0  0  0  0  0
  195.4660  174.8990  138.4120 O   0  0  0  0  0  1  0  0  0  0  0  0
  191.4570  175.6560  137.4430 C   0  0  0  0  0  0  0  0  0  0  0  0
  193.3790  174.1640  137.4550 C   0  0  0  0  0  3  0  0  0  0  0  0
  192.2190  176.6220  138.1150 C   0  0  0  0  0  3  0  0  0  0  0  0
  188.2480  177.5090  136.4340 N   0  0  0  0  0  0  0  0  0  0  0  0
  189.9910  175.8850  137.1750 C   0  0  2  0  0  3  0  0  0  0  0  0
  189.8090  173.5270  136.6140 N   0  0  0  0  0  2  0  0  0  0  0  0
  187.9390  175.0480  136.0530 C   0  0  1  0  0  3  0  0  0  0  0  0
  187.6360  176.4750  135.5850 C   0  0  0  0  0  2  0  0  0  0  0  0
  191.2470  173.3520  136.4110 C   0  0  0  0  0  2  0  0  0  0  0  0
  187.4430  177.7960  137.6350 C   0  0  1  0  0  3  0  0  0  0  0  0
  185.9840  177.3760  137.5130 C   0  0  0  0  0  1  0  0  0  0  0  0
  188.0600  177.1610  138.8740 C   0  0  0  0  0  2  0  0  0  0  0  0
  186.5610  178.8400  140.3300 O   0  0  0  0  0  0  0  0  0  0  0  0
  187.9430  178.2510  140.2870 S   0  0  0  0  0  0  0  0  0  0  0  0
  188.9390  179.3700  140.1440 O   0  0  0  0  0  0  0  0  0  0  0  0
  188.2330  177.3790  141.7770 N   0  0  0  0  0  0  0  0  0  0  0  0
  190.2040  176.1640  142.5340 C   0  0  0  0  0  2  0  0  0  0  0  0
  189.6370  177.5210  142.1540 C   0  0  0  0  0  3  0  0  0  0  0  0
  190.5070  176.7520  141.1760 C   0  0  0  0  0  2  0  0  0  0  0  0
  187.3830  177.8360  142.8940 C   0  0  1  0  0  3  0  0  0  0  0  0
  186.0290  178.3910  142.4640 C   0  0  0  0  0  1  0  0  0  0  0  0
  187.2160  176.7560  143.9560 C   0  0  0  0  0  2  0  0  0  0  0  0
  187.5040  177.2960  145.3160 C   0  0  0  0  0  0  0  0  0  0  0  0
  189.0570  177.6920  147.1330 C   0  0  0  0  0  3  0  0  0  0  0  0
  186.7360  178.3460  147.3610 C   0  0  0  0  0  3  0  0  0  0  0  0
  188.0280  178.2610  147.8890 C   0  0  0  0  0  3  0  0  0  0  0  0
  186.4730  177.8610  146.0750 C   0  0  0  0  0  3  0  0  0  0  0  0
  188.7950  177.2080  145.8470 C   0  0  0  0  0  3  0  0  0  0  0  0
  187.3350  174.0800  135.0420 C   0  0  0  0  0  2  0  0  0  0  0  0
  184.1060  172.1000  135.2410 C   0  0  0  0  0  3  0  0  0  0  0  0
  183.8180  172.1830  136.6070 C   0  0  0  0  0  0  0  0  0  0  0  0
  185.8290  173.4900  136.9500 C   0  0  0  0  0  3  0  0  0  0  0  0
  185.2500  172.7190  134.7280 C   0  0  0  0  0  3  0  0  0  0  0  0
  186.1100  173.4210  135.5810 C   0  0  0  0  0  0  0  0  0  0  0  0
  184.6860  172.8710  137.4630 C   0  0  0  0  0  3  0  0  0  0  0  0
  181.9380  170.7680  136.1030 N   0  0  0  0  0  1  0  0  0  0  0  0
  182.6110  171.5070  137.1570 C   0  0  0  0  0  2  0  0  0  0  0  0
  1  6  1  0  0  0  0
  1  5  1  0  0  0  0
  2 12  1  1  0  0  0
  2 11  1  0  0  0  0
  4  7  2  0  0  0  0
  4  8  1  0  0  0  0
  7  9  1  0  0  0  0
  8  1  2  0  0  0  0
  9  5  2  0  0  0  0
 10  3  1  0  0  0  0
 10 16  1  0  0  0  0
 11  3  1  6  0  0  0
 11  7  1  0  0  0  0
 13 35  1  6  0  0  0
 13  2  1  0  0  0  0
 14 13  1  0  0  0  0
 14 10  1  0  0  0  0
 15 12  1  0  0  0  0
 15  4  1  0  0  0  0
 16 17  1  6  0  0  0
 16 18  1  0  0  0  0
 18 20  1  0  0  0  0
 20 19  2  0  0  0  0
 20 22  1  0  0  0  0
 21 20  2  0  0  0  0
 22 24  1  0  0  0  0
 22 26  1  0  0  0  0
 24 23  1  0  0  0  0
 25 24  1  0  0  0  0
 25 23  1  0  0  0  0
 26 27  1  6  0  0  0
 26 28  1  0  0  0  0
 28 29  1  0  0  0  0
 29 34  2  0  0  0  0
 29 33  1  0  0  0  0
 30 32  2  0  0  0  0
 31 32  1  0  0  0  0
 33 31  2  0  0  0  0
 34 30  1  0  0  0  0
 35 40  1  0  0  0  0
 36 37  1  0  0  0  0
 37 43  1  0  0  0  0
 37 41  2  0  0  0  0
 38 41  1  0  0  0  0
 39 36  2  0  0  0  0
 39 40  1  0  0  0  0
 40 38  2  0  0  0  0
 42 43  1  0  0  0  0
M  END
>  <MODEL>
6

>  <REMARK>
 VINA RESULT:      -7.2      3.487      7.185
  Name = 
  11 active torsions:
  status: ('A' for Active; 'I' for Inactive)
    1  A    between atoms: C_1  and  C_34
    2  A    between atoms: C_1  and  C_35
    3  A    between atoms: C_2  and  C_6
    4  A    between atoms: C_2  and  N_27
    5  A    between atoms: N_4  and  S_12
    6  A    between atoms: N_4  and  C_15
    7  A    between atoms: N_4  and  C_22
    8  A    between atoms: C_6  and  S_12
    9  A    between atoms: C_11  and  C_14
   10  A    between atoms: C_14  and  C_22
   11  A    between atoms: C_19  and  C_37
                            x       y       z     vdW  Elec       q    Type
                         _______ _______ _______ _____ _____    ______ ____

>  <TORSDO>
F 11

$$$$
=
 OpenBabel10262422383D

 43 48  0  0  1  0  0  0  0  0999 V2000
  187.2050  176.1140  135.4620 C   0  0  0  0  0  0  0  0  0  0  0  0
  182.8980  178.2070  137.1430 C   0  0  1  0  0  3  0  0  0  0  0  0
  184.5970  179.1020  138.7370 C   0  0  0  0  0  2  0  0  0  0  0  0
  184.9010  176.7830  135.7940 C   0  0  0  0  0  0  0  0  0  0  0  0
  187.5340  176.6030  136.7290 C   0  0  0  0  0  3  0  0  0  0  0  0
  188.1840  175.5340  134.6680 O   0  0  0  0  0  1  0  0  0  0  0  0
  185.2360  177.3150  137.0580 C   0  0  0  0  0  0  0  0  0  0  0  0
  185.8920  176.2040  134.9960 C   0  0  0  0  0  3  0  0  0  0  0  0
  186.5510  177.1940  137.5280 C   0  0  0  0  0  3  0  0  0  0  0  0
  183.5270  179.6250  139.6070 N   0  0  0  0  0  0  0  0  0  0  0  0
  184.1520  177.8690  137.9490 C   0  0  2  0  0  3  0  0  0  0  0  0
  182.5240  177.0440  136.3420 N   0  0  0  0  0  2  0  0  0  0  0  0
  181.7870  178.6130  138.1090 C   0  0  1  0  0  3  0  0  0  0  0  0
  182.2450  179.8330  138.9150 C   0  0  0  0  0  2  0  0  0  0  0  0
  183.4990  176.9100  135.2590 C   0  0  0  0  0  2  0  0  0  0  0  0
  183.3630  178.9150  140.8880 C   0  0  1  0  0  3  0  0  0  0  0  0
  182.0000  178.2550  141.0560 C   0  0  0  0  0  1  0  0  0  0  0  0
  184.4650  177.8820  141.0870 C   0  0  0  0  0  2  0  0  0  0  0  0
  185.0800  178.0660  143.6900 O   0  0  0  0  0  0  0  0  0  0  0  0
  185.6310  178.4120  142.3350 S   0  0  0  0  0  0  0  0  0  0  0  0
  185.8120  179.9030  142.2550 O   0  0  0  0  0  0  0  0  0  0  0  0
  187.1740  177.6110  142.1300 N   0  0  0  0  0  0  0  0  0  0  0  0
  189.1230  177.8290  140.6850 C   0  0  0  0  0  2  0  0  0  0  0  0
  188.1430  178.5590  141.5860 C   0  0  0  0  0  3  0  0  0  0  0  0
  187.9950  178.6280  140.0770 C   0  0  0  0  0  2  0  0  0  0  0  0
  187.7050  177.0420  143.3850 C   0  0  1  0  0  3  0  0  0  0  0  0
  188.3910  175.6900  143.2200 C   0  0  0  0  0  1  0  0  0  0  0  0
  188.6130  178.0270  144.1130 C   0  0  0  0  0  2  0  0  0  0  0  0
  188.5010  177.8630  145.5910 C   0  0  0  0  0  0  0  0  0  0  0  0
  187.1930  177.9970  147.6260 C   0  0  0  0  0  3  0  0  0  0  0  0
  189.5240  177.3460  147.7270 C   0  0  0  0  0  3  0  0  0  0  0  0
  188.3100  177.6060  148.3700 C   0  0  0  0  0  3  0  0  0  0  0  0
  189.6200  177.4760  146.3370 C   0  0  0  0  0  3  0  0  0  0  0  0
  187.2880  178.1270  146.2370 C   0  0  0  0  0  3  0  0  0  0  0  0
  180.5090  178.9890  137.3680 C   0  0  0  0  0  2  0  0  0  0  0  0
  180.5190  182.7800  137.2420 C   0  0  0  0  0  3  0  0  0  0  0  0
  180.6900  183.0080  135.8730 C   0  0  0  0  0  0  0  0  0  0  0  0
  180.7550  180.6170  135.4840 C   0  0  0  0  0  3  0  0  0  0  0  0
  180.4570  181.4710  137.7310 C   0  0  0  0  0  3  0  0  0  0  0  0
  180.5680  180.3870  136.8520 C   0  0  0  0  0  0  0  0  0  0  0  0
  180.8170  181.9250  134.9950 C   0  0  0  0  0  3  0  0  0  0  0  0
  180.8210  185.3360  136.4630 N   0  0  0  0  0  1  0  0  0  0  0  0
  180.7760  184.4000  135.3540 C   0  0  0  0  0  2  0  0  0  0  0  0
  1  5  1  0  0  0  0
  2 12  1  1  0  0  0
  2 11  1  0  0  0  0
  2 13  1  0  0  0  0
  3 10  1  0  0  0  0
  4  7  2  0  0  0  0
  5  9  2  0  0  0  0
  6  1  1  0  0  0  0
  7  9  1  0  0  0  0
  7 11  1  0  0  0  0
  8  1  2  0  0  0  0
  8  4  1  0  0  0  0
 10 16  1  0  0  0  0
 11  3  1  6  0  0  0
 13 35  1  6  0  0  0
 13 14  1  0  0  0  0
 14 10  1  0  0  0  0
 15  4  1  0  0  0  0
 15 12  1  0  0  0  0
 16 17  1  6  0  0  0
 16 18  1  0  0  0  0
 18 20  1  0  0  0  0
 20 19  2  0  0  0  0
 21 20  2  0  0  0  0
 22 20  1  0  0  0  0
 22 26  1  0  0  0  0
 23 24  1  0  0  0  0
 24 22  1  0  0  0  0
 25 23  1  0  0  0  0
 25 24  1  0  0  0  0
 26 27  1  6  0  0  0
 26 28  1  0  0  0  0
 28 29  1  0  0  0  0
 29 34  2  0  0  0  0
 29 33  1  0  0  0  0
 30 32  2  0  0  0  0
 31 32  1  0  0  0  0
 33 31  2  0  0  0  0
 34 30  1  0  0  0  0
 36 39  1  0  0  0  0
 37 36  2  0  0  0  0
 38 40  1  0  0  0  0
 40 35  1  0  0  0  0
 40 39  2  0  0  0  0
 41 38  2  0  0  0  0
 41 37  1  0  0  0  0
 43 37  1  0  0  0  0
 43 42  1  0  0  0  0
M  END
>  <MODEL>
7

>  <REMARK>
 VINA RESULT:      -7.2      3.406      9.537
  Name = 
  11 active torsions:
  status: ('A' for Active; 'I' for Inactive)
    1  A    between atoms: C_1  and  C_34
    2  A    between atoms: C_1  and  C_35
    3  A    between atoms: C_2  and  C_6
    4  A    between atoms: C_2  and  N_27
    5  A    between atoms: N_4  and  S_12
    6  A    between atoms: N_4  and  C_15
    7  A    between atoms: N_4  and  C_22
    8  A    between atoms: C_6  and  S_12
    9  A    between atoms: C_11  and  C_14
   10  A    between atoms: C_14  and  C_22
   11  A    between atoms: C_19  and  C_37
                            x       y       z     vdW  Elec       q    Type
                         _______ _______ _______ _____ _____    ______ ____

>  <TORSDO>
F 11

$$$$
=
 OpenBabel10262422383D

 43 48  0  0  1  0  0  0  0  0999 V2000
  191.4940  172.9250  135.6990 C   0  0  0  0  0  0  0  0  0  0  0  0
  188.1040  176.4440  137.0690 C   0  0  1  0  0  3  0  0  0  0  0  0
  190.1150  177.0760  138.4040 C   0  0  0  0  0  2  0  0  0  0  0  0
  189.5060  174.2820  135.9640 C   0  0  0  0  0  0  0  0  0  0  0  0
  192.0540  173.5160  136.8350 C   0  0  0  0  0  3  0  0  0  0  0  0
  192.2010  171.9540  135.0030 O   0  0  0  0  0  1  0  0  0  0  0  0
  190.0830  174.9110  137.0880 C   0  0  0  0  0  0  0  0  0  0  0  0
  190.2230  173.3080  135.2640 C   0  0  0  0  0  3  0  0  0  0  0  0
  191.3480  174.4990  137.5320 C   0  0  0  0  0  3  0  0  0  0  0  0
  189.3120  178.0340  139.1880 N   0  0  0  0  0  0  0  0  0  0  0  0
  189.2780  175.9060  137.8860 C   0  0  2  0  0  3  0  0  0  0  0  0
  187.3520  175.3160  136.5240 N   0  0  0  0  0  2  0  0  0  0  0  0
  187.2370  177.3200  137.9710 C   0  0  1  0  0  3  0  0  0  0  0  0
  188.0850  178.4780  138.5080 C   0  0  0  0  0  2  0  0  0  0  0  0
  188.1540  174.7130  135.4580 C   0  0  0  0  0  2  0  0  0  0  0  0
  189.0670  177.6430  140.5880 C   0  0  1  0  0  3  0  0  0  0  0  0
  190.2590  176.9680  141.2550 C   0  0  0  0  0  1  0  0  0  0  0  0
  188.6180  178.8360  141.4200 C   0  0  0  0  0  2  0  0  0  0  0  0
  186.4000  177.3320  141.4610 O   0  0  0  0  0  0  0  0  0  0  0  0
  186.9500  178.6120  142.0240 S   0  0  0  0  0  0  0  0  0  0  0  0
  186.0870  179.7530  141.5580 O   0  0  0  0  0  0  0  0  0  0  0  0
  186.9240  178.5180  143.7720 N   0  0  0  0  0  0  0  0  0  0  0  0
  185.4120  178.4980  145.6830 C   0  0  0  0  0  2  0  0  0  0  0  0
  185.5830  178.1430  144.2160 C   0  0  0  0  0  3  0  0  0  0  0  0
  184.8140  179.3880  144.6190 C   0  0  0  0  0  2  0  0  0  0  0  0
  187.9020  177.5560  144.3180 C   0  0  1  0  0  3  0  0  0  0  0  0
  187.9300  176.2120  143.5970 C   0  0  0  0  0  1  0  0  0  0  0  0
  189.3000  178.1580  144.4020 C   0  0  0  0  0  2  0  0  0  0  0  0
  190.1270  177.4470  145.4190 C   0  0  0  0  0  0  0  0  0  0  0  0
  192.0390  176.0690  145.9810 C   0  0  0  0  0  3  0  0  0  0  0  0
  190.4920  176.7560  147.7130 C   0  0  0  0  0  3  0  0  0  0  0  0
  191.6450  176.0700  147.3230 C   0  0  0  0  0  3  0  0  0  0  0  0
  189.7310  177.4430  146.7620 C   0  0  0  0  0  3  0  0  0  0  0  0
  191.2790  176.7560  145.0290 C   0  0  0  0  0  3  0  0  0  0  0  0
  186.0550  177.9120  137.2100 C   0  0  0  0  0  2  0  0  0  0  0  0
  183.1290  178.4650  139.5590 C   0  0  0  0  0  3  0  0  0  0  0  0
  182.3660  177.3170  139.3210 C   0  0  0  0  0  0  0  0  0  0  0  0
  184.0030  176.5670  137.7000 C   0  0  0  0  0  3  0  0  0  0  0  0
  184.3320  178.6600  138.8740 C   0  0  0  0  0  3  0  0  0  0  0  0
  184.7750  177.7070  137.9480 C   0  0  0  0  0  0  0  0  0  0  0  0
  182.8000  176.3720  138.3840 C   0  0  0  0  0  3  0  0  0  0  0  0
  180.6460  175.7380  139.9000 N   0  0  0  0  0  1  0  0  0  0  0  0
  181.0750  177.1190  140.0340 C   0  0  0  0  0  2  0  0  0  0  0  0
  1  5  1  0  0  0  0
  2 12  1  1  0  0  0
  2 11  1  0  0  0  0
  2 13  1  0  0  0  0
  3 10  1  0  0  0  0
  4  7  2  0  0  0  0
  5  9  2  0  0  0  0
  6  1  1  0  0  0  0
  7  9  1  0  0  0  0
  7 11  1  0  0  0  0
  8  1  2  0  0  0  0
  8  4  1  0  0  0  0
 10 16  1  0  0  0  0
 11  3  1  6  0  0  0
 13 35  1  6  0  0  0
 13 14  1  0  0  0  0
 14 10  1  0  0  0  0
 15  4  1  0  0  0  0
 15 12  1  0  0  0  0
 16 17  1  1  0  0  0
 16 18  1  0  0  0  0
 18 20  1  0  0  0  0
 19 20  2  0  0  0  0
 20 22  1  0  0  0  0
 21 20  2  0  0  0  0
 22 24  1  0  0  0  0
 22 26  1  0  0  0  0
 24 25  1  0  0  0  0
 24 23  1  0  0  0  0
 25 23  1  0  0  0  0
 26 27  1  6  0  0  0
 26 28  1  0  0  0  0
 28 29  1  0  0  0  0
 29 33  1  0  0  0  0
 30 32  2  0  0  0  0
 32 31  1  0  0  0  0
 33 31  2  0  0  0  0
 34 29  2  0  0  0  0
 34 30  1  0  0  0  0
 35 40  1  0  0  0  0
 37 36  1  0  0  0  0
 37 43  1  0  0  0  0
 38 40  2  0  0  0  0
 38 41  1  0  0  0  0
 39 36  2  0  0  0  0
 40 39  1  0  0  0  0
 41 37  2  0  0  0  0
 42 43  1  0  0  0  0
M  END
>  <MODEL>
8

>  <REMARK>
 VINA RESULT:      -7.1      2.763      8.342
  Name = 
  11 active torsions:
  status: ('A' for Active; 'I' for Inactive)
    1  A    between atoms: C_1  and  C_34
    2  A    between atoms: C_1  and  C_35
    3  A    between atoms: C_2  and  C_6
    4  A    between atoms: C_2  and  N_27
    5  A    between atoms: N_4  and  S_12
    6  A    between atoms: N_4  and  C_15
    7  A    between atoms: N_4  and  C_22
    8  A    between atoms: C_6  and  S_12
    9  A    between atoms: C_11  and  C_14
   10  A    between atoms: C_14  and  C_22
   11  A    between atoms: C_19  and  C_37
                            x       y       z     vdW  Elec       q    Type
                         _______ _______ _______ _____ _____    ______ ____

>  <TORSDO>
F 11

$$$$
=
 OpenBabel10262422383D

 43 48  0  0  1  0  0  0  0  0999 V2000
  193.0860  173.4050  135.9000 C   0  0  0  0  0  0  0  0  0  0  0  0
  188.9370  176.1950  136.7680 C   0  0  1  0  0  3  0  0  0  0  0  0
  190.5850  177.1570  138.3750 C   0  0  0  0  0  2  0  0  0  0  0  0
  190.8610  174.3610  135.8770 C   0  0  0  0  0  0  0  0  0  0  0  0
  193.3600  174.0610  137.1030 C   0  0  0  0  0  3  0  0  0  0  0  0
  194.0530  172.6010  135.3140 O   0  0  0  0  0  1  0  0  0  0  0  0
  191.1460  175.0580  137.0710 C   0  0  0  0  0  0  0  0  0  0  0  0
  191.8400  173.5560  135.2880 C   0  0  0  0  0  3  0  0  0  0  0  0
  192.3900  174.8780  137.6910 C   0  0  0  0  0  3  0  0  0  0  0  0
  189.5150  177.9290  139.0340 N   0  0  0  0  0  0  0  0  0  0  0  0
  190.0640  175.8650  137.7450 C   0  0  2  0  0  3  0  0  0  0  0  0
  188.4950  174.9610  136.1220 N   0  0  0  0  0  2  0  0  0  0  0  0
  187.8030  176.8720  137.5350 C   0  0  1  0  0  3  0  0  0  0  0  0
  188.3340  178.1530  138.1860 C   0  0  0  0  0  2  0  0  0  0  0  0
  189.5370  174.5460  135.1830 C   0  0  0  0  0  2  0  0  0  0  0  0
  189.1540  177.4630  140.3850 C   0  0  1  0  0  3  0  0  0  0  0  0
  190.3540  177.1140  141.2570 C   0  0  0  0  0  1  0  0  0  0  0  0
  188.2760  178.4820  141.1000 C   0  0  0  0  0  2  0  0  0  0  0  0
  188.9860  178.4210  143.6840 O   0  0  0  0  0  0  0  0  0  0  0  0
  187.8930  177.9520  142.7650 S   0  0  0  0  0  0  0  0  0  0  0  0
  187.8340  176.4500  142.8140 O   0  0  0  0  0  0  0  0  0  0  0  0
  186.3720  178.6290  143.3040 N   0  0  0  0  0  0  0  0  0  0  0  0
  184.0700  178.6710  142.5050 C   0  0  0  0  0  2  0  0  0  0  0  0
  185.2740  177.7980  142.8170 C   0  0  0  0  0  3  0  0  0  0  0  0
  184.9490  178.1730  141.3820 C   0  0  0  0  0  2  0  0  0  0  0  0
  186.2750  178.7480  144.7720 C   0  0  1  0  0  3  0  0  0  0  0  0
  184.9860  179.3970  145.2650 C   0  0  0  0  0  1  0  0  0  0  0  0
  186.5110  177.4110  145.4650 C   0  0  0  0  0  2  0  0  0  0  0  0
  187.5420  177.5400  146.5350 C   0  0  0  0  0  0  0  0  0  0  0  0
  188.2180  178.3580  148.7130 C   0  0  0  0  0  3  0  0  0  0  0  0
  189.7990  177.1520  147.3300 C   0  0  0  0  0  3  0  0  0  0  0  0
  189.4960  177.8250  148.5170 C   0  0  0  0  0  3  0  0  0  0  0  0
  188.8230  177.0110  146.3370 C   0  0  0  0  0  3  0  0  0  0  0  0
  187.2420  178.2170  147.7220 C   0  0  0  0  0  3  0  0  0  0  0  0
  186.6490  177.2520  136.6120 C   0  0  0  0  0  2  0  0  0  0  0  0
  183.7020  175.1330  137.7120 C   0  0  0  0  0  3  0  0  0  0  0  0
  182.8670  176.1000  138.2810 C   0  0  0  0  0  0  0  0  0  0  0  0
  184.5050  177.8120  137.7730 C   0  0  0  0  0  3  0  0  0  0  0  0
  184.9340  175.5060  137.1660 C   0  0  0  0  0  3  0  0  0  0  0  0
  185.3340  176.8480  137.1890 C   0  0  0  0  0  0  0  0  0  0  0  0
  183.2730  177.4390  138.3190 C   0  0  0  0  0  3  0  0  0  0  0  0
  181.0460  174.5310  138.1960 N   0  0  0  0  0  1  0  0  0  0  0  0
  181.5650  175.7010  138.8810 C   0  0  0  0  0  2  0  0  0  0  0  0
  1  5  1  0  0  0  0
  2 12  1  1  0  0  0
  2 13  1  0  0  0  0
  2 11  1  0  0  0  0
  3 10  1  0  0  0  0
  4  7  2  0  0  0  0
  5  9  2  0  0  0  0
  6  1  1  0  0  0  0
  7  9  1  0  0  0  0
  7 11  1  0  0  0  0
  8  4  1  0  0  0  0
  8  1  2  0  0  0  0
 10 16  1  0  0  0  0
 11  3  1  6  0  0  0
 13 35  1  6  0  0  0
 13 14  1  0  0  0  0
 14 10  1  0  0  0  0
 15  4  1  0  0  0  0
 15 12  1  0  0  0  0
 16 18  1  0  0  0  0
 16 17  1  1  0  0  0
 18 20  1  0  0  0  0
 20 21  2  0  0  0  0
 20 22  1  0  0  0  0
 20 19  2  0  0  0  0
 22 26  1  0  0  0  0
 23 24  1  0  0  0  0
 24 22  1  0  0  0  0
 25 23  1  0  0  0  0
 25 24  1  0  0  0  0
 26 27  1  6  0  0  0
 26 28  1  0  0  0  0
 28 29  1  0  0  0  0
 29 34  1  0  0  0  0
 31 32  2  0  0  0  0
 32 30  1  0  0  0  0
 33 29  2  0  0  0  0
 33 31  1  0  0  0  0
 34 30  2  0  0  0  0
 35 40  1  0  0  0  0
 36 37  1  0  0  0  0
 37 41  2  0  0  0  0
 37 43  1  0  0  0  0
 38 41  1  0  0  0  0
 39 40  1  0  0  0  0
 39 36  2  0  0  0  0
 40 38  2  0  0  0  0
 42 43  1  0  0  0  0
M  END
>  <MODEL>
9

>  <REMARK>
 VINA RESULT:      -7.1      2.852      7.784
  Name = 
  11 active torsions:
  status: ('A' for Active; 'I' for Inactive)
    1  A    between atoms: C_1  and  C_34
    2  A    between atoms: C_1  and  C_35
    3  A    between atoms: C_2  and  C_6
    4  A    between atoms: C_2  and  N_27
    5  A    between atoms: N_4  and  S_12
    6  A    between atoms: N_4  and  C_15
    7  A    between atoms: N_4  and  C_22
    8  A    between atoms: C_6  and  S_12
    9  A    between atoms: C_11  and  C_14
   10  A    between atoms: C_14  and  C_22
   11  A    between atoms: C_19  and  C_37
                            x       y       z     vdW  Elec       q    Type
                         _______ _______ _______ _____ _____    ______ ____

>  <TORSDO>
F 11

$$$$
