=
 OpenBabel10262421233D

 32 36  0  0  0  0  0  0  0  0999 V2000
  186.9550  175.6300  137.1720 C   0  0  0  0  0  2  0  0  0  0  0  0
  188.2730  178.2260  140.5330 C   0  0  0  0  0  0  0  0  0  0  0  0
  183.8160  178.2520  142.5110 N   0  0  0  0  0  2  0  0  0  0  0  0
  184.3470  178.7970  143.7530 C   0  0  0  0  0  2  0  0  0  0  0  0
  190.2150  177.5810  142.0060 C   0  0  0  0  0  0  0  0  0  0  0  0
  190.7070  177.3110  143.2940 C   0  0  0  0  0  0  0  0  0  0  0  0
  188.6710  176.9680  138.3350 C   0  0  0  0  0  0  0  0  0  0  0  0
  186.2530  178.6550  139.1230 N   0  0  0  0  0  0  0  0  0  0  0  0
  187.9160  174.0570  135.4020 N   0  0  0  0  0  2  0  0  0  0  0  0
  186.4490  177.9870  138.0180 C   0  0  0  0  0  3  0  0  0  0  0  0
  184.6050  178.8060  141.4130 C   0  0  0  0  0  2  0  0  0  0  0  0
  186.8800  178.4360  140.4050 C   0  0  0  0  0  0  0  0  0  0  0  0
  186.0670  178.4510  141.5450 C   0  0  0  0  0  0  0  0  0  0  0  0
  187.9860  177.9240  142.9450 C   0  0  0  0  0  0  0  0  0  0  0  0
  189.3030  174.9840  137.0640 N   0  0  0  0  0  0  0  0  0  0  0  0
  187.4160  176.8820  137.8670 C   0  0  0  0  0  0  0  0  0  0  0  0
  192.0550  176.9990  143.4470 O   0  0  0  0  0  1  0  0  0  0  0  0
  189.5790  175.7750  138.2640 C   0  0  0  0  0  2  0  0  0  0  0  0
  188.1120  174.8810  136.5540 C   0  0  0  0  0  0  0  0  0  0  0  0
  185.7120  178.1790  144.0320 C   0  0  0  0  0  2  0  0  0  0  0  0
  186.6170  178.2190  142.8180 C   0  0  0  0  0  0  0  0  0  0  0  0
  188.5090  177.6520  144.2130 C   0  0  0  0  0  3  0  0  0  0  0  0
  189.2690  178.4900  139.0550 S   0  0  0  0  0  0  0  0  0  0  0  0
  191.1330  177.4650  140.9220 N   0  0  0  0  0  1  0  0  0  0  0  0
  188.8390  177.9080  141.8060 C   0  0  0  0  0  0  0  0  0  0  0  0
  189.8550  177.3520  144.4090 C   0  0  0  0  0  0  0  0  0  0  0  0
  186.6150  173.8600  134.7790 C   0  0  0  0  0  3  0  0  0  0  0  0
  185.8240  173.0610  135.6020 O   0  0  0  0  0  1  0  0  0  0  0  0
  185.9910  175.0930  134.5940 O   0  0  0  0  0  1  0  0  0  0  0  0
  190.3300  177.0780  145.7860 C   0  0  0  0  0  0  0  0  0  0  0  0
  191.6770  177.1760  146.1150 O   0  0  0  0  0  0  0  0  0  0  0  0
  189.5080  176.7530  146.6840 O   0  0  0  0  0  1  0  0  0  0  0  0
  1 16  1  0  0  0  0
  2 25  1  0  0  0  0
  3  4  1  0  0  0  0
  4 20  1  0  0  0  0
  5  6  1  0  0  0  0
  6 17  1  0  0  0  0
  6 26  2  0  0  0  0
  7 23  1  0  0  0  0
  8 12  1  0  0  0  0
  9 19  1  0  0  0  0
 10  8  2  0  0  0  0
 11 13  1  0  0  0  0
 11  3  1  0  0  0  0
 12  2  2  0  0  0  0
 12 13  1  0  0  0  0
 13 21  2  0  0  0  0
 14 22  2  0  0  0  0
 15 18  1  0  0  0  0
 16 10  1  0  0  0  0
 16  7  2  0  0  0  0
 18  7  1  0  0  0  0
 19 15  2  0  0  0  0
 19  1  1  0  0  0  0
 21 14  1  0  0  0  0
 21 20  1  0  0  0  0
 22 26  1  0  0  0  0
 23  2  1  0  0  0  0
 24  5  1  0  0  0  0
 25  5  2  0  0  0  0
 25 14  1  0  0  0  0
 26 30  1  0  0  0  0
 27  9  1  0  0  0  0
 27 28  1  0  0  0  0
 29 27  1  0  0  0  0
 30 31  2  0  0  0  0
 30 32  1  0  0  0  0
M  END
>  <MODEL>
1

>  <REMARK>
 VINA RESULT:      -9.3      0.000      0.000
  Name = 
  2 active torsions:
  status: ('A' for Active; 'I' for Inactive)
    1  A    between atoms: C_1  and  N_10
    2  A    between atoms: C_11  and  C_32
                            x       y       z     vdW  Elec       q    Type
                         _______ _______ _______ _____ _____    ______ ____

>  <TORSDO>
F 2

$$$$
=
 OpenBabel10262421233D

 32 36  0  0  0  0  0  0  0  0999 V2000
  181.8430  176.1700  139.5210 C   0  0  0  0  0  2  0  0  0  0  0  0
  185.1570  178.7480  140.9870 C   0  0  0  0  0  0  0  0  0  0  0  0
  183.8240  178.1440  145.6380 N   0  0  0  0  0  2  0  0  0  0  0  0
  185.0940  178.6910  146.0960 C   0  0  0  0  0  2  0  0  0  0  0  0
  187.5570  178.2740  140.3760 C   0  0  0  0  0  0  0  0  0  0  0  0
  188.8720  178.0070  140.7920 C   0  0  0  0  0  0  0  0  0  0  0  0
  183.7770  177.6510  139.1260 C   0  0  0  0  0  0  0  0  0  0  0  0
  182.7650  178.9950  141.6710 N   0  0  0  0  0  0  0  0  0  0  0  0
  181.1650  174.8090  137.4680 N   0  0  0  0  0  2  0  0  0  0  0  0
  182.0700  178.4070  140.7350 C   0  0  0  0  0  3  0  0  0  0  0  0
  183.4620  178.8390  144.4050 C   0  0  0  0  0  2  0  0  0  0  0  0
  184.1590  178.7940  141.9880 C   0  0  0  0  0  0  0  0  0  0  0  0
  184.5140  178.6580  143.3370 C   0  0  0  0  0  0  0  0  0  0  0  0
  186.8370  178.3020  142.7100 C   0  0  0  0  0  0  0  0  0  0  0  0
  183.2890  175.8180  137.5900 N   0  0  0  0  0  0  0  0  0  0  0  0
  182.6190  177.4350  139.7690 C   0  0  0  0  0  0  0  0  0  0  0  0
  189.8640  177.8530  139.8280 O   0  0  0  0  0  1  0  0  0  0  0  0
  184.3530  176.5810  138.2450 C   0  0  0  0  0  2  0  0  0  0  0  0
  182.1400  175.5970  138.1560 C   0  0  0  0  0  0  0  0  0  0  0  0
  186.2080  178.2300  145.1620 C   0  0  0  0  0  2  0  0  0  0  0  0
  185.8520  178.4350  143.7040 C   0  0  0  0  0  0  0  0  0  0  0  0
  188.1570  178.0360  143.0900 C   0  0  0  0  0  3  0  0  0  0  0  0
  184.6490  179.1980  139.3190 S   0  0  0  0  0  0  0  0  0  0  0  0
  187.3160  178.3200  138.9720 N   0  0  0  0  0  1  0  0  0  0  0  0
  186.5100  178.4420  141.3320 C   0  0  0  0  0  0  0  0  0  0  0  0
  189.1810  177.8930  142.1570 C   0  0  0  0  0  0  0  0  0  0  0  0
  179.8630  174.4860  138.0330 C   0  0  0  0  0  3  0  0  0  0  0  0
  178.9310  174.3650  137.0040 O   0  0  0  0  0  1  0  0  0  0  0  0
  179.9390  173.2810  138.7310 O   0  0  0  0  0  1  0  0  0  0  0  0
  190.5530  177.6140  142.6430 C   0  0  0  0  0  0  0  0  0  0  0  0
  191.3530  178.6280  143.1570 O   0  0  0  0  0  1  0  0  0  0  0  0
  191.0130  176.4420  142.5970 O   0  0  0  0  0  0  0  0  0  0  0  0
  1 16  1  0  0  0  0
  2 25  2  0  0  0  0
  2 12  1  0  0  0  0
  3  4  1  0  0  0  0
  5  6  2  0  0  0  0
  5 25  1  0  0  0  0
  6 26  1  0  0  0  0
  7 23  1  0  0  0  0
  7 16  2  0  0  0  0
  8 12  1  0  0  0  0
  9 27  1  0  0  0  0
  9 19  1  0  0  0  0
 10  8  2  0  0  0  0
 11  3  1  0  0  0  0
 12 13  2  0  0  0  0
 13 21  1  0  0  0  0
 13 11  1  0  0  0  0
 14 22  1  0  0  0  0
 14 21  2  0  0  0  0
 15 19  2  0  0  0  0
 15 18  1  0  0  0  0
 16 10  1  0  0  0  0
 17  6  1  0  0  0  0
 18  7  1  0  0  0  0
 19  1  1  0  0  0  0
 20  4  1  0  0  0  0
 21 20  1  0  0  0  0
 23  2  1  0  0  0  0
 24  5  1  0  0  0  0
 25 14  1  0  0  0  0
 26 30  1  0  0  0  0
 26 22  2  0  0  0  0
 27 29  1  0  0  0  0
 28 27  1  0  0  0  0
 30 31  1  0  0  0  0
 32 30  2  0  0  0  0
M  END
>  <MODEL>
2

>  <REMARK>
 VINA RESULT:      -9.2      3.319      4.467
  Name = 
  2 active torsions:
  status: ('A' for Active; 'I' for Inactive)
    1  A    between atoms: C_1  and  N_10
    2  A    between atoms: C_11  and  C_32
                            x       y       z     vdW  Elec       q    Type
                         _______ _______ _______ _____ _____    ______ ____

>  <TORSDO>
F 2

$$$$
=
 OpenBabel10262421233D

 32 36  0  0  0  0  0  0  0  0999 V2000
  182.4330  176.3870  140.1360 C   0  0  0  0  0  2  0  0  0  0  0  0
  186.2710  178.6120  140.4400 C   0  0  0  0  0  0  0  0  0  0  0  0
  186.9270  177.2260  145.0680 N   0  0  0  0  0  2  0  0  0  0  0  0
  188.3160  177.6630  145.0250 C   0  0  0  0  0  2  0  0  0  0  0  0
  188.1530  178.2110  138.8090 C   0  0  0  0  0  0  0  0  0  0  0  0
  189.4920  177.8520  138.5870 C   0  0  0  0  0  0  0  0  0  0  0  0
  184.1550  177.8800  139.1910 C   0  0  0  0  0  0  0  0  0  0  0  0
  184.4060  178.7750  142.0970 N   0  0  0  0  0  0  0  0  0  0  0  0
  180.8500  175.4170  138.3800 N   0  0  0  0  0  2  0  0  0  0  0  0
  183.3380  178.3720  141.4640 C   0  0  0  0  0  3  0  0  0  0  0  0
  186.1520  178.1320  144.2240 C   0  0  0  0  0  2  0  0  0  0  0  0
  185.7830  178.4990  141.7620 C   0  0  0  0  0  0  0  0  0  0  0  0
  186.6490  178.1230  142.7980 C   0  0  0  0  0  0  0  0  0  0  0  0
  188.4650  177.8420  141.2040 C   0  0  0  0  0  0  0  0  0  0  0  0
  182.9160  176.3530  137.7460 N   0  0  0  0  0  0  0  0  0  0  0  0
  183.3510  177.5750  140.2220 C   0  0  0  0  0  0  0  0  0  0  0  0
  189.9810  177.8520  137.2830 O   0  0  0  0  0  1  0  0  0  0  0  0
  184.2190  176.9710  137.9990 C   0  0  0  0  0  2  0  0  0  0  0  0
  182.0880  176.0550  138.7030 C   0  0  0  0  0  0  0  0  0  0  0  0
  188.9000  177.3530  143.6510 C   0  0  0  0  0  2  0  0  0  0  0  0
  187.9940  177.8160  142.5280 C   0  0  0  0  0  0  0  0  0  0  0  0
  189.7950  177.4920  140.9470 C   0  0  0  0  0  3  0  0  0  0  0  0
  185.1620  179.3550  139.2300 S   0  0  0  0  0  0  0  0  0  0  0  0
  187.3600  178.5050  137.6620 N   0  0  0  0  0  1  0  0  0  0  0  0
  187.6130  178.2270  140.1310 C   0  0  0  0  0  0  0  0  0  0  0  0
  190.3260  177.4960  139.6590 C   0  0  0  0  0  0  0  0  0  0  0  0
  179.8740  175.0220  139.3850 C   0  0  0  0  0  3  0  0  0  0  0  0
  178.9320  176.0380  139.5370 O   0  0  0  0  0  1  0  0  0  0  0  0
  179.2310  173.8530  138.9810 O   0  0  0  0  0  1  0  0  0  0  0  0
  191.7450  177.1140  139.4730 C   0  0  0  0  0  0  0  0  0  0  0  0
  192.7510  177.6830  140.2450 O   0  0  0  0  0  1  0  0  0  0  0  0
  192.0590  176.2560  138.6050 O   0  0  0  0  0  0  0  0  0  0  0  0
  1 16  1  0  0  0  0
  2 12  1  0  0  0  0
  4  3  1  0  0  0  0
  5 25  1  0  0  0  0
  6  5  2  0  0  0  0
  6 26  1  0  0  0  0
  7 23  1  0  0  0  0
  7 16  2  0  0  0  0
  9 19  1  0  0  0  0
  9 27  1  0  0  0  0
 10  8  2  0  0  0  0
 11  3  1  0  0  0  0
 12  8  1  0  0  0  0
 12 13  2  0  0  0  0
 13 11  1  0  0  0  0
 14 21  2  0  0  0  0
 15 18  1  0  0  0  0
 15 19  2  0  0  0  0
 16 10  1  0  0  0  0
 17  6  1  0  0  0  0
 18  7  1  0  0  0  0
 19  1  1  0  0  0  0
 20  4  1  0  0  0  0
 21 13  1  0  0  0  0
 21 20  1  0  0  0  0
 22 14  1  0  0  0  0
 23  2  1  0  0  0  0
 24  5  1  0  0  0  0
 25  2  2  0  0  0  0
 25 14  1  0  0  0  0
 26 22  2  0  0  0  0
 27 28  1  0  0  0  0
 29 27  1  0  0  0  0
 30 26  1  0  0  0  0
 30 31  1  0  0  0  0
 32 30  2  0  0  0  0
M  END
>  <MODEL>
3

>  <REMARK>
 VINA RESULT:      -8.6      3.527      5.238
  Name = 
  2 active torsions:
  status: ('A' for Active; 'I' for Inactive)
    1  A    between atoms: C_1  and  N_10
    2  A    between atoms: C_11  and  C_32
                            x       y       z     vdW  Elec       q    Type
                         _______ _______ _______ _____ _____    ______ ____

>  <TORSDO>
F 2

$$$$
=
 OpenBabel10262421233D

 32 36  0  0  0  0  0  0  0  0999 V2000
  184.1780  176.0730  137.5930 C   0  0  0  0  0  2  0  0  0  0  0  0
  188.2990  177.7420  137.5980 C   0  0  0  0  0  0  0  0  0  0  0  0
  188.5290  177.6630  142.4680 N   0  0  0  0  0  2  0  0  0  0  0  0
  189.9700  177.8740  142.4260 C   0  0  0  0  0  2  0  0  0  0  0  0
  190.1650  176.6370  136.3100 C   0  0  0  0  0  0  0  0  0  0  0  0
  191.4400  176.0490  136.3110 C   0  0  0  0  0  0  0  0  0  0  0  0
  186.1510  176.9820  136.4240 C   0  0  0  0  0  0  0  0  0  0  0  0
  186.4130  178.6280  138.9790 N   0  0  0  0  0  0  0  0  0  0  0  0
  182.5410  174.8680  136.0450 N   0  0  0  0  0  2  0  0  0  0  0  0
  185.3230  178.2110  138.3930 C   0  0  0  0  0  3  0  0  0  0  0  0
  187.9430  178.3870  141.3430 C   0  0  0  0  0  2  0  0  0  0  0  0
  187.7430  178.0800  138.8540 C   0  0  0  0  0  0  0  0  0  0  0  0
  188.4940  177.9010  140.0230 C   0  0  0  0  0  0  0  0  0  0  0  0
  190.3120  176.9290  138.7310 C   0  0  0  0  0  0  0  0  0  0  0  0
  184.7530  175.2900  135.3570 N   0  0  0  0  0  0  0  0  0  0  0  0
  185.2660  177.0980  137.4260 C   0  0  0  0  0  0  0  0  0  0  0  0
  191.9790  175.6080  135.1060 O   0  0  0  0  0  1  0  0  0  0  0  0
  186.1240  175.7690  135.5390 C   0  0  0  0  0  2  0  0  0  0  0  0
  183.8480  175.3960  136.2840 C   0  0  0  0  0  0  0  0  0  0  0  0
  190.5570  177.1070  141.2460 C   0  0  0  0  0  2  0  0  0  0  0  0
  189.7850  177.3480  139.9650 C   0  0  0  0  0  0  0  0  0  0  0  0
  191.5800  176.3410  138.6960 C   0  0  0  0  0  3  0  0  0  0  0  0
  187.3740  178.2530  136.1400 S   0  0  0  0  0  0  0  0  0  0  0  0
  189.4780  176.6970  135.0630 N   0  0  0  0  0  1  0  0  0  0  0  0
  189.5770  177.1040  137.5250 C   0  0  0  0  0  0  0  0  0  0  0  0
  192.1610  175.9030  137.5080 C   0  0  0  0  0  0  0  0  0  0  0  0
  181.4720  174.9160  137.0310 C   0  0  0  0  0  3  0  0  0  0  0  0
  180.3030  175.3720  136.4250 O   0  0  0  0  0  1  0  0  0  0  0  0
  181.2550  173.6400  137.5510 O   0  0  0  0  0  1  0  0  0  0  0  0
  193.5100  175.2920  137.5580 C   0  0  0  0  0  0  0  0  0  0  0  0
  194.6360  176.0030  137.1600 O   0  0  0  0  0  0  0  0  0  0  0  0
  193.6520  174.1090  137.9680 O   0  0  0  0  0  1  0  0  0  0  0  0
  2 12  1  0  0  0  0
  4  3  1  0  0  0  0
  5  6  2  0  0  0  0
  5 25  1  0  0  0  0
  6 26  1  0  0  0  0
  7 16  2  0  0  0  0
  9 19  1  0  0  0  0
  9 27  1  0  0  0  0
 10  8  2  0  0  0  0
 11  3  1  0  0  0  0
 12  8  1  0  0  0  0
 12 13  2  0  0  0  0
 13 11  1  0  0  0  0
 14 21  2  0  0  0  0
 15 18  1  0  0  0  0
 15 19  2  0  0  0  0
 16  1  1  0  0  0  0
 16 10  1  0  0  0  0
 17  6  1  0  0  0  0
 18  7  1  0  0  0  0
 19  1  1  0  0  0  0
 20  4  1  0  0  0  0
 21 13  1  0  0  0  0
 21 20  1  0  0  0  0
 22 14  1  0  0  0  0
 23  7  1  0  0  0  0
 23  2  1  0  0  0  0
 24  5  1  0  0  0  0
 25  2  2  0  0  0  0
 25 14  1  0  0  0  0
 26 30  1  0  0  0  0
 26 22  2  0  0  0  0
 27 29  1  0  0  0  0
 28 27  1  0  0  0  0
 30 32  1  0  0  0  0
 31 30  2  0  0  0  0
M  END
>  <MODEL>
4

>  <REMARK>
 VINA RESULT:      -8.4      3.686      5.522
  Name = 
  2 active torsions:
  status: ('A' for Active; 'I' for Inactive)
    1  A    between atoms: C_1  and  N_10
    2  A    between atoms: C_11  and  C_32
                            x       y       z     vdW  Elec       q    Type
                         _______ _______ _______ _____ _____    ______ ____

>  <TORSDO>
F 2

$$$$
=
 OpenBabel10262421233D

 32 36  0  0  0  0  0  0  0  0999 V2000
  183.9160  175.7270  137.3230 C   0  0  0  0  0  2  0  0  0  0  0  0
  186.7310  178.3580  139.5430 C   0  0  0  0  0  0  0  0  0  0  0  0
  183.8300  178.4750  143.4600 N   0  0  0  0  0  2  0  0  0  0  0  0
  184.9070  179.0320  144.2680 C   0  0  0  0  0  2  0  0  0  0  0  0
  189.1450  177.7090  139.8800 C   0  0  0  0  0  0  0  0  0  0  0  0
  190.2070  177.4530  140.7630 C   0  0  0  0  0  0  0  0  0  0  0  0
  185.9880  177.0600  137.4610 C   0  0  0  0  0  0  0  0  0  0  0  0
  184.2810  178.7920  139.3040 N   0  0  0  0  0  0  0  0  0  0  0  0
  183.8720  174.1140  135.3420 N   0  0  0  0  0  2  0  0  0  0  0  0
  183.9030  178.1040  138.2600 C   0  0  0  0  0  3  0  0  0  0  0  0
  183.9770  179.0010  142.1050 C   0  0  0  0  0  2  0  0  0  0  0  0
  185.4570  178.5840  140.1140 C   0  0  0  0  0  0  0  0  0  0  0  0
  185.3120  178.6280  141.5070 C   0  0  0  0  0  0  0  0  0  0  0  0
  187.6700  178.0970  141.7880 C   0  0  0  0  0  0  0  0  0  0  0  0
  185.9030  175.0470  136.0840 N   0  0  0  0  0  0  0  0  0  0  0  0
  184.6650  176.9830  137.6750 C   0  0  0  0  0  0  0  0  0  0  0  0
  191.4540  177.1240  140.2380 O   0  0  0  0  0  1  0  0  0  0  0  0
  186.7380  175.8540  136.9760 C   0  0  0  0  0  2  0  0  0  0  0  0
  184.6140  174.9530  136.2300 C   0  0  0  0  0  0  0  0  0  0  0  0
  186.2300  178.4000  143.8500 C   0  0  0  0  0  2  0  0  0  0  0  0
  186.4180  178.4080  142.3470 C   0  0  0  0  0  0  0  0  0  0  0  0
  188.7500  177.8370  142.6390 C   0  0  0  0  0  3  0  0  0  0  0  0
  186.8700  178.5840  137.7620 S   0  0  0  0  0  0  0  0  0  0  0  0
  189.4080  177.5630  138.4870 N   0  0  0  0  0  1  0  0  0  0  0  0
  187.8510  178.0520  140.3780 C   0  0  0  0  0  0  0  0  0  0  0  0
  190.0160  177.5220  142.1520 C   0  0  0  0  0  0  0  0  0  0  0  0
  182.4330  173.9250  135.4440 C   0  0  0  0  0  3  0  0  0  0  0  0
  181.7870  174.8360  134.6110 O   0  0  0  0  0  1  0  0  0  0  0  0
  182.1000  172.6280  135.0570 O   0  0  0  0  0  1  0  0  0  0  0  0
  191.1070  177.2640  143.1210 C   0  0  0  0  0  0  0  0  0  0  0  0
  191.7660  178.3080  143.7580 O   0  0  0  0  0  1  0  0  0  0  0  0
  191.4510  176.0800  143.3820 O   0  0  0  0  0  0  0  0  0  0  0  0
  1 16  1  0  0  0  0
  2 12  2  0  0  0  0
  2 25  1  0  0  0  0
  3  4  1  0  0  0  0
  5 25  2  0  0  0  0
  5  6  1  0  0  0  0
  6 26  2  0  0  0  0
  7 16  2  0  0  0  0
  7 23  1  0  0  0  0
  8 12  1  0  0  0  0
  9 27  1  0  0  0  0
  9 19  1  0  0  0  0
 10  8  2  0  0  0  0
 11  3  1  0  0  0  0
 12 13  1  0  0  0  0
 13 11  1  0  0  0  0
 13 21  2  0  0  0  0
 14 21  1  0  0  0  0
 14 22  2  0  0  0  0
 15 19  2  0  0  0  0
 15 18  1  0  0  0  0
 16 10  1  0  0  0  0
 17  6  1  0  0  0  0
 18  7  1  0  0  0  0
 19  1  1  0  0  0  0
 20  4  1  0  0  0  0
 21 20  1  0  0  0  0
 23  2  1  0  0  0  0
 24  5  1  0  0  0  0
 25 14  1  0  0  0  0
 26 22  1  0  0  0  0
 26 30  1  0  0  0  0
 28 27  1  0  0  0  0
 29 27  1  0  0  0  0
 30 32  2  0  0  0  0
 30 31  1  0  0  0  0
M  END
>  <MODEL>
5

>  <REMARK>
 VINA RESULT:      -8.3      2.139      2.720
  Name = 
  2 active torsions:
  status: ('A' for Active; 'I' for Inactive)
    1  A    between atoms: C_1  and  N_10
    2  A    between atoms: C_11  and  C_32
                            x       y       z     vdW  Elec       q    Type
                         _______ _______ _______ _____ _____    ______ ____

>  <TORSDO>
F 2

$$$$
=
 OpenBabel10262421233D

 32 36  0  0  0  0  0  0  0  0999 V2000
  190.2420  176.6540  142.8700 C   0  0  0  0  0  2  0  0  0  0  0  0
  189.0190  177.2590  138.6370 C   0  0  0  0  0  0  0  0  0  0  0  0
  191.5660  173.3770  137.1480 N   0  0  0  0  0  2  0  0  0  0  0  0
  190.8820  173.3940  135.8620 C   0  0  0  0  0  2  0  0  0  0  0  0
  186.5880  177.4000  137.9810 C   0  0  0  0  0  0  0  0  0  0  0  0
  185.5230  176.9080  137.2080 C   0  0  0  0  0  0  0  0  0  0  0  0
  189.0700  177.9280  141.1110 C   0  0  0  0  0  0  0  0  0  0  0  0
  191.3770  176.9140  139.3920 N   0  0  0  0  0  0  0  0  0  0  0  0
  189.5260  177.2910  145.2390 N   0  0  0  0  0  2  0  0  0  0  0  0
  191.3890  177.2270  140.6600 C   0  0  0  0  0  3  0  0  0  0  0  0
  191.7090  174.7620  137.5910 C   0  0  0  0  0  2  0  0  0  0  0  0
  190.2360  176.5410  138.5900 C   0  0  0  0  0  0  0  0  0  0  0  0
  190.3670  175.4400  137.7330 C   0  0  0  0  0  0  0  0  0  0  0  0
  188.0430  175.6710  137.0520 C   0  0  0  0  0  0  0  0  0  0  0  0
  188.1900  177.8650  143.3870 N   0  0  0  0  0  0  0  0  0  0  0  0
  190.1880  177.3060  141.5150 C   0  0  0  0  0  0  0  0  0  0  0  0
  184.2790  177.5260  137.3060 O   0  0  0  0  0  1  0  0  0  0  0  0
  187.8370  177.8780  141.9660 C   0  0  0  0  0  2  0  0  0  0  0  0
  189.2710  177.2960  143.8320 C   0  0  0  0  0  0  0  0  0  0  0  0
  189.4230  173.7870  136.0710 C   0  0  0  0  0  2  0  0  0  0  0  0
  189.2820  175.0150  136.9460 C   0  0  0  0  0  0  0  0  0  0  0  0
  186.9610  175.2080  136.2950 C   0  0  0  0  0  3  0  0  0  0  0  0
  189.0290  178.8080  139.5570 S   0  0  0  0  0  0  0  0  0  0  0  0
  186.3050  178.4820  138.8640 N   0  0  0  0  0  1  0  0  0  0  0  0
  187.8810  176.7960  137.9080 C   0  0  0  0  0  0  0  0  0  0  0  0
  185.7060  175.8100  136.3520 C   0  0  0  0  0  0  0  0  0  0  0  0
  190.6940  176.6560  145.8310 C   0  0  0  0  0  3  0  0  0  0  0  0
  191.7870  177.5170  145.7350 O   0  0  0  0  0  1  0  0  0  0  0  0
  190.4460  176.3740  147.1740 O   0  0  0  0  0  1  0  0  0  0  0  0
  184.6140  175.2590  135.5170 C   0  0  0  0  0  0  0  0  0  0  0  0
  184.1200  173.9780  135.7300 O   0  0  0  0  0  1  0  0  0  0  0  0
  184.1130  175.9560  134.5940 O   0  0  0  0  0  0  0  0  0  0  0  0
  1 19  1  0  0  0  0
  2 23  1  0  0  0  0
  3 11  1  0  0  0  0
  4 20  1  0  0  0  0
  4  3  1  0  0  0  0
  5 24  1  0  0  0  0
  6 17  1  0  0  0  0
  6  5  2  0  0  0  0
  7 16  2  0  0  0  0
  7 18  1  0  0  0  0
  8 10  2  0  0  0  0
  9 27  1  0  0  0  0
 10 16  1  0  0  0  0
 11 13  1  0  0  0  0
 12  2  1  0  0  0  0
 12  8  1  0  0  0  0
 13 12  2  0  0  0  0
 14 25  1  0  0  0  0
 15 19  2  0  0  0  0
 16  1  1  0  0  0  0
 18 15  1  0  0  0  0
 19  9  1  0  0  0  0
 20 21  1  0  0  0  0
 21 14  2  0  0  0  0
 21 13  1  0  0  0  0
 22 26  2  0  0  0  0
 22 14  1  0  0  0  0
 23  7  1  0  0  0  0
 25  5  1  0  0  0  0
 25  2  2  0  0  0  0
 26  6  1  0  0  0  0
 27 29  1  0  0  0  0
 28 27  1  0  0  0  0
 30 31  1  0  0  0  0
 30 26  1  0  0  0  0
 32 30  2  0  0  0  0
M  END
>  <MODEL>
6

>  <REMARK>
 VINA RESULT:      -8.2      1.955      8.530
  Name = 
  2 active torsions:
  status: ('A' for Active; 'I' for Inactive)
    1  A    between atoms: C_1  and  N_10
    2  A    between atoms: C_11  and  C_32
                            x       y       z     vdW  Elec       q    Type
                         _______ _______ _______ _____ _____    ______ ____

>  <TORSDO>
F 2

$$$$
=
 OpenBabel10262421233D

 32 36  0  0  0  0  0  0  0  0999 V2000
  190.7420  176.6530  142.9480 C   0  0  0  0  0  2  0  0  0  0  0  0
  189.8960  176.9820  138.5950 C   0  0  0  0  0  0  0  0  0  0  0  0
  193.4320  173.8160  137.4750 N   0  0  0  0  0  2  0  0  0  0  0  0
  192.9120  173.6800  136.1210 C   0  0  0  0  0  2  0  0  0  0  0  0
  187.5900  176.5520  137.6690 C   0  0  0  0  0  0  0  0  0  0  0  0
  186.7640  175.8290  136.7930 C   0  0  0  0  0  0  0  0  0  0  0  0
  189.5100  177.6270  141.0450 C   0  0  0  0  0  0  0  0  0  0  0  0
  192.1690  177.1940  139.6140 N   0  0  0  0  0  0  0  0  0  0  0  0
  189.6350  177.0880  145.2090 N   0  0  0  0  0  2  0  0  0  0  0  0
  191.9640  177.4930  140.8680 C   0  0  0  0  0  3  0  0  0  0  0  0
  193.1960  175.1920  137.9040 C   0  0  0  0  0  2  0  0  0  0  0  0
  191.2450  176.5700  138.6970 C   0  0  0  0  0  0  0  0  0  0  0  0
  191.7250  175.5360  137.8820 C   0  0  0  0  0  0  0  0  0  0  0  0
  189.5040  175.2190  136.9430 C   0  0  0  0  0  0  0  0  0  0  0  0
  188.4180  177.3440  143.2090 N   0  0  0  0  0  0  0  0  0  0  0  0
  190.6900  177.2820  141.5820 C   0  0  0  0  0  0  0  0  0  0  0  0
  185.4070  176.1370  136.7400 O   0  0  0  0  0  1  0  0  0  0  0  0
  188.2350  177.2830  141.7580 C   0  0  0  0  0  2  0  0  0  0  0  0
  189.5450  177.0420  143.7830 C   0  0  0  0  0  0  0  0  0  0  0  0
  191.3880  173.7180  136.1600 C   0  0  0  0  0  2  0  0  0  0  0  0
  190.8660  174.8730  136.9880 C   0  0  0  0  0  0  0  0  0  0  0  0
  188.6530  174.5200  136.0800 C   0  0  0  0  0  3  0  0  0  0  0  0
  189.4400  178.4830  139.4790 S   0  0  0  0  0  0  0  0  0  0  0  0
  186.9640  177.5310  138.4940 N   0  0  0  0  0  1  0  0  0  0  0  0
  188.9880  176.2690  137.7520 C   0  0  0  0  0  0  0  0  0  0  0  0
  187.2940  174.8100  135.9850 C   0  0  0  0  0  0  0  0  0  0  0  0
  190.8440  176.7410  145.9410 C   0  0  0  0  0  3  0  0  0  0  0  0
  191.7160  177.8280  145.9330 O   0  0  0  0  0  1  0  0  0  0  0  0
  190.5210  176.4170  147.2570 O   0  0  0  0  0  1  0  0  0  0  0  0
  186.4620  174.0240  135.0440 C   0  0  0  0  0  0  0  0  0  0  0  0
  186.8390  172.7480  134.6450 O   0  0  0  0  0  1  0  0  0  0  0  0
  185.3900  174.5090  134.5940 O   0  0  0  0  0  0  0  0  0  0  0  0
  1 19  1  0  0  0  0
  2 12  1  0  0  0  0
  2 23  1  0  0  0  0
  3 11  1  0  0  0  0
  4 20  1  0  0  0  0
  4  3  1  0  0  0  0
  5 25  1  0  0  0  0
  5 24  1  0  0  0  0
  6  5  2  0  0  0  0
  7 16  2  0  0  0  0
  7 18  1  0  0  0  0
  8 10  2  0  0  0  0
  9 27  1  0  0  0  0
 10 16  1  0  0  0  0
 12  8  1  0  0  0  0
 13 11  1  0  0  0  0
 13 12  2  0  0  0  0
 14 21  2  0  0  0  0
 14 25  1  0  0  0  0
 15 19  2  0  0  0  0
 16  1  1  0  0  0  0
 17  6  1  0  0  0  0
 18 15  1  0  0  0  0
 19  9  1  0  0  0  0
 20 21  1  0  0  0  0
 21 13  1  0  0  0  0
 22 14  1  0  0  0  0
 23  7  1  0  0  0  0
 25  2  2  0  0  0  0
 26 22  2  0  0  0  0
 26  6  1  0  0  0  0
 27 29  1  0  0  0  0
 28 27  1  0  0  0  0
 30 26  1  0  0  0  0
 31 30  1  0  0  0  0
 32 30  2  0  0  0  0
M  END
>  <MODEL>
7

>  <REMARK>
 VINA RESULT:      -7.6      2.207      8.750
  Name = 
  2 active torsions:
  status: ('A' for Active; 'I' for Inactive)
    1  A    between atoms: C_1  and  N_10
    2  A    between atoms: C_11  and  C_32
                            x       y       z     vdW  Elec       q    Type
                         _______ _______ _______ _____ _____    ______ ____

>  <TORSDO>
F 2

$$$$
=
 OpenBabel10262421233D

 32 36  0  0  0  0  0  0  0  0999 V2000
  190.2330  177.0120  141.6550 C   0  0  0  0  0  2  0  0  0  0  0  0
  188.2780  177.1090  137.6620 C   0  0  0  0  0  0  0  0  0  0  0  0
  190.1920  172.8020  136.4100 N   0  0  0  0  0  2  0  0  0  0  0  0
  189.2790  172.7000  135.2790 C   0  0  0  0  0  2  0  0  0  0  0  0
  185.7840  177.4050  137.4290 C   0  0  0  0  0  0  0  0  0  0  0  0
  184.5580  176.9200  136.9460 C   0  0  0  0  0  0  0  0  0  0  0  0
  188.8490  178.1280  139.9440 C   0  0  0  0  0  0  0  0  0  0  0  0
  190.7030  176.6320  138.0380 N   0  0  0  0  0  0  0  0  0  0  0  0
  190.0320  178.0640  143.9740 N   0  0  0  0  0  2  0  0  0  0  0  0
  190.9790  177.1270  139.2140 C   0  0  0  0  0  3  0  0  0  0  0  0
  190.5210  174.2140  136.5870 C   0  0  0  0  0  2  0  0  0  0  0  0
  189.4060  176.2670  137.5200 C   0  0  0  0  0  0  0  0  0  0  0  0
  189.2860  175.0440  136.8480 C   0  0  0  0  0  0  0  0  0  0  0  0
  186.9000  175.4140  136.5570 C   0  0  0  0  0  0  0  0  0  0  0  0
  188.4150  178.4950  142.3170 N   0  0  0  0  0  0  0  0  0  0  0  0
  189.9720  177.4570  140.2410 C   0  0  0  0  0  0  0  0  0  0  0  0
  183.4060  177.6730  137.1580 O   0  0  0  0  0  1  0  0  0  0  0  0
  187.8000  178.3350  140.9980 C   0  0  0  0  0  2  0  0  0  0  0  0
  189.5140  177.8880  142.6530 C   0  0  0  0  0  0  0  0  0  0  0  0
  187.9210  173.2710  135.6740 C   0  0  0  0  0  2  0  0  0  0  0  0
  188.0430  174.6240  136.3450 C   0  0  0  0  0  0  0  0  0  0  0  0
  185.6620  174.9610  136.0890 C   0  0  0  0  0  3  0  0  0  0  0  0
  188.5810  178.7670  138.2970 S   0  0  0  0  0  0  0  0  0  0  0  0
  185.7580  178.6300  138.1560 N   0  0  0  0  0  1  0  0  0  0  0  0
  186.9890  176.6650  137.2300 C   0  0  0  0  0  0  0  0  0  0  0  0
  184.4900  175.6930  136.2650 C   0  0  0  0  0  0  0  0  0  0  0  0
  191.2390  177.4050  144.4490 C   0  0  0  0  0  3  0  0  0  0  0  0
  192.2320  178.3590  144.6640 O   0  0  0  0  0  1  0  0  0  0  0  0
  190.9720  176.7390  145.6440 O   0  0  0  0  0  1  0  0  0  0  0  0
  183.2200  175.1430  135.7370 C   0  0  0  0  0  0  0  0  0  0  0  0
  182.6050  175.6980  134.6210 O   0  0  0  0  0  0  0  0  0  0  0  0
  182.6790  174.1540  136.2990 O   0  0  0  0  0  1  0  0  0  0  0  0
  1 19  1  0  0  0  0
  2 23  1  0  0  0  0
  3 11  1  0  0  0  0
  4 20  1  0  0  0  0
  4  3  1  0  0  0  0
  5 24  1  0  0  0  0
  6 17  1  0  0  0  0
  6  5  2  0  0  0  0
  7 16  2  0  0  0  0
  7 18  1  0  0  0  0
  8 10  2  0  0  0  0
  9 27  1  0  0  0  0
 10 16  1  0  0  0  0
 11 13  1  0  0  0  0
 12  2  1  0  0  0  0
 12  8  1  0  0  0  0
 13 12  2  0  0  0  0
 14 25  1  0  0  0  0
 15 19  2  0  0  0  0
 16  1  1  0  0  0  0
 18 15  1  0  0  0  0
 19  9  1  0  0  0  0
 20 21  1  0  0  0  0
 21 14  2  0  0  0  0
 21 13  1  0  0  0  0
 22 26  2  0  0  0  0
 22 14  1  0  0  0  0
 23  7  1  0  0  0  0
 25  5  1  0  0  0  0
 25  2  2  0  0  0  0
 26  6  1  0  0  0  0
 27 28  1  0  0  0  0
 27 29  1  0  0  0  0
 30 26  1  0  0  0  0
 30 32  1  0  0  0  0
 31 30  2  0  0  0  0
M  END
>  <MODEL>
8

>  <REMARK>
 VINA RESULT:      -7.6      2.173      8.540
  Name = 
  2 active torsions:
  status: ('A' for Active; 'I' for Inactive)
    1  A    between atoms: C_1  and  N_10
    2  A    between atoms: C_11  and  C_32
                            x       y       z     vdW  Elec       q    Type
                         _______ _______ _______ _____ _____    ______ ____

>  <TORSDO>
F 2

$$$$
=
 OpenBabel10262421233D

 32 36  0  0  0  0  0  0  0  0999 V2000
  185.1420  178.3000  142.4890 C   0  0  0  0  0  2  0  0  0  0  0  0
  183.5860  178.1240  138.3270 C   0  0  0  0  0  0  0  0  0  0  0  0
  187.1540  175.1150  136.9170 N   0  0  0  0  0  2  0  0  0  0  0  0
  186.4380  174.8070  135.6870 C   0  0  0  0  0  2  0  0  0  0  0  0
  181.2060  177.4420  137.8430 C   0  0  0  0  0  0  0  0  0  0  0  0
  180.3150  176.5780  137.1850 C   0  0  0  0  0  0  0  0  0  0  0  0
  183.5430  178.9880  140.7400 C   0  0  0  0  0  0  0  0  0  0  0  0
  185.9660  178.5980  138.9280 N   0  0  0  0  0  0  0  0  0  0  0  0
  184.3780  178.8850  144.8560 N   0  0  0  0  0  2  0  0  0  0  0  0
  185.9390  179.0080  140.1670 C   0  0  0  0  0  3  0  0  0  0  0  0
  186.8730  176.5090  137.2550 C   0  0  0  0  0  2  0  0  0  0  0  0
  184.9640  177.8200  138.2380 C   0  0  0  0  0  0  0  0  0  0  0  0
  185.3940  176.7450  137.4490 C   0  0  0  0  0  0  0  0  0  0  0  0
  183.0860  176.1790  136.9270 C   0  0  0  0  0  0  0  0  0  0  0  0
  182.8400  178.8510  143.0730 N   0  0  0  0  0  0  0  0  0  0  0  0
  184.8190  178.7820  141.1000 C   0  0  0  0  0  0  0  0  0  0  0  0
  178.9460  176.7840  137.3330 O   0  0  0  0  0  1  0  0  0  0  0  0
  182.4320  178.6300  141.6850 C   0  0  0  0  0  2  0  0  0  0  0  0
  184.0660  178.6880  143.4750 C   0  0  0  0  0  0  0  0  0  0  0  0
  184.9420  174.7420  135.9760 C   0  0  0  0  0  2  0  0  0  0  0  0
  184.4630  175.9360  136.7750 C   0  0  0  0  0  0  0  0  0  0  0  0
  182.1710  175.3380  136.2850 C   0  0  0  0  0  3  0  0  0  0  0  0
  183.1500  179.6720  139.1370 S   0  0  0  0  0  0  0  0  0  0  0  0
  180.6390  178.4550  138.6700 N   0  0  0  0  0  1  0  0  0  0  0  0
  182.6180  177.2670  137.7150 C   0  0  0  0  0  0  0  0  0  0  0  0
  180.7950  175.5220  136.3940 C   0  0  0  0  0  0  0  0  0  0  0  0
  185.7140  178.7000  145.4020 C   0  0  0  0  0  3  0  0  0  0  0  0
  185.8000  179.3340  146.6400 O   0  0  0  0  0  1  0  0  0  0  0  0
  185.9730  177.3390  145.5610 O   0  0  0  0  0  1  0  0  0  0  0  0
  179.8930  174.5880  135.6800 C   0  0  0  0  0  0  0  0  0  0  0  0
  179.6190  173.3230  136.1870 O   0  0  0  0  0  1  0  0  0  0  0  0
  179.3570  174.9350  134.5940 O   0  0  0  0  0  0  0  0  0  0  0  0
  1 19  1  0  0  0  0
  2 23  1  0  0  0  0
  3 11  1  0  0  0  0
  4 20  1  0  0  0  0
  4  3  1  0  0  0  0
  5 24  1  0  0  0  0
  6 17  1  0  0  0  0
  6  5  2  0  0  0  0
  7 16  2  0  0  0  0
  7 18  1  0  0  0  0
  8 10  2  0  0  0  0
  9 27  1  0  0  0  0
 10 16  1  0  0  0  0
 11 13  1  0  0  0  0
 12  2  1  0  0  0  0
 12  8  1  0  0  0  0
 13 12  2  0  0  0  0
 14 25  1  0  0  0  0
 15 19  2  0  0  0  0
 16  1  1  0  0  0  0
 18 15  1  0  0  0  0
 19  9  1  0  0  0  0
 20 21  1  0  0  0  0
 21 14  2  0  0  0  0
 21 13  1  0  0  0  0
 22 26  2  0  0  0  0
 22 14  1  0  0  0  0
 23  7  1  0  0  0  0
 25  5  1  0  0  0  0
 25  2  2  0  0  0  0
 26  6  1  0  0  0  0
 27 29  1  0  0  0  0
 27 28  1  0  0  0  0
 30 31  1  0  0  0  0
 30 26  1  0  0  0  0
 32 30  2  0  0  0  0
M  END
>  <MODEL>
9

>  <REMARK>
 VINA RESULT:      -7.2      3.947      9.605
  Name = 
  2 active torsions:
  status: ('A' for Active; 'I' for Inactive)
    1  A    between atoms: C_1  and  N_10
    2  A    between atoms: C_11  and  C_32
                            x       y       z     vdW  Elec       q    Type
                         _______ _______ _______ _____ _____    ______ ____

>  <TORSDO>
F 2

$$$$
