=
 OpenBabel10262421513D

 30 31  0  0  1  0  0  0  0  0999 V2000
  190.4750  177.3180  145.2170 N   0  0  0  0  0  0  0  0  0  0  0  0
  189.2850  176.9920  145.9810 C   0  0  1  0  0  3  0  0  0  0  0  0
  189.8010  176.3580  147.2640 C   0  0  0  0  0  2  0  0  0  0  0  0
  191.7020  177.1330  145.9660 C   0  0  0  0  0  2  0  0  0  0  0  0
  191.2730  176.7330  147.3640 C   0  0  0  0  0  2  0  0  0  0  0  0
  191.5440  177.9840  143.2520 O   0  0  0  0  0  0  0  0  0  0  0  0
  190.4730  177.6280  143.8160 C   0  0  0  0  0  0  0  0  0  0  0  0
  189.2170  177.4910  143.0010 C   0  0  2  0  0  3  0  0  0  0  0  0
  190.2080  175.3920  142.8640 N   0  0  0  0  0  1  0  0  0  0  0  0
  189.0430  176.1060  142.5460 N   0  0  0  0  0  0  0  0  0  0  0  0
  188.0500  175.5480  143.2790 O   0  0  0  0  0  1  0  0  0  0  0  0
  189.3030  178.4420  141.8070 C   0  0  0  0  0  2  0  0  0  0  0  0
  190.5170  177.6610  139.8990 O   0  0  0  0  0  1  0  0  0  0  0  0
  189.2530  177.6800  140.4910 C   0  0  2  0  0  3  0  0  0  0  0  0
  188.2120  178.2580  139.5320 C   0  0  0  0  0  2  0  0  0  0  0  0
  188.9680  179.0780  137.2870 C   0  0  0  0  0  1  0  0  0  0  0  0
  187.1560  177.4150  137.4580 C   0  0  0  0  0  1  0  0  0  0  0  0
  188.4560  177.8860  138.0730 C   0  0  0  0  0  3  0  0  0  0  0  0
  188.5190  178.2740  146.2970 C   0  0  0  0  0  2  0  0  0  0  0  0
  187.1500  178.0030  146.9120 C   0  0  1  0  0  3  0  0  0  0  0  0
  187.2790  177.9550  148.2990 O   0  0  0  0  0  1  0  0  0  0  0  0
  186.1480  179.0920  146.5480 C   0  0  0  0  0  2  0  0  0  0  0  0
  184.2590  178.2210  142.4710 C   0  0  0  0  0  0  0  0  0  0  0  0
  183.3940  179.2470  143.1230 C   0  0  0  0  0  2  0  0  0  0  0  0
  183.8660  177.7000  141.2850 F   0  0  0  0  0  0  0  0  0  0  0  0
  185.3600  178.7370  145.3310 C   0  0  0  0  0  0  0  0  0  0  0  0
  183.0070  178.8390  144.5040 C   0  0  0  0  0  3  0  0  0  0  0  0
  185.4580  177.8920  142.9530 C   0  0  0  0  0  3  0  0  0  0  0  0
  183.8930  178.6550  145.4810 C   0  0  0  0  0  3  0  0  0  0  0  0
  186.0310  178.3520  144.2350 C   0  0  0  0  0  3  0  0  0  0  0  0
  1  4  1  0  0  0  0
  1  2  1  0  0  0  0
  2 19  1  1  0  0  0
  2  3  1  0  0  0  0
  3  5  1  0  0  0  0
  4  5  1  0  0  0  0
  6  7  2  0  0  0  0
  7  1  1  0  0  0  0
  8 12  1  6  0  0  0
  8  7  1  0  0  0  0
 10  9  1  0  0  0  0
 10  8  1  0  0  0  0
 10 11  1  0  0  0  0
 14 13  1  6  0  0  0
 14 12  1  0  0  0  0
 15 14  1  0  0  0  0
 16 18  1  0  0  0  0
 17 18  1  0  0  0  0
 18 15  1  0  0  0  0
 19 20  1  0  0  0  0
 20 21  1  1  0  0  0
 22 20  1  0  0  0  0
 23 28  2  0  0  0  0
 23 24  1  0  0  0  0
 24 27  1  0  0  0  0
 25 23  1  0  0  0  0
 26 29  1  0  0  0  0
 26 22  1  0  0  0  0
 27 29  2  0  0  0  0
 28 30  1  0  0  0  0
 30 26  2  0  0  0  0
M  END
>  <MODEL>
1

>  <REMARK>
 VINA RESULT:      -8.0      0.000      0.000
  Name = 
  10 active torsions:
  status: ('A' for Active; 'I' for Inactive)
    1  A    between atoms: C_3  and  C_11
    2  A    between atoms: C_3  and  C_19
    3  A    between atoms: N_4  and  C_13
    4  A    between atoms: C_8  and  C_12
    5  A    between atoms: C_8  and  C_13
    6  A    between atoms: C_9  and  C_12
    7  A    between atoms: C_9  and  C_21
    8  A    between atoms: C_10  and  C_25
    9  A    between atoms: C_11  and  C_25
   10  A    between atoms: C_13  and  C_30
                            x       y       z     vdW  Elec       q    Type
                         _______ _______ _______ _____ _____    ______ ____

>  <TORSDO>
F 10

$$$$
=
 OpenBabel10262421513D

 30 31  0  0  1  0  0  0  0  0999 V2000
  185.0050  178.0130  138.2500 N   0  0  0  0  0  0  0  0  0  0  0  0
  184.6950  178.8330  139.4070 C   0  0  1  0  0  3  0  0  0  0  0  0
  183.2500  179.2640  139.2090 C   0  0  0  0  0  2  0  0  0  0  0  0
  183.8450  177.7190  137.4330 C   0  0  0  0  0  2  0  0  0  0  0  0
  182.6640  178.3270  138.1630 C   0  0  0  0  0  2  0  0  0  0  0  0
  186.5060  176.8720  136.8730 O   0  0  0  0  0  0  0  0  0  0  0  0
  186.3350  177.6610  137.8430 C   0  0  0  0  0  0  0  0  0  0  0  0
  187.5310  178.2580  138.5330 C   0  0  2  0  0  3  0  0  0  0  0  0
  189.0720  178.3060  136.7920 N   0  0  0  0  0  1  0  0  0  0  0  0
  188.2810  179.1230  137.6130 N   0  0  0  0  0  0  0  0  0  0  0  0
  187.3910  179.7290  136.7920 O   0  0  0  0  0  1  0  0  0  0  0  0
  188.4170  177.1230  139.0450 C   0  0  0  0  0  2  0  0  0  0  0  0
  190.7470  177.0760  139.5890 O   0  0  0  0  0  1  0  0  0  0  0  0
  189.5250  177.6510  139.9440 C   0  0  2  0  0  3  0  0  0  0  0  0
  189.2240  177.4170  141.4250 C   0  0  0  0  0  2  0  0  0  0  0  0
  190.2610  175.7260  142.9570 C   0  0  0  0  0  1  0  0  0  0  0  0
  190.7030  178.1300  143.2780 C   0  0  0  0  0  1  0  0  0  0  0  0
  190.4570  177.0500  142.2460 C   0  0  0  0  0  3  0  0  0  0  0  0
  184.8280  177.9920  140.6740 C   0  0  0  0  0  2  0  0  0  0  0  0
  185.6670  178.6760  141.7480 C   0  0  1  0  0  3  0  0  0  0  0  0
  186.1370  179.8890  141.2480 O   0  0  0  0  0  1  0  0  0  0  0  0
  184.8520  178.9440  143.0070 C   0  0  0  0  0  2  0  0  0  0  0  0
  186.8960  178.1220  147.0180 C   0  0  0  0  0  0  0  0  0  0  0  0
  187.9570  178.0020  145.9750 C   0  0  0  0  0  2  0  0  0  0  0  0
  187.2100  177.8200  148.3000 F   0  0  0  0  0  0  0  0  0  0  0  0
  185.5590  178.4780  144.2350 C   0  0  0  0  0  0  0  0  0  0  0  0
  187.5360  177.0930  144.8700 C   0  0  0  0  0  3  0  0  0  0  0  0
  185.6920  178.6310  146.7530 C   0  0  0  0  0  3  0  0  0  0  0  0
  186.4900  177.3420  144.0840 C   0  0  0  0  0  3  0  0  0  0  0  0
  185.1840  178.9960  145.4150 C   0  0  0  0  0  3  0  0  0  0  0  0
  1  2  1  0  0  0  0
  2 19  1  1  0  0  0
  3  2  1  0  0  0  0
  4  5  1  0  0  0  0
  4  1  1  0  0  0  0
  5  3  1  0  0  0  0
  6  7  2  0  0  0  0
  7  1  1  0  0  0  0
  7  8  1  0  0  0  0
  8 12  1  6  0  0  0
  9 10  1  0  0  0  0
 10  8  1  0  0  0  0
 11 10  1  0  0  0  0
 12 14  1  0  0  0  0
 14 13  1  6  0  0  0
 14 15  1  0  0  0  0
 15 18  1  0  0  0  0
 18 16  1  0  0  0  0
 18 17  1  0  0  0  0
 19 20  1  0  0  0  0
 20 21  1  6  0  0  0
 20 22  1  0  0  0  0
 22 26  1  0  0  0  0
 23 25  1  0  0  0  0
 24 23  1  0  0  0  0
 26 30  2  0  0  0  0
 27 24  1  0  0  0  0
 28 23  2  0  0  0  0
 29 26  1  0  0  0  0
 29 27  2  0  0  0  0
 30 28  1  0  0  0  0
M  END
>  <MODEL>
2

>  <REMARK>
 VINA RESULT:      -8.0      3.460      6.555
  Name = 
  10 active torsions:
  status: ('A' for Active; 'I' for Inactive)
    1  A    between atoms: C_3  and  C_11
    2  A    between atoms: C_3  and  C_19
    3  A    between atoms: N_4  and  C_13
    4  A    between atoms: C_8  and  C_12
    5  A    between atoms: C_8  and  C_13
    6  A    between atoms: C_9  and  C_12
    7  A    between atoms: C_9  and  C_21
    8  A    between atoms: C_10  and  C_25
    9  A    between atoms: C_11  and  C_25
   10  A    between atoms: C_13  and  C_30
                            x       y       z     vdW  Elec       q    Type
                         _______ _______ _______ _____ _____    ______ ____

>  <TORSDO>
F 10

$$$$
=
 OpenBabel10262421513D

 30 31  0  0  1  0  0  0  0  0999 V2000
  185.3080  176.8090  137.3440 N   0  0  0  0  0  0  0  0  0  0  0  0
  184.3510  177.7940  137.8130 C   0  0  1  0  0  3  0  0  0  0  0  0
  183.1020  177.5620  136.9760 C   0  0  0  0  0  2  0  0  0  0  0  0
  184.7310  175.8460  136.4270 C   0  0  0  0  0  2  0  0  0  0  0  0
  183.2540  176.1800  136.3580 C   0  0  0  0  0  2  0  0  0  0  0  0
  187.4620  175.9160  137.2350 O   0  0  0  0  0  0  0  0  0  0  0  0
  186.7160  176.8630  137.6100 C   0  0  0  0  0  0  0  0  0  0  0  0
  187.3230  178.0580  138.2930 C   0  0  2  0  0  3  0  0  0  0  0  0
  188.9660  179.5160  137.5290 N   0  0  0  0  0  1  0  0  0  0  0  0
  187.6410  179.1070  137.3160 N   0  0  0  0  0  0  0  0  0  0  0  0
  187.6160  178.5490  136.0820 O   0  0  0  0  0  1  0  0  0  0  0  0
  188.5850  177.6100  139.0300 C   0  0  0  0  0  2  0  0  0  0  0  0
  187.8750  179.0260  140.8230 O   0  0  0  0  0  1  0  0  0  0  0  0
  188.4340  177.7790  140.5340 C   0  0  2  0  0  3  0  0  0  0  0  0
  189.7620  177.5960  141.2700 C   0  0  0  0  0  2  0  0  0  0  0  0
  190.9400  177.8290  143.4700 C   0  0  0  0  0  1  0  0  0  0  0  0
  189.1340  176.1730  143.1960 C   0  0  0  0  0  1  0  0  0  0  0  0
  189.6160  177.5490  142.7880 C   0  0  0  0  0  3  0  0  0  0  0  0
  184.0510  177.5460  139.2890 C   0  0  0  0  0  2  0  0  0  0  0  0
  184.3880  178.7480  140.1670 C   0  0  1  0  0  3  0  0  0  0  0  0
  184.4800  179.8820  139.3620 O   0  0  0  0  0  1  0  0  0  0  0  0
  183.3200  178.9810  141.2290 C   0  0  0  0  0  2  0  0  0  0  0  0
  184.5370  178.6920  145.6310 C   0  0  0  0  0  0  0  0  0  0  0  0
  185.7890  178.9700  144.8680 C   0  0  0  0  0  2  0  0  0  0  0  0
  184.6280  178.4520  146.9600 F   0  0  0  0  0  0  0  0  0  0  0  0
  183.8370  178.7160  142.6030 C   0  0  0  0  0  0  0  0  0  0  0  0
  185.9560  178.0240  143.7270 C   0  0  0  0  0  3  0  0  0  0  0  0
  183.3280  178.7920  145.0760 C   0  0  0  0  0  3  0  0  0  0  0  0
  185.0970  177.9540  142.7110 C   0  0  0  0  0  3  0  0  0  0  0  0
  183.0520  179.0300  143.6450 C   0  0  0  0  0  3  0  0  0  0  0  0
  1  7  1  0  0  0  0
  1  2  1  0  0  0  0
  2 19  1  1  0  0  0
  3  2  1  0  0  0  0
  4  1  1  0  0  0  0
  5  4  1  0  0  0  0
  5  3  1  0  0  0  0
  6  7  2  0  0  0  0
  7  8  1  0  0  0  0
  8 12  1  6  0  0  0
 10  9  1  0  0  0  0
 10  8  1  0  0  0  0
 11 10  1  0  0  0  0
 12 14  1  0  0  0  0
 14 13  1  6  0  0  0
 14 15  1  0  0  0  0
 15 18  1  0  0  0  0
 18 17  1  0  0  0  0
 18 16  1  0  0  0  0
 19 20  1  0  0  0  0
 20 21  1  6  0  0  0
 20 22  1  0  0  0  0
 22 26  1  0  0  0  0
 23 25  1  0  0  0  0
 24 23  1  0  0  0  0
 26 29  1  0  0  0  0
 26 30  2  0  0  0  0
 27 24  1  0  0  0  0
 28 23  2  0  0  0  0
 29 27  2  0  0  0  0
 30 28  1  0  0  0  0
M  END
>  <MODEL>
3

>  <REMARK>
 VINA RESULT:      -7.8      3.515      6.894
  Name = 
  10 active torsions:
  status: ('A' for Active; 'I' for Inactive)
    1  A    between atoms: C_3  and  C_11
    2  A    between atoms: C_3  and  C_19
    3  A    between atoms: N_4  and  C_13
    4  A    between atoms: C_8  and  C_12
    5  A    between atoms: C_8  and  C_13
    6  A    between atoms: C_9  and  C_12
    7  A    between atoms: C_9  and  C_21
    8  A    between atoms: C_10  and  C_25
    9  A    between atoms: C_11  and  C_25
   10  A    between atoms: C_13  and  C_30
                            x       y       z     vdW  Elec       q    Type
                         _______ _______ _______ _____ _____    ______ ____

>  <TORSDO>
F 10

$$$$
=
 OpenBabel10262421513D

 30 31  0  0  1  0  0  0  0  0999 V2000
  190.1500  177.3620  145.3030 N   0  0  0  0  0  0  0  0  0  0  0  0
  189.9250  178.4480  144.3670 C   0  0  1  0  0  3  0  0  0  0  0  0
  191.1670  178.4750  143.4880 C   0  0  0  0  0  2  0  0  0  0  0  0
  191.3220  176.5700  144.9870 C   0  0  0  0  0  2  0  0  0  0  0  0
  191.8600  177.1340  143.6870 C   0  0  0  0  0  2  0  0  0  0  0  0
  189.6120  176.1540  147.2270 O   0  0  0  0  0  0  0  0  0  0  0  0
  189.4060  177.1750  146.5160 C   0  0  0  0  0  0  0  0  0  0  0  0
  188.4120  178.2080  146.9730 C   0  0  2  0  0  3  0  0  0  0  0  0
  187.8570  177.6330  149.1560 N   0  0  0  0  0  1  0  0  0  0  0  0
  188.6160  178.5310  148.3900 N   0  0  0  0  0  0  0  0  0  0  0  0
  189.9120  178.2790  148.6940 O   0  0  0  0  0  1  0  0  0  0  0  0
  187.0020  177.6650  146.7420 C   0  0  0  0  0  2  0  0  0  0  0  0
  185.6510  179.5810  147.2180 O   0  0  0  0  0  1  0  0  0  0  0  0
  186.0810  178.7410  146.1890 C   0  0  2  0  0  3  0  0  0  0  0  0
  184.8880  178.1470  145.4380 C   0  0  0  0  0  2  0  0  0  0  0  0
  182.9650  178.9740  144.0590 C   0  0  0  0  0  1  0  0  0  0  0  0
  185.0880  178.3360  142.9780 C   0  0  0  0  0  1  0  0  0  0  0  0
  184.4740  178.9580  144.2140 C   0  0  0  0  0  3  0  0  0  0  0  0
  188.6890  178.1430  143.5250 C   0  0  0  0  0  2  0  0  0  0  0  0
  189.0050  177.2780  142.3090 C   0  0  1  0  0  3  0  0  0  0  0  0
  188.5670  175.9780  142.5530 O   0  0  0  0  0  1  0  0  0  0  0  0
  188.3170  177.8040  141.0550 C   0  0  0  0  0  2  0  0  0  0  0  0
  190.2130  176.7610  137.0240 C   0  0  0  0  0  0  0  0  0  0  0  0
  190.8880  175.9000  138.0390 C   0  0  0  0  0  2  0  0  0  0  0  0
  190.6620  176.7310  135.7470 F   0  0  0  0  0  0  0  0  0  0  0  0
  189.1200  177.5380  139.8270 C   0  0  0  0  0  0  0  0  0  0  0  0
  191.3860  176.7040  139.1920 C   0  0  0  0  0  3  0  0  0  0  0  0
  189.1130  177.4620  137.3030 C   0  0  0  0  0  3  0  0  0  0  0  0
  190.5800  177.3930  139.9980 C   0  0  0  0  0  3  0  0  0  0  0  0
  188.5020  177.6160  138.6380 C   0  0  0  0  0  3  0  0  0  0  0  0
  1  7  1  0  0  0  0
  2 19  1  6  0  0  0
  2  1  1  0  0  0  0
  3  5  1  0  0  0  0
  3  2  1  0  0  0  0
  4  1  1  0  0  0  0
  5  4  1  0  0  0  0
  7  8  1  0  0  0  0
  7  6  2  0  0  0  0
  8 12  1  1  0  0  0
  8 10  1  0  0  0  0
 10 11  1  0  0  0  0
 10  9  1  0  0  0  0
 14 12  1  0  0  0  0
 14 13  1  1  0  0  0
 15 14  1  0  0  0  0
 16 18  1  0  0  0  0
 17 18  1  0  0  0  0
 18 15  1  0  0  0  0
 20 21  1  1  0  0  0
 20 19  1  0  0  0  0
 22 20  1  0  0  0  0
 23 28  2  0  0  0  0
 23 24  1  0  0  0  0
 24 27  1  0  0  0  0
 25 23  1  0  0  0  0
 26 29  1  0  0  0  0
 26 22  1  0  0  0  0
 27 29  2  0  0  0  0
 28 30  1  0  0  0  0
 30 26  2  0  0  0  0
M  END
>  <MODEL>
4

>  <REMARK>
 VINA RESULT:      -7.7      2.448      6.450
  Name = 
  10 active torsions:
  status: ('A' for Active; 'I' for Inactive)
    1  A    between atoms: C_3  and  C_11
    2  A    between atoms: C_3  and  C_19
    3  A    between atoms: N_4  and  C_13
    4  A    between atoms: C_8  and  C_12
    5  A    between atoms: C_8  and  C_13
    6  A    between atoms: C_9  and  C_12
    7  A    between atoms: C_9  and  C_21
    8  A    between atoms: C_10  and  C_25
    9  A    between atoms: C_11  and  C_25
   10  A    between atoms: C_13  and  C_30
                            x       y       z     vdW  Elec       q    Type
                         _______ _______ _______ _____ _____    ______ ____

>  <TORSDO>
F 10

$$$$
=
 OpenBabel10262421513D

 30 31  0  0  1  0  0  0  0  0999 V2000
  189.2320  177.6370  146.5700 N   0  0  0  0  0  0  0  0  0  0  0  0
  187.8130  177.4130  146.3670 C   0  0  1  0  0  3  0  0  0  0  0  0
  187.2400  177.2210  147.7630 C   0  0  0  0  0  2  0  0  0  0  0  0
  189.5900  177.8010  147.9650 C   0  0  0  0  0  2  0  0  0  0  0  0
  188.2820  177.7640  148.7310 C   0  0  0  0  0  2  0  0  0  0  0  0
  191.4210  177.8380  145.7830 O   0  0  0  0  0  0  0  0  0  0  0  0
  190.2200  177.5410  145.5340 C   0  0  0  0  0  0  0  0  0  0  0  0
  189.8480  177.0480  144.1620 C   0  0  2  0  0  3  0  0  0  0  0  0
  190.2520  175.1350  142.9030 N   0  0  0  0  0  1  0  0  0  0  0  0
  190.8840  176.1510  143.6360 N   0  0  0  0  0  0  0  0  0  0  0  0
  191.6260  176.8490  142.7430 O   0  0  0  0  0  1  0  0  0  0  0  0
  189.6640  178.2550  143.2420 C   0  0  0  0  0  2  0  0  0  0  0  0
  187.7790  176.9210  142.6160 O   0  0  0  0  0  1  0  0  0  0  0  0
  188.3200  178.2050  142.5310 C   0  0  2  0  0  3  0  0  0  0  0  0
  188.4250  178.6550  141.0730 C   0  0  0  0  0  2  0  0  0  0  0  0
  190.1910  177.5130  139.7080 C   0  0  0  0  0  1  0  0  0  0  0  0
  187.8810  177.6840  138.8610 C   0  0  0  0  0  1  0  0  0  0  0  0
  188.7280  177.5150  140.1050 C   0  0  0  0  0  3  0  0  0  0  0  0
  187.1950  178.6420  145.7060 C   0  0  0  0  0  2  0  0  0  0  0  0
  185.7040  178.4740  145.4320 C   0  0  1  0  0  3  0  0  0  0  0  0
  185.0090  178.5770  146.6350 O   0  0  0  0  0  1  0  0  0  0  0  0
  185.1890  179.5390  144.4720 C   0  0  0  0  0  2  0  0  0  0  0  0
  182.4270  178.0970  141.1200 C   0  0  0  0  0  0  0  0  0  0  0  0
  181.6480  179.1030  141.9010 C   0  0  0  0  0  2  0  0  0  0  0  0
  181.8030  177.4270  140.1230 F   0  0  0  0  0  0  0  0  0  0  0  0
  184.1600  178.9950  143.5380 C   0  0  0  0  0  0  0  0  0  0  0  0
  181.6780  178.8030  143.3610 C   0  0  0  0  0  3  0  0  0  0  0  0
  183.7380  177.9260  141.2890 C   0  0  0  0  0  3  0  0  0  0  0  0
  182.8000  178.7980  144.0790 C   0  0  0  0  0  3  0  0  0  0  0  0
  184.5650  178.5620  142.3340 C   0  0  0  0  0  3  0  0  0  0  0  0
  1  4  1  0  0  0  0
  2 19  1  1  0  0  0
  2  1  1  0  0  0  0
  2  3  1  0  0  0  0
  3  5  1  0  0  0  0
  4  5  1  0  0  0  0
  7  6  2  0  0  0  0
  7  1  1  0  0  0  0
  8 12  1  6  0  0  0
  8  7  1  0  0  0  0
  9 10  1  0  0  0  0
 10  8  1  0  0  0  0
 11 10  1  0  0  0  0
 14 13  1  6  0  0  0
 14 12  1  0  0  0  0
 15 14  1  0  0  0  0
 16 18  1  0  0  0  0
 17 18  1  0  0  0  0
 18 15  1  0  0  0  0
 20 19  1  0  0  0  0
 20 21  1  1  0  0  0
 22 20  1  0  0  0  0
 23 28  2  0  0  0  0
 23 24  1  0  0  0  0
 24 27  1  0  0  0  0
 25 23  1  0  0  0  0
 26 29  1  0  0  0  0
 26 22  1  0  0  0  0
 27 29  2  0  0  0  0
 28 30  1  0  0  0  0
 30 26  2  0  0  0  0
M  END
>  <MODEL>
5

>  <REMARK>
 VINA RESULT:      -7.5      1.532      2.351
  Name = 
  10 active torsions:
  status: ('A' for Active; 'I' for Inactive)
    1  A    between atoms: C_3  and  C_11
    2  A    between atoms: C_3  and  C_19
    3  A    between atoms: N_4  and  C_13
    4  A    between atoms: C_8  and  C_12
    5  A    between atoms: C_8  and  C_13
    6  A    between atoms: C_9  and  C_12
    7  A    between atoms: C_9  and  C_21
    8  A    between atoms: C_10  and  C_25
    9  A    between atoms: C_11  and  C_25
   10  A    between atoms: C_13  and  C_30
                            x       y       z     vdW  Elec       q    Type
                         _______ _______ _______ _____ _____    ______ ____

>  <TORSDO>
F 10

$$$$
=
 OpenBabel10262421513D

 30 31  0  0  1  0  0  0  0  0999 V2000
  189.3280  177.2550  146.3120 N   0  0  0  0  0  0  0  0  0  0  0  0
  189.6330  177.8460  145.0220 C   0  0  1  0  0  3  0  0  0  0  0  0
  191.1490  177.7850  144.9090 C   0  0  0  0  0  2  0  0  0  0  0  0
  190.4800  176.6470  146.9480 C   0  0  0  0  0  2  0  0  0  0  0  0
  191.6150  176.7790  145.9510 C   0  0  0  0  0  2  0  0  0  0  0  0
  187.8620  176.7720  148.0640 O   0  0  0  0  0  0  0  0  0  0  0  0
  188.0680  177.3930  146.9850 C   0  0  0  0  0  0  0  0  0  0  0  0
  187.0040  178.3050  146.4400 C   0  0  2  0  0  3  0  0  0  0  0  0
  185.9990  180.2040  147.3300 N   0  0  0  0  0  1  0  0  0  0  0  0
  186.1620  178.8240  147.5250 N   0  0  0  0  0  0  0  0  0  0  0  0
  184.9290  178.2790  147.3940 O   0  0  0  0  0  1  0  0  0  0  0  0
  186.1600  177.5250  145.4320 C   0  0  0  0  0  2  0  0  0  0  0  0
  184.2430  178.7450  144.6830 O   0  0  0  0  0  1  0  0  0  0  0  0
  185.5720  178.4480  144.3750 C   0  0  2  0  0  3  0  0  0  0  0  0
  185.6840  177.8570  142.9700 C   0  0  0  0  0  2  0  0  0  0  0  0
  183.7060  178.0020  141.4370 C   0  0  0  0  0  1  0  0  0  0  0  0
  185.9020  178.8610  140.7170 C   0  0  0  0  0  1  0  0  0  0  0  0
  184.9760  178.6860  141.9020 C   0  0  0  0  0  3  0  0  0  0  0  0
  188.9870  177.0140  143.9180 C   0  0  0  0  0  2  0  0  0  0  0  0
  189.8350  176.9600  142.6510 C   0  0  1  0  0  3  0  0  0  0  0  0
  190.1270  175.6290  142.3590 O   0  0  0  0  0  1  0  0  0  0  0  0
  189.1060  177.5770  141.4640 C   0  0  0  0  0  2  0  0  0  0  0  0
  190.8380  176.5760  137.3480 C   0  0  0  0  0  0  0  0  0  0  0  0
  191.7410  175.9350  138.3490 C   0  0  0  0  0  2  0  0  0  0  0  0
  191.1820  176.5260  136.0400 F   0  0  0  0  0  0  0  0  0  0  0  0
  189.8450  177.3630  140.1860 C   0  0  0  0  0  0  0  0  0  0  0  0
  192.1690  176.9050  139.3980 C   0  0  0  0  0  3  0  0  0  0  0  0
  189.6520  177.0860  137.6830 C   0  0  0  0  0  3  0  0  0  0  0  0
  191.3150  177.4990  140.2300 C   0  0  0  0  0  3  0  0  0  0  0  0
  189.1320  177.2330  139.0570 C   0  0  0  0  0  3  0  0  0  0  0  0
  1  4  1  0  0  0  0
  1  7  1  0  0  0  0
  2 19  1  6  0  0  0
  2  1  1  0  0  0  0
  3  2  1  0  0  0  0
  3  5  1  0  0  0  0
  5  4  1  0  0  0  0
  7  6  2  0  0  0  0
  8 12  1  6  0  0  0
  8  7  1  0  0  0  0
  8 10  1  0  0  0  0
  9 10  1  0  0  0  0
 11 10  1  0  0  0  0
 14 13  1  1  0  0  0
 14 12  1  0  0  0  0
 15 14  1  0  0  0  0
 16 18  1  0  0  0  0
 17 18  1  0  0  0  0
 18 15  1  0  0  0  0
 20 21  1  6  0  0  0
 20 19  1  0  0  0  0
 22 20  1  0  0  0  0
 23 28  2  0  0  0  0
 23 24  1  0  0  0  0
 24 27  1  0  0  0  0
 25 23  1  0  0  0  0
 26 29  1  0  0  0  0
 26 22  1  0  0  0  0
 27 29  2  0  0  0  0
 28 30  1  0  0  0  0
 30 26  2  0  0  0  0
M  END
>  <MODEL>
6

>  <REMARK>
 VINA RESULT:      -7.4      2.834      6.207
  Name = 
  10 active torsions:
  status: ('A' for Active; 'I' for Inactive)
    1  A    between atoms: C_3  and  C_11
    2  A    between atoms: C_3  and  C_19
    3  A    between atoms: N_4  and  C_13
    4  A    between atoms: C_8  and  C_12
    5  A    between atoms: C_8  and  C_13
    6  A    between atoms: C_9  and  C_12
    7  A    between atoms: C_9  and  C_21
    8  A    between atoms: C_10  and  C_25
    9  A    between atoms: C_11  and  C_25
   10  A    between atoms: C_13  and  C_30
                            x       y       z     vdW  Elec       q    Type
                         _______ _______ _______ _____ _____    ______ ____

>  <TORSDO>
F 10

$$$$
=
 OpenBabel10262421513D

 30 31  0  0  1  0  0  0  0  0999 V2000
  189.3710  177.7000  146.4720 N   0  0  0  0  0  0  0  0  0  0  0  0
  187.9710  177.3590  146.3040 C   0  0  1  0  0  3  0  0  0  0  0  0
  187.4390  177.1700  147.7170 C   0  0  0  0  0  2  0  0  0  0  0  0
  189.7390  177.9380  147.8540 C   0  0  0  0  0  2  0  0  0  0  0  0
  188.4510  177.8260  148.6460 C   0  0  0  0  0  2  0  0  0  0  0  0
  191.5240  178.0450  145.6360 O   0  0  0  0  0  0  0  0  0  0  0  0
  190.3460  177.6470  145.4200 C   0  0  0  0  0  0  0  0  0  0  0  0
  189.9910  177.0800  144.0730 C   0  0  2  0  0  3  0  0  0  0  0  0
  190.3770  175.0640  142.9790 N   0  0  0  0  0  1  0  0  0  0  0  0
  191.0180  176.1340  143.6220 N   0  0  0  0  0  0  0  0  0  0  0  0
  191.7630  176.7490  142.6720 O   0  0  0  0  0  1  0  0  0  0  0  0
  189.8480  178.2330  143.0800 C   0  0  0  0  0  2  0  0  0  0  0  0
  187.9110  176.9430  142.5250 O   0  0  0  0  0  1  0  0  0  0  0  0
  188.4890  178.2080  142.3970 C   0  0  2  0  0  3  0  0  0  0  0  0
  188.5760  178.6190  140.9270 C   0  0  0  0  0  2  0  0  0  0  0  0
  190.1430  177.1540  139.6300 C   0  0  0  0  0  1  0  0  0  0  0  0
  187.9420  177.7560  138.6950 C   0  0  0  0  0  1  0  0  0  0  0  0
  188.6930  177.4360  139.9700 C   0  0  0  0  0  3  0  0  0  0  0  0
  187.2470  178.5130  145.6170 C   0  0  0  0  0  2  0  0  0  0  0  0
  185.7580  178.2400  145.4240 C   0  0  1  0  0  3  0  0  0  0  0  0
  185.2110  177.8430  146.6430 O   0  0  0  0  0  1  0  0  0  0  0  0
  185.0220  179.4810  144.9340 C   0  0  0  0  0  2  0  0  0  0  0  0
  182.4460  178.3770  141.3160 C   0  0  0  0  0  0  0  0  0  0  0  0
  183.7890  177.7730  141.0740 C   0  0  0  0  0  2  0  0  0  0  0  0
  181.5110  178.2930  140.3410 F   0  0  0  0  0  0  0  0  0  0  0  0
  184.3240  179.2370  143.6380 C   0  0  0  0  0  0  0  0  0  0  0  0
  184.8790  178.7750  141.2480 C   0  0  0  0  0  3  0  0  0  0  0  0
  182.0970  178.8870  142.4990 C   0  0  0  0  0  3  0  0  0  0  0  0
  185.1250  179.3860  142.4060 C   0  0  0  0  0  3  0  0  0  0  0  0
  182.9930  179.0690  143.6590 C   0  0  0  0  0  3  0  0  0  0  0  0
  1  4  1  0  0  0  0
  2 19  1  1  0  0  0
  2  1  1  0  0  0  0
  2  3  1  0  0  0  0
  3  5  1  0  0  0  0
  4  5  1  0  0  0  0
  7  6  2  0  0  0  0
  7  1  1  0  0  0  0
  8 12  1  6  0  0  0
  8  7  1  0  0  0  0
  9 10  1  0  0  0  0
 10  8  1  0  0  0  0
 11 10  1  0  0  0  0
 14 13  1  6  0  0  0
 14 12  1  0  0  0  0
 15 14  1  0  0  0  0
 16 18  1  0  0  0  0
 17 18  1  0  0  0  0
 18 15  1  0  0  0  0
 20 19  1  0  0  0  0
 20 21  1  1  0  0  0
 22 20  1  0  0  0  0
 23 28  2  0  0  0  0
 24 27  1  0  0  0  0
 24 23  1  0  0  0  0
 25 23  1  0  0  0  0
 26 30  2  0  0  0  0
 26 22  1  0  0  0  0
 27 29  2  0  0  0  0
 28 30  1  0  0  0  0
 29 26  1  0  0  0  0
M  END
>  <MODEL>
7

>  <REMARK>
 VINA RESULT:      -7.4      1.555      2.507
  Name = 
  10 active torsions:
  status: ('A' for Active; 'I' for Inactive)
    1  A    between atoms: C_3  and  C_11
    2  A    between atoms: C_3  and  C_19
    3  A    between atoms: N_4  and  C_13
    4  A    between atoms: C_8  and  C_12
    5  A    between atoms: C_8  and  C_13
    6  A    between atoms: C_9  and  C_12
    7  A    between atoms: C_9  and  C_21
    8  A    between atoms: C_10  and  C_25
    9  A    between atoms: C_11  and  C_25
   10  A    between atoms: C_13  and  C_30
                            x       y       z     vdW  Elec       q    Type
                         _______ _______ _______ _____ _____    ______ ____

>  <TORSDO>
F 10

$$$$
=
 OpenBabel10262421513D

 30 31  0  0  1  0  0  0  0  0999 V2000
  191.0800  176.8820  140.2020 N   0  0  0  0  0  0  0  0  0  0  0  0
  189.8500  176.4950  140.8700 C   0  0  1  0  0  3  0  0  0  0  0  0
  190.1660  176.5750  142.3560 C   0  0  0  0  0  2  0  0  0  0  0  0
  192.0880  177.3870  141.1130 C   0  0  0  0  0  2  0  0  0  0  0  0
  191.4320  177.4110  142.4790 C   0  0  0  0  0  2  0  0  0  0  0  0
  192.4150  177.0890  138.2980 O   0  0  0  0  0  0  0  0  0  0  0  0
  191.3540  176.6410  138.8150 C   0  0  0  0  0  0  0  0  0  0  0  0
  190.4120  175.8210  137.9770 C   0  0  2  0  0  3  0  0  0  0  0  0
  189.8460  173.6550  137.3480 N   0  0  0  0  0  1  0  0  0  0  0  0
  190.8890  174.4370  137.8650 N   0  0  0  0  0  0  0  0  0  0  0  0
  191.8740  174.4100  136.9350 O   0  0  0  0  0  1  0  0  0  0  0  0
  190.3000  176.4640  136.5950 C   0  0  0  0  0  2  0  0  0  0  0  0
  189.3920  178.6000  137.1780 O   0  0  0  0  0  1  0  0  0  0  0  0
  189.1050  177.4030  136.5200 C   0  0  2  0  0  3  0  0  0  0  0  0
  187.8360  176.7630  137.0850 C   0  0  0  0  0  2  0  0  0  0  0  0
  185.9450  178.0730  138.0820 C   0  0  0  0  0  1  0  0  0  0  0  0
  185.5740  176.6760  136.0840 C   0  0  0  0  0  1  0  0  0  0  0  0
  186.5700  177.5650  136.7970 C   0  0  0  0  0  3  0  0  0  0  0  0
  188.7460  177.4860  140.5100 C   0  0  0  0  0  2  0  0  0  0  0  0
  188.2600  178.2850  141.7150 C   0  0  1  0  0  3  0  0  0  0  0  0
  188.6360  179.6170  141.5550 O   0  0  0  0  0  1  0  0  0  0  0  0
  186.7440  178.2140  141.8590 C   0  0  0  0  0  2  0  0  0  0  0  0
  185.1690  178.3920  146.1510 C   0  0  0  0  0  0  0  0  0  0  0  0
  186.6580  178.3750  146.2520 C   0  0  0  0  0  2  0  0  0  0  0  0
  184.4410  178.3350  147.2910 F   0  0  0  0  0  0  0  0  0  0  0  0
  186.3270  178.0790  143.2840 C   0  0  0  0  0  0  0  0  0  0  0  0
  187.2470  177.2610  145.4560 C   0  0  0  0  0  3  0  0  0  0  0  0
  184.5360  178.5830  144.9930 C   0  0  0  0  0  3  0  0  0  0  0  0
  187.1210  177.1680  144.1330 C   0  0  0  0  0  3  0  0  0  0  0  0
  185.1720  178.6490  143.6620 C   0  0  0  0  0  3  0  0  0  0  0  0
  1  2  1  0  0  0  0
  1  4  1  0  0  0  0
  2 19  1  1  0  0  0
  2  3  1  0  0  0  0
  3  5  1  0  0  0  0
  4  5  1  0  0  0  0
  6  7  2  0  0  0  0
  7  1  1  0  0  0  0
  8 12  1  6  0  0  0
  8  7  1  0  0  0  0
  9 10  1  0  0  0  0
 10  8  1  0  0  0  0
 11 10  1  0  0  0  0
 14 12  1  0  0  0  0
 14 15  1  0  0  0  0
 14 13  1  1  0  0  0
 17 18  1  0  0  0  0
 18 15  1  0  0  0  0
 18 16  1  0  0  0  0
 19 20  1  0  0  0  0
 20 21  1  6  0  0  0
 20 22  1  0  0  0  0
 22 26  1  0  0  0  0
 23 24  1  0  0  0  0
 23 25  1  0  0  0  0
 26 30  2  0  0  0  0
 26 29  1  0  0  0  0
 27 24  1  0  0  0  0
 28 23  2  0  0  0  0
 29 27  2  0  0  0  0
 30 28  1  0  0  0  0
M  END
>  <MODEL>
8

>  <REMARK>
 VINA RESULT:      -7.3      2.905      4.718
  Name = 
  10 active torsions:
  status: ('A' for Active; 'I' for Inactive)
    1  A    between atoms: C_3  and  C_11
    2  A    between atoms: C_3  and  C_19
    3  A    between atoms: N_4  and  C_13
    4  A    between atoms: C_8  and  C_12
    5  A    between atoms: C_8  and  C_13
    6  A    between atoms: C_9  and  C_12
    7  A    between atoms: C_9  and  C_21
    8  A    between atoms: C_10  and  C_25
    9  A    between atoms: C_11  and  C_25
   10  A    between atoms: C_13  and  C_30
                            x       y       z     vdW  Elec       q    Type
                         _______ _______ _______ _____ _____    ______ ____

>  <TORSDO>
F 10

$$$$
=
 OpenBabel10262421513D

 30 31  0  0  1  0  0  0  0  0999 V2000
  181.5380  178.5610  141.3900 N   0  0  0  0  0  0  0  0  0  0  0  0
  182.6440  179.0160  142.2110 C   0  0  1  0  0  3  0  0  0  0  0  0
  182.0620  179.1700  143.6080 C   0  0  0  0  0  2  0  0  0  0  0  0
  180.3580  178.2220  142.1610 C   0  0  0  0  0  2  0  0  0  0  0  0
  180.7550  178.3910  143.6140 C   0  0  0  0  0  2  0  0  0  0  0  0
  180.5590  178.0970  139.3220 O   0  0  0  0  0  0  0  0  0  0  0  0
  181.5300  178.5950  139.9560 C   0  0  0  0  0  0  0  0  0  0  0  0
  182.6480  179.2570  139.1980 C   0  0  2  0  0  3  0  0  0  0  0  0
  181.0640  180.9580  139.2760 N   0  0  0  0  0  1  0  0  0  0  0  0
  182.1800  180.4950  138.5630 N   0  0  0  0  0  0  0  0  0  0  0  0
  183.1420  181.4350  138.7220 O   0  0  0  0  0  1  0  0  0  0  0  0
  183.1730  178.2790  138.1480 C   0  0  0  0  0  2  0  0  0  0  0  0
  185.3010  179.0850  138.8860 O   0  0  0  0  0  1  0  0  0  0  0  0
  184.6440  177.9650  138.3750 C   0  0  2  0  0  3  0  0  0  0  0  0
  185.3290  177.4690  137.1000 C   0  0  0  0  0  2  0  0  0  0  0  0
  187.2730  178.0530  135.6290 C   0  0  0  0  0  1  0  0  0  0  0  0
  187.5920  176.5950  137.5920 C   0  0  0  0  0  1  0  0  0  0  0  0
  186.8220  177.7800  137.0510 C   0  0  0  0  0  3  0  0  0  0  0  0
  183.7450  177.9590  142.2110 C   0  0  0  0  0  2  0  0  0  0  0  0
  185.0890  178.5100  142.6770 C   0  0  1  0  0  3  0  0  0  0  0  0
  185.2970  179.7540  142.0840 O   0  0  0  0  0  1  0  0  0  0  0  0
  185.1310  178.6720  144.1920 C   0  0  0  0  0  2  0  0  0  0  0  0
  188.8120  177.2030  146.4790 C   0  0  0  0  0  0  0  0  0  0  0  0
  189.2960  177.6170  145.1290 C   0  0  0  0  0  2  0  0  0  0  0  0
  189.6890  176.6230  147.3320 F   0  0  0  0  0  0  0  0  0  0  0  0
  186.3450  178.0390  144.7840 C   0  0  0  0  0  0  0  0  0  0  0  0
  188.4860  176.9920  144.0430 C   0  0  0  0  0  3  0  0  0  0  0  0
  187.5860  177.4930  146.9160 C   0  0  0  0  0  3  0  0  0  0  0  0
  187.1840  177.2230  143.8840 C   0  0  0  0  0  3  0  0  0  0  0  0
  186.5060  178.1050  146.1150 C   0  0  0  0  0  3  0  0  0  0  0  0
  1  4  1  0  0  0  0
  1  2  1  0  0  0  0
  2 19  1  1  0  0  0
  2  3  1  0  0  0  0
  3  5  1  0  0  0  0
  4  5  1  0  0  0  0
  6  7  2  0  0  0  0
  7  1  1  0  0  0  0
  8 12  1  6  0  0  0
  8  7  1  0  0  0  0
 10 11  1  0  0  0  0
 10  8  1  0  0  0  0
 10  9  1  0  0  0  0
 12 14  1  0  0  0  0
 14 13  1  6  0  0  0
 15 14  1  0  0  0  0
 16 18  1  0  0  0  0
 18 15  1  0  0  0  0
 18 17  1  0  0  0  0
 19 20  1  0  0  0  0
 20 21  1  6  0  0  0
 20 22  1  0  0  0  0
 22 26  1  0  0  0  0
 23 28  2  0  0  0  0
 23 25  1  0  0  0  0
 24 23  1  0  0  0  0
 26 30  2  0  0  0  0
 27 24  1  0  0  0  0
 29 27  2  0  0  0  0
 29 26  1  0  0  0  0
 30 28  1  0  0  0  0
M  END
>  <MODEL>
9

>  <REMARK>
 VINA RESULT:      -7.2      4.519      7.227
  Name = 
  10 active torsions:
  status: ('A' for Active; 'I' for Inactive)
    1  A    between atoms: C_3  and  C_11
    2  A    between atoms: C_3  and  C_19
    3  A    between atoms: N_4  and  C_13
    4  A    between atoms: C_8  and  C_12
    5  A    between atoms: C_8  and  C_13
    6  A    between atoms: C_9  and  C_12
    7  A    between atoms: C_9  and  C_21
    8  A    between atoms: C_10  and  C_25
    9  A    between atoms: C_11  and  C_25
   10  A    between atoms: C_13  and  C_30
                            x       y       z     vdW  Elec       q    Type
                         _______ _______ _______ _____ _____    ______ ____

>  <TORSDO>
F 10

$$$$
