=
 OpenBabel10262422023D

 30 33  0  0  1  0  0  0  0  0999 V2000
  186.8920  178.9060  141.4800 C   0  0  0  0  0  0  0  0  0  0  0  0
  187.5220  178.0010  139.3840 C   0  0  0  0  0  3  0  0  0  0  0  0
  183.3280  177.5550  138.2820 O   0  0  0  0  0  0  0  0  0  0  0  0
  184.0210  178.9140  142.0300 C   0  0  0  0  0  2  0  0  0  0  0  0
  187.4240  178.0670  142.4570 O   0  0  0  0  0  0  0  0  0  0  0  0
  184.8630  178.3070  145.1020 C   0  0  1  0  0  3  0  0  0  0  0  0
  186.2130  178.6130  144.4730 C   0  0  0  0  0  2  0  0  0  0  0  0
  187.3240  176.4090  144.1890 C   0  0  0  0  0  1  0  0  0  0  0  0
  182.7370  176.6360  139.1800 C   0  0  2  0  0  3  0  0  0  0  0  0
  186.5920  177.5290  143.4760 C   0  0  2  0  0  3  0  0  0  0  0  0
  183.1730  178.5620  143.2460 C   0  0  1  0  0  3  0  0  0  0  0  0
  187.3730  177.3730  138.0430 C   0  0  0  0  0  2  0  0  0  0  0  0
  181.5170  178.2980  140.6640 C   0  0  1  0  0  3  0  0  0  0  0  0
  184.9440  178.5950  146.5870 C   0  0  0  0  0  1  0  0  0  0  0  0
  186.7500  180.1360  141.7140 O   0  0  0  0  0  0  0  0  0  0  0  0
  184.5870  178.0890  138.5620 C   0  0  0  0  0  0  0  0  0  0  0  0
  186.6140  178.2920  137.1530 C   0  0  0  0  0  3  0  0  0  0  0  0
  183.7830  179.1880  144.4930 C   0  0  0  0  0  2  0  0  0  0  0  0
  186.5040  178.3570  140.1780 C   0  0  0  0  0  0  0  0  0  0  0  0
  184.0800  177.7810  140.9940 C   0  0  1  0  0  3  0  0  0  0  0  0
  181.3890  176.1620  138.6600 C   0  0  0  0  0  1  0  0  0  0  0  0
  182.6680  177.2760  140.5620 C   0  0  2  0  0  3  0  0  0  0  0  0
  181.7870  179.1580  143.0570 C   0  0  0  0  0  2  0  0  0  0  0  0
  185.3440  178.5930  137.3990 C   0  0  0  0  0  3  0  0  0  0  0  0
  185.0530  178.1060  139.8450 C   0  0  0  0  0  0  0  0  0  0  0  0
  180.9360  178.3540  142.0780 C   0  0  0  0  0  2  0  0  0  0  0  0
  181.8690  179.5710  140.1880 O   0  0  0  0  0  0  0  0  0  0  0  0
  180.8720  179.9100  139.2690 C   0  0  0  0  0  3  0  0  0  0  0  0
  181.5180  180.3820  137.9820 C   0  0  0  0  0  1  0  0  0  0  0  0
  180.0180  181.0290  139.8320 C   0  0  0  0  0  1  0  0  0  0  0  0
  1 15  2  0  0  0  0
  1  5  1  0  0  0  0
  2 19  2  0  0  0  0
  3 16  1  0  0  0  0
  3  9  1  0  0  0  0
  5 10  1  0  0  0  0
  6 14  1  1  0  0  0
  7  6  1  0  0  0  0
  9 21  1  6  0  0  0
  9 22  1  0  0  0  0
 10  8  1  1  0  0  0
 10  7  1  0  0  0  0
 11  4  1  6  0  0  0
 11 18  1  0  0  0  0
 12  2  1  0  0  0  0
 13 27  1  1  0  0  0
 13 26  1  0  0  0  0
 16 25  2  0  0  0  0
 17 24  2  0  0  0  0
 17 12  1  0  0  0  0
 18  6  1  0  0  0  0
 19  1  1  0  0  0  0
 20  4  1  6  0  0  0
 22 13  1  0  0  0  0
 22 20  1  0  0  0  0
 23 11  1  0  0  0  0
 24 16  1  0  0  0  0
 25 19  1  0  0  0  0
 25 20  1  0  0  0  0
 26 23  1  0  0  0  0
 28 30  1  0  0  0  0
 28 27  1  0  0  0  0
 29 28  1  0  0  0  0
M  END
>  <MODEL>
1

>  <REMARK>
 VINA RESULT:      -6.1      0.000      0.000
  Name = 
  2 active torsions:
  status: ('A' for Active; 'I' for Inactive)
    1  A    between atoms: C_7  and  O_10
    2  A    between atoms: O_10  and  C_15
                            x       y       z     vdW  Elec       q    Type
                         _______ _______ _______ _____ _____    ______ ____

>  <TORSDO>
F 2

$$$$
=
 OpenBabel10262422023D

 30 33  0  0  1  0  0  0  0  0999 V2000
  185.2340  179.1310  139.3550 C   0  0  0  0  0  0  0  0  0  0  0  0
  186.5680  178.1140  137.6830 C   0  0  0  0  0  3  0  0  0  0  0  0
  183.2240  175.5730  136.5170 O   0  0  0  0  0  0  0  0  0  0  0  0
  182.5660  177.9860  139.6980 C   0  0  0  0  0  2  0  0  0  0  0  0
  185.8650  178.8950  140.5740 O   0  0  0  0  0  0  0  0  0  0  0  0
  182.9790  178.6100  142.8530 C   0  0  1  0  0  3  0  0  0  0  0  0
  184.1760  179.3220  142.2450 C   0  0  0  0  0  2  0  0  0  0  0  0
  186.1260  177.8600  142.7230 C   0  0  0  0  0  1  0  0  0  0  0  0
  182.9020  174.7440  137.6170 C   0  0  2  0  0  3  0  0  0  0  0  0
  185.1500  178.3140  141.6560 C   0  0  2  0  0  3  0  0  0  0  0  0
  181.7230  177.6070  140.9090 C   0  0  1  0  0  3  0  0  0  0  0  0
  186.9500  177.1740  136.5940 C   0  0  0  0  0  2  0  0  0  0  0  0
  180.8480  175.9920  138.4370 C   0  0  1  0  0  3  0  0  0  0  0  0
  182.6480  179.2640  144.1790 C   0  0  0  0  0  1  0  0  0  0  0  0
  184.5570  180.1810  139.1890 O   0  0  0  0  0  0  0  0  0  0  0  0
  184.0730  176.6670  136.6960 C   0  0  0  0  0  0  0  0  0  0  0  0
  186.0660  177.3990  135.4200 C   0  0  0  0  0  3  0  0  0  0  0  0
  181.7700  178.7290  141.9370 C   0  0  0  0  0  2  0  0  0  0  0  0
  185.3620  178.1610  138.2650 C   0  0  0  0  0  0  0  0  0  0  0  0
  183.2820  176.7820  139.0680 C   0  0  1  0  0  3  0  0  0  0  0  0
  181.9950  173.6020  137.1870 C   0  0  0  0  0  1  0  0  0  0  0  0
  182.3140  175.6060  138.7270 C   0  0  2  0  0  3  0  0  0  0  0  0
  180.2770  177.4490  140.4600 C   0  0  0  0  0  2  0  0  0  0  0  0
  184.7630  177.1490  135.4830 C   0  0  0  0  0  3  0  0  0  0  0  0
  184.2350  177.2110  137.9370 C   0  0  0  0  0  0  0  0  0  0  0  0
  180.0360  176.1320  139.7270 C   0  0  0  0  0  2  0  0  0  0  0  0
  180.7300  177.1230  137.6140 O   0  0  0  0  0  0  0  0  0  0  0  0
  179.5590  176.9230  136.8780 C   0  0  0  0  0  3  0  0  0  0  0  0
  179.8950  176.2010  135.5900 C   0  0  0  0  0  1  0  0  0  0  0  0
  178.9310  178.2630  136.5450 C   0  0  0  0  0  1  0  0  0  0  0  0
  1  5  1  0  0  0  0
  2 19  2  0  0  0  0
  3 16  1  0  0  0  0
  3  9  1  0  0  0  0
  5 10  1  0  0  0  0
  6 14  1  1  0  0  0
  7  6  1  0  0  0  0
  9 21  1  6  0  0  0
  9 22  1  0  0  0  0
 10  7  1  0  0  0  0
 10  8  1  1  0  0  0
 11  4  1  6  0  0  0
 11 18  1  0  0  0  0
 12  2  1  0  0  0  0
 13 27  1  1  0  0  0
 13 22  1  0  0  0  0
 13 26  1  0  0  0  0
 15  1  2  0  0  0  0
 16 25  2  0  0  0  0
 17 24  2  0  0  0  0
 17 12  1  0  0  0  0
 18  6  1  0  0  0  0
 19  1  1  0  0  0  0
 20  4  1  6  0  0  0
 22 20  1  0  0  0  0
 23 11  1  0  0  0  0
 24 16  1  0  0  0  0
 25 19  1  0  0  0  0
 25 20  1  0  0  0  0
 26 23  1  0  0  0  0
 28 27  1  0  0  0  0
 29 28  1  0  0  0  0
 30 28  1  0  0  0  0
M  END
>  <MODEL>
2

>  <REMARK>
 VINA RESULT:      -6.1      1.904      3.001
  Name = 
  2 active torsions:
  status: ('A' for Active; 'I' for Inactive)
    1  A    between atoms: C_7  and  O_10
    2  A    between atoms: O_10  and  C_15
                            x       y       z     vdW  Elec       q    Type
                         _______ _______ _______ _____ _____    ______ ____

>  <TORSDO>
F 2

$$$$
=
 OpenBabel10262422023D

 30 33  0  0  1  0  0  0  0  0999 V2000
  188.1910  178.2730  137.9950 C   0  0  0  0  0  0  0  0  0  0  0  0
  185.9240  178.3570  138.6720 C   0  0  0  0  0  3  0  0  0  0  0  0
  187.1180  177.8840  142.8370 O   0  0  0  0  0  0  0  0  0  0  0  0
  190.1150  177.7160  140.1240 C   0  0  0  0  0  2  0  0  0  0  0  0
  188.3150  177.1860  137.1320 O   0  0  0  0  0  0  0  0  0  0  0  0
  191.7440  176.0460  137.8720 C   0  0  1  0  0  3  0  0  0  0  0  0
  190.6850  176.7360  137.0290 C   0  0  0  0  0  2  0  0  0  0  0  0
  189.0110  174.9780  136.5010 C   0  0  0  0  0  1  0  0  0  0  0  0
  187.7390  176.6200  142.9720 C   0  0  2  0  0  3  0  0  0  0  0  0
  189.3040  176.1920  137.3610 C   0  0  2  0  0  3  0  0  0  0  0  0
  191.3350  176.8120  140.2410 C   0  0  1  0  0  3  0  0  0  0  0  0
  184.7430  178.3000  139.5760 C   0  0  0  0  0  2  0  0  0  0  0  0
  190.1570  177.3970  143.0240 C   0  0  1  0  0  3  0  0  0  0  0  0
  192.9340  175.7290  136.9900 C   0  0  0  0  0  1  0  0  0  0  0  0
  188.9310  179.2820  137.8470 O   0  0  0  0  0  0  0  0  0  0  0  0
  186.8800  178.4100  141.5660 C   0  0  0  0  0  0  0  0  0  0  0  0
  184.8370  179.3980  140.5740 C   0  0  0  0  0  3  0  0  0  0  0  0
  192.2030  176.9590  138.9990 C   0  0  0  0  0  2  0  0  0  0  0  0
  187.1970  178.2430  139.0700 C   0  0  0  0  0  0  0  0  0  0  0  0
  188.8550  177.1030  140.7520 C   0  0  1  0  0  3  0  0  0  0  0  0
  187.8660  176.2330  144.4360 C   0  0  0  0  0  1  0  0  0  0  0  0
  189.0690  176.6450  142.2280 C   0  0  2  0  0  3  0  0  0  0  0  0
  192.1580  177.2620  141.4390 C   0  0  0  0  0  2  0  0  0  0  0  0
  185.8080  179.4210  141.4800 C   0  0  0  0  0  3  0  0  0  0  0  0
  187.6090  177.9720  140.4970 C   0  0  0  0  0  0  0  0  0  0  0  0
  191.5480  176.8170  142.7650 C   0  0  0  0  0  2  0  0  0  0  0  0
  190.1190  178.7860  142.8280 O   0  0  0  0  0  0  0  0  0  0  0  0
  190.3990  179.3430  144.0790 C   0  0  0  0  0  3  0  0  0  0  0  0
  191.8830  179.6350  144.1760 C   0  0  0  0  0  1  0  0  0  0  0  0
  190.0160  178.3630  145.1710 C   0  0  0  0  0  1  0  0  0  0  0  0
  1 19  1  0  0  0  0
  2 19  2  0  0  0  0
  2 12  1  0  0  0  0
  3  9  1  0  0  0  0
  4 11  1  0  0  0  0
  5 10  1  0  0  0  0
  5  1  1  0  0  0  0
  6 14  1  6  0  0  0
  6 18  1  0  0  0  0
  7 10  1  0  0  0  0
  7  6  1  0  0  0  0
  9 21  1  1  0  0  0
 10  8  1  6  0  0  0
 11 18  1  6  0  0  0
 11 23  1  0  0  0  0
 12 17  1  0  0  0  0
 13 27  1  6  0  0  0
 15  1  2  0  0  0  0
 16  3  1  0  0  0  0
 17 24  2  0  0  0  0
 19 25  1  0  0  0  0
 20  4  1  1  0  0  0
 20 22  1  0  0  0  0
 22  9  1  0  0  0  0
 22 13  1  0  0  0  0
 23 26  1  0  0  0  0
 24 16  1  0  0  0  0
 25 20  1  0  0  0  0
 25 16  2  0  0  0  0
 26 13  1  0  0  0  0
 27 28  1  0  0  0  0
 28 29  1  0  0  0  0
 28 30  1  0  0  0  0
M  END
>  <MODEL>
3

>  <REMARK>
 VINA RESULT:      -5.7      3.302      7.788
  Name = 
  2 active torsions:
  status: ('A' for Active; 'I' for Inactive)
    1  A    between atoms: C_7  and  O_10
    2  A    between atoms: O_10  and  C_15
                            x       y       z     vdW  Elec       q    Type
                         _______ _______ _______ _____ _____    ______ ____

>  <TORSDO>
F 2

$$$$
=
 OpenBabel10262422023D

 30 33  0  0  1  0  0  0  0  0999 V2000
  184.9140  179.2390  143.3920 C   0  0  0  0  0  0  0  0  0  0  0  0
  185.0700  178.3540  145.5820 C   0  0  0  0  0  3  0  0  0  0  0  0
  189.0680  176.8450  144.7220 O   0  0  0  0  0  0  0  0  0  0  0  0
  187.1540  178.6080  141.6230 C   0  0  0  0  0  2  0  0  0  0  0  0
  183.8190  178.6270  142.7860 O   0  0  0  0  0  0  0  0  0  0  0  0
  184.9270  178.4510  139.2720 C   0  0  1  0  0  3  0  0  0  0  0  0
  184.1120  179.0200  140.4220 C   0  0  0  0  0  2  0  0  0  0  0  0
  182.7370  177.1280  141.2570 C   0  0  0  0  0  1  0  0  0  0  0  0
  188.9580  175.8830  143.6910 C   0  0  2  0  0  3  0  0  0  0  0  0
  183.9580  177.9850  141.5250 C   0  0  2  0  0  3  0  0  0  0  0  0
  187.2660  178.1580  140.1720 C   0  0  1  0  0  3  0  0  0  0  0  0
  185.6340  177.6090  146.7410 C   0  0  0  0  0  2  0  0  0  0  0  0
  189.7670  177.3160  141.7560 C   0  0  1  0  0  3  0  0  0  0  0  0
  184.2750  178.8620  137.9670 C   0  0  0  0  0  1  0  0  0  0  0  0
  185.2360  180.4150  143.0710 O   0  0  0  0  0  0  0  0  0  0  0  0
  187.9880  177.6820  145.0100 C   0  0  0  0  0  0  0  0  0  0  0  0
  186.9070  178.2520  147.1640 C   0  0  0  0  0  3  0  0  0  0  0  0
  186.3450  179.0030  139.3020 C   0  0  0  0  0  2  0  0  0  0  0  0
  185.6870  178.5180  144.4050 C   0  0  0  0  0  0  0  0  0  0  0  0
  187.2810  177.4460  142.6200 C   0  0  1  0  0  3  0  0  0  0  0  0
  190.2340  175.0660  143.5750 C   0  0  0  0  0  1  0  0  0  0  0  0
  188.5670  176.5900  142.3990 C   0  0  2  0  0  3  0  0  0  0  0  0
  188.6930  178.3930  139.7010 C   0  0  0  0  0  2  0  0  0  0  0  0
  187.9700  178.2620  146.3680 C   0  0  0  0  0  3  0  0  0  0  0  0
  187.0260  177.9060  144.0680 C   0  0  0  0  0  0  0  0  0  0  0  0
  189.6610  177.3390  140.2300 C   0  0  0  0  0  2  0  0  0  0  0  0
  189.9850  178.5960  142.2890 O   0  0  0  0  0  0  0  0  0  0  0  0
  191.3400  178.6280  142.6310 C   0  0  0  0  0  3  0  0  0  0  0  0
  192.0090  177.3600  142.1430 C   0  0  0  0  0  1  0  0  0  0  0  0
  191.4840  178.7140  144.1380 C   0  0  0  0  0  1  0  0  0  0  0  0
  1 19  1  0  0  0  0
  2 12  1  0  0  0  0
  3 16  1  0  0  0  0
  5  1  1  0  0  0  0
  6 14  1  6  0  0  0
  6 18  1  0  0  0  0
  6  7  1  0  0  0  0
  7 10  1  0  0  0  0
  9 21  1  6  0  0  0
  9  3  1  0  0  0  0
 10  8  1  6  0  0  0
 10  5  1  0  0  0  0
 11 18  1  6  0  0  0
 11  4  1  0  0  0  0
 12 17  1  0  0  0  0
 13 27  1  1  0  0  0
 13 22  1  0  0  0  0
 15  1  2  0  0  0  0
 16 24  1  0  0  0  0
 19  2  2  0  0  0  0
 20  4  1  6  0  0  0
 20 25  1  0  0  0  0
 22 20  1  0  0  0  0
 22  9  1  0  0  0  0
 23 11  1  0  0  0  0
 23 26  1  0  0  0  0
 24 17  2  0  0  0  0
 25 19  1  0  0  0  0
 25 16  2  0  0  0  0
 26 13  1  0  0  0  0
 27 28  1  0  0  0  0
 28 30  1  0  0  0  0
 29 28  1  0  0  0  0
M  END
>  <MODEL>
4

>  <REMARK>
 VINA RESULT:      -5.1      2.353      7.431
  Name = 
  2 active torsions:
  status: ('A' for Active; 'I' for Inactive)
    1  A    between atoms: C_7  and  O_10
    2  A    between atoms: O_10  and  C_15
                            x       y       z     vdW  Elec       q    Type
                         _______ _______ _______ _____ _____    ______ ____

>  <TORSDO>
F 2

$$$$
=
 OpenBabel10262422023D

 30 33  0  0  1  0  0  0  0  0999 V2000
  184.3940  173.6040  136.8340 C   0  0  0  0  0  0  0  0  0  0  0  0
  185.6340  171.9810  135.6370 C   0  0  0  0  0  3  0  0  0  0  0  0
  189.1300  174.5860  135.6660 O   0  0  0  0  0  0  0  0  0  0  0  0
  185.7700  176.1420  137.2980 C   0  0  0  0  0  2  0  0  0  0  0  0
  183.3040  173.9490  136.0360 O   0  0  0  0  0  0  0  0  0  0  0  0
  182.8540  177.5060  136.9030 C   0  0  1  0  0  3  0  0  0  0  0  0
  182.4940  176.0300  136.9520 C   0  0  0  0  0  2  0  0  0  0  0  0
  182.0310  175.3860  134.5980 C   0  0  0  0  0  1  0  0  0  0  0  0
  188.8080  175.7550  134.9370 C   0  0  2  0  0  3  0  0  0  0  0  0
  183.0380  175.3110  135.7280 C   0  0  2  0  0  3  0  0  0  0  0  0
  185.3590  177.6050  137.1960 C   0  0  1  0  0  3  0  0  0  0  0  0
  186.7750  171.3730  134.8990 C   0  0  0  0  0  2  0  0  0  0  0  0
  188.4090  177.3190  136.8980 C   0  0  1  0  0  3  0  0  0  0  0  0
  181.6470  178.3140  137.3310 C   0  0  0  0  0  1  0  0  0  0  0  0
  184.2930  173.6450  138.0890 O   0  0  0  0  0  0  0  0  0  0  0  0
  188.1170  173.7030  136.0460 C   0  0  0  0  0  0  0  0  0  0  0  0
  187.9380  171.2430  135.8170 C   0  0  0  0  0  3  0  0  0  0  0  0
  184.0020  177.8030  137.8580 C   0  0  0  0  0  2  0  0  0  0  0  0
  185.6530  173.1900  136.2120 C   0  0  0  0  0  0  0  0  0  0  0  0
  186.5460  175.6520  136.0660 C   0  0  1  0  0  3  0  0  0  0  0  0
  190.0620  176.5460  134.6030 C   0  0  0  0  0  1  0  0  0  0  0  0
  187.7720  176.5520  135.7200 C   0  0  2  0  0  3  0  0  0  0  0  0
  186.3730  178.4460  137.9570 C   0  0  0  0  0  2  0  0  0  0  0  0
  188.5430  172.3150  136.3160 C   0  0  0  0  0  3  0  0  0  0  0  0
  186.8260  174.1390  136.1320 C   0  0  0  0  0  0  0  0  0  0  0  0
  187.6740  178.6300  137.1810 C   0  0  0  0  0  2  0  0  0  0  0  0
  188.5510  176.5330  138.0530 O   0  0  0  0  0  0  0  0  0  0  0  0
  189.7700  176.9200  138.6160 C   0  0  0  0  0  3  0  0  0  0  0  0
  190.7710  175.7930  138.4660 C   0  0  0  0  0  1  0  0  0  0  0  0
  189.5790  177.2180  140.0910 C   0  0  0  0  0  1  0  0  0  0  0  0
  1 15  2  0  0  0  0
  2 19  2  0  0  0  0
  3 16  1  0  0  0  0
  5  1  1  0  0  0  0
  6  7  1  0  0  0  0
  6 14  1  1  0  0  0
  6 18  1  0  0  0  0
  9 21  1  1  0  0  0
  9  3  1  0  0  0  0
  9 22  1  0  0  0  0
 10  8  1  6  0  0  0
 10  5  1  0  0  0  0
 10  7  1  0  0  0  0
 11  4  1  1  0  0  0
 11 18  1  0  0  0  0
 11 23  1  0  0  0  0
 12  2  1  0  0  0  0
 12 17  1  0  0  0  0
 13 26  1  0  0  0  0
 13 27  1  1  0  0  0
 16 25  2  0  0  0  0
 16 24  1  0  0  0  0
 17 24  2  0  0  0  0
 19  1  1  0  0  0  0
 20 25  1  0  0  0  0
 20  4  1  1  0  0  0
 22 20  1  0  0  0  0
 22 13  1  0  0  0  0
 25 19  1  0  0  0  0
 26 23  1  0  0  0  0
 27 28  1  0  0  0  0
 28 30  1  0  0  0  0
 29 28  1  0  0  0  0
M  END
>  <MODEL>
5

>  <REMARK>
 VINA RESULT:      -4.9      4.293      7.952
  Name = 
  2 active torsions:
  status: ('A' for Active; 'I' for Inactive)
    1  A    between atoms: C_7  and  O_10
    2  A    between atoms: O_10  and  C_15
                            x       y       z     vdW  Elec       q    Type
                         _______ _______ _______ _____ _____    ______ ____

>  <TORSDO>
F 2

$$$$
=
 OpenBabel10262422023D

 30 33  0  0  1  0  0  0  0  0999 V2000
  183.5920  175.3340  135.4660 C   0  0  0  0  0  0  0  0  0  0  0  0
  181.6210  174.0240  135.5330 C   0  0  0  0  0  3  0  0  0  0  0  0
  179.9590  176.6280  138.6080 O   0  0  0  0  0  0  0  0  0  0  0  0
  183.7410  177.4780  137.4470 C   0  0  0  0  0  2  0  0  0  0  0  0
  184.6490  174.4890  135.7980 O   0  0  0  0  0  0  0  0  0  0  0  0
  186.9100  176.8050  137.5680 C   0  0  1  0  0  3  0  0  0  0  0  0
  186.4680  175.9660  136.3800 C   0  0  0  0  0  2  0  0  0  0  0  0
  186.3810  173.6290  137.2180 C   0  0  0  0  0  1  0  0  0  0  0  0
  180.7840  176.5320  139.7530 C   0  0  2  0  0  3  0  0  0  0  0  0
  185.5530  174.8400  136.8370 C   0  0  2  0  0  3  0  0  0  0  0  0
  184.8340  177.9900  138.3750 C   0  0  1  0  0  3  0  0  0  0  0  0
  180.2830  173.5510  135.9850 C   0  0  0  0  0  2  0  0  0  0  0  0
  182.0540  178.7150  139.4810 C   0  0  1  0  0  3  0  0  0  0  0  0
  188.3870  177.1110  137.4220 C   0  0  0  0  0  1  0  0  0  0  0  0
  183.7810  176.3010  134.6800 O   0  0  0  0  0  0  0  0  0  0  0  0
  180.4000  176.1130  137.3880 C   0  0  0  0  0  0  0  0  0  0  0  0
  179.2800  174.6250  135.7550 C   0  0  0  0  0  3  0  0  0  0  0  0
  186.1410  178.1170  137.6050 C   0  0  0  0  0  2  0  0  0  0  0  0
  182.2600  175.0930  136.0250 C   0  0  0  0  0  0  0  0  0  0  0  0
  182.7440  176.5460  138.1530 C   0  0  1  0  0  3  0  0  0  0  0  0
  180.0920  177.1250  140.9700 C   0  0  0  0  0  1  0  0  0  0  0  0
  182.1310  177.1740  139.4430 C   0  0  2  0  0  3  0  0  0  0  0  0
  184.4440  179.3780  138.8620 C   0  0  0  0  0  2  0  0  0  0  0  0
  179.3430  175.7770  136.4140 C   0  0  0  0  0  3  0  0  0  0  0  0
  181.7350  175.9340  137.1640 C   0  0  0  0  0  0  0  0  0  0  0  0
  183.3730  179.3340  139.9470 C   0  0  0  0  0  2  0  0  0  0  0  0
  181.6070  179.2730  138.2730 O   0  0  0  0  0  0  0  0  0  0  0  0
  180.7410  180.3060  138.6420 C   0  0  0  0  0  3  0  0  0  0  0  0
  179.3370  179.9710  138.1820 C   0  0  0  0  0  1  0  0  0  0  0  0
  181.1810  181.6000  137.9830 C   0  0  0  0  0  1  0  0  0  0  0  0
  1  5  1  0  0  0  0
  1 19  1  0  0  0  0
  2 12  1  0  0  0  0
  2 19  2  0  0  0  0
  3  9  1  0  0  0  0
  5 10  1  0  0  0  0
  6 14  1  6  0  0  0
  6 18  1  0  0  0  0
  7 10  1  0  0  0  0
  7  6  1  0  0  0  0
  9 21  1  1  0  0  0
 10  8  1  6  0  0  0
 11  4  1  6  0  0  0
 11 23  1  0  0  0  0
 13 27  1  6  0  0  0
 13 26  1  0  0  0  0
 15  1  2  0  0  0  0
 16  3  1  0  0  0  0
 17 12  1  0  0  0  0
 17 24  2  0  0  0  0
 18 11  1  0  0  0  0
 19 25  1  0  0  0  0
 20  4  1  6  0  0  0
 20 22  1  0  0  0  0
 22 13  1  0  0  0  0
 22  9  1  0  0  0  0
 23 26  1  0  0  0  0
 24 16  1  0  0  0  0
 25 16  2  0  0  0  0
 25 20  1  0  0  0  0
 27 28  1  0  0  0  0
 29 28  1  0  0  0  0
 30 28  1  0  0  0  0
M  END
>  <MODEL>
6

>  <REMARK>
 VINA RESULT:      -4.5      3.515      5.987
  Name = 
  2 active torsions:
  status: ('A' for Active; 'I' for Inactive)
    1  A    between atoms: C_7  and  O_10
    2  A    between atoms: O_10  and  C_15
                            x       y       z     vdW  Elec       q    Type
                         _______ _______ _______ _____ _____    ______ ____

>  <TORSDO>
F 2

$$$$
=
 OpenBabel10262422023D

 30 33  0  0  1  0  0  0  0  0999 V2000
  184.6850  178.5350  138.9510 C   0  0  0  0  0  0  0  0  0  0  0  0
  183.1260  180.3120  138.8180 C   0  0  0  0  0  3  0  0  0  0  0  0
  180.2970  177.7140  136.7560 O   0  0  0  0  0  0  0  0  0  0  0  0
  183.9050  176.0750  137.5790 C   0  0  0  0  0  2  0  0  0  0  0  0
  185.8310  178.9520  138.2770 O   0  0  0  0  0  0  0  0  0  0  0  0
  187.0540  175.7710  136.8670 C   0  0  1  0  0  3  0  0  0  0  0  0
  187.0770  176.9290  137.8510 C   0  0  0  0  0  2  0  0  0  0  0  0
  187.4050  178.9640  136.4660 C   0  0  0  0  0  1  0  0  0  0  0  0
  180.8770  177.3290  135.5240 C   0  0  2  0  0  3  0  0  0  0  0  0
  186.3960  178.1490  137.2500 C   0  0  2  0  0  3  0  0  0  0  0  0
  184.6320  175.0900  136.6730 C   0  0  1  0  0  3  0  0  0  0  0  0
  181.8850  181.0430  138.4430 C   0  0  0  0  0  2  0  0  0  0  0  0
  181.5960  174.9800  136.1690 C   0  0  1  0  0  3  0  0  0  0  0  0
  188.4070  175.0900  136.8870 C   0  0  0  0  0  1  0  0  0  0  0  0
  184.7820  177.7390  139.9240 O   0  0  0  0  0  0  0  0  0  0  0  0
  181.0850  178.3230  137.7340 C   0  0  0  0  0  0  0  0  0  0  0  0
  180.7140  180.3750  139.0710 C   0  0  0  0  0  3  0  0  0  0  0  0
  185.9920  174.7560  137.2680 C   0  0  0  0  0  2  0  0  0  0  0  0
  183.3710  179.0260  138.5330 C   0  0  0  0  0  0  0  0  0  0  0  0
  183.0500  177.0860  136.7990 C   0  0  1  0  0  3  0  0  0  0  0  0
  179.8340  176.7200  134.6020 C   0  0  0  0  0  1  0  0  0  0  0  0
  182.0580  176.4060  135.8050 C   0  0  2  0  0  3  0  0  0  0  0  0
  183.8230  173.8030  136.6110 C   0  0  0  0  0  2  0  0  0  0  0  0
  180.3580  179.1430  138.7240 C   0  0  0  0  0  3  0  0  0  0  0  0
  182.4400  178.1540  137.7260 C   0  0  0  0  0  0  0  0  0  0  0  0
  182.6020  173.9250  135.7040 C   0  0  0  0  0  2  0  0  0  0  0  0
  181.2740  174.8370  137.5280 O   0  0  0  0  0  0  0  0  0  0  0  0
  179.9940  174.2760  137.5470 C   0  0  0  0  0  3  0  0  0  0  0  0
  179.1220  175.0520  138.5120 C   0  0  0  0  0  1  0  0  0  0  0  0
  180.0760  172.8330  138.0050 C   0  0  0  0  0  1  0  0  0  0  0  0
  1 15  2  0  0  0  0
  3 16  1  0  0  0  0
  5  1  1  0  0  0  0
  6 14  1  1  0  0  0
  6 18  1  0  0  0  0
  6  7  1  0  0  0  0
  9 21  1  6  0  0  0
  9 22  1  0  0  0  0
  9  3  1  0  0  0  0
 10  8  1  1  0  0  0
 10  7  1  0  0  0  0
 10  5  1  0  0  0  0
 11 23  1  1  0  0  0
 11 18  1  0  0  0  0
 11  4  1  0  0  0  0
 12  2  1  0  0  0  0
 12 17  1  0  0  0  0
 13 27  1  1  0  0  0
 16 24  1  0  0  0  0
 19  2  2  0  0  0  0
 19  1  1  0  0  0  0
 20  4  1  1  0  0  0
 20 25  1  0  0  0  0
 22 13  1  0  0  0  0
 22 20  1  0  0  0  0
 24 17  2  0  0  0  0
 25 16  2  0  0  0  0
 25 19  1  0  0  0  0
 26 13  1  0  0  0  0
 26 23  1  0  0  0  0
 27 28  1  0  0  0  0
 28 30  1  0  0  0  0
 28 29  1  0  0  0  0
M  END
>  <MODEL>
7

>  <REMARK>
 VINA RESULT:      -4.4      3.577      6.226
  Name = 
  2 active torsions:
  status: ('A' for Active; 'I' for Inactive)
    1  A    between atoms: C_7  and  O_10
    2  A    between atoms: O_10  and  C_15
                            x       y       z     vdW  Elec       q    Type
                         _______ _______ _______ _____ _____    ______ ____

>  <TORSDO>
F 2

$$$$
=
 OpenBabel10262422023D

 30 33  0  0  1  0  0  0  0  0999 V2000
  185.4170  173.1020  137.0140 C   0  0  0  0  0  0  0  0  0  0  0  0
  187.4540  172.6680  135.8880 C   0  0  0  0  0  3  0  0  0  0  0  0
  188.8910  176.6610  136.8850 O   0  0  0  0  0  0  0  0  0  0  0  0
  185.1000  175.8250  138.0280 C   0  0  0  0  0  2  0  0  0  0  0  0
  184.3990  172.9680  136.0720 O   0  0  0  0  0  0  0  0  0  0  0  0
  181.9700  175.4800  137.2550 C   0  0  1  0  0  3  0  0  0  0  0  0
  182.4880  174.0640  137.0590 C   0  0  0  0  0  2  0  0  0  0  0  0
  182.6800  173.7670  134.6010 C   0  0  0  0  0  1  0  0  0  0  0  0
  188.0430  177.6000  136.2530 C   0  0  2  0  0  3  0  0  0  0  0  0
  183.4500  174.0100  135.8830 C   0  0  2  0  0  3  0  0  0  0  0  0
  183.9560  176.8320  138.0250 C   0  0  1  0  0  3  0  0  0  0  0  0
  188.8030  172.9230  135.3130 C   0  0  0  0  0  2  0  0  0  0  0  0
  186.6630  178.2770  138.2750 C   0  0  1  0  0  3  0  0  0  0  0  0
  180.4830  175.4170  137.5400 C   0  0  0  0  0  1  0  0  0  0  0  0
  185.1960  172.8270  138.2240 O   0  0  0  0  0  0  0  0  0  0  0  0
  188.5100  175.3190  136.9600 C   0  0  0  0  0  0  0  0  0  0  0  0
  189.7520  173.2470  136.4110 C   0  0  0  0  0  3  0  0  0  0  0  0
  182.6650  176.1400  138.4370 C   0  0  0  0  0  2  0  0  0  0  0  0
  186.7450  173.5560  136.5970 C   0  0  0  0  0  0  0  0  0  0  0  0
  186.1270  176.0840  136.9150 C   0  0  1  0  0  3  0  0  0  0  0  0
  188.6690  178.9840  136.2580 C   0  0  0  0  0  1  0  0  0  0  0  0
  186.6720  177.5470  136.9160 C   0  0  2  0  0  3  0  0  0  0  0  0
  184.2570  177.9080  139.0570 C   0  0  0  0  0  2  0  0  0  0  0  0
  189.6090  174.3490  137.1390 C   0  0  0  0  0  3  0  0  0  0  0  0
  187.1940  174.9750  136.8520 C   0  0  0  0  0  0  0  0  0  0  0  0
  185.3010  178.9080  138.5680 C   0  0  0  0  0  2  0  0  0  0  0  0
  187.1100  177.4710  139.3340 O   0  0  0  0  0  0  0  0  0  0  0  0
  188.1150  178.2120  139.9630 C   0  0  0  0  0  3  0  0  0  0  0  0
  189.3430  177.3440  140.1360 C   0  0  0  0  0  1  0  0  0  0  0  0
  187.6350  178.6660  141.3280 C   0  0  0  0  0  1  0  0  0  0  0  0
  1 15  2  0  0  0  0
  2 19  2  0  0  0  0
  3 16  1  0  0  0  0
  5  1  1  0  0  0  0
  6 14  1  1  0  0  0
  6 18  1  0  0  0  0
  7  6  1  0  0  0  0
  9 21  1  1  0  0  0
  9  3  1  0  0  0  0
  9 22  1  0  0  0  0
 10  8  1  6  0  0  0
 10  5  1  0  0  0  0
 10  7  1  0  0  0  0
 11  4  1  1  0  0  0
 11 18  1  0  0  0  0
 11 23  1  0  0  0  0
 12  2  1  0  0  0  0
 12 17  1  0  0  0  0
 13 26  1  0  0  0  0
 13 27  1  1  0  0  0
 16 24  1  0  0  0  0
 17 24  2  0  0  0  0
 19 25  1  0  0  0  0
 19  1  1  0  0  0  0
 20 22  1  0  0  0  0
 20  4  1  1  0  0  0
 22 13  1  0  0  0  0
 25 20  1  0  0  0  0
 25 16  2  0  0  0  0
 26 23  1  0  0  0  0
 27 28  1  0  0  0  0
 28 29  1  0  0  0  0
 28 30  1  0  0  0  0
M  END
>  <MODEL>
8

>  <REMARK>
 VINA RESULT:      -4.1      3.406      7.116
  Name = 
  2 active torsions:
  status: ('A' for Active; 'I' for Inactive)
    1  A    between atoms: C_7  and  O_10
    2  A    between atoms: O_10  and  C_15
                            x       y       z     vdW  Elec       q    Type
                         _______ _______ _______ _____ _____    ______ ____

>  <TORSDO>
F 2

$$$$
=
 OpenBabel10262422023D

 30 33  0  0  1  0  0  0  0  0999 V2000
  187.5200  177.2550  143.4150 C   0  0  0  0  0  0  0  0  0  0  0  0
  185.7250  178.3390  144.5130 C   0  0  0  0  0  3  0  0  0  0  0  0
  183.7410  178.9960  140.6880 O   0  0  0  0  0  0  0  0  0  0  0  0
  187.3950  177.2690  140.4940 C   0  0  0  0  0  2  0  0  0  0  0  0
  188.6720  177.9820  143.7100 O   0  0  0  0  0  0  0  0  0  0  0  0
  190.6230  177.5580  140.6080 C   0  0  1  0  0  3  0  0  0  0  0  0
  190.2930  177.2790  142.0650 C   0  0  0  0  0  2  0  0  0  0  0  0
  190.4890  179.4700  143.2180 C   0  0  0  0  0  1  0  0  0  0  0  0
  184.5660  179.8400  139.9080 C   0  0  2  0  0  3  0  0  0  0  0  0
  189.5210  178.4420  142.6670 C   0  0  2  0  0  3  0  0  0  0  0  0
  188.4130  177.5250  139.3900 C   0  0  1  0  0  3  0  0  0  0  0  0
  184.4530  179.0950  144.6800 C   0  0  0  0  0  2  0  0  0  0  0  0
  185.5600  178.0760  138.3740 C   0  0  1  0  0  3  0  0  0  0  0  0
  192.0510  177.1280  140.3430 C   0  0  0  0  0  1  0  0  0  0  0  0
  187.5930  176.0120  143.2180 O   0  0  0  0  0  0  0  0  0  0  0  0
  184.2480  178.4060  141.8470 C   0  0  0  0  0  0  0  0  0  0  0  0
  183.3270  178.2850  144.1430 C   0  0  0  0  0  3  0  0  0  0  0  0
  189.6980  176.7670  139.6940 C   0  0  0  0  0  2  0  0  0  0  0  0
  186.2260  177.9350  143.3390 C   0  0  0  0  0  0  0  0  0  0  0  0
  186.5180  178.4930  140.7940 C   0  0  1  0  0  3  0  0  0  0  0  0
  183.8010  180.3960  138.7180 C   0  0  0  0  0  1  0  0  0  0  0  0
  185.8250  179.0740  139.5210 C   0  0  2  0  0  3  0  0  0  0  0  0
  187.8530  176.9850  138.0830 C   0  0  0  0  0  2  0  0  0  0  0  0
  183.2450  177.9950  142.8500 C   0  0  0  0  0  3  0  0  0  0  0  0
  185.5960  178.2540  142.0040 C   0  0  0  0  0  0  0  0  0  0  0  0
  186.7900  177.9010  137.4830 C   0  0  0  0  0  2  0  0  0  0  0  0
  185.0530  176.8460  138.8220 O   0  0  0  0  0  0  0  0  0  0  0  0
  183.8960  176.6270  138.0710 C   0  0  0  0  0  3  0  0  0  0  0  0
  182.7630  176.2390  138.9980 C   0  0  0  0  0  1  0  0  0  0  0  0
  184.1340  175.5000  137.0840 C   0  0  0  0  0  1  0  0  0  0  0  0
  1  5  1  0  0  0  0
  2 12  1  0  0  0  0
  3 16  1  0  0  0  0
  6 14  1  1  0  0  0
  6  7  1  0  0  0  0
  7 10  1  0  0  0  0
  9 21  1  6  0  0  0
  9  3  1  0  0  0  0
 10  8  1  1  0  0  0
 10  5  1  0  0  0  0
 11 23  1  6  0  0  0
 11 18  1  0  0  0  0
 11  4  1  0  0  0  0
 13 27  1  1  0  0  0
 13 22  1  0  0  0  0
 15  1  2  0  0  0  0
 16 25  2  0  0  0  0
 16 24  1  0  0  0  0
 17 12  1  0  0  0  0
 18  6  1  0  0  0  0
 19  1  1  0  0  0  0
 19  2  2  0  0  0  0
 20  4  1  6  0  0  0
 20 25  1  0  0  0  0
 22  9  1  0  0  0  0
 22 20  1  0  0  0  0
 24 17  2  0  0  0  0
 25 19  1  0  0  0  0
 26 23  1  0  0  0  0
 26 13  1  0  0  0  0
 28 27  1  0  0  0  0
 28 29  1  0  0  0  0
 30 28  1  0  0  0  0
M  END
>  <MODEL>
9

>  <REMARK>
 VINA RESULT:      -3.5      2.053      5.432
  Name = 
  2 active torsions:
  status: ('A' for Active; 'I' for Inactive)
    1  A    between atoms: C_7  and  O_10
    2  A    between atoms: O_10  and  C_15
                            x       y       z     vdW  Elec       q    Type
                         _______ _______ _______ _____ _____    ______ ____

>  <TORSDO>
F 2

$$$$
