=
 OpenBabel10252415043D

 34 39  0  0  1  0  0  0  0  0999 V2000
  190.9170  177.0000  144.5570 C   0  0  0  0  0  0  0  0  0  0  0  0
  188.7540  177.4490  145.6300 C   0  0  0  0  0  0  0  0  0  0  0  0
  189.0340  177.6920  143.2280 N   0  0  0  0  0  0  0  0  0  0  0  0
  187.0610  178.3040  142.0160 C   0  0  0  0  0  0  0  0  0  0  0  0
  190.6650  176.7530  146.9590 C   0  0  0  0  0  3  0  0  0  0  0  0
  189.3080  177.1300  146.8750 C   0  0  0  0  0  3  0  0  0  0  0  0
  186.9710  178.1190  144.2370 C   0  0  0  0  0  0  0  0  0  0  0  0
  189.5860  177.3810  144.4940 C   0  0  2  0  0  3  0  0  0  0  0  0
  185.6210  178.5520  142.3750 C   0  0  0  0  0  3  0  0  0  0  0  0
  191.4690  176.6850  145.8030 C   0  0  0  0  0  3  0  0  0  0  0  0
  191.0790  177.2190  142.2020 N   0  0  0  0  0  0  0  0  0  0  0  0
  191.6320  176.9370  143.3950 N   0  0  0  0  0  0  0  0  0  0  0  0
  187.4330  177.8090  145.4870 N   0  0  0  0  0  0  0  0  0  0  0  0
  187.7010  178.2060  140.8460 C   0  0  0  0  0  3  0  0  0  0  0  0
  189.1710  177.8490  140.8900 C   0  0  0  0  0  0  0  0  0  0  0  0
  185.6360  178.4530  143.8580 N   0  0  0  0  0  0  0  0  0  0  0  0
  187.7720  178.0620  143.1860 N   0  0  0  0  0  0  0  0  0  0  0  0
  189.7680  177.5910  142.0910 C   0  0  0  0  0  0  0  0  0  0  0  0
  188.1360  176.6210  137.3040 C   0  0  0  0  0  3  0  0  0  0  0  0
  189.2770  175.8070  137.2090 O   0  0  0  0  0  0  0  0  0  0  0  0
  189.9580  177.7710  139.6140 C   0  0  2  0  0  3  0  0  0  0  0  0
  190.5420  176.1010  137.7970 C   0  0  0  0  0  2  0  0  0  0  0  0
  189.2820  178.5330  138.4640 C   0  0  0  0  0  2  0  0  0  0  0  0
  190.3830  176.3340  139.2940 C   0  0  0  0  0  2  0  0  0  0  0  0
  188.0960  177.8280  137.8760 C   0  0  0  0  0  3  0  0  0  0  0  0
  184.4680  178.1780  144.6810 C   0  0  0  0  0  2  0  0  0  0  0  0
  183.4120  179.2490  144.4710 C   0  0  0  0  0  2  0  0  0  0  0  0
  182.1380  178.6300  143.9330 C   0  0  0  0  0  2  0  0  0  0  0  0
  182.0220  178.8950  142.5090 N   0  0  0  0  0  2  0  0  0  0  0  0
  180.1250  179.3910  140.6990 O   0  0  0  0  0  0  0  0  0  0  0  0
  180.0310  180.8530  142.8610 O   0  0  0  0  0  1  0  0  0  0  0  0
  180.3530  179.3320  142.1930 P   0  0  2  0  0  0  0  0  0  0  0  0
  179.4610  177.1040  142.1460 O   0  0  0  0  0  1  0  0  0  0  0  0
  179.3090  178.1860  142.8800 O   0  0  0  0  0  0  0  0  0  0  0  0
  1 10  1  0  0  0  0
  2  6  2  0  0  0  0
  3  8  1  0  0  0  0
  4  9  2  0  0  0  0
  4 17  1  0  0  0  0
  6  5  1  0  0  0  0
  7 13  2  0  0  0  0
  8  1  1  6  0  0  0
  8  2  1  0  0  0  0
  9 16  1  0  0  0  0
 10  5  2  0  0  0  0
 11 12  1  0  0  0  0
 12  1  2  0  0  0  0
 13  2  1  0  0  0  0
 14 15  2  0  0  0  0
 14  4  1  0  0  0  0
 15 18  1  0  0  0  0
 16  7  1  0  0  0  0
 16 26  1  0  0  0  0
 17  3  1  0  0  0  0
 17  7  1  0  0  0  0
 18 11  2  0  0  0  0
 18  3  1  0  0  0  0
 19 25  2  0  0  0  0
 20 19  1  0  0  0  0
 20 22  1  0  0  0  0
 21 15  1  1  0  0  0
 22 24  1  0  0  0  0
 23 21  1  0  0  0  0
 24 21  1  0  0  0  0
 25 23  1  0  0  0  0
 27 26  1  0  0  0  0
 28 27  1  0  0  0  0
 29 28  1  0  0  0  0
 32 30  2  6  0  0  0
 32 29  1  0  0  0  0
 32 31  1  0  0  0  0
 32 34  1  0  0  0  0
 33 34  1  0  0  0  0
M  END
>  <MODEL>
1

>  <REMARK>
 VINA RESULT:      -9.1      0.000      0.000
  Name = 
  7 active torsions:
  status: ('A' for Active; 'I' for Inactive)
    1  A    between atoms: C_3  and  C_13
    2  A    between atoms: C_3  and  C_17
    3  A    between atoms: C_12  and  C_28
    4  A    between atoms: C_13  and  N_33
    5  A    between atoms: O_14  and  P_34
    6  A    between atoms: C_17  and  N_29
    7  A    between atoms: N_33  and  P_34
                            x       y       z     vdW  Elec       q    Type
                         _______ _______ _______ _____ _____    ______ ____

>  <TORSDO>
F 7

$$$$
=
 OpenBabel10252415043D

 34 39  0  0  1  0  0  0  0  0999 V2000
  184.3310  178.6410  145.1640 C   0  0  0  0  0  0  0  0  0  0  0  0
  186.7230  178.1240  144.9550 C   0  0  0  0  0  0  0  0  0  0  0  0
  185.3360  178.4510  142.9860 N   0  0  0  0  0  0  0  0  0  0  0  0
  186.4780  178.3190  140.8850 C   0  0  0  0  0  0  0  0  0  0  0  0
  185.6930  178.3140  147.1470 C   0  0  0  0  0  3  0  0  0  0  0  0
  186.8330  178.0820  146.3490 C   0  0  0  0  0  3  0  0  0  0  0  0
  187.6110  177.9620  142.7740 C   0  0  0  0  0  0  0  0  0  0  0  0
  185.4580  178.3970  144.3950 C   0  0  2  0  0  3  0  0  0  0  0  0
  187.9060  178.1100  140.4570 C   0  0  0  0  0  3  0  0  0  0  0  0
  184.4440  178.5960  146.5570 C   0  0  0  0  0  3  0  0  0  0  0  0
  183.0720  178.9910  143.1870 N   0  0  0  0  0  0  0  0  0  0  0  0
  183.1570  178.9260  144.5270 N   0  0  0  0  0  0  0  0  0  0  0  0
  187.8040  177.9190  144.1280 N   0  0  0  0  0  0  0  0  0  0  0  0
  185.3680  178.6460  140.2160 C   0  0  0  0  0  3  0  0  0  0  0  0
  184.1090  178.8590  141.0260 C   0  0  0  0  0  0  0  0  0  0  0  0
  188.5940  177.8420  141.7470 N   0  0  0  0  0  0  0  0  0  0  0  0
  186.4120  178.2080  142.2690 N   0  0  0  0  0  0  0  0  0  0  0  0
  184.1590  178.7660  142.3890 C   0  0  0  0  0  0  0  0  0  0  0  0
  182.3250  177.1170  137.9910 C   0  0  0  0  0  3  0  0  0  0  0  0
  182.1450  178.3470  137.3370 O   0  0  0  0  0  0  0  0  0  0  0  0
  182.8190  179.1800  140.3300 C   0  0  2  0  0  3  0  0  0  0  0  0
  181.9300  179.5960  137.9910 C   0  0  0  0  0  2  0  0  0  0  0  0
  181.8570  177.9840  140.3020 C   0  0  0  0  0  2  0  0  0  0  0  0
  183.0550  179.8690  138.9810 C   0  0  0  0  0  2  0  0  0  0  0  0
  182.2270  176.9230  139.3090 C   0  0  0  0  0  3  0  0  0  0  0  0
  190.0220  178.0030  141.9720 C   0  0  0  0  0  2  0  0  0  0  0  0
  190.7220  176.6580  141.8970 C   0  0  0  0  0  2  0  0  0  0  0  0
  190.4570  175.8580  143.1570 C   0  0  0  0  0  2  0  0  0  0  0  0
  191.6740  175.7610  143.9450 N   0  0  0  0  0  2  0  0  0  0  0  0
  189.9930  176.7900  145.7430 O   0  0  0  0  0  1  0  0  0  0  0  0
  191.9680  178.3420  145.0290 O   0  0  0  0  0  0  0  0  0  0  0  0
  191.4570  176.7640  145.3680 P   0  0  2  0  0  0  0  0  0  0  0  0
  191.9860  176.8530  147.7070 O   0  0  0  0  0  1  0  0  0  0  0  0
  192.3630  176.1470  146.6610 O   0  0  0  0  0  0  0  0  0  0  0  0
  1 10  1  0  0  0  0
  2  6  2  0  0  0  0
  3  8  1  0  0  0  0
  4 17  1  0  0  0  0
  6  5  1  0  0  0  0
  7 13  2  0  0  0  0
  8  2  1  1  0  0  0
  8  1  1  0  0  0  0
  9  4  2  0  0  0  0
  9 16  1  0  0  0  0
 10  5  2  0  0  0  0
 11 12  1  0  0  0  0
 12  1  2  0  0  0  0
 13  2  1  0  0  0  0
 14  4  1  0  0  0  0
 14 15  2  0  0  0  0
 15 18  1  0  0  0  0
 16 26  1  0  0  0  0
 16  7  1  0  0  0  0
 17  7  1  0  0  0  0
 17  3  1  0  0  0  0
 18  3  1  0  0  0  0
 18 11  2  0  0  0  0
 19 25  2  0  0  0  0
 20 19  1  0  0  0  0
 20 22  1  0  0  0  0
 21 15  1  6  0  0  0
 22 24  1  0  0  0  0
 23 21  1  0  0  0  0
 24 21  1  0  0  0  0
 25 23  1  0  0  0  0
 27 26  1  0  0  0  0
 27 28  1  0  0  0  0
 28 29  1  0  0  0  0
 29 32  1  0  0  0  0
 32 31  2  6  0  0  0
 32 30  1  0  0  0  0
 32 34  1  0  0  0  0
 34 33  1  0  0  0  0
M  END
>  <MODEL>
2

>  <REMARK>
 VINA RESULT:      -8.9      4.575      7.467
  Name = 
  7 active torsions:
  status: ('A' for Active; 'I' for Inactive)
    1  A    between atoms: C_3  and  C_13
    2  A    between atoms: C_3  and  C_17
    3  A    between atoms: C_12  and  C_28
    4  A    between atoms: C_13  and  N_33
    5  A    between atoms: O_14  and  P_34
    6  A    between atoms: C_17  and  N_29
    7  A    between atoms: N_33  and  P_34
                            x       y       z     vdW  Elec       q    Type
                         _______ _______ _______ _____ _____    ______ ____

>  <TORSDO>
F 7

$$$$
=
 OpenBabel10252415043D

 34 39  0  0  1  0  0  0  0  0999 V2000
  188.3090  178.0690  140.2790 C   0  0  0  0  0  0  0  0  0  0  0  0
  189.0310  177.7490  142.6040 C   0  0  0  0  0  0  0  0  0  0  0  0
  186.7240  178.3030  142.0740 N   0  0  0  0  0  0  0  0  0  0  0  0
  185.2350  178.4210  143.9460 C   0  0  0  0  0  0  0  0  0  0  0  0
  190.6200  177.5210  140.7820 C   0  0  0  0  0  3  0  0  0  0  0  0
  190.3320  177.4860  142.1620 C   0  0  0  0  0  3  0  0  0  0  0  0
  187.3980  177.9970  144.2900 C   0  0  0  0  0  0  0  0  0  0  0  0
  188.0460  178.0440  141.6390 C   0  0  0  0  0  0  0  0  0  0  0  0
  185.3620  178.1950  145.4280 C   0  0  0  0  0  3  0  0  0  0  0  0
  189.6110  177.8090  139.8400 C   0  0  0  0  0  2  0  0  0  0  0  0
  186.0280  178.5590  139.8590 N   0  0  0  0  0  0  0  0  0  0  0  0
  187.2800  178.3370  139.4210 N   0  0  0  0  0  0  0  0  0  0  0  0
  188.6890  177.7150  143.9370 N   0  0  0  0  0  0  0  0  0  0  0  0
  184.1840  178.6340  143.1470 C   0  0  0  0  0  3  0  0  0  0  0  0
  184.4520  178.7250  141.6610 C   0  0  0  0  0  0  0  0  0  0  0  0
  186.8200  177.9580  145.5940 N   0  0  0  0  0  0  0  0  0  0  0  0
  186.4920  178.2850  143.3700 N   0  0  0  0  0  0  0  0  0  0  0  0
  185.7210  178.5360  141.1910 C   0  0  0  0  0  0  0  0  0  0  0  0
  183.1660  176.7420  138.5230 C   0  0  0  0  0  3  0  0  0  0  0  0
  183.1590  177.9070  137.7390 O   0  0  0  0  0  0  0  0  0  0  0  0
  183.3220  179.0110  140.7150 C   0  0  2  0  0  3  0  0  0  0  0  0
  182.8850  179.2190  138.2260 C   0  0  0  0  0  2  0  0  0  0  0  0
  182.3300  177.8430  140.6220 C   0  0  0  0  0  2  0  0  0  0  0  0
  183.8250  179.5580  139.3750 C   0  0  0  0  0  2  0  0  0  0  0  0
  182.8250  176.6800  139.8140 C   0  0  0  0  0  3  0  0  0  0  0  0
  187.4230  177.2690  146.7260 C   0  0  0  0  0  2  0  0  0  0  0  0
  188.2460  178.2400  147.5550 C   0  0  0  0  0  2  0  0  0  0  0  0
  189.5190  177.5710  148.0330 C   0  0  0  0  0  2  0  0  0  0  0  0
  189.8330  176.4380  147.1780 N   0  0  0  0  0  2  0  0  0  0  0  0
  191.7660  177.5880  145.7420 O   0  0  0  0  0  0  0  0  0  0  0  0
  192.0690  175.0350  146.2010 O   0  0  0  0  0  1  0  0  0  0  0  0
  191.5430  176.5280  146.7980 P   0  0  2  0  0  0  0  0  0  0  0  0
  192.9620  175.7820  148.5840 O   0  0  0  0  0  1  0  0  0  0  0  0
  192.4300  176.9190  148.1890 O   0  0  0  0  0  0  0  0  0  0  0  0
  1  8  1  0  0  0  0
  2 13  1  0  0  0  0
  3 17  1  0  0  0  0
  4  9  2  0  0  0  0
  5  6  2  0  0  0  0
  6  2  1  0  0  0  0
  7 16  1  0  0  0  0
  8  3  1  0  0  0  0
  8  2  2  0  0  0  0
  9 16  1  0  0  0  0
 10  1  1  0  0  0  0
 10  5  1  0  0  0  0
 11 18  2  0  0  0  0
 12 11  1  0  0  0  0
 12  1  2  0  0  0  0
 13  7  2  0  0  0  0
 14  4  1  0  0  0  0
 15 14  2  0  0  0  0
 16 26  1  0  0  0  0
 17  4  1  0  0  0  0
 17  7  1  0  0  0  0
 18 15  1  0  0  0  0
 18  3  1  0  0  0  0
 19 25  2  0  0  0  0
 20 22  1  0  0  0  0
 20 19  1  0  0  0  0
 21 15  1  1  0  0  0
 22 24  1  0  0  0  0
 23 21  1  0  0  0  0
 24 21  1  0  0  0  0
 25 23  1  0  0  0  0
 26 27  1  0  0  0  0
 27 28  1  0  0  0  0
 29 28  1  0  0  0  0
 31 32  1  0  0  0  0
 32 30  2  6  0  0  0
 32 29  1  0  0  0  0
 32 34  1  0  0  0  0
 34 33  1  0  0  0  0
M  END
>  <MODEL>
3

>  <REMARK>
 VINA RESULT:      -8.8      4.806      7.236
  Name = 
  7 active torsions:
  status: ('A' for Active; 'I' for Inactive)
    1  A    between atoms: C_3  and  C_13
    2  A    between atoms: C_3  and  C_17
    3  A    between atoms: C_12  and  C_28
    4  A    between atoms: C_13  and  N_33
    5  A    between atoms: O_14  and  P_34
    6  A    between atoms: C_17  and  N_29
    7  A    between atoms: N_33  and  P_34
                            x       y       z     vdW  Elec       q    Type
                         _______ _______ _______ _____ _____    ______ ____

>  <TORSDO>
F 7

$$$$
=
 OpenBabel10252415043D

 34 39  0  0  1  0  0  0  0  0999 V2000
  183.9160  178.6460  144.6980 C   0  0  0  0  0  0  0  0  0  0  0  0
  186.3090  178.1630  144.4260 C   0  0  0  0  0  0  0  0  0  0  0  0
  184.8720  178.5010  142.4950 N   0  0  0  0  0  0  0  0  0  0  0  0
  185.9670  178.4130  140.3670 C   0  0  0  0  0  0  0  0  0  0  0  0
  185.3280  178.3080  146.6440 C   0  0  0  0  0  3  0  0  0  0  0  0
  186.4520  178.1030  145.8170 C   0  0  0  0  0  3  0  0  0  0  0  0
  187.1480  178.0440  142.2230 C   0  0  0  0  0  0  0  0  0  0  0  0
  185.0270  178.4280  143.9000 C   0  0  2  0  0  3  0  0  0  0  0  0
  187.3870  178.2290  139.9020 C   0  0  0  0  0  3  0  0  0  0  0  0
  184.0620  178.5820  146.0870 C   0  0  0  0  0  3  0  0  0  0  0  0
  182.6070  179.0080  142.7550 N   0  0  0  0  0  0  0  0  0  0  0  0
  182.7240  178.9250  144.0920 N   0  0  0  0  0  0  0  0  0  0  0  0
  187.3720  177.9840  143.5710 N   0  0  0  0  0  0  0  0  0  0  0  0
  184.8380  178.7350  139.7270 C   0  0  0  0  0  3  0  0  0  0  0  0
  183.5950  178.9200  140.5700 C   0  0  0  0  0  0  0  0  0  0  0  0
  188.1080  177.9520  141.1720 N   0  0  0  0  0  0  0  0  0  0  0  0
  185.9350  178.2820  141.7500 N   0  0  0  0  0  0  0  0  0  0  0  0
  183.6780  178.8090  141.9290 C   0  0  0  0  0  0  0  0  0  0  0  0
  182.0210  177.5890  137.2260 C   0  0  0  0  0  3  0  0  0  0  0  0
  181.7240  178.8930  136.7980 O   0  0  0  0  0  0  0  0  0  0  0  0
  182.2850  179.2350  139.9080 C   0  0  2  0  0  3  0  0  0  0  0  0
  181.3800  179.9770  137.6580 C   0  0  0  0  0  2  0  0  0  0  0  0
  181.4480  177.9760  139.6420 C   0  0  0  0  0  2  0  0  0  0  0  0
  182.4630  180.1750  138.7110 C   0  0  0  0  0  2  0  0  0  0  0  0
  181.9320  177.1520  138.4860 C   0  0  0  0  0  3  0  0  0  0  0  0
  189.5390  178.1280  141.3670 C   0  0  0  0  0  2  0  0  0  0  0  0
  190.2370  176.7790  141.3930 C   0  0  0  0  0  2  0  0  0  0  0  0
  191.1810  176.7020  142.5760 C   0  0  0  0  0  2  0  0  0  0  0  0
  190.4540  176.2790  143.7620 N   0  0  0  0  0  2  0  0  0  0  0  0
  191.8840  178.3730  144.5930 O   0  0  0  0  0  0  0  0  0  0  0  0
  192.0840  176.2190  146.0560 O   0  0  0  0  0  1  0  0  0  0  0  0
  191.0800  177.2040  145.1150 P   0  0  2  0  0  0  0  0  0  0  0  0
  189.5290  176.7930  146.9000 O   0  0  0  0  0  1  0  0  0  0  0  0
  189.8020  177.7770  146.0700 O   0  0  0  0  0  0  0  0  0  0  0  0
  1 10  1  0  0  0  0
  2  6  2  0  0  0  0
  3  8  1  0  0  0  0
  4 17  1  0  0  0  0
  6  5  1  0  0  0  0
  7 13  2  0  0  0  0
  8  2  1  1  0  0  0
  8  1  1  0  0  0  0
  9  4  2  0  0  0  0
  9 16  1  0  0  0  0
 10  5  2  0  0  0  0
 11 12  1  0  0  0  0
 12  1  2  0  0  0  0
 13  2  1  0  0  0  0
 14  4  1  0  0  0  0
 14 15  2  0  0  0  0
 15 18  1  0  0  0  0
 16 26  1  0  0  0  0
 16  7  1  0  0  0  0
 17  7  1  0  0  0  0
 17  3  1  0  0  0  0
 18  3  1  0  0  0  0
 18 11  2  0  0  0  0
 19 25  2  0  0  0  0
 20 19  1  0  0  0  0
 20 22  1  0  0  0  0
 21 15  1  6  0  0  0
 22 24  1  0  0  0  0
 23 21  1  0  0  0  0
 24 21  1  0  0  0  0
 25 23  1  0  0  0  0
 26 27  1  0  0  0  0
 27 28  1  0  0  0  0
 28 29  1  0  0  0  0
 29 32  1  0  0  0  0
 32 30  2  6  0  0  0
 32 31  1  0  0  0  0
 32 34  1  0  0  0  0
 34 33  1  0  0  0  0
M  END
>  <MODEL>
4

>  <REMARK>
 VINA RESULT:      -8.7      4.559      7.465
  Name = 
  7 active torsions:
  status: ('A' for Active; 'I' for Inactive)
    1  A    between atoms: C_3  and  C_13
    2  A    between atoms: C_3  and  C_17
    3  A    between atoms: C_12  and  C_28
    4  A    between atoms: C_13  and  N_33
    5  A    between atoms: O_14  and  P_34
    6  A    between atoms: C_17  and  N_29
    7  A    between atoms: N_33  and  P_34
                            x       y       z     vdW  Elec       q    Type
                         _______ _______ _______ _____ _____    ______ ____

>  <TORSDO>
F 7

$$$$
=
 OpenBabel10252415043D

 34 39  0  0  1  0  0  0  0  0999 V2000
  188.2600  178.1320  138.7680 C   0  0  0  0  0  0  0  0  0  0  0  0
  188.6840  177.7740  141.1610 C   0  0  0  0  0  0  0  0  0  0  0  0
  186.4680  178.3690  140.3570 N   0  0  0  0  0  0  0  0  0  0  0  0
  184.7610  178.4900  142.0320 C   0  0  0  0  0  0  0  0  0  0  0  0
  190.4830  177.5420  139.5450 C   0  0  0  0  0  3  0  0  0  0  0  0
  190.0260  177.4960  140.8780 C   0  0  0  0  0  3  0  0  0  0  0  0
  186.8590  178.0290  142.6350 C   0  0  0  0  0  0  0  0  0  0  0  0
  187.8300  178.0950  140.0850 C   0  0  0  0  0  0  0  0  0  0  0  0
  184.7010  178.2450  143.5160 C   0  0  0  0  0  3  0  0  0  0  0  0
  189.6020  177.8560  138.4900 C   0  0  0  0  0  2  0  0  0  0  0  0
  186.0550  178.6620  138.0770 N   0  0  0  0  0  0  0  0  0  0  0  0
  187.3480  178.4250  137.7930 N   0  0  0  0  0  0  0  0  0  0  0  0
  188.1790  177.7310  142.4410 N   0  0  0  0  0  0  0  0  0  0  0  0
  183.8200  178.7280  141.1130 C   0  0  0  0  0  3  0  0  0  0  0  0
  184.2710  178.8320  139.6730 C   0  0  0  0  0  0  0  0  0  0  0  0
  186.1240  177.9840  143.8580 N   0  0  0  0  0  0  0  0  0  0  0  0
  186.0780  178.3410  141.6140 N   0  0  0  0  0  0  0  0  0  0  0  0
  185.5850  178.6280  139.3600 C   0  0  0  0  0  0  0  0  0  0  0  0
  180.3570  179.1370  139.8170 C   0  0  0  0  0  3  0  0  0  0  0  0
  180.2090  178.2960  138.7020 O   0  0  0  0  0  0  0  0  0  0  0  0
  183.2710  179.1450  138.5980 C   0  0  2  0  0  3  0  0  0  0  0  0
  181.1270  178.2130  137.6140 C   0  0  0  0  0  2  0  0  0  0  0  0
  182.3840  180.3470  138.9590 C   0  0  0  0  0  2  0  0  0  0  0  0
  182.5230  177.8920  138.1310 C   0  0  0  0  0  2  0  0  0  0  0  0
  181.3250  180.0440  139.9760 C   0  0  0  0  0  3  0  0  0  0  0  0
  186.5730  177.2740  145.0450 C   0  0  0  0  0  2  0  0  0  0  0  0
  187.1000  178.2550  146.0780 C   0  0  0  0  0  2  0  0  0  0  0  0
  188.5070  177.8730  146.4930 C   0  0  0  0  0  2  0  0  0  0  0  0
  188.9970  176.8000  145.6440 N   0  0  0  0  0  2  0  0  0  0  0  0
  191.0560  176.3070  144.0190 O   0  0  0  0  0  0  0  0  0  0  0  0
  191.6840  177.1270  146.4170 O   0  0  0  0  0  1  0  0  0  0  0  0
  190.6090  177.2480  145.1150 P   0  0  2  0  0  0  0  0  0  0  0  0
  191.7560  178.9670  143.8950 O   0  0  0  0  0  1  0  0  0  0  0  0
  190.6110  178.8390  144.5320 O   0  0  0  0  0  0  0  0  0  0  0  0
  1  8  1  0  0  0  0
  2 13  1  0  0  0  0
  3 17  1  0  0  0  0
  4  9  2  0  0  0  0
  5  6  2  0  0  0  0
  6  2  1  0  0  0  0
  7 16  1  0  0  0  0
  8  3  1  0  0  0  0
  8  2  2  0  0  0  0
  9 16  1  0  0  0  0
 10  1  1  0  0  0  0
 10  5  1  0  0  0  0
 11 18  2  0  0  0  0
 12 11  1  0  0  0  0
 12  1  2  0  0  0  0
 13  7  2  0  0  0  0
 14  4  1  0  0  0  0
 15 14  2  0  0  0  0
 16 26  1  0  0  0  0
 17  4  1  0  0  0  0
 17  7  1  0  0  0  0
 18 15  1  0  0  0  0
 18  3  1  0  0  0  0
 19 25  2  0  0  0  0
 20 19  1  0  0  0  0
 21 23  1  0  0  0  0
 21 15  1  1  0  0  0
 22 24  1  0  0  0  0
 22 20  1  0  0  0  0
 23 25  1  0  0  0  0
 24 21  1  0  0  0  0
 26 27  1  0  0  0  0
 27 28  1  0  0  0  0
 29 28  1  0  0  0  0
 32 30  2  6  0  0  0
 32 29  1  0  0  0  0
 32 31  1  0  0  0  0
 33 34  1  0  0  0  0
 34 32  1  0  0  0  0
M  END
>  <MODEL>
5

>  <REMARK>
 VINA RESULT:      -8.6      4.392      7.193
  Name = 
  7 active torsions:
  status: ('A' for Active; 'I' for Inactive)
    1  A    between atoms: C_3  and  C_13
    2  A    between atoms: C_3  and  C_17
    3  A    between atoms: C_12  and  C_28
    4  A    between atoms: C_13  and  N_33
    5  A    between atoms: O_14  and  P_34
    6  A    between atoms: C_17  and  N_29
    7  A    between atoms: N_33  and  P_34
                            x       y       z     vdW  Elec       q    Type
                         _______ _______ _______ _____ _____    ______ ____

>  <TORSDO>
F 7

$$$$
=
 OpenBabel10252415043D

 34 39  0  0  1  0  0  0  0  0999 V2000
  185.2810  178.7810  142.4970 C   0  0  0  0  0  0  0  0  0  0  0  0
  187.2300  177.8990  143.7030 C   0  0  0  0  0  0  0  0  0  0  0  0
  187.1910  177.9780  141.2740 N   0  0  0  0  0  0  0  0  0  0  0  0
  189.1880  177.2280  140.1850 C   0  0  0  0  0  0  0  0  0  0  0  0
  185.2930  178.7100  144.9230 C   0  0  0  0  0  3  0  0  0  0  0  0
  186.5870  178.1500  144.9200 C   0  0  0  0  0  3  0  0  0  0  0  0
  189.0530  177.1390  142.4100 C   0  0  0  0  0  0  0  0  0  0  0  0
  186.5470  178.2190  142.5110 C   0  0  2  0  0  3  0  0  0  0  0  0
  190.5330  176.7310  140.6430 C   0  0  0  0  0  3  0  0  0  0  0  0
  184.6400  179.0280  143.7150 C   0  0  0  0  0  3  0  0  0  0  0  0
  185.3570  178.8630  140.1290 N   0  0  0  0  0  0  0  0  0  0  0  0
  184.7160  179.0830  141.2900 N   0  0  0  0  0  0  0  0  0  0  0  0
  188.4980  177.3670  143.6400 N   0  0  0  0  0  0  0  0  0  0  0  0
  188.7020  177.5530  138.9830 C   0  0  0  0  0  3  0  0  0  0  0  0
  187.2990  178.1140  138.9330 C   0  0  0  0  0  0  0  0  0  0  0  0
  190.3640  176.6590  142.1190 N   0  0  0  0  0  0  0  0  0  0  0  0
  188.3900  177.4340  141.3030 N   0  0  0  0  0  0  0  0  0  0  0  0
  186.6100  178.3170  140.0950 C   0  0  0  0  0  0  0  0  0  0  0  0
  186.6060  175.8840  135.7730 C   0  0  0  0  0  3  0  0  0  0  0  0
  187.1940  176.8350  134.9220 O   0  0  0  0  0  0  0  0  0  0  0  0
  186.6770  178.4540  137.6090 C   0  0  2  0  0  3  0  0  0  0  0  0
  187.1660  178.2450  135.1290 C   0  0  0  0  0  2  0  0  0  0  0  0
  185.4790  177.5520  137.2780 C   0  0  0  0  0  2  0  0  0  0  0  0
  187.7300  178.5850  136.5020 C   0  0  0  0  0  2  0  0  0  0  0  0
  185.8560  176.1670  136.8430 C   0  0  0  0  0  3  0  0  0  0  0  0
  191.4580  176.6620  143.0780 C   0  0  0  0  0  2  0  0  0  0  0  0
  191.5920  178.0320  143.7190 C   0  0  0  0  0  2  0  0  0  0  0  0
  191.5960  177.9050  145.2290 C   0  0  0  0  0  2  0  0  0  0  0  0
  191.6940  176.5050  145.6070 N   0  0  0  0  0  2  0  0  0  0  0  0
  191.7310  177.5100  148.0790 O   0  0  0  0  0  1  0  0  0  0  0  0
  191.6790  174.9040  147.9220 O   0  0  0  0  0  0  0  0  0  0  0  0
  191.1500  176.3730  147.2690 P   0  0  2  0  0  0  0  0  0  0  0  0
  189.1700  177.7190  147.4470 O   0  0  0  0  0  1  0  0  0  0  0  0
  189.4570  176.4390  147.3360 O   0  0  0  0  0  0  0  0  0  0  0  0
  1 10  1  0  0  0  0
  2  6  2  0  0  0  0
  3 17  1  0  0  0  0
  3  8  1  0  0  0  0
  4  9  2  0  0  0  0
  4 17  1  0  0  0  0
  6  5  1  0  0  0  0
  7 13  2  0  0  0  0
  8  1  1  1  0  0  0
  8  2  1  0  0  0  0
  9 16  1  0  0  0  0
 10  5  2  0  0  0  0
 11 12  1  0  0  0  0
 12  1  2  0  0  0  0
 13  2  1  0  0  0  0
 14  4  1  0  0  0  0
 15 14  2  0  0  0  0
 15 18  1  0  0  0  0
 16  7  1  0  0  0  0
 16 26  1  0  0  0  0
 17  7  1  0  0  0  0
 18 11  2  0  0  0  0
 18  3  1  0  0  0  0
 19 25  2  0  0  0  0
 20 22  1  0  0  0  0
 20 19  1  0  0  0  0
 21 15  1  1  0  0  0
 22 24  1  0  0  0  0
 23 21  1  0  0  0  0
 24 21  1  0  0  0  0
 25 23  1  0  0  0  0
 26 27  1  0  0  0  0
 27 28  1  0  0  0  0
 28 29  1  0  0  0  0
 29 32  1  0  0  0  0
 32 34  1  0  0  0  0
 32 31  2  1  0  0  0
 32 30  1  0  0  0  0
 34 33  1  0  0  0  0
M  END
>  <MODEL>
6

>  <REMARK>
 VINA RESULT:      -8.5      4.568      6.846
  Name = 
  7 active torsions:
  status: ('A' for Active; 'I' for Inactive)
    1  A    between atoms: C_3  and  C_13
    2  A    between atoms: C_3  and  C_17
    3  A    between atoms: C_12  and  C_28
    4  A    between atoms: C_13  and  N_33
    5  A    between atoms: O_14  and  P_34
    6  A    between atoms: C_17  and  N_29
    7  A    between atoms: N_33  and  P_34
                            x       y       z     vdW  Elec       q    Type
                         _______ _______ _______ _____ _____    ______ ____

>  <TORSDO>
F 7

$$$$
=
 OpenBabel10252415043D

 34 39  0  0  1  0  0  0  0  0999 V2000
  186.6960  177.9920  144.9940 C   0  0  0  0  0  0  0  0  0  0  0  0
  188.9140  177.4030  144.1180 C   0  0  0  0  0  0  0  0  0  0  0  0
  187.0810  177.9540  142.6190 N   0  0  0  0  0  0  0  0  0  0  0  0
  187.6230  177.9610  140.2860 C   0  0  0  0  0  0  0  0  0  0  0  0
  188.5080  177.4410  146.5120 C   0  0  0  0  0  3  0  0  0  0  0  0
  189.3830  177.2350  145.4260 C   0  0  0  0  0  3  0  0  0  0  0  0
  189.1870  177.3980  141.7740 C   0  0  0  0  0  0  0  0  0  0  0  0
  187.5650  177.7730  143.9370 C   0  0  2  0  0  3  0  0  0  0  0  0
  188.8730  177.7360  139.4790 C   0  0  0  0  0  3  0  0  0  0  0  0
  187.1670  177.8210  146.2990 C   0  0  0  0  0  3  0  0  0  0  0  0
  184.9860  178.5620  143.4550 N   0  0  0  0  0  0  0  0  0  0  0  0
  185.4150  178.3770  144.7150 N   0  0  0  0  0  0  0  0  0  0  0  0
  189.7250  177.2290  143.0200 N   0  0  0  0  0  0  0  0  0  0  0  0
  186.3980  178.3890  139.9620 C   0  0  0  0  0  3  0  0  0  0  0  0
  185.4110  178.5790  141.0920 C   0  0  0  0  0  0  0  0  0  0  0  0
  189.8580  177.3300  140.5160 N   0  0  0  0  0  0  0  0  0  0  0  0
  187.9160  177.7330  141.6250 N   0  0  0  0  0  0  0  0  0  0  0  0
  185.8100  178.3660  142.3820 C   0  0  0  0  0  0  0  0  0  0  0  0
  182.7450  177.0950  138.6170 C   0  0  0  0  0  3  0  0  0  0  0  0
  182.4800  178.3650  138.0770 O   0  0  0  0  0  0  0  0  0  0  0  0
  184.0050  179.0100  140.7900 C   0  0  2  0  0  3  0  0  0  0  0  0
  182.5410  179.5900  138.8020 C   0  0  0  0  0  2  0  0  0  0  0  0
  182.9900  177.8750  140.9930 C   0  0  0  0  0  2  0  0  0  0  0  0
  183.9110  179.7480  139.4500 C   0  0  0  0  0  2  0  0  0  0  0  0
  182.9990  176.8430  139.9050 C   0  0  0  0  0  3  0  0  0  0  0  0
  191.3020  177.4150  140.3640 C   0  0  0  0  0  2  0  0  0  0  0  0
  191.7350  176.7490  139.0690 C   0  0  0  0  0  2  0  0  0  0  0  0
  193.2460  176.7630  138.9530 C   0  0  0  0  0  2  0  0  0  0  0  0
  193.6370  176.5510  137.5690 N   0  0  0  0  0  2  0  0  0  0  0  0
  195.4910  175.0830  136.3330 O   0  0  0  0  0  0  0  0  0  0  0  0
  193.4640  173.7540  137.3050 O   0  0  0  0  0  1  0  0  0  0  0  0
  194.5370  175.0470  137.5060 P   0  0  2  0  0  0  0  0  0  0  0  0
  195.4480  173.5270  139.1260 O   0  0  0  0  0  1  0  0  0  0  0  0
  195.4140  174.8300  138.9410 O   0  0  0  0  0  0  0  0  0  0  0  0
  1 10  1  0  0  0  0
  2  6  2  0  0  0  0
  3  8  1  0  0  0  0
  4 17  1  0  0  0  0
  6  5  1  0  0  0  0
  7 13  2  0  0  0  0
  8  2  1  1  0  0  0
  8  1  1  0  0  0  0
  9  4  2  0  0  0  0
  9 16  1  0  0  0  0
 10  5  2  0  0  0  0
 11 12  1  0  0  0  0
 12  1  2  0  0  0  0
 13  2  1  0  0  0  0
 14  4  1  0  0  0  0
 14 15  2  0  0  0  0
 15 18  1  0  0  0  0
 16  7  1  0  0  0  0
 17  7  1  0  0  0  0
 17  3  1  0  0  0  0
 18  3  1  0  0  0  0
 18 11  2  0  0  0  0
 19 25  2  0  0  0  0
 20 19  1  0  0  0  0
 20 22  1  0  0  0  0
 21 23  1  0  0  0  0
 21 15  1  6  0  0  0
 22 24  1  0  0  0  0
 24 21  1  0  0  0  0
 25 23  1  0  0  0  0
 26 16  1  0  0  0  0
 27 26  1  0  0  0  0
 28 27  1  0  0  0  0
 29 28  1  0  0  0  0
 31 32  1  0  0  0  0
 32 30  2  6  0  0  0
 32 29  1  0  0  0  0
 32 34  1  0  0  0  0
 34 33  1  0  0  0  0
M  END
>  <MODEL>
7

>  <REMARK>
 VINA RESULT:      -8.5      4.060      8.423
  Name = 
  7 active torsions:
  status: ('A' for Active; 'I' for Inactive)
    1  A    between atoms: C_3  and  C_13
    2  A    between atoms: C_3  and  C_17
    3  A    between atoms: C_12  and  C_28
    4  A    between atoms: C_13  and  N_33
    5  A    between atoms: O_14  and  P_34
    6  A    between atoms: C_17  and  N_29
    7  A    between atoms: N_33  and  P_34
                            x       y       z     vdW  Elec       q    Type
                         _______ _______ _______ _____ _____    ______ ____

>  <TORSDO>
F 7

$$$$
=
 OpenBabel10252415043D

 34 39  0  0  1  0  0  0  0  0999 V2000
  183.7770  178.7930  141.4880 C   0  0  0  0  0  0  0  0  0  0  0  0
  184.8680  178.4870  143.6670 C   0  0  0  0  0  0  0  0  0  0  0  0
  186.1340  178.3220  141.5990 N   0  0  0  0  0  0  0  0  0  0  0  0
  188.4830  177.9340  141.8550 C   0  0  0  0  0  0  0  0  0  0  0  0
  182.4890  178.9590  143.5390 C   0  0  0  0  0  3  0  0  0  0  0  0
  183.6430  178.7040  144.3080 C   0  0  0  0  0  3  0  0  0  0  0  0
  187.1840  178.0310  143.6660 C   0  0  0  0  0  0  0  0  0  0  0  0
  184.8990  178.5310  142.2580 C   0  0  0  0  0  0  0  0  0  0  0  0
  189.4220  177.7960  143.0230 C   0  0  0  0  0  3  0  0  0  0  0  0
  182.5540  179.0060  142.1320 C   0  0  0  0  0  2  0  0  0  0  0  0
  185.1050  178.6610  139.5290 N   0  0  0  0  0  0  0  0  0  0  0  0
  183.9150  178.8430  140.1300 N   0  0  0  0  0  0  0  0  0  0  0  0
  186.0290  178.2470  144.3660 N   0  0  0  0  0  0  0  0  0  0  0  0
  188.6830  178.0260  140.5360 C   0  0  0  0  0  3  0  0  0  0  0  0
  187.4660  178.2530  139.6670 C   0  0  0  0  0  0  0  0  0  0  0  0
  188.4970  177.8300  144.1860 N   0  0  0  0  0  0  0  0  0  0  0  0
  187.1880  178.0640  142.3430 N   0  0  0  0  0  0  0  0  0  0  0  0
  186.2390  178.4080  140.2480 C   0  0  0  0  0  0  0  0  0  0  0  0
  189.2010  175.7830  137.1520 C   0  0  0  0  0  3  0  0  0  0  0  0
  189.9060  176.8340  136.5420 O   0  0  0  0  0  0  0  0  0  0  0  0
  187.6160  178.3170  138.1750 C   0  0  2  0  0  3  0  0  0  0  0  0
  189.4230  178.1680  136.4010 C   0  0  0  0  0  2  0  0  0  0  0  0
  187.0640  177.0640  137.4780 C   0  0  0  0  0  2  0  0  0  0  0  0
  189.0330  178.7310  137.7610 C   0  0  0  0  0  2  0  0  0  0  0  0
  187.9440  175.8570  137.6010 C   0  0  0  0  0  3  0  0  0  0  0  0
  188.8890  178.1690  145.5450 C   0  0  0  0  0  2  0  0  0  0  0  0
  188.0670  177.3740  146.5450 C   0  0  0  0  0  2  0  0  0  0  0  0
  188.9750  176.5320  147.4180 C   0  0  0  0  0  2  0  0  0  0  0  0
  190.1200  177.3210  147.8450 N   0  0  0  0  0  2  0  0  0  0  0  0
  191.2710  174.9670  147.3390 O   0  0  0  0  0  0  0  0  0  0  0  0
  192.8050  176.7530  148.4690 O   0  0  0  0  0  1  0  0  0  0  0  0
  191.5630  176.4510  147.3590 P   0  0  2  0  0  0  0  0  0  0  0  0
  191.6700  175.9880  145.0070 O   0  0  0  0  0  1  0  0  0  0  0  0
  192.0560  176.9520  145.8160 O   0  0  0  0  0  0  0  0  0  0  0  0
  1 10  1  0  0  0  0
  1  8  1  0  0  0  0
  2  6  1  0  0  0  0
  2 13  1  0  0  0  0
  3  8  1  0  0  0  0
  3 17  1  0  0  0  0
  4 17  1  0  0  0  0
  4  9  2  0  0  0  0
  5  6  2  0  0  0  0
  7 16  1  0  0  0  0
  7 13  2  0  0  0  0
  8  2  2  0  0  0  0
  9 16  1  0  0  0  0
 10  5  1  0  0  0  0
 11 12  1  0  0  0  0
 11 18  2  0  0  0  0
 12  1  2  0  0  0  0
 14  4  1  0  0  0  0
 15 18  1  0  0  0  0
 15 14  2  0  0  0  0
 16 26  1  0  0  0  0
 17  7  1  0  0  0  0
 18  3  1  0  0  0  0
 19 25  2  0  0  0  0
 20 19  1  0  0  0  0
 21 15  1  1  0  0  0
 22 20  1  0  0  0  0
 22 24  1  0  0  0  0
 23 25  1  0  0  0  0
 23 21  1  0  0  0  0
 24 21  1  0  0  0  0
 26 27  1  0  0  0  0
 27 28  1  0  0  0  0
 28 29  1  0  0  0  0
 32 30  2  6  0  0  0
 32 29  1  0  0  0  0
 32 31  1  0  0  0  0
 33 34  1  0  0  0  0
 34 32  1  0  0  0  0
M  END
>  <MODEL>
8

>  <REMARK>
 VINA RESULT:      -8.3      4.877      6.988
  Name = 
  7 active torsions:
  status: ('A' for Active; 'I' for Inactive)
    1  A    between atoms: C_3  and  C_13
    2  A    between atoms: C_3  and  C_17
    3  A    between atoms: C_12  and  C_28
    4  A    between atoms: C_13  and  N_33
    5  A    between atoms: O_14  and  P_34
    6  A    between atoms: C_17  and  N_29
    7  A    between atoms: N_33  and  P_34
                            x       y       z     vdW  Elec       q    Type
                         _______ _______ _______ _____ _____    ______ ____

>  <TORSDO>
F 7

$$$$
=
 OpenBabel10252415043D

 34 39  0  0  1  0  0  0  0  0999 V2000
  185.4530  178.6620  141.6380 C   0  0  0  0  0  0  0  0  0  0  0  0
  187.1820  178.0770  143.2810 C   0  0  0  0  0  0  0  0  0  0  0  0
  187.6600  178.0520  140.8980 N   0  0  0  0  0  0  0  0  0  0  0  0
  189.9160  177.5100  140.3040 C   0  0  0  0  0  0  0  0  0  0  0  0
  184.9480  178.6910  144.0120 C   0  0  0  0  0  3  0  0  0  0  0  0
  186.2670  178.2950  144.3170 C   0  0  0  0  0  3  0  0  0  0  0  0
  189.3140  177.4960  142.4520 C   0  0  0  0  0  0  0  0  0  0  0  0
  186.7410  178.2610  141.9540 C   0  0  2  0  0  3  0  0  0  0  0  0
  191.1770  177.2020  141.0650 C   0  0  0  0  0  3  0  0  0  0  0  0
  184.5410  178.8770  142.6760 C   0  0  0  0  0  3  0  0  0  0  0  0
  186.0290  178.6560  139.3390 N   0  0  0  0  0  0  0  0  0  0  0  0
  185.1310  178.8420  140.3220 N   0  0  0  0  0  0  0  0  0  0  0  0
  188.4850  177.7030  143.5200 N   0  0  0  0  0  0  0  0  0  0  0  0
  189.6680  177.7240  139.0070 C   0  0  0  0  0  3  0  0  0  0  0  0
  188.2540  178.1050  138.6270 C   0  0  0  0  0  0  0  0  0  0  0  0
  190.7030  177.1690  142.4740 N   0  0  0  0  0  0  0  0  0  0  0  0
  188.8770  177.6620  141.2140 N   0  0  0  0  0  0  0  0  0  0  0  0
  187.3130  178.2690  139.6040 C   0  0  0  0  0  0  0  0  0  0  0  0
  188.0100  175.5510  135.6520 C   0  0  0  0  0  3  0  0  0  0  0  0
  188.7940  176.3750  134.8270 O   0  0  0  0  0  0  0  0  0  0  0  0
  187.8990  178.3120  137.1840 C   0  0  2  0  0  3  0  0  0  0  0  0
  188.8090  177.8000  134.8720 C   0  0  0  0  0  2  0  0  0  0  0  0
  186.7300  177.4220  136.7370 C   0  0  0  0  0  2  0  0  0  0  0  0
  189.1380  178.2750  136.2820 C   0  0  0  0  0  2  0  0  0  0  0  0
  187.0990  175.9830  136.5300 C   0  0  0  0  0  3  0  0  0  0  0  0
  191.5570  177.3470  143.6380 C   0  0  0  0  0  2  0  0  0  0  0  0
  191.2280  176.3070  144.6960 C   0  0  0  0  0  2  0  0  0  0  0  0
  191.5830  176.8310  146.0730 C   0  0  0  0  0  2  0  0  0  0  0  0
  190.6380  176.3220  147.0540 N   0  0  0  0  0  2  0  0  0  0  0  0
  189.5430  178.6000  146.1990 O   0  0  0  0  0  0  0  0  0  0  0  0
  189.6130  178.2850  148.7910 O   0  0  0  0  0  1  0  0  0  0  0  0
  189.4070  177.5510  147.2790 P   0  0  2  0  0  0  0  0  0  0  0  0
  187.0400  177.8050  147.5850 O   0  0  0  0  0  1  0  0  0  0  0  0
  187.8640  176.8540  147.2000 O   0  0  0  0  0  0  0  0  0  0  0  0
  1 10  1  0  0  0  0
  2 13  1  0  0  0  0
  2  6  2  0  0  0  0
  3 17  1  0  0  0  0
  3  8  1  0  0  0  0
  4  9  2  0  0  0  0
  4 17  1  0  0  0  0
  5  6  1  0  0  0  0
  7 16  1  0  0  0  0
  7 13  2  0  0  0  0
  8  1  1  1  0  0  0
  8  2  1  0  0  0  0
  9 16  1  0  0  0  0
 10  5  2  0  0  0  0
 11 18  2  0  0  0  0
 11 12  1  0  0  0  0
 12  1  2  0  0  0  0
 14  4  1  0  0  0  0
 15 14  2  0  0  0  0
 15 18  1  0  0  0  0
 16 26  1  0  0  0  0
 17  7  1  0  0  0  0
 18  3  1  0  0  0  0
 19 25  2  0  0  0  0
 20 22  1  0  0  0  0
 20 19  1  0  0  0  0
 21 15  1  1  0  0  0
 22 24  1  0  0  0  0
 23 21  1  0  0  0  0
 24 21  1  0  0  0  0
 25 23  1  0  0  0  0
 26 27  1  0  0  0  0
 27 28  1  0  0  0  0
 28 29  1  0  0  0  0
 29 32  1  0  0  0  0
 32 30  2  6  0  0  0
 32 31  1  0  0  0  0
 34 32  1  0  0  0  0
 34 33  1  0  0  0  0
M  END
>  <MODEL>
9

>  <REMARK>
 VINA RESULT:      -8.3      4.216      6.280
  Name = 
  7 active torsions:
  status: ('A' for Active; 'I' for Inactive)
    1  A    between atoms: C_3  and  C_13
    2  A    between atoms: C_3  and  C_17
    3  A    between atoms: C_12  and  C_28
    4  A    between atoms: C_13  and  N_33
    5  A    between atoms: O_14  and  P_34
    6  A    between atoms: C_17  and  N_29
    7  A    between atoms: N_33  and  P_34
                            x       y       z     vdW  Elec       q    Type
                         _______ _______ _______ _____ _____    ______ ____

>  <TORSDO>
F 7

$$$$
