=
 OpenBabel10262422033D

 30 32  0  0  1  0  0  0  0  0999 V2000
  190.9680  176.3680  141.8240 C   0  0  0  0  0  2  0  0  0  0  0  0
  189.5550  176.7940  141.3980 C   0  0  2  0  0  3  0  0  0  0  0  0
  192.1120  179.0630  144.3280 C   0  0  0  0  0  1  0  0  0  0  0  0
  185.2100  179.1530  140.0030 C   0  0  0  0  0  2  0  0  0  0  0  0
  188.5580  177.7100  138.9980 P   0  0  1  0  0  4  0  0  0  0  0  0
  187.1130  177.1680  142.1180 C   0  0  0  0  0  2  0  0  0  0  0  0
  189.2230  179.1750  143.1670 O   0  0  0  0  0  1  0  0  0  0  0  0
  188.8050  179.2800  137.6600 Cl  0  0  0  0  0  0  0  0  0  0  0  0
  189.6040  177.9980  140.4580 C   0  0  0  0  0  2  0  0  0  0  0  0
  186.8190  178.6070  141.6820 C   0  0  2  0  0  3  0  0  0  0  0  0
  184.5210  178.8630  141.1900 O   0  0  0  0  0  0  0  0  0  0  0  0
  191.7600  177.5310  142.4180 C   0  0  0  0  0  2  0  0  0  0  0  0
  190.1960  177.3840  144.4810 C   0  0  2  0  0  3  0  0  0  0  0  0
  191.6120  177.6850  143.9330 C   0  0  2  0  0  3  0  0  0  0  0  0
  188.5030  175.6180  143.1700 O   0  0  0  0  0  1  0  0  0  0  0  0
  188.9910  177.8930  143.6760 C   0  0  2  0  0  3  0  0  0  0  0  0
  188.5550  176.8860  142.5840 C   0  0  1  0  0  0  0  0  0  0  0  0
  185.4650  179.0150  142.2150 C   0  0  0  0  0  2  0  0  0  0  0  0
  186.9320  177.5970  139.4690 O   0  0  0  0  0  0  0  0  0  0  0  0
  186.6620  178.7740  140.1800 C   0  0  1  0  0  3  0  0  0  0  0  0
  189.0620  176.1640  138.1930 C   0  0  0  0  0  2  0  0  0  0  0  0
  190.3500  176.3800  137.4290 C   0  0  0  0  0  2  0  0  0  0  0  0
  191.4700  175.6160  138.1020 C   0  0  0  0  0  2  0  0  0  0  0  0
  192.6060  176.5640  138.4220 C   0  0  0  0  0  1  0  0  0  0  0  0
  189.9990  177.4450  146.0070 C   0  0  1  0  0  3  0  0  0  0  0  0
  188.5440  177.1830  146.3970 C   0  0  0  0  0  3  0  0  0  0  0  0
  187.8730  178.3940  146.5830 O   0  0  0  0  0  1  0  0  0  0  0  0
  188.4890  176.4450  147.5810 O   0  0  0  0  0  1  0  0  0  0  0  0
  191.7130  177.2330  147.6690 O   0  0  0  0  0  1  0  0  0  0  0  0
  190.9400  176.5080  146.7610 C   0  0  0  0  0  2  0  0  0  0  0  0
  1 12  1  0  0  0  0
  2  9  1  1  0  0  0
  2  1  1  0  0  0  0
  2 17  1  0  0  0  0
  4 11  1  0  0  0  0
  5  8  1  6  0  0  0
  5 19  1  0  0  0  0
  5  9  1  0  0  0  0
  6 17  1  0  0  0  0
 10  6  1  6  0  0  0
 10 18  1  0  0  0  0
 11 18  1  0  0  0  0
 12 14  1  0  0  0  0
 13 25  1  1  0  0  0
 14  3  1  6  0  0  0
 14 13  1  0  0  0  0
 16  7  1  6  0  0  0
 16 13  1  0  0  0  0
 17 15  1  1  0  0  0
 17 16  1  0  0  0  0
 19 20  1  0  0  0  0
 20  4  1  1  0  0  0
 20 10  1  0  0  0  0
 21  5  1  0  0  0  0
 22 23  1  0  0  0  0
 22 21  1  0  0  0  0
 23 24  1  0  0  0  0
 25 26  1  0  0  0  0
 25 30  1  1  0  0  0
 26 27  1  0  0  0  0
 26 28  1  0  0  0  0
 30 29  1  0  0  0  0
M  END
>  <MODEL>
1

>  <REMARK>
 VINA RESULT:      -5.8      0.000      0.000
  Name = 
  6 active torsions:
  status: ('A' for Active; 'I' for Inactive)
    1  A    between atoms: C_2  and  C_28
    2  A    between atoms: C_6  and  P_8
    3  A    between atoms: C_6  and  C_21
    4  A    between atoms: C_9  and  C_21
    5  A    between atoms: C_19  and  C_28
    6  A    between atoms: C_28  and  C_29
                            x       y       z     vdW  Elec       q    Type
                         _______ _______ _______ _____ _____    ______ ____

>  <TORSDO>
F 6

$$$$
=
 OpenBabel10262422033D

 30 32  0  0  1  0  0  0  0  0999 V2000
  191.4270  175.0360  135.0010 C   0  0  0  0  0  2  0  0  0  0  0  0
  190.7580  175.4980  136.3050 C   0  0  2  0  0  3  0  0  0  0  0  0
  194.8920  176.7200  135.0070 C   0  0  0  0  0  1  0  0  0  0  0  0
  188.9650  177.9250  140.4620 C   0  0  0  0  0  2  0  0  0  0  0  0
  188.6040  177.1500  136.7780 P   0  0  1  0  0  4  0  0  0  0  0  0
  190.7900  175.4360  138.8770 C   0  0  0  0  0  2  0  0  0  0  0  0
  193.0180  177.0610  137.4710 O   0  0  0  0  0  1  0  0  0  0  0  0
  187.9890  179.1070  136.4520 Cl  0  0  0  0  0  0  0  0  0  0  0  0
  190.3210  176.9600  136.2100 C   0  0  0  0  0  2  0  0  0  0  0  0
  190.7770  176.9140  139.2790 C   0  0  2  0  0  3  0  0  0  0  0  0
  189.7270  177.1860  141.3790 O   0  0  0  0  0  0  0  0  0  0  0  0
  192.5770  175.9560  134.5940 C   0  0  0  0  0  2  0  0  0  0  0  0
  193.9070  174.9820  136.5940 C   0  0  2  0  0  3  0  0  0  0  0  0
  193.9400  175.5470  135.1540 C   0  0  2  0  0  3  0  0  0  0  0  0
  191.6480  173.7020  137.5740 O   0  0  0  0  0  1  0  0  0  0  0  0
  192.9870  175.6700  137.6140 C   0  0  2  0  0  3  0  0  0  0  0  0
  191.5500  175.0960  137.5800 C   0  0  1  0  0  0  0  0  0  0  0  0
  190.9800  177.0190  140.7730 C   0  0  0  0  0  2  0  0  0  0  0  0
  188.5000  176.7740  138.4300 O   0  0  0  0  0  0  0  0  0  0  0  0
  189.4380  177.5990  139.0650 C   0  0  1  0  0  3  0  0  0  0  0  0
  187.5310  176.0300  135.8360 C   0  0  0  0  0  2  0  0  0  0  0  0
  187.1790  174.8260  136.6820 C   0  0  0  0  0  2  0  0  0  0  0  0
  187.6310  173.5650  135.9770 C   0  0  0  0  0  2  0  0  0  0  0  0
  188.1410  172.5710  137.0000 C   0  0  0  0  0  1  0  0  0  0  0  0
  195.2350  174.4790  137.1890 C   0  0  1  0  0  3  0  0  0  0  0  0
  195.1420  174.3060  138.7060 C   0  0  0  0  0  3  0  0  0  0  0  0
  196.1970  174.9760  139.3300 O   0  0  0  0  0  1  0  0  0  0  0  0
  195.2020  172.9520  139.0390 O   0  0  0  0  0  1  0  0  0  0  0  0
  197.1170  173.2400  136.3730 O   0  0  0  0  0  1  0  0  0  0  0  0
  195.7300  173.1970  136.5250 C   0  0  0  0  0  2  0  0  0  0  0  0
  2  1  1  6  0  0  0
  2 17  1  0  0  0  0
  4 11  1  0  0  0  0
  5  8  1  6  0  0  0
  5 19  1  0  0  0  0
  9  2  1  0  0  0  0
  9  5  1  0  0  0  0
 10  6  1  1  0  0  0
 10 18  1  0  0  0  0
 12  1  1  0  0  0  0
 12 14  1  0  0  0  0
 13 25  1  1  0  0  0
 13 16  1  0  0  0  0
 14  3  1  1  0  0  0
 14 13  1  0  0  0  0
 16  7  1  6  0  0  0
 17 15  1  6  0  0  0
 17 16  1  0  0  0  0
 17  6  1  0  0  0  0
 18 11  1  0  0  0  0
 19 20  1  0  0  0  0
 20 10  1  0  0  0  0
 20  4  1  1  0  0  0
 21 22  1  0  0  0  0
 21  5  1  0  0  0  0
 23 22  1  0  0  0  0
 23 24  1  0  0  0  0
 25 30  1  6  0  0  0
 25 26  1  0  0  0  0
 26 28  1  0  0  0  0
 26 27  1  0  0  0  0
 29 30  1  0  0  0  0
M  END
>  <MODEL>
2

>  <REMARK>
 VINA RESULT:      -5.0      4.238      7.438
  Name = 
  6 active torsions:
  status: ('A' for Active; 'I' for Inactive)
    1  A    between atoms: C_2  and  C_28
    2  A    between atoms: C_6  and  P_8
    3  A    between atoms: C_6  and  C_21
    4  A    between atoms: C_9  and  C_21
    5  A    between atoms: C_19  and  C_28
    6  A    between atoms: C_28  and  C_29
                            x       y       z     vdW  Elec       q    Type
                         _______ _______ _______ _____ _____    ______ ____

>  <TORSDO>
F 6

$$$$
=
 OpenBabel10262422033D

 30 32  0  0  1  0  0  0  0  0999 V2000
  191.0190  176.3780  141.6640 C   0  0  0  0  0  2  0  0  0  0  0  0
  189.5850  176.7880  141.2980 C   0  0  2  0  0  3  0  0  0  0  0  0
  192.1220  178.9040  144.3570 C   0  0  0  0  0  1  0  0  0  0  0  0
  185.1380  179.1000  140.1710 C   0  0  0  0  0  2  0  0  0  0  0  0
  188.5110  177.8580  138.9970 P   0  0  1  0  0  4  0  0  0  0  0  0
  187.1470  177.0190  142.0880 C   0  0  0  0  0  2  0  0  0  0  0  0
  189.2090  179.0080  143.2590 O   0  0  0  0  0  1  0  0  0  0  0  0
  188.6800  179.5370  137.7850 Cl  0  0  0  0  0  0  0  0  0  0  0  0
  189.5760  178.0650  140.4570 C   0  0  0  0  0  2  0  0  0  0  0  0
  186.7960  178.4770  141.7740 C   0  0  2  0  0  3  0  0  0  0  0  0
  184.4820  178.6920  141.3420 O   0  0  0  0  0  0  0  0  0  0  0  0
  191.7840  177.5180  142.3370 C   0  0  0  0  0  2  0  0  0  0  0  0
  190.2670  177.1520  144.4070 C   0  0  2  0  0  3  0  0  0  0  0  0
  191.6600  177.5450  143.8610 C   0  0  2  0  0  3  0  0  0  0  0  0
  188.6080  175.4390  142.9870 O   0  0  0  0  0  1  0  0  0  0  0  0
  189.0300  177.6820  143.6660 C   0  0  2  0  0  3  0  0  0  0  0  0
  188.6060  176.7510  142.5040 C   0  0  1  0  0  0  0  0  0  0  0  0
  185.4410  178.7940  142.3600 C   0  0  0  0  0  2  0  0  0  0  0  0
  186.8990  177.6510  139.4850 O   0  0  0  0  0  0  0  0  0  0  0  0
  186.6040  178.7580  140.2930 C   0  0  1  0  0  3  0  0  0  0  0  0
  189.0500  176.4000  138.0610 C   0  0  0  0  0  2  0  0  0  0  0  0
  190.4850  176.5780  137.6160 C   0  0  0  0  0  2  0  0  0  0  0  0
  191.2720  175.3250  137.9340 C   0  0  0  0  0  2  0  0  0  0  0  0
  190.6530  174.1440  137.2160 C   0  0  0  0  0  1  0  0  0  0  0  0
  190.0980  177.0840  145.9360 C   0  0  1  0  0  3  0  0  0  0  0  0
  191.4470  176.9700  146.6470 C   0  0  0  0  0  3  0  0  0  0  0  0
  191.8440  175.6330  146.7100 O   0  0  0  0  0  1  0  0  0  0  0  0
  191.3510  177.4780  147.9430 O   0  0  0  0  0  1  0  0  0  0  0  0
  188.1220  177.7820  147.0990 O   0  0  0  0  0  1  0  0  0  0  0  0
  189.2870  178.2520  146.4930 C   0  0  0  0  0  2  0  0  0  0  0  0
  1 12  1  0  0  0  0
  2  9  1  1  0  0  0
  2  1  1  0  0  0  0
  2 17  1  0  0  0  0
  4 11  1  0  0  0  0
  5  8  1  6  0  0  0
  5 19  1  0  0  0  0
  5  9  1  0  0  0  0
  6 17  1  0  0  0  0
 10  6  1  6  0  0  0
 10 18  1  0  0  0  0
 11 18  1  0  0  0  0
 12 14  1  0  0  0  0
 13 25  1  1  0  0  0
 14  3  1  6  0  0  0
 14 13  1  0  0  0  0
 16  7  1  6  0  0  0
 16 13  1  0  0  0  0
 17 15  1  1  0  0  0
 17 16  1  0  0  0  0
 19 20  1  0  0  0  0
 20  4  1  1  0  0  0
 20 10  1  0  0  0  0
 21  5  1  0  0  0  0
 22 23  1  0  0  0  0
 22 21  1  0  0  0  0
 24 23  1  0  0  0  0
 25 30  1  1  0  0  0
 25 26  1  0  0  0  0
 26 27  1  0  0  0  0
 26 28  1  0  0  0  0
 30 29  1  0  0  0  0
M  END
>  <MODEL>
3

>  <REMARK>
 VINA RESULT:      -4.6      0.609      1.560
  Name = 
  6 active torsions:
  status: ('A' for Active; 'I' for Inactive)
    1  A    between atoms: C_2  and  C_28
    2  A    between atoms: C_6  and  P_8
    3  A    between atoms: C_6  and  C_21
    4  A    between atoms: C_9  and  C_21
    5  A    between atoms: C_19  and  C_28
    6  A    between atoms: C_28  and  C_29
                            x       y       z     vdW  Elec       q    Type
                         _______ _______ _______ _____ _____    ______ ____

>  <TORSDO>
F 6

$$$$
=
 OpenBabel10262422033D

 30 32  0  0  1  0  0  0  0  0999 V2000
  184.2830  179.3000  139.3600 C   0  0  0  0  0  2  0  0  0  0  0  0
  184.1660  177.8850  138.7740 C   0  0  2  0  0  3  0  0  0  0  0  0
  180.9020  180.9810  138.5930 C   0  0  0  0  0  1  0  0  0  0  0  0
  183.2770  173.6090  136.0690 C   0  0  0  0  0  2  0  0  0  0  0  0
  185.4270  176.6660  136.6490 P   0  0  1  0  0  4  0  0  0  0  0  0
  182.9950  175.5970  138.8990 C   0  0  0  0  0  2  0  0  0  0  0  0
  181.3300  177.9860  137.8500 O   0  0  0  0  0  1  0  0  0  0  0  0
  185.6500  176.8690  134.5940 Cl  0  0  0  0  0  0  0  0  0  0  0  0
  184.2460  177.9130  137.2480 C   0  0  0  0  0  2  0  0  0  0  0  0
  182.4810  175.3700  137.4740 C   0  0  2  0  0  3  0  0  0  0  0  0
  182.3780  173.0580  136.9940 O   0  0  0  0  0  0  0  0  0  0  0  0
  183.2620  180.2570  138.7470 C   0  0  0  0  0  2  0  0  0  0  0  0
  181.4400  178.9670  140.0650 C   0  0  2  0  0  3  0  0  0  0  0  0
  181.9290  180.3200  139.4950 C   0  0  2  0  0  3  0  0  0  0  0  0
  183.2440  176.9760  140.7630 O   0  0  0  0  0  1  0  0  0  0  0  0
  181.6140  177.7150  139.1920 C   0  0  2  0  0  3  0  0  0  0  0  0
  183.0020  177.0580  139.3890 C   0  0  1  0  0  0  0  0  0  0  0  0
  181.6100  174.1360  137.4550 C   0  0  0  0  0  2  0  0  0  0  0  0
  184.8600  175.1110  137.0230 O   0  0  0  0  0  0  0  0  0  0  0  0
  183.5740  175.0350  136.4720 C   0  0  1  0  0  3  0  0  0  0  0  0
  187.0360  176.9300  137.4460 C   0  0  0  0  0  2  0  0  0  0  0  0
  187.4430  178.3810  137.3100 C   0  0  0  0  0  2  0  0  0  0  0  0
  188.8410  178.5660  137.8600 C   0  0  0  0  0  2  0  0  0  0  0  0
  189.7000  177.3830  137.4660 C   0  0  0  0  0  1  0  0  0  0  0  0
  180.1440  178.9750  140.8950 C   0  0  1  0  0  3  0  0  0  0  0  0
  179.9140  177.6330  141.5920 C   0  0  0  0  0  3  0  0  0  0  0  0
  178.9330  176.9050  140.9160 O   0  0  0  0  0  1  0  0  0  0  0  0
  179.5020  177.8400  142.9090 O   0  0  0  0  0  1  0  0  0  0  0  0
  179.1520  181.0710  141.4990 O   0  0  0  0  0  1  0  0  0  0  0  0
  180.0940  180.1240  141.9000 C   0  0  0  0  0  2  0  0  0  0  0  0
  2  9  1  6  0  0  0
  2  1  1  0  0  0  0
  2 17  1  0  0  0  0
  4 11  1  0  0  0  0
  5  8  1  6  0  0  0
  5 19  1  0  0  0  0
  5  9  1  0  0  0  0
  5 21  1  0  0  0  0
  6 17  1  0  0  0  0
 10 18  1  1  0  0  0
 10  6  1  0  0  0  0
 11 18  1  0  0  0  0
 12  1  1  0  0  0  0
 12 14  1  0  0  0  0
 13 25  1  6  0  0  0
 14  3  1  6  0  0  0
 14 13  1  0  0  0  0
 16  7  1  6  0  0  0
 16 17  1  0  0  0  0
 16 13  1  0  0  0  0
 17 15  1  1  0  0  0
 20  4  1  1  0  0  0
 20 19  1  0  0  0  0
 20 10  1  0  0  0  0
 22 21  1  0  0  0  0
 22 23  1  0  0  0  0
 24 23  1  0  0  0  0
 25 26  1  0  0  0  0
 25 30  1  1  0  0  0
 26 28  1  0  0  0  0
 27 26  1  0  0  0  0
 29 30  1  0  0  0  0
M  END
>  <MODEL>
4

>  <REMARK>
 VINA RESULT:      -4.3      5.696      8.251
  Name = 
  6 active torsions:
  status: ('A' for Active; 'I' for Inactive)
    1  A    between atoms: C_2  and  C_28
    2  A    between atoms: C_6  and  P_8
    3  A    between atoms: C_6  and  C_21
    4  A    between atoms: C_9  and  C_21
    5  A    between atoms: C_19  and  C_28
    6  A    between atoms: C_28  and  C_29
                            x       y       z     vdW  Elec       q    Type
                         _______ _______ _______ _____ _____    ______ ____

>  <TORSDO>
F 6

$$$$
=
 OpenBabel10262422033D

 30 32  0  0  1  0  0  0  0  0999 V2000
  187.2770  177.3530  145.5440 C   0  0  0  0  0  2  0  0  0  0  0  0
  188.3450  177.1560  144.4580 C   0  0  2  0  0  3  0  0  0  0  0  0
  185.0800  180.2500  144.2690 C   0  0  0  0  0  1  0  0  0  0  0  0
  191.9020  177.5030  140.7670 C   0  0  0  0  0  2  0  0  0  0  0  0
  191.0640  177.6010  144.4540 P   0  0  1  0  0  4  0  0  0  0  0  0
  188.8390  176.4680  142.0280 C   0  0  0  0  0  2  0  0  0  0  0  0
  187.3760  179.1600  142.4690 O   0  0  0  0  0  1  0  0  0  0  0  0
  192.4310  179.1450  144.6980 Cl  0  0  0  0  0  0  0  0  0  0  0  0
  189.3780  178.2820  144.4920 C   0  0  0  0  0  2  0  0  0  0  0  0
  189.6220  177.6570  141.4620 C   0  0  2  0  0  3  0  0  0  0  0  0
  191.1000  176.9370  139.7640 O   0  0  0  0  0  0  0  0  0  0  0  0
  186.6280  178.7340  145.4610 C   0  0  0  0  0  2  0  0  0  0  0  0
  185.4610  177.9230  143.2930 C   0  0  2  0  0  3  0  0  0  0  0  0
  185.3860  178.7940  144.5700 C   0  0  2  0  0  3  0  0  0  0  0  0
  187.0190  175.6270  143.2190 O   0  0  0  0  0  1  0  0  0  0  0  0
  186.7880  177.8920  142.5210 C   0  0  2  0  0  3  0  0  0  0  0  0
  187.7510  176.8080  143.0640 C   0  0  1  0  0  0  0  0  0  0  0  0
  189.8160  177.4580  139.9780 C   0  0  0  0  0  2  0  0  0  0  0  0
  191.3330  176.8130  142.9750 O   0  0  0  0  0  0  0  0  0  0  0  0
  191.0440  177.7620  141.9840 C   0  0  1  0  0  3  0  0  0  0  0  0
  191.2650  176.4150  145.8130 C   0  0  0  0  0  2  0  0  0  0  0  0
  191.1730  177.1370  147.1400 C   0  0  0  0  0  2  0  0  0  0  0  0
  189.8090  176.8980  147.7510 C   0  0  0  0  0  2  0  0  0  0  0  0
  189.3250  178.1700  148.4160 C   0  0  0  0  0  1  0  0  0  0  0  0
  184.2130  177.8780  142.3920 C   0  0  1  0  0  3  0  0  0  0  0  0
  183.1100  178.8010  142.9120 C   0  0  0  0  0  3  0  0  0  0  0  0
  182.5250  178.2530  144.0550 O   0  0  0  0  0  1  0  0  0  0  0  0
  182.1270  178.9720  141.9350 O   0  0  0  0  0  1  0  0  0  0  0  0
  184.7420  179.5480  140.7560 O   0  0  0  0  0  1  0  0  0  0  0  0
  184.5300  178.1800  140.9290 C   0  0  0  0  0  2  0  0  0  0  0  0
  2  9  1  6  0  0  0
  2  1  1  0  0  0  0
  5  9  1  0  0  0  0
  5  8  1  1  0  0  0
  5 21  1  0  0  0  0
  6 17  1  0  0  0  0
 10 18  1  6  0  0  0
 10 20  1  0  0  0  0
 10  6  1  0  0  0  0
 11 18  1  0  0  0  0
 11  4  1  0  0  0  0
 12  1  1  0  0  0  0
 13 25  1  6  0  0  0
 13 14  1  0  0  0  0
 14  3  1  6  0  0  0
 14 12  1  0  0  0  0
 16  7  1  1  0  0  0
 16 17  1  0  0  0  0
 16 13  1  0  0  0  0
 17 15  1  1  0  0  0
 17  2  1  0  0  0  0
 19  5  1  0  0  0  0
 20  4  1  6  0  0  0
 20 19  1  0  0  0  0
 21 22  1  0  0  0  0
 22 23  1  0  0  0  0
 23 24  1  0  0  0  0
 25 30  1  6  0  0  0
 25 26  1  0  0  0  0
 26 27  1  0  0  0  0
 28 26  1  0  0  0  0
 29 30  1  0  0  0  0
M  END
>  <MODEL>
5

>  <REMARK>
 VINA RESULT:      -4.3      2.856      6.494
  Name = 
  6 active torsions:
  status: ('A' for Active; 'I' for Inactive)
    1  A    between atoms: C_2  and  C_28
    2  A    between atoms: C_6  and  P_8
    3  A    between atoms: C_6  and  C_21
    4  A    between atoms: C_9  and  C_21
    5  A    between atoms: C_19  and  C_28
    6  A    between atoms: C_28  and  C_29
                            x       y       z     vdW  Elec       q    Type
                         _______ _______ _______ _____ _____    ______ ____

>  <TORSDO>
F 6

$$$$
=
 OpenBabel10262422033D

 30 32  0  0  1  0  0  0  0  0999 V2000
  180.6570  176.2070  137.8410 C   0  0  0  0  0  2  0  0  0  0  0  0
  182.1060  176.2330  137.3310 C   0  0  2  0  0  3  0  0  0  0  0  0
  180.7870  177.8900  141.3040 C   0  0  0  0  0  1  0  0  0  0  0  0
  187.1880  176.1220  136.5880 C   0  0  0  0  0  2  0  0  0  0  0  0
  183.9340  174.2190  136.8900 P   0  0  1  0  0  4  0  0  0  0  0  0
  184.0880  177.6810  136.5600 C   0  0  0  0  0  2  0  0  0  0  0  0
  183.3700  177.7510  139.5690 O   0  0  0  0  0  1  0  0  0  0  0  0
  184.9360  172.7170  137.9180 Cl  0  0  0  0  0  0  0  0  0  0  0  0
  182.9660  175.2090  138.0700 C   0  0  0  0  0  2  0  0  0  0  0  0
  185.2470  177.2180  137.4480 C   0  0  2  0  0  3  0  0  0  0  0  0
  187.3070  177.4940  136.3220 O   0  0  0  0  0  0  0  0  0  0  0  0
  180.5820  176.3790  139.3570 C   0  0  0  0  0  2  0  0  0  0  0  0
  181.2860  178.8470  138.9920 C   0  0  2  0  0  3  0  0  0  0  0  0
  180.4640  177.8310  139.8220 C   0  0  2  0  0  3  0  0  0  0  0  0
  181.8720  178.3670  136.3220 O   0  0  0  0  0  1  0  0  0  0  0  0
  182.7000  178.4390  138.5530 C   0  0  2  0  0  3  0  0  0  0  0  0
  182.6920  177.6670  137.2110 C   0  0  1  0  0  0  0  0  0  0  0  0
  186.4340  178.1240  137.2190 C   0  0  0  0  0  2  0  0  0  0  0  0
  185.0460  175.2130  136.0810 O   0  0  0  0  0  0  0  0  0  0  0  0
  185.7890  175.8450  137.0870 C   0  0  1  0  0  3  0  0  0  0  0  0
  182.8130  173.4590  135.6820 C   0  0  0  0  0  2  0  0  0  0  0  0
  182.1070  172.2770  136.3090 C   0  0  0  0  0  2  0  0  0  0  0  0
  180.6270  172.5710  136.4170 C   0  0  0  0  0  2  0  0  0  0  0  0
  180.2000  172.4900  137.8680 C   0  0  0  0  0  1  0  0  0  0  0  0
  181.1490  180.3360  139.3590 C   0  0  1  0  0  3  0  0  0  0  0  0
  181.6890  181.2400  138.2500 C   0  0  0  0  0  3  0  0  0  0  0  0
  182.8110  181.9380  138.7040 O   0  0  0  0  0  1  0  0  0  0  0  0
  180.7110  182.1560  137.8580 O   0  0  0  0  0  1  0  0  0  0  0  0
  179.6910  181.2920  141.0030 O   0  0  0  0  0  1  0  0  0  0  0  0
  179.7200  180.7240  139.7290 C   0  0  0  0  0  2  0  0  0  0  0  0
  1 12  1  0  0  0  0
  2  1  1  1  0  0  0
  2  9  1  0  0  0  0
  5  8  1  1  0  0  0
  5  9  1  0  0  0  0
  6 17  1  0  0  0  0
 10  6  1  6  0  0  0
 11  4  1  0  0  0  0
 11 18  1  0  0  0  0
 12 14  1  0  0  0  0
 13 25  1  1  0  0  0
 13 14  1  0  0  0  0
 14  3  1  1  0  0  0
 16 13  1  0  0  0  0
 16  7  1  1  0  0  0
 17 15  1  6  0  0  0
 17  2  1  0  0  0  0
 17 16  1  0  0  0  0
 18 10  1  0  0  0  0
 19  5  1  0  0  0  0
 19 20  1  0  0  0  0
 20  4  1  6  0  0  0
 20 10  1  0  0  0  0
 21 22  1  0  0  0  0
 21  5  1  0  0  0  0
 22 23  1  0  0  0  0
 23 24  1  0  0  0  0
 25 30  1  6  0  0  0
 26 27  1  0  0  0  0
 26 25  1  0  0  0  0
 28 26  1  0  0  0  0
 30 29  1  0  0  0  0
M  END
>  <MODEL>
6

>  <REMARK>
 VINA RESULT:      -4.3      6.836      9.533
  Name = 
  6 active torsions:
  status: ('A' for Active; 'I' for Inactive)
    1  A    between atoms: C_2  and  C_28
    2  A    between atoms: C_6  and  P_8
    3  A    between atoms: C_6  and  C_21
    4  A    between atoms: C_9  and  C_21
    5  A    between atoms: C_19  and  C_28
    6  A    between atoms: C_28  and  C_29
                            x       y       z     vdW  Elec       q    Type
                         _______ _______ _______ _____ _____    ______ ____

>  <TORSDO>
F 6

$$$$
=
 OpenBabel10262422033D

 30 32  0  0  1  0  0  0  0  0999 V2000
  182.1040  175.0210  136.3080 C   0  0  0  0  0  2  0  0  0  0  0  0
  183.5860  175.4120  136.2130 C   0  0  2  0  0  3  0  0  0  0  0  0
  180.8950  176.5010  139.6540 C   0  0  0  0  0  1  0  0  0  0  0  0
  188.5550  176.5300  136.8850 C   0  0  0  0  0  2  0  0  0  0  0  0
  185.8920  173.9070  136.3130 P   0  0  1  0  0  4  0  0  0  0  0  0
  185.2970  177.3210  135.9930 C   0  0  0  0  0  2  0  0  0  0  0  0
  183.8040  177.0620  138.6910 O   0  0  0  0  0  1  0  0  0  0  0  0
  186.9120  172.6280  137.5940 Cl  0  0  0  0  0  0  0  0  0  0  0  0
  184.4370  174.5790  137.1720 C   0  0  0  0  0  2  0  0  0  0  0  0
  186.2520  177.0960  137.1690 C   0  0  2  0  0  3  0  0  0  0  0  0
  188.4100  177.9050  136.6430 O   0  0  0  0  0  0  0  0  0  0  0  0
  181.5880  175.0900  137.7450 C   0  0  0  0  0  2  0  0  0  0  0  0
  181.7510  177.6700  137.5540 C   0  0  2  0  0  3  0  0  0  0  0  0
  181.0050  176.4480  138.1410 C   0  0  2  0  0  3  0  0  0  0  0  0
  183.1270  177.4830  135.1510 O   0  0  0  0  0  1  0  0  0  0  0  0
  183.2860  177.6280  137.5220 C   0  0  2  0  0  3  0  0  0  0  0  0
  183.8220  176.9480  136.2390 C   0  0  1  0  0  0  0  0  0  0  0  0
  187.2040  178.2650  137.2610 C   0  0  0  0  0  2  0  0  0  0  0  0
  186.9090  175.1750  135.8250 O   0  0  0  0  0  0  0  0  0  0  0  0
  187.1820  175.9090  136.9870 C   0  0  1  0  0  3  0  0  0  0  0  0
  185.3510  172.9720  134.8540 C   0  0  0  0  0  2  0  0  0  0  0  0
  184.9620  171.5670  135.2610 C   0  0  0  0  0  2  0  0  0  0  0  0
  183.4590  171.4830  135.4110 C   0  0  0  0  0  2  0  0  0  0  0  0
  183.1130  171.1390  136.8440 C   0  0  0  0  0  1  0  0  0  0  0  0
  181.1700  179.0640  137.8500 C   0  0  1  0  0  3  0  0  0  0  0  0
  182.1380  179.9140  138.6750 C   0  0  0  0  0  3  0  0  0  0  0  0
  181.8810  179.7470  140.0370 O   0  0  0  0  0  1  0  0  0  0  0  0
  181.9930  181.2630  138.3460 O   0  0  0  0  0  1  0  0  0  0  0  0
  180.1500  178.9150  135.6870 O   0  0  0  0  0  1  0  0  0  0  0  0
  180.7380  179.8050  136.5870 C   0  0  0  0  0  2  0  0  0  0  0  0
  1 12  1  0  0  0  0
  2 17  1  0  0  0  0
  2  1  1  1  0  0  0
  2  9  1  0  0  0  0
  5  9  1  0  0  0  0
  5  8  1  1  0  0  0
  6 17  1  0  0  0  0
 10  6  1  6  0  0  0
 10 18  1  0  0  0  0
 11  4  1  0  0  0  0
 11 18  1  0  0  0  0
 12 14  1  0  0  0  0
 13 25  1  1  0  0  0
 13 14  1  0  0  0  0
 14  3  1  1  0  0  0
 16 13  1  0  0  0  0
 16  7  1  1  0  0  0
 17 15  1  6  0  0  0
 17 16  1  0  0  0  0
 19  5  1  0  0  0  0
 19 20  1  0  0  0  0
 20  4  1  6  0  0  0
 20 10  1  0  0  0  0
 21 22  1  0  0  0  0
 21  5  1  0  0  0  0
 22 23  1  0  0  0  0
 23 24  1  0  0  0  0
 25 30  1  6  0  0  0
 25 26  1  0  0  0  0
 26 27  1  0  0  0  0
 28 26  1  0  0  0  0
 29 30  1  0  0  0  0
M  END
>  <MODEL>
7

>  <REMARK>
 VINA RESULT:      -4.2      6.536      9.344
  Name = 
  6 active torsions:
  status: ('A' for Active; 'I' for Inactive)
    1  A    between atoms: C_2  and  C_28
    2  A    between atoms: C_6  and  P_8
    3  A    between atoms: C_6  and  C_21
    4  A    between atoms: C_9  and  C_21
    5  A    between atoms: C_19  and  C_28
    6  A    between atoms: C_28  and  C_29
                            x       y       z     vdW  Elec       q    Type
                         _______ _______ _______ _____ _____    ______ ____

>  <TORSDO>
F 6

$$$$
=
 OpenBabel10262422033D

 30 32  0  0  1  0  0  0  0  0999 V2000
  185.2060  175.1430  135.1070 C   0  0  0  0  0  2  0  0  0  0  0  0
  184.9870  176.2630  136.1350 C   0  0  2  0  0  3  0  0  0  0  0  0
  183.9020  171.9470  136.8190 C   0  0  0  0  0  1  0  0  0  0  0  0
  184.5270  179.3100  140.2450 C   0  0  0  0  0  2  0  0  0  0  0  0
  186.7560  177.7880  137.5960 P   0  0  1  0  0  4  0  0  0  0  0  0
  183.2800  177.6620  137.4590 C   0  0  0  0  0  2  0  0  0  0  0  0
  183.6040  174.6910  138.2630 O   0  0  0  0  0  1  0  0  0  0  0  0
  188.2560  177.5740  139.0170 Cl  0  0  0  0  0  0  0  0  0  0  0  0
  185.9970  176.1660  137.2780 C   0  0  0  0  0  2  0  0  0  0  0  0
  183.7210  177.4960  138.9160 C   0  0  2  0  0  3  0  0  0  0  0  0
  183.1290  179.4060  140.1770 O   0  0  0  0  0  0  0  0  0  0  0  0
  185.2070  173.7620  135.7600 C   0  0  0  0  0  2  0  0  0  0  0  0
  182.6580  174.0630  136.1210 C   0  0  2  0  0  3  0  0  0  0  0  0
  183.8310  173.0970  135.8300 C   0  0  2  0  0  3  0  0  0  0  0  0
  182.7880  176.7330  135.3760 O   0  0  0  0  0  1  0  0  0  0  0  0
  182.8770  175.1660  137.1670 C   0  0  2  0  0  3  0  0  0  0  0  0
  183.4980  176.4410  136.5440 C   0  0  1  0  0  0  0  0  0  0  0  0
  182.6860  178.1250  139.8190 C   0  0  0  0  0  2  0  0  0  0  0  0
  185.5780  178.8750  138.1530 O   0  0  0  0  0  0  0  0  0  0  0  0
  184.9890  178.2580  139.2650 C   0  0  1  0  0  3  0  0  0  0  0  0
  187.4850  178.4230  136.0610 C   0  0  0  0  0  2  0  0  0  0  0  0
  188.9250  177.9720  135.9520 C   0  0  0  0  0  2  0  0  0  0  0  0
  189.0530  176.9560  134.8380 C   0  0  0  0  0  2  0  0  0  0  0  0
  189.0640  175.5610  135.4260 C   0  0  0  0  0  1  0  0  0  0  0  0
  181.2370  173.4700  136.1270 C   0  0  1  0  0  3  0  0  0  0  0  0
  180.2450  174.3920  136.8370 C   0  0  0  0  0  3  0  0  0  0  0  0
  179.6900  173.7410  137.9400 O   0  0  0  0  0  1  0  0  0  0  0  0
  179.2210  174.7600  135.9620 O   0  0  0  0  0  1  0  0  0  0  0  0
  180.6210  171.7280  134.6000 O   0  0  0  0  0  1  0  0  0  0  0  0
  180.7410  173.1120  134.7280 C   0  0  0  0  0  2  0  0  0  0  0  0
  1 12  1  0  0  0  0
  2  1  1  1  0  0  0
  2 17  1  0  0  0  0
  2  9  1  0  0  0  0
  5 19  1  0  0  0  0
  5  8  1  1  0  0  0
  9  5  1  0  0  0  0
 10  6  1  6  0  0  0
 10 20  1  0  0  0  0
 10 18  1  0  0  0  0
 11  4  1  0  0  0  0
 12 14  1  0  0  0  0
 13 25  1  1  0  0  0
 13 16  1  0  0  0  0
 14 13  1  0  0  0  0
 14  3  1  1  0  0  0
 16  7  1  1  0  0  0
 17 15  1  6  0  0  0
 17 16  1  0  0  0  0
 17  6  1  0  0  0  0
 18 11  1  0  0  0  0
 19 20  1  0  0  0  0
 20  4  1  1  0  0  0
 21  5  1  0  0  0  0
 22 21  1  0  0  0  0
 23 24  1  0  0  0  0
 23 22  1  0  0  0  0
 25 30  1  6  0  0  0
 25 26  1  0  0  0  0
 26 27  1  0  0  0  0
 28 26  1  0  0  0  0
 29 30  1  0  0  0  0
M  END
>  <MODEL>
8

>  <REMARK>
 VINA RESULT:      -4.1      5.996      9.161
  Name = 
  6 active torsions:
  status: ('A' for Active; 'I' for Inactive)
    1  A    between atoms: C_2  and  C_28
    2  A    between atoms: C_6  and  P_8
    3  A    between atoms: C_6  and  C_21
    4  A    between atoms: C_9  and  C_21
    5  A    between atoms: C_19  and  C_28
    6  A    between atoms: C_28  and  C_29
                            x       y       z     vdW  Elec       q    Type
                         _______ _______ _______ _____ _____    ______ ____

>  <TORSDO>
F 6

$$$$
=
 OpenBabel10262422033D

 30 32  0  0  1  0  0  0  0  0999 V2000
  181.9750  177.7180  137.0960 C   0  0  0  0  0  2  0  0  0  0  0  0
  183.3340  178.0630  137.7220 C   0  0  2  0  0  3  0  0  0  0  0  0
  180.0370  175.8730  139.8690 C   0  0  0  0  0  1  0  0  0  0  0  0
  187.8000  178.3100  140.2500 C   0  0  0  0  0  2  0  0  0  0  0  0
  185.8810  177.1470  137.2060 P   0  0  1  0  0  4  0  0  0  0  0  0
  184.5950  179.4160  139.5110 C   0  0  0  0  0  2  0  0  0  0  0  0
  182.8520  177.0540  140.4900 O   0  0  0  0  0  1  0  0  0  0  0  0
  186.9790  175.3840  137.2180 Cl  0  0  0  0  0  0  0  0  0  0  0  0
  184.2130  176.8190  137.8510 C   0  0  0  0  0  2  0  0  0  0  0  0
  185.4120  178.3600  140.2620 C   0  0  2  0  0  3  0  0  0  0  0  0
  187.3890  179.3160  141.1370 O   0  0  0  0  0  0  0  0  0  0  0  0
  181.2710  176.5900  137.8480 C   0  0  0  0  0  2  0  0  0  0  0  0
  180.8850  178.2780  139.7760 C   0  0  2  0  0  3  0  0  0  0  0  0
  180.3560  177.0620  138.9790 C   0  0  2  0  0  3  0  0  0  0  0  0
  182.5750  180.1350  138.5940 O   0  0  0  0  0  1  0  0  0  0  0  0
  182.3820  178.3170  140.1190 C   0  0  2  0  0  3  0  0  0  0  0  0
  183.2200  178.9590  138.9870 C   0  0  1  0  0  0  0  0  0  0  0  0
  186.0620  179.0030  141.4640 C   0  0  0  0  0  2  0  0  0  0  0  0
  186.6490  178.3180  138.1650 O   0  0  0  0  0  0  0  0  0  0  0  0
  186.5960  177.8250  139.4760 C   0  0  1  0  0  3  0  0  0  0  0  0
  185.7580  177.7530  135.4990 C   0  0  0  0  0  2  0  0  0  0  0  0
  186.8730  177.1620  134.6640 C   0  0  0  0  0  2  0  0  0  0  0  0
  188.1690  177.8780  134.9740 C   0  0  0  0  0  2  0  0  0  0  0  0
  189.3220  176.9000  134.8760 C   0  0  0  0  0  1  0  0  0  0  0  0
  179.9760  178.8530  140.8790 C   0  0  1  0  0  3  0  0  0  0  0  0
  180.7720  179.2050  142.1370 C   0  0  0  0  0  3  0  0  0  0  0  0
  180.4970  178.2860  143.1510 O   0  0  0  0  0  1  0  0  0  0  0  0
  180.4300  180.4850  142.5770 O   0  0  0  0  0  1  0  0  0  0  0  0
  179.3880  180.2820  139.0480 O   0  0  0  0  0  1  0  0  0  0  0  0
  179.1540  180.0480  140.4030 C   0  0  0  0  0  2  0  0  0  0  0  0
  1 12  1  0  0  0  0
  2  1  1  1  0  0  0
  2  9  1  0  0  0  0
  2 17  1  0  0  0  0
  4 11  1  0  0  0  0
  5  8  1  1  0  0  0
  5  9  1  0  0  0  0
  5 19  1  0  0  0  0
 10  6  1  6  0  0  0
 10 18  1  0  0  0  0
 11 18  1  0  0  0  0
 12 14  1  0  0  0  0
 13 16  1  0  0  0  0
 13 25  1  1  0  0  0
 14 13  1  0  0  0  0
 14  3  1  1  0  0  0
 16  7  1  6  0  0  0
 17 15  1  6  0  0  0
 17  6  1  0  0  0  0
 17 16  1  0  0  0  0
 19 20  1  0  0  0  0
 20  4  1  1  0  0  0
 20 10  1  0  0  0  0
 21  5  1  0  0  0  0
 22 23  1  0  0  0  0
 22 21  1  0  0  0  0
 24 23  1  0  0  0  0
 25 30  1  6  0  0  0
 25 26  1  0  0  0  0
 26 28  1  0  0  0  0
 26 27  1  0  0  0  0
 29 30  1  0  0  0  0
M  END
>  <MODEL>
9

>  <REMARK>
 VINA RESULT:      -4.0      4.339      8.103
  Name = 
  6 active torsions:
  status: ('A' for Active; 'I' for Inactive)
    1  A    between atoms: C_2  and  C_28
    2  A    between atoms: C_6  and  P_8
    3  A    between atoms: C_6  and  C_21
    4  A    between atoms: C_9  and  C_21
    5  A    between atoms: C_19  and  C_28
    6  A    between atoms: C_28  and  C_29
                            x       y       z     vdW  Elec       q    Type
                         _______ _______ _______ _____ _____    ______ ____

>  <TORSDO>
F 6

$$$$
