=
 OpenBabel10262419343D

 31 35  0  0  1  0  0  0  0  0999 V2000
  189.9920  177.3090  147.1470 C   0  0  0  0  0  0  0  0  0  0  0  0
  188.5000  177.4260  143.7870 C   0  0  0  0  0  0  0  0  0  0  0  0
  187.1080  178.0030  144.0510 C   0  0  2  0  0  3  0  0  0  0  0  0
  185.3500  177.8900  145.8300 C   0  0  0  0  0  3  0  0  0  0  0  0
  189.4270  177.2090  144.8340 C   0  0  0  0  0  0  0  0  0  0  0  0
  191.2500  176.7610  146.8930 C   0  0  0  0  0  3  0  0  0  0  0  0
  186.4310  177.3660  145.2310 C   0  0  0  0  0  3  0  0  0  0  0  0
  190.1800  176.6470  142.1780 C   0  0  0  0  0  0  0  0  0  0  0  0
  189.6210  177.6430  148.4790 N   0  0  0  0  0  1  0  0  0  0  0  0
  186.8680  178.3630  141.5720 C   0  0  0  0  0  2  0  0  0  0  0  0
  184.6700  179.1950  145.4680 C   0  0  0  0  0  2  0  0  0  0  0  0
  191.0600  176.3820  143.2310 C   0  0  0  0  0  3  0  0  0  0  0  0
  188.9200  177.2030  142.4510 C   0  0  0  0  0  0  0  0  0  0  0  0
  189.1200  177.5190  146.1260 N   0  0  0  0  0  0  0  0  0  0  0  0
  184.8730  179.7110  144.0380 C   0  0  0  0  0  2  0  0  0  0  0  0
  190.7000  176.6700  144.5440 C   0  0  0  0  0  0  0  0  0  0  0  0
  191.6040  176.4420  145.5820 C   0  0  0  0  0  3  0  0  0  0  0  0
  188.0600  177.5570  141.3610 N   0  0  0  0  0  2  0  0  0  0  0  0
  186.1690  177.8830  142.8290 C   0  0  2  0  0  3  0  0  0  0  0  0
  184.8200  178.5970  142.9970 C   0  0  0  0  0  2  0  0  0  0  0  0
  192.3460  177.8800  140.6120 O   0  0  0  0  0  0  0  0  0  0  0  0
  191.6110  177.0100  140.0700 C   0  0  0  0  0  0  0  0  0  0  0  0
  190.5510  176.3890  140.8140 N   0  0  0  0  0  2  0  0  0  0  0  0
  192.3460  175.8640  136.0000 C   0  0  0  0  0  0  0  0  0  0  0  0
  193.1310  176.2630  138.2520 C   0  0  0  0  0  3  0  0  0  0  0  0
  189.5210  176.9260  138.0510 F   0  0  0  0  0  0  0  0  0  0  0  0
  192.6160  175.4660  134.5940 C   0  0  0  0  0  1  0  0  0  0  0  0
  193.3870  175.8880  136.9310 C   0  0  0  0  0  3  0  0  0  0  0  0
  190.7910  176.5920  137.7110 C   0  0  0  0  0  0  0  0  0  0  0  0
  191.8370  176.6190  138.6600 C   0  0  0  0  0  0  0  0  0  0  0  0
  191.0540  176.2160  136.3900 C   0  0  0  0  0  3  0  0  0  0  0  0
  1  9  1  0  0  0  0
  2  3  1  0  0  0  0
  2  5  1  0  0  0  0
  3  7  1  1  0  0  0
  5 14  1  0  0  0  0
  6  1  1  0  0  0  0
  7  4  2  0  0  0  0
  8 13  1  0  0  0  0
  8 12  2  0  0  0  0
 11  4  1  0  0  0  0
 12 16  1  0  0  0  0
 13  2  2  0  0  0  0
 14  1  2  0  0  0  0
 15 11  1  0  0  0  0
 16  5  2  0  0  0  0
 16 17  1  0  0  0  0
 17  6  2  0  0  0  0
 18 10  1  0  0  0  0
 18 13  1  0  0  0  0
 19 10  1  6  0  0  0
 19 20  1  0  0  0  0
 19  3  1  0  0  0  0
 20 15  1  0  0  0  0
 22 21  2  0  0  0  0
 22 23  1  0  0  0  0
 23  8  1  0  0  0  0
 24 31  2  0  0  0  0
 24 28  1  0  0  0  0
 25 30  1  0  0  0  0
 27 24  1  0  0  0  0
 28 25  2  0  0  0  0
 29 26  1  0  0  0  0
 29 30  2  0  0  0  0
 30 22  1  0  0  0  0
 31 29  1  0  0  0  0
M  END
>  <MODEL>
1

>  <REMARK>
 VINA RESULT:     -10.8      0.000      0.000
  Name = 
  2 active torsions:
  status: ('A' for Active; 'I' for Inactive)
    1  A    between atoms: C_9  and  C_22
    2  A    between atoms: C_15  and  N_23
                            x       y       z     vdW  Elec       q    Type
                         _______ _______ _______ _____ _____    ______ ____

>  <TORSDO>
F 2

$$$$
=
 OpenBabel10262419343D

 31 35  0  0  1  0  0  0  0  0999 V2000
  190.3320  177.2420  142.5260 C   0  0  0  0  0  0  0  0  0  0  0  0
  186.8300  178.3280  142.8250 C   0  0  0  0  0  0  0  0  0  0  0  0
  186.5970  178.3190  144.3360 C   0  0  2  0  0  3  0  0  0  0  0  0
  187.3120  176.9760  146.3250 C   0  0  0  0  0  3  0  0  0  0  0  0
  188.0760  177.9660  142.2610 C   0  0  0  0  0  0  0  0  0  0  0  0
  190.5220  177.2340  141.1440 C   0  0  0  0  0  3  0  0  0  0  0  0
  187.1350  177.0820  144.9990 C   0  0  0  0  0  3  0  0  0  0  0  0
  185.9850  178.8070  140.5720 C   0  0  0  0  0  0  0  0  0  0  0  0
  191.3970  176.8670  143.3910 N   0  0  0  0  0  1  0  0  0  0  0  0
  184.4670  179.6000  143.9410 C   0  0  0  0  0  2  0  0  0  0  0  0
  187.0550  178.0600  147.3530 C   0  0  0  0  0  2  0  0  0  0  0  0
  187.2030  178.3870  140.0300 C   0  0  0  0  0  3  0  0  0  0  0  0
  185.8120  178.8140  141.9660 C   0  0  0  0  0  0  0  0  0  0  0  0
  189.1300  177.6040  143.0480 N   0  0  0  0  0  0  0  0  0  0  0  0
  186.0600  179.1630  146.9660 C   0  0  0  0  0  2  0  0  0  0  0  0
  188.2440  177.9830  140.8590 C   0  0  0  0  0  0  0  0  0  0  0  0
  189.4710  177.6080  140.3080 C   0  0  0  0  0  3  0  0  0  0  0  0
  184.5950  179.3320  142.5170 N   0  0  0  0  0  2  0  0  0  0  0  0
  185.1040  178.4600  144.7130 C   0  0  2  0  0  3  0  0  0  0  0  0
  184.8450  178.6230  146.2170 C   0  0  0  0  0  2  0  0  0  0  0  0
  183.5010  177.3950  139.8630 O   0  0  0  0  0  0  0  0  0  0  0  0
  183.7100  178.5480  139.3960 C   0  0  0  0  0  0  0  0  0  0  0  0
  184.9110  179.2610  139.7310 N   0  0  0  0  0  2  0  0  0  0  0  0
  180.8320  180.4450  136.8390 C   0  0  0  0  0  0  0  0  0  0  0  0
  182.3010  180.4930  138.7600 C   0  0  0  0  0  3  0  0  0  0  0  0
  182.5390  177.2290  137.0850 F   0  0  0  0  0  0  0  0  0  0  0  0
  179.8360  181.1150  135.9630 C   0  0  0  0  0  1  0  0  0  0  0  0
  181.3650  181.1240  137.9370 C   0  0  0  0  0  3  0  0  0  0  0  0
  182.1720  178.5000  137.3850 C   0  0  0  0  0  0  0  0  0  0  0  0
  182.7160  179.1780  138.4980 C   0  0  0  0  0  0  0  0  0  0  0  0
  181.2350  179.1380  136.5660 C   0  0  0  0  0  3  0  0  0  0  0  0
  1 14  1  0  0  0  0
  1  9  1  0  0  0  0
  2  3  1  0  0  0  0
  3 19  1  0  0  0  0
  3  7  1  6  0  0  0
  4 11  1  0  0  0  0
  5  2  1  0  0  0  0
  5 14  2  0  0  0  0
  6  1  2  0  0  0  0
  7  4  2  0  0  0  0
  8 13  1  0  0  0  0
 12  8  2  0  0  0  0
 12 16  1  0  0  0  0
 13 18  1  0  0  0  0
 13  2  2  0  0  0  0
 15 11  1  0  0  0  0
 16  5  1  0  0  0  0
 17 16  2  0  0  0  0
 17  6  1  0  0  0  0
 18 10  1  0  0  0  0
 19 10  1  6  0  0  0
 19 20  1  0  0  0  0
 20 15  1  0  0  0  0
 22 23  1  0  0  0  0
 22 21  2  0  0  0  0
 23  8  1  0  0  0  0
 24 28  1  0  0  0  0
 26 29  1  0  0  0  0
 27 24  1  0  0  0  0
 28 25  2  0  0  0  0
 29 30  2  0  0  0  0
 30 25  1  0  0  0  0
 30 22  1  0  0  0  0
 31 24  2  0  0  0  0
 31 29  1  0  0  0  0
M  END
>  <MODEL>
2

>  <REMARK>
 VINA RESULT:      -9.9      4.197      6.883
  Name = 
  2 active torsions:
  status: ('A' for Active; 'I' for Inactive)
    1  A    between atoms: C_9  and  C_22
    2  A    between atoms: C_15  and  N_23
                            x       y       z     vdW  Elec       q    Type
                         _______ _______ _______ _____ _____    ______ ____

>  <TORSDO>
F 2

$$$$
=
 OpenBabel10262419343D

 31 35  0  0  1  0  0  0  0  0999 V2000
  184.1670  178.7340  144.3540 C   0  0  0  0  0  0  0  0  0  0  0  0
  187.6890  177.6870  144.1840 C   0  0  0  0  0  0  0  0  0  0  0  0
  188.0770  177.5510  145.6570 C   0  0  2  0  0  3  0  0  0  0  0  0
  187.5600  178.6760  147.8330 C   0  0  0  0  0  3  0  0  0  0  0  0
  186.3890  178.0810  143.7890 C   0  0  0  0  0  0  0  0  0  0  0  0
  183.8350  178.8760  143.0060 C   0  0  0  0  0  3  0  0  0  0  0  0
  187.6000  178.7060  146.4920 C   0  0  0  0  0  3  0  0  0  0  0  0
  188.3010  177.4480  141.8200 C   0  0  0  0  0  0  0  0  0  0  0  0
  183.1930  179.0030  145.3550 N   0  0  0  0  0  1  0  0  0  0  0  0
  190.1640  176.3530  144.9200 C   0  0  0  0  0  2  0  0  0  0  0  0
  187.9300  177.5010  148.7150 C   0  0  0  0  0  2  0  0  0  0  0  0
  187.0300  177.8980  141.4500 C   0  0  0  0  0  3  0  0  0  0  0  0
  188.6160  177.3060  143.1810 C   0  0  0  0  0  0  0  0  0  0  0  0
  185.4190  178.3440  144.7120 N   0  0  0  0  0  0  0  0  0  0  0  0
  188.8880  176.4600  148.1200 C   0  0  0  0  0  2  0  0  0  0  0  0
  186.0770  178.2000  142.4170 C   0  0  0  0  0  0  0  0  0  0  0  0
  184.7980  178.6050  142.0340 C   0  0  0  0  0  3  0  0  0  0  0  0
  189.8880  176.7580  143.5510 N   0  0  0  0  0  2  0  0  0  0  0  0
  189.6020  177.3990  145.8630 C   0  0  2  0  0  3  0  0  0  0  0  0
  190.0150  177.0930  147.3090 C   0  0  0  0  0  2  0  0  0  0  0  0
  188.8730  178.7870  139.2620 O   0  0  0  0  0  0  0  0  0  0  0  0
  189.5400  177.7670  139.5870 C   0  0  0  0  0  0  0  0  0  0  0  0
  189.2850  177.0990  140.8330 N   0  0  0  0  0  2  0  0  0  0  0  0
  192.5440  176.2610  136.9170 C   0  0  0  0  0  0  0  0  0  0  0  0
  190.2500  176.8700  137.3810 C   0  0  0  0  0  3  0  0  0  0  0  0
  192.3310  177.4820  140.3490 F   0  0  0  0  0  0  0  0  0  0  0  0
  193.5730  175.7370  135.9820 C   0  0  0  0  0  1  0  0  0  0  0  0
  191.2160  176.3780  136.5010 C   0  0  0  0  0  3  0  0  0  0  0  0
  191.9410  177.1290  139.0990 C   0  0  0  0  0  0  0  0  0  0  0  0
  190.5960  177.2510  138.6870 C   0  0  0  0  0  0  0  0  0  0  0  0
  192.9030  176.6350  138.2130 C   0  0  0  0  0  3  0  0  0  0  0  0
  1 14  1  0  0  0  0
  1  9  1  0  0  0  0
  2  3  1  0  0  0  0
  3 19  1  0  0  0  0
  3  7  1  1  0  0  0
  4 11  1  0  0  0  0
  5  2  1  0  0  0  0
  5 14  2  0  0  0  0
  6  1  2  0  0  0  0
  7  4  2  0  0  0  0
  8 13  1  0  0  0  0
 12  8  2  0  0  0  0
 12 16  1  0  0  0  0
 13 18  1  0  0  0  0
 13  2  2  0  0  0  0
 15 11  1  0  0  0  0
 16  5  1  0  0  0  0
 17 16  2  0  0  0  0
 17  6  1  0  0  0  0
 18 10  1  0  0  0  0
 19 10  1  6  0  0  0
 19 20  1  0  0  0  0
 20 15  1  0  0  0  0
 21 22  2  0  0  0  0
 22 23  1  0  0  0  0
 23  8  1  0  0  0  0
 24 31  1  0  0  0  0
 25 30  2  0  0  0  0
 27 24  1  0  0  0  0
 28 24  2  0  0  0  0
 28 25  1  0  0  0  0
 29 26  1  0  0  0  0
 30 29  1  0  0  0  0
 30 22  1  0  0  0  0
 31 29  2  0  0  0  0
M  END
>  <MODEL>
3

>  <REMARK>
 VINA RESULT:      -9.6      2.088      4.302
  Name = 
  2 active torsions:
  status: ('A' for Active; 'I' for Inactive)
    1  A    between atoms: C_9  and  C_22
    2  A    between atoms: C_15  and  N_23
                            x       y       z     vdW  Elec       q    Type
                         _______ _______ _______ _____ _____    ______ ____

>  <TORSDO>
F 2

$$$$
=
 OpenBabel10262419343D

 31 35  0  0  1  0  0  0  0  0999 V2000
  187.2750  177.8090  136.0130 C   0  0  0  0  0  0  0  0  0  0  0  0
  189.6780  177.2300  138.7380 C   0  0  0  0  0  0  0  0  0  0  0  0
  190.9390  176.7920  137.9940 C   0  0  2  0  0  3  0  0  0  0  0  0
  191.5360  175.4720  135.9520 C   0  0  0  0  0  3  0  0  0  0  0  0
  188.4840  177.5590  138.0520 C   0  0  0  0  0  0  0  0  0  0  0  0
  186.1250  178.1860  136.7090 C   0  0  0  0  0  3  0  0  0  0  0  0
  190.6570  175.7830  136.9170 C   0  0  0  0  0  3  0  0  0  0  0  0
  188.5780  177.7940  140.8580 C   0  0  0  0  0  0  0  0  0  0  0  0
  187.2530  177.7360  134.5940 N   0  0  0  0  0  1  0  0  0  0  0  0
  192.2240  177.1140  140.1340 C   0  0  0  0  0  2  0  0  0  0  0  0
  192.9040  176.0920  135.7520 C   0  0  0  0  0  2  0  0  0  0  0  0
  187.3900  178.0550  140.1680 C   0  0  0  0  0  3  0  0  0  0  0  0
  189.7280  177.4210  140.1420 C   0  0  0  0  0  0  0  0  0  0  0  0
  188.4140  177.5090  136.6910 N   0  0  0  0  0  0  0  0  0  0  0  0
  193.5630  176.7310  136.9820 C   0  0  0  0  0  2  0  0  0  0  0  0
  187.3410  177.9530  138.7820 C   0  0  0  0  0  0  0  0  0  0  0  0
  186.1610  178.2590  138.1010 C   0  0  0  0  0  3  0  0  0  0  0  0
  190.9630  177.2450  140.8460 N   0  0  0  0  0  2  0  0  0  0  0  0
  192.0170  176.2070  138.9360 C   0  0  2  0  0  3  0  0  0  0  0  0
  193.3590  175.9110  138.2520 C   0  0  0  0  0  2  0  0  0  0  0  0
  188.2780  175.7020  142.9060 O   0  0  0  0  0  0  0  0  0  0  0  0
  188.4990  176.8900  143.2660 C   0  0  0  0  0  0  0  0  0  0  0  0
  188.6550  177.9290  142.2870 N   0  0  0  0  0  2  0  0  0  0  0  0
  188.7140  177.8760  147.4380 C   0  0  0  0  0  0  0  0  0  0  0  0
  187.4430  177.6090  145.3980 C   0  0  0  0  0  3  0  0  0  0  0  0
  190.9770  176.8050  144.7830 F   0  0  0  0  0  0  0  0  0  0  0  0
  188.7730  178.2210  148.8820 C   0  0  0  0  0  1  0  0  0  0  0  0
  187.4970  177.9340  146.7550 C   0  0  0  0  0  3  0  0  0  0  0  0
  189.8270  177.1700  145.4030 C   0  0  0  0  0  0  0  0  0  0  0  0
  188.6010  177.2250  144.7050 C   0  0  0  0  0  0  0  0  0  0  0  0
  189.8740  177.4960  146.7630 C   0  0  0  0  0  3  0  0  0  0  0  0
  1 14  2  0  0  0  0
  1  6  1  0  0  0  0
  2 13  1  0  0  0  0
  3  7  1  6  0  0  0
  3  2  1  0  0  0  0
  3 19  1  0  0  0  0
  4  7  2  0  0  0  0
  5  2  2  0  0  0  0
  5 16  1  0  0  0  0
  6 17  2  0  0  0  0
  8 23  1  0  0  0  0
  9  1  1  0  0  0  0
 10 18  1  0  0  0  0
 11  4  1  0  0  0  0
 11 15  1  0  0  0  0
 12  8  1  0  0  0  0
 13 18  1  0  0  0  0
 13  8  2  0  0  0  0
 14  5  1  0  0  0  0
 15 20  1  0  0  0  0
 16 12  2  0  0  0  0
 17 16  1  0  0  0  0
 19 20  1  6  0  0  0
 19 10  1  0  0  0  0
 21 22  2  0  0  0  0
 22 30  1  0  0  0  0
 23 22  1  0  0  0  0
 24 27  1  0  0  0  0
 25 28  1  0  0  0  0
 26 29  1  0  0  0  0
 28 24  2  0  0  0  0
 29 31  2  0  0  0  0
 30 25  2  0  0  0  0
 30 29  1  0  0  0  0
 31 24  1  0  0  0  0
M  END
>  <MODEL>
4

>  <REMARK>
 VINA RESULT:      -9.5      2.796      8.979
  Name = 
  2 active torsions:
  status: ('A' for Active; 'I' for Inactive)
    1  A    between atoms: C_9  and  C_22
    2  A    between atoms: C_15  and  N_23
                            x       y       z     vdW  Elec       q    Type
                         _______ _______ _______ _____ _____    ______ ____

>  <TORSDO>
F 2

$$$$
=
 OpenBabel10262419343D

 31 35  0  0  1  0  0  0  0  0999 V2000
  186.7480  177.8440  146.3310 C   0  0  0  0  0  0  0  0  0  0  0  0
  187.1140  178.2710  142.6960 C   0  0  0  0  0  0  0  0  0  0  0  0
  188.5600  177.8430  142.4450 C   0  0  2  0  0  3  0  0  0  0  0  0
  190.7730  177.9750  143.6100 C   0  0  0  0  0  3  0  0  0  0  0  0
  186.5470  178.2600  143.9920 C   0  0  0  0  0  0  0  0  0  0  0  0
  185.4330  178.2590  146.5460 C   0  0  0  0  0  3  0  0  0  0  0  0
  189.5200  178.4260  143.4440 C   0  0  0  0  0  3  0  0  0  0  0  0
  184.9560  179.0100  141.7930 C   0  0  0  0  0  0  0  0  0  0  0  0
  187.5440  177.4150  147.4280 N   0  0  0  0  0  1  0  0  0  0  0  0
  188.0380  177.7840  139.9840 C   0  0  0  0  0  2  0  0  0  0  0  0
  191.4090  176.8090  142.8810 C   0  0  0  0  0  2  0  0  0  0  0  0
  184.4320  179.0510  143.0890 C   0  0  0  0  0  3  0  0  0  0  0  0
  186.2790  178.5840  141.5930 C   0  0  0  0  0  0  0  0  0  0  0  0
  187.2690  177.8520  145.0750 N   0  0  0  0  0  0  0  0  0  0  0  0
  190.8100  176.4290  141.5200 C   0  0  0  0  0  2  0  0  0  0  0  0
  185.2090  178.6700  144.1780 C   0  0  0  0  0  0  0  0  0  0  0  0
  184.6610  178.6730  145.4610 C   0  0  0  0  0  3  0  0  0  0  0  0
  186.7790  178.4570  140.2560 N   0  0  0  0  0  2  0  0  0  0  0  0
  189.0550  178.2070  141.0260 C   0  0  2  0  0  3  0  0  0  0  0  0
  190.4420  177.6480  140.6790 C   0  0  0  0  0  2  0  0  0  0  0  0
  182.8010  177.4610  140.5190 O   0  0  0  0  0  0  0  0  0  0  0  0
  183.1110  178.5880  140.0480 C   0  0  0  0  0  0  0  0  0  0  0  0
  184.1550  179.3670  140.6540 N   0  0  0  0  0  2  0  0  0  0  0  0
  181.0350  180.2050  136.6570 C   0  0  0  0  0  0  0  0  0  0  0  0
  181.8740  180.4220  138.9150 C   0  0  0  0  0  3  0  0  0  0  0  0
  182.7210  177.1030  137.5800 F   0  0  0  0  0  0  0  0  0  0  0  0
  180.3130  180.7780  135.4920 C   0  0  0  0  0  1  0  0  0  0  0  0
  181.1950  180.9610  137.8200 C   0  0  0  0  0  3  0  0  0  0  0  0
  182.2320  178.3640  137.6840 C   0  0  0  0  0  0  0  0  0  0  0  0
  182.4000  179.1210  138.8640 C   0  0  0  0  0  0  0  0  0  0  0  0
  181.5520  178.9110  136.5910 C   0  0  0  0  0  3  0  0  0  0  0  0
  1  6  1  0  0  0  0
  1  9  1  0  0  0  0
  2  5  1  0  0  0  0
  3  2  1  0  0  0  0
  3  7  1  1  0  0  0
  5 16  2  0  0  0  0
  5 14  1  0  0  0  0
  7  4  2  0  0  0  0
  8 12  2  0  0  0  0
 10 18  1  0  0  0  0
 11  4  1  0  0  0  0
 12 16  1  0  0  0  0
 13  8  1  0  0  0  0
 13  2  2  0  0  0  0
 14  1  2  0  0  0  0
 15 11  1  0  0  0  0
 16 17  1  0  0  0  0
 17  6  2  0  0  0  0
 18 13  1  0  0  0  0
 19 10  1  6  0  0  0
 19  3  1  0  0  0  0
 20 19  1  0  0  0  0
 20 15  1  0  0  0  0
 22 21  2  0  0  0  0
 22 23  1  0  0  0  0
 23  8  1  0  0  0  0
 24 28  1  0  0  0  0
 26 29  1  0  0  0  0
 27 24  1  0  0  0  0
 28 25  2  0  0  0  0
 29 30  2  0  0  0  0
 30 25  1  0  0  0  0
 30 22  1  0  0  0  0
 31 24  2  0  0  0  0
 31 29  1  0  0  0  0
M  END
>  <MODEL>
5

>  <REMARK>
 VINA RESULT:      -9.5      4.124      7.301
  Name = 
  2 active torsions:
  status: ('A' for Active; 'I' for Inactive)
    1  A    between atoms: C_9  and  C_22
    2  A    between atoms: C_15  and  N_23
                            x       y       z     vdW  Elec       q    Type
                         _______ _______ _______ _____ _____    ______ ____

>  <TORSDO>
F 2

$$$$
=
 OpenBabel10262419343D

 31 35  0  0  1  0  0  0  0  0999 V2000
  187.1600  178.3940  136.4980 C   0  0  0  0  0  0  0  0  0  0  0  0
  186.2950  178.4210  140.0740 C   0  0  0  0  0  0  0  0  0  0  0  0
  184.7730  178.5710  140.0560 C   0  0  2  0  0  3  0  0  0  0  0  0
  183.0300  179.7300  138.6840 C   0  0  0  0  0  3  0  0  0  0  0  0
  187.0520  178.3660  138.8790 C   0  0  0  0  0  0  0  0  0  0  0  0
  188.5500  178.2800  136.5310 C   0  0  0  0  0  3  0  0  0  0  0  0
  184.3040  179.6190  139.0870 C   0  0  0  0  0  3  0  0  0  0  0  0
  188.3600  178.1100  141.3610 C   0  0  0  0  0  0  0  0  0  0  0  0
  186.4850  178.4730  135.2490 N   0  0  0  0  0  1  0  0  0  0  0  0
  184.7600  177.9680  142.5000 C   0  0  0  0  0  2  0  0  0  0  0  0
  181.8820  178.8230  139.0800 C   0  0  0  0  0  2  0  0  0  0  0  0
  189.0980  178.1200  140.1730 C   0  0  0  0  0  3  0  0  0  0  0  0
  186.9610  178.2200  141.3090 C   0  0  0  0  0  0  0  0  0  0  0  0
  186.4500  178.4340  137.6570 N   0  0  0  0  0  0  0  0  0  0  0  0
  182.0300  178.0510  140.3980 C   0  0  0  0  0  2  0  0  0  0  0  0
  188.4570  178.2330  138.9430 C   0  0  0  0  0  0  0  0  0  0  0  0
  189.2000  178.1970  137.7620 C   0  0  0  0  0  3  0  0  0  0  0  0
  186.2060  178.1170  142.5230 N   0  0  0  0  0  2  0  0  0  0  0  0
  184.1880  178.9000  141.4490 C   0  0  2  0  0  3  0  0  0  0  0  0
  182.6540  178.8940  141.5060 C   0  0  0  0  0  2  0  0  0  0  0  0
  188.7230  175.6530  142.9400 O   0  0  0  0  0  0  0  0  0  0  0  0
  189.1630  176.7450  143.3900 C   0  0  0  0  0  0  0  0  0  0  0  0
  189.0040  177.9580  142.6360 N   0  0  0  0  0  2  0  0  0  0  0  0
  191.2270  176.8430  147.1520 C   0  0  0  0  0  0  0  0  0  0  0  0
  191.2090  176.4400  144.7670 C   0  0  0  0  0  3  0  0  0  0  0  0
  187.8740  177.5140  145.8790 F   0  0  0  0  0  0  0  0  0  0  0  0
  191.9550  176.8720  148.4470 C   0  0  0  0  0  1  0  0  0  0  0  0
  191.8940  176.4660  145.9840 C   0  0  0  0  0  3  0  0  0  0  0  0
  189.1850  177.1670  145.8860 C   0  0  0  0  0  0  0  0  0  0  0  0
  189.8510  176.7880  144.7010 C   0  0  0  0  0  0  0  0  0  0  0  0
  189.8770  177.1920  147.1010 C   0  0  0  0  0  3  0  0  0  0  0  0
  1  6  2  0  0  0  0
  1 14  1  0  0  0  0
  2 13  2  0  0  0  0
  3  7  1  6  0  0  0
  3  2  1  0  0  0  0
  3 19  1  0  0  0  0
  4 11  1  0  0  0  0
  4  7  2  0  0  0  0
  5 16  1  0  0  0  0
  5  2  1  0  0  0  0
  6 17  1  0  0  0  0
  8 23  1  0  0  0  0
  9  1  1  0  0  0  0
 10 18  1  0  0  0  0
 11 15  1  0  0  0  0
 12  8  2  0  0  0  0
 13  8  1  0  0  0  0
 13 18  1  0  0  0  0
 14  5  2  0  0  0  0
 15 20  1  0  0  0  0
 16 12  1  0  0  0  0
 17 16  2  0  0  0  0
 19 20  1  6  0  0  0
 19 10  1  0  0  0  0
 21 22  2  0  0  0  0
 22 30  1  0  0  0  0
 23 22  1  0  0  0  0
 24 27  1  0  0  0  0
 25 28  1  0  0  0  0
 26 29  1  0  0  0  0
 28 24  2  0  0  0  0
 29 31  2  0  0  0  0
 30 25  2  0  0  0  0
 30 29  1  0  0  0  0
 31 24  1  0  0  0  0
M  END
>  <MODEL>
6

>  <REMARK>
 VINA RESULT:      -9.3      3.213      7.454
  Name = 
  2 active torsions:
  status: ('A' for Active; 'I' for Inactive)
    1  A    between atoms: C_9  and  C_22
    2  A    between atoms: C_15  and  N_23
                            x       y       z     vdW  Elec       q    Type
                         _______ _______ _______ _____ _____    ______ ____

>  <TORSDO>
F 2

$$$$
=
 OpenBabel10262419343D

 31 35  0  0  1  0  0  0  0  0999 V2000
  185.6210  178.4820  143.7380 C   0  0  0  0  0  0  0  0  0  0  0  0
  189.1360  177.5030  143.2640 C   0  0  0  0  0  0  0  0  0  0  0  0
  189.6030  177.2060  144.6890 C   0  0  2  0  0  3  0  0  0  0  0  0
  189.1990  178.0730  147.0030 C   0  0  0  0  0  3  0  0  0  0  0  0
  187.8140  177.9240  142.9850 C   0  0  0  0  0  0  0  0  0  0  0  0
  185.2170  178.7710  142.4340 C   0  0  0  0  0  3  0  0  0  0  0  0
  189.1660  178.2540  145.6730 C   0  0  0  0  0  3  0  0  0  0  0  0
  189.6210  177.5400  140.8590 C   0  0  0  0  0  0  0  0  0  0  0  0
  184.7020  178.6240  144.8130 N   0  0  0  0  0  1  0  0  0  0  0  0
  191.6550  176.1250  143.7110 C   0  0  0  0  0  2  0  0  0  0  0  0
  189.6230  176.8100  147.7250 C   0  0  0  0  0  2  0  0  0  0  0  0
  188.3290  178.0130  140.6100 C   0  0  0  0  0  3  0  0  0  0  0  0
  190.0100  177.2490  142.1760 C   0  0  0  0  0  0  0  0  0  0  0  0
  186.8940  178.0690  143.9820 N   0  0  0  0  0  0  0  0  0  0  0  0
  190.5530  175.8540  146.9660 C   0  0  0  0  0  2  0  0  0  0  0  0
  187.4280  178.1930  141.6540 C   0  0  0  0  0  0  0  0  0  0  0  0
  186.1270  178.6230  141.3870 C   0  0  0  0  0  3  0  0  0  0  0  0
  191.3030  176.6790  142.4140 N   0  0  0  0  0  2  0  0  0  0  0  0
  191.1380  177.0510  144.7950 C   0  0  2  0  0  3  0  0  0  0  0  0
  191.6310  176.5890  146.1740 C   0  0  0  0  0  2  0  0  0  0  0  0
  189.4130  175.6280  138.6310 O   0  0  0  0  0  0  0  0  0  0  0  0
  190.4290  176.3700  138.7130 C   0  0  0  0  0  0  0  0  0  0  0  0
  190.5520  177.3160  139.7870 N   0  0  0  0  0  2  0  0  0  0  0  0
  193.6030  176.1040  135.8380 C   0  0  0  0  0  0  0  0  0  0  0  0
  192.8410  176.3750  138.1170 C   0  0  0  0  0  3  0  0  0  0  0  0
  189.9560  175.9830  135.8720 F   0  0  0  0  0  0  0  0  0  0  0  0
  194.7130  176.0150  134.8530 C   0  0  0  0  0  1  0  0  0  0  0  0
  193.8850  176.2910  137.1920 C   0  0  0  0  0  3  0  0  0  0  0  0
  191.2300  176.0870  136.3290 C   0  0  0  0  0  0  0  0  0  0  0  0
  191.5050  176.2750  137.7000 C   0  0  0  0  0  0  0  0  0  0  0  0
  192.2800  176.0030  135.4080 C   0  0  0  0  0  3  0  0  0  0  0  0
  1 14  1  0  0  0  0
  1  9  1  0  0  0  0
  2  3  1  0  0  0  0
  3 19  1  0  0  0  0
  3  7  1  1  0  0  0
  4 11  1  0  0  0  0
  5  2  1  0  0  0  0
  5 14  2  0  0  0  0
  6  1  2  0  0  0  0
  7  4  2  0  0  0  0
  8 13  1  0  0  0  0
 12  8  2  0  0  0  0
 12 16  1  0  0  0  0
 13 18  1  0  0  0  0
 13  2  2  0  0  0  0
 15 11  1  0  0  0  0
 16  5  1  0  0  0  0
 17 16  2  0  0  0  0
 17  6  1  0  0  0  0
 18 10  1  0  0  0  0
 19 10  1  6  0  0  0
 19 20  1  0  0  0  0
 20 15  1  0  0  0  0
 21 22  2  0  0  0  0
 22 23  1  0  0  0  0
 23  8  1  0  0  0  0
 24 28  1  0  0  0  0
 26 29  1  0  0  0  0
 27 24  1  0  0  0  0
 28 25  2  0  0  0  0
 29 30  2  0  0  0  0
 30 25  1  0  0  0  0
 30 22  1  0  0  0  0
 31 24  2  0  0  0  0
 31 29  1  0  0  0  0
M  END
>  <MODEL>
7

>  <REMARK>
 VINA RESULT:      -9.2      1.825      4.184
  Name = 
  2 active torsions:
  status: ('A' for Active; 'I' for Inactive)
    1  A    between atoms: C_9  and  C_22
    2  A    between atoms: C_15  and  N_23
                            x       y       z     vdW  Elec       q    Type
                         _______ _______ _______ _____ _____    ______ ____

>  <TORSDO>
F 2

$$$$
=
 OpenBabel10262419343D

 31 35  0  0  1  0  0  0  0  0999 V2000
  183.0000  179.1100  139.3870 C   0  0  0  0  0  0  0  0  0  0  0  0
  186.5410  178.2530  139.9000 C   0  0  0  0  0  0  0  0  0  0  0  0
  187.0810  178.1650  138.4730 C   0  0  2  0  0  3  0  0  0  0  0  0
  186.2800  177.4320  136.2170 C   0  0  0  0  0  3  0  0  0  0  0  0
  185.1870  178.5670  140.1660 C   0  0  0  0  0  0  0  0  0  0  0  0
  182.5170  179.1640  140.6950 C   0  0  0  0  0  3  0  0  0  0  0  0
  186.1730  177.3970  137.5540 C   0  0  0  0  0  3  0  0  0  0  0  0
  186.9640  178.1720  142.3150 C   0  0  0  0  0  0  0  0  0  0  0  0
  182.1220  179.3570  138.2960 N   0  0  0  0  0  1  0  0  0  0  0  0
  189.4080  178.1620  139.4330 C   0  0  0  0  0  2  0  0  0  0  0  0
  187.2690  178.2560  135.4180 C   0  0  0  0  0  2  0  0  0  0  0  0
  185.6100  178.4230  142.5570 C   0  0  0  0  0  3  0  0  0  0  0  0
  187.4350  178.1260  140.9930 C   0  0  0  0  0  0  0  0  0  0  0  0
  184.3070  178.8170  139.1540 N   0  0  0  0  0  0  0  0  0  0  0  0
  188.5570  178.6830  136.1340 C   0  0  0  0  0  2  0  0  0  0  0  0
  184.7290  178.6310  141.5010 C   0  0  0  0  0  0  0  0  0  0  0  0
  183.3890  178.9240  141.7560 C   0  0  0  0  0  3  0  0  0  0  0  0
  188.8380  177.9610  140.7560 N   0  0  0  0  0  2  0  0  0  0  0  0
  188.4900  177.5310  138.4040 C   0  0  2  0  0  3  0  0  0  0  0  0
  189.1350  177.5770  137.0120 C   0  0  0  0  0  2  0  0  0  0  0  0
  188.2440  175.6810  143.2190 O   0  0  0  0  0  0  0  0  0  0  0  0
  188.5000  176.7590  143.8210 C   0  0  0  0  0  0  0  0  0  0  0  0
  187.8930  177.9900  143.3970 N   0  0  0  0  0  2  0  0  0  0  0  0
  191.2610  176.7530  147.1070 C   0  0  0  0  0  0  0  0  0  0  0  0
  190.7700  176.4000  144.7650 C   0  0  0  0  0  3  0  0  0  0  0  0
  187.7340  177.4890  146.5280 F   0  0  0  0  0  0  0  0  0  0  0  0
  192.2280  176.7450  148.2350 C   0  0  0  0  0  1  0  0  0  0  0  0
  191.6810  176.3930  145.8250 C   0  0  0  0  0  3  0  0  0  0  0  0
  189.0160  177.1270  146.2720 C   0  0  0  0  0  0  0  0  0  0  0  0
  189.4310  176.7650  144.9720 C   0  0  0  0  0  0  0  0  0  0  0  0
  189.9320  177.1180  147.3280 C   0  0  0  0  0  3  0  0  0  0  0  0
  1  6  1  0  0  0  0
  2  5  2  0  0  0  0
  2 13  1  0  0  0  0
  3  7  1  6  0  0  0
  3  2  1  0  0  0  0
  4  7  2  0  0  0  0
  5 16  1  0  0  0  0
  6 17  2  0  0  0  0
  8 12  1  0  0  0  0
  8 23  1  0  0  0  0
  9  1  1  0  0  0  0
 10 18  1  0  0  0  0
 11 15  1  0  0  0  0
 11  4  1  0  0  0  0
 13  8  2  0  0  0  0
 14  1  2  0  0  0  0
 14  5  1  0  0  0  0
 15 20  1  0  0  0  0
 16 17  1  0  0  0  0
 16 12  2  0  0  0  0
 18 13  1  0  0  0  0
 19 20  1  6  0  0  0
 19  3  1  0  0  0  0
 19 10  1  0  0  0  0
 21 22  2  0  0  0  0
 22 30  1  0  0  0  0
 23 22  1  0  0  0  0
 24 31  1  0  0  0  0
 24 27  1  0  0  0  0
 25 30  2  0  0  0  0
 25 28  1  0  0  0  0
 28 24  2  0  0  0  0
 29 26  1  0  0  0  0
 29 31  2  0  0  0  0
 30 29  1  0  0  0  0
M  END
>  <MODEL>
8

>  <REMARK>
 VINA RESULT:      -8.9      3.241      8.059
  Name = 
  2 active torsions:
  status: ('A' for Active; 'I' for Inactive)
    1  A    between atoms: C_9  and  C_22
    2  A    between atoms: C_15  and  N_23
                            x       y       z     vdW  Elec       q    Type
                         _______ _______ _______ _____ _____    ______ ____

>  <TORSDO>
F 2

$$$$
=
 OpenBabel10262419343D

 31 35  0  0  1  0  0  0  0  0999 V2000
  182.2110  178.7420  138.4520 C   0  0  0  0  0  0  0  0  0  0  0  0
  185.6260  178.3860  139.7730 C   0  0  0  0  0  0  0  0  0  0  0  0
  186.4720  178.2610  138.5060 C   0  0  2  0  0  3  0  0  0  0  0  0
  186.2670  177.2650  136.2180 C   0  0  0  0  0  3  0  0  0  0  0  0
  184.2210  178.5430  139.7190 C   0  0  0  0  0  0  0  0  0  0  0  0
  181.4510  178.8320  139.6190 C   0  0  0  0  0  3  0  0  0  0  0  0
  185.8750  177.3170  137.5010 C   0  0  0  0  0  3  0  0  0  0  0  0
  185.5180  178.5420  142.2200 C   0  0  0  0  0  0  0  0  0  0  0  0
  181.5720  178.7920  137.1830 N   0  0  0  0  0  1  0  0  0  0  0  0
  188.5180  178.6280  139.9250 C   0  0  0  0  0  2  0  0  0  0  0  0
  187.3110  178.1470  135.5630 C   0  0  0  0  0  2  0  0  0  0  0  0
  184.1240  178.6340  142.1480 C   0  0  0  0  0  3  0  0  0  0  0  0
  186.2680  178.4570  141.0360 C   0  0  0  0  0  0  0  0  0  0  0  0
  183.5620  178.6020  138.5270 N   0  0  0  0  0  0  0  0  0  0  0  0
  188.3570  178.7870  136.4850 C   0  0  0  0  0  2  0  0  0  0  0  0
  183.4790  178.6480  140.9160 C   0  0  0  0  0  0  0  0  0  0  0  0
  182.0910  178.7860  140.8570 C   0  0  0  0  0  3  0  0  0  0  0  0
  187.6990  178.4550  141.1130 N   0  0  0  0  0  2  0  0  0  0  0  0
  187.9220  177.8090  138.7960 C   0  0  2  0  0  3  0  0  0  0  0  0
  188.8470  177.8330  137.5710 C   0  0  0  0  0  2  0  0  0  0  0  0
  186.8740  176.3200  143.5930 O   0  0  0  0  0  0  0  0  0  0  0  0
  186.8520  177.4580  144.1360 C   0  0  0  0  0  0  0  0  0  0  0  0
  186.2020  178.5610  143.4830 N   0  0  0  0  0  2  0  0  0  0  0  0
  188.8030  178.0520  147.9120 C   0  0  0  0  0  0  0  0  0  0  0  0
  188.8890  177.5020  145.5580 C   0  0  0  0  0  3  0  0  0  0  0  0
  185.4200  178.2080  146.5520 F   0  0  0  0  0  0  0  0  0  0  0  0
  189.4920  178.2530  149.2130 C   0  0  0  0  0  1  0  0  0  0  0  0
  189.5380  177.6910  146.7810 C   0  0  0  0  0  3  0  0  0  0  0  0
  186.7650  178.0330  146.5990 C   0  0  0  0  0  0  0  0  0  0  0  0
  187.4990  177.6690  145.4500 C   0  0  0  0  0  0  0  0  0  0  0  0
  187.4210  178.2210  147.8200 C   0  0  0  0  0  3  0  0  0  0  0  0
  1 14  2  0  0  0  0
  1  6  1  0  0  0  0
  2 13  1  0  0  0  0
  3  7  1  6  0  0  0
  3 19  1  0  0  0  0
  3  2  1  0  0  0  0
  4  7  2  0  0  0  0
  5  2  2  0  0  0  0
  5 16  1  0  0  0  0
  6 17  2  0  0  0  0
  8 23  1  0  0  0  0
  9  1  1  0  0  0  0
 10 18  1  0  0  0  0
 11  4  1  0  0  0  0
 11 15  1  0  0  0  0
 12  8  1  0  0  0  0
 13 18  1  0  0  0  0
 13  8  2  0  0  0  0
 14  5  1  0  0  0  0
 15 20  1  0  0  0  0
 16 12  2  0  0  0  0
 17 16  1  0  0  0  0
 19 20  1  6  0  0  0
 19 10  1  0  0  0  0
 21 22  2  0  0  0  0
 22 30  1  0  0  0  0
 23 22  1  0  0  0  0
 24 27  1  0  0  0  0
 25 28  1  0  0  0  0
 26 29  1  0  0  0  0
 28 24  2  0  0  0  0
 29 31  2  0  0  0  0
 30 25  2  0  0  0  0
 30 29  1  0  0  0  0
 31 24  1  0  0  0  0
M  END
>  <MODEL>
9

>  <REMARK>
 VINA RESULT:      -8.9      3.778      8.905
  Name = 
  2 active torsions:
  status: ('A' for Active; 'I' for Inactive)
    1  A    between atoms: C_9  and  C_22
    2  A    between atoms: C_15  and  N_23
                            x       y       z     vdW  Elec       q    Type
                         _______ _______ _______ _____ _____    ______ ____

>  <TORSDO>
F 2

$$$$
