=
 OpenBabel10262421293D

 32 38  0  0  1  0  0  0  0  0999 V2000
  187.8000  178.5770  137.0020 C   0  0  1  0  0  3  0  0  0  0  0  0
  187.3470  178.0140  142.1440 C   0  0  0  0  0  0  0  0  0  0  0  0
  182.7480  179.1340  143.0970 C   0  0  0  0  0  3  0  0  0  0  0  0
  182.9630  178.9480  144.5250 C   0  0  0  0  0  3  0  0  0  0  0  0
  188.9330  177.5910  144.0230 C   0  0  0  0  0  0  0  0  0  0  0  0
  189.1730  177.4970  145.4080 C   0  0  0  0  0  0  0  0  0  0  0  0
  188.2330  177.7780  139.8060 C   0  0  1  0  0  3  0  0  0  0  0  0
  185.7530  178.0120  140.2730 C   0  0  0  0  0  2  0  0  0  0  0  0
  188.7650  177.5060  147.5120 C   0  0  0  0  0  0  0  0  0  0  0  0
  186.6920  177.9050  137.7220 C   0  0  2  0  0  3  0  0  0  0  0  0
  183.7990  178.8460  142.1730 C   0  0  0  0  0  3  0  0  0  0  0  0
  186.0490  178.1710  141.7530 N   0  0  0  0  0  0  0  0  0  0  0  0
  185.0630  178.4530  142.6040 C   0  0  0  0  0  0  0  0  0  0  0  0
  186.6010  178.0100  144.4920 C   0  0  0  0  0  0  0  0  0  0  0  0
  190.0420  177.2520  147.3280 N   0  0  0  0  0  0  0  0  0  0  0  0
  189.0220  179.1370  137.7220 C   0  0  0  0  0  2  0  0  0  0  0  0
  186.8970  178.3470  139.2920 C   0  0  2  0  0  3  0  0  0  0  0  0
  190.3170  177.2320  146.0100 N   0  0  0  0  0  0  0  0  0  0  0  0
  189.4660  178.3210  139.0380 C   0  0  0  0  0  2  0  0  0  0  0  0
  187.7820  177.0540  137.2200 C   0  0  1  0  0  3  0  0  0  0  0  0
  184.2600  178.5860  144.9210 C   0  0  0  0  0  3  0  0  0  0  0  0
  185.3120  178.3260  144.0270 C   0  0  0  0  0  0  0  0  0  0  0  0
  186.8650  177.9550  145.8940 C   0  0  0  0  0  3  0  0  0  0  0  0
  188.4680  178.0440  141.2100 C   0  0  0  0  0  2  0  0  0  0  0  0
  190.1240  177.4940  143.2050 O   0  0  0  0  0  1  0  0  0  0  0  0
  188.0990  177.6280  148.8370 C   0  0  0  0  0  1  0  0  0  0  0  0
  187.6160  177.8730  143.5530 C   0  0  0  0  0  0  0  0  0  0  0  0
  188.1440  177.6610  146.2890 C   0  0  0  0  0  0  0  0  0  0  0  0
  188.0740  176.7370  135.9050 O   0  0  0  0  0  0  0  0  0  0  0  0
  189.0920  175.8910  135.3840 C   0  0  0  0  0  0  0  0  0  0  0  0
  190.4840  176.1550  135.6760 C   0  0  0  0  0  1  0  0  0  0  0  0
  188.7290  174.9670  134.6410 O   0  0  0  0  0  0  0  0  0  0  0  0
  1 20  1  0  0  0  0
  1 16  1  1  0  0  0
  1 10  1  0  0  0  0
  2 27  2  0  0  0  0
  3  4  1  0  0  0  0
  4 21  2  0  0  0  0
  5  6  2  0  0  0  0
  6 18  1  0  0  0  0
  6 28  1  0  0  0  0
  7 19  1  6  0  0  0
  7 24  1  0  0  0  0
  8 12  1  0  0  0  0
  9 26  1  0  0  0  0
 10 17  1  0  0  0  0
 11 13  1  0  0  0  0
 11  3  2  0  0  0  0
 12  2  1  0  0  0  0
 12 13  1  0  0  0  0
 13 22  2  0  0  0  0
 14 23  2  0  0  0  0
 15  9  1  0  0  0  0
 16 19  1  0  0  0  0
 17  7  1  0  0  0  0
 17  8  1  0  0  0  0
 18 15  2  0  0  0  0
 20 10  1  0  0  0  0
 22 14  1  0  0  0  0
 22 21  1  0  0  0  0
 23 28  1  0  0  0  0
 24  2  1  0  0  0  0
 25  5  1  0  0  0  0
 27  5  1  0  0  0  0
 27 14  1  0  0  0  0
 28  9  2  0  0  0  0
 29 20  1  0  0  0  0
 30 31  1  0  0  0  0
 30 29  1  0  0  0  0
 32 30  2  0  0  0  0
M  END
>  <MODEL>
1

>  <REMARK>
 VINA RESULT:     -10.5      0.000      0.000
  Name = 
  2 active torsions:
  status: ('A' for Active; 'I' for Inactive)
    1  A    between atoms: C_1  and  O_10
    2  A    between atoms: O_10  and  C_24
                            x       y       z     vdW  Elec       q    Type
                         _______ _______ _______ _____ _____    ______ ____

>  <TORSDO>
F 2

$$$$
=
 OpenBabel10262421293D

 32 38  0  0  1  0  0  0  0  0999 V2000
  187.4330  178.6110  136.7610 C   0  0  1  0  0  3  0  0  0  0  0  0
  187.9270  177.9370  141.8850 C   0  0  0  0  0  0  0  0  0  0  0  0
  183.6180  179.1430  143.7000 C   0  0  0  0  0  3  0  0  0  0  0  0
  184.0900  178.9170  145.0590 C   0  0  0  0  0  3  0  0  0  0  0  0
  189.8220  177.4320  143.4280 C   0  0  0  0  0  0  0  0  0  0  0  0
  190.3120  177.2990  144.7420 C   0  0  0  0  0  0  0  0  0  0  0  0
  188.3560  177.7360  139.4190 C   0  0  1  0  0  3  0  0  0  0  0  0
  186.0130  178.0170  140.3440 C   0  0  0  0  0  2  0  0  0  0  0  0
  190.3030  177.2680  146.8850 C   0  0  0  0  0  0  0  0  0  0  0  0
  186.4590  177.9490  137.6620 C   0  0  2  0  0  3  0  0  0  0  0  0
  184.4700  178.8520  142.5910 C   0  0  0  0  0  3  0  0  0  0  0  0
  186.5840  178.1340  141.7460 N   0  0  0  0  0  0  0  0  0  0  0  0
  185.7810  178.4190  142.7710 C   0  0  0  0  0  0  0  0  0  0  0  0
  187.6310  177.8950  144.3310 C   0  0  0  0  0  0  0  0  0  0  0  0
  191.5160  176.9880  146.4610 N   0  0  0  0  0  0  0  0  0  0  0  0
  188.7810  179.1240  137.2510 C   0  0  0  0  0  2  0  0  0  0  0  0
  186.9640  178.3490  139.1750 C   0  0  2  0  0  3  0  0  0  0  0  0
  191.5410  176.9940  145.1150 N   0  0  0  0  0  0  0  0  0  0  0  0
  189.4390  178.2680  138.4450 C   0  0  0  0  0  2  0  0  0  0  0  0
  187.4120  177.0840  136.9490 C   0  0  1  0  0  3  0  0  0  0  0  0
  185.4270  178.5160  145.1990 C   0  0  0  0  0  3  0  0  0  0  0  0
  186.2870  178.2520  144.1210 C   0  0  0  0  0  0  0  0  0  0  0  0
  188.1480  177.8010  145.6580 C   0  0  0  0  0  3  0  0  0  0  0  0
  188.8550  177.9630  140.7600 C   0  0  0  0  0  2  0  0  0  0  0  0
  190.8370  177.3270  142.4000 O   0  0  0  0  0  1  0  0  0  0  0  0
  189.8980  177.3750  148.3130 C   0  0  0  0  0  1  0  0  0  0  0  0
  188.4490  177.7560  143.2170 C   0  0  0  0  0  0  0  0  0  0  0  0
  189.4710  177.4670  145.8020 C   0  0  0  0  0  0  0  0  0  0  0  0
  187.4460  176.7910  135.5970 O   0  0  0  0  0  0  0  0  0  0  0  0
  187.3010  175.5390  134.9400 C   0  0  0  0  0  0  0  0  0  0  0  0
  185.9900  174.9610  134.7440 C   0  0  0  0  0  1  0  0  0  0  0  0
  188.3440  174.9600  134.5980 O   0  0  0  0  0  0  0  0  0  0  0  0
  1 20  1  0  0  0  0
  1 16  1  1  0  0  0
  1 10  1  0  0  0  0
  2 27  2  0  0  0  0
  3  4  1  0  0  0  0
  4 21  2  0  0  0  0
  5  6  2  0  0  0  0
  6 18  1  0  0  0  0
  6 28  1  0  0  0  0
  7 19  1  6  0  0  0
  7 24  1  0  0  0  0
  8 12  1  0  0  0  0
  9 26  1  0  0  0  0
 10 17  1  0  0  0  0
 11 13  1  0  0  0  0
 11  3  2  0  0  0  0
 12  2  1  0  0  0  0
 12 13  1  0  0  0  0
 13 22  2  0  0  0  0
 14 23  2  0  0  0  0
 15  9  1  0  0  0  0
 16 19  1  0  0  0  0
 17  7  1  0  0  0  0
 17  8  1  0  0  0  0
 18 15  2  0  0  0  0
 20 10  1  0  0  0  0
 22 14  1  0  0  0  0
 22 21  1  0  0  0  0
 23 28  1  0  0  0  0
 24  2  1  0  0  0  0
 25  5  1  0  0  0  0
 27  5  1  0  0  0  0
 27 14  1  0  0  0  0
 28  9  2  0  0  0  0
 29 20  1  0  0  0  0
 30 29  1  0  0  0  0
 31 30  1  0  0  0  0
 32 30  2  0  0  0  0
M  END
>  <MODEL>
2

>  <REMARK>
 VINA RESULT:     -10.1      1.086      1.333
  Name = 
  2 active torsions:
  status: ('A' for Active; 'I' for Inactive)
    1  A    between atoms: C_1  and  O_10
    2  A    between atoms: O_10  and  C_24
                            x       y       z     vdW  Elec       q    Type
                         _______ _______ _______ _____ _____    ______ ____

>  <TORSDO>
F 2

$$$$
=
 OpenBabel10262421293D

 32 38  0  0  1  0  0  0  0  0999 V2000
  182.7540  178.5150  138.6970 C   0  0  1  0  0  3  0  0  0  0  0  0
  186.5070  178.1530  142.2670 C   0  0  0  0  0  0  0  0  0  0  0  0
  190.5360  177.3450  139.7310 C   0  0  0  0  0  3  0  0  0  0  0  0
  191.3230  177.2400  140.9510 C   0  0  0  0  0  3  0  0  0  0  0  0
  186.5740  178.0550  144.7600 C   0  0  0  0  0  0  0  0  0  0  0  0
  187.3100  177.8650  145.9450 C   0  0  0  0  0  0  0  0  0  0  0  0
  184.3140  178.7290  141.1890 C   0  0  1  0  0  3  0  0  0  0  0  0
  186.4730  178.6650  139.8630 C   0  0  0  0  0  2  0  0  0  0  0  0
  189.0010  177.5050  147.2120 C   0  0  0  0  0  0  0  0  0  0  0  0
  184.0930  179.1490  138.6380 C   0  0  2  0  0  3  0  0  0  0  0  0
  189.1520  177.6930  139.8020 C   0  0  0  0  0  3  0  0  0  0  0  0
  187.2170  178.2030  141.1030 N   0  0  0  0  0  0  0  0  0  0  0  0
  188.5050  177.8690  141.0220 C   0  0  0  0  0  0  0  0  0  0  0  0
  188.6130  177.7950  143.4940 C   0  0  0  0  0  0  0  0  0  0  0  0
  187.9330  177.6590  147.9630 N   0  0  0  0  0  0  0  0  0  0  0  0
  182.2850  177.7110  139.9030 C   0  0  0  0  0  2  0  0  0  0  0  0
  184.9520  178.4040  139.8250 C   0  0  2  0  0  3  0  0  0  0  0  0
  186.8590  177.8950  147.1860 N   0  0  0  0  0  0  0  0  0  0  0  0
  182.8560  178.2170  141.3210 C   0  0  0  0  0  2  0  0  0  0  0  0
  182.9850  179.9650  139.1580 C   0  0  1  0  0  3  0  0  0  0  0  0
  190.6270  177.3880  142.1600 C   0  0  0  0  0  3  0  0  0  0  0  0
  189.2610  177.7020  142.2490 C   0  0  0  0  0  0  0  0  0  0  0  0
  189.3410  177.5600  144.6990 C   0  0  0  0  0  3  0  0  0  0  0  0
  185.0490  178.1840  142.3110 C   0  0  0  0  0  2  0  0  0  0  0  0
  185.1450  178.1820  144.9590 O   0  0  0  0  0  1  0  0  0  0  0  0
  190.3680  177.2060  147.7180 C   0  0  0  0  0  1  0  0  0  0  0  0
  187.2400  178.0010  143.5000 C   0  0  0  0  0  0  0  0  0  0  0  0
  188.6550  177.6440  145.8830 C   0  0  0  0  0  0  0  0  0  0  0  0
  181.9150  180.4910  138.4550 O   0  0  0  0  0  0  0  0  0  0  0  0
  180.9400  181.4390  138.8700 C   0  0  0  0  0  0  0  0  0  0  0  0
  180.0180  181.1240  139.9400 C   0  0  0  0  0  1  0  0  0  0  0  0
  180.8940  182.5080  138.2420 O   0  0  0  0  0  0  0  0  0  0  0  0
  1 20  1  0  0  0  0
  1 16  1  1  0  0  0
  2 24  1  0  0  0  0
  2 27  2  0  0  0  0
  3 11  2  0  0  0  0
  3  4  1  0  0  0  0
  4 21  2  0  0  0  0
  5 25  1  0  0  0  0
  5  6  2  0  0  0  0
  6 18  1  0  0  0  0
  7 19  1  6  0  0  0
  7 24  1  0  0  0  0
  8 12  1  0  0  0  0
  9 26  1  0  0  0  0
  9 15  1  0  0  0  0
 10  1  1  0  0  0  0
 10 20  1  0  0  0  0
 10 17  1  0  0  0  0
 11 13  1  0  0  0  0
 12  2  1  0  0  0  0
 13 12  1  0  0  0  0
 13 22  2  0  0  0  0
 14 27  1  0  0  0  0
 14 23  2  0  0  0  0
 16 19  1  0  0  0  0
 17  8  1  0  0  0  0
 17  7  1  0  0  0  0
 18 15  2  0  0  0  0
 21 22  1  0  0  0  0
 22 14  1  0  0  0  0
 23 28  1  0  0  0  0
 27  5  1  0  0  0  0
 28  6  1  0  0  0  0
 28  9  2  0  0  0  0
 29 30  1  0  0  0  0
 29 20  1  0  0  0  0
 30 31  1  0  0  0  0
 32 30  2  0  0  0  0
M  END
>  <MODEL>
3

>  <REMARK>
 VINA RESULT:     -10.0      3.112      5.650
  Name = 
  2 active torsions:
  status: ('A' for Active; 'I' for Inactive)
    1  A    between atoms: C_1  and  O_10
    2  A    between atoms: O_10  and  C_24
                            x       y       z     vdW  Elec       q    Type
                         _______ _______ _______ _____ _____    ______ ____

>  <TORSDO>
F 2

$$$$
=
 OpenBabel10262421293D

 32 38  0  0  1  0  0  0  0  0999 V2000
  180.8100  180.1350  139.5690 C   0  0  1  0  0  3  0  0  0  0  0  0
  185.3160  178.5930  141.6370 C   0  0  0  0  0  0  0  0  0  0  0  0
  184.5500  178.6240  146.4040 C   0  0  0  0  0  3  0  0  0  0  0  0
  185.9280  178.2320  146.6620 C   0  0  0  0  0  3  0  0  0  0  0  0
  187.6100  178.1550  140.7550 C   0  0  0  0  0  0  0  0  0  0  0  0
  188.9660  177.8650  140.9990 C   0  0  0  0  0  0  0  0  0  0  0  0
  183.4800  178.9500  139.9620 C   0  0  1  0  0  3  0  0  0  0  0  0
  182.9880  178.6170  142.4260 C   0  0  0  0  0  2  0  0  0  0  0  0
  190.7480  177.4220  142.1050 C   0  0  0  0  0  0  0  0  0  0  0  0
  180.9890  179.1460  140.6590 C   0  0  2  0  0  3  0  0  0  0  0  0
  184.0720  178.7100  145.0610 C   0  0  0  0  0  3  0  0  0  0  0  0
  184.4780  178.5650  142.7130 N   0  0  0  0  0  0  0  0  0  0  0  0
  184.9130  178.4970  143.9710 C   0  0  0  0  0  0  0  0  0  0  0  0
  187.1930  178.0300  143.1310 C   0  0  0  0  0  0  0  0  0  0  0  0
  191.0400  177.4550  140.8230 N   0  0  0  0  0  0  0  0  0  0  0  0
  181.9890  180.7810  138.8520 C   0  0  0  0  0  2  0  0  0  0  0  0
  182.5530  179.3340  141.1300 C   0  0  2  0  0  3  0  0  0  0  0  0
  189.9310  177.7220  140.1090 N   0  0  0  0  0  0  0  0  0  0  0  0
  183.2930  179.8470  138.7110 C   0  0  0  0  0  2  0  0  0  0  0  0
  180.8610  178.6220  139.2910 C   0  0  1  0  0  3  0  0  0  0  0  0
  186.7510  178.0610  145.5390 C   0  0  0  0  0  3  0  0  0  0  0  0
  186.3050  178.1700  144.2120 C   0  0  0  0  0  0  0  0  0  0  0  0
  188.5790  177.7790  143.3690 C   0  0  0  0  0  3  0  0  0  0  0  0
  184.8870  179.0020  140.3040 C   0  0  0  0  0  2  0  0  0  0  0  0
  187.3000  178.4360  139.3680 O   0  0  0  0  0  1  0  0  0  0  0  0
  191.7250  177.1780  143.2000 C   0  0  0  0  0  1  0  0  0  0  0  0
  186.7020  178.2580  141.8510 C   0  0  0  0  0  0  0  0  0  0  0  0
  189.4020  177.6700  142.2770 C   0  0  0  0  0  0  0  0  0  0  0  0
  179.7330  178.6050  138.4900 O   0  0  0  0  0  0  0  0  0  0  0  0
  179.5710  178.1070  137.1680 C   0  0  0  0  0  0  0  0  0  0  0  0
  180.0870  178.8460  136.0370 C   0  0  0  0  0  1  0  0  0  0  0  0
  178.9310  177.0520  137.0400 O   0  0  0  0  0  0  0  0  0  0  0  0
  1 16  1  6  0  0  0
  1 10  1  0  0  0  0
  2 27  2  0  0  0  0
  2 12  1  0  0  0  0
  3  4  1  0  0  0  0
  5  6  2  0  0  0  0
  5 27  1  0  0  0  0
  6 28  1  0  0  0  0
  7 19  1  6  0  0  0
  7 24  1  0  0  0  0
  7 17  1  0  0  0  0
  8 12  1  0  0  0  0
  9 28  2  0  0  0  0
  9 26  1  0  0  0  0
 10 17  1  0  0  0  0
 11  3  2  0  0  0  0
 12 13  1  0  0  0  0
 13 22  2  0  0  0  0
 13 11  1  0  0  0  0
 14 23  2  0  0  0  0
 14 22  1  0  0  0  0
 15  9  1  0  0  0  0
 17  8  1  0  0  0  0
 18 15  2  0  0  0  0
 18  6  1  0  0  0  0
 19 16  1  0  0  0  0
 20  1  1  0  0  0  0
 20 10  1  0  0  0  0
 21  4  2  0  0  0  0
 22 21  1  0  0  0  0
 24  2  1  0  0  0  0
 25  5  1  0  0  0  0
 27 14  1  0  0  0  0
 28 23  1  0  0  0  0
 29 20  1  0  0  0  0
 30 29  1  0  0  0  0
 31 30  1  0  0  0  0
 32 30  2  0  0  0  0
M  END
>  <MODEL>
4

>  <REMARK>
 VINA RESULT:      -9.5      3.656      5.658
  Name = 
  2 active torsions:
  status: ('A' for Active; 'I' for Inactive)
    1  A    between atoms: C_1  and  O_10
    2  A    between atoms: O_10  and  C_24
                            x       y       z     vdW  Elec       q    Type
                         _______ _______ _______ _____ _____    ______ ____

>  <TORSDO>
F 2

$$$$
=
 OpenBabel10262421293D

 32 38  0  0  1  0  0  0  0  0999 V2000
  181.0140  179.0340  138.9620 C   0  0  1  0  0  3  0  0  0  0  0  0
  185.2440  178.4610  141.9170 C   0  0  0  0  0  0  0  0  0  0  0  0
  188.8520  177.7990  138.7770 C   0  0  0  0  0  3  0  0  0  0  0  0
  189.8080  177.6220  139.8600 C   0  0  0  0  0  3  0  0  0  0  0  0
  185.6730  178.2180  144.3640 C   0  0  0  0  0  0  0  0  0  0  0  0
  186.5730  177.9580  145.4160 C   0  0  0  0  0  0  0  0  0  0  0  0
  182.9220  179.1010  141.2070 C   0  0  1  0  0  3  0  0  0  0  0  0
  184.8640  179.1130  139.5780 C   0  0  0  0  0  2  0  0  0  0  0  0
  188.4280  177.5240  146.3980 C   0  0  0  0  0  0  0  0  0  0  0  0
  182.3350  179.6690  138.7440 C   0  0  2  0  0  3  0  0  0  0  0  0
  187.4960  178.1440  139.0690 C   0  0  0  0  0  3  0  0  0  0  0  0
  185.7770  178.5780  140.6670 N   0  0  0  0  0  0  0  0  0  0  0  0
  187.0360  178.2480  140.3790 C   0  0  0  0  0  0  0  0  0  0  0  0
  187.5040  178.0300  142.8000 C   0  0  0  0  0  0  0  0  0  0  0  0
  187.4820  177.6340  147.3050 N   0  0  0  0  0  0  0  0  0  0  0  0
  180.7180  178.1610  140.1750 C   0  0  0  0  0  2  0  0  0  0  0  0
  183.3520  178.8550  139.7480 C   0  0  2  0  0  3  0  0  0  0  0  0
  186.3090  177.9170  146.7090 N   0  0  0  0  0  0  0  0  0  0  0  0
  181.4950  178.5830  141.5210 C   0  0  0  0  0  2  0  0  0  0  0  0
  181.3220  180.4540  139.4670 C   0  0  1  0  0  3  0  0  0  0  0  0
  189.2970  177.7010  141.1650 C   0  0  0  0  0  3  0  0  0  0  0  0
  187.9620  178.0100  141.4700 C   0  0  0  0  0  0  0  0  0  0  0  0
  188.3980  177.7250  143.8700 C   0  0  0  0  0  3  0  0  0  0  0  0
  183.8090  178.4910  142.1760 C   0  0  0  0  0  2  0  0  0  0  0  0
  184.2900  178.3340  144.7770 O   0  0  0  0  0  1  0  0  0  0  0  0
  189.8510  177.1950  146.6810 C   0  0  0  0  0  1  0  0  0  0  0  0
  186.1480  178.2370  143.0180 C   0  0  0  0  0  0  0  0  0  0  0  0
  187.8920  177.7400  145.1450 C   0  0  0  0  0  0  0  0  0  0  0  0
  180.1660  181.0210  138.9600 O   0  0  0  0  0  0  0  0  0  0  0  0
  179.9770  182.2850  138.3380 C   0  0  0  0  0  0  0  0  0  0  0  0
  180.8050  182.6840  137.2210 C   0  0  0  0  0  1  0  0  0  0  0  0
  179.1150  183.0300  138.8300 O   0  0  0  0  0  0  0  0  0  0  0  0
  1 20  1  0  0  0  0
  1 16  1  1  0  0  0
  2 24  1  0  0  0  0
  2 27  2  0  0  0  0
  3 11  2  0  0  0  0
  3  4  1  0  0  0  0
  4 21  2  0  0  0  0
  5 25  1  0  0  0  0
  5  6  2  0  0  0  0
  6 18  1  0  0  0  0
  7 19  1  6  0  0  0
  7 24  1  0  0  0  0
  8 17  1  0  0  0  0
  8 12  1  0  0  0  0
  9 26  1  0  0  0  0
  9 15  1  0  0  0  0
 10  1  1  0  0  0  0
 10 20  1  0  0  0  0
 10 17  1  0  0  0  0
 11 13  1  0  0  0  0
 12  2  1  0  0  0  0
 13 12  1  0  0  0  0
 13 22  2  0  0  0  0
 14 27  1  0  0  0  0
 14 23  2  0  0  0  0
 16 19  1  0  0  0  0
 17  7  1  0  0  0  0
 18 15  2  0  0  0  0
 21 22  1  0  0  0  0
 22 14  1  0  0  0  0
 23 28  1  0  0  0  0
 27  5  1  0  0  0  0
 28  6  1  0  0  0  0
 28  9  2  0  0  0  0
 29 20  1  0  0  0  0
 30 32  2  0  0  0  0
 30 29  1  0  0  0  0
 31 30  1  0  0  0  0
M  END
>  <MODEL>
5

>  <REMARK>
 VINA RESULT:      -9.4      3.774      6.142
  Name = 
  2 active torsions:
  status: ('A' for Active; 'I' for Inactive)
    1  A    between atoms: C_1  and  O_10
    2  A    between atoms: O_10  and  C_24
                            x       y       z     vdW  Elec       q    Type
                         _______ _______ _______ _____ _____    ______ ____

>  <TORSDO>
F 2

$$$$
=
 OpenBabel10262421293D

 32 38  0  0  1  0  0  0  0  0999 V2000
  182.1370  179.5560  139.2880 C   0  0  1  0  0  3  0  0  0  0  0  0
  186.1050  178.1180  142.3110 C   0  0  0  0  0  0  0  0  0  0  0  0
  184.4790  178.6900  146.8210 C   0  0  0  0  0  3  0  0  0  0  0  0
  185.7650  178.2890  147.3720 C   0  0  0  0  0  3  0  0  0  0  0  0
  188.4980  177.5220  141.9250 C   0  0  0  0  0  0  0  0  0  0  0  0
  189.7710  177.2210  142.4480 C   0  0  0  0  0  0  0  0  0  0  0  0
  184.6280  178.3440  140.2930 C   0  0  1  0  0  3  0  0  0  0  0  0
  183.6760  178.2950  142.6420 C   0  0  0  0  0  2  0  0  0  0  0  0
  191.2950  176.8500  143.9080 C   0  0  0  0  0  0  0  0  0  0  0  0
  182.0640  178.6870  140.4870 C   0  0  2  0  0  3  0  0  0  0  0  0
  184.2600  178.6440  145.4100 C   0  0  0  0  0  3  0  0  0  0  0  0
  185.0830  178.2330  143.2080 N   0  0  0  0  0  0  0  0  0  0  0  0
  185.2760  178.2890  144.5260 C   0  0  0  0  0  0  0  0  0  0  0  0
  187.6460  177.6670  144.1800 C   0  0  0  0  0  0  0  0  0  0  0  0
  191.8190  176.7340  142.7070 N   0  0  0  0  0  0  0  0  0  0  0  0
  183.4580  180.0860  138.7430 C   0  0  0  0  0  2  0  0  0  0  0  0
  183.5220  178.8800  141.2210 C   0  0  2  0  0  3  0  0  0  0  0  0
  190.8740  176.9540  141.7740 N   0  0  0  0  0  0  0  0  0  0  0  0
  184.7180  179.1050  138.9450 C   0  0  0  0  0  2  0  0  0  0  0  0
  182.1640  178.0210  139.1790 C   0  0  1  0  0  3  0  0  0  0  0  0
  186.7710  177.9730  146.4470 C   0  0  0  0  0  3  0  0  0  0  0  0
  186.5820  177.9500  145.0560 C   0  0  0  0  0  0  0  0  0  0  0  0
  188.9500  177.4040  144.6980 C   0  0  0  0  0  3  0  0  0  0  0  0
  185.9480  178.3930  140.8870 C   0  0  0  0  0  2  0  0  0  0  0  0
  188.4620  177.6590  140.4840 O   0  0  0  0  0  1  0  0  0  0  0  0
  192.0420  176.6980  145.1860 C   0  0  0  0  0  1  0  0  0  0  0  0
  187.4110  177.7690  142.8150 C   0  0  0  0  0  0  0  0  0  0  0  0
  189.9540  177.1530  143.7980 C   0  0  0  0  0  0  0  0  0  0  0  0
  181.2030  177.9500  138.1860 O   0  0  0  0  0  0  0  0  0  0  0  0
  181.2660  177.3240  136.9110 C   0  0  0  0  0  0  0  0  0  0  0  0
  182.4420  177.4680  136.0810 C   0  0  0  0  0  1  0  0  0  0  0  0
  180.2570  176.7050  136.5380 O   0  0  0  0  0  0  0  0  0  0  0  0
  1 16  1  1  0  0  0
  1 10  1  0  0  0  0
  2 27  2  0  0  0  0
  2 12  1  0  0  0  0
  3  4  1  0  0  0  0
  5  6  2  0  0  0  0
  5 27  1  0  0  0  0
  6 28  1  0  0  0  0
  7 19  1  6  0  0  0
  7 24  1  0  0  0  0
  7 17  1  0  0  0  0
  8 12  1  0  0  0  0
  9 26  1  0  0  0  0
 10 17  1  0  0  0  0
 11  3  2  0  0  0  0
 12 13  1  0  0  0  0
 13 22  2  0  0  0  0
 13 11  1  0  0  0  0
 14 23  2  0  0  0  0
 14 22  1  0  0  0  0
 15  9  1  0  0  0  0
 16 19  1  0  0  0  0
 17  8  1  0  0  0  0
 18  6  1  0  0  0  0
 18 15  2  0  0  0  0
 20  1  1  0  0  0  0
 20 10  1  0  0  0  0
 21  4  2  0  0  0  0
 22 21  1  0  0  0  0
 24  2  1  0  0  0  0
 25  5  1  0  0  0  0
 27 14  1  0  0  0  0
 28  9  2  0  0  0  0
 28 23  1  0  0  0  0
 29 20  1  0  0  0  0
 30 29  1  0  0  0  0
 31 30  1  0  0  0  0
 32 30  2  0  0  0  0
M  END
>  <MODEL>
6

>  <REMARK>
 VINA RESULT:      -9.1      3.074      4.573
  Name = 
  2 active torsions:
  status: ('A' for Active; 'I' for Inactive)
    1  A    between atoms: C_1  and  O_10
    2  A    between atoms: O_10  and  C_24
                            x       y       z     vdW  Elec       q    Type
                         _______ _______ _______ _____ _____    ______ ____

>  <TORSDO>
F 2

$$$$
=
 OpenBabel10262421293D

 32 38  0  0  1  0  0  0  0  0999 V2000
  191.1140  176.7250  137.0820 C   0  0  1  0  0  3  0  0  0  0  0  0
  189.3980  177.1830  141.9620 C   0  0  0  0  0  0  0  0  0  0  0  0
  185.0600  179.2600  141.5450 C   0  0  0  0  0  3  0  0  0  0  0  0
  184.9010  179.2970  142.9920 C   0  0  0  0  0  3  0  0  0  0  0  0
  190.3880  176.8280  144.2250 C   0  0  0  0  0  0  0  0  0  0  0  0
  190.2820  176.9420  145.6250 C   0  0  0  0  0  0  0  0  0  0  0  0
  190.7170  176.3780  139.9820 C   0  0  1  0  0  3  0  0  0  0  0  0
  188.3070  177.1310  139.7600 C   0  0  0  0  0  2  0  0  0  0  0  0
  189.4210  177.4010  147.5340 C   0  0  0  0  0  0  0  0  0  0  0  0
  189.7520  176.4030  137.5740 C   0  0  2  0  0  3  0  0  0  0  0  0
  186.2030  178.6280  140.9680 C   0  0  0  0  0  3  0  0  0  0  0  0
  188.2890  177.4980  141.2330 N   0  0  0  0  0  0  0  0  0  0  0  0
  187.2210  178.0990  141.7570 C   0  0  0  0  0  0  0  0  0  0  0  0
  188.1590  177.7340  144.0190 C   0  0  0  0  0  0  0  0  0  0  0  0
  190.6200  176.8940  147.7190 N   0  0  0  0  0  0  0  0  0  0  0  0
  192.2320  177.1780  138.0140 C   0  0  0  0  0  2  0  0  0  0  0  0
  189.6880  177.0750  139.0730 C   0  0  2  0  0  3  0  0  0  0  0  0
  191.1760  176.5900  146.5310 N   0  0  0  0  0  0  0  0  0  0  0  0
  192.1790  176.5450  139.4940 C   0  0  0  0  0  2  0  0  0  0  0  0
  190.7150  175.2940  137.4840 C   0  0  1  0  0  3  0  0  0  0  0  0
  185.9640  178.7870  143.7510 C   0  0  0  0  0  3  0  0  0  0  0  0
  187.1080  178.1870  143.2010 C   0  0  0  0  0  0  0  0  0  0  0  0
  188.0800  177.8850  145.4360 C   0  0  0  0  0  3  0  0  0  0  0  0
  190.6810  176.8450  141.3530 C   0  0  0  0  0  2  0  0  0  0  0  0
  191.6830  176.3750  143.7600 O   0  0  0  0  0  1  0  0  0  0  0  0
  188.5160  177.8760  148.6150 C   0  0  0  0  0  1  0  0  0  0  0  0
  189.3050  177.2510  143.3990 C   0  0  0  0  0  0  0  0  0  0  0  0
  189.1420  177.4430  146.1830 C   0  0  0  0  0  0  0  0  0  0  0  0
  191.2210  174.6990  136.3410 O   0  0  0  0  0  0  0  0  0  0  0  0
  192.0830  173.5760  136.2140 C   0  0  0  0  0  0  0  0  0  0  0  0
  193.4700  173.6660  136.6150 C   0  0  0  0  0  1  0  0  0  0  0  0
  191.6010  172.5530  135.7030 O   0  0  0  0  0  0  0  0  0  0  0  0
  1 20  1  0  0  0  0
  1 10  1  0  0  0  0
  1 16  1  1  0  0  0
  2 27  2  0  0  0  0
  3  4  1  0  0  0  0
  4 21  2  0  0  0  0
  5  6  2  0  0  0  0
  6 28  1  0  0  0  0
  6 18  1  0  0  0  0
  7 19  1  6  0  0  0
  7 24  1  0  0  0  0
  8 12  1  0  0  0  0
  9 15  1  0  0  0  0
  9 26  1  0  0  0  0
 10 17  1  0  0  0  0
 11  3  2  0  0  0  0
 11 13  1  0  0  0  0
 12 13  1  0  0  0  0
 12  2  1  0  0  0  0
 13 22  2  0  0  0  0
 14 23  2  0  0  0  0
 16 19  1  0  0  0  0
 17  8  1  0  0  0  0
 17  7  1  0  0  0  0
 18 15  2  0  0  0  0
 20 10  1  0  0  0  0
 22 21  1  0  0  0  0
 22 14  1  0  0  0  0
 23 28  1  0  0  0  0
 24  2  1  0  0  0  0
 25  5  1  0  0  0  0
 27 14  1  0  0  0  0
 27  5  1  0  0  0  0
 28  9  2  0  0  0  0
 29 20  1  0  0  0  0
 30 29  1  0  0  0  0
 30 31  1  0  0  0  0
 32 30  2  0  0  0  0
M  END
>  <MODEL>
7

>  <REMARK>
 VINA RESULT:      -8.8      1.956      2.624
  Name = 
  2 active torsions:
  status: ('A' for Active; 'I' for Inactive)
    1  A    between atoms: C_1  and  O_10
    2  A    between atoms: O_10  and  C_24
                            x       y       z     vdW  Elec       q    Type
                         _______ _______ _______ _____ _____    ______ ____

>  <TORSDO>
F 2

$$$$
=
 OpenBabel10262421293D

 32 38  0  0  1  0  0  0  0  0999 V2000
  191.7480  177.8680  144.2700 C   0  0  1  0  0  3  0  0  0  0  0  0
  187.4510  178.1150  141.3660 C   0  0  0  0  0  0  0  0  0  0  0  0
  189.0560  178.2470  136.8140 C   0  0  0  0  0  3  0  0  0  0  0  0
  187.6980  178.3690  136.3030 C   0  0  0  0  0  3  0  0  0  0  0  0
  185.0180  178.4190  141.8290 C   0  0  0  0  0  0  0  0  0  0  0  0
  183.7100  178.6280  141.3490 C   0  0  0  0  0  0  0  0  0  0  0  0
  188.9600  177.6970  143.3290 C   0  0  1  0  0  3  0  0  0  0  0  0
  189.7660  177.4050  140.9430 C   0  0  0  0  0  2  0  0  0  0  0  0
  182.1180  178.9040  139.9410 C   0  0  0  0  0  0  0  0  0  0  0  0
  191.4660  177.0860  143.0430 C   0  0  2  0  0  3  0  0  0  0  0  0
  189.2790  178.0630  138.2130 C   0  0  0  0  0  3  0  0  0  0  0  0
  188.4200  177.8870  140.4330 N   0  0  0  0  0  0  0  0  0  0  0  0
  188.2270  178.0670  139.1260 C   0  0  0  0  0  0  0  0  0  0  0  0
  185.8040  178.3410  139.5470 C   0  0  0  0  0  0  0  0  0  0  0  0
  181.6200  178.9360  141.1570 N   0  0  0  0  0  0  0  0  0  0  0  0
  190.7290  178.8210  144.8830 C   0  0  0  0  0  2  0  0  0  0  0  0
  190.1610  177.8300  142.3730 C   0  0  2  0  0  3  0  0  0  0  0  0
  182.6040  178.7550  142.0590 N   0  0  0  0  0  0  0  0  0  0  0  0
  189.1910  178.3780  144.7020 C   0  0  0  0  0  2  0  0  0  0  0  0
  191.1620  176.4470  144.3330 C   0  0  1  0  0  3  0  0  0  0  0  0
  186.6700  178.4040  137.2580 C   0  0  0  0  0  3  0  0  0  0  0  0
  186.8740  178.2530  138.6390 C   0  0  0  0  0  0  0  0  0  0  0  0
  184.4810  178.5960  139.0740 C   0  0  0  0  0  3  0  0  0  0  0  0
  187.7350  178.2510  142.7900 C   0  0  0  0  0  2  0  0  0  0  0  0
  185.1390  178.4710  143.2720 O   0  0  0  0  0  1  0  0  0  0  0  0
  181.3350  179.0920  138.6900 C   0  0  0  0  0  1  0  0  0  0  0  0
  186.0960  178.2900  140.9040 C   0  0  0  0  0  0  0  0  0  0  0  0
  183.4800  178.6910  140.0060 C   0  0  0  0  0  0  0  0  0  0  0  0
  192.0550  175.9860  145.2830 O   0  0  0  0  0  0  0  0  0  0  0  0
  191.8860  175.8420  146.6870 C   0  0  0  0  0  0  0  0  0  0  0  0
  190.7130  176.3780  147.3430 C   0  0  0  0  0  1  0  0  0  0  0  0
  192.8050  175.2870  147.3100 O   0  0  0  0  0  0  0  0  0  0  0  0
  1 20  1  0  0  0  0
  1 16  1  6  0  0  0
  2 24  1  0  0  0  0
  3 11  1  0  0  0  0
  4  3  2  0  0  0  0
  4 21  1  0  0  0  0
  5 25  1  0  0  0  0
  6  5  2  0  0  0  0
  6 18  1  0  0  0  0
  7 24  1  6  0  0  0
  7 19  1  0  0  0  0
  8 17  1  0  0  0  0
  9 28  2  0  0  0  0
  9 15  1  0  0  0  0
 10  1  1  0  0  0  0
 10 20  1  0  0  0  0
 11 13  2  0  0  0  0
 12  8  1  0  0  0  0
 12  2  1  0  0  0  0
 13 12  1  0  0  0  0
 14 27  1  0  0  0  0
 15 18  2  0  0  0  0
 17 10  1  0  0  0  0
 17  7  1  0  0  0  0
 19 16  1  0  0  0  0
 20 29  1  0  0  0  0
 21 22  2  0  0  0  0
 22 13  1  0  0  0  0
 22 14  1  0  0  0  0
 23 14  2  0  0  0  0
 23 28  1  0  0  0  0
 26  9  1  0  0  0  0
 27  2  2  0  0  0  0
 27  5  1  0  0  0  0
 28  6  1  0  0  0  0
 29 30  1  0  0  0  0
 30 32  2  0  0  0  0
 30 31  1  0  0  0  0
M  END
>  <MODEL>
8

>  <REMARK>
 VINA RESULT:      -8.8      3.347      7.719
  Name = 
  2 active torsions:
  status: ('A' for Active; 'I' for Inactive)
    1  A    between atoms: C_1  and  O_10
    2  A    between atoms: O_10  and  C_24
                            x       y       z     vdW  Elec       q    Type
                         _______ _______ _______ _____ _____    ______ ____

>  <TORSDO>
F 2

$$$$
=
 OpenBabel10262421293D

 32 38  0  0  1  0  0  0  0  0999 V2000
  193.2950  175.1940  136.6170 C   0  0  1  0  0  3  0  0  0  0  0  0
  189.7500  177.2320  139.8170 C   0  0  0  0  0  0  0  0  0  0  0  0
  191.6180  176.6670  144.2330 C   0  0  0  0  0  3  0  0  0  0  0  0
  190.4310  177.2440  144.8470 C   0  0  0  0  0  3  0  0  0  0  0  0
  187.4230  178.0950  139.5590 C   0  0  0  0  0  0  0  0  0  0  0  0
  186.2350  178.5700  140.1480 C   0  0  0  0  0  0  0  0  0  0  0  0
  191.0420  176.7410  137.7200 C   0  0  1  0  0  3  0  0  0  0  0  0
  192.1590  176.7780  139.9950 C   0  0  0  0  0  2  0  0  0  0  0  0
  184.8730  179.1860  141.6840 C   0  0  0  0  0  0  0  0  0  0  0  0
  193.5560  176.1000  137.7620 C   0  0  2  0  0  3  0  0  0  0  0  0
  191.7380  176.6240  142.8110 C   0  0  0  0  0  3  0  0  0  0  0  0
  190.8130  177.0340  140.6490 N   0  0  0  0  0  0  0  0  0  0  0  0
  190.7110  177.0590  141.9780 C   0  0  0  0  0  0  0  0  0  0  0  0
  188.4110  177.9470  141.7570 C   0  0  0  0  0  0  0  0  0  0  0  0
  184.2820  179.3120  140.5170 N   0  0  0  0  0  0  0  0  0  0  0  0
  191.8860  174.8040  136.1890 C   0  0  0  0  0  2  0  0  0  0  0  0
  192.1420  176.1170  138.6000 C   0  0  2  0  0  3  0  0  0  0  0  0
  185.1250  178.9380  139.5360 N   0  0  0  0  0  0  0  0  0  0  0  0
  190.7670  175.9390  136.4220 C   0  0  0  0  0  2  0  0  0  0  0  0
  193.4410  176.7150  136.4300 C   0  0  1  0  0  3  0  0  0  0  0  0
  189.4040  177.6380  143.9740 C   0  0  0  0  0  3  0  0  0  0  0  0
  189.4940  177.5770  142.5740 C   0  0  0  0  0  0  0  0  0  0  0  0
  187.1870  178.3880  142.3460 C   0  0  0  0  0  3  0  0  0  0  0  0
  189.7710  176.8780  138.4020 C   0  0  0  0  0  2  0  0  0  0  0  0
  187.3390  177.8920  138.1270 O   0  0  0  0  0  1  0  0  0  0  0  0
  184.2430  179.4830  142.9990 C   0  0  0  0  0  1  0  0  0  0  0  0
  188.5340  177.7570  140.3870 C   0  0  0  0  0  0  0  0  0  0  0  0
  186.1580  178.7180  141.5020 C   0  0  0  0  0  0  0  0  0  0  0  0
  194.3300  176.6260  135.3740 O   0  0  0  0  0  0  0  0  0  0  0  0
  195.6020  177.2400  135.2100 C   0  0  0  0  0  0  0  0  0  0  0  0
  196.7740  176.4370  134.9360 C   0  0  0  0  0  1  0  0  0  0  0  0
  195.6560  178.4700  135.3620 O   0  0  0  0  0  0  0  0  0  0  0  0
  1 16  1  1  0  0  0
  1 10  1  0  0  0  0
  2 27  2  0  0  0  0
  2 12  1  0  0  0  0
  3  4  1  0  0  0  0
  5  6  2  0  0  0  0
  5 27  1  0  0  0  0
  6 28  1  0  0  0  0
  7 19  1  6  0  0  0
  7 24  1  0  0  0  0
  7 17  1  0  0  0  0
  8 12  1  0  0  0  0
  9 26  1  0  0  0  0
 10 17  1  0  0  0  0
 11  3  2  0  0  0  0
 12 13  1  0  0  0  0
 13 22  2  0  0  0  0
 13 11  1  0  0  0  0
 14 23  2  0  0  0  0
 14 22  1  0  0  0  0
 15  9  1  0  0  0  0
 16 19  1  0  0  0  0
 17  8  1  0  0  0  0
 18  6  1  0  0  0  0
 18 15  2  0  0  0  0
 20  1  1  0  0  0  0
 20 10  1  0  0  0  0
 21  4  2  0  0  0  0
 22 21  1  0  0  0  0
 24  2  1  0  0  0  0
 25  5  1  0  0  0  0
 27 14  1  0  0  0  0
 28  9  2  0  0  0  0
 28 23  1  0  0  0  0
 29 20  1  0  0  0  0
 30 32  2  0  0  0  0
 30 29  1  0  0  0  0
 31 30  1  0  0  0  0
M  END
>  <MODEL>
9

>  <REMARK>
 VINA RESULT:      -8.7      3.127      6.128
  Name = 
  2 active torsions:
  status: ('A' for Active; 'I' for Inactive)
    1  A    between atoms: C_1  and  O_10
    2  A    between atoms: O_10  and  C_24
                            x       y       z     vdW  Elec       q    Type
                         _______ _______ _______ _____ _____    ______ ____

>  <TORSDO>
F 2

$$$$
