=
 OpenBabel10262423373D

 34 37  0  0  1  0  0  0  0  0999 V2000
  188.8400  177.0790  142.9270 O   0  0  0  0  0  0  0  0  0  0  0  0
  190.1590  178.9170  143.8900 C   0  0  1  0  0  3  0  0  0  0  0  0
  191.7860  176.6770  145.0580 C   0  0  0  0  0  2  0  0  0  0  0  0
  191.2280  176.9900  142.6480 C   0  0  0  0  0  0  0  0  0  0  0  0
  190.0170  177.8700  142.7720 C   0  0  1  0  0  3  0  0  0  0  0  0
  189.9100  178.4230  145.3210 C   0  0  0  0  0  2  0  0  0  0  0  0
  191.9380  177.1010  141.6610 O   0  0  0  0  0  0  0  0  0  0  0  0
  192.7210  175.2920  143.3800 F   0  0  0  0  0  0  0  0  0  0  0  0
  190.4340  177.0250  145.6710 C   0  0  2  0  0  3  0  0  0  0  0  0
  191.5760  175.9920  143.7180 C   0  0  1  0  0  3  0  0  0  0  0  0
  191.3840  179.5840  143.8070 O   0  0  0  0  0  1  0  0  0  0  0  0
  190.4300  176.8060  147.1550 C   0  0  0  0  0  0  0  0  0  0  0  0
  191.3550  175.9950  147.6590 C   0  0  0  0  0  2  0  0  0  0  0  0
  189.4740  177.4360  148.0340 N   0  0  0  0  0  0  0  0  0  0  0  0
  189.8490  178.5290  148.7440 O   0  0  0  0  0  1  0  0  0  0  0  0
  187.1980  178.1550  147.6080 C   0  0  0  0  0  2  0  0  0  0  0  0
  187.3670  177.8510  148.9690 O   0  0  0  0  0  0  0  0  0  0  0  0
  188.0670  177.0400  148.0550 C   0  0  2  0  0  3  0  0  0  0  0  0
  185.7830  178.9000  141.8650 C   0  0  0  0  0  0  0  0  0  0  0  0
  185.3460  179.6350  140.7670 O   0  0  0  0  0  1  0  0  0  0  0  0
  184.9330  178.6850  142.9740 C   0  0  0  0  0  0  0  0  0  0  0  0
  185.4090  177.9360  144.0570 C   0  0  0  0  0  3  0  0  0  0  0  0
  187.0880  178.3720  141.8640 C   0  0  0  0  0  0  0  0  0  0  0  0
  186.6980  177.4050  144.0490 C   0  0  0  0  0  3  0  0  0  0  0  0
  187.5440  177.6130  142.9520 C   0  0  0  0  0  0  0  0  0  0  0  0
  183.5560  179.2290  143.0390 C   0  0  0  0  0  0  0  0  0  0  0  0
  183.2530  180.1340  143.8600 O   0  0  0  0  0  0  0  0  0  0  0  0
  182.5460  178.7280  142.1660 N   0  0  0  0  0  1  0  0  0  0  0  0
  187.9910  178.6100  140.6960 C   0  0  0  0  0  2  0  0  0  0  0  0
  187.9240  177.5290  139.8140 O   0  0  0  0  0  0  0  0  0  0  0  0
  188.9630  177.0530  137.7790 N   0  0  0  0  0  0  0  0  0  0  0  0
  189.1000  178.4910  138.0400 C   0  0  0  0  0  2  0  0  0  0  0  0
  189.1520  177.5460  139.1500 C   0  0  1  0  0  3  0  0  0  0  0  0
  190.1740  176.6180  137.3560 O   0  0  0  0  0  1  0  0  0  0  0  0
  1 25  1  0  0  0  0
  2 11  1  1  0  0  0
  2  6  1  0  0  0  0
  3  9  1  0  0  0  0
  4  5  1  0  0  0  0
  4 10  1  0  0  0  0
  5  1  1  1  0  0  0
  5  2  1  0  0  0  0
  6  9  1  0  0  0  0
  7  4  2  0  0  0  0
  9 12  1  1  0  0  0
 10  8  1  6  0  0  0
 10  3  1  0  0  0  0
 12 13  2  0  0  0  0
 12 14  1  0  0  0  0
 14 15  1  0  0  0  0
 16 18  1  0  0  0  0
 16 17  1  0  0  0  0
 18 14  1  1  0  0  0
 18 17  1  0  0  0  0
 19 21  1  0  0  0  0
 20 19  1  0  0  0  0
 21 26  1  0  0  0  0
 21 22  2  0  0  0  0
 23 19  2  0  0  0  0
 23 25  1  0  0  0  0
 24 22  1  0  0  0  0
 25 24  2  0  0  0  0
 26 27  2  0  0  0  0
 28 26  1  0  0  0  0
 29 23  1  0  0  0  0
 30 29  1  0  0  0  0
 31 32  1  0  0  0  0
 31 33  1  0  0  0  0
 32 33  1  0  0  0  0
 33 30  1  1  0  0  0
 34 31  1  0  0  0  0
M  END
>  <MODEL>
1

>  <REMARK>
 VINA RESULT:      -7.9      0.000      0.000
  Name = 
  9 active torsions:
  status: ('A' for Active; 'I' for Inactive)
    1  A    between atoms: O_1  and  C_9
    2  A    between atoms: O_1  and  C_34
    3  A    between atoms: C_3  and  C_25
    4  A    between atoms: C_5  and  O_22
    5  A    between atoms: C_5  and  C_32
    6  A    between atoms: N_11  and  C_21
    7  A    between atoms: N_11  and  C_26
    8  A    between atoms: C_19  and  O_22
    9  A    between atoms: C_26  and  C_28
                            x       y       z     vdW  Elec       q    Type
                         _______ _______ _______ _____ _____    ______ ____

>  <TORSDO>
F 9

$$$$
=
 OpenBabel10262423373D

 34 37  0  0  1  0  0  0  0  0999 V2000
  189.0660  177.1500  142.3440 O   0  0  0  0  0  0  0  0  0  0  0  0
  190.2290  178.9630  143.5290 C   0  0  1  0  0  3  0  0  0  0  0  0
  191.3050  176.7110  145.2030 C   0  0  0  0  0  2  0  0  0  0  0  0
  191.4280  176.8880  142.7190 C   0  0  0  0  0  0  0  0  0  0  0  0
  190.3020  177.8510  142.4690 C   0  0  1  0  0  3  0  0  0  0  0  0
  189.5740  178.5880  144.8650 C   0  0  0  0  0  2  0  0  0  0  0  0
  192.3800  176.8830  141.9540 O   0  0  0  0  0  0  0  0  0  0  0  0
  192.5340  175.1530  143.9090 F   0  0  0  0  0  0  0  0  0  0  0  0
  189.8730  177.1870  145.4130 C   0  0  2  0  0  3  0  0  0  0  0  0
  191.4010  175.9470  143.8920 C   0  0  1  0  0  3  0  0  0  0  0  0
  191.4830  179.5420  143.7430 O   0  0  0  0  0  1  0  0  0  0  0  0
  189.4600  177.0750  146.8510 C   0  0  0  0  0  0  0  0  0  0  0  0
  190.2800  176.4310  147.6760 C   0  0  0  0  0  2  0  0  0  0  0  0
  188.2280  177.6320  147.3560 N   0  0  0  0  0  0  0  0  0  0  0  0
  188.2760  178.5390  148.3630 O   0  0  0  0  0  1  0  0  0  0  0  0
  186.4060  178.6250  146.1030 C   0  0  0  0  0  2  0  0  0  0  0  0
  185.9420  178.1420  147.3370 O   0  0  0  0  0  0  0  0  0  0  0  0
  186.9440  177.3810  146.7040 C   0  0  2  0  0  3  0  0  0  0  0  0
  186.7950  178.5200  139.7460 C   0  0  0  0  0  0  0  0  0  0  0  0
  186.8270  178.7900  138.3810 O   0  0  0  0  0  1  0  0  0  0  0  0
  185.6290  178.7760  140.5040 C   0  0  0  0  0  0  0  0  0  0  0  0
  185.6350  178.4870  141.8740 C   0  0  0  0  0  3  0  0  0  0  0  0
  187.9390  177.9900  140.3700 C   0  0  0  0  0  0  0  0  0  0  0  0
  186.7670  177.9520  142.4880 C   0  0  0  0  0  3  0  0  0  0  0  0
  187.9230  177.6940  141.7420 C   0  0  0  0  0  0  0  0  0  0  0  0
  184.4000  179.3480  139.9060 C   0  0  0  0  0  0  0  0  0  0  0  0
  184.4480  180.3720  139.1740 O   0  0  0  0  0  0  0  0  0  0  0  0
  183.1340  178.7420  140.1550 N   0  0  0  0  0  1  0  0  0  0  0  0
  189.1760  177.7310  139.5700 C   0  0  0  0  0  2  0  0  0  0  0  0
  189.1490  176.4320  139.0590 O   0  0  0  0  0  0  0  0  0  0  0  0
  190.5400  175.0160  137.8310 N   0  0  0  0  0  0  0  0  0  0  0  0
  190.7510  176.3910  137.3600 C   0  0  0  0  0  2  0  0  0  0  0  0
  190.4840  176.1430  138.7730 C   0  0  1  0  0  3  0  0  0  0  0  0
  191.7670  174.4610  137.9690 O   0  0  0  0  0  1  0  0  0  0  0  0
  2 11  1  1  0  0  0
  2  6  1  0  0  0  0
  3  9  1  0  0  0  0
  4 10  1  0  0  0  0
  5  1  1  1  0  0  0
  5  4  1  0  0  0  0
  5  2  1  0  0  0  0
  6  9  1  0  0  0  0
  7  4  2  0  0  0  0
  9 12  1  1  0  0  0
 10  8  1  1  0  0  0
 10  3  1  0  0  0  0
 12 14  1  0  0  0  0
 12 13  2  0  0  0  0
 14 15  1  0  0  0  0
 16 18  1  0  0  0  0
 16 17  1  0  0  0  0
 18 17  1  0  0  0  0
 18 14  1  1  0  0  0
 19 23  2  0  0  0  0
 19 21  1  0  0  0  0
 20 19  1  0  0  0  0
 21 22  2  0  0  0  0
 22 24  1  0  0  0  0
 23 25  1  0  0  0  0
 25  1  1  0  0  0  0
 25 24  2  0  0  0  0
 26 28  1  0  0  0  0
 26 21  1  0  0  0  0
 27 26  2  0  0  0  0
 29 23  1  0  0  0  0
 30 29  1  0  0  0  0
 31 34  1  0  0  0  0
 31 33  1  0  0  0  0
 32 31  1  0  0  0  0
 32 33  1  0  0  0  0
 33 30  1  6  0  0  0
M  END
>  <MODEL>
2

>  <REMARK>
 VINA RESULT:      -7.8      1.546      1.917
  Name = 
  9 active torsions:
  status: ('A' for Active; 'I' for Inactive)
    1  A    between atoms: O_1  and  C_9
    2  A    between atoms: O_1  and  C_34
    3  A    between atoms: C_3  and  C_25
    4  A    between atoms: C_5  and  O_22
    5  A    between atoms: C_5  and  C_32
    6  A    between atoms: N_11  and  C_21
    7  A    between atoms: N_11  and  C_26
    8  A    between atoms: C_19  and  O_22
    9  A    between atoms: C_26  and  C_28
                            x       y       z     vdW  Elec       q    Type
                         _______ _______ _______ _____ _____    ______ ____

>  <TORSDO>
F 9

$$$$
=
 OpenBabel10262423373D

 34 37  0  0  1  0  0  0  0  0999 V2000
  189.4660  177.8300  142.1950 O   0  0  0  0  0  0  0  0  0  0  0  0
  190.7710  179.1820  143.7810 C   0  0  1  0  0  3  0  0  0  0  0  0
  191.0580  176.5690  145.2380 C   0  0  0  0  0  2  0  0  0  0  0  0
  191.6250  176.9910  142.8470 C   0  0  0  0  0  0  0  0  0  0  0  0
  190.7840  178.2090  142.5890 C   0  0  1  0  0  3  0  0  0  0  0  0
  189.8390  178.8190  144.9450 C   0  0  0  0  0  2  0  0  0  0  0  0
  192.6680  176.8530  142.2270 O   0  0  0  0  0  0  0  0  0  0  0  0
  192.1300  174.9260  143.9110 F   0  0  0  0  0  0  0  0  0  0  0  0
  189.7420  177.3350  145.3170 C   0  0  2  0  0  3  0  0  0  0  0  0
  191.2070  175.9560  143.8550 C   0  0  1  0  0  3  0  0  0  0  0  0
  192.0650  179.4290  144.2470 O   0  0  0  0  0  1  0  0  0  0  0  0
  189.0820  177.1600  146.6540 C   0  0  0  0  0  0  0  0  0  0  0  0
  189.7760  176.5400  147.6040 C   0  0  0  0  0  2  0  0  0  0  0  0
  187.7480  177.6340  146.9340 N   0  0  0  0  0  0  0  0  0  0  0  0
  187.5370  178.4050  148.0300 O   0  0  0  0  0  1  0  0  0  0  0  0
  186.0790  178.7630  145.5870 C   0  0  0  0  0  2  0  0  0  0  0  0
  185.4600  177.9500  146.5500 O   0  0  0  0  0  0  0  0  0  0  0  0
  186.6510  177.4540  145.9860 C   0  0  2  0  0  3  0  0  0  0  0  0
  187.4780  178.0760  139.0690 C   0  0  0  0  0  0  0  0  0  0  0  0
  186.2930  178.6680  138.6400 O   0  0  0  0  0  1  0  0  0  0  0  0
  188.2750  177.3270  138.1740 C   0  0  0  0  0  0  0  0  0  0  0  0
  189.4620  176.7510  138.6430 C   0  0  0  0  0  3  0  0  0  0  0  0
  187.8760  178.2280  140.4110 C   0  0  0  0  0  0  0  0  0  0  0  0
  189.8600  176.9120  139.9690 C   0  0  0  0  0  3  0  0  0  0  0  0
  189.0760  177.6540  140.8610 C   0  0  0  0  0  0  0  0  0  0  0  0
  187.8990  177.1200  136.7550 C   0  0  0  0  0  0  0  0  0  0  0  0
  187.1370  176.1770  136.4160 O   0  0  0  0  0  0  0  0  0  0  0  0
  188.4010  177.9930  135.7470 N   0  0  0  0  0  1  0  0  0  0  0  0
  187.0260  179.0090  141.3600 C   0  0  0  0  0  2  0  0  0  0  0  0
  186.0190  178.1930  141.8800 O   0  0  0  0  0  0  0  0  0  0  0  0
  183.7450  178.0280  141.3820 N   0  0  0  0  0  0  0  0  0  0  0  0
  183.8810  178.5670  142.7420 C   0  0  0  0  0  2  0  0  0  0  0  0
  184.8500  178.9370  141.7160 C   0  0  1  0  0  3  0  0  0  0  0  0
  182.8040  178.7780  140.7600 O   0  0  0  0  0  1  0  0  0  0  0  0
  2 11  1  1  0  0  0
  2  6  1  0  0  0  0
  3  9  1  0  0  0  0
  4 10  1  0  0  0  0
  5  1  1  1  0  0  0
  5  4  1  0  0  0  0
  5  2  1  0  0  0  0
  6  9  1  0  0  0  0
  7  4  2  0  0  0  0
  9 12  1  1  0  0  0
 10  8  1  1  0  0  0
 10  3  1  0  0  0  0
 12 14  1  0  0  0  0
 12 13  2  0  0  0  0
 14 15  1  0  0  0  0
 16 18  1  0  0  0  0
 16 17  1  0  0  0  0
 18 17  1  0  0  0  0
 18 14  1  1  0  0  0
 19 23  1  0  0  0  0
 20 19  1  0  0  0  0
 21 22  1  0  0  0  0
 21 19  2  0  0  0  0
 22 24  2  0  0  0  0
 23 25  2  0  0  0  0
 23 29  1  0  0  0  0
 24 25  1  0  0  0  0
 25  1  1  0  0  0  0
 26 21  1  0  0  0  0
 27 26  2  0  0  0  0
 28 26  1  0  0  0  0
 29 30  1  0  0  0  0
 31 33  1  0  0  0  0
 31 32  1  0  0  0  0
 33 30  1  1  0  0  0
 33 32  1  0  0  0  0
 34 31  1  0  0  0  0
M  END
>  <MODEL>
3

>  <REMARK>
 VINA RESULT:      -7.7      1.588      4.215
  Name = 
  9 active torsions:
  status: ('A' for Active; 'I' for Inactive)
    1  A    between atoms: O_1  and  C_9
    2  A    between atoms: O_1  and  C_34
    3  A    between atoms: C_3  and  C_25
    4  A    between atoms: C_5  and  O_22
    5  A    between atoms: C_5  and  C_32
    6  A    between atoms: N_11  and  C_21
    7  A    between atoms: N_11  and  C_26
    8  A    between atoms: C_19  and  O_22
    9  A    between atoms: C_26  and  C_28
                            x       y       z     vdW  Elec       q    Type
                         _______ _______ _______ _____ _____    ______ ____

>  <TORSDO>
F 9

$$$$
=
 OpenBabel10262423373D

 34 37  0  0  1  0  0  0  0  0999 V2000
  184.8220  178.1180  141.1670 O   0  0  0  0  0  0  0  0  0  0  0  0
  184.0160  179.4630  139.2740 C   0  0  1  0  0  3  0  0  0  0  0  0
  183.0530  176.8080  138.2450 C   0  0  0  0  0  2  0  0  0  0  0  0
  182.5400  177.7970  140.4760 C   0  0  0  0  0  0  0  0  0  0  0  0
  183.6830  178.7640  140.6030 C   0  0  1  0  0  3  0  0  0  0  0  0
  184.8500  178.6540  138.2700 C   0  0  0  0  0  2  0  0  0  0  0  0
  181.4790  178.0640  141.0180 O   0  0  0  0  0  0  0  0  0  0  0  0
  181.5100  175.7900  139.7260 F   0  0  0  0  0  0  0  0  0  0  0  0
  184.5340  177.1580  138.1560 C   0  0  2  0  0  3  0  0  0  0  0  0
  182.6850  176.5210  139.6920 C   0  0  1  0  0  3  0  0  0  0  0  0
  182.8640  179.9650  138.6630 O   0  0  0  0  0  1  0  0  0  0  0  0
  185.1660  176.5690  136.9290 C   0  0  0  0  0  0  0  0  0  0  0  0
  184.8710  177.1260  135.7590 C   0  0  0  0  0  2  0  0  0  0  0  0
  186.0660  175.4410  136.9790 N   0  0  0  0  0  0  0  0  0  0  0  0
  187.2940  175.6000  137.5310 O   0  0  0  0  0  1  0  0  0  0  0  0
  184.8950  173.4540  137.7240 C   0  0  0  0  0  2  0  0  0  0  0  0
  186.2430  173.1580  137.4690 O   0  0  0  0  0  0  0  0  0  0  0  0
  185.6350  174.0940  136.6110 C   0  0  2  0  0  3  0  0  0  0  0  0
  186.8730  178.0410  144.2610 C   0  0  0  0  0  0  0  0  0  0  0  0
  188.1930  177.7820  144.6220 O   0  0  0  0  0  1  0  0  0  0  0  0
  185.9170  178.4020  145.2370 C   0  0  0  0  0  0  0  0  0  0  0  0
  184.6010  178.6590  144.8330 C   0  0  0  0  0  3  0  0  0  0  0  0
  186.4970  177.9370  142.9090 C   0  0  0  0  0  0  0  0  0  0  0  0
  184.2320  178.5650  143.4910 C   0  0  0  0  0  3  0  0  0  0  0  0
  185.1770  178.2100  142.5200 C   0  0  0  0  0  0  0  0  0  0  0  0
  186.2510  178.5130  146.6770 C   0  0  0  0  0  0  0  0  0  0  0  0
  186.9050  177.6110  147.2630 O   0  0  0  0  0  0  0  0  0  0  0  0
  185.8300  179.6520  147.4240 N   0  0  0  0  0  1  0  0  0  0  0  0
  187.5070  177.5420  141.8790 C   0  0  0  0  0  2  0  0  0  0  0  0
  187.9100  178.6650  141.1540 O   0  0  0  0  0  0  0  0  0  0  0  0
  188.9160  179.0760  139.0880 N   0  0  0  0  0  0  0  0  0  0  0  0
  189.3350  177.7460  139.5480 C   0  0  0  0  0  2  0  0  0  0  0  0
  187.9850  178.2180  139.8340 C   0  0  1  0  0  3  0  0  0  0  0  0
  188.5910  178.9500  137.7800 O   0  0  0  0  0  1  0  0  0  0  0  0
  1 25  1  0  0  0  0
  2 11  1  6  0  0  0
  2  5  1  0  0  0  0
  3 10  1  0  0  0  0
  4  5  1  0  0  0  0
  4  7  2  0  0  0  0
  5  1  1  6  0  0  0
  6  2  1  0  0  0  0
  9 12  1  6  0  0  0
  9  3  1  0  0  0  0
  9  6  1  0  0  0  0
 10  8  1  6  0  0  0
 10  4  1  0  0  0  0
 12 14  1  0  0  0  0
 13 12  2  0  0  0  0
 14 15  1  0  0  0  0
 17 16  1  0  0  0  0
 18 14  1  1  0  0  0
 18 17  1  0  0  0  0
 18 16  1  0  0  0  0
 19 20  1  0  0  0  0
 19 21  1  0  0  0  0
 21 26  1  0  0  0  0
 22 21  2  0  0  0  0
 23 19  2  0  0  0  0
 24 22  1  0  0  0  0
 25 23  1  0  0  0  0
 25 24  2  0  0  0  0
 26 27  2  0  0  0  0
 26 28  1  0  0  0  0
 29 23  1  0  0  0  0
 30 29  1  0  0  0  0
 31 32  1  0  0  0  0
 31 33  1  0  0  0  0
 32 33  1  0  0  0  0
 33 30  1  1  0  0  0
 34 31  1  0  0  0  0
M  END
>  <MODEL>
4

>  <REMARK>
 VINA RESULT:      -7.6      3.771      7.927
  Name = 
  9 active torsions:
  status: ('A' for Active; 'I' for Inactive)
    1  A    between atoms: O_1  and  C_9
    2  A    between atoms: O_1  and  C_34
    3  A    between atoms: C_3  and  C_25
    4  A    between atoms: C_5  and  O_22
    5  A    between atoms: C_5  and  C_32
    6  A    between atoms: N_11  and  C_21
    7  A    between atoms: N_11  and  C_26
    8  A    between atoms: C_19  and  O_22
    9  A    between atoms: C_26  and  C_28
                            x       y       z     vdW  Elec       q    Type
                         _______ _______ _______ _____ _____    ______ ____

>  <TORSDO>
F 9

$$$$
=
 OpenBabel10262423373D

 34 37  0  0  1  0  0  0  0  0999 V2000
  184.7520  178.1880  141.4160 O   0  0  0  0  0  0  0  0  0  0  0  0
  183.9500  179.6230  139.5870 C   0  0  1  0  0  3  0  0  0  0  0  0
  183.3300  176.9970  138.2620 C   0  0  0  0  0  2  0  0  0  0  0  0
  182.5670  177.7230  140.5220 C   0  0  0  0  0  0  0  0  0  0  0  0
  183.5960  178.7760  140.8210 C   0  0  1  0  0  3  0  0  0  0  0  0
  184.9280  178.9910  138.5860 C   0  0  0  0  0  2  0  0  0  0  0  0
  181.4490  177.8390  141.0000 O   0  0  0  0  0  0  0  0  0  0  0  0
  181.7960  175.7080  139.5250 F   0  0  0  0  0  0  0  0  0  0  0  0
  184.7720  177.4890  138.3200 C   0  0  2  0  0  3  0  0  0  0  0  0
  182.8920  176.5440  139.6460 C   0  0  1  0  0  3  0  0  0  0  0  0
  182.7990  180.0710  138.9330 O   0  0  0  0  0  1  0  0  0  0  0  0
  185.5440  177.0780  137.1010 C   0  0  0  0  0  0  0  0  0  0  0  0
  184.9130  177.1220  135.9320 C   0  0  0  0  0  2  0  0  0  0  0  0
  186.9200  176.6460  137.1570 N   0  0  0  0  0  0  0  0  0  0  0  0
  187.1940  175.3480  137.4340 O   0  0  0  0  0  1  0  0  0  0  0  0
  188.5900  178.2240  137.9300 C   0  0  0  0  0  2  0  0  0  0  0  0
  187.6880  178.8560  137.0590 O   0  0  0  0  0  0  0  0  0  0  0  0
  188.0190  177.5220  136.7550 C   0  0  2  0  0  3  0  0  0  0  0  0
  186.7410  178.1580  144.5500 C   0  0  0  0  0  0  0  0  0  0  0  0
  188.0350  177.8360  144.9520 O   0  0  0  0  0  1  0  0  0  0  0  0
  185.7940  178.6340  145.4840 C   0  0  0  0  0  0  0  0  0  0  0  0
  184.5040  178.9510  145.0400 C   0  0  0  0  0  3  0  0  0  0  0  0
  186.3820  178.0000  143.1990 C   0  0  0  0  0  0  0  0  0  0  0  0
  184.1530  178.8040  143.6990 C   0  0  0  0  0  3  0  0  0  0  0  0
  185.0890  178.3350  142.7680 C   0  0  0  0  0  0  0  0  0  0  0  0
  186.1100  178.8060  146.9220 C   0  0  0  0  0  0  0  0  0  0  0  0
  185.6810  179.7980  147.5680 O   0  0  0  0  0  0  0  0  0  0  0  0
  186.9140  177.8430  147.5990 N   0  0  0  0  0  1  0  0  0  0  0  0
  187.3810  177.4840  142.2130 C   0  0  0  0  0  2  0  0  0  0  0  0
  188.3470  178.4600  141.9600 O   0  0  0  0  0  0  0  0  0  0  0  0
  190.4950  177.7110  142.4850 N   0  0  0  0  0  0  0  0  0  0  0  0
  189.6420  176.5380  142.2550 C   0  0  0  0  0  2  0  0  0  0  0  0
  189.4390  177.7470  141.4630 C   0  0  1  0  0  3  0  0  0  0  0  0
  191.6570  177.4810  141.8300 O   0  0  0  0  0  1  0  0  0  0  0  0
  1 25  1  0  0  0  0
  2 11  1  6  0  0  0
  2  5  1  0  0  0  0
  3  9  1  0  0  0  0
  3 10  1  0  0  0  0
  4  5  1  0  0  0  0
  4  7  2  0  0  0  0
  5  1  1  6  0  0  0
  6  2  1  0  0  0  0
  9 12  1  6  0  0  0
  9  6  1  0  0  0  0
 10  8  1  6  0  0  0
 10  4  1  0  0  0  0
 12 14  1  0  0  0  0
 13 12  2  0  0  0  0
 14 15  1  0  0  0  0
 17 16  1  0  0  0  0
 18 17  1  0  0  0  0
 18 14  1  1  0  0  0
 18 16  1  0  0  0  0
 19 20  1  0  0  0  0
 19 21  1  0  0  0  0
 21 26  1  0  0  0  0
 22 21  2  0  0  0  0
 23 19  2  0  0  0  0
 24 22  1  0  0  0  0
 25 23  1  0  0  0  0
 25 24  2  0  0  0  0
 26 27  2  0  0  0  0
 26 28  1  0  0  0  0
 29 23  1  0  0  0  0
 30 29  1  0  0  0  0
 32 31  1  0  0  0  0
 33 30  1  1  0  0  0
 33 32  1  0  0  0  0
 33 31  1  0  0  0  0
 34 31  1  0  0  0  0
M  END
>  <MODEL>
5

>  <REMARK>
 VINA RESULT:      -7.2      3.415      7.851
  Name = 
  9 active torsions:
  status: ('A' for Active; 'I' for Inactive)
    1  A    between atoms: O_1  and  C_9
    2  A    between atoms: O_1  and  C_34
    3  A    between atoms: C_3  and  C_25
    4  A    between atoms: C_5  and  O_22
    5  A    between atoms: C_5  and  C_32
    6  A    between atoms: N_11  and  C_21
    7  A    between atoms: N_11  and  C_26
    8  A    between atoms: C_19  and  O_22
    9  A    between atoms: C_26  and  C_28
                            x       y       z     vdW  Elec       q    Type
                         _______ _______ _______ _____ _____    ______ ____

>  <TORSDO>
F 9

$$$$
=
 OpenBabel10262423373D

 34 37  0  0  1  0  0  0  0  0999 V2000
  187.7600  177.7440  140.4710 O   0  0  0  0  0  0  0  0  0  0  0  0
  189.0650  179.0310  138.8320 C   0  0  1  0  0  3  0  0  0  0  0  0
  188.9020  176.4950  137.2270 C   0  0  0  0  0  2  0  0  0  0  0  0
  186.9780  177.7520  138.1950 C   0  0  0  0  0  0  0  0  0  0  0  0
  187.6840  178.5200  139.2760 C   0  0  1  0  0  3  0  0  0  0  0  0
  190.2080  178.0070  138.8530 C   0  0  0  0  0  2  0  0  0  0  0  0
  185.9870  178.2410  137.6750 O   0  0  0  0  0  0  0  0  0  0  0  0
  186.6620  175.8890  136.7540 F   0  0  0  0  0  0  0  0  0  0  0  0
  189.8680  176.5810  138.4030 C   0  0  2  0  0  3  0  0  0  0  0  0
  187.4760  176.4050  137.7470 C   0  0  1  0  0  3  0  0  0  0  0  0
  188.9950  179.6640  137.5880 O   0  0  0  0  0  1  0  0  0  0  0  0
  191.1160  175.7870  138.1500 C   0  0  0  0  0  0  0  0  0  0  0  0
  192.2780  176.3560  138.4560 C   0  0  0  0  0  2  0  0  0  0  0  0
  191.0950  174.4540  137.5970 N   0  0  0  0  0  0  0  0  0  0  0  0
  189.9310  173.7570  137.5970 O   0  0  0  0  0  1  0  0  0  0  0  0
  192.0600  174.0160  135.4170 C   0  0  0  0  0  2  0  0  0  0  0  0
  191.8180  172.8100  136.0950 O   0  0  0  0  0  0  0  0  0  0  0  0
  192.2420  173.8970  136.8840 C   0  0  2  0  0  3  0  0  0  0  0  0
  186.7040  177.7170  144.0300 C   0  0  0  0  0  0  0  0  0  0  0  0
  187.0740  177.0870  145.2150 O   0  0  0  0  0  1  0  0  0  0  0  0
  185.6440  178.6520  144.0120 C   0  0  0  0  0  0  0  0  0  0  0  0
  185.3050  179.2680  142.8000 C   0  0  0  0  0  3  0  0  0  0  0  0
  187.3950  177.4110  142.8430 C   0  0  0  0  0  0  0  0  0  0  0  0
  185.9980  178.9720  141.6280 C   0  0  0  0  0  3  0  0  0  0  0  0
  187.0500  178.0470  141.6400 C   0  0  0  0  0  0  0  0  0  0  0  0
  184.8700  179.0030  145.2260 C   0  0  0  0  0  0  0  0  0  0  0  0
  185.4510  179.3280  146.2950 O   0  0  0  0  0  0  0  0  0  0  0  0
  183.4450  178.9760  145.2000 N   0  0  0  0  0  1  0  0  0  0  0  0
  188.5080  176.4120  142.8610 C   0  0  0  0  0  2  0  0  0  0  0  0
  189.7330  177.0670  143.0090 O   0  0  0  0  0  0  0  0  0  0  0  0
  191.5180  177.2240  144.5040 N   0  0  0  0  0  0  0  0  0  0  0  0
  190.3830  177.9710  145.0620 C   0  0  0  0  0  2  0  0  0  0  0  0
  190.1420  176.7480  144.3040 C   0  0  1  0  0  3  0  0  0  0  0  0
  192.0360  176.4910  145.5170 O   0  0  0  0  0  1  0  0  0  0  0  0
  1 25  1  0  0  0  0
  2 11  1  6  0  0  0
  2  6  1  0  0  0  0
  2  5  1  0  0  0  0
  3 10  1  0  0  0  0
  3  9  1  0  0  0  0
  4  5  1  0  0  0  0
  5  1  1  1  0  0  0
  7  4  2  0  0  0  0
  9 12  1  6  0  0  0
  9  6  1  0  0  0  0
 10  8  1  6  0  0  0
 10  4  1  0  0  0  0
 12 13  2  0  0  0  0
 14 15  1  0  0  0  0
 14 12  1  0  0  0  0
 16 17  1  0  0  0  0
 16 18  1  0  0  0  0
 17 18  1  0  0  0  0
 18 14  1  1  0  0  0
 19 20  1  0  0  0  0
 21 19  1  0  0  0  0
 21 26  1  0  0  0  0
 22 21  2  0  0  0  0
 23 29  1  0  0  0  0
 23 19  2  0  0  0  0
 24 25  2  0  0  0  0
 24 22  1  0  0  0  0
 25 23  1  0  0  0  0
 26 27  2  0  0  0  0
 28 26  1  0  0  0  0
 29 30  1  0  0  0  0
 31 32  1  0  0  0  0
 31 34  1  0  0  0  0
 33 30  1  6  0  0  0
 33 31  1  0  0  0  0
 33 32  1  0  0  0  0
M  END
>  <MODEL>
6

>  <REMARK>
 VINA RESULT:      -7.2      3.037      7.239
  Name = 
  9 active torsions:
  status: ('A' for Active; 'I' for Inactive)
    1  A    between atoms: O_1  and  C_9
    2  A    between atoms: O_1  and  C_34
    3  A    between atoms: C_3  and  C_25
    4  A    between atoms: C_5  and  O_22
    5  A    between atoms: C_5  and  C_32
    6  A    between atoms: N_11  and  C_21
    7  A    between atoms: N_11  and  C_26
    8  A    between atoms: C_19  and  O_22
    9  A    between atoms: C_26  and  C_28
                            x       y       z     vdW  Elec       q    Type
                         _______ _______ _______ _____ _____    ______ ____

>  <TORSDO>
F 9

$$$$
=
 OpenBabel10262423373D

 34 37  0  0  1  0  0  0  0  0999 V2000
  188.4850  177.1040  140.3830 O   0  0  0  0  0  0  0  0  0  0  0  0
  189.3910  178.6650  138.7120 C   0  0  1  0  0  3  0  0  0  0  0  0
  187.8070  176.9830  136.7900 C   0  0  0  0  0  2  0  0  0  0  0  0
  186.9290  178.0980  138.8400 C   0  0  0  0  0  0  0  0  0  0  0  0
  188.2060  178.2720  139.6120 C   0  0  1  0  0  3  0  0  0  0  0  0
  190.0550  177.5270  137.9250 C   0  0  0  0  0  2  0  0  0  0  0  0
  186.0300  178.9100  138.9980 O   0  0  0  0  0  0  0  0  0  0  0  0
  185.4940  176.9950  137.3000 F   0  0  0  0  0  0  0  0  0  0  0  0
  189.1250  176.4550  137.3430 C   0  0  2  0  0  3  0  0  0  0  0  0
  186.7490  176.9530  137.8810 C   0  0  1  0  0  3  0  0  0  0  0  0
  189.0510  179.7190  137.8600 O   0  0  0  0  0  1  0  0  0  0  0  0
  189.8470  175.6110  136.3340 C   0  0  0  0  0  0  0  0  0  0  0  0
  189.7120  175.9360  135.0520 C   0  0  0  0  0  2  0  0  0  0  0  0
  190.6660  174.4810  136.7040 N   0  0  0  0  0  0  0  0  0  0  0  0
  190.0750  173.3790  137.2270 O   0  0  0  0  0  1  0  0  0  0  0  0
  192.9200  174.6940  137.5710 C   0  0  0  0  0  2  0  0  0  0  0  0
  192.6760  175.6800  136.6010 O   0  0  0  0  0  0  0  0  0  0  0  0
  192.0890  174.4200  136.3740 C   0  0  2  0  0  3  0  0  0  0  0  0
  189.1680  177.1520  144.0320 C   0  0  0  0  0  0  0  0  0  0  0  0
  188.4430  177.1570  145.2200 O   0  0  0  0  0  1  0  0  0  0  0  0
  190.5810  177.1520  144.0490 C   0  0  0  0  0  0  0  0  0  0  0  0
  191.2740  177.1410  142.8330 C   0  0  0  0  0  3  0  0  0  0  0  0
  188.4780  177.1480  142.8050 C   0  0  0  0  0  0  0  0  0  0  0  0
  190.5880  177.1280  141.6180 C   0  0  0  0  0  3  0  0  0  0  0  0
  189.1880  177.1250  141.5950 C   0  0  0  0  0  0  0  0  0  0  0  0
  191.3620  177.1710  145.3090 C   0  0  0  0  0  0  0  0  0  0  0  0
  191.6810  178.2580  145.8600 O   0  0  0  0  0  0  0  0  0  0  0  0
  191.7680  175.9480  145.9180 N   0  0  0  0  0  1  0  0  0  0  0  0
  186.9820  177.1610  142.7870 C   0  0  0  0  0  2  0  0  0  0  0  0
  186.5140  178.4440  143.0800 O   0  0  0  0  0  0  0  0  0  0  0  0
  184.7580  179.5230  144.1740 N   0  0  0  0  0  0  0  0  0  0  0  0
  184.1880  178.6370  143.1500 C   0  0  0  0  0  2  0  0  0  0  0  0
  185.3870  178.2290  143.8740 C   0  0  1  0  0  3  0  0  0  0  0  0
  184.0230  179.3420  145.2970 O   0  0  0  0  0  1  0  0  0  0  0  0
  1 25  1  0  0  0  0
  2 11  1  6  0  0  0
  2  5  1  0  0  0  0
  3  9  1  0  0  0  0
  3 10  1  0  0  0  0
  4  7  2  0  0  0  0
  4  5  1  0  0  0  0
  5  1  1  6  0  0  0
  6  2  1  0  0  0  0
  9 12  1  6  0  0  0
  9  6  1  0  0  0  0
 10  8  1  6  0  0  0
 10  4  1  0  0  0  0
 12 14  1  0  0  0  0
 13 12  2  0  0  0  0
 14 15  1  0  0  0  0
 17 16  1  0  0  0  0
 18 17  1  0  0  0  0
 18 14  1  1  0  0  0
 18 16  1  0  0  0  0
 19 21  1  0  0  0  0
 19 20  1  0  0  0  0
 21 26  1  0  0  0  0
 22 21  2  0  0  0  0
 23 19  2  0  0  0  0
 24 22  1  0  0  0  0
 25 24  2  0  0  0  0
 25 23  1  0  0  0  0
 26 27  2  0  0  0  0
 26 28  1  0  0  0  0
 29 23  1  0  0  0  0
 29 30  1  0  0  0  0
 31 34  1  0  0  0  0
 32 33  1  0  0  0  0
 32 31  1  0  0  0  0
 33 30  1  6  0  0  0
 33 31  1  0  0  0  0
M  END
>  <MODEL>
7

>  <REMARK>
 VINA RESULT:      -7.1      2.953      8.211
  Name = 
  9 active torsions:
  status: ('A' for Active; 'I' for Inactive)
    1  A    between atoms: O_1  and  C_9
    2  A    between atoms: O_1  and  C_34
    3  A    between atoms: C_3  and  C_25
    4  A    between atoms: C_5  and  O_22
    5  A    between atoms: C_5  and  C_32
    6  A    between atoms: N_11  and  C_21
    7  A    between atoms: N_11  and  C_26
    8  A    between atoms: C_19  and  O_22
    9  A    between atoms: C_26  and  C_28
                            x       y       z     vdW  Elec       q    Type
                         _______ _______ _______ _____ _____    ______ ____

>  <TORSDO>
F 9

$$$$
=
 OpenBabel10262423373D

 34 37  0  0  1  0  0  0  0  0999 V2000
  183.7220  178.7020  141.3490 O   0  0  0  0  0  0  0  0  0  0  0  0
  184.0430  177.4040  139.2860 C   0  0  1  0  0  3  0  0  0  0  0  0
  181.4450  178.6870  138.4860 C   0  0  0  0  0  2  0  0  0  0  0  0
  183.4970  179.8740  139.2600 C   0  0  0  0  0  0  0  0  0  0  0  0
  184.1810  178.7600  140.0000 C   0  0  1  0  0  3  0  0  0  0  0  0
  182.7080  176.6700  139.4730 C   0  0  0  0  0  2  0  0  0  0  0  0
  184.1800  180.7370  138.7310 O   0  0  0  0  0  0  0  0  0  0  0  0
  181.5990  181.0500  138.4430 F   0  0  0  0  0  0  0  0  0  0  0  0
  181.4400  177.5320  139.4810 C   0  0  2  0  0  3  0  0  0  0  0  0
  181.9970  179.9340  139.1580 C   0  0  1  0  0  3  0  0  0  0  0  0
  184.3580  177.5120  137.9290 O   0  0  0  0  0  1  0  0  0  0  0  0
  180.2130  176.6810  139.3310 C   0  0  0  0  0  0  0  0  0  0  0  0
  179.0320  177.2890  139.3970 C   0  0  0  0  0  2  0  0  0  0  0  0
  180.2720  175.2540  139.1200 N   0  0  0  0  0  0  0  0  0  0  0  0
  180.0280  174.4220  140.1620 O   0  0  0  0  0  1  0  0  0  0  0  0
  179.4450  173.5770  137.5780 C   0  0  0  0  0  2  0  0  0  0  0  0
  180.7880  173.3230  137.9000 O   0  0  0  0  0  0  0  0  0  0  0  0
  180.4180  174.6770  137.7860 C   0  0  2  0  0  3  0  0  0  0  0  0
  184.9770  178.6670  144.8430 C   0  0  0  0  0  0  0  0  0  0  0  0
  184.5350  179.0530  146.1060 O   0  0  0  0  0  1  0  0  0  0  0  0
  186.2440  178.0630  144.6770 C   0  0  0  0  0  0  0  0  0  0  0  0
  186.6510  177.6850  143.3910 C   0  0  0  0  0  3  0  0  0  0  0  0
  184.1490  178.8880  143.7270 C   0  0  0  0  0  0  0  0  0  0  0  0
  185.8240  177.8940  142.2880 C   0  0  0  0  0  3  0  0  0  0  0  0
  184.5670  178.4910  142.4480 C   0  0  0  0  0  0  0  0  0  0  0  0
  187.1660  177.8200  145.8120 C   0  0  0  0  0  0  0  0  0  0  0  0
  186.7380  177.3880  146.9150 O   0  0  0  0  0  0  0  0  0  0  0  0
  188.5610  178.0750  145.6690 N   0  0  0  0  0  1  0  0  0  0  0  0
  182.8140  179.5390  143.9020 C   0  0  0  0  0  2  0  0  0  0  0  0
  181.8570  178.5780  144.2370 O   0  0  0  0  0  0  0  0  0  0  0  0
  179.7240  177.8640  143.6140 N   0  0  0  0  0  0  0  0  0  0  0  0
  179.5930  179.1500  144.3100 C   0  0  0  0  0  2  0  0  0  0  0  0
  180.7480  178.9050  143.4540 C   0  0  1  0  0  3  0  0  0  0  0  0
  178.9310  177.9340  142.5190 O   0  0  0  0  0  1  0  0  0  0  0  0
  1 25  1  0  0  0  0
  2 11  1  6  0  0  0
  2  6  1  0  0  0  0
  2  5  1  0  0  0  0
  3 10  1  0  0  0  0
  3  9  1  0  0  0  0
  4  5  1  0  0  0  0
  5  1  1  1  0  0  0
  6  9  1  0  0  0  0
  7  4  2  0  0  0  0
  9 12  1  6  0  0  0
 10  8  1  6  0  0  0
 10  4  1  0  0  0  0
 12 13  2  0  0  0  0
 14 12  1  0  0  0  0
 14 15  1  0  0  0  0
 16 18  1  0  0  0  0
 16 17  1  0  0  0  0
 18 17  1  0  0  0  0
 18 14  1  1  0  0  0
 19 20  1  0  0  0  0
 21 19  1  0  0  0  0
 21 26  1  0  0  0  0
 22 21  2  0  0  0  0
 23 29  1  0  0  0  0
 23 19  2  0  0  0  0
 24 25  2  0  0  0  0
 24 22  1  0  0  0  0
 25 23  1  0  0  0  0
 26 27  2  0  0  0  0
 28 26  1  0  0  0  0
 29 30  1  0  0  0  0
 31 32  1  0  0  0  0
 33 31  1  0  0  0  0
 33 30  1  1  0  0  0
 33 32  1  0  0  0  0
 34 31  1  0  0  0  0
M  END
>  <MODEL>
8

>  <REMARK>
 VINA RESULT:      -6.7      4.767      9.552
  Name = 
  9 active torsions:
  status: ('A' for Active; 'I' for Inactive)
    1  A    between atoms: O_1  and  C_9
    2  A    between atoms: O_1  and  C_34
    3  A    between atoms: C_3  and  C_25
    4  A    between atoms: C_5  and  O_22
    5  A    between atoms: C_5  and  C_32
    6  A    between atoms: N_11  and  C_21
    7  A    between atoms: N_11  and  C_26
    8  A    between atoms: C_19  and  O_22
    9  A    between atoms: C_26  and  C_28
                            x       y       z     vdW  Elec       q    Type
                         _______ _______ _______ _____ _____    ______ ____

>  <TORSDO>
F 9

$$$$
=
 OpenBabel10262423373D

 34 37  0  0  1  0  0  0  0  0999 V2000
  188.7780  177.1020  139.9480 O   0  0  0  0  0  0  0  0  0  0  0  0
  190.2330  176.5680  138.0390 C   0  0  1  0  0  3  0  0  0  0  0  0
  187.7060  176.9320  136.4540 C   0  0  0  0  0  2  0  0  0  0  0  0
  188.6950  178.5750  138.0480 C   0  0  0  0  0  0  0  0  0  0  0  0
  189.5430  177.6560  138.8790 C   0  0  1  0  0  3  0  0  0  0  0  0
  189.3680  175.3630  137.6430 C   0  0  0  0  0  2  0  0  0  0  0  0
  189.0530  179.7330  137.8970 O   0  0  0  0  0  0  0  0  0  0  0  0
  186.8140  179.1130  136.6970 F   0  0  0  0  0  0  0  0  0  0  0  0
  187.9120  175.6550  137.2590 C   0  0  2  0  0  3  0  0  0  0  0  0
  187.4280  178.0900  137.3990 C   0  0  1  0  0  3  0  0  0  0  0  0
  190.8580  177.1150  136.9150 O   0  0  0  0  0  1  0  0  0  0  0  0
  187.2900  174.4700  136.5810 C   0  0  0  0  0  0  0  0  0  0  0  0
  187.9500  173.9300  135.5610 C   0  0  0  0  0  2  0  0  0  0  0  0
  186.0250  173.9090  136.9930 N   0  0  0  0  0  0  0  0  0  0  0  0
  186.0070  172.9650  137.9660 O   0  0  0  0  0  1  0  0  0  0  0  0
  184.0440  175.1630  137.6050 C   0  0  0  0  0  2  0  0  0  0  0  0
  183.6970  173.8530  137.2380 O   0  0  0  0  0  0  0  0  0  0  0  0
  184.7520  174.4460  136.5180 C   0  0  2  0  0  3  0  0  0  0  0  0
  188.7670  177.7200  143.6080 C   0  0  0  0  0  0  0  0  0  0  0  0
  187.9330  178.3070  144.5560 O   0  0  0  0  0  1  0  0  0  0  0  0
  189.9960  177.1380  143.9920 C   0  0  0  0  0  0  0  0  0  0  0  0
  190.8050  176.5540  143.0090 C   0  0  0  0  0  3  0  0  0  0  0  0
  188.3750  177.7150  142.2570 C   0  0  0  0  0  0  0  0  0  0  0  0
  190.4090  176.5400  141.6720 C   0  0  0  0  0  3  0  0  0  0  0  0
  189.1910  177.1140  141.2870 C   0  0  0  0  0  0  0  0  0  0  0  0
  190.4690  177.1270  145.3970 C   0  0  0  0  0  0  0  0  0  0  0  0
  191.6660  177.3930  145.6810 O   0  0  0  0  0  0  0  0  0  0  0  0
  189.5660  176.8110  146.4540 N   0  0  0  0  0  1  0  0  0  0  0  0
  187.0800  178.3430  141.8500 C   0  0  0  0  0  2  0  0  0  0  0  0
  186.0640  177.9450  142.7230 O   0  0  0  0  0  0  0  0  0  0  0  0
  183.7560  178.2570  142.8770 N   0  0  0  0  0  0  0  0  0  0  0  0
  184.4110  179.2150  143.7770 C   0  0  0  0  0  2  0  0  0  0  0  0
  185.0400  178.8680  142.5070 C   0  0  1  0  0  3  0  0  0  0  0  0
  182.7970  178.9430  142.2120 O   0  0  0  0  0  1  0  0  0  0  0  0
  1 25  1  0  0  0  0
  2 11  1  6  0  0  0
  2  5  1  0  0  0  0
  3  9  1  0  0  0  0
  3 10  1  0  0  0  0
  4  5  1  0  0  0  0
  5  1  1  1  0  0  0
  6  2  1  0  0  0  0
  7  4  2  0  0  0  0
  9 12  1  6  0  0  0
  9  6  1  0  0  0  0
 10  8  1  6  0  0  0
 10  4  1  0  0  0  0
 12 14  1  0  0  0  0
 13 12  2  0  0  0  0
 14 15  1  0  0  0  0
 17 16  1  0  0  0  0
 18 14  1  1  0  0  0
 18 17  1  0  0  0  0
 18 16  1  0  0  0  0
 19 21  1  0  0  0  0
 19 20  1  0  0  0  0
 21 26  1  0  0  0  0
 22 21  2  0  0  0  0
 23 19  2  0  0  0  0
 24 22  1  0  0  0  0
 25 24  2  0  0  0  0
 25 23  1  0  0  0  0
 26 27  2  0  0  0  0
 26 28  1  0  0  0  0
 29 23  1  0  0  0  0
 29 30  1  0  0  0  0
 31 32  1  0  0  0  0
 33 30  1  1  0  0  0
 33 31  1  0  0  0  0
 33 32  1  0  0  0  0
 34 31  1  0  0  0  0
M  END
>  <MODEL>
9

>  <REMARK>
 VINA RESULT:      -6.6      3.344      8.007
  Name = 
  9 active torsions:
  status: ('A' for Active; 'I' for Inactive)
    1  A    between atoms: O_1  and  C_9
    2  A    between atoms: O_1  and  C_34
    3  A    between atoms: C_3  and  C_25
    4  A    between atoms: C_5  and  O_22
    5  A    between atoms: C_5  and  C_32
    6  A    between atoms: N_11  and  C_21
    7  A    between atoms: N_11  and  C_26
    8  A    between atoms: C_19  and  O_22
    9  A    between atoms: C_26  and  C_28
                            x       y       z     vdW  Elec       q    Type
                         _______ _______ _______ _____ _____    ______ ____

>  <TORSDO>
F 9

$$$$
