=
 OpenBabel10262420403D

 55 59  0  0  1  0  0  0  0  0999 V2000
  181.2340  176.5160  141.4100 C   0  0  0  0  0  2  0  0  0  0  0  0
  180.7650  178.8710  143.5970 C   0  0  0  0  0  1  0  0  0  0  0  0
  181.3920  178.0330  137.4330 C   0  0  2  0  0  3  0  0  0  0  0  0
  184.5630  180.5670  138.4880 O   0  0  0  0  0  1  0  0  0  0  0  0
  181.5310  180.2980  138.1430 C   0  0  0  0  0  1  0  0  0  0  0  0
  184.2590  179.5220  139.3620 C   0  0  2  0  0  0  0  0  0  0  0  0
  183.0120  178.6930  139.0700 C   0  0  1  0  0  3  0  0  0  0  0  0
  182.8670  179.3090  142.3740 C   0  0  0  0  0  2  0  0  0  0  0  0
  179.0650  177.8500  137.9940 O   0  0  0  0  0  1  0  0  0  0  0  0
  182.3140  179.1020  137.8520 N   0  0  0  0  0  0  0  0  0  0  0  0
  184.8160  179.5960  140.7870 C   0  0  0  0  0  2  0  0  0  0  0  0
  181.6130  176.0480  140.0110 C   0  0  0  0  0  2  0  0  0  0  0  0
  184.4020  178.1670  138.7110 C   0  0  0  0  0  2  0  0  0  0  0  0
  181.1630  177.9110  141.4570 O   0  0  0  0  0  0  0  0  0  0  0  0
  181.7900  178.2730  142.6530 C   0  0  2  0  0  3  0  0  0  0  0  0
  180.3440  177.6510  138.5110 C   0  0  1  0  0  3  0  0  0  0  0  0
  184.0910  178.6460  141.7570 C   0  0  1  0  0  3  0  0  0  0  0  0
  180.4580  176.2170  139.0300 C   0  0  0  0  0  2  0  0  0  0  0  0
  184.9560  178.0570  142.7870 N   0  0  0  0  0  0  0  0  0  0  0  0
  184.3770  178.2190  144.1190 C   0  0  0  0  0  2  0  0  0  0  0  0
  186.3490  177.0770  145.1500 C   0  0  0  0  0  3  0  0  0  0  0  0
  187.4200  177.9710  147.1390 C   0  0  0  0  0  0  0  0  0  0  0  0
  185.5310  179.1280  146.1440 C   0  0  0  0  0  3  0  0  0  0  0  0
  186.5130  179.0400  147.1340 C   0  0  0  0  0  3  0  0  0  0  0  0
  187.3300  176.9900  146.1410 C   0  0  0  0  0  3  0  0  0  0  0  0
  185.4530  178.1500  145.1460 C   0  0  0  0  0  0  0  0  0  0  0  0
  188.4550  177.8720  148.1810 C   0  0  0  0  0  0  0  0  0  0  0  0
  189.6210  177.4980  147.8900 O   0  0  0  0  0  0  0  0  0  0  0  0
  188.1530  178.1940  149.5000 O   0  0  0  0  0  1  0  0  0  0  0  0
  186.2410  178.7450  142.7640 C   0  0  0  0  0  2  0  0  0  0  0  0
  187.6000  178.2630  140.9010 O   0  0  0  0  0  0  0  0  0  0  0  0
  187.2420  177.9270  142.0180 C   0  0  0  0  0  0  0  0  0  0  0  0
  187.8400  176.7180  142.6640 C   0  0  0  0  0  2  0  0  0  0  0  0
  189.2880  176.9410  142.9770 C   0  0  0  0  0  0  0  0  0  0  0  0
  190.2210  175.8670  142.7700 S   0  0  0  0  0  0  0  0  0  0  0  0
  189.6970  178.7010  144.5230 O   0  0  0  0  0  0  0  0  0  0  0  0
  190.9790  178.3600  144.0590 C   0  0  0  0  0  2  0  0  0  0  0  0
  189.7960  178.3390  143.1650 C   0  0  1  0  0  3  0  0  0  0  0  0
  182.1190  176.9150  136.9720 O   0  0  0  0  0  0  0  0  0  0  0  0
  182.1700  174.4610  134.9610 C   0  0  1  0  0  3  0  0  0  0  0  0
  181.7810  176.6370  135.6240 C   0  0  2  0  0  0  0  0  0  0  0  0
  180.5950  175.8620  135.5670 O   0  0  0  0  0  0  0  0  0  0  0  0
  182.3080  173.7660  136.1690 O   0  0  0  0  0  1  0  0  0  0  0  0
  180.8260  174.8040  134.7850 O   0  0  0  0  0  0  0  0  0  0  0  0
  182.8640  175.7890  134.9980 C   0  0  1  0  0  3  0  0  0  0  0  0
  184.5570  174.9950  136.7650 C   0  0  0  0  0  1  0  0  0  0  0  0
  185.1280  176.8140  135.1850 C   0  0  0  0  0  3  0  0  0  0  0  0
  184.2540  175.8860  135.6030 C   0  0  0  0  0  0  0  0  0  0  0  0
  186.8420  178.1610  136.1660 O   0  0  0  0  0  1  0  0  0  0  0  0
  186.4910  177.0450  135.6990 C   0  0  0  0  0  0  0  0  0  0  0  0
  187.4030  175.9990  135.6780 O   0  0  0  0  0  0  0  0  0  0  0  0
  181.6230  177.9320  134.8190 C   0  0  0  0  0  2  0  0  0  0  0  0
  180.2550  178.2310  134.5970 O   0  0  0  0  0  0  0  0  0  0  0  0
  179.8220  179.5260  134.6230 C   0  0  0  0  0  0  0  0  0  0  0  0
  179.4420  180.6710  134.6440 C   0  0  0  0  0  3  0  0  0  0  0  0
  1 14  1  0  0  0  0
  3 39  1  1  0  0  0
  3 10  1  0  0  0  0
  3 16  1  0  0  0  0
  6  4  1  6  0  0  0
  6 11  1  0  0  0  0
  7 13  1  6  0  0  0
  7  6  1  0  0  0  0
  8 15  1  0  0  0  0
 10  5  1  0  0  0  0
 10  7  1  0  0  0  0
 11 17  1  0  0  0  0
 12  1  1  0  0  0  0
 13  6  1  0  0  0  0
 14 15  1  0  0  0  0
 15  2  1  1  0  0  0
 16  9  1  6  0  0  0
 16 18  1  0  0  0  0
 17  8  1  0  0  0  0
 17 19  1  1  0  0  0
 18 12  1  0  0  0  0
 19 20  1  0  0  0  0
 20 26  1  0  0  0  0
 21 25  1  0  0  0  0
 22 27  1  0  0  0  0
 23 24  2  0  0  0  0
 24 22  1  0  0  0  0
 25 22  2  0  0  0  0
 26 21  2  0  0  0  0
 26 23  1  0  0  0  0
 27 29  1  0  0  0  0
 28 27  2  0  0  0  0
 30 19  1  0  0  0  0
 31 32  2  0  0  0  0
 32 33  1  0  0  0  0
 32 30  1  0  0  0  0
 33 34  1  0  0  0  0
 35 34  2  0  0  0  0
 37 36  1  0  0  0  0
 38 34  1  1  0  0  0
 38 37  1  0  0  0  0
 38 36  1  0  0  0  0
 40 45  1  0  0  0  0
 40 43  1  1  0  0  0
 41 52  1  6  0  0  0
 41 39  1  0  0  0  0
 42 41  1  0  0  0  0
 44 40  1  0  0  0  0
 44 42  1  0  0  0  0
 45 48  1  1  0  0  0
 45 41  1  0  0  0  0
 47 48  2  0  0  0  0
 47 50  1  0  0  0  0
 48 46  1  0  0  0  0
 50 49  1  0  0  0  0
 51 50  2  0  0  0  0
 53 54  1  0  0  0  0
 53 52  1  0  0  0  0
 54 55  3  0  0  0  0
M  END
>  <MODEL>
1

>  <REMARK>
 VINA RESULT:      -5.3      0.000      0.000
  Name = 
  16 active torsions:
  status: ('A' for Active; 'I' for Inactive)
    1  A    between atoms: C_6  and  O_8
    2  A    between atoms: C_6  and  C_46
    3  A    between atoms: C_7  and  O_8
    4  A    between atoms: C_10  and  C_32
    5  A    between atoms: C_11  and  C_29
    6  A    between atoms: C_12  and  O_14
    7  A    between atoms: O_14  and  C_46
    8  A    between atoms: C_27  and  C_31
    9  A    between atoms: C_27  and  C_55
   10  A    between atoms: C_28  and  C_44
   11  A    between atoms: C_28  and  N_49
   12  A    between atoms: C_31  and  C_44
   13  A    between atoms: C_33  and  N_49
   14  A    between atoms: C_33  and  C_52
   15  A    between atoms: C_38  and  C_53
   16  A    between atoms: C_45  and  N_49
                            x       y       z     vdW  Elec       q    Type
                         _______ _______ _______ _____ _____    ______ ____

>  <TORSDO>
F 16

$$$$
=
 OpenBabel10262420403D

 55 59  0  0  1  0  0  0  0  0999 V2000
  180.9610  176.7280  141.5280 C   0  0  0  0  0  2  0  0  0  0  0  0
  180.6630  179.1750  143.6430 C   0  0  0  0  0  1  0  0  0  0  0  0
  181.2950  178.1130  137.5140 C   0  0  2  0  0  3  0  0  0  0  0  0
  184.6530  180.4040  138.5460 O   0  0  0  0  0  1  0  0  0  0  0  0
  181.6130  180.3780  138.1640 C   0  0  0  0  0  1  0  0  0  0  0  0
  184.2510  179.4130  139.4440 C   0  0  2  0  0  0  0  0  0  0  0  0
  182.9430  178.6830  139.1570 C   0  0  1  0  0  3  0  0  0  0  0  0
  182.8090  179.4020  142.4400 C   0  0  0  0  0  2  0  0  0  0  0  0
  178.9540  178.1400  138.0450 O   0  0  0  0  0  1  0  0  0  0  0  0
  182.2970  179.1140  137.9180 N   0  0  0  0  0  0  0  0  0  0  0  0
  184.7950  179.4810  140.8740 C   0  0  0  0  0  2  0  0  0  0  0  0
  181.3170  176.1910  140.1480 C   0  0  0  0  0  2  0  0  0  0  0  0
  184.2890  178.0330  138.8320 C   0  0  0  0  0  2  0  0  0  0  0  0
  181.0060  178.1250  141.5370 O   0  0  0  0  0  0  0  0  0  0  0  0
  181.6460  178.4670  142.7310 C   0  0  2  0  0  3  0  0  0  0  0  0
  180.2050  177.8500  138.5860 C   0  0  1  0  0  3  0  0  0  0  0  0
  183.9810  178.6230  141.8590 C   0  0  1  0  0  3  0  0  0  0  0  0
  180.1930  176.4270  139.1460 C   0  0  0  0  0  2  0  0  0  0  0  0
  184.7810  177.9940  142.9180 N   0  0  0  0  0  0  0  0  0  0  0  0
  184.1930  178.2280  144.2340 C   0  0  0  0  0  2  0  0  0  0  0  0
  185.9540  177.0590  145.5730 C   0  0  0  0  0  3  0  0  0  0  0  0
  187.2170  178.2310  147.2840 C   0  0  0  0  0  0  0  0  0  0  0  0
  185.5410  179.4100  145.9800 C   0  0  0  0  0  3  0  0  0  0  0  0
  186.5160  179.4080  146.9810 C   0  0  0  0  0  3  0  0  0  0  0  0
  186.9280  177.0580  146.5740 C   0  0  0  0  0  3  0  0  0  0  0  0
  185.2640  178.2370  145.2690 C   0  0  0  0  0  0  0  0  0  0  0  0
  188.2420  178.2230  148.3400 C   0  0  0  0  0  0  0  0  0  0  0  0
  189.4140  178.6160  148.0950 O   0  0  0  0  0  0  0  0  0  0  0  0
  187.9250  177.7830  149.6200 O   0  0  0  0  0  1  0  0  0  0  0  0
  186.1150  178.5820  142.9050 C   0  0  0  0  0  2  0  0  0  0  0  0
  186.9910  176.3960  142.9460 O   0  0  0  0  0  0  0  0  0  0  0  0
  187.1260  177.5430  142.5500 C   0  0  0  0  0  0  0  0  0  0  0  0
  188.2810  177.9010  141.6710 C   0  0  0  0  0  2  0  0  0  0  0  0
  189.5810  177.6920  142.3860 C   0  0  0  0  0  0  0  0  0  0  0  0
  189.6950  178.0960  143.7620 S   0  0  0  0  0  0  0  0  0  0  0  0
  190.3140  176.5450  140.4360 O   0  0  0  0  0  0  0  0  0  0  0  0
  191.3570  177.4500  140.7030 C   0  0  0  0  0  2  0  0  0  0  0  0
  190.6100  176.7760  141.7940 C   0  0  1  0  0  3  0  0  0  0  0  0
  181.9320  176.9260  137.0940 O   0  0  0  0  0  0  0  0  0  0  0  0
  180.4080  174.9730  135.1120 C   0  0  1  0  0  3  0  0  0  0  0  0
  181.7600  176.7490  135.6990 C   0  0  2  0  0  0  0  0  0  0  0  0
  180.4580  177.1570  135.3110 O   0  0  0  0  0  0  0  0  0  0  0  0
  179.7250  174.6700  136.2960 O   0  0  0  0  0  1  0  0  0  0  0  0
  179.9100  176.1720  134.5940 O   0  0  0  0  0  0  0  0  0  0  0  0
  181.8530  175.2790  135.3630 C   0  0  1  0  0  3  0  0  0  0  0  0
  183.0620  175.0100  137.6180 C   0  0  0  0  0  1  0  0  0  0  0  0
  183.0490  173.1740  135.9560 C   0  0  0  0  0  3  0  0  0  0  0  0
  182.6450  174.4010  136.3180 C   0  0  0  0  0  0  0  0  0  0  0  0
  183.3130  171.2630  137.3690 O   0  0  0  0  0  1  0  0  0  0  0  0
  183.8470  172.2300  136.7620 C   0  0  0  0  0  0  0  0  0  0  0  0
  185.2210  172.4060  136.8390 O   0  0  0  0  0  0  0  0  0  0  0  0
  182.8270  177.5180  134.9110 C   0  0  0  0  0  2  0  0  0  0  0  0
  183.9520  176.6970  134.6420 O   0  0  0  0  0  0  0  0  0  0  0  0
  185.1660  176.9950  135.1930 C   0  0  0  0  0  0  0  0  0  0  0  0
  186.2380  177.2600  135.6790 C   0  0  0  0  0  3  0  0  0  0  0  0
  1 14  1  0  0  0  0
  3 39  1  1  0  0  0
  3 10  1  0  0  0  0
  3 16  1  0  0  0  0
  6  4  1  6  0  0  0
  6 11  1  0  0  0  0
  7 13  1  6  0  0  0
  7  6  1  0  0  0  0
  8 15  1  0  0  0  0
 10  5  1  0  0  0  0
 10  7  1  0  0  0  0
 11 17  1  0  0  0  0
 12  1  1  0  0  0  0
 13  6  1  0  0  0  0
 14 15  1  0  0  0  0
 15  2  1  1  0  0  0
 16  9  1  6  0  0  0
 16 18  1  0  0  0  0
 17  8  1  0  0  0  0
 17 19  1  1  0  0  0
 18 12  1  0  0  0  0
 19 20  1  0  0  0  0
 20 26  1  0  0  0  0
 21 25  1  0  0  0  0
 22 27  1  0  0  0  0
 23 24  2  0  0  0  0
 24 22  1  0  0  0  0
 25 22  2  0  0  0  0
 26 21  2  0  0  0  0
 26 23  1  0  0  0  0
 27 29  1  0  0  0  0
 28 27  2  0  0  0  0
 30 19  1  0  0  0  0
 32 30  1  0  0  0  0
 32 31  2  0  0  0  0
 33 34  1  0  0  0  0
 33 32  1  0  0  0  0
 34 35  2  0  0  0  0
 36 37  1  0  0  0  0
 36 38  1  0  0  0  0
 37 38  1  0  0  0  0
 38 34  1  1  0  0  0
 40 45  1  0  0  0  0
 40 43  1  1  0  0  0
 41 52  1  6  0  0  0
 41 39  1  0  0  0  0
 42 41  1  0  0  0  0
 44 40  1  0  0  0  0
 44 42  1  0  0  0  0
 45 41  1  0  0  0  0
 45 48  1  1  0  0  0
 47 48  2  0  0  0  0
 47 50  1  0  0  0  0
 48 46  1  0  0  0  0
 50 51  2  0  0  0  0
 50 49  1  0  0  0  0
 53 52  1  0  0  0  0
 53 54  1  0  0  0  0
 54 55  3  0  0  0  0
M  END
>  <MODEL>
2

>  <REMARK>
 VINA RESULT:      -4.9      1.471      2.443
  Name = 
  16 active torsions:
  status: ('A' for Active; 'I' for Inactive)
    1  A    between atoms: C_6  and  O_8
    2  A    between atoms: C_6  and  C_46
    3  A    between atoms: C_7  and  O_8
    4  A    between atoms: C_10  and  C_32
    5  A    between atoms: C_11  and  C_29
    6  A    between atoms: C_12  and  O_14
    7  A    between atoms: O_14  and  C_46
    8  A    between atoms: C_27  and  C_31
    9  A    between atoms: C_27  and  C_55
   10  A    between atoms: C_28  and  C_44
   11  A    between atoms: C_28  and  N_49
   12  A    between atoms: C_31  and  C_44
   13  A    between atoms: C_33  and  N_49
   14  A    between atoms: C_33  and  C_52
   15  A    between atoms: C_38  and  C_53
   16  A    between atoms: C_45  and  N_49
                            x       y       z     vdW  Elec       q    Type
                         _______ _______ _______ _____ _____    ______ ____

>  <TORSDO>
F 16

$$$$
=
 OpenBabel10262420403D

 55 59  0  0  1  0  0  0  0  0999 V2000
  183.7400  177.6890  142.2360 C   0  0  0  0  0  2  0  0  0  0  0  0
  185.3370  180.1630  143.6060 C   0  0  0  0  0  1  0  0  0  0  0  0
  182.4190  178.6230  138.2950 C   0  0  2  0  0  3  0  0  0  0  0  0
  186.3610  179.4640  137.1360 O   0  0  0  0  0  1  0  0  0  0  0  0
  183.7160  180.6120  138.1720 C   0  0  0  0  0  1  0  0  0  0  0  0
  186.1790  178.7580  138.3260 C   0  0  2  0  0  0  0  0  0  0  0  0
  184.7520  178.5850  138.8380 C   0  0  1  0  0  3  0  0  0  0  0  0
  186.5270  179.4670  141.5560 C   0  0  0  0  0  2  0  0  0  0  0  0
  180.8130  179.5930  139.7930 O   0  0  0  0  0  1  0  0  0  0  0  0
  183.7440  179.1700  137.9560 N   0  0  0  0  0  0  0  0  0  0  0  0
  187.3590  178.6810  139.3000 C   0  0  0  0  0  2  0  0  0  0  0  0
  183.1600  176.9850  141.0160 C   0  0  0  0  0  2  0  0  0  0  0  0
  185.4660  177.4440  138.1130 C   0  0  0  0  0  2  0  0  0  0  0  0
  184.2200  178.9550  141.8890 O   0  0  0  0  0  0  0  0  0  0  0  0
  185.4450  179.0800  142.5500 C   0  0  2  0  0  3  0  0  0  0  0  0
  182.0010  178.8640  139.7700 C   0  0  1  0  0  3  0  0  0  0  0  0
  186.9310  178.2620  140.7180 C   0  0  1  0  0  3  0  0  0  0  0  0
  181.8260  177.5910  140.5980 C   0  0  0  0  0  2  0  0  0  0  0  0
  187.9100  177.4250  141.4240 N   0  0  0  0  0  0  0  0  0  0  0  0
  188.9250  178.2420  142.0850 C   0  0  0  0  0  2  0  0  0  0  0  0
  187.7460  177.4730  144.1520 C   0  0  0  0  0  3  0  0  0  0  0  0
  188.8180  177.5910  146.3280 C   0  0  0  0  0  0  0  0  0  0  0  0
  190.0090  178.3140  144.3380 C   0  0  0  0  0  3  0  0  0  0  0  0
  189.9700  178.1140  145.7210 C   0  0  0  0  0  3  0  0  0  0  0  0
  187.7070  177.2740  145.5350 C   0  0  0  0  0  3  0  0  0  0  0  0
  188.9000  177.9860  143.5520 C   0  0  0  0  0  0  0  0  0  0  0  0
  188.7710  177.3820  147.7840 C   0  0  0  0  0  0  0  0  0  0  0  0
  188.1270  176.4150  148.2700 O   0  0  0  0  0  0  0  0  0  0  0  0
  189.4400  178.2520  148.6390 O   0  0  0  0  0  1  0  0  0  0  0  0
  188.5790  176.5710  140.4500 C   0  0  0  0  0  2  0  0  0  0  0  0
  190.6370  176.0700  141.4800 O   0  0  0  0  0  0  0  0  0  0  0  0
  190.0590  176.6890  140.6020 C   0  0  0  0  0  0  0  0  0  0  0  0
  190.8380  177.5340  139.6450 C   0  0  0  0  0  2  0  0  0  0  0  0
  191.3830  176.7040  138.5230 C   0  0  0  0  0  0  0  0  0  0  0  0
  192.7920  176.4170  138.4860 S   0  0  0  0  0  0  0  0  0  0  0  0
  189.4590  176.7660  137.1260 O   0  0  0  0  0  0  0  0  0  0  0  0
  190.4910  176.3740  136.2550 C   0  0  0  0  0  2  0  0  0  0  0  0
  190.4420  175.9120  137.6650 C   0  0  1  0  0  3  0  0  0  0  0  0
  182.3460  177.2620  137.9330 O   0  0  0  0  0  0  0  0  0  0  0  0
  180.2550  174.9970  137.1770 C   0  0  1  0  0  3  0  0  0  0  0  0
  181.2830  177.0580  137.0190 C   0  0  2  0  0  0  0  0  0  0  0  0
  180.0380  177.1190  137.6950 O   0  0  0  0  0  0  0  0  0  0  0  0
  180.6650  174.5180  138.4280 O   0  0  0  0  0  1  0  0  0  0  0  0
  179.3330  176.0310  137.3680 O   0  0  0  0  0  0  0  0  0  0  0  0
  181.3760  175.6650  136.4400 C   0  0  1  0  0  3  0  0  0  0  0  0
  183.7040  175.4620  135.3650 C   0  0  0  0  0  1  0  0  0  0  0  0
  183.0440  174.0020  137.2530 C   0  0  0  0  0  3  0  0  0  0  0  0
  182.7480  175.0140  136.4240 C   0  0  0  0  0  0  0  0  0  0  0  0
  184.3810  172.0290  137.0540 O   0  0  0  0  0  0  0  0  0  0  0  0
  184.3160  173.2580  137.3260 C   0  0  0  0  0  0  0  0  0  0  0  0
  185.4700  173.9350  137.6930 O   0  0  0  0  0  1  0  0  0  0  0  0
  181.3330  178.0840  135.8800 C   0  0  0  0  0  2  0  0  0  0  0  0
  180.1790  178.9090  135.8880 O   0  0  0  0  0  0  0  0  0  0  0  0
  180.3050  180.2620  136.0310 C   0  0  0  0  0  0  0  0  0  0  0  0
  180.4160  181.4560  136.1600 C   0  0  0  0  0  3  0  0  0  0  0  0
  3 39  1  1  0  0  0
  3 16  1  0  0  0  0
  6  4  1  6  0  0  0
  6  7  1  0  0  0  0
  6 11  1  0  0  0  0
  7 13  1  6  0  0  0
  8 15  1  0  0  0  0
 10  5  1  0  0  0  0
 10  3  1  0  0  0  0
 10  7  1  0  0  0  0
 11 17  1  0  0  0  0
 12  1  1  0  0  0  0
 13  6  1  0  0  0  0
 14  1  1  0  0  0  0
 14 15  1  0  0  0  0
 15  2  1  1  0  0  0
 16  9  1  6  0  0  0
 16 18  1  0  0  0  0
 17 19  1  1  0  0  0
 17  8  1  0  0  0  0
 18 12  1  0  0  0  0
 19 20  1  0  0  0  0
 20 26  1  0  0  0  0
 21 25  1  0  0  0  0
 22 27  1  0  0  0  0
 23 24  2  0  0  0  0
 24 22  1  0  0  0  0
 25 22  2  0  0  0  0
 26 21  2  0  0  0  0
 26 23  1  0  0  0  0
 27 28  2  0  0  0  0
 27 29  1  0  0  0  0
 30 32  1  0  0  0  0
 30 19  1  0  0  0  0
 32 31  2  0  0  0  0
 33 32  1  0  0  0  0
 34 33  1  0  0  0  0
 35 34  2  0  0  0  0
 36 38  1  0  0  0  0
 37 36  1  0  0  0  0
 37 38  1  0  0  0  0
 38 34  1  1  0  0  0
 40 44  1  0  0  0  0
 40 43  1  1  0  0  0
 41 52  1  6  0  0  0
 41 42  1  0  0  0  0
 41 39  1  0  0  0  0
 44 42  1  0  0  0  0
 45 48  1  1  0  0  0
 45 41  1  0  0  0  0
 45 40  1  0  0  0  0
 46 48  1  0  0  0  0
 47 50  1  0  0  0  0
 48 47  2  0  0  0  0
 49 50  2  0  0  0  0
 50 51  1  0  0  0  0
 52 53  1  0  0  0  0
 53 54  1  0  0  0  0
 54 55  3  0  0  0  0
M  END
>  <MODEL>
3

>  <REMARK>
 VINA RESULT:      -4.7      2.270      3.477
  Name = 
  16 active torsions:
  status: ('A' for Active; 'I' for Inactive)
    1  A    between atoms: C_6  and  O_8
    2  A    between atoms: C_6  and  C_46
    3  A    between atoms: C_7  and  O_8
    4  A    between atoms: C_10  and  C_32
    5  A    between atoms: C_11  and  C_29
    6  A    between atoms: C_12  and  O_14
    7  A    between atoms: O_14  and  C_46
    8  A    between atoms: C_27  and  C_31
    9  A    between atoms: C_27  and  C_55
   10  A    between atoms: C_28  and  C_44
   11  A    between atoms: C_28  and  N_49
   12  A    between atoms: C_31  and  C_44
   13  A    between atoms: C_33  and  N_49
   14  A    between atoms: C_33  and  C_52
   15  A    between atoms: C_38  and  C_53
   16  A    between atoms: C_45  and  N_49
                            x       y       z     vdW  Elec       q    Type
                         _______ _______ _______ _____ _____    ______ ____

>  <TORSDO>
F 16

$$$$
=
 OpenBabel10262420403D

 55 59  0  0  1  0  0  0  0  0999 V2000
  183.6880  177.8990  142.4640 C   0  0  0  0  0  2  0  0  0  0  0  0
  185.4330  180.3370  143.7130 C   0  0  0  0  0  1  0  0  0  0  0  0
  182.2430  178.8010  138.5600 C   0  0  2  0  0  3  0  0  0  0  0  0
  186.1630  179.4660  137.2240 O   0  0  0  0  0  1  0  0  0  0  0  0
  183.6080  180.7360  138.3400 C   0  0  0  0  0  1  0  0  0  0  0  0
  186.0030  178.7920  138.4360 C   0  0  2  0  0  0  0  0  0  0  0  0
  184.5940  178.6850  139.0090 C   0  0  1  0  0  3  0  0  0  0  0  0
  186.5110  179.5540  141.6330 C   0  0  0  0  0  2  0  0  0  0  0  0
  180.7380  179.8630  140.1000 O   0  0  0  0  0  1  0  0  0  0  0  0
  183.5720  179.2890  138.1550 N   0  0  0  0  0  0  0  0  0  0  0  0
  187.2190  178.6900  139.3630 C   0  0  0  0  0  2  0  0  0  0  0  0
  183.0330  177.1930  141.2840 C   0  0  0  0  0  2  0  0  0  0  0  0
  185.2340  177.5020  138.2810 C   0  0  0  0  0  2  0  0  0  0  0  0
  184.2010  179.1380  142.0700 O   0  0  0  0  0  0  0  0  0  0  0  0
  185.4560  179.2290  142.6780 C   0  0  2  0  0  3  0  0  0  0  0  0
  181.8950  179.0890  140.0440 C   0  0  1  0  0  3  0  0  0  0  0  0
  186.8340  178.3170  140.8060 C   0  0  1  0  0  3  0  0  0  0  0  0
  181.7060  177.8410  140.9080 C   0  0  0  0  0  2  0  0  0  0  0  0
  187.8090  177.4580  141.4900 N   0  0  0  0  0  0  0  0  0  0  0  0
  188.8620  178.2510  142.1200 C   0  0  0  0  0  2  0  0  0  0  0  0
  187.7140  177.5250  144.2200 C   0  0  0  0  0  3  0  0  0  0  0  0
  188.8380  177.6370  146.3710 C   0  0  0  0  0  0  0  0  0  0  0  0
  189.9990  178.3160  144.3480 C   0  0  0  0  0  3  0  0  0  0  0  0
  189.9860  178.1280  145.7330 C   0  0  0  0  0  3  0  0  0  0  0  0
  187.7020  177.3380  145.6050 C   0  0  0  0  0  3  0  0  0  0  0  0
  188.8640  178.0070  143.5900 C   0  0  0  0  0  0  0  0  0  0  0  0
  188.8190  177.4400  147.8290 C   0  0  0  0  0  0  0  0  0  0  0  0
  189.4380  178.2330  148.5880 O   0  0  0  0  0  1  0  0  0  0  0  0
  188.1160  176.3770  148.3830 O   0  0  0  0  0  0  0  0  0  0  0  0
  188.4290  176.5820  140.5040 C   0  0  0  0  0  2  0  0  0  0  0  0
  190.6030  176.2420  141.3460 O   0  0  0  0  0  0  0  0  0  0  0  0
  189.9080  176.7850  140.5020 C   0  0  0  0  0  0  0  0  0  0  0  0
  190.5410  177.6210  139.4360 C   0  0  0  0  0  2  0  0  0  0  0  0
  190.9810  176.7700  138.2830 C   0  0  0  0  0  0  0  0  0  0  0  0
  192.3260  176.2630  138.2620 S   0  0  0  0  0  0  0  0  0  0  0  0
  189.1510  177.2120  136.8300 O   0  0  0  0  0  0  0  0  0  0  0  0
  190.1330  176.6780  135.9770 C   0  0  0  0  0  2  0  0  0  0  0  0
  189.9520  176.1830  137.3640 C   0  0  1  0  0  3  0  0  0  0  0  0
  182.1040  177.4360  138.2310 O   0  0  0  0  0  0  0  0  0  0  0  0
  179.2900  177.5600  136.7700 C   0  0  1  0  0  3  0  0  0  0  0  0
  181.5790  177.3020  136.9220 C   0  0  2  0  0  0  0  0  0  0  0  0
  181.2030  178.5720  136.4140 O   0  0  0  0  0  0  0  0  0  0  0  0
  178.9450  178.1820  137.9770 O   0  0  0  0  0  1  0  0  0  0  0  0
  179.9510  178.4830  135.9550 O   0  0  0  0  0  0  0  0  0  0  0  0
  180.3110  176.4810  136.9700 C   0  0  1  0  0  3  0  0  0  0  0  0
  180.8140  174.1790  138.0030 C   0  0  0  0  0  1  0  0  0  0  0  0
  179.3690  175.8110  139.1780 C   0  0  0  0  0  3  0  0  0  0  0  0
  180.1570  175.5160  138.1330 C   0  0  0  0  0  0  0  0  0  0  0  0
  178.9310  173.7190  140.2490 O   0  0  0  0  0  0  0  0  0  0  0  0
  179.1010  174.9630  140.3550 C   0  0  0  0  0  0  0  0  0  0  0  0
  179.0490  175.5520  141.6100 O   0  0  0  0  0  1  0  0  0  0  0  0
  182.5890  176.6220  135.9910 C   0  0  0  0  0  2  0  0  0  0  0  0
  181.9480  175.6840  135.1420 O   0  0  0  0  0  0  0  0  0  0  0  0
  182.5550  174.4950  134.8510 C   0  0  0  0  0  0  0  0  0  0  0  0
  183.0930  173.4460  134.5950 C   0  0  0  0  0  3  0  0  0  0  0  0
  3 39  1  1  0  0  0
  3 16  1  0  0  0  0
  6  4  1  6  0  0  0
  6  7  1  0  0  0  0
  6 11  1  0  0  0  0
  7 13  1  6  0  0  0
  8 15  1  0  0  0  0
 10  5  1  0  0  0  0
 10  3  1  0  0  0  0
 10  7  1  0  0  0  0
 11 17  1  0  0  0  0
 12  1  1  0  0  0  0
 13  6  1  0  0  0  0
 14  1  1  0  0  0  0
 14 15  1  0  0  0  0
 15  2  1  1  0  0  0
 16  9  1  6  0  0  0
 16 18  1  0  0  0  0
 17 19  1  1  0  0  0
 17  8  1  0  0  0  0
 18 12  1  0  0  0  0
 19 20  1  0  0  0  0
 20 26  1  0  0  0  0
 21 25  1  0  0  0  0
 22 27  1  0  0  0  0
 23 24  2  0  0  0  0
 24 22  1  0  0  0  0
 25 22  2  0  0  0  0
 26 21  2  0  0  0  0
 26 23  1  0  0  0  0
 27 29  2  0  0  0  0
 27 28  1  0  0  0  0
 30 19  1  0  0  0  0
 32 30  1  0  0  0  0
 32 31  2  0  0  0  0
 33 32  1  0  0  0  0
 34 33  1  0  0  0  0
 35 34  2  0  0  0  0
 36 38  1  0  0  0  0
 37 36  1  0  0  0  0
 37 38  1  0  0  0  0
 38 34  1  1  0  0  0
 40 45  1  0  0  0  0
 40 43  1  1  0  0  0
 41 52  1  6  0  0  0
 41 45  1  0  0  0  0
 41 39  1  0  0  0  0
 42 41  1  0  0  0  0
 44 42  1  0  0  0  0
 44 40  1  0  0  0  0
 45 48  1  1  0  0  0
 46 48  1  0  0  0  0
 47 50  1  0  0  0  0
 48 47  2  0  0  0  0
 49 50  2  0  0  0  0
 50 51  1  0  0  0  0
 53 52  1  0  0  0  0
 54 53  1  0  0  0  0
 55 54  3  0  0  0  0
M  END
>  <MODEL>
4

>  <REMARK>
 VINA RESULT:      -4.2      2.244      4.469
  Name = 
  16 active torsions:
  status: ('A' for Active; 'I' for Inactive)
    1  A    between atoms: C_6  and  O_8
    2  A    between atoms: C_6  and  C_46
    3  A    between atoms: C_7  and  O_8
    4  A    between atoms: C_10  and  C_32
    5  A    between atoms: C_11  and  C_29
    6  A    between atoms: C_12  and  O_14
    7  A    between atoms: O_14  and  C_46
    8  A    between atoms: C_27  and  C_31
    9  A    between atoms: C_27  and  C_55
   10  A    between atoms: C_28  and  C_44
   11  A    between atoms: C_28  and  N_49
   12  A    between atoms: C_31  and  C_44
   13  A    between atoms: C_33  and  N_49
   14  A    between atoms: C_33  and  C_52
   15  A    between atoms: C_38  and  C_53
   16  A    between atoms: C_45  and  N_49
                            x       y       z     vdW  Elec       q    Type
                         _______ _______ _______ _____ _____    ______ ____

>  <TORSDO>
F 16

$$$$
=
 OpenBabel10262420403D

 55 59  0  0  1  0  0  0  0  0999 V2000
  183.9170  177.3210  138.3990 C   0  0  0  0  0  2  0  0  0  0  0  0
  182.8480  180.3620  138.7940 C   0  0  0  0  0  1  0  0  0  0  0  0
  187.9830  177.2050  137.1330 C   0  0  2  0  0  3  0  0  0  0  0  0
  189.1340  179.4030  140.5140 O   0  0  0  0  0  1  0  0  0  0  0  0
  188.3370  179.5170  137.5590 C   0  0  0  0  0  1  0  0  0  0  0  0
  187.8660  178.8210  140.5290 C   0  0  2  0  0  0  0  0  0  0  0  0
  187.3750  178.1560  139.2470 C   0  0  1  0  0  3  0  0  0  0  0  0
  184.7520  179.9690  140.3180 C   0  0  0  0  0  2  0  0  0  0  0  0
  186.6740  177.6210  135.1640 O   0  0  0  0  0  1  0  0  0  0  0  0
  188.3560  178.1900  138.1630 N   0  0  0  0  0  0  0  0  0  0  0  0
  186.8580  179.3280  141.5650 C   0  0  0  0  0  2  0  0  0  0  0  0
  185.0470  176.3120  138.2380 C   0  0  0  0  0  2  0  0  0  0  0  0
  187.9200  177.3170  140.4030 C   0  0  0  0  0  2  0  0  0  0  0  0
  184.4180  178.6260  138.3740 O   0  0  0  0  0  0  0  0  0  0  0  0
  183.7450  179.2990  139.3980 C   0  0  2  0  0  3  0  0  0  0  0  0
  186.5660  177.4250  136.5400 C   0  0  1  0  0  3  0  0  0  0  0  0
  185.4090  178.9370  141.2240 C   0  0  1  0  0  3  0  0  0  0  0  0
  185.5790  176.2890  136.8090 C   0  0  0  0  0  2  0  0  0  0  0  0
  184.5700  178.6420  142.3930 N   0  0  0  0  0  0  0  0  0  0  0  0
  184.8750  177.3230  142.9430 C   0  0  0  0  0  2  0  0  0  0  0  0
  187.1760  176.7520  143.7410 C   0  0  0  0  0  3  0  0  0  0  0  0
  188.0080  177.5740  145.8700 C   0  0  0  0  0  0  0  0  0  0  0  0
  185.7810  178.1820  145.1110 C   0  0  0  0  0  3  0  0  0  0  0  0
  186.7960  178.2530  146.0690 C   0  0  0  0  0  3  0  0  0  0  0  0
  188.1890  176.8230  144.7000 C   0  0  0  0  0  3  0  0  0  0  0  0
  185.9740  177.4370  143.9420 C   0  0  0  0  0  0  0  0  0  0  0  0
  189.0780  177.6440  146.8780 C   0  0  0  0  0  0  0  0  0  0  0  0
  188.8000  177.8290  148.0920 O   0  0  0  0  0  1  0  0  0  0  0  0
  190.4080  177.5040  146.4980 O   0  0  0  0  0  0  0  0  0  0  0  0
  183.1740  178.6480  141.9750 C   0  0  0  0  0  2  0  0  0  0  0  0
  182.7040  179.5390  144.1050 O   0  0  0  0  0  0  0  0  0  0  0  0
  182.2920  178.8940  143.1550 C   0  0  0  0  0  0  0  0  0  0  0  0
  180.8860  178.3850  143.1480 C   0  0  0  0  0  2  0  0  0  0  0  0
  179.9750  179.3440  142.4430 C   0  0  0  0  0  0  0  0  0  0  0  0
  179.0960  180.1740  143.2220 S   0  0  0  0  0  0  0  0  0  0  0  0
  179.0020  179.9770  140.3670 O   0  0  0  0  0  0  0  0  0  0  0  0
  179.8210  181.0710  140.6990 C   0  0  0  0  0  2  0  0  0  0  0  0
  180.2240  179.6750  141.0020 C   0  0  1  0  0  3  0  0  0  0  0  0
  188.1610  175.8940  137.6250 O   0  0  0  0  0  0  0  0  0  0  0  0
  189.4880  174.3170  135.2120 C   0  0  1  0  0  3  0  0  0  0  0  0
  189.4350  175.4030  137.2490 C   0  0  2  0  0  0  0  0  0  0  0  0
  189.9830  176.2050  136.2150 O   0  0  0  0  0  0  0  0  0  0  0  0
  188.2960  174.7150  134.5940 O   0  0  0  0  0  1  0  0  0  0  0  0
  190.3760  175.3970  135.2260 O   0  0  0  0  0  0  0  0  0  0  0  0
  189.2880  174.0160  136.6670 C   0  0  1  0  0  3  0  0  0  0  0  0
  188.3280  171.8670  137.7050 C   0  0  0  0  0  1  0  0  0  0  0  0
  186.8310  173.6400  136.8450 C   0  0  0  0  0  3  0  0  0  0  0  0
  188.0750  173.2100  137.1010 C   0  0  0  0  0  0  0  0  0  0  0  0
  185.1060  172.9470  138.3480 O   0  0  0  0  0  1  0  0  0  0  0  0
  185.5680  172.9530  137.1760 C   0  0  0  0  0  0  0  0  0  0  0  0
  184.8690  172.3080  136.1660 O   0  0  0  0  0  0  0  0  0  0  0  0
  190.3820  175.3490  138.4540 C   0  0  0  0  0  2  0  0  0  0  0  0
  190.8990  176.6350  138.7530 O   0  0  0  0  0  0  0  0  0  0  0  0
  191.2410  176.9560  140.0360 C   0  0  0  0  0  0  0  0  0  0  0  0
  191.5410  177.2380  141.1700 C   0  0  0  0  0  3  0  0  0  0  0  0
  3 39  1  1  0  0  0
  3 10  1  0  0  0  0
  5 10  1  0  0  0  0
  6  4  1  6  0  0  0
  6 11  1  0  0  0  0
  7 13  1  1  0  0  0
  7  6  1  0  0  0  0
  8 17  1  0  0  0  0
 10  7  1  0  0  0  0
 12  1  1  0  0  0  0
 13  6  1  0  0  0  0
 14  1  1  0  0  0  0
 14 15  1  0  0  0  0
 15  2  1  6  0  0  0
 15  8  1  0  0  0  0
 16  9  1  6  0  0  0
 16 18  1  0  0  0  0
 16  3  1  0  0  0  0
 17 11  1  0  0  0  0
 17 19  1  1  0  0  0
 18 12  1  0  0  0  0
 19 20  1  0  0  0  0
 20 26  1  0  0  0  0
 21 26  2  0  0  0  0
 21 25  1  0  0  0  0
 22 24  1  0  0  0  0
 22 27  1  0  0  0  0
 23 24  2  0  0  0  0
 25 22  2  0  0  0  0
 26 23  1  0  0  0  0
 27 28  1  0  0  0  0
 29 27  2  0  0  0  0
 30 19  1  0  0  0  0
 30 32  1  0  0  0  0
 32 31  2  0  0  0  0
 33 32  1  0  0  0  0
 34 33  1  0  0  0  0
 34 35  2  0  0  0  0
 36 37  1  0  0  0  0
 36 38  1  0  0  0  0
 37 38  1  0  0  0  0
 38 34  1  1  0  0  0
 40 43  1  1  0  0  0
 40 44  1  0  0  0  0
 40 45  1  0  0  0  0
 41 39  1  0  0  0  0
 41 52  1  1  0  0  0
 42 41  1  0  0  0  0
 44 42  1  0  0  0  0
 45 48  1  6  0  0  0
 45 41  1  0  0  0  0
 47 48  2  0  0  0  0
 47 50  1  0  0  0  0
 48 46  1  0  0  0  0
 50 49  1  0  0  0  0
 51 50  2  0  0  0  0
 52 53  1  0  0  0  0
 53 54  1  0  0  0  0
 54 55  3  0  0  0  0
M  END
>  <MODEL>
5

>  <REMARK>
 VINA RESULT:      -3.8      3.129      6.584
  Name = 
  16 active torsions:
  status: ('A' for Active; 'I' for Inactive)
    1  A    between atoms: C_6  and  O_8
    2  A    between atoms: C_6  and  C_46
    3  A    between atoms: C_7  and  O_8
    4  A    between atoms: C_10  and  C_32
    5  A    between atoms: C_11  and  C_29
    6  A    between atoms: C_12  and  O_14
    7  A    between atoms: O_14  and  C_46
    8  A    between atoms: C_27  and  C_31
    9  A    between atoms: C_27  and  C_55
   10  A    between atoms: C_28  and  C_44
   11  A    between atoms: C_28  and  N_49
   12  A    between atoms: C_31  and  C_44
   13  A    between atoms: C_33  and  N_49
   14  A    between atoms: C_33  and  C_52
   15  A    between atoms: C_38  and  C_53
   16  A    between atoms: C_45  and  N_49
                            x       y       z     vdW  Elec       q    Type
                         _______ _______ _______ _____ _____    ______ ____

>  <TORSDO>
F 16

$$$$
=
 OpenBabel10262420403D

 55 59  0  0  1  0  0  0  0  0999 V2000
  189.5540  175.4190  137.0700 C   0  0  0  0  0  2  0  0  0  0  0  0
  188.2600  178.3770  136.7190 C   0  0  0  0  0  1  0  0  0  0  0  0
  193.8080  175.4990  136.8620 C   0  0  2  0  0  3  0  0  0  0  0  0
  193.9470  178.2330  140.0400 O   0  0  0  0  0  1  0  0  0  0  0  0
  193.9190  177.8700  136.9980 C   0  0  0  0  0  1  0  0  0  0  0  0
  192.7490  177.5460  139.8360 C   0  0  2  0  0  0  0  0  0  0  0  0
  192.6350  176.6710  138.5920 C   0  0  1  0  0  3  0  0  0  0  0  0
  189.7340  178.3690  138.7010 C   0  0  0  0  0  2  0  0  0  0  0  0
  193.0210  175.5230  134.5940 O   0  0  0  0  0  1  0  0  0  0  0  0
  193.8550  176.6450  137.7860 N   0  0  0  0  0  0  0  0  0  0  0  0
  191.4860  178.0970  140.5060 C   0  0  0  0  0  2  0  0  0  0  0  0
  190.7410  174.5040  137.3460 C   0  0  0  0  0  2  0  0  0  0  0  0
  192.9140  176.0500  139.9610 C   0  0  0  0  0  2  0  0  0  0  0  0
  189.9750  176.7480  136.9660 O   0  0  0  0  0  0  0  0  0  0  0  0
  189.0300  177.4920  137.6790 C   0  0  2  0  0  3  0  0  0  0  0  0
  192.5790  175.5070  135.9160 C   0  0  1  0  0  3  0  0  0  0  0  0
  190.1940  177.5340  139.8880 C   0  0  1  0  0  3  0  0  0  0  0  0
  191.6170  174.3340  136.1100 C   0  0  0  0  0  2  0  0  0  0  0  0
  189.1030  177.3260  140.8500 N   0  0  0  0  0  0  0  0  0  0  0  0
  187.9430  178.1500  140.5190 C   0  0  0  0  0  2  0  0  0  0  0  0
  187.3560  177.5760  142.8810 C   0  0  0  0  0  3  0  0  0  0  0  0
  185.3800  178.5020  143.9460 C   0  0  0  0  0  0  0  0  0  0  0  0
  185.9380  179.1130  141.6630 C   0  0  0  0  0  3  0  0  0  0  0  0
  185.0960  179.2180  142.7740 C   0  0  0  0  0  3  0  0  0  0  0  0
  186.5140  177.6800  143.9910 C   0  0  0  0  0  3  0  0  0  0  0  0
  187.0730  178.2980  141.7180 C   0  0  0  0  0  0  0  0  0  0  0  0
  184.4950  178.6060  145.1180 C   0  0  0  0  0  0  0  0  0  0  0  0
  184.9780  178.6490  146.2810 O   0  0  0  0  0  1  0  0  0  0  0  0
  183.1160  178.6610  144.9510 O   0  0  0  0  0  0  0  0  0  0  0  0
  189.5730  177.7130  142.1740 C   0  0  0  0  0  2  0  0  0  0  0  0
  190.5550  175.5840  142.3990 O   0  0  0  0  0  0  0  0  0  0  0  0
  189.9650  176.4990  142.9490 C   0  0  0  0  0  0  0  0  0  0  0  0
  189.6710  176.4270  144.4140 C   0  0  0  0  0  2  0  0  0  0  0  0
  190.6800  177.2080  145.1990 C   0  0  0  0  0  0  0  0  0  0  0  0
  191.6850  177.9580  144.4960 S   0  0  0  0  0  0  0  0  0  0  0  0
  190.1030  176.2770  147.3100 O   0  0  0  0  0  0  0  0  0  0  0  0
  191.4120  176.7530  147.5020 C   0  0  0  0  0  2  0  0  0  0  0  0
  190.4340  177.4790  146.6540 C   0  0  1  0  0  3  0  0  0  0  0  0
  193.9260  174.2890  137.5790 O   0  0  0  0  0  0  0  0  0  0  0  0
  196.4630  173.2970  135.9510 C   0  0  1  0  0  3  0  0  0  0  0  0
  195.2910  173.9940  137.8140 C   0  0  2  0  0  0  0  0  0  0  0  0
  196.1130  175.0150  137.2710 O   0  0  0  0  0  0  0  0  0  0  0  0
  195.6460  173.6850  134.8820 O   0  0  0  0  0  1  0  0  0  0  0  0
  197.0480  174.4360  136.5120 O   0  0  0  0  0  0  0  0  0  0  0  0
  195.6650  172.7250  137.0840 C   0  0  1  0  0  3  0  0  0  0  0  0
  194.2890  170.6700  137.7920 C   0  0  0  0  0  1  0  0  0  0  0  0
  193.8900  171.7770  135.6140 C   0  0  0  0  0  3  0  0  0  0  0  0
  194.5430  171.7450  136.7850 C   0  0  0  0  0  0  0  0  0  0  0  0
  193.0060  169.6410  135.0020 O   0  0  0  0  0  1  0  0  0  0  0  0
  192.8090  170.8740  135.1760 C   0  0  0  0  0  0  0  0  0  0  0  0
  191.5410  171.3960  134.9630 O   0  0  0  0  0  0  0  0  0  0  0  0
  195.5650  173.8160  139.3120 C   0  0  0  0  0  2  0  0  0  0  0  0
  196.0960  175.0040  139.8770 O   0  0  0  0  0  0  0  0  0  0  0  0
  197.4430  175.1270  140.0740 C   0  0  0  0  0  0  0  0  0  0  0  0
  198.6310  175.2360  140.2500 C   0  0  0  0  0  3  0  0  0  0  0  0
  1 12  1  0  0  0  0
  3 39  1  1  0  0  0
  3 10  1  0  0  0  0
  5 10  1  0  0  0  0
  6 13  1  0  0  0  0
  6  4  1  1  0  0  0
  6 11  1  0  0  0  0
  7  6  1  0  0  0  0
  7 13  1  1  0  0  0
  8 17  1  0  0  0  0
 10  7  1  0  0  0  0
 14  1  1  0  0  0  0
 14 15  1  0  0  0  0
 15  2  1  6  0  0  0
 15  8  1  0  0  0  0
 16  9  1  6  0  0  0
 16 18  1  0  0  0  0
 16  3  1  0  0  0  0
 17 11  1  0  0  0  0
 17 19  1  1  0  0  0
 18 12  1  0  0  0  0
 19 30  1  0  0  0  0
 20 19  1  0  0  0  0
 20 26  1  0  0  0  0
 21 25  1  0  0  0  0
 22 25  2  0  0  0  0
 22 27  1  0  0  0  0
 23 26  1  0  0  0  0
 23 24  2  0  0  0  0
 24 22  1  0  0  0  0
 26 21  2  0  0  0  0
 27 28  1  0  0  0  0
 29 27  2  0  0  0  0
 30 32  1  0  0  0  0
 31 32  2  0  0  0  0
 32 33  1  0  0  0  0
 33 34  1  0  0  0  0
 35 34  2  0  0  0  0
 36 37  1  0  0  0  0
 38 34  1  6  0  0  0
 38 36  1  0  0  0  0
 38 37  1  0  0  0  0
 39 41  1  0  0  0  0
 40 43  1  6  0  0  0
 40 44  1  0  0  0  0
 40 45  1  0  0  0  0
 41 52  1  1  0  0  0
 42 41  1  0  0  0  0
 44 42  1  0  0  0  0
 45 48  1  6  0  0  0
 45 41  1  0  0  0  0
 47 48  2  0  0  0  0
 48 46  1  0  0  0  0
 49 50  1  0  0  0  0
 50 47  1  0  0  0  0
 51 50  2  0  0  0  0
 52 53  1  0  0  0  0
 53 54  1  0  0  0  0
 54 55  3  0  0  0  0
M  END
>  <MODEL>
6

>  <REMARK>
 VINA RESULT:      -3.7      6.007     10.053
  Name = 
  16 active torsions:
  status: ('A' for Active; 'I' for Inactive)
    1  A    between atoms: C_6  and  O_8
    2  A    between atoms: C_6  and  C_46
    3  A    between atoms: C_7  and  O_8
    4  A    between atoms: C_10  and  C_32
    5  A    between atoms: C_11  and  C_29
    6  A    between atoms: C_12  and  O_14
    7  A    between atoms: O_14  and  C_46
    8  A    between atoms: C_27  and  C_31
    9  A    between atoms: C_27  and  C_55
   10  A    between atoms: C_28  and  C_44
   11  A    between atoms: C_28  and  N_49
   12  A    between atoms: C_31  and  C_44
   13  A    between atoms: C_33  and  N_49
   14  A    between atoms: C_33  and  C_52
   15  A    between atoms: C_38  and  C_53
   16  A    between atoms: C_45  and  N_49
                            x       y       z     vdW  Elec       q    Type
                         _______ _______ _______ _____ _____    ______ ____

>  <TORSDO>
F 16

$$$$
=
 OpenBabel10262420403D

 55 59  0  0  1  0  0  0  0  0999 V2000
  184.1690  177.7860  141.9030 C   0  0  0  0  0  2  0  0  0  0  0  0
  185.0640  180.6110  143.2330 C   0  0  0  0  0  1  0  0  0  0  0  0
  184.4130  177.8710  137.6510 C   0  0  2  0  0  3  0  0  0  0  0  0
  188.4770  178.8840  137.8690 O   0  0  0  0  0  1  0  0  0  0  0  0
  185.6080  179.9260  137.6120 C   0  0  0  0  0  1  0  0  0  0  0  0
  187.8770  178.3850  139.0270 C   0  0  2  0  0  0  0  0  0  0  0  0
  186.3680  178.1640  139.0050 C   0  0  1  0  0  3  0  0  0  0  0  0
  186.9590  179.6860  141.9460 C   0  0  0  0  0  2  0  0  0  0  0  0
  182.3350  178.9250  138.2300 O   0  0  0  0  0  1  0  0  0  0  0  0
  185.7530  178.4790  137.7170 N   0  0  0  0  0  0  0  0  0  0  0  0
  188.6030  178.6000  140.3580 C   0  0  0  0  0  2  0  0  0  0  0  0
  184.1130  176.8230  140.7240 C   0  0  0  0  0  2  0  0  0  0  0  0
  187.3330  176.9890  138.8370 C   0  0  0  0  0  2  0  0  0  0  0  0
  184.7110  179.0130  141.5080 O   0  0  0  0  0  0  0  0  0  0  0  0
  185.5920  179.3740  142.5320 C   0  0  2  0  0  3  0  0  0  0  0  0
  183.4620  178.3260  138.7890 C   0  0  1  0  0  3  0  0  0  0  0  0
  187.6820  178.3990  141.5750 C   0  0  1  0  0  3  0  0  0  0  0  0
  183.0200  177.2090  139.7350 C   0  0  0  0  0  2  0  0  0  0  0  0
  188.3430  177.8020  142.7430 N   0  0  0  0  0  0  0  0  0  0  0  0
  189.6800  177.3200  142.4040 C   0  0  0  0  0  2  0  0  0  0  0  0
  190.9670  175.7640  143.8800 C   0  0  0  0  0  3  0  0  0  0  0  0
  191.8010  176.4850  146.0440 C   0  0  0  0  0  0  0  0  0  0  0  0
  190.5870  178.0360  144.6230 C   0  0  0  0  0  3  0  0  0  0  0  0
  191.2670  177.7610  145.8130 C   0  0  0  0  0  3  0  0  0  0  0  0
  191.6460  175.4880  145.0700 C   0  0  0  0  0  3  0  0  0  0  0  0
  190.4440  177.0400  143.6520 C   0  0  0  0  0  0  0  0  0  0  0  0
  192.5150  176.1890  147.2970 C   0  0  0  0  0  0  0  0  0  0  0  0
  193.2920  175.2000  147.3700 O   0  0  0  0  0  0  0  0  0  0  0  0
  192.3380  177.0010  148.4110 O   0  0  0  0  0  1  0  0  0  0  0  0
  187.5510  176.6650  143.1940 C   0  0  0  0  0  2  0  0  0  0  0  0
  186.1380  176.2070  145.0230 O   0  0  0  0  0  0  0  0  0  0  0  0
  186.9880  176.9430  144.5480 C   0  0  0  0  0  0  0  0  0  0  0  0
  187.5020  178.1020  145.3410 C   0  0  0  0  0  2  0  0  0  0  0  0
  187.2320  177.9110  146.8020 C   0  0  0  0  0  0  0  0  0  0  0  0
  188.2050  177.2250  147.6090 S   0  0  0  0  0  0  0  0  0  0  0  0
  185.5440  179.5610  146.5190 O   0  0  0  0  0  0  0  0  0  0  0  0
  184.8250  178.4060  146.8770 C   0  0  0  0  0  2  0  0  0  0  0  0
  186.1520  178.7130  147.4650 C   0  0  1  0  0  3  0  0  0  0  0  0
  184.5180  176.4660  137.5690 O   0  0  0  0  0  0  0  0  0  0  0  0
  183.7770  173.6910  136.2200 C   0  0  1  0  0  3  0  0  0  0  0  0
  183.7880  175.9880  136.4540 C   0  0  2  0  0  0  0  0  0  0  0  0
  182.5700  175.4000  136.8820 O   0  0  0  0  0  0  0  0  0  0  0  0
  184.1910  173.2290  137.4750 O   0  0  0  0  0  1  0  0  0  0  0  0
  182.4750  174.1890  136.3250 O   0  0  0  0  0  0  0  0  0  0  0  0
  184.5680  174.8850  135.7770 C   0  0  1  0  0  3  0  0  0  0  0  0
  186.6360  173.9990  137.0250 C   0  0  0  0  0  1  0  0  0  0  0  0
  186.8550  175.7450  135.2830 C   0  0  0  0  0  3  0  0  0  0  0  0
  186.0760  174.8900  135.9640 C   0  0  0  0  0  0  0  0  0  0  0  0
  189.0640  174.8950  135.6180 O   0  0  0  0  0  1  0  0  0  0  0  0
  188.3200  175.8840  135.3860 C   0  0  0  0  0  0  0  0  0  0  0  0
  188.8900  177.1370  135.2080 O   0  0  0  0  0  0  0  0  0  0  0  0
  183.5230  177.1130  135.4470 C   0  0  0  0  0  2  0  0  0  0  0  0
  182.1460  177.1870  135.1150 O   0  0  0  0  0  0  0  0  0  0  0  0
  181.5710  178.3950  134.8380 C   0  0  0  0  0  0  0  0  0  0  0  0
  181.0610  179.4600  134.5940 C   0  0  0  0  0  3  0  0  0  0  0  0
  3 39  1  1  0  0  0
  3 10  1  0  0  0  0
  3 16  1  0  0  0  0
  5 10  1  0  0  0  0
  6  4  1  6  0  0  0
  6 11  1  0  0  0  0
  7 13  1  6  0  0  0
  7  6  1  0  0  0  0
  8 15  1  0  0  0  0
 10  7  1  0  0  0  0
 11 17  1  0  0  0  0
 12  1  1  0  0  0  0
 13  6  1  0  0  0  0
 14  1  1  0  0  0  0
 14 15  1  0  0  0  0
 15  2  1  6  0  0  0
 16  9  1  6  0  0  0
 16 18  1  0  0  0  0
 17  8  1  0  0  0  0
 17 19  1  1  0  0  0
 18 12  1  0  0  0  0
 19 30  1  0  0  0  0
 20 19  1  0  0  0  0
 20 26  1  0  0  0  0
 21 25  1  0  0  0  0
 22 27  1  0  0  0  0
 23 24  2  0  0  0  0
 24 22  1  0  0  0  0
 25 22  2  0  0  0  0
 26 21  2  0  0  0  0
 26 23  1  0  0  0  0
 27 28  2  0  0  0  0
 27 29  1  0  0  0  0
 30 32  1  0  0  0  0
 32 31  2  0  0  0  0
 32 33  1  0  0  0  0
 33 34  1  0  0  0  0
 34 35  2  0  0  0  0
 36 37  1  0  0  0  0
 36 38  1  0  0  0  0
 37 38  1  0  0  0  0
 38 34  1  6  0  0  0
 40 44  1  0  0  0  0
 40 43  1  1  0  0  0
 41 52  1  6  0  0  0
 41 42  1  0  0  0  0
 41 39  1  0  0  0  0
 44 42  1  0  0  0  0
 45 48  1  1  0  0  0
 45 40  1  0  0  0  0
 45 41  1  0  0  0  0
 47 50  1  0  0  0  0
 47 48  2  0  0  0  0
 48 46  1  0  0  0  0
 50 49  1  0  0  0  0
 51 50  2  0  0  0  0
 53 52  1  0  0  0  0
 54 53  1  0  0  0  0
 55 54  3  0  0  0  0
M  END
>  <MODEL>
7

>  <REMARK>
 VINA RESULT:      -3.3      2.299      3.771
  Name = 
  16 active torsions:
  status: ('A' for Active; 'I' for Inactive)
    1  A    between atoms: C_6  and  O_8
    2  A    between atoms: C_6  and  C_46
    3  A    between atoms: C_7  and  O_8
    4  A    between atoms: C_10  and  C_32
    5  A    between atoms: C_11  and  C_29
    6  A    between atoms: C_12  and  O_14
    7  A    between atoms: O_14  and  C_46
    8  A    between atoms: C_27  and  C_31
    9  A    between atoms: C_27  and  C_55
   10  A    between atoms: C_28  and  C_44
   11  A    between atoms: C_28  and  N_49
   12  A    between atoms: C_31  and  C_44
   13  A    between atoms: C_33  and  N_49
   14  A    between atoms: C_33  and  C_52
   15  A    between atoms: C_38  and  C_53
   16  A    between atoms: C_45  and  N_49
                            x       y       z     vdW  Elec       q    Type
                         _______ _______ _______ _____ _____    ______ ____

>  <TORSDO>
F 16

$$$$
=
 OpenBabel10262420403D

 55 59  0  0  1  0  0  0  0  0999 V2000
  181.0430  177.1850  141.9240 C   0  0  0  0  0  2  0  0  0  0  0  0
  180.9160  179.7550  143.9050 C   0  0  0  0  0  1  0  0  0  0  0  0
  181.2610  178.3310  137.8270 C   0  0  2  0  0  3  0  0  0  0  0  0
  184.7350  180.5520  138.5970 O   0  0  0  0  0  1  0  0  0  0  0  0
  181.6830  180.6160  138.3340 C   0  0  0  0  0  1  0  0  0  0  0  0
  184.3360  179.6280  139.5640 C   0  0  2  0  0  0  0  0  0  0  0  0
  182.9930  178.9310  139.3700 C   0  0  1  0  0  3  0  0  0  0  0  0
  183.0180  179.8360  142.6090 C   0  0  0  0  0  2  0  0  0  0  0  0
  178.9460  178.4740  138.4460 O   0  0  0  0  0  1  0  0  0  0  0  0
  182.3130  179.3150  138.1340 N   0  0  0  0  0  0  0  0  0  0  0  0
  184.9400  179.7550  140.9660 C   0  0  0  0  0  2  0  0  0  0  0  0
  181.3240  176.5590  140.5640 C   0  0  0  0  0  2  0  0  0  0  0  0
  184.3010  178.2150  139.0310 C   0  0  0  0  0  2  0  0  0  0  0  0
  181.1360  178.5780  141.8510 O   0  0  0  0  0  0  0  0  0  0  0  0
  181.8360  178.9620  142.9980 C   0  0  2  0  0  3  0  0  0  0  0  0
  180.2070  178.1680  138.9540 C   0  0  1  0  0  3  0  0  0  0  0  0
  184.1380  178.9830  142.0290 C   0  0  1  0  0  3  0  0  0  0  0  0
  180.1690  176.7800  139.5940 C   0  0  0  0  0  2  0  0  0  0  0  0
  184.9580  178.3850  143.0900 N   0  0  0  0  0  0  0  0  0  0  0  0
  185.6130  177.1640  142.6270 C   0  0  0  0  0  2  0  0  0  0  0  0
  187.7910  178.2800  142.1100 C   0  0  0  0  0  3  0  0  0  0  0  0
  189.8760  177.4630  143.0500 C   0  0  0  0  0  0  0  0  0  0  0  0
  187.7760  176.3760  143.6050 C   0  0  0  0  0  3  0  0  0  0  0  0
  189.1650  176.4650  143.7330 C   0  0  0  0  0  3  0  0  0  0  0  0
  189.1800  178.3680  142.2370 C   0  0  0  0  0  3  0  0  0  0  0  0
  187.0870  177.2880  142.7990 C   0  0  0  0  0  0  0  0  0  0  0  0
  191.3390  177.5590  143.1790 C   0  0  0  0  0  0  0  0  0  0  0  0
  192.0710  177.5670  142.1540 O   0  0  0  0  0  0  0  0  0  0  0  0
  191.9280  177.6450  144.4360 O   0  0  0  0  0  1  0  0  0  0  0  0
  184.0890  178.0380  144.2080 C   0  0  0  0  0  2  0  0  0  0  0  0
  183.8040  179.0190  146.3310 O   0  0  0  0  0  0  0  0  0  0  0  0
  184.5880  178.6830  145.4590 C   0  0  0  0  0  0  0  0  0  0  0  0
  186.0580  178.8730  145.6590 C   0  0  0  0  0  2  0  0  0  0  0  0
  186.5680  177.9830  146.7510 C   0  0  0  0  0  0  0  0  0  0  0  0
  186.2320  176.5860  146.7280 S   0  0  0  0  0  0  0  0  0  0  0  0
  188.2720  177.3680  148.2910 O   0  0  0  0  0  0  0  0  0  0  0  0
  188.9830  177.9150  147.2080 C   0  0  0  0  0  2  0  0  0  0  0  0
  187.6750  178.4660  147.6400 C   0  0  1  0  0  3  0  0  0  0  0  0
  181.8390  177.1000  137.4510 O   0  0  0  0  0  0  0  0  0  0  0  0
  179.8500  176.1560  135.1670 C   0  0  1  0  0  3  0  0  0  0  0  0
  181.8260  176.9670  136.0410 C   0  0  2  0  0  0  0  0  0  0  0  0
  181.0260  177.9850  135.4610 O   0  0  0  0  0  0  0  0  0  0  0  0
  178.9310  176.3280  136.2100 O   0  0  0  0  0  1  0  0  0  0  0  0
  180.1600  177.4060  134.6230 O   0  0  0  0  0  0  0  0  0  0  0  0
  181.1720  175.6580  135.6650 C   0  0  1  0  0  3  0  0  0  0  0  0
  182.5480  173.9900  137.0600 C   0  0  0  0  0  1  0  0  0  0  0  0
  180.0750  174.0120  137.1810 C   0  0  0  0  0  3  0  0  0  0  0  0
  181.2080  174.5460  136.7000 C   0  0  0  0  0  0  0  0  0  0  0  0
  180.1010  171.7090  137.8220 O   0  0  0  0  0  0  0  0  0  0  0  0
  179.9580  172.9140  138.1590 C   0  0  0  0  0  0  0  0  0  0  0  0
  179.6950  173.2210  139.4870 O   0  0  0  0  0  1  0  0  0  0  0  0
  183.2490  177.0050  135.4720 C   0  0  0  0  0  2  0  0  0  0  0  0
  184.0750  176.0390  136.1000 O   0  0  0  0  0  0  0  0  0  0  0  0
  185.4080  176.2850  136.2740 C   0  0  0  0  0  0  0  0  0  0  0  0
  186.5840  176.5040  136.4270 C   0  0  0  0  0  3  0  0  0  0  0  0
  3 39  1  1  0  0  0
  3 10  1  0  0  0  0
  3 16  1  0  0  0  0
  6  4  1  6  0  0  0
  6 11  1  0  0  0  0
  7 13  1  6  0  0  0
  7  6  1  0  0  0  0
  8 15  1  0  0  0  0
 10  5  1  0  0  0  0
 10  7  1  0  0  0  0
 11 17  1  0  0  0  0
 12  1  1  0  0  0  0
 13  6  1  0  0  0  0
 14  1  1  0  0  0  0
 14 15  1  0  0  0  0
 15  2  1  1  0  0  0
 16  9  1  6  0  0  0
 16 18  1  0  0  0  0
 17  8  1  0  0  0  0
 17 19  1  1  0  0  0
 18 12  1  0  0  0  0
 19 30  1  0  0  0  0
 20 26  1  0  0  0  0
 20 19  1  0  0  0  0
 21 25  2  0  0  0  0
 21 26  1  0  0  0  0
 22 27  1  0  0  0  0
 22 24  2  0  0  0  0
 23 24  1  0  0  0  0
 25 22  1  0  0  0  0
 26 23  2  0  0  0  0
 27 29  1  0  0  0  0
 28 27  2  0  0  0  0
 30 32  1  0  0  0  0
 32 33  1  0  0  0  0
 32 31  2  0  0  0  0
 33 34  1  0  0  0  0
 35 34  2  0  0  0  0
 37 38  1  0  0  0  0
 37 36  1  0  0  0  0
 38 34  1  6  0  0  0
 38 36  1  0  0  0  0
 40 45  1  0  0  0  0
 40 43  1  1  0  0  0
 41 52  1  6  0  0  0
 41 39  1  0  0  0  0
 42 41  1  0  0  0  0
 44 40  1  0  0  0  0
 44 42  1  0  0  0  0
 45 41  1  0  0  0  0
 45 48  1  1  0  0  0
 47 50  1  0  0  0  0
 48 46  1  0  0  0  0
 48 47  2  0  0  0  0
 49 50  2  0  0  0  0
 50 51  1  0  0  0  0
 52 53  1  0  0  0  0
 53 54  1  0  0  0  0
 54 55  3  0  0  0  0
M  END
>  <MODEL>
8

>  <REMARK>
 VINA RESULT:      -3.2      1.827      4.066
  Name = 
  16 active torsions:
  status: ('A' for Active; 'I' for Inactive)
    1  A    between atoms: C_6  and  O_8
    2  A    between atoms: C_6  and  C_46
    3  A    between atoms: C_7  and  O_8
    4  A    between atoms: C_10  and  C_32
    5  A    between atoms: C_11  and  C_29
    6  A    between atoms: C_12  and  O_14
    7  A    between atoms: O_14  and  C_46
    8  A    between atoms: C_27  and  C_31
    9  A    between atoms: C_27  and  C_55
   10  A    between atoms: C_28  and  C_44
   11  A    between atoms: C_28  and  N_49
   12  A    between atoms: C_31  and  C_44
   13  A    between atoms: C_33  and  N_49
   14  A    between atoms: C_33  and  C_52
   15  A    between atoms: C_38  and  C_53
   16  A    between atoms: C_45  and  N_49
                            x       y       z     vdW  Elec       q    Type
                         _______ _______ _______ _____ _____    ______ ____

>  <TORSDO>
F 16

$$$$
=
 OpenBabel10262420403D

 55 59  0  0  1  0  0  0  0  0999 V2000
  183.4890  177.2310  141.9250 C   0  0  0  0  0  2  0  0  0  0  0  0
  184.7230  179.6710  143.6790 C   0  0  0  0  0  1  0  0  0  0  0  0
  182.2170  178.5160  138.0690 C   0  0  2  0  0  3  0  0  0  0  0  0
  186.0700  179.9490  137.2370 O   0  0  0  0  0  1  0  0  0  0  0  0
  183.2690  180.6400  138.2660 C   0  0  0  0  0  1  0  0  0  0  0  0
  185.9290  179.0770  138.3170 C   0  0  2  0  0  0  0  0  0  0  0  0
  184.5150  178.6760  138.7260 C   0  0  1  0  0  3  0  0  0  0  0  0
  186.0660  179.3910  141.6250 C   0  0  0  0  0  2  0  0  0  0  0  0
  180.4500  179.0910  139.5890 O   0  0  0  0  0  1  0  0  0  0  0  0
  183.4780  179.2520  137.8720 N   0  0  0  0  0  0  0  0  0  0  0  0
  187.0720  179.0080  139.3350 C   0  0  0  0  0  2  0  0  0  0  0  0
  183.0460  176.6320  140.5970 C   0  0  0  0  0  2  0  0  0  0  0  0
  185.3890  177.7290  137.9020 C   0  0  0  0  0  2  0  0  0  0  0  0
  183.8260  178.5790  141.7670 O   0  0  0  0  0  0  0  0  0  0  0  0
  185.0010  178.7550  142.5030 C   0  0  2  0  0  3  0  0  0  0  0  0
  181.7170  178.5130  139.5370 C   0  0  1  0  0  3  0  0  0  0  0  0
  186.6440  178.3610  140.6640 C   0  0  1  0  0  3  0  0  0  0  0  0
  181.6650  177.1300  140.1890 C   0  0  0  0  0  2  0  0  0  0  0  0
  187.6890  177.5570  141.3100 N   0  0  0  0  0  0  0  0  0  0  0  0
  188.7670  178.4010  141.8190 C   0  0  0  0  0  2  0  0  0  0  0  0
  190.1760  178.5110  143.8830 C   0  0  0  0  0  3  0  0  0  0  0  0
  189.4250  177.5240  145.9710 C   0  0  0  0  0  0  0  0  0  0  0  0
  188.0130  177.4290  143.9970 C   0  0  0  0  0  3  0  0  0  0  0  0
  188.2320  177.1320  145.3450 C   0  0  0  0  0  3  0  0  0  0  0  0
  190.3950  178.2140  145.2300 C   0  0  0  0  0  3  0  0  0  0  0  0
  188.9820  178.1260  143.2670 C   0  0  0  0  0  0  0  0  0  0  0  0
  189.6620  177.2110  147.3890 C   0  0  0  0  0  0  0  0  0  0  0  0
  190.3200  176.1870  147.7160 O   0  0  0  0  0  0  0  0  0  0  0  0
  189.1620  178.0440  148.3830 O   0  0  0  0  0  1  0  0  0  0  0  0
  188.2530  176.6470  140.3210 C   0  0  0  0  0  2  0  0  0  0  0  0
  190.4920  176.4170  141.0180 O   0  0  0  0  0  0  0  0  0  0  0  0
  189.7220  176.8820  140.1930 C   0  0  0  0  0  0  0  0  0  0  0  0
  190.2500  177.6510  139.0250 C   0  0  0  0  0  2  0  0  0  0  0  0
  190.4030  176.7650  137.8260 C   0  0  0  0  0  0  0  0  0  0  0  0
  189.7990  177.1600  136.5830 S   0  0  0  0  0  0  0  0  0  0  0  0
  192.1040  175.6510  136.5930 O   0  0  0  0  0  0  0  0  0  0  0  0
  192.8010  176.2480  137.6580 C   0  0  0  0  0  2  0  0  0  0  0  0
  191.4410  175.6820  137.8360 C   0  0  1  0  0  3  0  0  0  0  0  0
  182.3230  177.2150  137.5340 O   0  0  0  0  0  0  0  0  0  0  0  0
  179.4740  176.0220  136.8060 C   0  0  1  0  0  3  0  0  0  0  0  0
  181.4820  177.0850  136.4010 C   0  0  2  0  0  0  0  0  0  0  0  0
  180.3940  177.9890  136.4930 O   0  0  0  0  0  0  0  0  0  0  0  0
  179.3490  176.0690  138.2000 O   0  0  0  0  0  1  0  0  0  0  0  0
  179.2650  177.3040  136.2880 O   0  0  0  0  0  0  0  0  0  0  0  0
  180.8740  175.7020  136.3810 C   0  0  1  0  0  3  0  0  0  0  0  0
  181.1400  174.1960  138.4500 C   0  0  0  0  0  1  0  0  0  0  0  0
  182.7740  174.1020  136.5920 C   0  0  0  0  0  3  0  0  0  0  0  0
  181.6370  174.6020  137.1000 C   0  0  0  0  0  0  0  0  0  0  0  0
  184.6100  173.3550  137.9290 O   0  0  0  0  0  1  0  0  0  0  0  0
  183.6310  173.0620  137.1910 C   0  0  0  0  0  0  0  0  0  0  0  0
  183.3420  171.7270  136.9430 O   0  0  0  0  0  0  0  0  0  0  0  0
  182.2690  177.3120  135.1050 C   0  0  0  0  0  2  0  0  0  0  0  0
  183.6430  177.5370  135.3750 O   0  0  0  0  0  0  0  0  0  0  0  0
  184.5810  176.6350  134.9590 C   0  0  0  0  0  0  0  0  0  0  0  0
  185.4090  175.8380  134.5940 C   0  0  0  0  0  3  0  0  0  0  0  0
  3 39  1  1  0  0  0
  3 16  1  0  0  0  0
  6  4  1  6  0  0  0
  6  7  1  0  0  0  0
  6 11  1  0  0  0  0
  7 13  1  6  0  0  0
  8 15  1  0  0  0  0
 10  3  1  0  0  0  0
 10  5  1  0  0  0  0
 10  7  1  0  0  0  0
 11 17  1  0  0  0  0
 12  1  1  0  0  0  0
 13  6  1  0  0  0  0
 14  1  1  0  0  0  0
 14 15  1  0  0  0  0
 15  2  1  1  0  0  0
 16  9  1  6  0  0  0
 16 18  1  0  0  0  0
 17 19  1  1  0  0  0
 17  8  1  0  0  0  0
 18 12  1  0  0  0  0
 19 20  1  0  0  0  0
 20 26  1  0  0  0  0
 21 25  1  0  0  0  0
 22 27  1  0  0  0  0
 23 24  2  0  0  0  0
 24 22  1  0  0  0  0
 25 22  2  0  0  0  0
 26 21  2  0  0  0  0
 26 23  1  0  0  0  0
 27 28  2  0  0  0  0
 27 29  1  0  0  0  0
 30 19  1  0  0  0  0
 32 30  1  0  0  0  0
 32 31  2  0  0  0  0
 33 32  1  0  0  0  0
 34 33  1  0  0  0  0
 35 34  2  0  0  0  0
 36 37  1  0  0  0  0
 36 38  1  0  0  0  0
 37 38  1  0  0  0  0
 38 34  1  6  0  0  0
 40 43  1  1  0  0  0
 41 52  1  6  0  0  0
 41 42  1  0  0  0  0
 41 39  1  0  0  0  0
 44 42  1  0  0  0  0
 44 40  1  0  0  0  0
 45 41  1  0  0  0  0
 45 40  1  0  0  0  0
 45 48  1  1  0  0  0
 47 48  2  0  0  0  0
 47 50  1  0  0  0  0
 48 46  1  0  0  0  0
 50 49  1  0  0  0  0
 51 50  2  0  0  0  0
 52 53  1  0  0  0  0
 54 53  1  0  0  0  0
 55 54  3  0  0  0  0
M  END
>  <MODEL>
9

>  <REMARK>
 VINA RESULT:      -3.1      2.483      3.814
  Name = 
  16 active torsions:
  status: ('A' for Active; 'I' for Inactive)
    1  A    between atoms: C_6  and  O_8
    2  A    between atoms: C_6  and  C_46
    3  A    between atoms: C_7  and  O_8
    4  A    between atoms: C_10  and  C_32
    5  A    between atoms: C_11  and  C_29
    6  A    between atoms: C_12  and  O_14
    7  A    between atoms: O_14  and  C_46
    8  A    between atoms: C_27  and  C_31
    9  A    between atoms: C_27  and  C_55
   10  A    between atoms: C_28  and  C_44
   11  A    between atoms: C_28  and  N_49
   12  A    between atoms: C_31  and  C_44
   13  A    between atoms: C_33  and  N_49
   14  A    between atoms: C_33  and  C_52
   15  A    between atoms: C_38  and  C_53
   16  A    between atoms: C_45  and  N_49
                            x       y       z     vdW  Elec       q    Type
                         _______ _______ _______ _____ _____    ______ ____

>  <TORSDO>
F 16

$$$$
