=
 OpenBabel10262421253D

 32 38  0  0  1  0  0  0  0  0999 V2000
  183.3190  179.3670  145.0880 C   0  0  0  0  0  2  0  0  0  0  0  0
  187.6920  177.6790  143.1190 C   0  0  0  0  0  0  0  0  0  0  0  0
  190.7000  176.8260  146.8780 C   0  0  0  0  0  3  0  0  0  0  0  0
  191.7400  176.5560  145.9860 C   0  0  0  0  0  3  0  0  0  0  0  0
  188.9540  177.4310  140.7830 C   0  0  0  0  0  0  0  0  0  0  0  0
  188.2440  177.8760  139.7280 C   0  0  0  0  0  0  0  0  0  0  0  0
  185.3270  178.1990  143.4370 C   0  0  0  0  0  0  0  0  0  0  0  0
  186.7570  177.7630  145.4790 C   0  0  0  0  0  3  0  0  0  0  0  0
  190.9290  176.8530  139.2790 C   0  0  0  0  0  0  0  0  0  0  0  0
  184.4490  178.6130  145.7760 C   0  0  0  0  0  2  0  0  0  0  0  0
  189.4360  177.1800  146.3980 C   0  0  0  0  0  3  0  0  0  0  0  0
  187.9120  177.6050  144.5180 C   0  0  0  0  0  0  0  0  0  0  0  0
  189.1960  177.2740  145.0180 C   0  0  0  0  0  0  0  0  0  0  0  0
  190.0170  177.0910  142.7500 C   0  0  0  0  0  0  0  0  0  0  0  0
  190.1990  177.1970  138.2160 C   0  0  0  0  0  3  0  0  0  0  0  0
  185.5500  178.3140  144.8600 N   0  0  0  0  0  0  0  0  0  0  0  0
  188.7470  177.6230  138.3190 C   0  0  0  0  0  3  0  0  0  0  0  0
  184.0100  178.5650  142.8230 C   0  0  0  0  0  2  0  0  0  0  0  0
  182.8830  178.5860  143.8570 C   0  0  2  0  0  3  0  0  0  0  0  0
  191.5210  176.6410  144.6090 C   0  0  0  0  0  3  0  0  0  0  0  0
  190.2590  177.0010  144.1200 C   0  0  0  0  0  0  0  0  0  0  0  0
  190.9540  176.7790  141.7220 N   0  0  0  0  0  0  0  0  0  0  0  0
  186.3370  177.9210  142.6200 C   0  0  0  0  0  3  0  0  0  0  0  0
  186.7600  178.7990  139.8490 Cl  0  0  0  0  0  0  0  0  0  0  0  0
  192.3470  176.4370  139.1030 C   0  0  0  0  0  1  0  0  0  0  0  0
  188.7830  177.4720  142.2500 C   0  0  0  0  0  0  0  0  0  0  0  0
  190.3220  176.9540  140.6080 C   0  0  0  0  0  0  0  0  0  0  0  0
  179.2840  178.5080  142.9640 C   0  0  0  0  0  2  0  0  0  0  0  0
  181.5760  179.1500  143.2920 C   0  0  0  0  0  3  0  0  0  0  0  0
  180.0030  178.2550  141.6570 C   0  0  0  0  0  2  0  0  0  0  0  0
  181.3850  178.8630  141.8080 C   0  0  0  0  0  2  0  0  0  0  0  0
  180.3690  178.5810  144.0110 C   0  0  0  0  0  2  0  0  0  0  0  0
  1 10  1  0  0  0  0
  2 12  1  0  0  0  0
  4  3  2  0  0  0  0
  5 26  1  0  0  0  0
  6 24  1  0  0  0  0
  6  5  2  0  0  0  0
  7 16  1  0  0  0  0
  9 27  2  0  0  0  0
 11  3  1  0  0  0  0
 12 13  1  0  0  0  0
 12  8  2  0  0  0  0
 13 11  2  0  0  0  0
 14 21  1  0  0  0  0
 15 17  2  0  0  0  0
 15  9  1  0  0  0  0
 16  8  1  0  0  0  0
 16 10  1  0  0  0  0
 17  6  1  0  0  0  0
 18  7  1  0  0  0  0
 18 19  1  0  0  0  0
 19 29  1  6  0  0  0
 19  1  1  0  0  0  0
 20  4  1  0  0  0  0
 21 20  2  0  0  0  0
 21 13  1  0  0  0  0
 22 14  2  0  0  0  0
 23  2  1  0  0  0  0
 23  7  2  0  0  0  0
 25  9  1  0  0  0  0
 26 14  1  0  0  0  0
 26  2  2  0  0  0  0
 27  5  1  0  0  0  0
 27 22  1  0  0  0  0
 28 32  1  0  0  0  0
 29 32  1  0  0  0  0
 30 31  1  0  0  0  0
 30 28  1  0  0  0  0
 31 29  1  0  0  0  0
M  END
>  <MODEL>
1

>  <REMARK>
 VINA RESULT:     -12.3      0.000      0.000
  Name = 
  1 active torsions:
  status: ('A' for Active; 'I' for Inactive)
    1  A    between atoms: C_10  and  C_24
                            x       y       z     vdW  Elec       q    Type
                         _______ _______ _______ _____ _____    ______ ____

>  <TORSDO>
F 1

$$$$
=
 OpenBabel10262421253D

 32 38  0  0  1  0  0  0  0  0999 V2000
  189.4300  178.0460  137.7050 C   0  0  0  0  0  2  0  0  0  0  0  0
  188.0110  177.7590  142.5790 C   0  0  0  0  0  0  0  0  0  0  0  0
  183.3000  179.0560  142.7590 C   0  0  0  0  0  3  0  0  0  0  0  0
  183.3380  179.0030  144.1540 C   0  0  0  0  0  3  0  0  0  0  0  0
  189.0370  177.4680  145.0230 C   0  0  0  0  0  0  0  0  0  0  0  0
  190.3790  177.3390  145.0410 C   0  0  0  0  0  0  0  0  0  0  0  0
  189.1780  177.3870  140.4660 C   0  0  0  0  0  0  0  0  0  0  0  0
  186.7340  178.0360  140.4020 C   0  0  0  0  0  3  0  0  0  0  0  0
  188.9390  177.3570  147.5670 C   0  0  0  0  0  0  0  0  0  0  0  0
  188.0260  177.9740  138.2890 C   0  0  0  0  0  2  0  0  0  0  0  0
  184.4470  178.7690  142.0130 C   0  0  0  0  0  3  0  0  0  0  0  0
  186.8130  178.1120  141.9090 C   0  0  0  0  0  0  0  0  0  0  0  0
  185.6500  178.4310  142.6540 C   0  0  0  0  0  0  0  0  0  0  0  0
  186.8740  178.0440  144.7030 C   0  0  0  0  0  0  0  0  0  0  0  0
  190.2540  177.1280  147.5920 C   0  0  0  0  0  3  0  0  0  0  0  0
  188.0390  177.9140  139.7510 N   0  0  0  0  0  0  0  0  0  0  0  0
  191.0850  176.9730  146.3330 C   0  0  0  0  0  3  0  0  0  0  0  0
  190.4580  177.0580  139.7590 C   0  0  0  0  0  2  0  0  0  0  0  0
  190.2520  176.8880  138.2530 C   0  0  2  0  0  3  0  0  0  0  0  0
  184.5240  178.6660  144.8100 C   0  0  0  0  0  3  0  0  0  0  0  0
  185.6790  178.3840  144.0710 C   0  0  0  0  0  0  0  0  0  0  0  0
  187.0490  177.8830  146.1090 N   0  0  0  0  0  0  0  0  0  0  0  0
  189.1710  177.3340  141.7940 C   0  0  0  0  0  3  0  0  0  0  0  0
  191.4210  177.6180  143.6610 Cl  0  0  0  0  0  0  0  0  0  0  0  0
  188.1840  177.4910  148.8440 C   0  0  0  0  0  1  0  0  0  0  0  0
  188.0320  177.7890  143.9890 C   0  0  0  0  0  0  0  0  0  0  0  0
  188.2820  177.5290  146.2700 C   0  0  0  0  0  0  0  0  0  0  0  0
  193.0320  175.0500  136.6250 C   0  0  0  0  0  2  0  0  0  0  0  0
  191.5730  176.7530  137.4900 C   0  0  0  0  0  3  0  0  0  0  0  0
  193.5890  175.4670  137.9680 C   0  0  0  0  0  2  0  0  0  0  0  0
  192.7930  176.6840  138.4010 C   0  0  0  0  0  2  0  0  0  0  0  0
  191.5920  175.5040  136.6320 C   0  0  0  0  0  2  0  0  0  0  0  0
  1 19  1  0  0  0  0
  1 10  1  0  0  0  0
  2 26  2  0  0  0  0
  3  4  1  0  0  0  0
  4 20  2  0  0  0  0
  5  6  2  0  0  0  0
  5 27  1  0  0  0  0
  6 17  1  0  0  0  0
  7 23  2  0  0  0  0
  8 12  2  0  0  0  0
  9 15  1  0  0  0  0
  9 25  1  0  0  0  0
 10 16  1  0  0  0  0
 11 13  1  0  0  0  0
 11  3  2  0  0  0  0
 12  2  1  0  0  0  0
 12 13  1  0  0  0  0
 13 21  2  0  0  0  0
 14 22  2  0  0  0  0
 16  8  1  0  0  0  0
 16  7  1  0  0  0  0
 17 15  2  0  0  0  0
 18  7  1  0  0  0  0
 19 29  1  6  0  0  0
 19 18  1  0  0  0  0
 21 14  1  0  0  0  0
 21 20  1  0  0  0  0
 22 27  1  0  0  0  0
 23  2  1  0  0  0  0
 24  6  1  0  0  0  0
 26 14  1  0  0  0  0
 26  5  1  0  0  0  0
 27  9  2  0  0  0  0
 28 32  1  0  0  0  0
 28 30  1  0  0  0  0
 29 31  1  0  0  0  0
 30 31  1  0  0  0  0
 32 29  1  0  0  0  0
M  END
>  <MODEL>
2

>  <REMARK>
 VINA RESULT:     -12.2      1.933      8.197
  Name = 
  1 active torsions:
  status: ('A' for Active; 'I' for Inactive)
    1  A    between atoms: C_10  and  C_24
                            x       y       z     vdW  Elec       q    Type
                         _______ _______ _______ _____ _____    ______ ____

>  <TORSDO>
F 1

$$$$
=
 OpenBabel10262421253D

 32 38  0  0  1  0  0  0  0  0999 V2000
  190.4540  176.9080  137.9480 C   0  0  0  0  0  2  0  0  0  0  0  0
  188.5080  177.6460  142.5870 C   0  0  0  0  0  0  0  0  0  0  0  0
  191.9330  176.2650  145.7930 C   0  0  0  0  0  3  0  0  0  0  0  0
  191.0300  176.4580  146.8400 C   0  0  0  0  0  3  0  0  0  0  0  0
  186.2020  178.2030  143.8030 C   0  0  0  0  0  0  0  0  0  0  0  0
  185.1630  178.3650  142.9590 C   0  0  0  0  0  0  0  0  0  0  0  0
  188.9650  177.8330  140.1950 C   0  0  0  0  0  0  0  0  0  0  0  0
  190.8440  177.1250  141.7350 C   0  0  0  0  0  3  0  0  0  0  0  0
  184.6870  178.5660  145.8200 C   0  0  0  0  0  0  0  0  0  0  0  0
  191.1780  177.0050  139.2830 C   0  0  0  0  0  2  0  0  0  0  0  0
  191.5390  176.5030  144.4730 C   0  0  0  0  0  3  0  0  0  0  0  0
  189.8280  177.2010  142.8520 C   0  0  0  0  0  0  0  0  0  0  0  0
  190.2330  176.9310  144.1830 C   0  0  0  0  0  0  0  0  0  0  0  0
  188.0290  177.5480  144.9630 C   0  0  0  0  0  0  0  0  0  0  0  0
  183.6730  178.8260  144.9920 C   0  0  0  0  0  3  0  0  0  0  0  0
  190.2530  177.2110  140.3980 N   0  0  0  0  0  0  0  0  0  0  0  0
  183.8350  178.8740  143.4850 C   0  0  0  0  0  3  0  0  0  0  0  0
  188.4470  178.1200  138.8180 C   0  0  0  0  0  2  0  0  0  0  0  0
  189.5680  178.1330  137.7770 C   0  0  2  0  0  3  0  0  0  0  0  0
  189.7280  176.8860  146.5730 C   0  0  0  0  0  3  0  0  0  0  0  0
  189.3230  177.1190  145.2540 C   0  0  0  0  0  0  0  0  0  0  0  0
  187.0230  177.8530  145.9260 N   0  0  0  0  0  0  0  0  0  0  0  0
  188.1400  178.0180  141.2200 C   0  0  0  0  0  3  0  0  0  0  0  0
  185.2030  177.9730  141.2510 Cl  0  0  0  0  0  0  0  0  0  0  0  0
  184.4570  178.5420  147.2910 C   0  0  0  0  0  1  0  0  0  0  0  0
  187.6040  177.7580  143.6630 C   0  0  0  0  0  0  0  0  0  0  0  0
  185.9960  178.2500  145.2470 C   0  0  0  0  0  0  0  0  0  0  0  0
  187.0250  177.8040  135.0970 C   0  0  0  0  0  2  0  0  0  0  0  0
  189.0370  178.2230  136.3430 C   0  0  0  0  0  3  0  0  0  0  0  0
  187.9060  176.5840  134.9350 C   0  0  0  0  0  2  0  0  0  0  0  0
  189.2500  176.9470  135.5390 C   0  0  0  0  0  2  0  0  0  0  0  0
  187.5500  178.5170  136.3200 C   0  0  0  0  0  2  0  0  0  0  0  0
  1 10  1  0  0  0  0
  2 12  1  0  0  0  0
  2 26  2  0  0  0  0
  3  4  1  0  0  0  0
  5 27  1  0  0  0  0
  6 17  1  0  0  0  0
  6  5  2  0  0  0  0
  7 16  1  0  0  0  0
  7 23  2  0  0  0  0
  8 12  2  0  0  0  0
  9 25  1  0  0  0  0
 10 16  1  0  0  0  0
 11  3  2  0  0  0  0
 12 13  1  0  0  0  0
 13 11  1  0  0  0  0
 13 21  2  0  0  0  0
 14 21  1  0  0  0  0
 14 22  2  0  0  0  0
 15  9  1  0  0  0  0
 16  8  1  0  0  0  0
 17 15  2  0  0  0  0
 18  7  1  0  0  0  0
 19 29  1  6  0  0  0
 19  1  1  0  0  0  0
 19 18  1  0  0  0  0
 20  4  2  0  0  0  0
 21 20  1  0  0  0  0
 23  2  1  0  0  0  0
 24  6  1  0  0  0  0
 26  5  1  0  0  0  0
 26 14  1  0  0  0  0
 27  9  2  0  0  0  0
 27 22  1  0  0  0  0
 28 32  1  0  0  0  0
 30 28  1  0  0  0  0
 30 31  1  0  0  0  0
 31 29  1  0  0  0  0
 32 29  1  0  0  0  0
M  END
>  <MODEL>
3

>  <REMARK>
 VINA RESULT:     -11.9      1.661      6.840
  Name = 
  1 active torsions:
  status: ('A' for Active; 'I' for Inactive)
    1  A    between atoms: C_10  and  C_24
                            x       y       z     vdW  Elec       q    Type
                         _______ _______ _______ _____ _____    ______ ____

>  <TORSDO>
F 1

$$$$
=
 OpenBabel10262421253D

 32 38  0  0  1  0  0  0  0  0999 V2000
  181.4430  179.4360  143.1310 C   0  0  0  0  0  2  0  0  0  0  0  0
  186.3400  178.0730  143.2540 C   0  0  0  0  0  0  0  0  0  0  0  0
  187.6670  177.9890  147.9600 C   0  0  0  0  0  3  0  0  0  0  0  0
  188.9900  177.7490  147.5830 C   0  0  0  0  0  3  0  0  0  0  0  0
  188.4360  177.7250  141.6430 C   0  0  0  0  0  0  0  0  0  0  0  0
  188.1740  177.9670  140.3440 C   0  0  0  0  0  0  0  0  0  0  0  0
  184.0130  178.3420  142.5630 C   0  0  0  0  0  0  0  0  0  0  0  0
  184.5450  178.2990  145.0370 C   0  0  0  0  0  3  0  0  0  0  0  0
  190.8780  177.2260  141.1110 C   0  0  0  0  0  0  0  0  0  0  0  0
  182.2570  178.8980  144.3010 C   0  0  0  0  0  2  0  0  0  0  0  0
  186.6750  178.1380  146.9870 C   0  0  0  0  0  3  0  0  0  0  0  0
  185.9940  178.1760  144.6260 C   0  0  0  0  0  0  0  0  0  0  0  0
  186.9950  178.0540  145.6220 C   0  0  0  0  0  0  0  0  0  0  0  0
  188.6550  177.7270  143.8940 C   0  0  0  0  0  0  0  0  0  0  0  0
  190.6070  177.3650  139.8110 C   0  0  0  0  0  3  0  0  0  0  0  0
  183.6480  178.6340  143.9300 N   0  0  0  0  0  0  0  0  0  0  0  0
  189.2080  177.6260  139.2880 C   0  0  0  0  0  3  0  0  0  0  0  0
  183.0250  178.4820  141.4460 C   0  0  0  0  0  2  0  0  0  0  0  0
  181.5820  178.4810  141.9540 C   0  0  2  0  0  3  0  0  0  0  0  0
  189.3280  177.6590  146.2310 C   0  0  0  0  0  3  0  0  0  0  0  0
  188.3420  177.8140  145.2500 C   0  0  0  0  0  0  0  0  0  0  0  0
  189.9410  177.4180  143.3600 N   0  0  0  0  0  0  0  0  0  0  0  0
  185.2800  178.0990  142.2460 C   0  0  0  0  0  3  0  0  0  0  0  0
  186.7040  178.7170  139.7520 Cl  0  0  0  0  0  0  0  0  0  0  0  0
  192.2750  176.9630  141.5540 C   0  0  0  0  0  1  0  0  0  0  0  0
  187.6970  177.9040  142.9100 C   0  0  0  0  0  0  0  0  0  0  0  0
  189.7910  177.3970  142.0760 C   0  0  0  0  0  0  0  0  0  0  0  0
  180.4310  180.0760  138.8100 C   0  0  0  0  0  2  0  0  0  0  0  0
  180.5710  178.8230  140.8560 C   0  0  0  0  0  3  0  0  0  0  0  0
  179.8810  180.9610  139.9070 C   0  0  0  0  0  2  0  0  0  0  0  0
  179.7720  180.0890  141.1430 C   0  0  0  0  0  2  0  0  0  0  0  0
  181.2540  179.0260  139.5180 C   0  0  0  0  0  2  0  0  0  0  0  0
  1 10  1  0  0  0  0
  2 12  1  0  0  0  0
  4  3  1  0  0  0  0
  5 27  1  0  0  0  0
  5 26  1  0  0  0  0
  6  5  2  0  0  0  0
  7 16  1  0  0  0  0
  9 25  1  0  0  0  0
  9 27  2  0  0  0  0
 11  3  2  0  0  0  0
 12  8  2  0  0  0  0
 12 13  1  0  0  0  0
 13 11  1  0  0  0  0
 14 21  1  0  0  0  0
 15  9  1  0  0  0  0
 16 10  1  0  0  0  0
 16  8  1  0  0  0  0
 17 15  2  0  0  0  0
 17  6  1  0  0  0  0
 18 19  1  0  0  0  0
 18  7  1  0  0  0  0
 19 29  1  6  0  0  0
 19  1  1  0  0  0  0
 20  4  2  0  0  0  0
 21 13  2  0  0  0  0
 21 20  1  0  0  0  0
 22 14  2  0  0  0  0
 23  7  2  0  0  0  0
 23  2  1  0  0  0  0
 24  6  1  0  0  0  0
 26  2  2  0  0  0  0
 26 14  1  0  0  0  0
 27 22  1  0  0  0  0
 28 32  1  0  0  0  0
 28 30  1  0  0  0  0
 29 31  1  0  0  0  0
 30 31  1  0  0  0  0
 32 29  1  0  0  0  0
M  END
>  <MODEL>
4

>  <REMARK>
 VINA RESULT:     -11.5      1.479      2.411
  Name = 
  1 active torsions:
  status: ('A' for Active; 'I' for Inactive)
    1  A    between atoms: C_10  and  C_24
                            x       y       z     vdW  Elec       q    Type
                         _______ _______ _______ _____ _____    ______ ____

>  <TORSDO>
F 1

$$$$
=
 OpenBabel10262421253D

 32 38  0  0  1  0  0  0  0  0999 V2000
  187.4320  178.5980  137.2400 C   0  0  0  0  0  2  0  0  0  0  0  0
  187.0210  178.0090  142.2740 C   0  0  0  0  0  0  0  0  0  0  0  0
  182.4030  179.1050  143.4530 C   0  0  0  0  0  3  0  0  0  0  0  0
  182.7200  178.9830  144.8080 C   0  0  0  0  0  3  0  0  0  0  0  0
  188.5210  177.6360  144.4470 C   0  0  0  0  0  0  0  0  0  0  0  0
  189.8420  177.5600  144.1930 C   0  0  0  0  0  0  0  0  0  0  0  0
  187.7540  177.7900  139.9550 C   0  0  0  0  0  0  0  0  0  0  0  0
  185.3280  178.3430  140.4100 C   0  0  0  0  0  3  0  0  0  0  0  0
  188.9330  177.3920  146.9500 C   0  0  0  0  0  0  0  0  0  0  0  0
  186.1750  178.4400  138.0840 C   0  0  0  0  0  2  0  0  0  0  0  0
  183.3870  178.9020  142.4800 C   0  0  0  0  0  3  0  0  0  0  0  0
  185.7030  178.3460  141.8740 C   0  0  0  0  0  0  0  0  0  0  0  0
  184.7030  178.5810  142.8510 C   0  0  0  0  0  0  0  0  0  0  0  0
  186.3210  178.1400  144.5930 C   0  0  0  0  0  0  0  0  0  0  0  0
  190.2330  177.2150  146.7020 C   0  0  0  0  0  3  0  0  0  0  0  0
  186.4810  178.3070  139.5090 N   0  0  0  0  0  0  0  0  0  0  0  0
  190.8010  177.1570  145.2970 C   0  0  0  0  0  3  0  0  0  0  0  0
  188.8770  177.5490  138.9910 C   0  0  0  0  0  2  0  0  0  0  0  0
  188.3800  177.4480  137.5480 C   0  0  2  0  0  3  0  0  0  0  0  0
  184.0220  178.6610  145.1960 C   0  0  0  0  0  3  0  0  0  0  0  0
  185.0150  178.4630  144.2290 C   0  0  0  0  0  0  0  0  0  0  0  0
  186.7770  177.9150  145.9250 N   0  0  0  0  0  0  0  0  0  0  0  0
  188.0130  177.6700  141.2520 C   0  0  0  0  0  3  0  0  0  0  0  0
  190.5800  177.9500  142.6520 Cl  0  0  0  0  0  0  0  0  0  0  0  0
  188.4440  177.4310  148.3550 C   0  0  0  0  0  1  0  0  0  0  0  0
  187.3210  177.9680  143.6510 C   0  0  0  0  0  0  0  0  0  0  0  0
  188.0270  177.6030  145.8200 C   0  0  0  0  0  0  0  0  0  0  0  0
  190.5260  175.8970  134.9510 C   0  0  0  0  0  2  0  0  0  0  0  0
  189.5260  177.4040  136.5330 C   0  0  0  0  0  3  0  0  0  0  0  0
  191.3450  175.8100  136.2200 C   0  0  0  0  0  2  0  0  0  0  0  0
  190.8420  176.9170  137.1280 C   0  0  0  0  0  2  0  0  0  0  0  0
  189.2020  176.4890  135.3700 C   0  0  0  0  0  2  0  0  0  0  0  0
  1 19  1  0  0  0  0
  1 10  1  0  0  0  0
  2 26  2  0  0  0  0
  3  4  1  0  0  0  0
  4 20  2  0  0  0  0
  5 27  1  0  0  0  0
  6  5  2  0  0  0  0
  6 17  1  0  0  0  0
  7 23  2  0  0  0  0
  8 12  2  0  0  0  0
  9 25  1  0  0  0  0
 10 16  1  0  0  0  0
 11 13  1  0  0  0  0
 11  3  2  0  0  0  0
 12  2  1  0  0  0  0
 12 13  1  0  0  0  0
 13 21  2  0  0  0  0
 14 22  2  0  0  0  0
 15  9  1  0  0  0  0
 16  7  1  0  0  0  0
 16  8  1  0  0  0  0
 17 15  2  0  0  0  0
 18  7  1  0  0  0  0
 19 29  1  6  0  0  0
 19 18  1  0  0  0  0
 21 14  1  0  0  0  0
 21 20  1  0  0  0  0
 23  2  1  0  0  0  0
 24  6  1  0  0  0  0
 26  5  1  0  0  0  0
 26 14  1  0  0  0  0
 27 22  1  0  0  0  0
 27  9  2  0  0  0  0
 28 32  1  0  0  0  0
 28 30  1  0  0  0  0
 29 31  1  0  0  0  0
 30 31  1  0  0  0  0
 32 29  1  0  0  0  0
M  END
>  <MODEL>
5

>  <REMARK>
 VINA RESULT:     -11.2      1.970      7.664
  Name = 
  1 active torsions:
  status: ('A' for Active; 'I' for Inactive)
    1  A    between atoms: C_10  and  C_24
                            x       y       z     vdW  Elec       q    Type
                         _______ _______ _______ _____ _____    ______ ____

>  <TORSDO>
F 1

$$$$
=
 OpenBabel10262421253D

 32 38  0  0  1  0  0  0  0  0999 V2000
  190.2990  177.0800  139.5800 C   0  0  0  0  0  2  0  0  0  0  0  0
  186.2670  178.2330  142.4550 C   0  0  0  0  0  0  0  0  0  0  0  0
  187.7050  177.8780  147.1150 C   0  0  0  0  0  3  0  0  0  0  0  0
  186.3910  178.0950  147.5370 C   0  0  0  0  0  3  0  0  0  0  0  0
  183.6360  178.6280  142.2730 C   0  0  0  0  0  0  0  0  0  0  0  0
  183.1500  178.5040  141.0220 C   0  0  0  0  0  0  0  0  0  0  0  0
  187.8440  178.1140  140.5940 C   0  0  0  0  0  0  0  0  0  0  0  0
  188.7390  177.9330  142.9540 C   0  0  0  0  0  3  0  0  0  0  0  0
  181.3020  179.0720  143.1940 C   0  0  0  0  0  0  0  0  0  0  0  0
  190.2560  177.4870  141.0470 C   0  0  0  0  0  2  0  0  0  0  0  0
  188.0090  177.8490  145.7510 C   0  0  0  0  0  3  0  0  0  0  0  0
  187.3000  178.0310  143.4050 C   0  0  0  0  0  0  0  0  0  0  0  0
  187.0010  178.0310  144.7900 C   0  0  0  0  0  0  0  0  0  0  0  0
  184.6730  178.4330  144.2730 C   0  0  0  0  0  0  0  0  0  0  0  0
  180.8230  179.0510  141.9470 C   0  0  0  0  0  3  0  0  0  0  0  0
  188.8890  177.7250  141.5130 N   0  0  0  0  0  0  0  0  0  0  0  0
  181.7120  178.8890  140.7290 C   0  0  0  0  0  3  0  0  0  0  0  0
  188.0670  178.1060  139.1120 C   0  0  0  0  0  2  0  0  0  0  0  0
  189.5550  178.1220  138.7570 C   0  0  2  0  0  3  0  0  0  0  0  0
  185.3760  178.2820  146.5970 C   0  0  0  0  0  3  0  0  0  0  0  0
  185.6700  178.2480  145.2290 C   0  0  0  0  0  0  0  0  0  0  0  0
  183.3070  178.7330  144.5500 N   0  0  0  0  0  0  0  0  0  0  0  0
  186.6110  178.3320  141.0350 C   0  0  0  0  0  3  0  0  0  0  0  0
  184.0550  177.8640  139.6640 Cl  0  0  0  0  0  0  0  0  0  0  0  0
  180.3710  179.2420  144.3430 C   0  0  0  0  0  1  0  0  0  0  0  0
  184.9420  178.3750  142.9160 C   0  0  0  0  0  0  0  0  0  0  0  0
  182.7370  178.8660  143.3970 C   0  0  0  0  0  0  0  0  0  0  0  0
  188.6130  177.3070  135.2640 C   0  0  0  0  0  2  0  0  0  0  0  0
  189.8050  177.9110  137.2620 C   0  0  0  0  0  3  0  0  0  0  0  0
  189.2710  176.0470  135.7820 C   0  0  0  0  0  2  0  0  0  0  0  0
  190.1910  176.4800  136.9090 C   0  0  0  0  0  2  0  0  0  0  0  0
  188.5780  178.2530  136.4400 C   0  0  0  0  0  2  0  0  0  0  0  0
  1 10  1  0  0  0  0
  2 26  2  0  0  0  0
  2 12  1  0  0  0  0
  3  4  1  0  0  0  0
  5 26  1  0  0  0  0
  5 27  1  0  0  0  0
  6  5  2  0  0  0  0
  7 23  2  0  0  0  0
  7 16  1  0  0  0  0
  8 12  2  0  0  0  0
  9 27  2  0  0  0  0
  9 25  1  0  0  0  0
 10 16  1  0  0  0  0
 11  3  2  0  0  0  0
 12 13  1  0  0  0  0
 13 21  2  0  0  0  0
 13 11  1  0  0  0  0
 14 22  2  0  0  0  0
 14 21  1  0  0  0  0
 15  9  1  0  0  0  0
 16  8  1  0  0  0  0
 17  6  1  0  0  0  0
 17 15  2  0  0  0  0
 18  7  1  0  0  0  0
 19 29  1  6  0  0  0
 19 18  1  0  0  0  0
 19  1  1  0  0  0  0
 20  4  2  0  0  0  0
 21 20  1  0  0  0  0
 23  2  1  0  0  0  0
 24  6  1  0  0  0  0
 26 14  1  0  0  0  0
 27 22  1  0  0  0  0
 28 30  1  0  0  0  0
 28 32  1  0  0  0  0
 30 31  1  0  0  0  0
 31 29  1  0  0  0  0
 32 29  1  0  0  0  0
M  END
>  <MODEL>
6

>  <REMARK>
 VINA RESULT:     -11.2      1.714      7.371
  Name = 
  1 active torsions:
  status: ('A' for Active; 'I' for Inactive)
    1  A    between atoms: C_10  and  C_24
                            x       y       z     vdW  Elec       q    Type
                         _______ _______ _______ _____ _____    ______ ____

>  <TORSDO>
F 1

$$$$
=
 OpenBabel10262421253D

 32 38  0  0  1  0  0  0  0  0999 V2000
  182.7550  178.5650  140.8780 C   0  0  0  0  0  2  0  0  0  0  0  0
  187.3930  177.8950  142.8510 C   0  0  0  0  0  0  0  0  0  0  0  0
  190.4870  177.4920  139.0860 C   0  0  0  0  0  3  0  0  0  0  0  0
  191.5250  177.1900  139.9710 C   0  0  0  0  0  3  0  0  0  0  0  0
  188.6050  177.3760  145.1690 C   0  0  0  0  0  0  0  0  0  0  0  0
  187.7590  177.2450  146.2110 C   0  0  0  0  0  0  0  0  0  0  0  0
  185.0610  178.5550  142.5530 C   0  0  0  0  0  0  0  0  0  0  0  0
  186.5480  178.4080  140.5120 C   0  0  0  0  0  3  0  0  0  0  0  0
  190.6070  176.8710  146.6620 C   0  0  0  0  0  0  0  0  0  0  0  0
  184.1130  178.7500  140.2130 C   0  0  0  0  0  2  0  0  0  0  0  0
  189.1990  177.7370  139.5710 C   0  0  0  0  0  3  0  0  0  0  0  0
  187.6350  177.9480  141.4550 C   0  0  0  0  0  0  0  0  0  0  0  0
  188.9310  177.6760  140.9480 C   0  0  0  0  0  0  0  0  0  0  0  0
  189.7210  177.3090  143.2040 C   0  0  0  0  0  0  0  0  0  0  0  0
  189.7910  176.8380  147.7180 C   0  0  0  0  0  3  0  0  0  0  0  0
  185.2180  178.4430  141.1220 N   0  0  0  0  0  0  0  0  0  0  0  0
  188.3090  177.1430  147.6210 C   0  0  0  0  0  3  0  0  0  0  0  0
  183.7190  178.8060  143.1730 C   0  0  0  0  0  2  0  0  0  0  0  0
  182.7220  179.3780  142.1640 C   0  0  2  0  0  3  0  0  0  0  0  0
  191.2790  177.1280  141.3440 C   0  0  0  0  0  3  0  0  0  0  0  0
  189.9900  177.3640  141.8370 C   0  0  0  0  0  0  0  0  0  0  0  0
  190.6860  177.0830  144.2280 N   0  0  0  0  0  0  0  0  0  0  0  0
  186.0770  178.2790  143.3630 C   0  0  0  0  0  3  0  0  0  0  0  0
  186.0170  177.1280  146.0660 Cl  0  0  0  0  0  0  0  0  0  0  0  0
  192.0550  176.5680  146.8320 C   0  0  0  0  0  1  0  0  0  0  0  0
  188.4470  177.5140  143.7060 C   0  0  0  0  0  0  0  0  0  0  0  0
  190.0360  177.1500  145.3440 C   0  0  0  0  0  0  0  0  0  0  0  0
  179.7380  178.1090  143.9650 C   0  0  0  0  0  2  0  0  0  0  0  0
  181.2970  179.4500  142.7220 C   0  0  0  0  0  3  0  0  0  0  0  0
  179.3970  177.9380  142.5010 C   0  0  0  0  0  2  0  0  0  0  0  0
  180.2390  178.9500  141.7470 C   0  0  0  0  0  2  0  0  0  0  0  0
  181.1550  178.6280  143.9870 C   0  0  0  0  0  2  0  0  0  0  0  0
  1 19  1  0  0  0  0
  2 23  1  0  0  0  0
  2 26  2  0  0  0  0
  3 11  2  0  0  0  0
  3  4  1  0  0  0  0
  4 20  2  0  0  0  0
  5 27  2  0  0  0  0
  5  6  1  0  0  0  0
  6 17  2  0  0  0  0
  7 18  1  0  0  0  0
  7 23  2  0  0  0  0
  8 16  1  0  0  0  0
  8 12  2  0  0  0  0
  9 25  1  0  0  0  0
  9 15  2  0  0  0  0
 10  1  1  0  0  0  0
 10 16  1  0  0  0  0
 11 13  1  0  0  0  0
 12  2  1  0  0  0  0
 13 12  1  0  0  0  0
 13 21  2  0  0  0  0
 14 26  1  0  0  0  0
 14 22  2  0  0  0  0
 16  7  1  0  0  0  0
 17 15  1  0  0  0  0
 19 29  1  1  0  0  0
 19 18  1  0  0  0  0
 20 21  1  0  0  0  0
 21 14  1  0  0  0  0
 22 27  1  0  0  0  0
 24  6  1  0  0  0  0
 26  5  1  0  0  0  0
 27  9  1  0  0  0  0
 28 32  1  0  0  0  0
 29 32  1  0  0  0  0
 30 28  1  0  0  0  0
 31 30  1  0  0  0  0
 31 29  1  0  0  0  0
M  END
>  <MODEL>
7

>  <REMARK>
 VINA RESULT:     -10.9      1.768      4.726
  Name = 
  1 active torsions:
  status: ('A' for Active; 'I' for Inactive)
    1  A    between atoms: C_10  and  C_24
                            x       y       z     vdW  Elec       q    Type
                         _______ _______ _______ _____ _____    ______ ____

>  <TORSDO>
F 1

$$$$
=
 OpenBabel10262421253D

 32 38  0  0  1  0  0  0  0  0999 V2000
  183.9610  178.3930  138.2640 C   0  0  0  0  0  2  0  0  0  0  0  0
  187.1260  178.2440  142.2410 C   0  0  0  0  0  0  0  0  0  0  0  0
  191.5580  177.1580  140.4810 C   0  0  0  0  0  3  0  0  0  0  0  0
  192.0520  177.0660  141.7830 C   0  0  0  0  0  3  0  0  0  0  0  0
  187.1060  178.2350  144.9070 C   0  0  0  0  0  0  0  0  0  0  0  0
  185.8720  178.2980  145.4450 C   0  0  0  0  0  0  0  0  0  0  0  0
  185.2420  178.7770  140.7810 C   0  0  0  0  0  0  0  0  0  0  0  0
  187.4810  178.2530  139.7250 C   0  0  0  0  0  3  0  0  0  0  0  0
  188.1650  178.0890  147.2210 C   0  0  0  0  0  0  0  0  0  0  0  0
  185.4820  178.4700  138.2790 C   0  0  0  0  0  2  0  0  0  0  0  0
  190.2120  177.4660  140.2600 C   0  0  0  0  0  3  0  0  0  0  0  0
  187.9810  178.0190  141.1320 C   0  0  0  0  0  0  0  0  0  0  0  0
  189.3420  177.6800  141.3420 C   0  0  0  0  0  0  0  0  0  0  0  0
  188.9880  177.7960  143.7310 C   0  0  0  0  0  0  0  0  0  0  0  0
  186.9570  178.2530  147.7660 C   0  0  0  0  0  3  0  0  0  0  0  0
  186.0250  178.3800  139.6340 N   0  0  0  0  0  0  0  0  0  0  0  0
  185.7100  178.4970  146.9400 C   0  0  0  0  0  3  0  0  0  0  0  0
  183.7880  179.1160  140.6520 C   0  0  0  0  0  2  0  0  0  0  0  0
  183.4050  179.4490  139.2090 C   0  0  2  0  0  3  0  0  0  0  0  0
  191.2040  177.2780  142.8720 C   0  0  0  0  0  3  0  0  0  0  0  0
  189.8530  177.5800  142.6600 C   0  0  0  0  0  0  0  0  0  0  0  0
  189.3600  177.8050  145.1070 N   0  0  0  0  0  0  0  0  0  0  0  0
  185.7540  178.6940  142.0040 C   0  0  0  0  0  3  0  0  0  0  0  0
  184.3840  178.1140  144.5380 Cl  0  0  0  0  0  0  0  0  0  0  0  0
  189.3490  177.8610  148.0930 C   0  0  0  0  0  1  0  0  0  0  0  0
  187.6440  178.0690  143.5400 C   0  0  0  0  0  0  0  0  0  0  0  0
  188.2800  178.0820  145.7610 C   0  0  0  0  0  0  0  0  0  0  0  0
  180.1520  181.2250  139.3450 C   0  0  0  0  0  2  0  0  0  0  0  0
  181.8920  179.6000  139.0220 C   0  0  0  0  0  3  0  0  0  0  0  0
  180.1390  180.3190  140.5570 C   0  0  0  0  0  2  0  0  0  0  0  0
  181.0860  179.1760  140.2430 C   0  0  0  0  0  2  0  0  0  0  0  0
  181.5120  181.0350  138.7180 C   0  0  0  0  0  2  0  0  0  0  0  0
  1 10  1  0  0  0  0
  1 19  1  0  0  0  0
  2 26  2  0  0  0  0
  3  4  1  0  0  0  0
  4 20  2  0  0  0  0
  5  6  2  0  0  0  0
  5 27  1  0  0  0  0
  6 17  1  0  0  0  0
  7 23  2  0  0  0  0
  8 12  2  0  0  0  0
  9 15  1  0  0  0  0
  9 25  1  0  0  0  0
 10 16  1  0  0  0  0
 11  3  2  0  0  0  0
 11 13  1  0  0  0  0
 12 13  1  0  0  0  0
 12  2  1  0  0  0  0
 13 21  2  0  0  0  0
 14 22  2  0  0  0  0
 16  8  1  0  0  0  0
 16  7  1  0  0  0  0
 17 15  2  0  0  0  0
 18  7  1  0  0  0  0
 19 29  1  1  0  0  0
 19 18  1  0  0  0  0
 21 20  1  0  0  0  0
 21 14  1  0  0  0  0
 22 27  1  0  0  0  0
 23  2  1  0  0  0  0
 24  6  1  0  0  0  0
 26 14  1  0  0  0  0
 26  5  1  0  0  0  0
 27  9  2  0  0  0  0
 28 30  1  0  0  0  0
 29 31  1  0  0  0  0
 31 30  1  0  0  0  0
 32 29  1  0  0  0  0
 32 28  1  0  0  0  0
M  END
>  <MODEL>
8

>  <REMARK>
 VINA RESULT:     -10.8      2.494      5.330
  Name = 
  1 active torsions:
  status: ('A' for Active; 'I' for Inactive)
    1  A    between atoms: C_10  and  C_24
                            x       y       z     vdW  Elec       q    Type
                         _______ _______ _______ _____ _____    ______ ____

>  <TORSDO>
F 1

$$$$
=
 OpenBabel10262421253D

 32 38  0  0  1  0  0  0  0  0999 V2000
  190.1930  177.6710  145.0460 C   0  0  0  0  0  2  0  0  0  0  0  0
  186.6690  178.1450  141.4110 C   0  0  0  0  0  0  0  0  0  0  0  0
  189.0550  178.3640  137.1480 C   0  0  0  0  0  3  0  0  0  0  0  0
  187.8530  178.6270  136.4890 C   0  0  0  0  0  3  0  0  0  0  0  0
  184.0660  178.6300  141.0980 C   0  0  0  0  0  0  0  0  0  0  0  0
  183.4010  178.8110  142.2560 C   0  0  0  0  0  0  0  0  0  0  0  0
  187.7960  177.5910  143.5060 C   0  0  0  0  0  0  0  0  0  0  0  0
  189.1600  177.6480  141.3750 C   0  0  0  0  0  3  0  0  0  0  0  0
  181.9460  179.0570  139.7510 C   0  0  0  0  0  0  0  0  0  0  0  0
  190.3230  177.4170  143.5500 C   0  0  0  0  0  2  0  0  0  0  0  0
  189.0720  178.1850  138.5350 C   0  0  0  0  0  3  0  0  0  0  0  0
  187.8830  178.0660  140.6830 C   0  0  0  0  0  0  0  0  0  0  0  0
  187.8850  178.2730  139.2800 C   0  0  0  0  0  0  0  0  0  0  0  0
  185.4940  178.6250  139.3440 C   0  0  0  0  0  0  0  0  0  0  0  0
  181.2560  179.1390  140.8910 C   0  0  0  0  0  3  0  0  0  0  0  0
  189.0730  177.6810  142.8360 N   0  0  0  0  0  0  0  0  0  0  0  0
  181.8870  178.9020  142.2500 C   0  0  0  0  0  3  0  0  0  0  0  0
  187.7070  177.4090  144.9910 C   0  0  0  0  0  2  0  0  0  0  0  0
  189.0130  176.8740  145.5810 C   0  0  2  0  0  3  0  0  0  0  0  0
  186.6620  178.7150  137.2120 C   0  0  0  0  0  3  0  0  0  0  0  0
  186.6700  178.5440  138.6010 C   0  0  0  0  0  0  0  0  0  0  0  0
  184.1870  178.8170  138.8060 N   0  0  0  0  0  0  0  0  0  0  0  0
  186.6710  177.8280  142.8400 C   0  0  0  0  0  3  0  0  0  0  0  0
  184.1660  179.0080  143.8200 Cl  0  0  0  0  0  0  0  0  0  0  0  0
  181.2610  179.2940  138.4500 C   0  0  0  0  0  1  0  0  0  0  0  0
  185.4880  178.4850  140.7220 C   0  0  0  0  0  0  0  0  0  0  0  0
  183.3840  178.7910  139.8190 C   0  0  0  0  0  0  0  0  0  0  0  0
  188.3060  178.2530  148.9510 C   0  0  0  0  0  2  0  0  0  0  0  0
  189.0090  176.8740  147.1130 C   0  0  0  0  0  3  0  0  0  0  0  0
  189.7770  178.5300  148.7300 C   0  0  0  0  0  2  0  0  0  0  0  0
  190.2560  177.5030  147.7210 C   0  0  0  0  0  2  0  0  0  0  0  0
  187.8180  177.6320  147.6640 C   0  0  0  0  0  2  0  0  0  0  0  0
  1 19  1  0  0  0  0
  2 23  1  0  0  0  0
  3 11  1  0  0  0  0
  4  3  2  0  0  0  0
  4 20  1  0  0  0  0
  5  6  1  0  0  0  0
  6 24  1  0  0  0  0
  7 18  1  0  0  0  0
  8 16  1  0  0  0  0
  9 27  1  0  0  0  0
  9 15  2  0  0  0  0
 10  1  1  0  0  0  0
 11 13  2  0  0  0  0
 12  8  2  0  0  0  0
 12  2  1  0  0  0  0
 13 12  1  0  0  0  0
 14 26  1  0  0  0  0
 15 17  1  0  0  0  0
 16  7  1  0  0  0  0
 16 10  1  0  0  0  0
 17  6  2  0  0  0  0
 18 19  1  0  0  0  0
 19 29  1  1  0  0  0
 20 21  2  0  0  0  0
 21 13  1  0  0  0  0
 21 14  1  0  0  0  0
 22 14  2  0  0  0  0
 22 27  1  0  0  0  0
 23  7  2  0  0  0  0
 25  9  1  0  0  0  0
 26  5  1  0  0  0  0
 26  2  2  0  0  0  0
 27  5  2  0  0  0  0
 29 32  1  0  0  0  0
 29 31  1  0  0  0  0
 30 28  1  0  0  0  0
 31 30  1  0  0  0  0
 32 28  1  0  0  0  0
M  END
>  <MODEL>
9

>  <REMARK>
 VINA RESULT:     -10.6      2.213      7.478
  Name = 
  1 active torsions:
  status: ('A' for Active; 'I' for Inactive)
    1  A    between atoms: C_10  and  C_24
                            x       y       z     vdW  Elec       q    Type
                         _______ _______ _______ _____ _____    ______ ____

>  <TORSDO>
F 1

$$$$
