=
 OpenBabel10262420523D

 28 32  0  0  0  0  0  0  0  0999 V2000
  187.5680  178.1840  141.0330 C   0  0  0  0  0  0  0  0  0  0  0  0
  190.5840  176.8720  144.8750 C   0  0  0  0  0  3  0  0  0  0  0  0
  184.6680  178.5710  144.9390 N   0  0  0  0  0  1  0  0  0  0  0  0
  189.1240  177.0730  146.7910 C   0  0  0  0  0  0  0  0  0  0  0  0
  188.2580  177.5830  144.5800 C   0  0  0  0  0  0  0  0  0  0  0  0
  191.4130  176.3770  147.0460 C   0  0  0  0  0  0  0  0  0  0  0  0
  189.3220  177.1790  145.3990 C   0  0  0  0  0  0  0  0  0  0  0  0
  186.8520  177.7610  146.5210 N   0  0  0  0  0  0  0  0  0  0  0  0
  190.1730  176.6700  147.6170 C   0  0  0  0  0  3  0  0  0  0  0  0
  186.1250  178.3780  142.9750 C   0  0  0  0  0  0  0  0  0  0  0  0
  188.4120  177.6960  143.2320 N   0  0  0  0  0  0  0  0  0  0  0  0
  187.8730  177.3710  147.3320 C   0  0  0  0  0  3  0  0  0  0  0  0
  185.2600  178.8610  140.8150 C   0  0  0  0  0  3  0  0  0  0  0  0
  185.9390  178.2740  144.3600 C   0  0  0  0  0  0  0  0  0  0  0  0
  185.1020  178.7590  142.1620 N   0  0  0  0  0  0  0  0  0  0  0  0
  192.7430  175.8700  148.0650 Cl  0  0  0  0  0  0  0  0  0  0  0  0
  191.5910  176.4820  145.7010 N   0  0  0  0  0  0  0  0  0  0  0  0
  187.0080  177.8730  145.1730 C   0  0  0  0  0  0  0  0  0  0  0  0
  186.4950  178.5730  140.2290 C   0  0  0  0  0  3  0  0  0  0  0  0
  187.3890  178.0800  142.4220 C   0  0  0  0  0  0  0  0  0  0  0  0
  188.8800  177.8600  140.3870 C   0  0  0  0  0  2  0  0  0  0  0  0
  188.7380  177.7870  138.9030 C   0  0  0  0  0  0  0  0  0  0  0  0
  188.5130  177.6400  136.1170 C   0  0  0  0  0  0  0  0  0  0  0  0
  188.3130  176.5990  138.2960 C   0  0  0  0  0  3  0  0  0  0  0  0
  189.0540  178.8990  138.1140 C   0  0  0  0  0  3  0  0  0  0  0  0
  188.9410  178.8250  136.7230 C   0  0  0  0  0  3  0  0  0  0  0  0
  188.4020  177.5700  134.7690 F   0  0  0  0  0  0  0  0  0  0  0  0
  188.2000  176.5270  136.9030 C   0  0  0  0  0  3  0  0  0  0  0  0
  1 20  1  0  0  0  0
  2  7  2  0  0  0  0
  2 17  1  0  0  0  0
  4 12  1  0  0  0  0
  4  9  2  0  0  0  0
  5 18  1  0  0  0  0
  5  7  1  0  0  0  0
  6  9  1  0  0  0  0
  6 16  1  0  0  0  0
  7  4  1  0  0  0  0
  8 12  2  0  0  0  0
 10 14  1  0  0  0  0
 11  5  2  0  0  0  0
 13 15  2  0  0  0  0
 14  3  1  0  0  0  0
 14 18  2  0  0  0  0
 15 10  1  0  0  0  0
 17  6  2  0  0  0  0
 18  8  1  0  0  0  0
 19 13  1  0  0  0  0
 19  1  2  0  0  0  0
 20 10  2  0  0  0  0
 20 11  1  0  0  0  0
 21  1  1  0  0  0  0
 22 21  1  0  0  0  0
 23 26  2  0  0  0  0
 23 28  1  0  0  0  0
 24 22  1  0  0  0  0
 25 22  2  0  0  0  0
 26 25  1  0  0  0  0
 27 23  1  0  0  0  0
 28 24  2  0  0  0  0
M  END
>  <MODEL>
1

>  <REMARK>
 VINA RESULT:      -9.8      0.000      0.000
  Name = 
  2 active torsions:
  status: ('A' for Active; 'I' for Inactive)
    1  A    between atoms: C_1  and  C_2
    2  A    between atoms: C_2  and  C_3
                            x       y       z     vdW  Elec       q    Type
                         _______ _______ _______ _____ _____    ______ ____

>  <TORSDO>
F 2

$$$$
=
 OpenBabel10262420523D

 28 32  0  0  0  0  0  0  0  0999 V2000
  189.8700  176.8150  142.6420 C   0  0  0  0  0  0  0  0  0  0  0  0
  185.0400  178.2930  142.8900 C   0  0  0  0  0  3  0  0  0  0  0  0
  189.0910  177.3610  147.4290 N   0  0  0  0  0  1  0  0  0  0  0  0
  184.6830  178.5540  145.2670 C   0  0  0  0  0  0  0  0  0  0  0  0
  186.8610  177.8370  144.4640 C   0  0  0  0  0  0  0  0  0  0  0  0
  182.9160  178.9940  143.6940 C   0  0  0  0  0  0  0  0  0  0  0  0
  185.5400  178.2230  144.1970 C   0  0  0  0  0  0  0  0  0  0  0  0
  186.4490  178.1180  146.8150 N   0  0  0  0  0  0  0  0  0  0  0  0
  183.3670  178.9410  145.0140 C   0  0  0  0  0  3  0  0  0  0  0  0
  189.4830  177.0850  145.0240 C   0  0  0  0  0  0  0  0  0  0  0  0
  187.7160  177.5110  143.4560 N   0  0  0  0  0  0  0  0  0  0  0  0
  185.1640  178.4940  146.5750 C   0  0  0  0  0  3  0  0  0  0  0  0
  191.6240  176.4020  144.2500 C   0  0  0  0  0  3  0  0  0  0  0  0
  188.6240  177.4120  146.0810 C   0  0  0  0  0  0  0  0  0  0  0  0
  190.7730  176.7180  145.2620 N   0  0  0  0  0  0  0  0  0  0  0  0
  181.2680  179.4770  143.3560 Cl  0  0  0  0  0  0  0  0  0  0  0  0
  183.7530  178.6720  142.6690 N   0  0  0  0  0  0  0  0  0  0  0  0
  187.3030  177.7920  145.8060 C   0  0  0  0  0  0  0  0  0  0  0  0
  191.1880  176.4480  142.9240 C   0  0  0  0  0  3  0  0  0  0  0  0
  189.0030  177.1410  143.6980 C   0  0  0  0  0  0  0  0  0  0  0  0
  189.4220  176.8780  141.2150 C   0  0  0  0  0  2  0  0  0  0  0  0
  190.5900  176.8000  140.2880 C   0  0  0  0  0  0  0  0  0  0  0  0
  192.7640  176.6860  138.5290 C   0  0  0  0  0  0  0  0  0  0  0  0
  191.7950  177.4280  140.6210 C   0  0  0  0  0  3  0  0  0  0  0  0
  190.4730  176.1180  139.0700 C   0  0  0  0  0  3  0  0  0  0  0  0
  191.5590  176.0610  138.1930 C   0  0  0  0  0  3  0  0  0  0  0  0
  193.8160  176.6290  137.6780 F   0  0  0  0  0  0  0  0  0  0  0  0
  192.8820  177.3700  139.7420 C   0  0  0  0  0  3  0  0  0  0  0  0
  1 19  2  0  0  0  0
  1 20  1  0  0  0  0
  2  7  1  0  0  0  0
  4 12  1  0  0  0  0
  5 18  1  0  0  0  0
  6  9  2  0  0  0  0
  7  5  1  0  0  0  0
  7  4  2  0  0  0  0
  9  4  1  0  0  0  0
 10 15  1  0  0  0  0
 10 14  1  0  0  0  0
 11 20  1  0  0  0  0
 11  5  2  0  0  0  0
 12  8  2  0  0  0  0
 13 15  2  0  0  0  0
 14  3  1  0  0  0  0
 16  6  1  0  0  0  0
 17  2  2  0  0  0  0
 17  6  1  0  0  0  0
 18 14  2  0  0  0  0
 18  8  1  0  0  0  0
 19 13  1  0  0  0  0
 20 10  2  0  0  0  0
 21  1  1  0  0  0  0
 22 24  1  0  0  0  0
 22 21  1  0  0  0  0
 23 28  1  0  0  0  0
 25 22  2  0  0  0  0
 26 23  2  0  0  0  0
 26 25  1  0  0  0  0
 27 23  1  0  0  0  0
 28 24  2  0  0  0  0
M  END
>  <MODEL>
2

>  <REMARK>
 VINA RESULT:      -9.5      3.403      5.469
  Name = 
  2 active torsions:
  status: ('A' for Active; 'I' for Inactive)
    1  A    between atoms: C_1  and  C_2
    2  A    between atoms: C_2  and  C_3
                            x       y       z     vdW  Elec       q    Type
                         _______ _______ _______ _____ _____    ______ ____

>  <TORSDO>
F 2

$$$$
=
 OpenBabel10262420523D

 28 32  0  0  0  0  0  0  0  0999 V2000
  189.6100  177.7100  139.2540 C   0  0  0  0  0  0  0  0  0  0  0  0
  189.0130  177.2360  144.2530 C   0  0  0  0  0  3  0  0  0  0  0  0
  185.0180  179.1840  139.9960 N   0  0  0  0  0  1  0  0  0  0  0  0
  186.7360  177.9720  144.5900 C   0  0  0  0  0  0  0  0  0  0  0  0
  187.6620  177.9650  142.3450 C   0  0  0  0  0  0  0  0  0  0  0  0
  188.0910  177.2490  146.4430 C   0  0  0  0  0  0  0  0  0  0  0  0
  187.8140  177.7230  143.7170 C   0  0  0  0  0  0  0  0  0  0  0  0
  185.4020  178.6820  142.7400 N   0  0  0  0  0  0  0  0  0  0  0  0
  186.8740  177.7340  145.9580 C   0  0  0  0  0  3  0  0  0  0  0  0
  187.3260  178.4440  139.6220 C   0  0  0  0  0  0  0  0  0  0  0  0
  188.6810  177.7360  141.4720 N   0  0  0  0  0  0  0  0  0  0  0  0
  185.5320  178.4540  144.0750 C   0  0  0  0  0  3  0  0  0  0  0  0
  188.2140  178.4230  137.4180 C   0  0  0  0  0  3  0  0  0  0  0  0
  186.2600  178.6930  140.4980 C   0  0  0  0  0  0  0  0  0  0  0  0
  187.1940  178.6630  138.2840 N   0  0  0  0  0  0  0  0  0  0  0  0
  188.2850  176.9440  148.1560 Cl  0  0  0  0  0  0  0  0  0  0  0  0
  189.1250  177.0120  145.5900 N   0  0  0  0  0  0  0  0  0  0  0  0
  186.4230  178.4520  141.8690 C   0  0  0  0  0  0  0  0  0  0  0  0
  189.4370  177.9400  137.8870 C   0  0  0  0  0  3  0  0  0  0  0  0
  188.5470  177.9590  140.1360 C   0  0  0  0  0  0  0  0  0  0  0  0
  190.9210  177.1740  139.7400 C   0  0  0  0  0  2  0  0  0  0  0  0
  191.5670  176.3230  138.6970 C   0  0  0  0  0  0  0  0  0  0  0  0
  192.7970  174.7070  136.7710 C   0  0  0  0  0  0  0  0  0  0  0  0
  190.8970  175.2040  138.1880 C   0  0  0  0  0  3  0  0  0  0  0  0
  192.8560  176.6290  138.2430 C   0  0  0  0  0  3  0  0  0  0  0  0
  193.4700  175.8230  137.2810 C   0  0  0  0  0  3  0  0  0  0  0  0
  193.3930  173.9270  135.8380 F   0  0  0  0  0  0  0  0  0  0  0  0
  191.5120  174.3970  137.2250 C   0  0  0  0  0  3  0  0  0  0  0  0
  1 21  1  0  0  0  0
  1 20  1  0  0  0  0
  2 17  1  0  0  0  0
  3 14  1  0  0  0  0
  4  9  2  0  0  0  0
  5  7  1  0  0  0  0
  6 16  1  0  0  0  0
  7  2  2  0  0  0  0
  7  4  1  0  0  0  0
  8 12  2  0  0  0  0
  9  6  1  0  0  0  0
 10 20  2  0  0  0  0
 10 14  1  0  0  0  0
 11  5  2  0  0  0  0
 12  4  1  0  0  0  0
 13 19  1  0  0  0  0
 13 15  2  0  0  0  0
 14 18  2  0  0  0  0
 15 10  1  0  0  0  0
 17  6  2  0  0  0  0
 18  5  1  0  0  0  0
 18  8  1  0  0  0  0
 19  1  2  0  0  0  0
 20 11  1  0  0  0  0
 22 21  1  0  0  0  0
 23 28  2  0  0  0  0
 23 26  1  0  0  0  0
 24 22  2  0  0  0  0
 25 22  1  0  0  0  0
 26 25  2  0  0  0  0
 27 23  1  0  0  0  0
 28 24  1  0  0  0  0
M  END
>  <MODEL>
3

>  <REMARK>
 VINA RESULT:      -9.3      2.774      3.807
  Name = 
  2 active torsions:
  status: ('A' for Active; 'I' for Inactive)
    1  A    between atoms: C_1  and  C_2
    2  A    between atoms: C_2  and  C_3
                            x       y       z     vdW  Elec       q    Type
                         _______ _______ _______ _____ _____    ______ ____

>  <TORSDO>
F 2

$$$$
=
 OpenBabel10262420523D

 28 32  0  0  0  0  0  0  0  0999 V2000
  187.0850  177.7820  143.5300 C   0  0  0  0  0  0  0  0  0  0  0  0
  190.2980  176.7160  139.7720 C   0  0  0  0  0  3  0  0  0  0  0  0
  184.8190  179.5130  139.5700 N   0  0  0  0  0  1  0  0  0  0  0  0
  189.1520  177.5830  137.8290 C   0  0  0  0  0  0  0  0  0  0  0  0
  188.1050  177.7810  140.0120 C   0  0  0  0  0  0  0  0  0  0  0  0
  191.3070  176.5310  137.6290 C   0  0  0  0  0  0  0  0  0  0  0  0
  189.1820  177.3580  139.2200 C   0  0  0  0  0  0  0  0  0  0  0  0
  187.0140  178.6280  138.0440 N   0  0  0  0  0  0  0  0  0  0  0  0
  190.2180  177.1680  137.0310 C   0  0  0  0  0  3  0  0  0  0  0  0
  185.9560  178.6430  141.5600 C   0  0  0  0  0  0  0  0  0  0  0  0
  188.1000  177.5820  141.3580 N   0  0  0  0  0  0  0  0  0  0  0  0
  188.0500  178.2230  137.2600 C   0  0  0  0  0  3  0  0  0  0  0  0
  184.9310  178.8610  143.6930 C   0  0  0  0  0  3  0  0  0  0  0  0
  185.9330  178.8580  140.1750 C   0  0  0  0  0  0  0  0  0  0  0  0
  184.9250  179.0550  142.3470 N   0  0  0  0  0  0  0  0  0  0  0  0
  192.6550  176.0030  136.6450 Cl  0  0  0  0  0  0  0  0  0  0  0  0
  191.3250  176.3210  138.9740 N   0  0  0  0  0  0  0  0  0  0  0  0
  187.0120  178.4280  139.3910 C   0  0  0  0  0  0  0  0  0  0  0  0
  186.0120  178.2240  144.3060 C   0  0  0  0  0  3  0  0  0  0  0  0
  187.0660  177.9930  142.1420 C   0  0  0  0  0  0  0  0  0  0  0  0
  188.2460  177.1180  144.2040 C   0  0  0  0  0  2  0  0  0  0  0  0
  188.2640  177.4340  145.6630 C   0  0  0  0  0  0  0  0  0  0  0  0
  188.2930  177.9850  148.4070 C   0  0  0  0  0  0  0  0  0  0  0  0
  189.4820  177.5400  146.3440 C   0  0  0  0  0  3  0  0  0  0  0  0
  187.0600  177.5990  146.3590 C   0  0  0  0  0  3  0  0  0  0  0  0
  187.0750  177.8750  147.7290 C   0  0  0  0  0  3  0  0  0  0  0  0
  188.3070  178.2530  149.7340 F   0  0  0  0  0  0  0  0  0  0  0  0
  189.4960  177.8170  147.7150 C   0  0  0  0  0  3  0  0  0  0  0  0
  1 21  1  0  0  0  0
  1 19  1  0  0  0  0
  3 14  1  0  0  0  0
  4  7  2  0  0  0  0
  5 11  2  0  0  0  0
  6 17  1  0  0  0  0
  7  2  1  0  0  0  0
  7  5  1  0  0  0  0
  8 18  1  0  0  0  0
  9  6  2  0  0  0  0
  9  4  1  0  0  0  0
 10 20  1  0  0  0  0
 10 15  2  0  0  0  0
 11 20  1  0  0  0  0
 12  4  1  0  0  0  0
 12  8  2  0  0  0  0
 13 19  2  0  0  0  0
 14 10  1  0  0  0  0
 15 13  1  0  0  0  0
 16  6  1  0  0  0  0
 17  2  2  0  0  0  0
 18  5  1  0  0  0  0
 18 14  2  0  0  0  0
 20  1  2  0  0  0  0
 21 22  1  0  0  0  0
 22 24  2  0  0  0  0
 22 25  1  0  0  0  0
 23 27  1  0  0  0  0
 24 28  1  0  0  0  0
 25 26  2  0  0  0  0
 26 23  1  0  0  0  0
 28 23  2  0  0  0  0
M  END
>  <MODEL>
4

>  <REMARK>
 VINA RESULT:      -9.0      4.018      7.701
  Name = 
  2 active torsions:
  status: ('A' for Active; 'I' for Inactive)
    1  A    between atoms: C_1  and  C_2
    2  A    between atoms: C_2  and  C_3
                            x       y       z     vdW  Elec       q    Type
                         _______ _______ _______ _____ _____    ______ ____

>  <TORSDO>
F 2

$$$$
=
 OpenBabel10262420523D

 28 32  0  0  0  0  0  0  0  0999 V2000
  187.6460  177.3750  143.6800 C   0  0  0  0  0  0  0  0  0  0  0  0
  182.9090  178.5740  142.3780 C   0  0  0  0  0  3  0  0  0  0  0  0
  188.0380  178.6160  138.9770 N   0  0  0  0  0  1  0  0  0  0  0  0
  183.1340  179.1830  140.0500 C   0  0  0  0  0  0  0  0  0  0  0  0
  185.1040  178.4950  141.2930 C   0  0  0  0  0  0  0  0  0  0  0  0
  180.9920  179.2490  141.1460 C   0  0  0  0  0  0  0  0  0  0  0  0
  183.7250  178.7460  141.2530 C   0  0  0  0  0  0  0  0  0  0  0  0
  185.2650  179.1080  138.9750 N   0  0  0  0  0  0  0  0  0  0  0  0
  181.7630  179.4340  139.9960 C   0  0  0  0  0  3  0  0  0  0  0  0
  187.8430  177.9930  141.3410 C   0  0  0  0  0  0  0  0  0  0  0  0
  185.7090  178.0720  142.4370 N   0  0  0  0  0  0  0  0  0  0  0  0
  183.9290  179.3570  138.9170 C   0  0  0  0  0  3  0  0  0  0  0  0
  189.7740  177.3030  142.5410 C   0  0  0  0  0  3  0  0  0  0  0  0
  187.2470  178.4320  140.1500 C   0  0  0  0  0  0  0  0  0  0  0  0
  189.1780  177.7340  141.3970 N   0  0  0  0  0  0  0  0  0  0  0  0
  179.2700  179.5590  141.1000 Cl  0  0  0  0  0  0  0  0  0  0  0  0
  181.5750  178.8260  142.3020 N   0  0  0  0  0  0  0  0  0  0  0  0
  185.8690  178.6840  140.1200 C   0  0  0  0  0  0  0  0  0  0  0  0
  189.0180  177.1140  143.7000 C   0  0  0  0  0  3  0  0  0  0  0  0
  187.0440  177.8170  142.4910 C   0  0  0  0  0  0  0  0  0  0  0  0
  186.8460  177.1490  144.9260 C   0  0  0  0  0  2  0  0  0  0  0  0
  187.6390  177.5040  146.1390 C   0  0  0  0  0  0  0  0  0  0  0  0
  189.1110  178.1360  148.4340 C   0  0  0  0  0  0  0  0  0  0  0  0
  188.9580  177.0530  146.2730 C   0  0  0  0  0  3  0  0  0  0  0  0
  187.0570  178.2670  147.1580 C   0  0  0  0  0  3  0  0  0  0  0  0
  187.7930  178.5830  148.3040 C   0  0  0  0  0  3  0  0  0  0  0  0
  189.8230  178.4430  149.5450 F   0  0  0  0  0  0  0  0  0  0  0  0
  189.6930  177.3700  147.4200 C   0  0  0  0  0  3  0  0  0  0  0  0
  1 19  1  0  0  0  0
  1 21  1  0  0  0  0
  3 14  1  0  0  0  0
  4  7  1  0  0  0  0
  5 11  2  0  0  0  0
  6 17  2  0  0  0  0
  7  5  1  0  0  0  0
  7  2  2  0  0  0  0
  8 18  1  0  0  0  0
  9  4  2  0  0  0  0
  9  6  1  0  0  0  0
 10 15  2  0  0  0  0
 10 20  1  0  0  0  0
 11 20  1  0  0  0  0
 12  8  2  0  0  0  0
 12  4  1  0  0  0  0
 13 19  2  0  0  0  0
 14 10  1  0  0  0  0
 15 13  1  0  0  0  0
 16  6  1  0  0  0  0
 17  2  1  0  0  0  0
 18 14  2  0  0  0  0
 18  5  1  0  0  0  0
 20  1  2  0  0  0  0
 21 22  1  0  0  0  0
 22 24  2  0  0  0  0
 22 25  1  0  0  0  0
 23 27  1  0  0  0  0
 24 28  1  0  0  0  0
 25 26  2  0  0  0  0
 26 23  1  0  0  0  0
 28 23  2  0  0  0  0
M  END
>  <MODEL>
5

>  <REMARK>
 VINA RESULT:      -9.0      4.666      8.575
  Name = 
  2 active torsions:
  status: ('A' for Active; 'I' for Inactive)
    1  A    between atoms: C_1  and  C_2
    2  A    between atoms: C_2  and  C_3
                            x       y       z     vdW  Elec       q    Type
                         _______ _______ _______ _____ _____    ______ ____

>  <TORSDO>
F 2

$$$$
=
 OpenBabel10262420523D

 28 32  0  0  0  0  0  0  0  0999 V2000
  184.2600  178.8350  142.8250 C   0  0  0  0  0  0  0  0  0  0  0  0
  188.6800  177.7550  140.6180 C   0  0  0  0  0  3  0  0  0  0  0  0
  187.1490  177.6630  146.5790 N   0  0  0  0  0  1  0  0  0  0  0  0
  190.0880  177.1800  142.4970 C   0  0  0  0  0  0  0  0  0  0  0  0
  187.7780  177.8180  142.8950 C   0  0  0  0  0  0  0  0  0  0  0  0
  190.9430  177.1280  140.2480 C   0  0  0  0  0  0  0  0  0  0  0  0
  188.8340  177.5900  142.0000 C   0  0  0  0  0  0  0  0  0  0  0  0
  189.2240  177.2320  144.7230 N   0  0  0  0  0  0  0  0  0  0  0  0
  191.1450  176.9480  141.6180 C   0  0  0  0  0  3  0  0  0  0  0  0
  185.6970  178.2540  144.6930 C   0  0  0  0  0  0  0  0  0  0  0  0
  186.5540  178.2140  142.4510 N   0  0  0  0  0  0  0  0  0  0  0  0
  190.2600  177.0060  143.8710 C   0  0  0  0  0  3  0  0  0  0  0  0
  183.4340  178.8570  145.0940 C   0  0  0  0  0  3  0  0  0  0  0  0
  186.9480  177.8500  145.1780 C   0  0  0  0  0  0  0  0  0  0  0  0
  184.6570  178.4700  145.5450 N   0  0  0  0  0  0  0  0  0  0  0  0
  192.2570  176.8420  139.1280 Cl  0  0  0  0  0  0  0  0  0  0  0  0
  189.7270  177.5230  139.7810 N   0  0  0  0  0  0  0  0  0  0  0  0
  187.9990  177.6280  144.2780 C   0  0  0  0  0  0  0  0  0  0  0  0
  183.2150  179.0430  143.7270 C   0  0  0  0  0  3  0  0  0  0  0  0
  185.5170  178.4330  143.3050 C   0  0  0  0  0  0  0  0  0  0  0  0
  184.0050  179.0200  141.3610 C   0  0  0  0  0  2  0  0  0  0  0  0
  182.8430  178.1950  140.9160 C   0  0  0  0  0  0  0  0  0  0  0  0
  180.6620  176.6710  140.0470 C   0  0  0  0  0  0  0  0  0  0  0  0
  183.0550  177.0010  140.2180 C   0  0  0  0  0  3  0  0  0  0  0  0
  181.5370  178.6280  141.1740 C   0  0  0  0  0  3  0  0  0  0  0  0
  180.4480  177.8670  140.7400 C   0  0  0  0  0  3  0  0  0  0  0  0
  179.6060  175.9340  139.6280 F   0  0  0  0  0  0  0  0  0  0  0  0
  181.9650  176.2390  139.7850 C   0  0  0  0  0  3  0  0  0  0  0  0
  1 20  2  0  0  0  0
  1 19  1  0  0  0  0
  2  7  1  0  0  0  0
  4 12  1  0  0  0  0
  5 18  1  0  0  0  0
  6  9  2  0  0  0  0
  7  4  2  0  0  0  0
  7  5  1  0  0  0  0
  9  4  1  0  0  0  0
 10 14  1  0  0  0  0
 10 15  2  0  0  0  0
 11  5  2  0  0  0  0
 11 20  1  0  0  0  0
 12  8  2  0  0  0  0
 13 15  1  0  0  0  0
 14  3  1  0  0  0  0
 16  6  1  0  0  0  0
 17  6  1  0  0  0  0
 17  2  2  0  0  0  0
 18  8  1  0  0  0  0
 18 14  2  0  0  0  0
 19 13  2  0  0  0  0
 20 10  1  0  0  0  0
 21  1  1  0  0  0  0
 22 25  1  0  0  0  0
 22 21  1  0  0  0  0
 23 26  1  0  0  0  0
 24 22  2  0  0  0  0
 26 25  2  0  0  0  0
 27 23  1  0  0  0  0
 28 23  2  0  0  0  0
 28 24  1  0  0  0  0
M  END
>  <MODEL>
6

>  <REMARK>
 VINA RESULT:      -8.9      3.522      5.560
  Name = 
  2 active torsions:
  status: ('A' for Active; 'I' for Inactive)
    1  A    between atoms: C_1  and  C_2
    2  A    between atoms: C_2  and  C_3
                            x       y       z     vdW  Elec       q    Type
                         _______ _______ _______ _____ _____    ______ ____

>  <TORSDO>
F 2

$$$$
=
 OpenBabel10262420523D

 28 32  0  0  0  0  0  0  0  0999 V2000
  183.4580  178.5140  141.1590 C   0  0  0  0  0  0  0  0  0  0  0  0
  188.2320  177.2480  142.2440 C   0  0  0  0  0  3  0  0  0  0  0  0
  183.6690  178.9320  146.0160 N   0  0  0  0  0  1  0  0  0  0  0  0
  188.3070  177.4640  144.6510 C   0  0  0  0  0  0  0  0  0  0  0  0
  186.2360  177.9500  143.4780 C   0  0  0  0  0  0  0  0  0  0  0  0
  190.2500  176.7760  143.4080 C   0  0  0  0  0  0  0  0  0  0  0  0
  187.5810  177.5570  143.4450 C   0  0  0  0  0  0  0  0  0  0  0  0
  186.3690  178.1430  145.8700 N   0  0  0  0  0  0  0  0  0  0  0  0
  189.6460  177.0720  144.6310 C   0  0  0  0  0  3  0  0  0  0  0  0
  183.5620  178.7240  143.5760 C   0  0  0  0  0  0  0  0  0  0  0  0
  185.5040  178.0500  142.3350 N   0  0  0  0  0  0  0  0  0  0  0  0
  187.6760  177.7640  145.8580 C   0  0  0  0  0  3  0  0  0  0  0  0
  181.5240  179.1830  142.4420 C   0  0  0  0  0  3  0  0  0  0  0  0
  184.2930  178.6330  144.7680 C   0  0  0  0  0  0  0  0  0  0  0  0
  182.2520  179.0940  143.5880 N   0  0  0  0  0  0  0  0  0  0  0  0
  191.9290  176.2830  143.3620 Cl  0  0  0  0  0  0  0  0  0  0  0  0
  189.5380  176.8690  142.2510 N   0  0  0  0  0  0  0  0  0  0  0  0
  185.6380  178.2430  144.7260 C   0  0  0  0  0  0  0  0  0  0  0  0
  182.1140  178.8920  141.2100 C   0  0  0  0  0  3  0  0  0  0  0  0
  184.1950  178.4240  142.3500 C   0  0  0  0  0  0  0  0  0  0  0  0
  184.0710  178.1870  139.8320 C   0  0  0  0  0  2  0  0  0  0  0  0
  183.1150  177.4190  138.9800 C   0  0  0  0  0  0  0  0  0  0  0  0
  181.3560  175.9690  137.3580 C   0  0  0  0  0  0  0  0  0  0  0  0
  182.8150  176.0870  139.2870 C   0  0  0  0  0  3  0  0  0  0  0  0
  182.5370  178.0220  137.8570 C   0  0  0  0  0  3  0  0  0  0  0  0
  181.6580  177.2980  137.0480 C   0  0  0  0  0  3  0  0  0  0  0  0
  180.5030  175.2680  136.5730 F   0  0  0  0  0  0  0  0  0  0  0  0
  181.9350  175.3630  138.4770 C   0  0  0  0  0  3  0  0  0  0  0  0
  1 19  2  0  0  0  0
  1 20  1  0  0  0  0
  2 17  2  0  0  0  0
  2  7  1  0  0  0  0
  4 12  1  0  0  0  0
  5 18  1  0  0  0  0
  6  9  2  0  0  0  0
  7  5  1  0  0  0  0
  7  4  2  0  0  0  0
  9  4  1  0  0  0  0
 10 15  1  0  0  0  0
 10 14  1  0  0  0  0
 11 20  1  0  0  0  0
 11  5  2  0  0  0  0
 12  8  2  0  0  0  0
 13 15  2  0  0  0  0
 14  3  1  0  0  0  0
 16  6  1  0  0  0  0
 17  6  1  0  0  0  0
 18 14  2  0  0  0  0
 18  8  1  0  0  0  0
 19 13  1  0  0  0  0
 20 10  2  0  0  0  0
 21  1  1  0  0  0  0
 22 24  1  0  0  0  0
 22 21  1  0  0  0  0
 23 28  1  0  0  0  0
 25 22  2  0  0  0  0
 26 23  2  0  0  0  0
 26 25  1  0  0  0  0
 27 23  1  0  0  0  0
 28 24  2  0  0  0  0
M  END
>  <MODEL>
7

>  <REMARK>
 VINA RESULT:      -8.8      3.306      4.434
  Name = 
  2 active torsions:
  status: ('A' for Active; 'I' for Inactive)
    1  A    between atoms: C_1  and  C_2
    2  A    between atoms: C_2  and  C_3
                            x       y       z     vdW  Elec       q    Type
                         _______ _______ _______ _____ _____    ______ ____

>  <TORSDO>
F 2

$$$$
=
 OpenBabel10262420523D

 28 32  0  0  0  0  0  0  0  0999 V2000
  185.5870  178.6840  141.7130 C   0  0  0  0  0  0  0  0  0  0  0  0
  188.9990  177.4060  145.2190 C   0  0  0  0  0  3  0  0  0  0  0  0
  189.6240  177.8230  139.1100 N   0  0  0  0  0  1  0  0  0  0  0  0
  190.9840  176.9860  143.9040 C   0  0  0  0  0  0  0  0  0  0  0  0
  188.9340  177.6520  142.7830 C   0  0  0  0  0  0  0  0  0  0  0  0
  191.0130  176.7530  146.2990 C   0  0  0  0  0  0  0  0  0  0  0  0
  189.6230  177.3520  143.9670 C   0  0  0  0  0  0  0  0  0  0  0  0
  190.9390  177.2250  141.5280 N   0  0  0  0  0  0  0  0  0  0  0  0
  191.6800  176.6860  145.0740 C   0  0  0  0  0  3  0  0  0  0  0  0
  187.5940  178.2550  140.4170 C   0  0  0  0  0  0  0  0  0  0  0  0
  187.6210  178.0100  142.8040 N   0  0  0  0  0  0  0  0  0  0  0  0
  191.6240  176.9290  142.6660 C   0  0  0  0  0  3  0  0  0  0  0  0
  185.6010  178.9260  139.3100 C   0  0  0  0  0  3  0  0  0  0  0  0
  188.9450  177.8860  140.3640 C   0  0  0  0  0  0  0  0  0  0  0  0
  186.9110  178.5610  139.2800 N   0  0  0  0  0  0  0  0  0  0  0  0
  191.8700  176.3800  147.7790 Cl  0  0  0  0  0  0  0  0  0  0  0  0
  189.7000  177.1080  146.3460 N   0  0  0  0  0  0  0  0  0  0  0  0
  189.6250  177.5830  141.5520 C   0  0  0  0  0  0  0  0  0  0  0  0
  184.9190  178.9960  140.5270 C   0  0  0  0  0  3  0  0  0  0  0  0
  186.9400  178.3120  141.6660 C   0  0  0  0  0  0  0  0  0  0  0  0
  184.8470  178.7830  143.0110 C   0  0  0  0  0  2  0  0  0  0  0  0
  183.3730  178.7050  142.7900 C   0  0  0  0  0  0  0  0  0  0  0  0
  180.6080  178.5990  142.3650 C   0  0  0  0  0  0  0  0  0  0  0  0
  182.8690  178.3050  141.5470 C   0  0  0  0  0  3  0  0  0  0  0  0
  182.4910  179.0560  143.8180 C   0  0  0  0  0  3  0  0  0  0  0  0
  181.1100  179.0030  143.6070 C   0  0  0  0  0  3  0  0  0  0  0  0
  179.2700  178.5470  142.1610 F   0  0  0  0  0  0  0  0  0  0  0  0
  181.4870  178.2510  141.3350 C   0  0  0  0  0  3  0  0  0  0  0  0
  1 21  1  0  0  0  0
  2 17  1  0  0  0  0
  3 14  1  0  0  0  0
  4  7  1  0  0  0  0
  4  9  2  0  0  0  0
  5 11  1  0  0  0  0
  5  7  1  0  0  0  0
  6 17  2  0  0  0  0
  6 16  1  0  0  0  0
  7  2  2  0  0  0  0
  8 18  1  0  0  0  0
  8 12  2  0  0  0  0
  9  6  1  0  0  0  0
 10 20  1  0  0  0  0
 12  4  1  0  0  0  0
 13 19  1  0  0  0  0
 14 10  2  0  0  0  0
 14 18  1  0  0  0  0
 15 13  2  0  0  0  0
 15 10  1  0  0  0  0
 18  5  2  0  0  0  0
 19  1  2  0  0  0  0
 20  1  1  0  0  0  0
 20 11  2  0  0  0  0
 22 21  1  0  0  0  0
 22 25  1  0  0  0  0
 23 26  1  0  0  0  0
 24 22  2  0  0  0  0
 26 25  2  0  0  0  0
 27 23  1  0  0  0  0
 28 24  1  0  0  0  0
 28 23  2  0  0  0  0
M  END
>  <MODEL>
8

>  <REMARK>
 VINA RESULT:      -8.7      3.258      5.526
  Name = 
  2 active torsions:
  status: ('A' for Active; 'I' for Inactive)
    1  A    between atoms: C_1  and  C_2
    2  A    between atoms: C_2  and  C_3
                            x       y       z     vdW  Elec       q    Type
                         _______ _______ _______ _____ _____    ______ ____

>  <TORSDO>
F 2

$$$$
=
 OpenBabel10262420523D

 28 32  0  0  0  0  0  0  0  0999 V2000
  184.9360  178.6330  140.3330 C   0  0  0  0  0  0  0  0  0  0  0  0
  186.5610  177.9850  145.0780 C   0  0  0  0  0  3  0  0  0  0  0  0
  189.7110  177.7850  139.7940 N   0  0  0  0  0  1  0  0  0  0  0  0
  188.9230  177.5680  144.7800 C   0  0  0  0  0  0  0  0  0  0  0  0
  187.5320  177.9620  142.8290 C   0  0  0  0  0  0  0  0  0  0  0  0
  187.9380  177.5970  146.9760 C   0  0  0  0  0  0  0  0  0  0  0  0
  187.6590  177.8410  144.2200 C   0  0  0  0  0  0  0  0  0  0  0  0
  189.8870  177.5460  142.5950 N   0  0  0  0  0  0  0  0  0  0  0  0
  189.0630  177.4460  146.1630 C   0  0  0  0  0  3  0  0  0  0  0  0
  187.3120  178.2100  140.0640 C   0  0  0  0  0  0  0  0  0  0  0  0
  186.3270  178.2260  142.2530 N   0  0  0  0  0  0  0  0  0  0  0  0
  190.0300  177.4230  143.9430 C   0  0  0  0  0  3  0  0  0  0  0  0
  185.9640  178.6140  138.1480 C   0  0  0  0  0  3  0  0  0  0  0  0
  188.5640  177.9340  140.6290 C   0  0  0  0  0  0  0  0  0  0  0  0
  187.1700  178.3420  138.7160 N   0  0  0  0  0  0  0  0  0  0  0  0
  188.0920  177.4480  148.7130 Cl  0  0  0  0  0  0  0  0  0  0  0  0
  186.7220  177.8620  146.4230 N   0  0  0  0  0  0  0  0  0  0  0  0
  188.6810  177.8100  142.0200 C   0  0  0  0  0  0  0  0  0  0  0  0
  184.8290  178.7670  138.9470 C   0  0  0  0  0  3  0  0  0  0  0  0
  186.1880  178.3540  140.9050 C   0  0  0  0  0  0  0  0  0  0  0  0
  183.7140  178.8180  141.1780 C   0  0  0  0  0  2  0  0  0  0  0  0
  182.5410  178.1170  140.5760 C   0  0  0  0  0  0  0  0  0  0  0  0
  180.3330  176.7860  139.4860 C   0  0  0  0  0  0  0  0  0  0  0  0
  181.3120  178.7760  140.4590 C   0  0  0  0  0  3  0  0  0  0  0  0
  182.6620  176.7880  140.1510 C   0  0  0  0  0  3  0  0  0  0  0  0
  181.5600  176.1240  139.6060 C   0  0  0  0  0  3  0  0  0  0  0  0
  179.2660  176.1420  138.9560 F   0  0  0  0  0  0  0  0  0  0  0  0
  180.2090  178.1110  139.9130 C   0  0  0  0  0  3  0  0  0  0  0  0
  1 20  1  0  0  0  0
  1 21  1  0  0  0  0
  2 17  1  0  0  0  0
  3 14  1  0  0  0  0
  4  9  2  0  0  0  0
  5  7  1  0  0  0  0
  6 16  1  0  0  0  0
  7  4  1  0  0  0  0
  7  2  2  0  0  0  0
  8 12  2  0  0  0  0
  9  6  1  0  0  0  0
 10 14  2  0  0  0  0
 10 20  1  0  0  0  0
 11  5  1  0  0  0  0
 12  4  1  0  0  0  0
 13 15  2  0  0  0  0
 13 19  1  0  0  0  0
 14 18  1  0  0  0  0
 15 10  1  0  0  0  0
 17  6  2  0  0  0  0
 18  8  1  0  0  0  0
 18  5  2  0  0  0  0
 19  1  2  0  0  0  0
 20 11  2  0  0  0  0
 22 21  1  0  0  0  0
 23 26  2  0  0  0  0
 23 28  1  0  0  0  0
 24 22  1  0  0  0  0
 25 22  2  0  0  0  0
 26 25  1  0  0  0  0
 27 23  1  0  0  0  0
 28 24  2  0  0  0  0
M  END
>  <MODEL>
9

>  <REMARK>
 VINA RESULT:      -8.7      3.248      5.297
  Name = 
  2 active torsions:
  status: ('A' for Active; 'I' for Inactive)
    1  A    between atoms: C_1  and  C_2
    2  A    between atoms: C_2  and  C_3
                            x       y       z     vdW  Elec       q    Type
                         _______ _______ _______ _____ _____    ______ ____

>  <TORSDO>
F 2

$$$$
