=
 OpenBabel10262422493D

 37 43  0  0  1  0  0  0  0  0999 V2000
  187.9310  177.6190  145.4320 C   0  0  1  0  0  0  0  0  0  0  0  0
  190.9700  176.8300  143.7200 C   0  0  0  0  0  0  0  0  0  0  0  0
  188.5110  177.7230  141.0860 C   0  0  1  0  0  3  0  0  0  0  0  0
  187.3020  178.0130  146.7830 C   0  0  1  0  0  3  0  0  0  0  0  0
  185.7200  179.6120  142.4360 C   0  0  0  0  0  2  0  0  0  0  0  0
  191.4250  176.9850  141.2890 C   0  0  0  0  0  3  0  0  0  0  0  0
  187.0200  177.9550  141.4020 C   0  0  2  0  0  3  0  0  0  0  0  0
  185.2140  178.7070  145.5960 C   0  0  0  0  0  0  0  0  0  0  0  0
  189.0630  176.6280  141.9700 C   0  0  0  0  0  2  0  0  0  0  0  0
  186.4730  178.8970  140.3660 C   0  0  2  0  0  3  0  0  0  0  0  0
  191.2110  177.0510  139.8280 C   0  0  0  0  0  3  0  0  0  0  0  0
  185.7720  178.0110  146.7900 C   0  0  0  0  0  2  0  0  0  0  0  0
  189.4610  177.4870  145.4710 C   0  0  1  0  0  3  0  0  0  0  0  0
  191.6730  178.1600  144.0490 C   0  0  0  0  0  1  0  0  0  0  0  0
  187.8060  177.9280  138.5840 C   0  0  0  0  0  2  0  0  0  0  0  0
  190.0680  177.1440  139.1390 C   0  0  0  0  0  3  0  0  0  0  0  0
  189.8600  176.4920  144.5500 O   0  0  0  0  0  0  0  0  0  0  0  0
  184.8740  177.8940  144.3900 C   0  0  0  0  0  2  0  0  0  0  0  0
  186.7190  178.5560  142.7150 N   0  0  2  0  0  0  0  0  0  0  0  0
  188.6520  177.1810  139.6390 C   0  0  1  0  0  3  0  0  0  0  0  0
  187.1710  176.7450  144.4070 C   0  0  0  0  0  2  0  0  0  0  0  0
  190.5160  176.8420  142.2680 C   0  0  0  0  0  0  0  0  0  0  0  0
  185.2430  179.4860  140.9980 C   0  0  1  0  0  3  0  0  0  0  0  0
  192.0080  175.7320  143.9000 C   0  0  0  0  0  1  0  0  0  0  0  0
  186.1230  177.4960  143.5650 C   0  0  1  0  0  3  0  0  0  0  0  0
  185.0910  179.9210  145.5850 O   0  0  0  0  0  0  0  0  0  0  0  0
  188.7940  178.6940  144.8120 C   0  0  0  0  0  2  0  0  0  0  0  0
  186.3710  178.1900  139.0360 C   0  0  0  0  0  2  0  0  0  0  0  0
  182.8320  178.9410  141.6410 C   0  0  0  0  0  3  0  0  0  0  0  0
  183.9990  178.6310  140.9200 C   0  0  0  0  0  0  0  0  0  0  0  0
  183.9760  177.5610  140.0180 C   0  0  0  0  0  3  0  0  0  0  0  0
  182.7970  175.7650  138.9820 F   0  0  0  0  0  0  0  0  0  0  0  0
  181.6610  177.1140  140.5790 C   0  0  0  0  0  3  0  0  0  0  0  0
  182.8100  176.8040  139.8500 C   0  0  0  0  0  0  0  0  0  0  0  0
  181.6700  178.1830  141.4770 C   0  0  0  0  0  3  0  0  0  0  0  0
  188.5630  177.9180  148.8330 O   0  0  0  0  0  1  0  0  0  0  0  0
  187.8140  177.1510  147.9340 C   0  0  0  0  0  2  0  0  0  0  0  0
  1 21  1  6  0  0  0
  1 13  1  0  0  0  0
  1  4  1  0  0  0  0
  2 24  1  0  0  0  0
  2 14  1  0  0  0  0
  2 17  1  0  0  0  0
  3  7  1  0  0  0  0
  3  9  1  1  0  0  0
  4 12  1  0  0  0  0
  4 37  1  1  0  0  0
  5 19  1  0  0  0  0
  6 22  2  0  0  0  0
  7 19  1  0  0  0  0
  8 12  1  0  0  0  0
  9 22  1  0  0  0  0
 10 23  1  0  0  0  0
 10  7  1  0  0  0  0
 11  6  1  0  0  0  0
 15 28  1  0  0  0  0
 15 20  1  0  0  0  0
 16 20  1  0  0  0  0
 16 11  2  0  0  0  0
 17 13  1  0  0  0  0
 18  8  1  0  0  0  0
 19 25  1  0  0  0  0
 20  3  1  0  0  0  0
 22  2  1  0  0  0  0
 23  5  1  0  0  0  0
 25 18  1  0  0  0  0
 25 21  1  0  0  0  0
 26  8  2  0  0  0  0
 27  1  1  0  0  0  0
 27 13  1  0  0  0  0
 28 10  1  0  0  0  0
 30 23  1  0  0  0  0
 30 29  2  0  0  0  0
 31 30  1  0  0  0  0
 32 34  1  0  0  0  0
 33 35  2  0  0  0  0
 34 31  2  0  0  0  0
 34 33  1  0  0  0  0
 35 29  1  0  0  0  0
 37 36  1  0  0  0  0
M  END
>  <MODEL>
1

>  <REMARK>
 VINA RESULT:      -8.6      0.000      0.000
  Name = 
  2 active torsions:
  status: ('A' for Active; 'I' for Inactive)
    1  A    between atoms: C_5  and  C_23
    2  A    between atoms: C_6  and  C_31
                            x       y       z     vdW  Elec       q    Type
                         _______ _______ _______ _____ _____    ______ ____

>  <TORSDO>
F 2

$$$$
=
 OpenBabel10262422493D

 37 43  0  0  1  0  0  0  0  0999 V2000
  188.4930  177.6170  140.9680 C   0  0  1  0  0  0  0  0  0  0  0  0
  185.1120  178.3470  141.8770 C   0  0  0  0  0  0  0  0  0  0  0  0
  187.0160  178.1750  145.0600 C   0  0  1  0  0  3  0  0  0  0  0  0
  189.5310  177.6250  139.8280 C   0  0  1  0  0  3  0  0  0  0  0  0
  190.5850  178.5550  144.5150 C   0  0  0  0  0  2  0  0  0  0  0  0
  184.2150  178.8030  144.1410 C   0  0  0  0  0  3  0  0  0  0  0  0
  188.4820  177.7020  145.1120 C   0  0  2  0  0  3  0  0  0  0  0  0
  191.3640  177.3710  141.5070 C   0  0  0  0  0  0  0  0  0  0  0  0
  186.2610  177.4000  144.0030 C   0  0  0  0  0  2  0  0  0  0  0  0
  189.1290  178.3500  146.3050 C   0  0  2  0  0  3  0  0  0  0  0  0
  184.0860  178.8360  145.6130 C   0  0  0  0  0  3  0  0  0  0  0  0
  190.8540  176.9410  140.1740 C   0  0  0  0  0  2  0  0  0  0  0  0
  187.1210  178.1780  140.5680 C   0  0  1  0  0  3  0  0  0  0  0  0
  185.1710  179.8330  141.4790 C   0  0  0  0  0  1  0  0  0  0  0  0
  187.1270  178.1620  147.6650 C   0  0  0  0  0  2  0  0  0  0  0  0
  184.9540  178.4420  146.5520 C   0  0  0  0  0  3  0  0  0  0  0  0
  186.1180  177.5100  141.3060 O   0  0  0  0  0  0  0  0  0  0  0  0
  191.0140  176.5500  142.7050 C   0  0  0  0  0  2  0  0  0  0  0  0
  189.3180  178.0430  143.9460 N   0  0  2  0  0  0  0  0  0  0  0  0
  186.3130  177.8210  146.3960 C   0  0  1  0  0  3  0  0  0  0  0  0
  188.5220  176.5460  142.0830 C   0  0  0  0  0  2  0  0  0  0  0  0
  185.1690  178.2240  143.3920 C   0  0  0  0  0  0  0  0  0  0  0  0
  190.6020  178.2980  146.0140 C   0  0  1  0  0  3  0  0  0  0  0  0
  183.7700  177.8190  141.3920 C   0  0  0  0  0  1  0  0  0  0  0  0
  189.5640  176.7900  143.1910 C   0  0  1  0  0  3  0  0  0  0  0  0
  192.0060  178.4020  141.6230 O   0  0  0  0  0  0  0  0  0  0  0  0
  188.0780  178.9920  141.4390 C   0  0  0  0  0  2  0  0  0  0  0  0
  188.5910  177.7350  147.5740 C   0  0  0  0  0  2  0  0  0  0  0  0
  191.5710  176.0370  145.3240 C   0  0  0  0  0  3  0  0  0  0  0  0
  191.2820  176.9840  146.3230 C   0  0  0  0  0  0  0  0  0  0  0  0
  191.7300  176.7520  147.6280 C   0  0  0  0  0  3  0  0  0  0  0  0
  192.8710  175.3660  149.2000 F   0  0  0  0  0  0  0  0  0  0  0  0
  192.7190  174.6500  146.9360 C   0  0  0  0  0  3  0  0  0  0  0  0
  192.4450  175.5880  147.9340 C   0  0  0  0  0  0  0  0  0  0  0  0
  192.2800  174.8730  145.6290 C   0  0  0  0  0  3  0  0  0  0  0  0
  189.2850  177.8410  137.4410 O   0  0  0  0  0  1  0  0  0  0  0  0
  188.9760  177.0280  138.5360 C   0  0  0  0  0  2  0  0  0  0  0  0
  1 27  1  1  0  0  0
  1 21  1  0  0  0  0
  2 22  1  0  0  0  0
  3  9  1  6  0  0  0
  3  7  1  0  0  0  0
  3 20  1  0  0  0  0
  4 37  1  6  0  0  0
  4 12  1  0  0  0  0
  4  1  1  0  0  0  0
  5 23  1  0  0  0  0
  6 11  1  0  0  0  0
  7 10  1  0  0  0  0
  8 26  2  0  0  0  0
  8 18  1  0  0  0  0
 10 28  1  0  0  0  0
 11 16  2  0  0  0  0
 12  8  1  0  0  0  0
 13  1  1  0  0  0  0
 13 17  1  0  0  0  0
 13 27  1  0  0  0  0
 14  2  1  0  0  0  0
 17  2  1  0  0  0  0
 18 25  1  0  0  0  0
 19  5  1  0  0  0  0
 19  7  1  0  0  0  0
 20 16  1  0  0  0  0
 20 15  1  0  0  0  0
 21 25  1  0  0  0  0
 22  9  1  0  0  0  0
 22  6  2  0  0  0  0
 23 10  1  0  0  0  0
 23 30  1  0  0  0  0
 24  2  1  0  0  0  0
 25 19  1  0  0  0  0
 28 15  1  0  0  0  0
 29 35  2  0  0  0  0
 29 30  1  0  0  0  0
 30 31  2  0  0  0  0
 31 34  1  0  0  0  0
 33 34  2  0  0  0  0
 34 32  1  0  0  0  0
 35 33  1  0  0  0  0
 36 37  1  0  0  0  0
M  END
>  <MODEL>
2

>  <REMARK>
 VINA RESULT:      -7.9      3.219      8.094
  Name = 
  2 active torsions:
  status: ('A' for Active; 'I' for Inactive)
    1  A    between atoms: C_5  and  C_23
    2  A    between atoms: C_6  and  C_31
                            x       y       z     vdW  Elec       q    Type
                         _______ _______ _______ _____ _____    ______ ____

>  <TORSDO>
F 2

$$$$
=
 OpenBabel10262422493D

 37 43  0  0  1  0  0  0  0  0999 V2000
  184.0220  178.8050  142.7760 C   0  0  1  0  0  0  0  0  0  0  0  0
  185.6050  178.3560  145.9520 C   0  0  0  0  0  0  0  0  0  0  0  0
  188.2390  177.7720  143.4010 C   0  0  1  0  0  3  0  0  0  0  0  0
  182.8100  179.4030  142.0360 C   0  0  1  0  0  3  0  0  0  0  0  0
  187.3340  179.1900  140.1830 C   0  0  0  0  0  2  0  0  0  0  0  0
  187.9990  177.9010  146.4020 C   0  0  0  0  0  3  0  0  0  0  0  0
  187.9180  177.6940  141.8950 C   0  0  2  0  0  3  0  0  0  0  0  0
  184.0240  179.1550  139.8660 C   0  0  0  0  0  0  0  0  0  0  0  0
  187.1090  177.1660  144.2020 C   0  0  0  0  0  2  0  0  0  0  0  0
  189.1490  178.1160  141.1420 C   0  0  2  0  0  3  0  0  0  0  0  0
  189.4010  177.4770  146.2090 C   0  0  0  0  0  3  0  0  0  0  0  0
  182.7140  179.0100  140.5610 C   0  0  0  0  0  2  0  0  0  0  0  0
  184.0350  179.0880  144.2850 C   0  0  1  0  0  3  0  0  0  0  0  0
  185.7150  179.8580  146.2740 C   0  0  0  0  0  1  0  0  0  0  0  0
  190.6480  177.0430  142.7210 C   0  0  0  0  0  2  0  0  0  0  0  0
  190.0210  177.0660  145.0970 C   0  0  0  0  0  3  0  0  0  0  0  0
  184.6500  178.0040  144.9520 O   0  0  0  0  0  0  0  0  0  0  0  0
  184.9220  177.9650  139.7760 C   0  0  0  0  0  2  0  0  0  0  0  0
  186.8200  178.5570  141.4190 N   0  0  2  0  0  0  0  0  0  0  0  0
  189.4720  176.8830  143.7100 C   0  0  1  0  0  3  0  0  0  0  0  0
  184.7060  177.5030  142.2940 C   0  0  0  0  0  2  0  0  0  0  0  0
  186.9690  177.8240  145.5410 C   0  0  0  0  0  0  0  0  0  0  0  0
  188.6450  178.5280  139.7880 C   0  0  1  0  0  3  0  0  0  0  0  0
  185.1750  177.6650  147.2370 C   0  0  0  0  0  1  0  0  0  0  0  0
  185.6670  177.6780  141.1030 C   0  0  1  0  0  3  0  0  0  0  0  0
  184.3790  180.2380  139.4290 O   0  0  0  0  0  0  0  0  0  0  0  0
  184.9760  179.8340  143.3400 C   0  0  0  0  0  2  0  0  0  0  0  0
  190.2090  177.0480  141.2580 C   0  0  0  0  0  2  0  0  0  0  0  0
  187.2650  177.3560  137.9850 C   0  0  0  0  0  3  0  0  0  0  0  0
  188.4010  177.3980  138.8130 C   0  0  0  0  0  0  0  0  0  0  0  0
  189.3910  176.4220  138.6580 C   0  0  0  0  0  3  0  0  0  0  0  0
  190.2020  174.4650  137.5590 F   0  0  0  0  0  0  0  0  0  0  0  0
  188.1070  175.3740  136.8890 C   0  0  0  0  0  3  0  0  0  0  0  0
  189.2430  175.4120  137.6990 C   0  0  0  0  0  0  0  0  0  0  0  0
  187.1150  176.3470  137.0320 C   0  0  0  0  0  3  0  0  0  0  0  0
  180.6940  180.2250  142.8430 O   0  0  0  0  0  1  0  0  0  0  0  0
  181.4890  179.0800  142.7320 C   0  0  0  0  0  2  0  0  0  0  0  0
  1 21  1  6  0  0  0
  1 27  1  0  0  0  0
  1 13  1  0  0  0  0
  2 14  1  0  0  0  0
  2 24  1  0  0  0  0
  3 20  1  0  0  0  0
  3  9  1  1  0  0  0
  4 37  1  1  0  0  0
  4  1  1  0  0  0  0
  5 19  1  0  0  0  0
  7  3  1  0  0  0  0
  8 12  1  0  0  0  0
  9 22  1  0  0  0  0
 10 28  1  0  0  0  0
 10  7  1  0  0  0  0
 11  6  1  0  0  0  0
 12  4  1  0  0  0  0
 13 17  1  0  0  0  0
 15 20  1  0  0  0  0
 16 11  2  0  0  0  0
 17  2  1  0  0  0  0
 18  8  1  0  0  0  0
 18 25  1  0  0  0  0
 19  7  1  0  0  0  0
 20 16  1  0  0  0  0
 22  2  1  0  0  0  0
 22  6  2  0  0  0  0
 23  5  1  0  0  0  0
 23 10  1  0  0  0  0
 25 19  1  0  0  0  0
 25 21  1  0  0  0  0
 26  8  2  0  0  0  0
 27 13  1  0  0  0  0
 28 15  1  0  0  0  0
 29 30  1  0  0  0  0
 30 23  1  0  0  0  0
 31 30  2  0  0  0  0
 32 34  1  0  0  0  0
 33 35  1  0  0  0  0
 33 34  2  0  0  0  0
 34 31  1  0  0  0  0
 35 29  2  0  0  0  0
 37 36  1  0  0  0  0
M  END
>  <MODEL>
3

>  <REMARK>
 VINA RESULT:      -6.9      2.261      5.672
  Name = 
  2 active torsions:
  status: ('A' for Active; 'I' for Inactive)
    1  A    between atoms: C_5  and  C_23
    2  A    between atoms: C_6  and  C_31
                            x       y       z     vdW  Elec       q    Type
                         _______ _______ _______ _____ _____    ______ ____

>  <TORSDO>
F 2

$$$$
=
 OpenBabel10262422493D

 37 43  0  0  1  0  0  0  0  0999 V2000
  186.1200  172.8780  135.6010 C   0  0  1  0  0  0  0  0  0  0  0  0
  182.5910  173.2270  136.0640 C   0  0  0  0  0  0  0  0  0  0  0  0
  184.1170  176.3240  137.4310 C   0  0  1  0  0  3  0  0  0  0  0  0
  187.2320  172.1330  134.8360 C   0  0  1  0  0  3  0  0  0  0  0  0
  187.4840  176.8340  136.1710 C   0  0  0  0  0  2  0  0  0  0  0  0
  181.3670  175.1840  136.9650 C   0  0  0  0  0  3  0  0  0  0  0  0
  185.6430  176.4870  137.5840 C   0  0  2  0  0  3  0  0  0  0  0  0
  188.8750  173.8800  135.5410 C   0  0  0  0  0  0  0  0  0  0  0  0
  183.7200  174.8910  137.7060 C   0  0  0  0  0  2  0  0  0  0  0  0
  185.9570  177.9550  137.5040 C   0  0  2  0  0  3  0  0  0  0  0  0
  181.0770  176.4380  137.6900 C   0  0  0  0  0  3  0  0  0  0  0  0
  188.6470  172.4210  135.3410 C   0  0  0  0  0  2  0  0  0  0  0  0
  184.6980  172.4770  135.1830 C   0  0  1  0  0  3  0  0  0  0  0  0
  182.2850  173.5730  134.5950 C   0  0  0  0  0  1  0  0  0  0  0  0
  183.9480  178.5890  138.7100 C   0  0  0  0  0  2  0  0  0  0  0  0
  181.9130  177.2660  138.3280 C   0  0  0  0  0  3  0  0  0  0  0  0
  183.8420  172.5830  136.3030 O   0  0  0  0  0  0  0  0  0  0  0  0
  188.6360  174.4610  136.8960 C   0  0  0  0  0  2  0  0  0  0  0  0
  186.4740  175.8250  136.5600 N   0  0  2  0  0  0  0  0  0  0  0  0
  183.3990  177.1570  138.5240 C   0  0  1  0  0  3  0  0  0  0  0  0
  186.3210  173.3600  137.0570 C   0  0  0  0  0  2  0  0  0  0  0  0
  182.5170  174.4910  136.9070 C   0  0  0  0  0  0  0  0  0  0  0  0
  187.4100  178.0140  137.1280 C   0  0  1  0  0  3  0  0  0  0  0  0
  181.5050  172.2670  136.5220 C   0  0  0  0  0  1  0  0  0  0  0  0
  187.1320  174.6610  137.2040 C   0  0  1  0  0  3  0  0  0  0  0  0
  189.1950  174.5930  134.6040 O   0  0  0  0  0  0  0  0  0  0  0  0
  185.2970  173.8140  134.7450 C   0  0  0  0  0  2  0  0  0  0  0  0
  185.4740  178.6490  138.7550 C   0  0  0  0  0  2  0  0  0  0  0  0
  187.9980  177.9780  139.6150 C   0  0  0  0  0  3  0  0  0  0  0  0
  188.3850  177.8380  138.2700 C   0  0  0  0  0  0  0  0  0  0  0  0
  189.6890  177.4180  137.9790 C   0  0  0  0  0  3  0  0  0  0  0  0
  191.8550  176.7550  138.7270 F   0  0  0  0  0  0  0  0  0  0  0  0
  190.2010  177.3060  140.3460 C   0  0  0  0  0  3  0  0  0  0  0  0
  190.5940  177.1550  139.0150 C   0  0  0  0  0  0  0  0  0  0  0  0
  188.9020  177.7200  140.6470 C   0  0  0  0  0  3  0  0  0  0  0  0
  187.9300  169.9660  135.6230 O   0  0  0  0  0  1  0  0  0  0  0  0
  187.0040  170.6230  134.8070 C   0  0  0  0  0  2  0  0  0  0  0  0
  1 27  1  6  0  0  0
  1 21  1  0  0  0  0
  2 17  1  0  0  0  0
  2 24  1  0  0  0  0
  2 22  1  0  0  0  0
  3  7  1  0  0  0  0
  3  9  1  1  0  0  0
  3 20  1  0  0  0  0
  4 37  1  1  0  0  0
  4 12  1  0  0  0  0
  4  1  1  0  0  0  0
  5 19  1  0  0  0  0
  5 23  1  0  0  0  0
  6 11  1  0  0  0  0
  8 18  1  0  0  0  0
 10  7  1  0  0  0  0
 10 28  1  0  0  0  0
 11 16  2  0  0  0  0
 12  8  1  0  0  0  0
 13  1  1  0  0  0  0
 13 17  1  0  0  0  0
 14  2  1  0  0  0  0
 15 28  1  0  0  0  0
 16 20  1  0  0  0  0
 18 25  1  0  0  0  0
 19 25  1  0  0  0  0
 19  7  1  0  0  0  0
 20 15  1  0  0  0  0
 21 25  1  0  0  0  0
 22  6  2  0  0  0  0
 22  9  1  0  0  0  0
 23 10  1  0  0  0  0
 23 30  1  0  0  0  0
 26  8  2  0  0  0  0
 27 13  1  0  0  0  0
 29 35  1  0  0  0  0
 30 29  2  0  0  0  0
 31 30  1  0  0  0  0
 31 34  2  0  0  0  0
 32 34  1  0  0  0  0
 33 35  2  0  0  0  0
 34 33  1  0  0  0  0
 37 36  1  0  0  0  0
M  END
>  <MODEL>
4

>  <REMARK>
 VINA RESULT:      -6.6      5.244      9.572
  Name = 
  2 active torsions:
  status: ('A' for Active; 'I' for Inactive)
    1  A    between atoms: C_5  and  C_23
    2  A    between atoms: C_6  and  C_31
                            x       y       z     vdW  Elec       q    Type
                         _______ _______ _______ _____ _____    ______ ____

>  <TORSDO>
F 2

$$$$
=
 OpenBabel10262422493D

 37 43  0  0  1  0  0  0  0  0999 V2000
  188.2600  177.6870  146.0800 C   0  0  1  0  0  0  0  0  0  0  0  0
  190.8000  176.7830  143.7310 C   0  0  0  0  0  0  0  0  0  0  0  0
  187.9150  177.9670  141.7170 C   0  0  1  0  0  3  0  0  0  0  0  0
  187.9610  178.0560  147.5470 C   0  0  1  0  0  3  0  0  0  0  0  0
  185.6220  179.9680  143.6970 C   0  0  0  0  0  2  0  0  0  0  0  0
  190.7420  177.0280  141.2660 C   0  0  0  0  0  3  0  0  0  0  0  0
  186.5460  178.2800  142.3530 C   0  0  2  0  0  3  0  0  0  0  0  0
  185.7280  178.9430  146.8590 C   0  0  0  0  0  0  0  0  0  0  0  0
  188.5570  176.7950  142.4250 C   0  0  0  0  0  2  0  0  0  0  0  0
  185.8650  179.3060  141.4900 C   0  0  2  0  0  3  0  0  0  0  0  0
  190.2300  177.1790  139.8880 C   0  0  0  0  0  3  0  0  0  0  0  0
  186.4720  178.1540  147.8820 C   0  0  0  0  0  2  0  0  0  0  0  0
  189.7480  177.4520  145.7860 C   0  0  1  0  0  3  0  0  0  0  0  0
  191.6550  178.0460  143.9470 C   0  0  0  0  0  1  0  0  0  0  0  0
  186.7150  178.3410  139.4320 C   0  0  0  0  0  2  0  0  0  0  0  0
  188.9770  177.3810  139.4630 C   0  0  0  0  0  3  0  0  0  0  0  0
  189.8680  176.4790  144.7680 O   0  0  0  0  0  0  0  0  0  0  0  0
  185.0800  178.2150  145.7270 C   0  0  0  0  0  2  0  0  0  0  0  0
  186.5750  178.8350  143.7200 N   0  0  2  0  0  0  0  0  0  0  0  0
  187.7060  177.4880  140.2560 C   0  0  1  0  0  3  0  0  0  0  0  0
  187.2360  176.9170  145.2120 C   0  0  0  0  0  2  0  0  0  0  0  0
  190.0520  176.8980  142.4120 C   0  0  0  0  0  0  0  0  0  0  0  0
  184.8440  179.9440  142.3900 C   0  0  1  0  0  3  0  0  0  0  0  0
  191.7670  175.6120  143.6470 C   0  0  0  0  0  1  0  0  0  0  0  0
  186.0930  177.7770  144.6410 C   0  0  1  0  0  3  0  0  0  0  0  0
  185.6970  180.1620  146.9160 O   0  0  0  0  0  0  0  0  0  0  0  0
  189.0510  178.7320  145.3260 C   0  0  0  0  0  2  0  0  0  0  0  0
  185.4310  178.6740  140.1900 C   0  0  0  0  0  2  0  0  0  0  0  0
  182.8160  179.1930  143.7510 C   0  0  0  0  0  3  0  0  0  0  0  0
  183.5500  179.1790  142.5520 C   0  0  0  0  0  0  0  0  0  0  0  0
  183.0160  178.5240  141.4360 C   0  0  0  0  0  3  0  0  0  0  0  0
  181.2650  177.2450  140.4410 F   0  0  0  0  0  0  0  0  0  0  0  0
  181.0580  177.8950  142.7200 C   0  0  0  0  0  3  0  0  0  0  0  0
  181.7740  177.8830  141.5220 C   0  0  0  0  0  0  0  0  0  0  0  0
  181.5800  178.5500  143.8380 C   0  0  0  0  0  3  0  0  0  0  0  0
  188.1650  175.7990  148.3670 O   0  0  0  0  0  1  0  0  0  0  0  0
  188.6380  177.1060  148.5320 C   0  0  0  0  0  2  0  0  0  0  0  0
  1 21  1  6  0  0  0
  1  4  1  0  0  0  0
  2 14  1  0  0  0  0
  2 17  1  0  0  0  0
  3  7  1  0  0  0  0
  3  9  1  1  0  0  0
  4 12  1  0  0  0  0
  4 37  1  1  0  0  0
  5 19  1  0  0  0  0
  6 22  2  0  0  0  0
  7 19  1  0  0  0  0
  8 26  2  0  0  0  0
  8 12  1  0  0  0  0
 10  7  1  0  0  0  0
 10 23  1  0  0  0  0
 11  6  1  0  0  0  0
 13  1  1  0  0  0  0
 15 28  1  0  0  0  0
 15 20  1  0  0  0  0
 16 11  2  0  0  0  0
 16 20  1  0  0  0  0
 17 13  1  0  0  0  0
 18  8  1  0  0  0  0
 19 25  1  0  0  0  0
 20  3  1  0  0  0  0
 22  9  1  0  0  0  0
 22  2  1  0  0  0  0
 23 30  1  0  0  0  0
 23  5  1  0  0  0  0
 24  2  1  0  0  0  0
 25 21  1  0  0  0  0
 25 18  1  0  0  0  0
 27 13  1  0  0  0  0
 27  1  1  0  0  0  0
 28 10  1  0  0  0  0
 29 35  1  0  0  0  0
 30 29  2  0  0  0  0
 31 34  2  0  0  0  0
 31 30  1  0  0  0  0
 32 34  1  0  0  0  0
 33 35  2  0  0  0  0
 34 33  1  0  0  0  0
 36 37  1  0  0  0  0
M  END
>  <MODEL>
5

>  <REMARK>
 VINA RESULT:      -6.5      1.127      1.384
  Name = 
  2 active torsions:
  status: ('A' for Active; 'I' for Inactive)
    1  A    between atoms: C_5  and  C_23
    2  A    between atoms: C_6  and  C_31
                            x       y       z     vdW  Elec       q    Type
                         _______ _______ _______ _____ _____    ______ ____

>  <TORSDO>
F 2

$$$$
=
 OpenBabel10262422493D

 37 43  0  0  1  0  0  0  0  0999 V2000
  184.6960  178.6880  142.8720 C   0  0  1  0  0  0  0  0  0  0  0  0
  184.3050  178.9350  139.3260 C   0  0  0  0  0  0  0  0  0  0  0  0
  187.7260  177.6060  139.8910 C   0  0  1  0  0  3  0  0  0  0  0  0
  183.9650  178.6310  144.2280 C   0  0  1  0  0  3  0  0  0  0  0  0
  188.0890  176.1970  143.2180 C   0  0  0  0  0  2  0  0  0  0  0  0
  185.9060  178.2290  137.5710 C   0  0  0  0  0  3  0  0  0  0  0  0
  188.3490  177.5220  141.2990 C   0  0  2  0  0  3  0  0  0  0  0  0
  186.0580  177.7960  145.3100 C   0  0  0  0  0  0  0  0  0  0  0  0
  186.8590  178.8400  139.7830 C   0  0  0  0  0  2  0  0  0  0  0  0
  189.3540  176.4040  141.2890 C   0  0  2  0  0  3  0  0  0  0  0  0
  187.1680  177.8550  136.8990 C   0  0  0  0  0  3  0  0  0  0  0  0
  184.8880  178.7090  145.4460 C   0  0  0  0  0  2  0  0  0  0  0  0
  183.7570  178.7520  141.6590 C   0  0  1  0  0  3  0  0  0  0  0  0
  183.4280  177.6770  139.1870 C   0  0  0  0  0  1  0  0  0  0  0  0
  190.0790  176.8920  139.0240 C   0  0  0  0  0  2  0  0  0  0  0  0
  188.3870  177.6690  137.4190 C   0  0  0  0  0  3  0  0  0  0  0  0
  184.3790  179.5000  140.6340 O   0  0  0  0  0  0  0  0  0  0  0  0
  187.3260  178.3400  144.7360 C   0  0  0  0  0  2  0  0  0  0  0  0
  187.4180  177.2390  142.4070 N   0  0  2  0  0  0  0  0  0  0  0  0
  188.8500  177.8110  138.8420 C   0  0  1  0  0  3  0  0  0  0  0  0
  186.0860  179.3520  142.7270 C   0  0  0  0  0  2  0  0  0  0  0  0
  185.7140  178.6260  138.8410 C   0  0  0  0  0  0  0  0  0  0  0  0
  189.5200  176.0280  142.7340 C   0  0  1  0  0  3  0  0  0  0  0  0
  183.6950  179.9940  138.4200 C   0  0  0  0  0  1  0  0  0  0  0  0
  187.2700  178.4870  143.1960 C   0  0  1  0  0  3  0  0  0  0  0  0
  185.9640  176.6170  145.6080 O   0  0  0  0  0  0  0  0  0  0  0  0
  184.5010  177.4630  142.0090 C   0  0  0  0  0  2  0  0  0  0  0  0
  190.5580  176.8060  140.4720 C   0  0  0  0  0  2  0  0  0  0  0  0
  190.8450  178.1830  143.0910 C   0  0  0  0  0  3  0  0  0  0  0  0
  190.4610  176.9030  143.5300 C   0  0  0  0  0  0  0  0  0  0  0  0
  190.8750  176.4660  144.7930 C   0  0  0  0  0  3  0  0  0  0  0  0
  192.0750  176.8570  146.8180 F   0  0  0  0  0  0  0  0  0  0  0  0
  192.0550  178.5540  145.1500 C   0  0  0  0  0  3  0  0  0  0  0  0
  191.6710  177.2890  145.6000 C   0  0  0  0  0  0  0  0  0  0  0  0
  191.6430  179.0020  143.8930 C   0  0  0  0  0  3  0  0  0  0  0  0
  181.6100  179.1350  144.1880 O   0  0  0  0  0  1  0  0  0  0  0  0
  182.8800  179.6990  144.3470 C   0  0  0  0  0  2  0  0  0  0  0  0
  1 27  1  6  0  0  0
  1  4  1  0  0  0  0
  2 17  1  0  0  0  0
  3  9  1  1  0  0  0
  3  7  1  0  0  0  0
  4 37  1  6  0  0  0
  4 12  1  0  0  0  0
  6 22  2  0  0  0  0
  7 19  1  0  0  0  0
  8 12  1  0  0  0  0
  8 26  2  0  0  0  0
 10  7  1  0  0  0  0
 10 23  1  0  0  0  0
 11 16  2  0  0  0  0
 11  6  1  0  0  0  0
 13 27  1  0  0  0  0
 13  1  1  0  0  0  0
 14  2  1  0  0  0  0
 15 28  1  0  0  0  0
 16 20  1  0  0  0  0
 17 13  1  0  0  0  0
 18  8  1  0  0  0  0
 19 25  1  0  0  0  0
 19  5  1  0  0  0  0
 20 15  1  0  0  0  0
 20  3  1  0  0  0  0
 21  1  1  0  0  0  0
 21 25  1  0  0  0  0
 22  2  1  0  0  0  0
 22  9  1  0  0  0  0
 23  5  1  0  0  0  0
 23 30  1  0  0  0  0
 24  2  1  0  0  0  0
 25 18  1  0  0  0  0
 28 10  1  0  0  0  0
 29 30  2  0  0  0  0
 29 35  1  0  0  0  0
 30 31  1  0  0  0  0
 31 34  2  0  0  0  0
 33 34  1  0  0  0  0
 34 32  1  0  0  0  0
 35 33  2  0  0  0  0
 36 37  1  0  0  0  0
M  END
>  <MODEL>
6

>  <REMARK>
 VINA RESULT:      -6.4      2.648      6.398
  Name = 
  2 active torsions:
  status: ('A' for Active; 'I' for Inactive)
    1  A    between atoms: C_5  and  C_23
    2  A    between atoms: C_6  and  C_31
                            x       y       z     vdW  Elec       q    Type
                         _______ _______ _______ _____ _____    ______ ____

>  <TORSDO>
F 2

$$$$
=
 OpenBabel10262422493D

 37 43  0  0  1  0  0  0  0  0999 V2000
  184.2190  173.4690  136.0760 C   0  0  1  0  0  0  0  0  0  0  0  0
  180.9140  174.1450  137.2620 C   0  0  0  0  0  0  0  0  0  0  0  0
  183.0360  176.9320  138.4930 C   0  0  1  0  0  3  0  0  0  0  0  0
  185.0650  172.6820  135.0550 C   0  0  1  0  0  3  0  0  0  0  0  0
  186.1330  177.1950  136.6170 C   0  0  0  0  0  2  0  0  0  0  0  0
  180.1310  176.1320  138.5180 C   0  0  0  0  0  3  0  0  0  0  0  0
  184.5700  176.9190  138.3460 C   0  0  2  0  0  3  0  0  0  0  0  0
  187.0100  174.1780  135.5270 C   0  0  0  0  0  0  0  0  0  0  0  0
  182.5300  175.5300  138.7480 C   0  0  0  0  0  2  0  0  0  0  0  0
  185.0380  178.3480  138.3010 C   0  0  2  0  0  3  0  0  0  0  0  0
  180.1390  177.3420  139.3670 C   0  0  0  0  0  3  0  0  0  0  0  0
  186.5740  172.7740  135.2820 C   0  0  0  0  0  2  0  0  0  0  0  0
  182.7050  173.2580  135.9280 C   0  0  1  0  0  3  0  0  0  0  0  0
  180.3730  174.6480  135.9110 C   0  0  0  0  0  1  0  0  0  0  0  0
  183.3910  179.0810  139.9260 C   0  0  0  0  0  2  0  0  0  0  0  0
  181.1760  178.0180  139.8760 C   0  0  0  0  0  3  0  0  0  0  0  0
  182.1010  173.3550  137.2010 O   0  0  0  0  0  0  0  0  0  0  0  0
  187.1090  174.6590  136.9380 C   0  0  0  0  0  2  0  0  0  0  0  0
  185.1030  176.2660  137.1350 N   0  0  2  0  0  0  0  0  0  0  0  0
  182.6470  177.7360  139.7610 C   0  0  1  0  0  3  0  0  0  0  0  0
  184.7530  173.7970  137.4900 C   0  0  0  0  0  2  0  0  0  0  0  0
  181.1560  175.3300  138.1840 C   0  0  0  0  0  0  0  0  0  0  0  0
  186.3880  178.2860  137.6440 C   0  0  1  0  0  3  0  0  0  0  0  0
  179.8280  173.2670  137.8660 C   0  0  0  0  0  1  0  0  0  0  0  0
  185.7280  174.9880  137.5550 C   0  0  1  0  0  3  0  0  0  0  0  0
  187.2270  174.9330  134.5940 O   0  0  0  0  0  0  0  0  0  0  0  0
  183.3650  174.5580  135.4670 C   0  0  0  0  0  2  0  0  0  0  0  0
  184.8920  178.9760  139.6660 C   0  0  0  0  0  2  0  0  0  0  0  0
  188.6910  177.2650  138.0710 C   0  0  0  0  0  3  0  0  0  0  0  0
  187.5360  177.9090  138.5520 C   0  0  0  0  0  0  0  0  0  0  0  0
  187.4910  178.3110  139.8920 C   0  0  0  0  0  3  0  0  0  0  0  0
  188.5240  178.4460  142.0380 F   0  0  0  0  0  0  0  0  0  0  0  0
  189.7130  177.4130  140.2550 C   0  0  0  0  0  3  0  0  0  0  0  0
  188.5760  178.0610  140.7410 C   0  0  0  0  0  0  0  0  0  0  0  0
  189.7710  177.0120  138.9190 C   0  0  0  0  0  3  0  0  0  0  0  0
  185.7560  170.3780  135.1940 O   0  0  0  0  0  1  0  0  0  0  0  0
  184.6550  171.2130  134.9740 C   0  0  0  0  0  2  0  0  0  0  0  0
  1 27  1  6  0  0  0
  1 21  1  0  0  0  0
  2 24  1  0  0  0  0
  2 22  1  0  0  0  0
  3  9  1  1  0  0  0
  3 20  1  0  0  0  0
  4 37  1  1  0  0  0
  4 12  1  0  0  0  0
  4  1  1  0  0  0  0
  5 19  1  0  0  0  0
  5 23  1  0  0  0  0
  6 11  1  0  0  0  0
  7  3  1  0  0  0  0
  8 18  1  0  0  0  0
 10  7  1  0  0  0  0
 10 28  1  0  0  0  0
 11 16  2  0  0  0  0
 12  8  1  0  0  0  0
 13  1  1  0  0  0  0
 13 17  1  0  0  0  0
 14  2  1  0  0  0  0
 17  2  1  0  0  0  0
 18 25  1  0  0  0  0
 19 25  1  0  0  0  0
 19  7  1  0  0  0  0
 20 16  1  0  0  0  0
 20 15  1  0  0  0  0
 21 25  1  0  0  0  0
 22  6  2  0  0  0  0
 22  9  1  0  0  0  0
 23 10  1  0  0  0  0
 23 30  1  0  0  0  0
 26  8  2  0  0  0  0
 27 13  1  0  0  0  0
 28 15  1  0  0  0  0
 29 30  2  0  0  0  0
 29 35  1  0  0  0  0
 30 31  1  0  0  0  0
 31 34  2  0  0  0  0
 33 34  1  0  0  0  0
 34 32  1  0  0  0  0
 35 33  2  0  0  0  0
 37 36  1  0  0  0  0
M  END
>  <MODEL>
7

>  <REMARK>
 VINA RESULT:      -6.4      4.950      9.509
  Name = 
  2 active torsions:
  status: ('A' for Active; 'I' for Inactive)
    1  A    between atoms: C_5  and  C_23
    2  A    between atoms: C_6  and  C_31
                            x       y       z     vdW  Elec       q    Type
                         _______ _______ _______ _____ _____    ______ ____

>  <TORSDO>
F 2

$$$$
=
 OpenBabel10262422493D

 37 43  0  0  1  0  0  0  0  0999 V2000
  187.8620  178.0250  140.3640 C   0  0  1  0  0  0  0  0  0  0  0  0
  188.6270  177.8980  143.8550 C   0  0  0  0  0  0  0  0  0  0  0  0
  184.9450  178.3240  143.6260 C   0  0  1  0  0  3  0  0  0  0  0  0
  188.3630  177.7000  138.9430 C   0  0  1  0  0  3  0  0  0  0  0  0
  183.6860  177.3980  140.3490 C   0  0  0  0  0  2  0  0  0  0  0  0
  187.0390  177.9280  145.7570 C   0  0  0  0  0  3  0  0  0  0  0  0
  184.2350  178.6030  142.2860 C   0  0  2  0  0  3  0  0  0  0  0  0
  186.0370  177.9760  138.0700 C   0  0  0  0  0  0  0  0  0  0  0  0
  186.2910  179.0130  143.6500 C   0  0  0  0  0  2  0  0  0  0  0  0
  182.8320  178.0740  142.3930 C   0  0  2  0  0  3  0  0  0  0  0  0
  185.8100  178.1470  146.5490 C   0  0  0  0  0  3  0  0  0  0  0  0
  187.4810  178.2520  137.8220 C   0  0  0  0  0  2  0  0  0  0  0  0
  188.8250  177.5920  141.4800 C   0  0  1  0  0  3  0  0  0  0  0  0
  188.8290  176.3720  143.9050 C   0  0  0  0  0  1  0  0  0  0  0  0
  182.6140  178.7360  144.7180 C   0  0  0  0  0  2  0  0  0  0  0  0
  184.6040  178.5690  146.1510 C   0  0  0  0  0  3  0  0  0  0  0  0
  188.7110  178.4940  142.5610 O   0  0  0  0  0  0  0  0  0  0  0  0
  185.2210  179.0160  138.7660 C   0  0  0  0  0  2  0  0  0  0  0  0
  184.8300  177.9740  141.0910 N   0  0  2  0  0  0  0  0  0  0  0  0
  184.1400  178.9750  144.7800 C   0  0  1  0  0  3  0  0  0  0  0  0
  186.9570  179.2470  140.6450 C   0  0  0  0  0  2  0  0  0  0  0  0
  187.2840  178.2510  144.4760 C   0  0  0  0  0  0  0  0  0  0  0  0
  182.3870  177.8860  140.9710 C   0  0  1  0  0  3  0  0  0  0  0  0
  189.7330  178.5120  144.6980 C   0  0  0  0  0  1  0  0  0  0  0  0
  185.4700  179.0480  140.2940 C   0  0  1  0  0  3  0  0  0  0  0  0
  185.5480  176.9020  137.7620 O   0  0  0  0  0  0  0  0  0  0  0  0
  187.5410  176.8090  141.2020 C   0  0  0  0  0  2  0  0  0  0  0  0
  182.0270  178.9480  143.3240 C   0  0  0  0  0  2  0  0  0  0  0  0
  182.4660  179.5940  139.0730 C   0  0  0  0  0  3  0  0  0  0  0  0
  181.8940  179.1320  140.2720 C   0  0  0  0  0  0  0  0  0  0  0  0
  180.7650  179.7840  140.7810 C   0  0  0  0  0  3  0  0  0  0  0  0
  179.1350  181.5180  140.6110 F   0  0  0  0  0  0  0  0  0  0  0  0
  180.8050  181.3430  138.9250 C   0  0  0  0  0  3  0  0  0  0  0  0
  180.2240  180.8870  140.1100 C   0  0  0  0  0  0  0  0  0  0  0  0
  181.9290  180.6970  138.4060 C   0  0  0  0  0  3  0  0  0  0  0  0
  190.6320  177.0550  138.4540 O   0  0  0  0  0  1  0  0  0  0  0  0
  189.8050  178.1520  138.7190 C   0  0  0  0  0  2  0  0  0  0  0  0
  1 21  1  1  0  0  0
  1 27  1  0  0  0  0
  1 13  1  0  0  0  0
  2 14  1  0  0  0  0
  2 22  1  0  0  0  0
  2 24  1  0  0  0  0
  3  9  1  6  0  0  0
  3 20  1  0  0  0  0
  4 37  1  6  0  0  0
  4  1  1  0  0  0  0
  5 23  1  0  0  0  0
  5 19  1  0  0  0  0
  6 11  1  0  0  0  0
  7 10  1  0  0  0  0
  7  3  1  0  0  0  0
  8 18  1  0  0  0  0
  9 22  1  0  0  0  0
 10 28  1  0  0  0  0
 12  8  1  0  0  0  0
 12  4  1  0  0  0  0
 13 17  1  0  0  0  0
 15 20  1  0  0  0  0
 16 11  2  0  0  0  0
 17  2  1  0  0  0  0
 18 25  1  0  0  0  0
 19  7  1  0  0  0  0
 20 16  1  0  0  0  0
 22  6  2  0  0  0  0
 23 10  1  0  0  0  0
 25 21  1  0  0  0  0
 25 19  1  0  0  0  0
 26  8  2  0  0  0  0
 27 13  1  0  0  0  0
 28 15  1  0  0  0  0
 29 30  1  0  0  0  0
 30 31  2  0  0  0  0
 30 23  1  0  0  0  0
 33 34  2  0  0  0  0
 34 32  1  0  0  0  0
 34 31  1  0  0  0  0
 35 33  1  0  0  0  0
 35 29  2  0  0  0  0
 36 37  1  0  0  0  0
M  END
>  <MODEL>
8

>  <REMARK>
 VINA RESULT:      -6.2      2.657      5.797
  Name = 
  2 active torsions:
  status: ('A' for Active; 'I' for Inactive)
    1  A    between atoms: C_5  and  C_23
    2  A    between atoms: C_6  and  C_31
                            x       y       z     vdW  Elec       q    Type
                         _______ _______ _______ _____ _____    ______ ____

>  <TORSDO>
F 2

$$$$
=
 OpenBabel10262422493D

 37 43  0  0  1  0  0  0  0  0999 V2000
  181.0350  177.2730  138.5720 C   0  0  1  0  0  0  0  0  0  0  0  0
  180.7960  178.5160  141.9170 C   0  0  0  0  0  0  0  0  0  0  0  0
  184.4110  178.5410  141.0690 C   0  0  1  0  0  3  0  0  0  0  0  0
  180.2700  177.0060  137.2610 C   0  0  1  0  0  3  0  0  0  0  0  0
  184.9510  178.4160  137.4800 C   0  0  0  0  0  2  0  0  0  0  0  0
  182.6270  179.3730  143.3500 C   0  0  0  0  0  3  0  0  0  0  0  0
  184.9520  177.9080  139.7710 C   0  0  2  0  0  3  0  0  0  0  0  0
  182.4460  176.7590  136.0550 C   0  0  0  0  0  0  0  0  0  0  0  0
  183.2490  177.7290  141.5950 C   0  0  0  0  0  2  0  0  0  0  0  0
  186.2210  178.6250  139.4060 C   0  0  2  0  0  3  0  0  0  0  0  0
  183.9790  179.6160  143.8940 C   0  0  0  0  0  3  0  0  0  0  0  0
  181.0650  176.2200  136.2160 C   0  0  0  0  0  2  0  0  0  0  0  0
  180.1850  177.9370  139.6660 C   0  0  1  0  0  3  0  0  0  0  0  0
  180.3030  179.9190  141.5170 C   0  0  0  0  0  1  0  0  0  0  0  0
  186.9150  178.8610  141.7200 C   0  0  0  0  0  2  0  0  0  0  0  0
  185.1710  179.2490  143.4080 C   0  0  0  0  0  3  0  0  0  0  0  0
  180.6380  177.4970  140.9300 O   0  0  0  0  0  0  0  0  0  0  0  0
  183.5480  176.1520  136.8590 C   0  0  0  0  0  2  0  0  0  0  0  0
  184.0700  177.9890  138.5910 N   0  0  2  0  0  0  0  0  0  0  0  0
  185.4950  178.4540  142.1740 C   0  0  1  0  0  3  0  0  0  0  0  0
  182.1980  176.3640  139.0340 C   0  0  0  0  0  2  0  0  0  0  0  0
  182.2610  178.5900  142.3210 C   0  0  0  0  0  0  0  0  0  0  0  0
  186.4000  178.3600  137.9380 C   0  0  1  0  0  3  0  0  0  0  0  0
  179.9740  178.0930  143.1250 C   0  0  0  0  0  1  0  0  0  0  0  0
  183.5440  176.6260  138.3330 C   0  0  1  0  0  3  0  0  0  0  0  0
  182.6590  177.7120  135.3230 O   0  0  0  0  0  0  0  0  0  0  0  0
  181.2300  178.7380  138.8900 C   0  0  0  0  0  2  0  0  0  0  0  0
  187.3150  178.2540  140.3770 C   0  0  0  0  0  2  0  0  0  0  0  0
  186.3870  176.1080  136.7330 C   0  0  0  0  0  3  0  0  0  0  0  0
  187.0200  177.0260  137.5890 C   0  0  0  0  0  0  0  0  0  0  0  0
  188.3120  176.7470  138.0490 C   0  0  0  0  0  3  0  0  0  0  0  0
  190.2030  175.2940  138.1240 F   0  0  0  0  0  0  0  0  0  0  0  0
  188.3140  174.6530  136.8270 C   0  0  0  0  0  3  0  0  0  0  0  0
  188.9560  175.5630  137.6700 C   0  0  0  0  0  0  0  0  0  0  0  0
  187.0270  174.9240  136.3580 C   0  0  0  0  0  3  0  0  0  0  0  0
  179.1170  174.9510  137.7600 O   0  0  0  0  0  1  0  0  0  0  0  0
  178.9310  176.3130  137.5020 C   0  0  0  0  0  2  0  0  0  0  0  0
  1 27  1  6  0  0  0
  1 21  1  0  0  0  0
  1 13  1  0  0  0  0
  2 22  1  0  0  0  0
  2 24  1  0  0  0  0
  3  9  1  1  0  0  0
  3 20  1  0  0  0  0
  4 37  1  1  0  0  0
  4  1  1  0  0  0  0
  5 23  1  0  0  0  0
  5 19  1  0  0  0  0
  6 11  1  0  0  0  0
  7  3  1  0  0  0  0
  8 12  1  0  0  0  0
  8 18  1  0  0  0  0
  9 22  1  0  0  0  0
 10  7  1  0  0  0  0
 10 28  1  0  0  0  0
 12  4  1  0  0  0  0
 13 17  1  0  0  0  0
 14  2  1  0  0  0  0
 15 20  1  0  0  0  0
 16 11  2  0  0  0  0
 17  2  1  0  0  0  0
 18 25  1  0  0  0  0
 19  7  1  0  0  0  0
 20 16  1  0  0  0  0
 22  6  2  0  0  0  0
 23 10  1  0  0  0  0
 25 19  1  0  0  0  0
 25 21  1  0  0  0  0
 26  8  2  0  0  0  0
 27 13  1  0  0  0  0
 28 15  1  0  0  0  0
 29 30  1  0  0  0  0
 30 23  1  0  0  0  0
 30 31  2  0  0  0  0
 33 34  2  0  0  0  0
 34 31  1  0  0  0  0
 34 32  1  0  0  0  0
 35 29  2  0  0  0  0
 35 33  1  0  0  0  0
 37 36  1  0  0  0  0
M  END
>  <MODEL>
9

>  <REMARK>
 VINA RESULT:      -5.8      4.223      8.413
  Name = 
  2 active torsions:
  status: ('A' for Active; 'I' for Inactive)
    1  A    between atoms: C_5  and  C_23
    2  A    between atoms: C_6  and  C_31
                            x       y       z     vdW  Elec       q    Type
                         _______ _______ _______ _____ _____    ______ ____

>  <TORSDO>
F 2

$$$$
