=
 OpenBabel10262421253D

 32 35  0  0  1  0  0  0  0  0999 V2000
  187.7760  177.8700  143.0940 C   0  0  0  0  0  0  0  0  0  0  0  0
  183.1040  179.3110  143.6080 C   0  0  0  0  0  3  0  0  0  0  0  0
  183.1340  178.9440  144.9560 C   0  0  0  0  0  3  0  0  0  0  0  0
  188.8880  177.9590  140.9230 C   0  0  0  0  0  0  0  0  0  0  0  0
  186.5360  178.5130  141.1080 C   0  0  0  0  0  3  0  0  0  0  0  0
  187.6180  178.5810  138.9610 O   0  0  0  0  0  1  0  0  0  0  0  0
  184.2190  179.0870  142.7980 C   0  0  0  0  0  3  0  0  0  0  0  0
  186.5730  178.2780  142.4890 C   0  0  0  0  0  0  0  0  0  0  0  0
  185.3750  178.4920  143.3280 C   0  0  0  0  0  0  0  0  0  0  0  0
  186.5820  177.4160  145.2800 C   0  0  0  0  0  2  0  0  0  0  0  0
  187.6820  178.3480  140.3280 C   0  0  0  0  0  0  0  0  0  0  0  0
  184.2780  178.3490  145.4920 C   0  0  0  0  0  3  0  0  0  0  0  0
  185.4030  178.1310  144.6890 C   0  0  0  0  0  0  0  0  0  0  0  0
  188.9280  177.7220  142.3050 C   0  0  0  0  0  3  0  0  0  0  0  0
  187.8180  177.6360  144.5170 N   0  0  0  0  0  0  0  0  0  0  0  0
  189.1000  177.4630  145.1990 C   0  0  2  0  0  3  0  0  0  0  0  0
  189.9410  176.3940  144.4980 C   0  0  0  0  0  2  0  0  0  0  0  0
  189.8410  176.2670  147.4020 C   0  0  0  0  0  3  0  0  0  0  0  0
  191.1580  176.2040  147.1630 C   0  0  0  0  0  3  0  0  0  0  0  0
  191.8280  177.0440  146.1200 C   0  0  0  0  0  2  0  0  0  0  0  0
  191.4430  176.6180  144.7000 C   0  0  0  0  0  2  0  0  0  0  0  0
  188.8690  177.1970  146.7030 C   0  0  1  0  0  3  0  0  0  0  0  0
  188.6890  178.5000  147.4710 C   0  0  0  0  0  2  0  0  0  0  0  0
  188.4040  178.2490  148.8150 O   0  0  0  0  0  1  0  0  0  0  0  0
  190.0260  177.8120  140.1210 O   0  0  0  0  0  0  0  0  0  0  0  0
  190.6240  176.5530  139.8280 C   0  0  0  0  0  2  0  0  0  0  0  0
  193.0770  176.5530  137.9420 C   0  0  0  0  0  0  0  0  0  0  0  0
  189.4550  175.9630  137.8420 O   0  0  0  0  0  0  0  0  0  0  0  0
  191.7360  176.2510  137.5380 N   0  0  0  0  0  2  0  0  0  0  0  0
  193.3760  176.9860  139.2650 N   0  0  0  0  0  1  0  0  0  0  0  0
  194.0100  176.4370  137.1070 O   0  0  0  0  0  0  0  0  0  0  0  0
  190.5630  176.2630  138.3610 C   0  0  0  0  0  0  0  0  0  0  0  0
  1 15  1  0  0  0  0
  2  3  1  0  0  0  0
  3 12  2  0  0  0  0
  4 14  1  0  0  0  0
  5  8  2  0  0  0  0
  6 11  1  0  0  0  0
  7  9  1  0  0  0  0
  7  2  2  0  0  0  0
  8  1  1  0  0  0  0
  8  9  1  0  0  0  0
  9 13  2  0  0  0  0
 11  4  2  0  0  0  0
 11  5  1  0  0  0  0
 13 10  1  0  0  0  0
 13 12  1  0  0  0  0
 14  1  2  0  0  0  0
 15 16  1  0  0  0  0
 15 10  1  0  0  0  0
 16 17  1  6  0  0  0
 16 22  1  0  0  0  0
 17 21  1  0  0  0  0
 19 18  2  0  0  0  0
 20 19  1  0  0  0  0
 21 20  1  0  0  0  0
 22 18  1  0  0  0  0
 22 23  1  1  0  0  0
 23 24  1  0  0  0  0
 25  4  1  0  0  0  0
 26 25  1  0  0  0  0
 27 30  1  0  0  0  0
 28 32  2  0  0  0  0
 29 27  1  0  0  0  0
 29 32  1  0  0  0  0
 31 27  2  0  0  0  0
 32 26  1  0  0  0  0
M  END
>  <MODEL>
1

>  <REMARK>
 VINA RESULT:     -10.2      0.000      0.000
  Name = 
  5 active torsions:
  status: ('A' for Active; 'I' for Inactive)
    1  A    between atoms: C_6  and  N_31
    2  A    between atoms: C_8  and  O_23
    3  A    between atoms: C_19  and  O_23
    4  A    between atoms: C_19  and  C_24
    5  A    between atoms: C_27  and  C_32
                            x       y       z     vdW  Elec       q    Type
                         _______ _______ _______ _____ _____    ______ ____

>  <TORSDO>
F 5

$$$$
=
 OpenBabel10262421253D

 32 35  0  0  1  0  0  0  0  0999 V2000
  186.8350  178.2260  142.0550 C   0  0  0  0  0  0  0  0  0  0  0  0
  184.2930  178.7460  146.2310 C   0  0  0  0  0  3  0  0  0  0  0  0
  185.3700  178.2320  146.9560 C   0  0  0  0  0  3  0  0  0  0  0  0
  185.8320  178.7690  139.8960 C   0  0  0  0  0  0  0  0  0  0  0  0
  184.4980  178.8730  141.9160 C   0  0  0  0  0  3  0  0  0  0  0  0
  183.4960  179.3870  139.7910 O   0  0  0  0  0  1  0  0  0  0  0  0
  184.3610  178.8210  144.8380 C   0  0  0  0  0  3  0  0  0  0  0  0
  185.6040  178.4840  142.6860 C   0  0  0  0  0  0  0  0  0  0  0  0
  185.5070  178.3810  144.1570 C   0  0  0  0  0  0  0  0  0  0  0  0
  187.8030  177.3100  144.2060 C   0  0  0  0  0  2  0  0  0  0  0  0
  184.6080  179.0070  140.5320 C   0  0  0  0  0  0  0  0  0  0  0  0
  186.5140  177.7880  146.2870 C   0  0  0  0  0  3  0  0  0  0  0  0
  186.5930  177.8710  144.8930 C   0  0  0  0  0  0  0  0  0  0  0  0
  186.9410  178.3790  140.6630 C   0  0  0  0  0  3  0  0  0  0  0  0
  187.9750  177.8340  142.8450 N   0  0  0  0  0  0  0  0  0  0  0  0
  189.3120  177.8100  142.2510 C   0  0  2  0  0  3  0  0  0  0  0  0
  189.4440  176.6410  141.2730 C   0  0  0  0  0  2  0  0  0  0  0  0
  191.6670  177.0590  143.1020 C   0  0  0  0  0  3  0  0  0  0  0  0
  192.2890  176.9710  141.9180 C   0  0  0  0  0  3  0  0  0  0  0  0
  191.7500  177.6110  140.6760 C   0  0  0  0  0  2  0  0  0  0  0  0
  190.4770  176.9210  140.1760 C   0  0  0  0  0  2  0  0  0  0  0  0
  190.3860  177.8280  143.3610 C   0  0  1  0  0  3  0  0  0  0  0  0
  190.6700  179.2490  143.8300 C   0  0  0  0  0  2  0  0  0  0  0  0
  191.9890  179.3710  144.2720 O   0  0  0  0  0  1  0  0  0  0  0  0
  185.9200  178.9240  138.5070 O   0  0  0  0  0  0  0  0  0  0  0  0
  186.4540  177.9290  137.6390 C   0  0  0  0  0  2  0  0  0  0  0  0
  188.5990  175.8750  136.7700 C   0  0  0  0  0  0  0  0  0  0  0  0
  188.1770  179.5010  137.1610 O   0  0  0  0  0  0  0  0  0  0  0  0
  188.7900  177.2950  136.7940 N   0  0  0  0  0  2  0  0  0  0  0  0
  187.4010  175.2770  137.2540 N   0  0  0  0  0  1  0  0  0  0  0  0
  189.5130  175.1400  136.3150 O   0  0  0  0  0  0  0  0  0  0  0  0
  187.8440  178.2870  137.2110 C   0  0  0  0  0  0  0  0  0  0  0  0
  1  8  1  0  0  0  0
  1 15  1  0  0  0  0
  2  3  1  0  0  0  0
  4 11  2  0  0  0  0
  4 14  1  0  0  0  0
  5  8  2  0  0  0  0
  6 11  1  0  0  0  0
  7  2  2  0  0  0  0
  8  9  1  0  0  0  0
  9  7  1  0  0  0  0
  9 13  2  0  0  0  0
 10 13  1  0  0  0  0
 11  5  1  0  0  0  0
 12  3  2  0  0  0  0
 13 12  1  0  0  0  0
 14  1  2  0  0  0  0
 15 10  1  0  0  0  0
 16 17  1  1  0  0  0
 16 15  1  0  0  0  0
 16 22  1  0  0  0  0
 18 22  1  0  0  0  0
 19 18  2  0  0  0  0
 20 19  1  0  0  0  0
 21 20  1  0  0  0  0
 21 17  1  0  0  0  0
 22 23  1  6  0  0  0
 23 24  1  0  0  0  0
 25  4  1  0  0  0  0
 26 25  1  0  0  0  0
 27 29  1  0  0  0  0
 27 30  1  0  0  0  0
 28 32  2  0  0  0  0
 29 32  1  0  0  0  0
 31 27  2  0  0  0  0
 32 26  1  0  0  0  0
M  END
>  <MODEL>
2

>  <REMARK>
 VINA RESULT:      -9.9      2.555      3.747
  Name = 
  5 active torsions:
  status: ('A' for Active; 'I' for Inactive)
    1  A    between atoms: C_6  and  N_31
    2  A    between atoms: C_8  and  O_23
    3  A    between atoms: C_19  and  O_23
    4  A    between atoms: C_19  and  C_24
    5  A    between atoms: C_27  and  C_32
                            x       y       z     vdW  Elec       q    Type
                         _______ _______ _______ _____ _____    ______ ____

>  <TORSDO>
F 5

$$$$
=
 OpenBabel10262421253D

 32 35  0  0  1  0  0  0  0  0999 V2000
  187.0700  178.0530  143.9070 C   0  0  0  0  0  0  0  0  0  0  0  0
  187.4500  178.2040  148.8060 C   0  0  0  0  0  3  0  0  0  0  0  0
  188.7710  177.7580  148.7220 C   0  0  0  0  0  3  0  0  0  0  0  0
  184.9640  178.5850  142.7920 C   0  0  0  0  0  0  0  0  0  0  0  0
  185.0710  178.5020  145.2110 C   0  0  0  0  0  3  0  0  0  0  0  0
  182.9870  179.0050  144.1200 O   0  0  0  0  0  1  0  0  0  0  0  0
  186.6820  178.3340  147.6470 C   0  0  0  0  0  3  0  0  0  0  0  0
  186.4350  178.1830  145.1560 C   0  0  0  0  0  0  0  0  0  0  0  0
  187.2270  178.0190  146.3930 C   0  0  0  0  0  0  0  0  0  0  0  0
  189.1610  177.1470  145.0060 C   0  0  0  0  0  2  0  0  0  0  0  0
  184.3380  178.6950  144.0390 C   0  0  0  0  0  0  0  0  0  0  0  0
  189.3220  177.4380  147.4780 C   0  0  0  0  0  3  0  0  0  0  0  0
  188.5620  177.5770  146.3120 C   0  0  0  0  0  0  0  0  0  0  0  0
  186.3290  178.2640  142.7330 C   0  0  0  0  0  3  0  0  0  0  0  0
  188.4740  177.7320  143.8480 N   0  0  0  0  0  0  0  0  0  0  0  0
  189.2050  177.8440  142.5850 C   0  0  2  0  0  3  0  0  0  0  0  0
  188.7600  176.7530  141.6090 C   0  0  0  0  0  2  0  0  0  0  0  0
  191.6240  177.2130  141.8220 C   0  0  0  0  0  3  0  0  0  0  0  0
  191.4310  177.2470  140.4960 C   0  0  0  0  0  3  0  0  0  0  0  0
  190.2500  177.9240  139.8710 C   0  0  0  0  0  2  0  0  0  0  0  0
  188.9420  177.1760  140.1480 C   0  0  0  0  0  2  0  0  0  0  0  0
  190.7250  177.8680  142.8530 C   0  0  1  0  0  3  0  0  0  0  0  0
  191.2010  179.2730  143.1990 C   0  0  0  0  0  2  0  0  0  0  0  0
  192.0060  179.2580  144.3400 O   0  0  0  0  0  1  0  0  0  0  0  0
  184.2100  178.7960  141.6310 O   0  0  0  0  0  0  0  0  0  0  0  0
  184.7070  178.5580  140.3170 C   0  0  0  0  0  2  0  0  0  0  0  0
  182.1660  177.5240  138.8880 C   0  0  0  0  0  0  0  0  0  0  0  0
  184.2950  180.5110  139.0210 O   0  0  0  0  0  0  0  0  0  0  0  0
  182.7430  178.8200  138.6900 N   0  0  0  0  0  2  0  0  0  0  0  0
  182.7950  176.5450  139.7090 N   0  0  0  0  0  1  0  0  0  0  0  0
  181.0810  177.2420  138.3170 O   0  0  0  0  0  0  0  0  0  0  0  0
  183.9300  179.3390  139.3030 C   0  0  0  0  0  0  0  0  0  0  0  0
  1  8  1  0  0  0  0
  3  2  1  0  0  0  0
  4 11  2  0  0  0  0
  7  2  2  0  0  0  0
  8  5  2  0  0  0  0
  8  9  1  0  0  0  0
  9  7  1  0  0  0  0
 10 13  1  0  0  0  0
 11  6  1  0  0  0  0
 11  5  1  0  0  0  0
 12  3  2  0  0  0  0
 13  9  2  0  0  0  0
 13 12  1  0  0  0  0
 14  4  1  0  0  0  0
 14  1  2  0  0  0  0
 15  1  1  0  0  0  0
 15 10  1  0  0  0  0
 16 17  1  6  0  0  0
 16 22  1  0  0  0  0
 16 15  1  0  0  0  0
 18 22  1  0  0  0  0
 19 18  2  0  0  0  0
 20 21  1  0  0  0  0
 20 19  1  0  0  0  0
 21 17  1  0  0  0  0
 22 23  1  6  0  0  0
 23 24  1  0  0  0  0
 25  4  1  0  0  0  0
 26 25  1  0  0  0  0
 27 30  1  0  0  0  0
 28 32  2  0  0  0  0
 29 27  1  0  0  0  0
 29 32  1  0  0  0  0
 31 27  2  0  0  0  0
 32 26  1  0  0  0  0
M  END
>  <MODEL>
3

>  <REMARK>
 VINA RESULT:      -9.7      3.265      6.204
  Name = 
  5 active torsions:
  status: ('A' for Active; 'I' for Inactive)
    1  A    between atoms: C_6  and  N_31
    2  A    between atoms: C_8  and  O_23
    3  A    between atoms: C_19  and  O_23
    4  A    between atoms: C_19  and  C_24
    5  A    between atoms: C_27  and  C_32
                            x       y       z     vdW  Elec       q    Type
                         _______ _______ _______ _____ _____    ______ ____

>  <TORSDO>
F 5

$$$$
=
 OpenBabel10262421253D

 32 35  0  0  1  0  0  0  0  0999 V2000
  189.0490  177.8410  140.3070 C   0  0  0  0  0  0  0  0  0  0  0  0
  190.9590  175.9390  136.1950 C   0  0  0  0  0  3  0  0  0  0  0  0
  192.1960  175.8000  136.8290 C   0  0  0  0  0  3  0  0  0  0  0  0
  186.7380  178.6260  140.3750 C   0  0  0  0  0  0  0  0  0  0  0  0
  187.6990  177.8540  138.2890 C   0  0  0  0  0  3  0  0  0  0  0  0
  185.4290  178.6470  138.3410 O   0  0  0  0  0  1  0  0  0  0  0  0
  189.8890  176.5280  136.8730 C   0  0  0  0  0  3  0  0  0  0  0  0
  188.9150  177.5810  138.9310 C   0  0  0  0  0  0  0  0  0  0  0  0
  190.0480  176.9850  138.1910 C   0  0  0  0  0  0  0  0  0  0  0  0
  191.5370  177.3840  140.2030 C   0  0  0  0  0  2  0  0  0  0  0  0
  186.6210  178.3790  139.0020 C   0  0  0  0  0  0  0  0  0  0  0  0
  192.3650  176.2550  138.1390 C   0  0  0  0  0  3  0  0  0  0  0  0
  191.2950  176.8350  138.8280 C   0  0  0  0  0  0  0  0  0  0  0  0
  187.9550  178.3540  141.0210 C   0  0  0  0  0  3  0  0  0  0  0  0
  190.2970  177.5530  140.9710 N   0  0  0  0  0  0  0  0  0  0  0  0
  190.3770  177.5740  142.4320 C   0  0  2  0  0  3  0  0  0  0  0  0
  191.5180  178.4820  142.8940 C   0  0  0  0  0  2  0  0  0  0  0  0
  191.2890  175.9070  144.2270 C   0  0  0  0  0  3  0  0  0  0  0  0
  191.3730  176.7530  145.2630 C   0  0  0  0  0  3  0  0  0  0  0  0
  190.6620  178.0710  145.2840 C   0  0  0  0  0  2  0  0  0  0  0  0
  191.2610  179.0670  144.2860 C   0  0  0  0  0  2  0  0  0  0  0  0
  190.4580  176.1320  142.9790 C   0  0  1  0  0  3  0  0  0  0  0  0
  189.0720  175.5140  143.1100 C   0  0  0  0  0  2  0  0  0  0  0  0
  188.1800  176.4140  143.6990 O   0  0  0  0  0  1  0  0  0  0  0  0
  185.6380  179.1410  141.0710 O   0  0  0  0  0  0  0  0  0  0  0  0
  185.5330  179.1320  142.4910 C   0  0  0  0  0  2  0  0  0  0  0  0
  184.6620  178.7250  145.4320 C   0  0  0  0  0  0  0  0  0  0  0  0
  183.2420  178.6640  142.0470 O   0  0  0  0  0  0  0  0  0  0  0  0
  183.7890  178.6250  144.3010 N   0  0  0  0  0  2  0  0  0  0  0  0
  186.0630  178.9270  145.2760 N   0  0  0  0  0  1  0  0  0  0  0  0
  184.1810  178.6250  146.5900 O   0  0  0  0  0  0  0  0  0  0  0  0
  184.1430  178.7770  142.9210 C   0  0  0  0  0  0  0  0  0  0  0  0
  1 15  1  0  0  0  0
  1 14  1  0  0  0  0
  2  3  2  0  0  0  0
  2  7  1  0  0  0  0
  3 12  1  0  0  0  0
  4 14  2  0  0  0  0
  4 25  1  0  0  0  0
  5  8  1  0  0  0  0
  5 11  2  0  0  0  0
  6 11  1  0  0  0  0
  7  9  2  0  0  0  0
  8  1  2  0  0  0  0
  9 13  1  0  0  0  0
  9  8  1  0  0  0  0
 10 15  1  0  0  0  0
 11  4  1  0  0  0  0
 12 13  2  0  0  0  0
 13 10  1  0  0  0  0
 16 15  1  6  0  0  0
 16 17  1  0  0  0  0
 16 22  1  0  0  0  0
 17 21  1  0  0  0  0
 18 19  2  0  0  0  0
 19 20  1  0  0  0  0
 21 20  1  0  0  0  0
 22 23  1  1  0  0  0
 22 18  1  0  0  0  0
 23 24  1  0  0  0  0
 25 26  1  0  0  0  0
 26 32  1  0  0  0  0
 27 31  2  0  0  0  0
 28 32  2  0  0  0  0
 29 27  1  0  0  0  0
 30 27  1  0  0  0  0
 32 29  1  0  0  0  0
M  END
>  <MODEL>
4

>  <REMARK>
 VINA RESULT:      -9.6      2.734      7.009
  Name = 
  5 active torsions:
  status: ('A' for Active; 'I' for Inactive)
    1  A    between atoms: C_6  and  N_31
    2  A    between atoms: C_8  and  O_23
    3  A    between atoms: C_19  and  O_23
    4  A    between atoms: C_19  and  C_24
    5  A    between atoms: C_27  and  C_32
                            x       y       z     vdW  Elec       q    Type
                         _______ _______ _______ _____ _____    ______ ____

>  <TORSDO>
F 5

$$$$
=
 OpenBabel10262421253D

 32 35  0  0  1  0  0  0  0  0999 V2000
  188.1870  177.5990  143.1000 C   0  0  0  0  0  0  0  0  0  0  0  0
  190.5570  176.8590  147.3430 C   0  0  0  0  0  3  0  0  0  0  0  0
  191.6800  176.4130  146.6430 C   0  0  0  0  0  3  0  0  0  0  0  0
  185.8670  178.3590  143.0710 C   0  0  0  0  0  0  0  0  0  0  0  0
  186.9500  177.8400  145.1760 C   0  0  0  0  0  3  0  0  0  0  0  0
  184.6570  178.5660  145.1550 O   0  0  0  0  0  1  0  0  0  0  0  0
  189.3960  177.2090  146.6510 C   0  0  0  0  0  3  0  0  0  0  0  0
  188.1350  177.5120  144.5030 C   0  0  0  0  0  0  0  0  0  0  0  0
  189.3470  177.1150  145.2510 C   0  0  0  0  0  0  0  0  0  0  0  0
  190.4540  176.4740  143.0630 C   0  0  0  0  0  2  0  0  0  0  0  0
  185.8210  178.2530  144.4660 C   0  0  0  0  0  0  0  0  0  0  0  0
  191.6400  176.3130  145.2500 C   0  0  0  0  0  3  0  0  0  0  0  0
  190.4850  176.6720  144.5490 C   0  0  0  0  0  0  0  0  0  0  0  0
  187.0520  178.0310  142.3950 C   0  0  0  0  0  3  0  0  0  0  0  0
  189.4080  177.2710  142.4070 N   0  0  0  0  0  0  0  0  0  0  0  0
  189.5630  177.5950  140.9890 C   0  0  2  0  0  3  0  0  0  0  0  0
  188.2510  177.3580  140.2380 C   0  0  0  0  0  2  0  0  0  0  0  0
  190.6740  176.3840  138.9570 C   0  0  0  0  0  3  0  0  0  0  0  0
  190.0910  177.0760  137.9680 C   0  0  0  0  0  3  0  0  0  0  0  0
  189.4210  178.3950  138.1960 C   0  0  0  0  0  2  0  0  0  0  0  0
  188.1250  178.2530  139.0010 C   0  0  0  0  0  2  0  0  0  0  0  0
  190.7730  176.8370  140.4010 C   0  0  1  0  0  3  0  0  0  0  0  0
  192.0730  177.5840  140.6660 C   0  0  0  0  0  2  0  0  0  0  0  0
  193.0890  177.1280  139.8230 O   0  0  0  0  0  1  0  0  0  0  0  0
  184.7260  178.7890  142.3830 O   0  0  0  0  0  0  0  0  0  0  0  0
  184.0940  178.0280  141.3580 C   0  0  0  0  0  2  0  0  0  0  0  0
  182.8300  177.0000  138.7270 C   0  0  0  0  0  0  0  0  0  0  0  0
  184.9310  179.7530  139.9470 O   0  0  0  0  0  0  0  0  0  0  0  0
  183.6320  178.1820  138.8400 N   0  0  0  0  0  2  0  0  0  0  0  0
  182.6300  176.1270  139.8340 N   0  0  0  0  0  1  0  0  0  0  0  0
  182.2950  176.7250  137.6220 O   0  0  0  0  0  0  0  0  0  0  0  0
  184.2620  178.6880  140.0240 C   0  0  0  0  0  0  0  0  0  0  0  0
  1  8  1  0  0  0  0
  3  2  2  0  0  0  0
  4 11  2  0  0  0  0
  7  2  1  0  0  0  0
  8  5  2  0  0  0  0
  8  9  1  0  0  0  0
  9  7  2  0  0  0  0
 10 13  1  0  0  0  0
 11  6  1  0  0  0  0
 11  5  1  0  0  0  0
 12  3  1  0  0  0  0
 13 12  2  0  0  0  0
 13  9  1  0  0  0  0
 14  4  1  0  0  0  0
 14  1  2  0  0  0  0
 15 10  1  0  0  0  0
 15  1  1  0  0  0  0
 16 17  1  6  0  0  0
 16 15  1  0  0  0  0
 18 22  1  0  0  0  0
 19 20  1  0  0  0  0
 19 18  2  0  0  0  0
 20 21  1  0  0  0  0
 21 17  1  0  0  0  0
 22 23  1  6  0  0  0
 22 16  1  0  0  0  0
 24 23  1  0  0  0  0
 25  4  1  0  0  0  0
 26 25  1  0  0  0  0
 27 29  1  0  0  0  0
 27 30  1  0  0  0  0
 28 32  2  0  0  0  0
 29 32  1  0  0  0  0
 31 27  2  0  0  0  0
 32 26  1  0  0  0  0
M  END
>  <MODEL>
5

>  <REMARK>
 VINA RESULT:      -9.5      2.863      7.003
  Name = 
  5 active torsions:
  status: ('A' for Active; 'I' for Inactive)
    1  A    between atoms: C_6  and  N_31
    2  A    between atoms: C_8  and  O_23
    3  A    between atoms: C_19  and  O_23
    4  A    between atoms: C_19  and  C_24
    5  A    between atoms: C_27  and  C_32
                            x       y       z     vdW  Elec       q    Type
                         _______ _______ _______ _____ _____    ______ ____

>  <TORSDO>
F 5

$$$$
=
 OpenBabel10262421253D

 32 35  0  0  1  0  0  0  0  0999 V2000
  188.7270  177.4150  142.9930 C   0  0  0  0  0  0  0  0  0  0  0  0
  192.0550  176.0030  146.3250 C   0  0  0  0  0  3  0  0  0  0  0  0
  191.2150  176.4340  147.3540 C   0  0  0  0  0  3  0  0  0  0  0  0
  189.1810  177.2220  140.6020 C   0  0  0  0  0  0  0  0  0  0  0  0
  190.9060  176.6780  142.2140 C   0  0  0  0  0  3  0  0  0  0  0  0
  191.3690  176.5080  139.8600 O   0  0  0  0  0  1  0  0  0  0  0  0
  191.6800  176.1880  144.9930 C   0  0  0  0  0  3  0  0  0  0  0  0
  190.0360  176.9790  143.2710 C   0  0  0  0  0  0  0  0  0  0  0  0
  190.4600  176.8060  144.6770 C   0  0  0  0  0  0  0  0  0  0  0  0
  188.3400  177.9730  145.4320 C   0  0  0  0  0  2  0  0  0  0  0  0
  190.4860  176.8060  140.8900 C   0  0  0  0  0  0  0  0  0  0  0  0
  190.0000  177.0540  147.0500 C   0  0  0  0  0  3  0  0  0  0  0  0
  189.6120  177.2320  145.7180 C   0  0  0  0  0  0  0  0  0  0  0  0
  188.3070  177.5250  141.6580 C   0  0  0  0  0  3  0  0  0  0  0  0
  187.8280  177.7170  144.0790 N   0  0  0  0  0  0  0  0  0  0  0  0
  186.4020  177.9210  143.8220 C   0  0  2  0  0  3  0  0  0  0  0  0
  186.1950  178.6350  142.4840 C   0  0  0  0  0  2  0  0  0  0  0  0
  184.6140  179.5990  144.7270 C   0  0  0  0  0  3  0  0  0  0  0  0
  183.6830  179.4310  143.7780 C   0  0  0  0  0  3  0  0  0  0  0  0
  183.6790  178.2530  142.8540 C   0  0  0  0  0  2  0  0  0  0  0  0
  184.8400  178.2980  141.8550 C   0  0  0  0  0  2  0  0  0  0  0  0
  185.7430  178.6320  145.0240 C   0  0  1  0  0  3  0  0  0  0  0  0
  185.3570  177.6350  146.1090 C   0  0  0  0  0  2  0  0  0  0  0  0
  184.5930  178.2530  147.1020 O   0  0  0  0  0  1  0  0  0  0  0  0
  188.7790  177.3290  139.2650 O   0  0  0  0  0  0  0  0  0  0  0  0
  187.7940  178.2530  138.8130 C   0  0  0  0  0  2  0  0  0  0  0  0
  186.5350  177.4520  136.1030 C   0  0  0  0  0  0  0  0  0  0  0  0
  189.0550  179.7500  137.4590 O   0  0  0  0  0  0  0  0  0  0  0  0
  187.5480  178.4510  136.2680 N   0  0  0  0  0  2  0  0  0  0  0  0
  186.0870  176.6560  137.1950 N   0  0  0  0  0  1  0  0  0  0  0  0
  186.0330  177.2700  134.9640 O   0  0  0  0  0  0  0  0  0  0  0  0
  188.1830  178.8420  137.4920 C   0  0  0  0  0  0  0  0  0  0  0  0
  1  8  1  0  0  0  0
  1 15  1  0  0  0  0
  2  3  1  0  0  0  0
  4 11  2  0  0  0  0
  4 14  1  0  0  0  0
  5  8  2  0  0  0  0
  6 11  1  0  0  0  0
  7  2  2  0  0  0  0
  8  9  1  0  0  0  0
  9  7  1  0  0  0  0
  9 13  2  0  0  0  0
 10 13  1  0  0  0  0
 11  5  1  0  0  0  0
 12  3  2  0  0  0  0
 13 12  1  0  0  0  0
 14  1  2  0  0  0  0
 15 10  1  0  0  0  0
 16 17  1  6  0  0  0
 16 15  1  0  0  0  0
 16 22  1  0  0  0  0
 18 22  1  0  0  0  0
 19 18  2  0  0  0  0
 20 19  1  0  0  0  0
 21 17  1  0  0  0  0
 21 20  1  0  0  0  0
 22 23  1  1  0  0  0
 23 24  1  0  0  0  0
 25  4  1  0  0  0  0
 26 25  1  0  0  0  0
 27 29  1  0  0  0  0
 27 30  1  0  0  0  0
 28 32  2  0  0  0  0
 29 32  1  0  0  0  0
 31 27  2  0  0  0  0
 32 26  1  0  0  0  0
M  END
>  <MODEL>
6

>  <REMARK>
 VINA RESULT:      -9.3      2.244      5.534
  Name = 
  5 active torsions:
  status: ('A' for Active; 'I' for Inactive)
    1  A    between atoms: C_6  and  N_31
    2  A    between atoms: C_8  and  O_23
    3  A    between atoms: C_19  and  O_23
    4  A    between atoms: C_19  and  C_24
    5  A    between atoms: C_27  and  C_32
                            x       y       z     vdW  Elec       q    Type
                         _______ _______ _______ _____ _____    ______ ____

>  <TORSDO>
F 5

$$$$
=
 OpenBabel10262421253D

 32 35  0  0  1  0  0  0  0  0999 V2000
  188.6550  177.8810  141.8690 C   0  0  0  0  0  0  0  0  0  0  0  0
  190.6060  176.9410  137.4560 C   0  0  0  0  0  3  0  0  0  0  0  0
  191.8160  176.5910  138.0600 C   0  0  0  0  0  3  0  0  0  0  0  0
  186.3800  178.7420  142.0810 C   0  0  0  0  0  0  0  0  0  0  0  0
  187.3710  178.4520  139.8890 C   0  0  0  0  0  3  0  0  0  0  0  0
  185.1370  179.3220  140.0890 O   0  0  0  0  0  1  0  0  0  0  0  0
  189.5430  177.4010  138.2360 C   0  0  0  0  0  3  0  0  0  0  0  0
  188.5530  177.9700  140.4690 C   0  0  0  0  0  0  0  0  0  0  0  0
  189.6800  177.5150  139.6280 C   0  0  0  0  0  0  0  0  0  0  0  0
  191.1220  177.3390  141.7050 C   0  0  0  0  0  2  0  0  0  0  0  0
  186.2950  178.8420  140.6880 C   0  0  0  0  0  0  0  0  0  0  0  0
  191.9630  176.7050  139.4450 C   0  0  0  0  0  3  0  0  0  0  0  0
  190.8990  177.1530  140.2330 C   0  0  0  0  0  0  0  0  0  0  0  0
  187.5620  178.2610  142.6650 C   0  0  0  0  0  3  0  0  0  0  0  0
  189.8670  177.3780  142.4670 N   0  0  0  0  0  0  0  0  0  0  0  0
  189.9030  177.0400  143.8900 C   0  0  2  0  0  3  0  0  0  0  0  0
  189.5280  178.2550  144.7410 C   0  0  0  0  0  2  0  0  0  0  0  0
  191.8220  176.7050  145.6320 C   0  0  0  0  0  3  0  0  0  0  0  0
  191.0950  176.8010  146.7540 C   0  0  0  0  0  3  0  0  0  0  0  0
  189.6040  176.6620  146.7590 C   0  0  0  0  0  2  0  0  0  0  0  0
  188.9110  177.8500  146.0830 C   0  0  0  0  0  2  0  0  0  0  0  0
  191.2670  176.4130  144.2520 C   0  0  1  0  0  3  0  0  0  0  0  0
  191.2880  174.9220  143.9440 C   0  0  0  0  0  2  0  0  0  0  0  0
  192.4320  174.3210  144.4730 O   0  0  0  0  0  1  0  0  0  0  0  0
  185.2830  179.1270  142.8600 O   0  0  0  0  0  0  0  0  0  0  0  0
  184.2630  178.2250  143.2820 C   0  0  0  0  0  2  0  0  0  0  0  0
  181.3740  178.9690  142.4610 C   0  0  0  0  0  0  0  0  0  0  0  0
  183.6170  179.1890  145.3590 O   0  0  0  0  0  0  0  0  0  0  0  0
  181.9440  179.2120  143.7530 N   0  0  0  0  0  2  0  0  0  0  0  0
  182.1510  178.4400  141.3920 N   0  0  0  0  0  1  0  0  0  0  0  0
  180.1600  179.2350  142.2660 O   0  0  0  0  0  0  0  0  0  0  0  0
  183.2800  178.9140  144.1770 C   0  0  0  0  0  0  0  0  0  0  0  0
  1 15  1  0  0  0  0
  1 14  1  0  0  0  0
  2  3  2  0  0  0  0
  2  7  1  0  0  0  0
  3 12  1  0  0  0  0
  4 14  2  0  0  0  0
  4 25  1  0  0  0  0
  5  8  1  0  0  0  0
  5 11  2  0  0  0  0
  6 11  1  0  0  0  0
  7  9  2  0  0  0  0
  8  1  2  0  0  0  0
  9 13  1  0  0  0  0
  9  8  1  0  0  0  0
 10 15  1  0  0  0  0
 11  4  1  0  0  0  0
 12 13  2  0  0  0  0
 13 10  1  0  0  0  0
 16 15  1  6  0  0  0
 16 22  1  0  0  0  0
 16 17  1  0  0  0  0
 17 21  1  0  0  0  0
 18 19  2  0  0  0  0
 19 20  1  0  0  0  0
 21 20  1  0  0  0  0
 22 23  1  1  0  0  0
 22 18  1  0  0  0  0
 23 24  1  0  0  0  0
 25 26  1  0  0  0  0
 26 32  1  0  0  0  0
 27 29  1  0  0  0  0
 29 32  1  0  0  0  0
 30 27  1  0  0  0  0
 31 27  2  0  0  0  0
 32 28  2  0  0  0  0
M  END
>  <MODEL>
7

>  <REMARK>
 VINA RESULT:      -9.2      2.995      7.092
  Name = 
  5 active torsions:
  status: ('A' for Active; 'I' for Inactive)
    1  A    between atoms: C_6  and  N_31
    2  A    between atoms: C_8  and  O_23
    3  A    between atoms: C_19  and  O_23
    4  A    between atoms: C_19  and  C_24
    5  A    between atoms: C_27  and  C_32
                            x       y       z     vdW  Elec       q    Type
                         _______ _______ _______ _____ _____    ______ ____

>  <TORSDO>
F 5

$$$$
=
 OpenBabel10262421253D

 32 35  0  0  1  0  0  0  0  0999 V2000
  186.9780  178.0250  143.4070 C   0  0  0  0  0  0  0  0  0  0  0  0
  182.1600  178.9200  143.7940 C   0  0  0  0  0  3  0  0  0  0  0  0
  182.0930  179.1780  142.4230 C   0  0  0  0  0  3  0  0  0  0  0  0
  188.3250  177.5110  145.3780 C   0  0  0  0  0  0  0  0  0  0  0  0
  185.9910  178.1150  145.6240 C   0  0  0  0  0  3  0  0  0  0  0  0
  187.3160  177.6330  147.5720 O   0  0  0  0  0  1  0  0  0  0  0  0
  183.3880  178.6280  144.3910 C   0  0  0  0  0  3  0  0  0  0  0  0
  185.8630  178.2520  144.2340 C   0  0  0  0  0  0  0  0  0  0  0  0
  184.5620  178.5910  143.6210 C   0  0  0  0  0  0  0  0  0  0  0  0
  185.7240  178.9000  141.3900 C   0  0  0  0  0  2  0  0  0  0  0  0
  187.2130  177.7550  146.1930 C   0  0  0  0  0  0  0  0  0  0  0  0
  183.2560  179.1470  141.6490 C   0  0  0  0  0  3  0  0  0  0  0  0
  184.4880  178.8430  142.2380 C   0  0  0  0  0  0  0  0  0  0  0  0
  188.2000  177.6480  143.9860 C   0  0  0  0  0  3  0  0  0  0  0  0
  186.8470  178.1570  141.9770 N   0  0  0  0  0  0  0  0  0  0  0  0
  187.9100  177.6830  141.0910 C   0  0  2  0  0  3  0  0  0  0  0  0
  189.2770  177.8420  141.7600 C   0  0  0  0  0  2  0  0  0  0  0  0
  189.0910  178.6700  138.9780 C   0  0  0  0  0  3  0  0  0  0  0  0
  190.1720  177.8780  138.9640 C   0  0  0  0  0  3  0  0  0  0  0  0
  190.2370  176.5910  139.7280 C   0  0  0  0  0  2  0  0  0  0  0  0
  190.2950  176.8200  141.2410 C   0  0  0  0  0  2  0  0  0  0  0  0
  187.7990  178.3720  139.7130 C   0  0  1  0  0  3  0  0  0  0  0  0
  186.7970  177.6550  138.8180 C   0  0  0  0  0  2  0  0  0  0  0  0
  186.1630  178.5570  137.9610 O   0  0  0  0  0  1  0  0  0  0  0  0
  189.5360  177.1380  145.9720 O   0  0  0  0  0  0  0  0  0  0  0  0
  190.8120  177.4730  145.4330 C   0  0  0  0  0  2  0  0  0  0  0  0
  192.3710  175.9840  147.6510 C   0  0  0  0  0  0  0  0  0  0  0  0
  191.6860  175.7420  144.0530 O   0  0  0  0  0  0  0  0  0  0  0  0
  192.3170  175.5780  146.2780 N   0  0  0  0  0  2  0  0  0  0  0  0
  191.7720  177.1980  148.0940 N   0  0  0  0  0  1  0  0  0  0  0  0
  192.9650  175.2530  148.4850 O   0  0  0  0  0  0  0  0  0  0  0  0
  191.6350  176.2430  145.2080 C   0  0  0  0  0  0  0  0  0  0  0  0
  1 14  2  0  0  0  0
  1  8  1  0  0  0  0
  2  7  1  0  0  0  0
  3  2  2  0  0  0  0
  4 25  1  0  0  0  0
  4 11  2  0  0  0  0
  5 11  1  0  0  0  0
  8  5  2  0  0  0  0
  9  8  1  0  0  0  0
  9  7  2  0  0  0  0
 10 15  1  0  0  0  0
 10 13  1  0  0  0  0
 11  6  1  0  0  0  0
 12 13  2  0  0  0  0
 12  3  1  0  0  0  0
 13  9  1  0  0  0  0
 14  4  1  0  0  0  0
 15  1  1  0  0  0  0
 16 17  1  1  0  0  0
 16 15  1  0  0  0  0
 18 22  1  0  0  0  0
 19 18  2  0  0  0  0
 19 20  1  0  0  0  0
 20 21  1  0  0  0  0
 21 17  1  0  0  0  0
 22 23  1  6  0  0  0
 22 16  1  0  0  0  0
 24 23  1  0  0  0  0
 26 25  1  0  0  0  0
 27 30  1  0  0  0  0
 27 31  2  0  0  0  0
 28 32  2  0  0  0  0
 29 27  1  0  0  0  0
 32 26  1  0  0  0  0
 32 29  1  0  0  0  0
M  END
>  <MODEL>
8

>  <REMARK>
 VINA RESULT:      -9.0      2.786      6.255
  Name = 
  5 active torsions:
  status: ('A' for Active; 'I' for Inactive)
    1  A    between atoms: C_6  and  N_31
    2  A    between atoms: C_8  and  O_23
    3  A    between atoms: C_19  and  O_23
    4  A    between atoms: C_19  and  C_24
    5  A    between atoms: C_27  and  C_32
                            x       y       z     vdW  Elec       q    Type
                         _______ _______ _______ _____ _____    ______ ____

>  <TORSDO>
F 5

$$$$
=
 OpenBabel10262421253D

 32 35  0  0  1  0  0  0  0  0999 V2000
  183.9150  178.4070  141.9770 C   0  0  0  0  0  0  0  0  0  0  0  0
  179.5400  179.0670  144.1190 C   0  0  0  0  0  3  0  0  0  0  0  0
  178.9310  179.1350  142.8650 C   0  0  0  0  0  3  0  0  0  0  0  0
  185.9550  178.2390  143.3090 C   0  0  0  0  0  0  0  0  0  0  0  0
  183.8410  178.7350  144.3820 C   0  0  0  0  0  3  0  0  0  0  0  0
  185.8490  178.5940  145.6980 O   0  0  0  0  0  1  0  0  0  0  0  0
  180.9260  178.9280  144.2160 C   0  0  0  0  0  3  0  0  0  0  0  0
  183.1810  178.6770  143.1460 C   0  0  0  0  0  0  0  0  0  0  0  0
  181.7160  178.8560  143.0580 C   0  0  0  0  0  0  0  0  0  0  0  0
  181.9050  178.9310  140.5320 C   0  0  0  0  0  2  0  0  0  0  0  0
  185.2180  178.5260  144.4630 C   0  0  0  0  0  0  0  0  0  0  0  0
  179.7090  179.0680  141.7060 C   0  0  0  0  0  3  0  0  0  0  0  0
  181.0960  178.9170  141.7950 C   0  0  0  0  0  0  0  0  0  0  0  0
  185.2980  178.1820  142.0700 C   0  0  0  0  0  3  0  0  0  0  0  0
  183.2380  178.3390  140.7060 N   0  0  0  0  0  0  0  0  0  0  0  0
  183.9280  177.8140  139.5290 C   0  0  2  0  0  3  0  0  0  0  0  0
  184.7260  178.9200  138.8350 C   0  0  0  0  0  2  0  0  0  0  0  0
  183.1690  177.1690  137.1120 C   0  0  0  0  0  3  0  0  0  0  0  0
  184.3730  177.1460  136.5230 C   0  0  0  0  0  3  0  0  0  0  0  0
  185.6490  177.0720  137.3030 C   0  0  0  0  0  2  0  0  0  0  0  0
  185.9330  178.3680  138.0700 C   0  0  0  0  0  2  0  0  0  0  0  0
  182.9250  177.0870  138.6060 C   0  0  1  0  0  3  0  0  0  0  0  0
  182.7020  175.6500  139.0590 C   0  0  0  0  0  2  0  0  0  0  0  0
  181.3490  175.4150  139.3180 O   0  0  0  0  0  1  0  0  0  0  0  0
  187.3340  178.0190  143.4180 O   0  0  0  0  0  0  0  0  0  0  0  0
  187.9060  176.7470  143.7060 C   0  0  0  0  0  2  0  0  0  0  0  0
  190.4440  177.1000  145.4400 C   0  0  0  0  0  0  0  0  0  0  0  0
  189.4910  176.3980  141.9650 O   0  0  0  0  0  0  0  0  0  0  0  0
  190.4480  176.8090  144.0370 N   0  0  0  0  0  2  0  0  0  0  0  0
  189.2330  177.3550  146.1450 N   0  0  0  0  0  1  0  0  0  0  0  0
  191.5360  177.1360  146.0630 O   0  0  0  0  0  0  0  0  0  0  0  0
  189.3070  176.6620  143.1830 C   0  0  0  0  0  0  0  0  0  0  0  0
  1 14  2  0  0  0  0
  1  8  1  0  0  0  0
  2  7  1  0  0  0  0
  3  2  2  0  0  0  0
  4 25  1  0  0  0  0
  4 11  2  0  0  0  0
  5 11  1  0  0  0  0
  8  5  2  0  0  0  0
  9  8  1  0  0  0  0
  9  7  2  0  0  0  0
 10 15  1  0  0  0  0
 10 13  1  0  0  0  0
 11  6  1  0  0  0  0
 12 13  2  0  0  0  0
 12  3  1  0  0  0  0
 13  9  1  0  0  0  0
 14  4  1  0  0  0  0
 15  1  1  0  0  0  0
 16 17  1  6  0  0  0
 16 15  1  0  0  0  0
 18 22  1  0  0  0  0
 19 18  2  0  0  0  0
 19 20  1  0  0  0  0
 20 21  1  0  0  0  0
 21 17  1  0  0  0  0
 22 23  1  1  0  0  0
 22 16  1  0  0  0  0
 23 24  1  0  0  0  0
 25 26  1  0  0  0  0
 27 31  2  0  0  0  0
 27 30  1  0  0  0  0
 28 32  2  0  0  0  0
 29 27  1  0  0  0  0
 32 26  1  0  0  0  0
 32 29  1  0  0  0  0
M  END
>  <MODEL>
9

>  <REMARK>
 VINA RESULT:      -8.9      3.468      7.264
  Name = 
  5 active torsions:
  status: ('A' for Active; 'I' for Inactive)
    1  A    between atoms: C_6  and  N_31
    2  A    between atoms: C_8  and  O_23
    3  A    between atoms: C_19  and  O_23
    4  A    between atoms: C_19  and  C_24
    5  A    between atoms: C_27  and  C_32
                            x       y       z     vdW  Elec       q    Type
                         _______ _______ _______ _____ _____    ______ ____

>  <TORSDO>
F 5

$$$$
