=
 OpenBabel10262420413D

 55 57  0  0  1  0  0  0  0  0999 V2000
  187.6290  177.6500  145.0390 S   0  0  0  0  0  0  0  0  0  0  0  0
  185.7210  178.9470  143.0400 C   0  0  2  0  0  3  0  0  0  0  0  0
  186.6390  177.8680  142.4490 C   0  0  2  0  0  3  0  0  0  0  0  0
  185.9650  178.2990  145.4740 C   0  0  0  0  0  2  0  0  0  0  0  0
  187.1340  176.8440  143.4770 C   0  0  0  0  0  2  0  0  0  0  0  0
  185.0020  178.4330  144.2880 C   0  0  0  0  0  2  0  0  0  0  0  0
  184.7120  179.3440  141.9780 C   0  0  0  0  0  2  0  0  0  0  0  0
  184.3170  178.2390  141.2220 O   0  0  0  0  0  0  0  0  0  0  0  0
  183.2490  178.7260  140.4610 C   0  0  0  0  0  2  0  0  0  0  0  0
  181.9970  177.8940  140.6950 C   0  0  1  0  0  3  0  0  0  0  0  0
  181.0560  178.6910  141.5810 C   0  0  0  0  0  1  0  0  0  0  0  0
  181.3730  177.6180  139.4590 O   0  0  0  0  0  0  0  0  0  0  0  0
  181.4290  176.2230  139.1870 C   0  0  2  0  0  0  0  0  0  0  0  0
  182.5760  175.6630  139.7540 F   0  0  0  0  0  0  0  0  0  0  0  0
  183.9270  175.2450  137.4510 C   0  0  0  0  0  2  0  0  0  0  0  0
  183.3900  177.6450  137.2630 C   0  0  0  0  0  1  0  0  0  0  0  0
  180.4250  176.9150  136.9710 C   0  0  0  0  0  1  0  0  0  0  0  0
  181.4590  175.9860  137.6250 C   0  0  1  0  0  0  0  0  0  0  0  0
  182.1110  173.5530  136.9290 C   0  0  0  0  0  2  0  0  0  0  0  0
  182.7990  176.1330  135.4520 C   0  0  0  0  0  1  0  0  0  0  0  0
  183.3860  173.8290  137.7070 C   0  0  1  0  0  3  0  0  0  0  0  0
  182.8720  176.2530  136.9720 C   0  0  0  0  0  0  0  0  0  0  0  0
  180.9910  174.5340  137.3170 C   0  0  0  0  0  2  0  0  0  0  0  0
  184.4290  172.8090  137.3810 C   0  0  0  0  0  0  0  0  0  0  0  0
  184.0660  171.5280  136.8830 N   0  0  0  0  0  1  0  0  0  0  0  0
  185.6460  173.0950  137.5540 O   0  0  0  0  0  0  0  0  0  0  0  0
  180.3660  174.5970  140.6120 O   0  0  0  0  0  1  0  0  0  0  0  0
  180.2160  175.5450  139.8030 C   0  0  0  0  0  0  0  0  0  0  0  0
  178.9320  175.9480  139.4580 O   0  0  0  0  0  0  0  0  0  0  0  0
  187.8050  178.5050  141.7110 C   0  0  0  0  0  2  0  0  0  0  0  0
  187.9400  177.8960  140.4490 O   0  0  0  0  0  0  0  0  0  0  0  0
  189.1230  177.1200  140.4390 C   0  0  1  0  0  3  0  0  0  0  0  0
  191.0320  176.5470  139.0070 C   0  0  0  0  0  3  0  0  0  0  0  0
  189.7370  176.8960  139.0640 C   0  0  0  0  0  0  0  0  0  0  0  0
  187.9470  176.0100  137.5500 C   0  0  0  0  0  2  0  0  0  0  0  0
  186.4670  177.5840  136.2930 C   0  0  0  0  0  2  0  0  0  0  0  0
  188.2450  178.5120  137.7980 C   0  0  1  0  0  3  0  0  0  0  0  0
  187.4680  178.7170  136.5000 C   0  0  0  0  0  2  0  0  0  0  0  0
  187.1940  176.2460  136.2390 C   0  0  0  0  0  2  0  0  0  0  0  0
  188.9410  177.1440  137.8050 C   0  0  1  0  0  3  0  0  0  0  0  0
  189.1800  179.5330  137.9390 O   0  0  0  0  0  1  0  0  0  0  0  0
  191.8500  176.2480  137.8160 C   0  0  0  0  0  3  0  0  0  0  0  0
  193.1750  176.3420  137.7660 C   0  0  0  0  0  3  0  0  0  0  0  0
  193.9230  176.0740  136.5330 C   0  0  0  0  0  0  0  0  0  0  0  0
  193.8540  174.9310  136.0030 O   0  0  0  0  0  0  0  0  0  0  0  0
  194.7520  177.0700  135.9420 N   0  0  0  0  0  1  0  0  0  0  0  0
  190.1010  177.5080  141.5520 C   0  0  0  0  0  2  0  0  0  0  0  0
  190.4990  176.2780  142.3420 C   0  0  0  0  0  2  0  0  0  0  0  0
  191.7320  176.5950  143.1560 C   0  0  0  0  0  2  0  0  0  0  0  0
  191.3330  177.0880  145.5980 C   0  0  0  0  0  0  0  0  0  0  0  0
  191.3850  178.3280  145.3930 O   0  0  0  0  0  0  0  0  0  0  0  0
  191.5480  176.1630  144.5320 N   0  0  0  0  0  2  0  0  0  0  0  0
  191.0740  176.5820  146.9730 C   0  0  0  0  0  2  0  0  0  0  0  0
  192.0960  175.5300  147.3700 C   0  0  0  0  0  2  0  0  0  0  0  0
  193.0460  176.0850  148.3180 N   0  0  0  0  0  1  0  0  0  0  0  0
  1  4  1  0  0  0  0
  2  7  1  6  0  0  0
  2  6  1  0  0  0  0
  3 30  1  1  0  0  0
  3  2  1  0  0  0  0
  3  5  1  0  0  0  0
  5  1  1  0  0  0  0
  6  4  1  0  0  0  0
  8  7  1  0  0  0  0
  9 10  1  0  0  0  0
  9  8  1  0  0  0  0
 10 11  1  1  0  0  0
 12 10  1  0  0  0  0
 13 12  1  0  0  0  0
 13 14  1  1  0  0  0
 13 28  1  0  0  0  0
 15 21  1  0  0  0  0
 18 17  1  6  0  0  0
 18 13  1  0  0  0  0
 19 23  1  0  0  0  0
 19 21  1  0  0  0  0
 20 22  1  0  0  0  0
 21 24  1  6  0  0  0
 22 16  1  0  0  0  0
 22 15  1  0  0  0  0
 22 18  1  0  0  0  0
 23 18  1  0  0  0  0
 24 26  2  0  0  0  0
 25 24  1  0  0  0  0
 28 27  1  0  0  0  0
 29 28  2  0  0  0  0
 31 30  1  0  0  0  0
 32 31  1  0  0  0  0
 32 47  1  1  0  0  0
 33 34  2  0  0  0  0
 34 32  1  0  0  0  0
 35 40  1  0  0  0  0
 36 38  1  0  0  0  0
 37 40  1  0  0  0  0
 37 41  1  6  0  0  0
 38 37  1  0  0  0  0
 39 36  1  0  0  0  0
 39 35  1  0  0  0  0
 40 34  1  1  0  0  0
 42 33  1  0  0  0  0
 43 42  2  0  0  0  0
 44 43  1  0  0  0  0
 45 44  2  0  0  0  0
 46 44  1  0  0  0  0
 47 48  1  0  0  0  0
 48 49  1  0  0  0  0
 49 52  1  0  0  0  0
 50 53  1  0  0  0  0
 51 50  2  0  0  0  0
 52 50  1  0  0  0  0
 53 54  1  0  0  0  0
 54 55  1  0  0  0  0
M  END
>  <MODEL>
1

>  <REMARK>
 VINA RESULT:      -7.0      0.000      0.000
  Name = 
  22 active torsions:
  status: ('A' for Active; 'I' for Inactive)
    1  A    between atoms: C_1  and  C_29
    2  A    between atoms: C_2  and  O_28
    3  A    between atoms: C_2  and  C_31
    4  A    between atoms: C_4  and  C_40
    5  A    between atoms: C_6  and  C_14
    6  A    between atoms: C_6  and  C_20
    7  A    between atoms: C_6  and  O_22
    8  A    between atoms: C_8  and  O_22
    9  A    between atoms: C_8  and  C_35
   10  A    between atoms: C_10  and  C_32
   11  A    between atoms: C_13  and  N_48
   12  A    between atoms: C_13  and  C_52
   13  A    between atoms: C_19  and  C_45
   14  A    between atoms: C_26  and  C_49
   15  A    between atoms: C_27  and  C_54
   16  A    between atoms: O_28  and  C_33
   17  A    between atoms: C_32  and  C_39
   18  A    between atoms: C_33  and  C_34
   19  A    between atoms: C_33  and  C_49
   20  A    between atoms: C_34  and  C_52
   21  A    between atoms: C_35  and  O_51
   22  A    between atoms: O_51  and  C_54
                            x       y       z     vdW  Elec       q    Type
                         _______ _______ _______ _____ _____    ______ ____

>  <TORSDO>
F 22

$$$$
=
 OpenBabel10262420413D

 55 57  0  0  1  0  0  0  0  0999 V2000
  185.7140  178.8830  145.0480 S   0  0  0  0  0  0  0  0  0  0  0  0
  184.4180  178.9320  142.2840 C   0  0  2  0  0  3  0  0  0  0  0  0
  185.7330  178.1450  142.3670 C   0  0  2  0  0  3  0  0  0  0  0  0
  183.9010  178.9800  144.7610 C   0  0  0  0  0  2  0  0  0  0  0  0
  186.0570  177.6230  143.7720 C   0  0  0  0  0  2  0  0  0  0  0  0
  183.4460  178.4920  143.3800 C   0  0  0  0  0  2  0  0  0  0  0  0
  183.8080  178.6930  140.9150 C   0  0  0  0  0  2  0  0  0  0  0  0
  182.5720  178.0530  141.0190 O   0  0  0  0  0  0  0  0  0  0  0  0
  182.5750  177.1560  139.9450 C   0  0  0  0  0  2  0  0  0  0  0  0
  181.3720  177.3900  139.0450 C   0  0  1  0  0  3  0  0  0  0  0  0
  180.5440  178.5130  139.6430 C   0  0  0  0  0  1  0  0  0  0  0  0
  181.8090  177.7540  137.7520 O   0  0  0  0  0  0  0  0  0  0  0  0
  181.0730  177.0350  136.7700 C   0  0  2  0  0  0  0  0  0  0  0  0
  180.4600  175.9190  137.3430 F   0  0  0  0  0  0  0  0  0  0  0  0
  183.4280  174.8920  137.0360 C   0  0  0  0  0  2  0  0  0  0  0  0
  184.1560  177.2450  136.9200 C   0  0  0  0  0  1  0  0  0  0  0  0
  182.1980  177.6930  134.6030 C   0  0  0  0  0  1  0  0  0  0  0  0
  182.0470  176.5530  135.6220 C   0  0  1  0  0  0  0  0  0  0  0  0
  181.9710  173.9810  135.1700 C   0  0  0  0  0  2  0  0  0  0  0  0
  184.4060  175.8100  134.9730 C   0  0  0  0  0  1  0  0  0  0  0  0
  182.3600  173.8610  136.6330 C   0  0  1  0  0  3  0  0  0  0  0  0
  183.4790  176.1380  136.1410 C   0  0  0  0  0  0  0  0  0  0  0  0
  181.3900  175.3700  134.8540 C   0  0  0  0  0  2  0  0  0  0  0  0
  182.8360  172.4770  136.9350 C   0  0  0  0  0  0  0  0  0  0  0  0
  184.2160  172.2110  137.1540 N   0  0  0  0  0  1  0  0  0  0  0  0
  181.9970  171.5350  136.9940 O   0  0  0  0  0  0  0  0  0  0  0  0
  180.0060  179.1680  136.4320 O   0  0  0  0  0  1  0  0  0  0  0  0
  179.9870  177.9340  136.2030 C   0  0  0  0  0  0  0  0  0  0  0  0
  178.9500  177.3980  135.4490 O   0  0  0  0  0  0  0  0  0  0  0  0
  186.8840  178.9690  141.8130 C   0  0  0  0  0  2  0  0  0  0  0  0
  187.1800  178.5310  140.5080 O   0  0  0  0  0  0  0  0  0  0  0  0
  188.2870  177.6520  140.5610 C   0  0  1  0  0  3  0  0  0  0  0  0
  190.3020  177.2560  139.2160 C   0  0  0  0  0  3  0  0  0  0  0  0
  188.9660  177.3890  139.2240 C   0  0  0  0  0  0  0  0  0  0  0  0
  188.2800  178.7010  137.2010 C   0  0  0  0  0  2  0  0  0  0  0  0
  187.8660  177.5400  135.0270 C   0  0  0  0  0  2  0  0  0  0  0  0
  188.5520  176.1900  137.0250 C   0  0  1  0  0  3  0  0  0  0  0  0
  187.7140  176.2040  135.7490 C   0  0  0  0  0  2  0  0  0  0  0  0
  187.4220  178.6800  135.9340 C   0  0  0  0  0  2  0  0  0  0  0  0
  188.1740  177.3650  137.9380 C   0  0  1  0  0  3  0  0  0  0  0  0
  188.3610  174.9810  137.6870 O   0  0  0  0  0  1  0  0  0  0  0  0
  191.1900  176.9720  138.0720 C   0  0  0  0  0  3  0  0  0  0  0  0
  192.3510  176.3320  138.1580 C   0  0  0  0  0  3  0  0  0  0  0  0
  193.2070  176.1250  136.9850 C   0  0  0  0  0  0  0  0  0  0  0  0
  194.4260  176.4450  137.0430 O   0  0  0  0  0  0  0  0  0  0  0  0
  192.6790  175.6000  135.7700 N   0  0  0  0  0  1  0  0  0  0  0  0
  189.2220  177.9370  141.7390 C   0  0  0  0  0  2  0  0  0  0  0  0
  189.4050  176.6830  142.5690 C   0  0  0  0  0  2  0  0  0  0  0  0
  190.4670  176.9370  143.6150 C   0  0  0  0  0  2  0  0  0  0  0  0
  190.6780  176.9830  146.1290 C   0  0  0  0  0  0  0  0  0  0  0  0
  191.9280  177.1080  146.0570 O   0  0  0  0  0  0  0  0  0  0  0  0
  189.8900  176.8410  144.9460 N   0  0  0  0  0  2  0  0  0  0  0  0
  190.0190  176.9520  147.4620 C   0  0  0  0  0  2  0  0  0  0  0  0
  188.8320  177.8990  147.5060 C   0  0  0  0  0  2  0  0  0  0  0  0
  187.8750  177.4580  148.5060 N   0  0  0  0  0  1  0  0  0  0  0  0
  2  7  1  6  0  0  0
  2  3  1  0  0  0  0
  2  6  1  0  0  0  0
  3 30  1  1  0  0  0
  3  5  1  0  0  0  0
  4  1  1  0  0  0  0
  5  1  1  0  0  0  0
  6  4  1  0  0  0  0
  7  8  1  0  0  0  0
  9  8  1  0  0  0  0
 10 11  1  1  0  0  0
 10  9  1  0  0  0  0
 12 10  1  0  0  0  0
 13 14  1  1  0  0  0
 13 12  1  0  0  0  0
 18 17  1  6  0  0  0
 18 22  1  0  0  0  0
 18 13  1  0  0  0  0
 19 21  1  0  0  0  0
 20 22  1  0  0  0  0
 21 24  1  6  0  0  0
 21 15  1  0  0  0  0
 22 16  1  0  0  0  0
 22 15  1  0  0  0  0
 23 19  1  0  0  0  0
 23 18  1  0  0  0  0
 24 26  2  0  0  0  0
 24 25  1  0  0  0  0
 28 27  1  0  0  0  0
 28 13  1  0  0  0  0
 29 28  2  0  0  0  0
 31 32  1  0  0  0  0
 31 30  1  0  0  0  0
 32 47  1  1  0  0  0
 33 34  2  0  0  0  0
 34 32  1  0  0  0  0
 35 40  1  0  0  0  0
 36 38  1  0  0  0  0
 36 39  1  0  0  0  0
 37 41  1  1  0  0  0
 37 40  1  0  0  0  0
 38 37  1  0  0  0  0
 39 35  1  0  0  0  0
 40 34  1  1  0  0  0
 42 43  2  0  0  0  0
 42 33  1  0  0  0  0
 44 45  2  0  0  0  0
 44 43  1  0  0  0  0
 46 44  1  0  0  0  0
 47 48  1  0  0  0  0
 48 49  1  0  0  0  0
 49 52  1  0  0  0  0
 50 53  1  0  0  0  0
 51 50  2  0  0  0  0
 52 50  1  0  0  0  0
 53 54  1  0  0  0  0
 54 55  1  0  0  0  0
M  END
>  <MODEL>
2

>  <REMARK>
 VINA RESULT:      -6.0      1.842      2.369
  Name = 
  22 active torsions:
  status: ('A' for Active; 'I' for Inactive)
    1  A    between atoms: C_1  and  C_29
    2  A    between atoms: C_2  and  O_28
    3  A    between atoms: C_2  and  C_31
    4  A    between atoms: C_4  and  C_40
    5  A    between atoms: C_6  and  C_14
    6  A    between atoms: C_6  and  C_20
    7  A    between atoms: C_6  and  O_22
    8  A    between atoms: C_8  and  O_22
    9  A    between atoms: C_8  and  C_35
   10  A    between atoms: C_10  and  C_32
   11  A    between atoms: C_13  and  N_48
   12  A    between atoms: C_13  and  C_52
   13  A    between atoms: C_19  and  C_45
   14  A    between atoms: C_26  and  C_49
   15  A    between atoms: C_27  and  C_54
   16  A    between atoms: O_28  and  C_33
   17  A    between atoms: C_32  and  C_39
   18  A    between atoms: C_33  and  C_34
   19  A    between atoms: C_33  and  C_49
   20  A    between atoms: C_34  and  C_52
   21  A    between atoms: C_35  and  O_51
   22  A    between atoms: O_51  and  C_54
                            x       y       z     vdW  Elec       q    Type
                         _______ _______ _______ _____ _____    ______ ____

>  <TORSDO>
F 22

$$$$
=
 OpenBabel10262420413D

 55 57  0  0  1  0  0  0  0  0999 V2000
  190.1120  173.9640  136.8630 S   0  0  0  0  0  0  0  0  0  0  0  0
  187.4920  175.4480  137.3640 C   0  0  2  0  0  3  0  0  0  0  0  0
  188.5710  176.2690  136.6450 C   0  0  2  0  0  3  0  0  0  0  0  0
  188.4630  173.1540  136.9180 C   0  0  0  0  0  2  0  0  0  0  0  0
  189.5950  175.4170  135.8850 C   0  0  0  0  0  2  0  0  0  0  0  0
  187.2790  174.0990  136.6760 C   0  0  0  0  0  2  0  0  0  0  0  0
  186.2030  176.2500  137.3560 C   0  0  0  0  0  2  0  0  0  0  0  0
  185.1440  175.4970  136.8480 O   0  0  0  0  0  0  0  0  0  0  0  0
  184.1670  175.5900  137.8450 C   0  0  0  0  0  2  0  0  0  0  0  0
  182.7730  175.4970  137.2430 C   0  0  1  0  0  3  0  0  0  0  0  0
  182.5650  174.0790  136.7460 C   0  0  0  0  0  1  0  0  0  0  0  0
  181.8090  175.8060  138.2280 O   0  0  0  0  0  0  0  0  0  0  0  0
  181.2050  177.0610  137.9400 C   0  0  2  0  0  0  0  0  0  0  0  0
  182.1030  177.8890  137.2640 F   0  0  0  0  0  0  0  0  0  0  0  0
  182.3820  179.7780  139.1400 C   0  0  0  0  0  2  0  0  0  0  0  0
  183.1540  177.7150  140.2510 C   0  0  0  0  0  1  0  0  0  0  0  0
  180.2650  176.6880  140.2580 C   0  0  0  0  0  1  0  0  0  0  0  0
  180.7710  177.7650  139.2870 C   0  0  1  0  0  0  0  0  0  0  0  0
  179.8870  180.2040  138.9770 C   0  0  0  0  0  2  0  0  0  0  0  0
  181.4890  179.1160  141.3360 C   0  0  0  0  0  1  0  0  0  0  0  0
  181.2500  180.4630  138.3580 C   0  0  1  0  0  3  0  0  0  0  0  0
  181.9370  178.5720  139.9810 C   0  0  0  0  0  0  0  0  0  0  0  0
  179.5600  178.7020  139.0100 C   0  0  0  0  0  2  0  0  0  0  0  0
  181.5070  181.9310  138.2540 C   0  0  0  0  0  0  0  0  0  0  0  0
  180.5390  182.8030  137.6840 N   0  0  0  0  0  1  0  0  0  0  0  0
  182.6010  182.3980  138.6790 O   0  0  0  0  0  0  0  0  0  0  0  0
  179.3790  175.7470  137.0770 O   0  0  0  0  0  1  0  0  0  0  0  0
  179.9970  176.8390  137.0450 C   0  0  0  0  0  0  0  0  0  0  0  0
  179.5810  177.8300  136.1640 O   0  0  0  0  0  0  0  0  0  0  0  0
  189.2610  177.2110  137.6170 C   0  0  0  0  0  2  0  0  0  0  0  0
  189.4540  176.5480  138.8440 O   0  0  0  0  0  0  0  0  0  0  0  0
  190.1910  177.3900  139.7100 C   0  0  1  0  0  3  0  0  0  0  0  0
  188.2880  177.7950  141.2060 C   0  0  0  0  0  3  0  0  0  0  0  0
  189.6050  177.5530  141.1060 C   0  0  0  0  0  0  0  0  0  0  0  0
  190.5160  178.8960  143.0150 C   0  0  0  0  0  2  0  0  0  0  0  0
  191.0230  177.7960  145.2020 C   0  0  0  0  0  2  0  0  0  0  0  0
  190.1110  176.4160  143.3170 C   0  0  1  0  0  3  0  0  0  0  0  0
  191.0420  176.4270  144.5270 C   0  0  0  0  0  2  0  0  0  0  0  0
  191.4640  178.8720  144.2160 C   0  0  0  0  0  2  0  0  0  0  0  0
  190.4880  177.5290  142.3310 C   0  0  1  0  0  3  0  0  0  0  0  0
  190.1810  175.1730  142.6960 O   0  0  0  0  0  1  0  0  0  0  0  0
  187.4760  177.9620  142.4270 C   0  0  0  0  0  3  0  0  0  0  0  0
  186.1840  178.2710  142.4390 C   0  0  0  0  0  3  0  0  0  0  0  0
  185.4480  178.4680  143.6920 C   0  0  0  0  0  0  0  0  0  0  0  0
  185.6910  177.7190  144.6780 O   0  0  0  0  0  0  0  0  0  0  0  0
  184.4390  179.4680  143.8060 N   0  0  0  0  0  1  0  0  0  0  0  0
  191.7000  177.1410  139.6440 C   0  0  0  0  0  2  0  0  0  0  0  0
  191.9910  175.9650  138.7350 C   0  0  0  0  0  2  0  0  0  0  0  0
  193.0770  176.3560  137.7590 C   0  0  0  0  0  2  0  0  0  0  0  0
  194.7230  174.4690  138.0670 C   0  0  0  0  0  0  0  0  0  0  0  0
  193.8970  173.6290  137.6250 O   0  0  0  0  0  0  0  0  0  0  0  0
  194.3610  175.8430  138.2080 N   0  0  0  0  0  2  0  0  0  0  0  0
  196.0810  174.0180  138.4740 C   0  0  0  0  0  2  0  0  0  0  0  0
  197.1310  174.4850  137.4810 C   0  0  0  0  0  2  0  0  0  0  0  0
  198.1200  175.3140  138.1480 N   0  0  0  0  0  1  0  0  0  0  0  0
  1  4  1  0  0  0  0
  2  7  1  6  0  0  0
  3  2  1  0  0  0  0
  3 30  1  1  0  0  0
  5  3  1  0  0  0  0
  5  1  1  0  0  0  0
  6  4  1  0  0  0  0
  6  2  1  0  0  0  0
  8  7  1  0  0  0  0
  8  9  1  0  0  0  0
 10 11  1  1  0  0  0
 10  9  1  0  0  0  0
 10 12  1  0  0  0  0
 13 14  1  6  0  0  0
 13 12  1  0  0  0  0
 13 18  1  0  0  0  0
 15 22  1  0  0  0  0
 18 22  1  0  0  0  0
 18 17  1  1  0  0  0
 19 23  1  0  0  0  0
 21 24  1  1  0  0  0
 21 19  1  0  0  0  0
 21 15  1  0  0  0  0
 22 16  1  0  0  0  0
 22 20  1  0  0  0  0
 23 18  1  0  0  0  0
 24 26  2  0  0  0  0
 25 24  1  0  0  0  0
 28 27  1  0  0  0  0
 28 13  1  0  0  0  0
 29 28  2  0  0  0  0
 30 31  1  0  0  0  0
 31 32  1  0  0  0  0
 32 47  1  1  0  0  0
 32 34  1  0  0  0  0
 33 42  1  0  0  0  0
 34 33  2  0  0  0  0
 35 39  1  0  0  0  0
 37 41  1  6  0  0  0
 37 38  1  0  0  0  0
 38 36  1  0  0  0  0
 39 36  1  0  0  0  0
 40 34  1  6  0  0  0
 40 35  1  0  0  0  0
 40 37  1  0  0  0  0
 42 43  2  0  0  0  0
 43 44  1  0  0  0  0
 44 46  1  0  0  0  0
 44 45  2  0  0  0  0
 48 47  1  0  0  0  0
 49 52  1  0  0  0  0
 49 48  1  0  0  0  0
 50 52  1  0  0  0  0
 50 53  1  0  0  0  0
 51 50  2  0  0  0  0
 54 55  1  0  0  0  0
 54 53  1  0  0  0  0
M  END
>  <MODEL>
3

>  <REMARK>
 VINA RESULT:      -6.0      3.198      7.206
  Name = 
  22 active torsions:
  status: ('A' for Active; 'I' for Inactive)
    1  A    between atoms: C_1  and  C_29
    2  A    between atoms: C_2  and  O_28
    3  A    between atoms: C_2  and  C_31
    4  A    between atoms: C_4  and  C_40
    5  A    between atoms: C_6  and  C_14
    6  A    between atoms: C_6  and  C_20
    7  A    between atoms: C_6  and  O_22
    8  A    between atoms: C_8  and  O_22
    9  A    between atoms: C_8  and  C_35
   10  A    between atoms: C_10  and  C_32
   11  A    between atoms: C_13  and  N_48
   12  A    between atoms: C_13  and  C_52
   13  A    between atoms: C_19  and  C_45
   14  A    between atoms: C_26  and  C_49
   15  A    between atoms: C_27  and  C_54
   16  A    between atoms: O_28  and  C_33
   17  A    between atoms: C_32  and  C_39
   18  A    between atoms: C_33  and  C_34
   19  A    between atoms: C_33  and  C_49
   20  A    between atoms: C_34  and  C_52
   21  A    between atoms: C_35  and  O_51
   22  A    between atoms: O_51  and  C_54
                            x       y       z     vdW  Elec       q    Type
                         _______ _______ _______ _____ _____    ______ ____

>  <TORSDO>
F 22

$$$$
=
 OpenBabel10262420413D

 55 57  0  0  1  0  0  0  0  0999 V2000
  183.1960  179.7540  144.1860 S   0  0  0  0  0  0  0  0  0  0  0  0
  182.8250  178.6550  141.3630 C   0  0  2  0  0  3  0  0  0  0  0  0
  184.0710  178.1410  142.0960 C   0  0  2  0  0  3  0  0  0  0  0  0
  181.5600  179.4860  143.3910 C   0  0  0  0  0  2  0  0  0  0  0  0
  183.9560  178.1910  143.6240 C   0  0  0  0  0  2  0  0  0  0  0  0
  181.5730  178.4900  142.2250 C   0  0  0  0  0  2  0  0  0  0  0  0
  182.6790  177.8720  140.0700 C   0  0  0  0  0  2  0  0  0  0  0  0
  181.3350  177.6450  139.7680 O   0  0  0  0  0  0  0  0  0  0  0  0
  181.3640  177.2450  138.4280 C   0  0  0  0  0  2  0  0  0  0  0  0
  181.6830  175.7630  138.3150 C   0  0  1  0  0  3  0  0  0  0  0  0
  180.4860  174.9800  138.8240 C   0  0  0  0  0  1  0  0  0  0  0  0
  181.9320  175.4320  136.9650 O   0  0  0  0  0  0  0  0  0  0  0  0
  183.1720  174.7440  136.8540 C   0  0  2  0  0  0  0  0  0  0  0  0
  183.8750  174.8120  138.0580 F   0  0  0  0  0  0  0  0  0  0  0  0
  186.3080  175.3440  136.9520 C   0  0  0  0  0  2  0  0  0  0  0  0
  184.8510  177.3150  137.2230 C   0  0  0  0  0  1  0  0  0  0  0  0
  183.1430  176.3230  134.8780 C   0  0  0  0  0  1  0  0  0  0  0  0
  184.0450  175.3990  135.7100 C   0  0  1  0  0  0  0  0  0  0  0  0
  186.0200  173.9000  134.8870 C   0  0  0  0  0  2  0  0  0  0  0  0
  185.9920  176.9430  135.1080 C   0  0  0  0  0  1  0  0  0  0  0  0
  186.4650  173.9430  136.3390 C   0  0  1  0  0  3  0  0  0  0  0  0
  185.2710  176.2340  136.2520 C   0  0  0  0  0  0  0  0  0  0  0  0
  184.5390  174.2870  134.7400 C   0  0  0  0  0  2  0  0  0  0  0  0
  187.8790  173.4760  136.4660 C   0  0  0  0  0  0  0  0  0  0  0  0
  188.9260  174.1160  135.7490 N   0  0  0  0  0  1  0  0  0  0  0  0
  188.1400  172.4990  137.2220 O   0  0  0  0  0  0  0  0  0  0  0  0
  182.0370  172.9630  135.6930 O   0  0  0  0  0  0  0  0  0  0  0  0
  182.9040  173.2800  136.5430 C   0  0  0  0  0  0  0  0  0  0  0  0
  183.5940  172.2790  137.2160 O   0  0  0  0  0  1  0  0  0  0  0  0
  185.3120  178.8770  141.6190 C   0  0  0  0  0  2  0  0  0  0  0  0
  186.3570  177.9500  141.4390 O   0  0  0  0  0  0  0  0  0  0  0  0
  187.5570  178.5100  141.9360 C   0  0  1  0  0  3  0  0  0  0  0  0
  187.1190  178.3210  144.3430 C   0  0  0  0  0  3  0  0  0  0  0  0
  187.9560  178.0470  143.3300 C   0  0  0  0  0  0  0  0  0  0  0  0
  189.3800  176.0420  142.8430 C   0  0  0  0  0  2  0  0  0  0  0  0
  191.8690  176.2550  142.7560 C   0  0  0  0  0  2  0  0  0  0  0  0
  190.4810  178.2850  143.2460 C   0  0  1  0  0  3  0  0  0  0  0  0
  191.8000  177.5690  143.5280 C   0  0  0  0  0  2  0  0  0  0  0  0
  190.7090  175.3510  143.1560 C   0  0  0  0  0  2  0  0  0  0  0  0
  189.2880  177.3790  143.5790 C   0  0  1  0  0  3  0  0  0  0  0  0
  190.4250  179.4560  143.9950 O   0  0  0  0  0  1  0  0  0  0  0  0
  187.2550  177.9620  145.7680 C   0  0  0  0  0  3  0  0  0  0  0  0
  188.4030  177.9480  146.4380 C   0  0  0  0  0  3  0  0  0  0  0  0
  188.4720  177.5340  147.8430 C   0  0  0  0  0  0  0  0  0  0  0  0
  187.8500  176.5020  148.2170 O   0  0  0  0  0  0  0  0  0  0  0  0
  189.2010  178.2970  148.8010 N   0  0  0  0  0  1  0  0  0  0  0  0
  188.6800  178.5390  140.8950 C   0  0  0  0  0  2  0  0  0  0  0  0
  188.1280  178.1810  139.5300 C   0  0  0  0  0  2  0  0  0  0  0  0
  188.8450  176.9530  139.0180 C   0  0  0  0  0  2  0  0  0  0  0  0
  191.2060  176.2120  138.5260 C   0  0  0  0  0  0  0  0  0  0  0  0
  190.8480  175.0090  138.4430 O   0  0  0  0  0  0  0  0  0  0  0  0
  190.2630  177.2310  138.8610 N   0  0  0  0  0  2  0  0  0  0  0  0
  192.6320  176.5710  138.3020 C   0  0  0  0  0  2  0  0  0  0  0  0
  193.0790  176.1850  136.9030 C   0  0  0  0  0  2  0  0  0  0  0  0
  194.5070  176.4040  136.7530 N   0  0  0  0  0  1  0  0  0  0  0  0
  2  7  1  6  0  0  0
  2  3  1  0  0  0  0
  2  6  1  0  0  0  0
  3 30  1  6  0  0  0
  3  5  1  0  0  0  0
  4  1  1  0  0  0  0
  5  1  1  0  0  0  0
  6  4  1  0  0  0  0
  8  7  1  0  0  0  0
  9  8  1  0  0  0  0
 10  9  1  0  0  0  0
 10 11  1  6  0  0  0
 12 10  1  0  0  0  0
 13 12  1  0  0  0  0
 13 14  1  1  0  0  0
 18 17  1  6  0  0  0
 18 22  1  0  0  0  0
 18 13  1  0  0  0  0
 19 21  1  0  0  0  0
 20 22  1  0  0  0  0
 21 24  1  6  0  0  0
 21 15  1  0  0  0  0
 22 15  1  0  0  0  0
 22 16  1  0  0  0  0
 23 19  1  0  0  0  0
 23 18  1  0  0  0  0
 24 26  2  0  0  0  0
 25 24  1  0  0  0  0
 27 28  2  0  0  0  0
 28 13  1  0  0  0  0
 28 29  1  0  0  0  0
 31 30  1  0  0  0  0
 31 32  1  0  0  0  0
 32 47  1  6  0  0  0
 32 34  1  0  0  0  0
 33 42  1  0  0  0  0
 34 33  2  0  0  0  0
 35 39  1  0  0  0  0
 35 40  1  0  0  0  0
 36 39  1  0  0  0  0
 36 38  1  0  0  0  0
 37 38  1  0  0  0  0
 37 40  1  0  0  0  0
 37 41  1  1  0  0  0
 40 34  1  6  0  0  0
 42 43  2  0  0  0  0
 43 44  1  0  0  0  0
 44 45  2  0  0  0  0
 44 46  1  0  0  0  0
 48 47  1  0  0  0  0
 49 48  1  0  0  0  0
 50 52  1  0  0  0  0
 51 50  2  0  0  0  0
 52 49  1  0  0  0  0
 53 50  1  0  0  0  0
 54 53  1  0  0  0  0
 55 54  1  0  0  0  0
M  END
>  <MODEL>
4

>  <REMARK>
 VINA RESULT:      -5.8      2.323      6.185
  Name = 
  22 active torsions:
  status: ('A' for Active; 'I' for Inactive)
    1  A    between atoms: C_1  and  C_29
    2  A    between atoms: C_2  and  O_28
    3  A    between atoms: C_2  and  C_31
    4  A    between atoms: C_4  and  C_40
    5  A    between atoms: C_6  and  C_14
    6  A    between atoms: C_6  and  C_20
    7  A    between atoms: C_6  and  O_22
    8  A    between atoms: C_8  and  O_22
    9  A    between atoms: C_8  and  C_35
   10  A    between atoms: C_10  and  C_32
   11  A    between atoms: C_13  and  N_48
   12  A    between atoms: C_13  and  C_52
   13  A    between atoms: C_19  and  C_45
   14  A    between atoms: C_26  and  C_49
   15  A    between atoms: C_27  and  C_54
   16  A    between atoms: O_28  and  C_33
   17  A    between atoms: C_32  and  C_39
   18  A    between atoms: C_33  and  C_34
   19  A    between atoms: C_33  and  C_49
   20  A    between atoms: C_34  and  C_52
   21  A    between atoms: C_35  and  O_51
   22  A    between atoms: O_51  and  C_54
                            x       y       z     vdW  Elec       q    Type
                         _______ _______ _______ _____ _____    ______ ____

>  <TORSDO>
F 22

$$$$
=
 OpenBabel10262420413D

 55 57  0  0  1  0  0  0  0  0999 V2000
  190.2620  177.0980  139.5580 S   0  0  0  0  0  0  0  0  0  0  0  0
  187.8200  176.4870  137.8310 C   0  0  2  0  0  3  0  0  0  0  0  0
  187.8980  177.9290  138.3500 C   0  0  2  0  0  3  0  0  0  0  0  0
  190.2470  175.8690  138.1910 C   0  0  0  0  0  2  0  0  0  0  0  0
  189.3220  178.3940  138.6790 C   0  0  0  0  0  2  0  0  0  0  0  0
  189.1300  176.0740  137.1600 C   0  0  0  0  0  2  0  0  0  0  0  0
  186.6740  176.4030  136.8390 C   0  0  0  0  0  2  0  0  0  0  0  0
  186.0180  175.1740  136.9310 O   0  0  0  0  0  0  0  0  0  0  0  0
  184.7080  175.4710  136.5390 C   0  0  0  0  0  2  0  0  0  0  0  0
  183.8830  174.1990  136.4120 C   0  0  1  0  0  3  0  0  0  0  0  0
  184.7720  173.0200  136.7650 C   0  0  0  0  0  1  0  0  0  0  0  0
  182.7860  174.2550  137.3000 O   0  0  0  0  0  0  0  0  0  0  0  0
  181.5670  174.2350  136.5680 C   0  0  2  0  0  0  0  0  0  0  0  0
  181.7300  174.8720  135.3360 F   0  0  0  0  0  0  0  0  0  0  0  0
  181.5640  177.3060  137.4490 C   0  0  0  0  0  2  0  0  0  0  0  0
  182.0660  175.6960  139.2480 C   0  0  0  0  0  1  0  0  0  0  0  0
  179.7320  173.9560  138.2860 C   0  0  0  0  0  1  0  0  0  0  0  0
  180.4410  174.9810  137.3890 C   0  0  1  0  0  0  0  0  0  0  0  0
  179.4030  177.0340  136.1490 C   0  0  0  0  0  2  0  0  0  0  0  0
  179.8760  176.7460  139.1500 C   0  0  0  0  0  1  0  0  0  0  0  0
  180.8310  177.5530  136.1210 C   0  0  1  0  0  3  0  0  0  0  0  0
  180.9900  176.1560  138.2900 C   0  0  0  0  0  0  0  0  0  0  0  0
  179.3600  175.5180  136.4060 C   0  0  0  0  0  2  0  0  0  0  0  0
  180.8520  179.0080  135.7800 C   0  0  0  0  0  0  0  0  0  0  0  0
  181.1390  179.9860  136.7700 N   0  0  0  0  0  1  0  0  0  0  0  0
  180.6090  179.3670  134.5940 O   0  0  0  0  0  0  0  0  0  0  0  0
  180.4460  172.5060  135.3180 O   0  0  0  0  0  0  0  0  0  0  0  0
  181.1650  172.7920  136.3070 C   0  0  0  0  0  0  0  0  0  0  0  0
  181.5640  171.7820  137.1730 O   0  0  0  0  0  1  0  0  0  0  0  0
  186.9750  178.1170  139.5430 C   0  0  0  0  0  2  0  0  0  0  0  0
  187.7460  178.4370  140.6770 O   0  0  0  0  0  0  0  0  0  0  0  0
  186.9760  178.1900  141.8390 C   0  0  1  0  0  3  0  0  0  0  0  0
  187.1020  177.5790  144.2120 C   0  0  0  0  0  3  0  0  0  0  0  0
  187.7790  177.8160  143.0770 C   0  0  0  0  0  0  0  0  0  0  0  0
  189.8670  178.9760  143.8360 C   0  0  0  0  0  2  0  0  0  0  0  0
  191.9450  177.6630  144.2890 C   0  0  0  0  0  2  0  0  0  0  0  0
  189.8770  176.4630  143.5320 C   0  0  1  0  0  3  0  0  0  0  0  0
  191.4020  176.4920  143.4740 C   0  0  0  0  0  2  0  0  0  0  0  0
  191.3940  178.9770  143.7480 C   0  0  0  0  0  2  0  0  0  0  0  0
  189.2890  177.7970  143.0530 C   0  0  1  0  0  3  0  0  0  0  0  0
  189.4080  175.4150  142.7460 O   0  0  0  0  0  1  0  0  0  0  0  0
  187.6310  177.1760  145.5290 C   0  0  0  0  0  3  0  0  0  0  0  0
  187.7990  177.9980  146.5600 C   0  0  0  0  0  3  0  0  0  0  0  0
  188.3750  177.5400  147.8280 C   0  0  0  0  0  0  0  0  0  0  0  0
  188.1470  176.3630  148.2230 O   0  0  0  0  0  0  0  0  0  0  0  0
  189.1610  178.4090  148.6390 N   0  0  0  0  0  1  0  0  0  0  0  0
  185.8660  179.2230  142.0500 C   0  0  0  0  0  2  0  0  0  0  0  0
  184.8890  178.7250  143.0950 C   0  0  0  0  0  2  0  0  0  0  0  0
  183.5880  178.3600  142.4170 C   0  0  0  0  0  2  0  0  0  0  0  0
  181.1320  178.9070  142.6060 C   0  0  0  0  0  0  0  0  0  0  0  0
  180.8590  178.1850  141.6130 O   0  0  0  0  0  0  0  0  0  0  0  0
  182.4840  179.0800  143.0320 N   0  0  0  0  0  2  0  0  0  0  0  0
  180.0370  179.6130  143.3240 C   0  0  0  0  0  2  0  0  0  0  0  0
  178.9960  180.1380  142.3520 C   0  0  0  0  0  2  0  0  0  0  0  0
  179.5300  181.2620  141.6020 N   0  0  0  0  0  1  0  0  0  0  0  0
  2  7  1  6  0  0  0
  2  3  1  0  0  0  0
  3  5  1  0  0  0  0
  3 30  1  1  0  0  0
  4  1  1  0  0  0  0
  5  1  1  0  0  0  0
  6  2  1  0  0  0  0
  6  4  1  0  0  0  0
  7  8  1  0  0  0  0
  9  8  1  0  0  0  0
 10  9  1  0  0  0  0
 10 11  1  1  0  0  0
 10 12  1  0  0  0  0
 13 14  1  6  0  0  0
 13 12  1  0  0  0  0
 13 18  1  0  0  0  0
 15 22  1  0  0  0  0
 18 17  1  1  0  0  0
 18 22  1  0  0  0  0
 19 23  1  0  0  0  0
 21 24  1  1  0  0  0
 21 19  1  0  0  0  0
 21 15  1  0  0  0  0
 22 20  1  0  0  0  0
 22 16  1  0  0  0  0
 23 18  1  0  0  0  0
 24 25  1  0  0  0  0
 26 24  2  0  0  0  0
 27 28  2  0  0  0  0
 28 13  1  0  0  0  0
 28 29  1  0  0  0  0
 30 31  1  0  0  0  0
 31 32  1  0  0  0  0
 32 47  1  1  0  0  0
 32 34  1  0  0  0  0
 33 42  1  0  0  0  0
 34 33  2  0  0  0  0
 37 41  1  6  0  0  0
 38 37  1  0  0  0  0
 38 36  1  0  0  0  0
 39 35  1  0  0  0  0
 39 36  1  0  0  0  0
 40 34  1  1  0  0  0
 40 37  1  0  0  0  0
 40 35  1  0  0  0  0
 42 43  2  0  0  0  0
 43 44  1  0  0  0  0
 44 45  2  0  0  0  0
 44 46  1  0  0  0  0
 47 48  1  0  0  0  0
 49 52  1  0  0  0  0
 49 48  1  0  0  0  0
 50 52  1  0  0  0  0
 50 53  1  0  0  0  0
 51 50  2  0  0  0  0
 54 53  1  0  0  0  0
 55 54  1  0  0  0  0
M  END
>  <MODEL>
5

>  <REMARK>
 VINA RESULT:      -5.6      3.416      7.643
  Name = 
  22 active torsions:
  status: ('A' for Active; 'I' for Inactive)
    1  A    between atoms: C_1  and  C_29
    2  A    between atoms: C_2  and  O_28
    3  A    between atoms: C_2  and  C_31
    4  A    between atoms: C_4  and  C_40
    5  A    between atoms: C_6  and  C_14
    6  A    between atoms: C_6  and  C_20
    7  A    between atoms: C_6  and  O_22
    8  A    between atoms: C_8  and  O_22
    9  A    between atoms: C_8  and  C_35
   10  A    between atoms: C_10  and  C_32
   11  A    between atoms: C_13  and  N_48
   12  A    between atoms: C_13  and  C_52
   13  A    between atoms: C_19  and  C_45
   14  A    between atoms: C_26  and  C_49
   15  A    between atoms: C_27  and  C_54
   16  A    between atoms: O_28  and  C_33
   17  A    between atoms: C_32  and  C_39
   18  A    between atoms: C_33  and  C_34
   19  A    between atoms: C_33  and  C_49
   20  A    between atoms: C_34  and  C_52
   21  A    between atoms: C_35  and  O_51
   22  A    between atoms: O_51  and  C_54
                            x       y       z     vdW  Elec       q    Type
                         _______ _______ _______ _____ _____    ______ ____

>  <TORSDO>
F 22

$$$$
=
 OpenBabel10262420413D

 55 57  0  0  1  0  0  0  0  0999 V2000
  183.8550  179.2450  144.2620 S   0  0  0  0  0  0  0  0  0  0  0  0
  182.9620  179.0330  141.3500 C   0  0  2  0  0  3  0  0  0  0  0  0
  184.2250  178.2320  141.6980 C   0  0  2  0  0  3  0  0  0  0  0  0
  182.1050  179.3470  143.7100 C   0  0  0  0  0  2  0  0  0  0  0  0
  184.3310  177.8530  143.1790 C   0  0  0  0  0  2  0  0  0  0  0  0
  181.8320  178.7290  142.3340 C   0  0  0  0  0  2  0  0  0  0  0  0
  182.5430  178.6660  139.9380 C   0  0  0  0  0  2  0  0  0  0  0  0
  181.4060  179.3760  139.5500 O   0  0  0  0  0  0  0  0  0  0  0  0
  180.8380  178.5700  138.5580 C   0  0  0  0  0  2  0  0  0  0  0  0
  180.2990  177.2800  139.1550 C   0  0  1  0  0  3  0  0  0  0  0  0
  179.0120  177.6000  139.8930 C   0  0  0  0  0  1  0  0  0  0  0  0
  180.0400  176.3510  138.1230 O   0  0  0  0  0  0  0  0  0  0  0  0
  180.8960  175.2220  138.2590 C   0  0  2  0  0  0  0  0  0  0  0  0
  182.0960  175.5940  138.8690 F   0  0  0  0  0  0  0  0  0  0  0  0
  183.6900  175.3230  136.7130 C   0  0  0  0  0  2  0  0  0  0  0  0
  181.9690  176.8790  135.8770 C   0  0  0  0  0  1  0  0  0  0  0  0
  179.9110  174.6090  136.0120 C   0  0  0  0  0  1  0  0  0  0  0  0
  181.2090  174.6160  136.8330 C   0  0  1  0  0  0  0  0  0  0  0  0
  183.1350  172.8500  136.8270 C   0  0  0  0  0  2  0  0  0  0  0  0
  182.4740  174.8570  134.6240 C   0  0  0  0  0  1  0  0  0  0  0  0
  183.9730  173.9780  137.4030 C   0  0  1  0  0  3  0  0  0  0  0  0
  182.3140  175.4140  136.0370 C   0  0  0  0  0  0  0  0  0  0  0  0
  181.6310  173.1260  136.9900 C   0  0  0  0  0  2  0  0  0  0  0  0
  185.4270  173.6460  137.3150 C   0  0  0  0  0  0  0  0  0  0  0  0
  186.4020  174.6700  137.1660 N   0  0  0  0  0  1  0  0  0  0  0  0
  185.7890  172.4380  137.3730 O   0  0  0  0  0  0  0  0  0  0  0  0
  179.8230  173.1000  138.6470 O   0  0  0  0  0  0  0  0  0  0  0  0
  180.2170  174.1850  139.1390 C   0  0  0  0  0  0  0  0  0  0  0  0
  180.0020  174.4380  140.4880 O   0  0  0  0  0  1  0  0  0  0  0  0
  185.4690  178.9720  141.2350 C   0  0  0  0  0  2  0  0  0  0  0  0
  186.4750  178.0360  140.9290 O   0  0  0  0  0  0  0  0  0  0  0  0
  187.7280  178.5640  141.3240 C   0  0  1  0  0  3  0  0  0  0  0  0
  187.3490  177.7720  143.6150 C   0  0  0  0  0  3  0  0  0  0  0  0
  188.2490  178.0570  142.6610 C   0  0  0  0  0  0  0  0  0  0  0  0
  190.1530  178.9440  144.0300 C   0  0  0  0  0  2  0  0  0  0  0  0
  192.0730  177.4600  144.6290 C   0  0  0  0  0  2  0  0  0  0  0  0
  190.1880  176.5330  143.2590 C   0  0  1  0  0  3  0  0  0  0  0  0
  191.6930  176.4900  143.5130 C   0  0  0  0  0  2  0  0  0  0  0  0
  191.6650  178.8790  144.2510 C   0  0  0  0  0  2  0  0  0  0  0  0
  189.7310  177.9620  142.9360 C   0  0  1  0  0  3  0  0  0  0  0  0
  189.8750  175.6750  142.2090 O   0  0  0  0  0  1  0  0  0  0  0  0
  187.5860  177.2460  144.9730 C   0  0  0  0  0  3  0  0  0  0  0  0
  187.5560  177.9770  146.0830 C   0  0  0  0  0  3  0  0  0  0  0  0
  187.8480  177.3970  147.3980 C   0  0  0  0  0  0  0  0  0  0  0  0
  188.3800  176.2550  147.4670 O   0  0  0  0  0  0  0  0  0  0  0  0
  187.5110  178.0850  148.5990 N   0  0  0  0  0  1  0  0  0  0  0  0
  188.7470  178.6020  140.1810 C   0  0  0  0  0  2  0  0  0  0  0  0
  188.2090  177.8450  138.9840 C   0  0  0  0  0  2  0  0  0  0  0  0
  189.1960  177.9630  137.8450 C   0  0  0  0  0  2  0  0  0  0  0  0
  191.0290  176.2380  138.0240 C   0  0  0  0  0  0  0  0  0  0  0  0
  191.7550  177.0260  138.6820 O   0  0  0  0  0  0  0  0  0  0  0  0
  189.7560  176.6590  137.5310 N   0  0  0  0  0  2  0  0  0  0  0  0
  191.5150  174.8620  137.7330 C   0  0  0  0  0  2  0  0  0  0  0  0
  192.9870  174.8710  137.3620 C   0  0  0  0  0  2  0  0  0  0  0  0
  193.1610  175.3550  136.0030 N   0  0  0  0  0  1  0  0  0  0  0  0
  2  7  1  6  0  0  0
  2  3  1  0  0  0  0
  2  6  1  0  0  0  0
  3 30  1  1  0  0  0
  3  5  1  0  0  0  0
  4  1  1  0  0  0  0
  5  1  1  0  0  0  0
  6  4  1  0  0  0  0
  8  7  1  0  0  0  0
  9 10  1  0  0  0  0
  9  8  1  0  0  0  0
 10 11  1  6  0  0  0
 12 13  1  0  0  0  0
 12 10  1  0  0  0  0
 13 14  1  1  0  0  0
 13 28  1  0  0  0  0
 15 21  1  0  0  0  0
 16 22  1  0  0  0  0
 18 17  1  6  0  0  0
 18 23  1  0  0  0  0
 18 13  1  0  0  0  0
 19 23  1  0  0  0  0
 19 21  1  0  0  0  0
 20 22  1  0  0  0  0
 21 24  1  6  0  0  0
 22 15  1  0  0  0  0
 22 18  1  0  0  0  0
 24 26  2  0  0  0  0
 25 24  1  0  0  0  0
 27 28  2  0  0  0  0
 28 29  1  0  0  0  0
 31 30  1  0  0  0  0
 31 32  1  0  0  0  0
 32 47  1  6  0  0  0
 32 34  1  0  0  0  0
 33 42  1  0  0  0  0
 34 33  2  0  0  0  0
 35 39  1  0  0  0  0
 37 41  1  6  0  0  0
 37 38  1  0  0  0  0
 38 36  1  0  0  0  0
 39 36  1  0  0  0  0
 40 34  1  1  0  0  0
 40 37  1  0  0  0  0
 40 35  1  0  0  0  0
 42 43  2  0  0  0  0
 43 44  1  0  0  0  0
 44 45  2  0  0  0  0
 44 46  1  0  0  0  0
 48 47  1  0  0  0  0
 49 48  1  0  0  0  0
 50 51  2  0  0  0  0
 52 49  1  0  0  0  0
 52 50  1  0  0  0  0
 53 50  1  0  0  0  0
 54 53  1  0  0  0  0
 55 54  1  0  0  0  0
M  END
>  <MODEL>
6

>  <REMARK>
 VINA RESULT:      -5.2      2.239      5.932
  Name = 
  22 active torsions:
  status: ('A' for Active; 'I' for Inactive)
    1  A    between atoms: C_1  and  C_29
    2  A    between atoms: C_2  and  O_28
    3  A    between atoms: C_2  and  C_31
    4  A    between atoms: C_4  and  C_40
    5  A    between atoms: C_6  and  C_14
    6  A    between atoms: C_6  and  C_20
    7  A    between atoms: C_6  and  O_22
    8  A    between atoms: C_8  and  O_22
    9  A    between atoms: C_8  and  C_35
   10  A    between atoms: C_10  and  C_32
   11  A    between atoms: C_13  and  N_48
   12  A    between atoms: C_13  and  C_52
   13  A    between atoms: C_19  and  C_45
   14  A    between atoms: C_26  and  C_49
   15  A    between atoms: C_27  and  C_54
   16  A    between atoms: O_28  and  C_33
   17  A    between atoms: C_32  and  C_39
   18  A    between atoms: C_33  and  C_34
   19  A    between atoms: C_33  and  C_49
   20  A    between atoms: C_34  and  C_52
   21  A    between atoms: C_35  and  O_51
   22  A    between atoms: O_51  and  C_54
                            x       y       z     vdW  Elec       q    Type
                         _______ _______ _______ _____ _____    ______ ____

>  <TORSDO>
F 22

$$$$
=
 OpenBabel10262420413D

 55 57  0  0  1  0  0  0  0  0999 V2000
  190.5730  176.7040  138.9610 S   0  0  0  0  0  0  0  0  0  0  0  0
  188.1230  177.2690  137.2300 C   0  0  2  0  0  3  0  0  0  0  0  0
  188.2710  178.1800  138.4560 C   0  0  2  0  0  3  0  0  0  0  0  0
  190.5100  176.4330  137.1440 C   0  0  0  0  0  2  0  0  0  0  0  0
  189.7130  178.3150  138.9590 C   0  0  0  0  0  2  0  0  0  0  0  0
  189.4180  177.2280  136.4180 C   0  0  0  0  0  2  0  0  0  0  0  0
  186.9850  177.8020  136.3790 C   0  0  0  0  0  2  0  0  0  0  0  0
  185.9200  176.9010  136.3390 O   0  0  0  0  0  0  0  0  0  0  0  0
  185.0220  177.4930  135.4450 C   0  0  0  0  0  2  0  0  0  0  0  0
  183.7000  176.7400  135.4340 C   0  0  1  0  0  3  0  0  0  0  0  0
  183.8750  175.4870  134.5950 C   0  0  0  0  0  1  0  0  0  0  0  0
  183.3430  176.3880  136.7540 O   0  0  0  0  0  0  0  0  0  0  0  0
  181.9320  176.2420  136.8530 C   0  0  2  0  0  0  0  0  0  0  0  0
  181.2970  176.9520  135.8320 F   0  0  0  0  0  0  0  0  0  0  0  0
  182.2770  179.2180  137.9620 C   0  0  0  0  0  2  0  0  0  0  0  0
  183.7920  177.5440  138.9530 C   0  0  0  0  0  1  0  0  0  0  0  0
  181.4150  175.6300  139.2520 C   0  0  0  0  0  1  0  0  0  0  0  0
  181.4360  176.7930  138.2490 C   0  0  1  0  0  0  0  0  0  0  0  0
  179.7770  178.8040  138.0710 C   0  0  0  0  0  2  0  0  0  0  0  0
  181.8850  178.3460  140.2300 C   0  0  0  0  0  1  0  0  0  0  0  0
  180.9070  179.4800  137.3150 C   0  0  1  0  0  3  0  0  0  0  0  0
  182.3400  177.9510  138.8270 C   0  0  0  0  0  0  0  0  0  0  0  0
  179.9630  177.2770  138.1160 C   0  0  0  0  0  2  0  0  0  0  0  0
  180.6580  180.9490  137.2060 C   0  0  0  0  0  0  0  0  0  0  0  0
  180.2640  181.7090  138.3420 N   0  0  0  0  0  1  0  0  0  0  0  0
  180.7990  181.5180  136.0880 O   0  0  0  0  0  0  0  0  0  0  0  0
  182.3000  173.8880  137.2140 O   0  0  0  0  0  1  0  0  0  0  0  0
  181.5700  174.7730  136.7040 C   0  0  0  0  0  0  0  0  0  0  0  0
  180.4470  174.3930  135.9800 O   0  0  0  0  0  0  0  0  0  0  0  0
  187.3460  177.7250  139.5730 C   0  0  0  0  0  2  0  0  0  0  0  0
  187.8110  178.2410  140.7980 O   0  0  0  0  0  0  0  0  0  0  0  0
  187.2150  177.5170  141.8570 C   0  0  1  0  0  3  0  0  0  0  0  0
  187.4400  177.0870  144.2620 C   0  0  0  0  0  3  0  0  0  0  0  0
  188.0640  177.3990  143.1150 C   0  0  0  0  0  0  0  0  0  0  0  0
  189.8480  178.9920  143.8640 C   0  0  0  0  0  2  0  0  0  0  0  0
  192.1600  178.1650  144.3310 C   0  0  0  0  0  2  0  0  0  0  0  0
  190.4040  176.5380  143.5850 C   0  0  1  0  0  3  0  0  0  0  0  0
  191.8870  176.8970  143.5270 C   0  0  0  0  0  2  0  0  0  0  0  0
  191.3390  179.3230  143.7770 C   0  0  0  0  0  2  0  0  0  0  0  0
  189.5420  177.7080  143.0920 C   0  0  1  0  0  3  0  0  0  0  0  0
  190.1760  175.4060  142.8090 O   0  0  0  0  0  1  0  0  0  0  0  0
  188.0270  176.8870  145.6010 C   0  0  0  0  0  3  0  0  0  0  0  0
  188.6810  177.8190  146.2870 C   0  0  0  0  0  3  0  0  0  0  0  0
  189.2810  177.5370  147.5950 C   0  0  0  0  0  0  0  0  0  0  0  0
  188.5870  177.6790  148.6390 O   0  0  0  0  0  0  0  0  0  0  0  0
  190.6440  177.1390  147.7110 N   0  0  0  0  0  1  0  0  0  0  0  0
  185.7440  177.8790  142.0750 C   0  0  0  0  0  2  0  0  0  0  0  0
  185.5290  179.3540  141.8010 C   0  0  0  0  0  2  0  0  0  0  0  0
  184.2640  179.8030  142.4970 C   0  0  0  0  0  2  0  0  0  0  0  0
  183.4380  178.9220  144.7120 C   0  0  0  0  0  0  0  0  0  0  0  0
  182.3850  178.4800  144.1840 O   0  0  0  0  0  0  0  0  0  0  0  0
  184.3980  179.6380  143.9350 N   0  0  0  0  0  2  0  0  0  0  0  0
  183.6690  178.7190  146.1680 C   0  0  0  0  0  2  0  0  0  0  0  0
  185.1290  178.4070  146.4500 C   0  0  0  0  0  2  0  0  0  0  0  0
  185.6900  179.4010  147.3490 N   0  0  0  0  0  1  0  0  0  0  0  0
  2  7  1  6  0  0  0
  2  3  1  0  0  0  0
  3  5  1  0  0  0  0
  3 30  1  1  0  0  0
  4  1  1  0  0  0  0
  5  1  1  0  0  0  0
  6  4  1  0  0  0  0
  6  2  1  0  0  0  0
  8  7  1  0  0  0  0
  9  8  1  0  0  0  0
 10 11  1  6  0  0  0
 10  9  1  0  0  0  0
 10 12  1  0  0  0  0
 12 13  1  0  0  0  0
 13 14  1  6  0  0  0
 13 18  1  0  0  0  0
 15 22  1  0  0  0  0
 18 22  1  0  0  0  0
 18 17  1  1  0  0  0
 19 23  1  0  0  0  0
 21 24  1  1  0  0  0
 21 15  1  0  0  0  0
 21 19  1  0  0  0  0
 22 16  1  0  0  0  0
 22 20  1  0  0  0  0
 23 18  1  0  0  0  0
 24 25  1  0  0  0  0
 26 24  2  0  0  0  0
 28 13  1  0  0  0  0
 28 27  1  0  0  0  0
 29 28  2  0  0  0  0
 30 31  1  0  0  0  0
 31 32  1  0  0  0  0
 32 47  1  1  0  0  0
 32 34  1  0  0  0  0
 33 42  1  0  0  0  0
 34 33  2  0  0  0  0
 37 41  1  6  0  0  0
 38 37  1  0  0  0  0
 38 36  1  0  0  0  0
 39 35  1  0  0  0  0
 39 36  1  0  0  0  0
 40 34  1  1  0  0  0
 40 37  1  0  0  0  0
 40 35  1  0  0  0  0
 42 43  2  0  0  0  0
 43 44  1  0  0  0  0
 44 46  1  0  0  0  0
 44 45  2  0  0  0  0
 48 47  1  0  0  0  0
 48 49  1  0  0  0  0
 49 52  1  0  0  0  0
 50 53  1  0  0  0  0
 51 50  2  0  0  0  0
 52 50  1  0  0  0  0
 53 54  1  0  0  0  0
 54 55  1  0  0  0  0
M  END
>  <MODEL>
7

>  <REMARK>
 VINA RESULT:      -5.1      3.378      7.018
  Name = 
  22 active torsions:
  status: ('A' for Active; 'I' for Inactive)
    1  A    between atoms: C_1  and  C_29
    2  A    between atoms: C_2  and  O_28
    3  A    between atoms: C_2  and  C_31
    4  A    between atoms: C_4  and  C_40
    5  A    between atoms: C_6  and  C_14
    6  A    between atoms: C_6  and  C_20
    7  A    between atoms: C_6  and  O_22
    8  A    between atoms: C_8  and  O_22
    9  A    between atoms: C_8  and  C_35
   10  A    between atoms: C_10  and  C_32
   11  A    between atoms: C_13  and  N_48
   12  A    between atoms: C_13  and  C_52
   13  A    between atoms: C_19  and  C_45
   14  A    between atoms: C_26  and  C_49
   15  A    between atoms: C_27  and  C_54
   16  A    between atoms: O_28  and  C_33
   17  A    between atoms: C_32  and  C_39
   18  A    between atoms: C_33  and  C_34
   19  A    between atoms: C_33  and  C_49
   20  A    between atoms: C_34  and  C_52
   21  A    between atoms: C_35  and  O_51
   22  A    between atoms: O_51  and  C_54
                            x       y       z     vdW  Elec       q    Type
                         _______ _______ _______ _____ _____    ______ ____

>  <TORSDO>
F 22

$$$$
=
 OpenBabel10262420413D

 55 57  0  0  1  0  0  0  0  0999 V2000
  189.9940  173.9630  136.9190 S   0  0  0  0  0  0  0  0  0  0  0  0
  187.2160  175.1870  137.2410 C   0  0  2  0  0  3  0  0  0  0  0  0
  188.2740  176.1320  136.6540 C   0  0  2  0  0  3  0  0  0  0  0  0
  188.4270  173.0100  136.7940 C   0  0  0  0  0  2  0  0  0  0  0  0
  189.4330  175.4100  135.9570 C   0  0  0  0  0  2  0  0  0  0  0  0
  187.1870  173.8590  136.4850 C   0  0  0  0  0  2  0  0  0  0  0  0
  185.8650  175.8730  137.1490 C   0  0  0  0  0  2  0  0  0  0  0  0
  184.8710  174.9760  136.7540 O   0  0  0  0  0  0  0  0  0  0  0  0
  183.9530  175.0190  137.8090 C   0  0  0  0  0  2  0  0  0  0  0  0
  182.5280  175.0570  137.2800 C   0  0  1  0  0  3  0  0  0  0  0  0
  182.1380  173.6500  136.8650 C   0  0  0  0  0  1  0  0  0  0  0  0
  181.6580  175.5150  138.2940 O   0  0  0  0  0  0  0  0  0  0  0  0
  181.2160  176.8340  137.9960 C   0  0  2  0  0  0  0  0  0  0  0  0
  182.2250  177.5500  137.3500 F   0  0  0  0  0  0  0  0  0  0  0  0
  182.4910  179.5460  139.1040 C   0  0  0  0  0  2  0  0  0  0  0  0
  183.2310  177.4910  140.2490 C   0  0  0  0  0  1  0  0  0  0  0  0
  180.3160  176.5420  140.3420 C   0  0  0  0  0  1  0  0  0  0  0  0
  180.8300  177.5820  139.3350 C   0  0  1  0  0  0  0  0  0  0  0  0
  180.0050  180.0360  138.9830 C   0  0  0  0  0  2  0  0  0  0  0  0
  181.6270  178.9620  141.3340 C   0  0  0  0  0  1  0  0  0  0  0  0
  181.3600  180.2430  138.3290 C   0  0  1  0  0  3  0  0  0  0  0  0
  182.0310  178.3740  139.9840 C   0  0  0  0  0  0  0  0  0  0  0  0
  179.6380  178.5440  139.0600 C   0  0  0  0  0  2  0  0  0  0  0  0
  181.6540  181.7010  138.1840 C   0  0  0  0  0  0  0  0  0  0  0  0
  180.7820  182.5510  137.4500 N   0  0  0  0  0  1  0  0  0  0  0  0
  182.6920  182.1780  138.7210 O   0  0  0  0  0  0  0  0  0  0  0  0
  179.8910  177.5860  136.1290 O   0  0  0  0  0  0  0  0  0  0  0  0
  180.0160  176.7600  137.0660 C   0  0  0  0  0  0  0  0  0  0  0  0
  179.0330  175.7960  137.2580 O   0  0  0  0  0  1  0  0  0  0  0  0
  188.7890  177.0840  137.7210 C   0  0  0  0  0  2  0  0  0  0  0  0
  189.3240  176.3360  138.7870 O   0  0  0  0  0  0  0  0  0  0  0  0
  190.0900  177.1960  139.6100 C   0  0  1  0  0  3  0  0  0  0  0  0
  190.7810  176.8790  141.9440 C   0  0  0  0  0  3  0  0  0  0  0  0
  189.7690  177.1220  141.0960 C   0  0  0  0  0  0  0  0  0  0  0  0
  188.2360  176.7820  143.0510 C   0  0  0  0  0  2  0  0  0  0  0  0
  186.2410  178.2560  143.3590 C   0  0  0  0  0  2  0  0  0  0  0  0
  187.7490  178.6310  141.3910 C   0  0  1  0  0  3  0  0  0  0  0  0
  186.3090  178.6820  141.8950 C   0  0  0  0  0  2  0  0  0  0  0  0
  186.7810  176.8390  143.5180 C   0  0  0  0  0  2  0  0  0  0  0  0
  188.3460  177.2310  141.5930 C   0  0  1  0  0  3  0  0  0  0  0  0
  187.7760  178.9800  140.0450 O   0  0  0  0  0  1  0  0  0  0  0  0
  190.7440  176.7880  143.4160 C   0  0  0  0  0  3  0  0  0  0  0  0
  191.8000  176.5410  144.1840 C   0  0  0  0  0  3  0  0  0  0  0  0
  191.6820  176.4160  145.6410 C   0  0  0  0  0  0  0  0  0  0  0  0
  192.0510  175.3490  146.2040 O   0  0  0  0  0  0  0  0  0  0  0  0
  191.1280  177.4660  146.4290 N   0  0  0  0  0  1  0  0  0  0  0  0
  191.5780  177.2000  139.2480 C   0  0  0  0  0  2  0  0  0  0  0  0
  191.9470  175.8980  138.5670 C   0  0  0  0  0  2  0  0  0  0  0  0
  193.1780  176.1200  137.7170 C   0  0  0  0  0  2  0  0  0  0  0  0
  195.4030  175.0150  137.2810 C   0  0  0  0  0  0  0  0  0  0  0  0
  195.6350  175.7830  136.3130 O   0  0  0  0  0  0  0  0  0  0  0  0
  194.1700  175.0950  137.9970 N   0  0  0  0  0  2  0  0  0  0  0  0
  196.4130  173.9920  137.6650 C   0  0  0  0  0  2  0  0  0  0  0  0
  195.7490  172.6680  138.0000 C   0  0  0  0  0  2  0  0  0  0  0  0
  196.5740  171.5620  137.5450 N   0  0  0  0  0  1  0  0  0  0  0  0
  2  7  1  6  0  0  0
  3  2  1  0  0  0  0
  3 30  1  1  0  0  0
  4  1  1  0  0  0  0
  5  3  1  0  0  0  0
  5  1  1  0  0  0  0
  6  4  1  0  0  0  0
  6  2  1  0  0  0  0
  8  7  1  0  0  0  0
  8  9  1  0  0  0  0
 10 11  1  1  0  0  0
 10  9  1  0  0  0  0
 10 12  1  0  0  0  0
 13 14  1  6  0  0  0
 13 12  1  0  0  0  0
 13 18  1  0  0  0  0
 15 22  1  0  0  0  0
 18 22  1  0  0  0  0
 18 17  1  1  0  0  0
 19 23  1  0  0  0  0
 21 24  1  1  0  0  0
 21 19  1  0  0  0  0
 21 15  1  0  0  0  0
 22 16  1  0  0  0  0
 22 20  1  0  0  0  0
 23 18  1  0  0  0  0
 24 26  2  0  0  0  0
 25 24  1  0  0  0  0
 27 28  2  0  0  0  0
 28 29  1  0  0  0  0
 28 13  1  0  0  0  0
 30 31  1  0  0  0  0
 31 32  1  0  0  0  0
 32 47  1  1  0  0  0
 32 34  1  0  0  0  0
 33 42  1  0  0  0  0
 34 33  2  0  0  0  0
 35 39  1  0  0  0  0
 36 39  1  0  0  0  0
 37 41  1  6  0  0  0
 37 40  1  0  0  0  0
 37 38  1  0  0  0  0
 38 36  1  0  0  0  0
 40 34  1  1  0  0  0
 40 35  1  0  0  0  0
 42 43  2  0  0  0  0
 43 44  1  0  0  0  0
 44 45  2  0  0  0  0
 44 46  1  0  0  0  0
 48 47  1  0  0  0  0
 49 52  1  0  0  0  0
 49 48  1  0  0  0  0
 50 53  1  0  0  0  0
 50 52  1  0  0  0  0
 51 50  2  0  0  0  0
 53 54  1  0  0  0  0
 55 54  1  0  0  0  0
M  END
>  <MODEL>
8

>  <REMARK>
 VINA RESULT:      -5.0      2.948      6.754
  Name = 
  22 active torsions:
  status: ('A' for Active; 'I' for Inactive)
    1  A    between atoms: C_1  and  C_29
    2  A    between atoms: C_2  and  O_28
    3  A    between atoms: C_2  and  C_31
    4  A    between atoms: C_4  and  C_40
    5  A    between atoms: C_6  and  C_14
    6  A    between atoms: C_6  and  C_20
    7  A    between atoms: C_6  and  O_22
    8  A    between atoms: C_8  and  O_22
    9  A    between atoms: C_8  and  C_35
   10  A    between atoms: C_10  and  C_32
   11  A    between atoms: C_13  and  N_48
   12  A    between atoms: C_13  and  C_52
   13  A    between atoms: C_19  and  C_45
   14  A    between atoms: C_26  and  C_49
   15  A    between atoms: C_27  and  C_54
   16  A    between atoms: O_28  and  C_33
   17  A    between atoms: C_32  and  C_39
   18  A    between atoms: C_33  and  C_34
   19  A    between atoms: C_33  and  C_49
   20  A    between atoms: C_34  and  C_52
   21  A    between atoms: C_35  and  O_51
   22  A    between atoms: O_51  and  C_54
                            x       y       z     vdW  Elec       q    Type
                         _______ _______ _______ _____ _____    ______ ____

>  <TORSDO>
F 22

$$$$
=
 OpenBabel10262420413D

 55 57  0  0  1  0  0  0  0  0999 V2000
  184.6440  179.3830  144.8620 S   0  0  0  0  0  0  0  0  0  0  0  0
  183.6930  179.0080  141.9860 C   0  0  2  0  0  3  0  0  0  0  0  0
  184.9150  178.1650  142.3770 C   0  0  2  0  0  3  0  0  0  0  0  0
  182.8930  179.5430  144.3270 C   0  0  0  0  0  2  0  0  0  0  0  0
  185.0240  177.8900  143.8810 C   0  0  0  0  0  2  0  0  0  0  0  0
  182.5640  178.8410  143.0030 C   0  0  0  0  0  2  0  0  0  0  0  0
  183.2310  178.5620  140.6110 C   0  0  0  0  0  2  0  0  0  0  0  0
  183.7700  179.3730  139.6110 O   0  0  0  0  0  0  0  0  0  0  0  0
  182.6540  179.7510  138.8570 C   0  0  0  0  0  2  0  0  0  0  0  0
  181.6790  178.5920  138.7210 C   0  0  1  0  0  3  0  0  0  0  0  0
  180.2910  179.0960  139.0750 C   0  0  0  0  0  1  0  0  0  0  0  0
  181.6900  178.1150  137.3910 O   0  0  0  0  0  0  0  0  0  0  0  0
  181.9350  176.7140  137.3800 C   0  0  2  0  0  0  0  0  0  0  0  0
  182.5580  176.3200  138.5660 F   0  0  0  0  0  0  0  0  0  0  0  0
  184.6200  174.9860  137.4870 C   0  0  0  0  0  2  0  0  0  0  0  0
  184.9440  177.4190  137.2420 C   0  0  0  0  0  1  0  0  0  0  0  0
  182.7480  177.4530  135.1020 C   0  0  0  0  0  1  0  0  0  0  0  0
  182.8720  176.3480  136.1600 C   0  0  1  0  0  0  0  0  0  0  0  0
  183.1760  173.7790  135.7860 C   0  0  0  0  0  2  0  0  0  0  0  0
  185.2560  175.9640  135.3190 C   0  0  0  0  0  1  0  0  0  0  0  0
  183.7040  173.7830  137.2110 C   0  0  1  0  0  3  0  0  0  0  0  0
  184.3910  176.1880  136.5580 C   0  0  0  0  0  0  0  0  0  0  0  0
  182.3530  175.0440  135.4880 C   0  0  0  0  0  2  0  0  0  0  0  0
  184.4220  172.5060  137.5050 C   0  0  0  0  0  0  0  0  0  0  0  0
  185.8170  172.5000  137.7790 N   0  0  0  0  0  1  0  0  0  0  0  0
  183.7760  171.4210  137.5070 O   0  0  0  0  0  0  0  0  0  0  0  0
  180.3490  175.0290  138.0510 O   0  0  0  0  0  1  0  0  0  0  0  0
  180.6100  175.9770  137.2710 C   0  0  0  0  0  0  0  0  0  0  0  0
  179.6880  176.3260  136.2920 O   0  0  0  0  0  0  0  0  0  0  0  0
  186.1910  178.7970  141.8450 C   0  0  0  0  0  2  0  0  0  0  0  0
  187.1710  177.7980  141.6890 O   0  0  0  0  0  0  0  0  0  0  0  0
  188.4060  178.2890  142.1740 C   0  0  1  0  0  3  0  0  0  0  0  0
  189.6530  176.3930  143.1090 C   0  0  0  0  0  3  0  0  0  0  0  0
  188.9810  177.5280  143.3600 C   0  0  0  0  0  0  0  0  0  0  0  0
  187.5880  177.1970  145.4170 C   0  0  0  0  0  2  0  0  0  0  0  0
  188.5650  177.6090  147.6810 C   0  0  0  0  0  2  0  0  0  0  0  0
  189.9940  177.9500  145.6490 C   0  0  1  0  0  3  0  0  0  0  0  0
  189.6890  178.4360  147.0640 C   0  0  0  0  0  2  0  0  0  0  0  0
  187.3060  177.7170  146.8290 C   0  0  0  0  0  2  0  0  0  0  0  0
  188.7300  177.9870  144.7780 C   0  0  1  0  0  3  0  0  0  0  0  0
  190.9890  178.7490  145.0940 O   0  0  0  0  0  1  0  0  0  0  0  0
  190.3260  175.4930  144.0660 C   0  0  0  0  0  3  0  0  0  0  0  0
  191.6420  175.3270  144.1490 C   0  0  0  0  0  3  0  0  0  0  0  0
  192.2420  174.3790  145.0940 C   0  0  0  0  0  0  0  0  0  0  0  0
  192.7580  173.3130  144.6590 O   0  0  0  0  0  0  0  0  0  0  0  0
  192.2210  174.6240  146.4970 N   0  0  0  0  0  1  0  0  0  0  0  0
  189.3950  178.6280  141.0550 C   0  0  0  0  0  2  0  0  0  0  0  0
  189.0580  177.8350  139.8090 C   0  0  0  0  0  2  0  0  0  0  0  0
  190.2250  176.9370  139.4680 C   0  0  0  0  0  2  0  0  0  0  0  0
  189.3050  176.3180  137.2020 C   0  0  0  0  0  0  0  0  0  0  0  0
  188.2440  175.8760  137.7140 O   0  0  0  0  0  0  0  0  0  0  0  0
  190.3590  176.8180  138.0250 N   0  0  0  0  0  2  0  0  0  0  0  0
  189.4720  176.2920  135.7230 C   0  0  0  0  0  2  0  0  0  0  0  0
  190.4340  175.1950  135.3020 C   0  0  0  0  0  2  0  0  0  0  0  0
  191.6770  175.7730  134.8200 N   0  0  0  0  0  1  0  0  0  0  0  0
  2  7  1  6  0  0  0
  2  3  1  0  0  0  0
  2  6  1  0  0  0  0
  3 30  1  1  0  0  0
  3  5  1  0  0  0  0
  4  1  1  0  0  0  0
  5  1  1  0  0  0  0
  6  4  1  0  0  0  0
  8  7  1  0  0  0  0
  9  8  1  0  0  0  0
 10  9  1  0  0  0  0
 10 11  1  6  0  0  0
 12 10  1  0  0  0  0
 13 12  1  0  0  0  0
 13 14  1  1  0  0  0
 18 17  1  6  0  0  0
 18 22  1  0  0  0  0
 18 13  1  0  0  0  0
 19 21  1  0  0  0  0
 20 22  1  0  0  0  0
 21 15  1  0  0  0  0
 21 24  1  6  0  0  0
 22 16  1  0  0  0  0
 22 15  1  0  0  0  0
 23 19  1  0  0  0  0
 23 18  1  0  0  0  0
 24 26  2  0  0  0  0
 24 25  1  0  0  0  0
 28 13  1  0  0  0  0
 28 27  1  0  0  0  0
 29 28  2  0  0  0  0
 31 30  1  0  0  0  0
 31 32  1  0  0  0  0
 32 47  1  6  0  0  0
 32 34  1  0  0  0  0
 33 34  2  0  0  0  0
 33 42  1  0  0  0  0
 35 39  1  0  0  0  0
 37 41  1  6  0  0  0
 37 38  1  0  0  0  0
 38 36  1  0  0  0  0
 39 36  1  0  0  0  0
 40 34  1  6  0  0  0
 40 35  1  0  0  0  0
 40 37  1  0  0  0  0
 42 43  2  0  0  0  0
 43 44  1  0  0  0  0
 44 46  1  0  0  0  0
 45 44  2  0  0  0  0
 48 47  1  0  0  0  0
 49 48  1  0  0  0  0
 50 51  2  0  0  0  0
 50 52  1  0  0  0  0
 52 49  1  0  0  0  0
 53 50  1  0  0  0  0
 54 53  1  0  0  0  0
 55 54  1  0  0  0  0
M  END
>  <MODEL>
9

>  <REMARK>
 VINA RESULT:      -4.4      2.125      5.796
  Name = 
  22 active torsions:
  status: ('A' for Active; 'I' for Inactive)
    1  A    between atoms: C_1  and  C_29
    2  A    between atoms: C_2  and  O_28
    3  A    between atoms: C_2  and  C_31
    4  A    between atoms: C_4  and  C_40
    5  A    between atoms: C_6  and  C_14
    6  A    between atoms: C_6  and  C_20
    7  A    between atoms: C_6  and  O_22
    8  A    between atoms: C_8  and  O_22
    9  A    between atoms: C_8  and  C_35
   10  A    between atoms: C_10  and  C_32
   11  A    between atoms: C_13  and  N_48
   12  A    between atoms: C_13  and  C_52
   13  A    between atoms: C_19  and  C_45
   14  A    between atoms: C_26  and  C_49
   15  A    between atoms: C_27  and  C_54
   16  A    between atoms: O_28  and  C_33
   17  A    between atoms: C_32  and  C_39
   18  A    between atoms: C_33  and  C_34
   19  A    between atoms: C_33  and  C_49
   20  A    between atoms: C_34  and  C_52
   21  A    between atoms: C_35  and  O_51
   22  A    between atoms: O_51  and  C_54
                            x       y       z     vdW  Elec       q    Type
                         _______ _______ _______ _____ _____    ______ ____

>  <TORSDO>
F 22

$$$$
