=
 OpenBabel10262423163D

 34 39  0  0  1  0  0  0  0  0999 V2000
  182.8370  178.9750  141.9540 C   0  0  2  0  0  3  0  0  0  0  0  0
  183.9270  177.9630  138.6360 C   0  0  0  0  0  3  0  0  0  0  0  0
  182.2390  176.8320  140.0690 C   0  0  0  0  0  2  0  0  0  0  0  0
  180.4720  179.7900  141.6730 C   0  0  0  0  0  3  0  0  0  0  0  0
  178.9310  178.6860  140.1650 C   0  0  0  0  0  3  0  0  0  0  0  0
  179.2050  179.6980  141.0900 C   0  0  0  0  0  3  0  0  0  0  0  0
  181.1960  177.8590  140.3920 C   0  0  0  0  0  0  0  0  0  0  0  0
  181.4690  178.8720  141.3280 C   0  0  0  0  0  0  0  0  0  0  0  0
  179.9250  177.7640  139.8210 C   0  0  0  0  0  3  0  0  0  0  0  0
  185.1450  178.3340  138.2450 C   0  0  0  0  0  3  0  0  0  0  0  0
  186.3540  178.3300  139.0980 C   0  0  0  0  0  0  0  0  0  0  0  0
  186.3510  178.6220  140.4120 C   0  0  0  0  0  3  0  0  0  0  0  0
  183.6540  177.4210  139.9990 C   0  0  2  0  0  3  0  0  0  0  0  0
  185.1750  178.9260  141.2520 C   0  0  0  0  0  3  0  0  0  0  0  0
  183.9410  178.4520  141.0660 C   0  0  0  0  0  0  0  0  0  0  0  0
  187.6610  178.1180  138.3970 C   0  0  1  0  0  3  0  0  0  0  0  0
  187.8080  179.0330  137.2780 N   0  0  0  0  0  1  0  0  0  0  0  0
  188.8290  178.2730  139.3540 C   0  0  0  0  0  1  0  0  0  0  0  0
  182.9060  178.5150  143.2900 O   0  0  0  0  0  0  0  0  0  0  0  0
  183.5370  179.4890  144.0850 C   0  0  0  0  0  2  0  0  0  0  0  0
  183.7830  178.9490  145.4840 C   0  0  0  0  0  2  0  0  0  0  0  0
  187.2160  177.5850  144.6320 C   0  0  0  0  0  3  0  0  0  0  0  0
  185.8300  178.5600  146.8680 C   0  0  0  0  0  3  0  0  0  0  0  0
  189.8380  177.3490  147.2370 C   0  0  0  0  0  0  0  0  0  0  0  0
  189.1910  177.2660  145.9960 C   0  0  0  0  0  3  0  0  0  0  0  0
  187.8580  177.6610  145.8700 C   0  0  0  0  0  0  0  0  0  0  0  0
  187.8110  178.2540  148.2280 C   0  0  0  0  0  3  0  0  0  0  0  0
  187.1610  178.1540  146.9960 C   0  0  0  0  0  0  0  0  0  0  0  0
  189.1470  177.8590  148.3470 C   0  0  0  0  0  3  0  0  0  0  0  0
  185.1910  178.4770  145.6260 C   0  0  0  0  0  0  0  0  0  0  0  0
  185.8840  177.9950  144.5100 C   0  0  0  0  0  3  0  0  0  0  0  0
  191.2870  176.9820  147.3570 C   0  0  0  0  0  3  0  0  0  0  0  0
  191.4530  175.4700  147.3310 C   0  0  0  0  0  2  0  0  0  0  0  0
  191.7640  176.2810  146.0960 C   0  0  0  0  0  2  0  0  0  0  0  0
  1 19  1  1  0  0  0
  3  7  1  0  0  0  0
  5  6  1  0  0  0  0
  6  4  2  0  0  0  0
  7  8  2  0  0  0  0
  8  4  1  0  0  0  0
  8  1  1  0  0  0  0
  9  5  2  0  0  0  0
  9  7  1  0  0  0  0
 10  2  2  0  0  0  0
 10 11  1  0  0  0  0
 11 12  2  0  0  0  0
 12 14  1  0  0  0  0
 13  2  1  6  0  0  0
 13  3  1  0  0  0  0
 13 15  1  0  0  0  0
 15 14  2  0  0  0  0
 15  1  1  0  0  0  0
 16 11  1  0  0  0  0
 16 18  1  1  0  0  0
 17 16  1  0  0  0  0
 19 20  1  0  0  0  0
 20 21  1  0  0  0  0
 21 30  1  0  0  0  0
 22 26  1  0  0  0  0
 23 28  1  0  0  0  0
 24 32  1  0  0  0  0
 24 29  1  0  0  0  0
 25 24  2  0  0  0  0
 26 25  1  0  0  0  0
 26 28  2  0  0  0  0
 27 29  2  0  0  0  0
 28 27  1  0  0  0  0
 30 23  2  0  0  0  0
 31 22  2  0  0  0  0
 31 30  1  0  0  0  0
 33 32  1  0  0  0  0
 34 33  1  0  0  0  0
 34 32  1  0  0  0  0
M  END
>  <MODEL>
1

>  <REMARK>
 VINA RESULT:     -10.7      0.000      0.000
  Name = 
  6 active torsions:
  status: ('A' for Active; 'I' for Inactive)
    1  A    between atoms: C_1  and  O_9
    2  A    between atoms: C_3  and  C_25
    3  A    between atoms: C_7  and  C_11
    4  A    between atoms: C_8  and  O_9
    5  A    between atoms: C_8  and  C_18
    6  A    between atoms: C_18  and  C_30
                            x       y       z     vdW  Elec       q    Type
                         _______ _______ _______ _____ _____    ______ ____

>  <TORSDO>
F 6

$$$$
=
 OpenBabel10262423163D

 34 39  0  0  1  0  0  0  0  0999 V2000
  184.5060  178.9220  140.0010 C   0  0  2  0  0  3  0  0  0  0  0  0
  186.3260  178.0740  136.9700 C   0  0  0  0  0  3  0  0  0  0  0  0
  184.1590  177.1240  137.7310 C   0  0  0  0  0  2  0  0  0  0  0  0
  182.4590  180.1720  139.2370 C   0  0  0  0  0  3  0  0  0  0  0  0
  181.2610  179.5210  137.2350 C   0  0  0  0  0  3  0  0  0  0  0  0
  181.4080  180.3690  138.3370 C   0  0  0  0  0  3  0  0  0  0  0  0
  183.2270  178.2830  137.9190 C   0  0  0  0  0  0  0  0  0  0  0  0
  183.3700  179.1300  139.0330 C   0  0  0  0  0  0  0  0  0  0  0  0
  182.1670  178.4760  137.0300 C   0  0  0  0  0  3  0  0  0  0  0  0
  187.6450  178.2590  136.9690 C   0  0  0  0  0  3  0  0  0  0  0  0
  188.5520  177.9520  138.0960 C   0  0  0  0  0  0  0  0  0  0  0  0
  188.2220  178.1040  139.3920 C   0  0  0  0  0  3  0  0  0  0  0  0
  185.6060  177.4540  138.1200 C   0  0  2  0  0  3  0  0  0  0  0  0
  186.9140  178.5260  139.9330 C   0  0  0  0  0  3  0  0  0  0  0  0
  185.7270  178.3030  139.3650 C   0  0  0  0  0  0  0  0  0  0  0  0
  189.9590  177.5810  137.7370 C   0  0  1  0  0  3  0  0  0  0  0  0
  190.6560  177.0120  138.8780 N   0  0  0  0  0  1  0  0  0  0  0  0
  189.9900  176.6100  136.5700 C   0  0  0  0  0  1  0  0  0  0  0  0
  184.1300  178.3230  141.2260 O   0  0  0  0  0  0  0  0  0  0  0  0
  184.5510  179.1390  142.2920 C   0  0  0  0  0  2  0  0  0  0  0  0
  184.4490  178.3840  143.6070 C   0  0  0  0  0  2  0  0  0  0  0  0
  188.1160  177.4280  143.6840 C   0  0  0  0  0  3  0  0  0  0  0  0
  186.0530  178.0200  145.4900 C   0  0  0  0  0  3  0  0  0  0  0  0
  189.9070  177.1270  146.9120 C   0  0  0  0  0  0  0  0  0  0  0  0
  189.6500  177.1290  145.5330 C   0  0  0  0  0  3  0  0  0  0  0  0
  188.3700  177.4190  145.0570 C   0  0  0  0  0  0  0  0  0  0  0  0
  187.5920  177.7350  147.3400 C   0  0  0  0  0  3  0  0  0  0  0  0
  187.3310  177.7190  145.9670 C   0  0  0  0  0  0  0  0  0  0  0  0
  188.8770  177.4470  147.8090 C   0  0  0  0  0  3  0  0  0  0  0  0
  185.8030  178.0230  144.1140 C   0  0  0  0  0  0  0  0  0  0  0  0
  186.8340  177.7320  143.2130 C   0  0  0  0  0  3  0  0  0  0  0  0
  191.2950  176.8750  147.4180 C   0  0  0  0  0  3  0  0  0  0  0  0
  191.5080  175.3890  147.6640 C   0  0  0  0  0  2  0  0  0  0  0  0
  192.0800  176.0350  146.4240 C   0  0  0  0  0  2  0  0  0  0  0  0
  1 19  1  1  0  0  0
  3  7  1  0  0  0  0
  3 13  1  0  0  0  0
  5  6  1  0  0  0  0
  6  4  2  0  0  0  0
  7  8  2  0  0  0  0
  8  4  1  0  0  0  0
  8  1  1  0  0  0  0
  9  5  2  0  0  0  0
  9  7  1  0  0  0  0
 10  2  2  0  0  0  0
 10 11  1  0  0  0  0
 11 12  2  0  0  0  0
 12 14  1  0  0  0  0
 13  2  1  6  0  0  0
 13 15  1  0  0  0  0
 15 14  2  0  0  0  0
 15  1  1  0  0  0  0
 16 18  1  6  0  0  0
 16 11  1  0  0  0  0
 16 17  1  0  0  0  0
 19 20  1  0  0  0  0
 20 21  1  0  0  0  0
 21 30  1  0  0  0  0
 22 26  1  0  0  0  0
 23 28  1  0  0  0  0
 24 32  1  0  0  0  0
 24 29  1  0  0  0  0
 25 24  2  0  0  0  0
 26 25  1  0  0  0  0
 26 28  2  0  0  0  0
 27 29  2  0  0  0  0
 28 27  1  0  0  0  0
 30 23  2  0  0  0  0
 31 22  2  0  0  0  0
 31 30  1  0  0  0  0
 32 33  1  0  0  0  0
 34 32  1  0  0  0  0
 34 33  1  0  0  0  0
M  END
>  <MODEL>
2

>  <REMARK>
 VINA RESULT:      -9.9      1.866      2.384
  Name = 
  6 active torsions:
  status: ('A' for Active; 'I' for Inactive)
    1  A    between atoms: C_1  and  O_9
    2  A    between atoms: C_3  and  C_25
    3  A    between atoms: C_7  and  C_11
    4  A    between atoms: C_8  and  O_9
    5  A    between atoms: C_8  and  C_18
    6  A    between atoms: C_18  and  C_30
                            x       y       z     vdW  Elec       q    Type
                         _______ _______ _______ _____ _____    ______ ____

>  <TORSDO>
F 6

$$$$
=
 OpenBabel10262423163D

 34 39  0  0  1  0  0  0  0  0999 V2000
  180.0360  179.6080  140.4350 C   0  0  2  0  0  3  0  0  0  0  0  0
  181.2360  180.9120  137.2610 C   0  0  0  0  0  3  0  0  0  0  0  0
  182.5940  179.8670  139.0610 C   0  0  0  0  0  2  0  0  0  0  0  0
  180.2810  177.1080  140.2790 C   0  0  0  0  0  3  0  0  0  0  0  0
  182.1930  176.0970  139.1880 C   0  0  0  0  0  3  0  0  0  0  0  0
  180.9800  175.9680  139.8710 C   0  0  0  0  0  3  0  0  0  0  0  0
  182.0080  178.5100  139.3050 C   0  0  0  0  0  0  0  0  0  0  0  0
  180.7920  178.3800  140.0000 C   0  0  0  0  0  0  0  0  0  0  0  0
  182.7090  177.3670  138.9100 C   0  0  0  0  0  3  0  0  0  0  0  0
  180.5160  181.8660  136.6720 C   0  0  0  0  0  3  0  0  0  0  0  0
  179.8670  182.9990  137.3670 C   0  0  0  0  0  0  0  0  0  0  0  0
  179.3230  182.9180  138.5960 C   0  0  0  0  0  3  0  0  0  0  0  0
  181.5330  180.9220  138.7230 C   0  0  2  0  0  3  0  0  0  0  0  0
  179.3250  181.7450  139.4930 C   0  0  0  0  0  3  0  0  0  0  0  0
  180.2680  180.8020  139.5400 C   0  0  0  0  0  0  0  0  0  0  0  0
  179.7020  184.2590  136.5730 C   0  0  1  0  0  3  0  0  0  0  0  0
  179.4840  185.4010  137.4470 N   0  0  0  0  0  1  0  0  0  0  0  0
  180.9040  184.5080  135.6810 C   0  0  0  0  0  1  0  0  0  0  0  0
  180.1330  179.8980  141.8170 O   0  0  0  0  0  0  0  0  0  0  0  0
  180.8900  178.8950  142.4500 C   0  0  0  0  0  2  0  0  0  0  0  0
  181.6820  179.4830  143.6060 C   0  0  0  0  0  2  0  0  0  0  0  0
  185.0190  178.1470  142.4010 C   0  0  0  0  0  3  0  0  0  0  0  0
  183.7780  178.8530  144.8160 C   0  0  0  0  0  3  0  0  0  0  0  0
  187.7540  177.4880  144.8110 C   0  0  0  0  0  0  0  0  0  0  0  0
  187.0450  177.5910  143.6050 C   0  0  0  0  0  3  0  0  0  0  0  0
  185.7230  178.0380  143.6030 C   0  0  0  0  0  0  0  0  0  0  0  0
  185.8100  178.3090  146.0180 C   0  0  0  0  0  3  0  0  0  0  0  0
  185.0980  178.3950  144.8190 C   0  0  0  0  0  0  0  0  0  0  0  0
  187.1350  177.8640  146.0130 C   0  0  0  0  0  3  0  0  0  0  0  0
  183.0770  178.9560  143.6100 C   0  0  0  0  0  0  0  0  0  0  0  0
  183.6980  178.6080  142.4050 C   0  0  0  0  0  3  0  0  0  0  0  0
  189.1920  177.0660  144.8040 C   0  0  0  0  0  3  0  0  0  0  0  0
  190.0950  178.2560  145.0890 C   0  0  0  0  0  2  0  0  0  0  0  0
  189.8080  177.2530  146.1800 C   0  0  0  0  0  2  0  0  0  0  0  0
  1 19  1  1  0  0  0
  3  7  1  0  0  0  0
  5  6  1  0  0  0  0
  6  4  2  0  0  0  0
  7  8  2  0  0  0  0
  8  4  1  0  0  0  0
  8  1  1  0  0  0  0
  9  5  2  0  0  0  0
  9  7  1  0  0  0  0
 10  2  2  0  0  0  0
 10 11  1  0  0  0  0
 11 12  2  0  0  0  0
 12 14  1  0  0  0  0
 13  2  1  6  0  0  0
 13  3  1  0  0  0  0
 13 15  1  0  0  0  0
 14 15  2  0  0  0  0
 15  1  1  0  0  0  0
 16 18  1  1  0  0  0
 16 11  1  0  0  0  0
 16 17  1  0  0  0  0
 19 20  1  0  0  0  0
 20 21  1  0  0  0  0
 21 30  1  0  0  0  0
 22 31  2  0  0  0  0
 22 26  1  0  0  0  0
 23 28  1  0  0  0  0
 24 29  1  0  0  0  0
 25 24  2  0  0  0  0
 26 25  1  0  0  0  0
 26 28  2  0  0  0  0
 28 27  1  0  0  0  0
 29 27  2  0  0  0  0
 30 23  2  0  0  0  0
 31 30  1  0  0  0  0
 32 24  1  0  0  0  0
 32 33  1  0  0  0  0
 32 34  1  0  0  0  0
 33 34  1  0  0  0  0
M  END
>  <MODEL>
3

>  <REMARK>
 VINA RESULT:      -9.9      3.250      4.977
  Name = 
  6 active torsions:
  status: ('A' for Active; 'I' for Inactive)
    1  A    between atoms: C_1  and  O_9
    2  A    between atoms: C_3  and  C_25
    3  A    between atoms: C_7  and  C_11
    4  A    between atoms: C_8  and  O_9
    5  A    between atoms: C_8  and  C_18
    6  A    between atoms: C_18  and  C_30
                            x       y       z     vdW  Elec       q    Type
                         _______ _______ _______ _____ _____    ______ ____

>  <TORSDO>
F 6

$$$$
=
 OpenBabel10262423163D

 34 39  0  0  1  0  0  0  0  0999 V2000
  188.4180  177.5980  144.8590 C   0  0  2  0  0  3  0  0  0  0  0  0
  190.8710  177.1670  142.2110 C   0  0  0  0  0  3  0  0  0  0  0  0
  191.1380  178.4870  144.3000 C   0  0  0  0  0  2  0  0  0  0  0  0
  189.3150  176.3150  146.8310 C   0  0  0  0  0  3  0  0  0  0  0  0
  191.6810  176.2960  147.3490 C   0  0  0  0  0  3  0  0  0  0  0  0
  190.3750  175.8900  147.6370 C   0  0  0  0  0  3  0  0  0  0  0  0
  190.8760  177.5450  145.4360 C   0  0  0  0  0  0  0  0  0  0  0  0
  189.5610  177.1440  145.7310 C   0  0  0  0  0  0  0  0  0  0  0  0
  191.9300  177.1280  146.2530 C   0  0  0  0  0  3  0  0  0  0  0  0
  190.4190  176.8960  140.9870 C   0  0  0  0  0  3  0  0  0  0  0  0
  189.2340  177.5160  140.3570 C   0  0  0  0  0  0  0  0  0  0  0  0
  188.1180  177.8620  141.0270 C   0  0  0  0  0  3  0  0  0  0  0  0
  190.2510  178.2100  143.0790 C   0  0  2  0  0  3  0  0  0  0  0  0
  187.8870  177.7600  142.4820 C   0  0  0  0  0  3  0  0  0  0  0  0
  188.8240  177.8550  143.4280 C   0  0  0  0  0  0  0  0  0  0  0  0
  189.2560  177.6270  138.8630 C   0  0  1  0  0  3  0  0  0  0  0  0
  189.0550  179.0030  138.4390 N   0  0  0  0  0  1  0  0  0  0  0  0
  190.5550  177.0900  138.2920 C   0  0  0  0  0  1  0  0  0  0  0  0
  187.6210  178.6220  145.4240 O   0  0  0  0  0  0  0  0  0  0  0  0
  186.3810  178.0830  145.8160 C   0  0  0  0  0  2  0  0  0  0  0  0
  185.3150  179.1660  145.8210 C   0  0  0  0  0  2  0  0  0  0  0  0
  182.1200  178.8760  143.8030 C   0  0  0  0  0  3  0  0  0  0  0  0
  184.8930  178.8620  143.3750 C   0  0  0  0  0  3  0  0  0  0  0  0
  182.2580  178.5000  140.1200 C   0  0  0  0  0  0  0  0  0  0  0  0
  181.7520  178.6280  141.4220 C   0  0  0  0  0  3  0  0  0  0  0  0
  182.6240  178.7420  142.5070 C   0  0  0  0  0  0  0  0  0  0  0  0
  184.5230  178.6280  140.9920 C   0  0  0  0  0  3  0  0  0  0  0  0
  184.0200  178.7370  142.2910 C   0  0  0  0  0  0  0  0  0  0  0  0
  183.6450  178.5170  139.9100 C   0  0  0  0  0  3  0  0  0  0  0  0
  184.3820  178.9920  144.6720 C   0  0  0  0  0  0  0  0  0  0  0  0
  182.9990  179.0030  144.8830 C   0  0  0  0  0  3  0  0  0  0  0  0
  181.3200  178.4390  138.9520 C   0  0  0  0  0  3  0  0  0  0  0  0
  181.1550  179.8180  138.3320 C   0  0  0  0  0  2  0  0  0  0  0  0
  182.0470  178.7970  137.6660 C   0  0  0  0  0  2  0  0  0  0  0  0
  1 19  1  1  0  0  0
  1  8  1  0  0  0  0
  3  7  1  0  0  0  0
  4  6  1  0  0  0  0
  5  6  2  0  0  0  0
  7  8  1  0  0  0  0
  7  9  2  0  0  0  0
  8  4  2  0  0  0  0
  9  5  1  0  0  0  0
 10  2  2  0  0  0  0
 11 10  1  0  0  0  0
 11 12  2  0  0  0  0
 12 14  1  0  0  0  0
 13  2  1  1  0  0  0
 13 15  1  0  0  0  0
 13  3  1  0  0  0  0
 14 15  2  0  0  0  0
 15  1  1  0  0  0  0
 16 18  1  1  0  0  0
 16 11  1  0  0  0  0
 17 16  1  0  0  0  0
 19 20  1  0  0  0  0
 20 21  1  0  0  0  0
 22 31  1  0  0  0  0
 23 30  1  0  0  0  0
 24 25  2  0  0  0  0
 25 26  1  0  0  0  0
 26 22  2  0  0  0  0
 27 28  1  0  0  0  0
 28 26  1  0  0  0  0
 28 23  2  0  0  0  0
 29 24  1  0  0  0  0
 29 27  2  0  0  0  0
 30 31  2  0  0  0  0
 30 21  1  0  0  0  0
 32 24  1  0  0  0  0
 33 32  1  0  0  0  0
 34 33  1  0  0  0  0
 34 32  1  0  0  0  0
M  END
>  <MODEL>
4

>  <REMARK>
 VINA RESULT:      -9.8      1.946      8.299
  Name = 
  6 active torsions:
  status: ('A' for Active; 'I' for Inactive)
    1  A    between atoms: C_1  and  O_9
    2  A    between atoms: C_3  and  C_25
    3  A    between atoms: C_7  and  C_11
    4  A    between atoms: C_8  and  O_9
    5  A    between atoms: C_8  and  C_18
    6  A    between atoms: C_18  and  C_30
                            x       y       z     vdW  Elec       q    Type
                         _______ _______ _______ _____ _____    ______ ____

>  <TORSDO>
F 6

$$$$
=
 OpenBabel10262423163D

 34 39  0  0  1  0  0  0  0  0999 V2000
  184.2570  179.4160  139.0080 C   0  0  2  0  0  3  0  0  0  0  0  0
  184.1190  177.0350  136.2640 C   0  0  0  0  0  3  0  0  0  0  0  0
  182.5400  177.2110  138.1760 C   0  0  0  0  0  2  0  0  0  0  0  0
  182.3140  180.9750  138.6520 C   0  0  0  0  0  3  0  0  0  0  0  0
  180.1780  180.1620  137.8480 C   0  0  0  0  0  3  0  0  0  0  0  0
  180.9900  181.2180  138.2730 C   0  0  0  0  0  3  0  0  0  0  0  0
  182.0150  178.6160  138.1670 C   0  0  0  0  0  0  0  0  0  0  0  0
  182.8290  179.6760  138.6030 C   0  0  0  0  0  0  0  0  0  0  0  0
  180.6890  178.8610  137.8010 C   0  0  0  0  0  3  0  0  0  0  0  0
  185.2610  176.7340  135.6480 C   0  0  0  0  0  3  0  0  0  0  0  0
  186.5630  176.5210  136.3160 C   0  0  0  0  0  0  0  0  0  0  0  0
  186.9710  177.1980  137.4060 C   0  0  0  0  0  3  0  0  0  0  0  0
  184.0110  177.1230  137.7490 C   0  0  2  0  0  3  0  0  0  0  0  0
  186.2030  178.2050  138.1660 C   0  0  0  0  0  3  0  0  0  0  0  0
  184.8750  178.2360  138.2970 C   0  0  0  0  0  0  0  0  0  0  0  0
  187.5150  175.5850  135.6360 C   0  0  1  0  0  3  0  0  0  0  0  0
  188.7750  175.5080  136.3560 N   0  0  0  0  0  1  0  0  0  0  0  0
  186.9130  174.1990  135.4910 C   0  0  0  0  0  1  0  0  0  0  0  0
  184.4820  179.4280  140.4050 O   0  0  0  0  0  0  0  0  0  0  0  0
  183.7820  178.3610  140.9980 C   0  0  0  0  0  2  0  0  0  0  0  0
  183.1100  178.8200  142.2810 C   0  0  0  0  0  2  0  0  0  0  0  0
  184.4140  178.7280  145.8390 C   0  0  0  0  0  3  0  0  0  0  0  0
  185.3140  178.1390  143.2480 C   0  0  0  0  0  3  0  0  0  0  0  0
  187.8400  177.5120  146.5480 C   0  0  0  0  0  0  0  0  0  0  0  0
  186.5460  178.0160  146.7400 C   0  0  0  0  0  3  0  0  0  0  0  0
  185.7060  178.2320  145.6470 C   0  0  0  0  0  0  0  0  0  0  0  0
  187.4410  177.4140  144.1520 C   0  0  0  0  0  3  0  0  0  0  0  0
  186.1580  177.9340  144.3420 C   0  0  0  0  0  0  0  0  0  0  0  0
  188.2760  177.1970  145.2520 C   0  0  0  0  0  3  0  0  0  0  0  0
  184.0220  178.6400  143.4460 C   0  0  0  0  0  0  0  0  0  0  0  0
  183.5730  178.9300  144.7400 C   0  0  0  0  0  3  0  0  0  0  0  0
  188.7190  177.2240  147.7280 C   0  0  0  0  0  3  0  0  0  0  0  0
  189.2840  178.5160  148.2960 C   0  0  0  0  0  2  0  0  0  0  0  0
  188.1310  177.8320  148.9910 C   0  0  0  0  0  2  0  0  0  0  0  0
  1 19  1  1  0  0  0
  5  6  1  0  0  0  0
  6  4  2  0  0  0  0
  7  3  1  0  0  0  0
  7  8  2  0  0  0  0
  8  4  1  0  0  0  0
  8  1  1  0  0  0  0
  9  5  2  0  0  0  0
  9  7  1  0  0  0  0
 10  2  2  0  0  0  0
 10 11  1  0  0  0  0
 11 12  2  0  0  0  0
 12 14  1  0  0  0  0
 13  2  1  6  0  0  0
 13  3  1  0  0  0  0
 13 15  1  0  0  0  0
 14 15  2  0  0  0  0
 15  1  1  0  0  0  0
 16 18  1  1  0  0  0
 16 11  1  0  0  0  0
 16 17  1  0  0  0  0
 19 20  1  0  0  0  0
 20 21  1  0  0  0  0
 21 30  1  0  0  0  0
 23 30  2  0  0  0  0
 23 28  1  0  0  0  0
 24 25  1  0  0  0  0
 24 32  1  0  0  0  0
 26 22  1  0  0  0  0
 26 25  2  0  0  0  0
 27 28  2  0  0  0  0
 27 29  1  0  0  0  0
 28 26  1  0  0  0  0
 29 24  2  0  0  0  0
 30 31  1  0  0  0  0
 31 22  2  0  0  0  0
 32 33  1  0  0  0  0
 32 34  1  0  0  0  0
 33 34  1  0  0  0  0
M  END
>  <MODEL>
5

>  <REMARK>
 VINA RESULT:      -9.8      2.142      3.296
  Name = 
  6 active torsions:
  status: ('A' for Active; 'I' for Inactive)
    1  A    between atoms: C_1  and  O_9
    2  A    between atoms: C_3  and  C_25
    3  A    between atoms: C_7  and  C_11
    4  A    between atoms: C_8  and  O_9
    5  A    between atoms: C_8  and  C_18
    6  A    between atoms: C_18  and  C_30
                            x       y       z     vdW  Elec       q    Type
                         _______ _______ _______ _____ _____    ______ ____

>  <TORSDO>
F 6

$$$$
=
 OpenBabel10262423163D

 34 39  0  0  1  0  0  0  0  0999 V2000
  188.4390  177.5290  144.9360 C   0  0  2  0  0  3  0  0  0  0  0  0
  190.8150  177.0900  142.2200 C   0  0  0  0  0  3  0  0  0  0  0  0
  191.1560  178.3860  144.3130 C   0  0  0  0  0  2  0  0  0  0  0  0
  189.3690  176.2150  146.8710 C   0  0  0  0  0  3  0  0  0  0  0  0
  191.7480  176.1590  147.3260 C   0  0  0  0  0  3  0  0  0  0  0  0
  190.4440  175.7680  147.6460 C   0  0  0  0  0  3  0  0  0  0  0  0
  190.9100  177.4370  145.4470 C   0  0  0  0  0  0  0  0  0  0  0  0
  189.5980  177.0510  145.7730 C   0  0  0  0  0  0  0  0  0  0  0  0
  191.9800  176.9970  146.2320 C   0  0  0  0  0  3  0  0  0  0  0  0
  190.3270  176.8360  141.0060 C   0  0  0  0  0  3  0  0  0  0  0  0
  189.1340  177.4790  140.4140 C   0  0  0  0  0  0  0  0  0  0  0  0
  188.0420  177.8340  141.1160 C   0  0  0  0  0  3  0  0  0  0  0  0
  190.2330  178.1330  143.1140 C   0  0  2  0  0  3  0  0  0  0  0  0
  187.8480  177.7220  142.5760 C   0  0  0  0  0  3  0  0  0  0  0  0
  188.8110  177.7940  143.4970 C   0  0  0  0  0  0  0  0  0  0  0  0
  189.1180  177.6040  138.9210 C   0  0  1  0  0  3  0  0  0  0  0  0
  188.8950  178.9820  138.5150 N   0  0  0  0  0  1  0  0  0  0  0  0
  190.4080  177.0840  138.3120 C   0  0  0  0  0  1  0  0  0  0  0  0
  187.6720  178.5580  145.5310 O   0  0  0  0  0  0  0  0  0  0  0  0
  186.3870  178.0680  145.8280 C   0  0  0  0  0  2  0  0  0  0  0  0
  185.3730  179.2000  145.8080 C   0  0  0  0  0  2  0  0  0  0  0  0
  184.1240  178.8580  142.2460 C   0  0  0  0  0  3  0  0  0  0  0  0
  183.0790  178.9400  144.8480 C   0  0  0  0  0  3  0  0  0  0  0  0
  180.5090  178.4320  141.5600 C   0  0  0  0  0  0  0  0  0  0  0  0
  181.8910  178.5610  141.3580 C   0  0  0  0  0  3  0  0  0  0  0  0
  182.7470  178.7370  142.4460 C   0  0  0  0  0  0  0  0  0  0  0  0
  180.8460  178.6290  143.9600 C   0  0  0  0  0  3  0  0  0  0  0  0
  182.2210  178.7760  143.7580 C   0  0  0  0  0  0  0  0  0  0  0  0
  179.9950  178.4510  142.8650 C   0  0  0  0  0  3  0  0  0  0  0  0
  184.4570  179.0660  144.6400 C   0  0  0  0  0  0  0  0  0  0  0  0
  184.9780  179.0200  143.3420 C   0  0  0  0  0  3  0  0  0  0  0  0
  179.5990  178.1840  140.3950 C   0  0  0  0  0  3  0  0  0  0  0  0
  179.0290  179.4960  139.8800 C   0  0  0  0  0  2  0  0  0  0  0  0
  180.1580  178.8240  139.1360 C   0  0  0  0  0  2  0  0  0  0  0  0
  1 19  1  1  0  0  0
  1  8  1  0  0  0  0
  3  7  1  0  0  0  0
  4  6  1  0  0  0  0
  5  6  2  0  0  0  0
  7  8  1  0  0  0  0
  7  9  2  0  0  0  0
  8  4  2  0  0  0  0
  9  5  1  0  0  0  0
 10  2  2  0  0  0  0
 11 10  1  0  0  0  0
 11 12  2  0  0  0  0
 12 14  1  0  0  0  0
 13  2  1  1  0  0  0
 13 15  1  0  0  0  0
 13  3  1  0  0  0  0
 14 15  2  0  0  0  0
 15  1  1  0  0  0  0
 16 18  1  1  0  0  0
 16 11  1  0  0  0  0
 17 16  1  0  0  0  0
 19 20  1  0  0  0  0
 21 20  1  0  0  0  0
 22 26  2  0  0  0  0
 22 31  1  0  0  0  0
 24 29  1  0  0  0  0
 25 24  2  0  0  0  0
 25 26  1  0  0  0  0
 26 28  1  0  0  0  0
 28 27  1  0  0  0  0
 28 23  2  0  0  0  0
 29 27  2  0  0  0  0
 30 23  1  0  0  0  0
 30 21  1  0  0  0  0
 31 30  2  0  0  0  0
 32 24  1  0  0  0  0
 33 32  1  0  0  0  0
 34 33  1  0  0  0  0
 34 32  1  0  0  0  0
M  END
>  <MODEL>
6

>  <REMARK>
 VINA RESULT:      -9.7      1.904      8.423
  Name = 
  6 active torsions:
  status: ('A' for Active; 'I' for Inactive)
    1  A    between atoms: C_1  and  O_9
    2  A    between atoms: C_3  and  C_25
    3  A    between atoms: C_7  and  C_11
    4  A    between atoms: C_8  and  O_9
    5  A    between atoms: C_8  and  C_18
    6  A    between atoms: C_18  and  C_30
                            x       y       z     vdW  Elec       q    Type
                         _______ _______ _______ _____ _____    ______ ____

>  <TORSDO>
F 6

$$$$
=
 OpenBabel10262423163D

 34 39  0  0  1  0  0  0  0  0999 V2000
  184.9940  177.8130  138.7200 C   0  0  2  0  0  3  0  0  0  0  0  0
  184.5540  175.1560  136.2780 C   0  0  0  0  0  3  0  0  0  0  0  0
  185.2470  177.5010  135.8320 C   0  0  0  0  0  2  0  0  0  0  0  0
  187.4730  178.2370  138.8240 C   0  0  0  0  0  3  0  0  0  0  0  0
  188.8450  178.1730  136.8280 C   0  0  0  0  0  3  0  0  0  0  0  0
  188.7240  178.3510  138.2100 C   0  0  0  0  0  3  0  0  0  0  0  0
  186.4650  177.7530  136.6690 C   0  0  0  0  0  0  0  0  0  0  0  0
  186.3410  177.9400  138.0570 C   0  0  0  0  0  0  0  0  0  0  0  0
  187.7150  177.8800  136.0580 C   0  0  0  0  0  3  0  0  0  0  0  0
  183.7150  174.1680  136.5840 C   0  0  0  0  0  3  0  0  0  0  0  0
  182.4070  174.3340  137.2550 C   0  0  0  0  0  0  0  0  0  0  0  0
  182.1600  175.2530  138.2080 C   0  0  0  0  0  3  0  0  0  0  0  0
  184.2260  176.5900  136.5260 C   0  0  2  0  0  3  0  0  0  0  0  0
  183.0890  176.2860  138.7080 C   0  0  0  0  0  3  0  0  0  0  0  0
  184.0610  176.8680  138.0020 C   0  0  0  0  0  0  0  0  0  0  0  0
  181.3580  173.3160  136.9290 C   0  0  1  0  0  3  0  0  0  0  0  0
  181.8390  171.9690  137.1870 N   0  0  0  0  0  1  0  0  0  0  0  0
  180.0820  173.5720  137.7110 C   0  0  0  0  0  1  0  0  0  0  0  0
  184.3990  179.0450  139.0800 O   0  0  0  0  0  0  0  0  0  0  0  0
  184.7760  179.3780  140.3950 C   0  0  0  0  0  2  0  0  0  0  0  0
  183.9670  178.5720  141.3960 C   0  0  0  0  0  2  0  0  0  0  0  0
  184.7380  178.6270  145.1070 C   0  0  0  0  0  3  0  0  0  0  0  0
  186.0110  177.9570  142.6980 C   0  0  0  0  0  3  0  0  0  0  0  0
  188.0340  177.4860  146.3530 C   0  0  0  0  0  0  0  0  0  0  0  0
  186.7210  177.9790  146.3360 C   0  0  0  0  0  3  0  0  0  0  0  0
  186.0480  178.1430  145.1240 C   0  0  0  0  0  0  0  0  0  0  0  0
  187.9900  177.2960  143.9300 C   0  0  0  0  0  3  0  0  0  0  0  0
  186.6890  177.8040  143.9110 C   0  0  0  0  0  0  0  0  0  0  0  0
  188.6570  177.1310  145.1470 C   0  0  0  0  0  3  0  0  0  0  0  0
  184.7000  178.4470  142.6880 C   0  0  0  0  0  0  0  0  0  0  0  0
  184.0640  178.7770  143.8900 C   0  0  0  0  0  3  0  0  0  0  0  0
  188.7320  177.2540  147.6590 C   0  0  0  0  0  3  0  0  0  0  0  0
  189.1280  178.5790  148.2910 C   0  0  0  0  0  2  0  0  0  0  0  0
  187.9220  177.8310  148.8070 C   0  0  0  0  0  2  0  0  0  0  0  0
  1 19  1  6  0  0  0
  2 13  1  0  0  0  0
  2 10  2  0  0  0  0
  3  7  1  0  0  0  0
  5  6  2  0  0  0  0
  6  4  1  0  0  0  0
  7  8  1  0  0  0  0
  8  1  1  0  0  0  0
  8  4  2  0  0  0  0
  9  7  2  0  0  0  0
  9  5  1  0  0  0  0
 10 11  1  0  0  0  0
 11 12  2  0  0  0  0
 12 14  1  0  0  0  0
 13  3  1  1  0  0  0
 13 15  1  0  0  0  0
 15 14  2  0  0  0  0
 15  1  1  0  0  0  0
 16 17  1  0  0  0  0
 16 11  1  0  0  0  0
 16 18  1  1  0  0  0
 19 20  1  0  0  0  0
 20 21  1  0  0  0  0
 21 30  1  0  0  0  0
 22 26  1  0  0  0  0
 23 28  1  0  0  0  0
 24 32  1  0  0  0  0
 25 24  1  0  0  0  0
 26 25  2  0  0  0  0
 27 29  1  0  0  0  0
 28 27  2  0  0  0  0
 28 26  1  0  0  0  0
 29 24  2  0  0  0  0
 30 23  2  0  0  0  0
 30 31  1  0  0  0  0
 31 22  2  0  0  0  0
 32 33  1  0  0  0  0
 32 34  1  0  0  0  0
 33 34  1  0  0  0  0
M  END
>  <MODEL>
7

>  <REMARK>
 VINA RESULT:      -9.5      2.724      5.578
  Name = 
  6 active torsions:
  status: ('A' for Active; 'I' for Inactive)
    1  A    between atoms: C_1  and  O_9
    2  A    between atoms: C_3  and  C_25
    3  A    between atoms: C_7  and  C_11
    4  A    between atoms: C_8  and  O_9
    5  A    between atoms: C_8  and  C_18
    6  A    between atoms: C_18  and  C_30
                            x       y       z     vdW  Elec       q    Type
                         _______ _______ _______ _____ _____    ______ ____

>  <TORSDO>
F 6

$$$$
=
 OpenBabel10262423163D

 34 39  0  0  1  0  0  0  0  0999 V2000
  187.0930  177.9140  138.9210 C   0  0  2  0  0  3  0  0  0  0  0  0
  183.6390  177.8090  140.0510 C   0  0  0  0  0  3  0  0  0  0  0  0
  184.4600  178.4700  137.8000 C   0  0  0  0  0  2  0  0  0  0  0  0
  187.3250  176.0300  137.2690 C   0  0  0  0  0  3  0  0  0  0  0  0
  185.5470  175.4950  135.7130 C   0  0  0  0  0  3  0  0  0  0  0  0
  186.8210  175.2420  136.2290 C   0  0  0  0  0  3  0  0  0  0  0  0
  185.2660  177.3170  137.2840 C   0  0  0  0  0  0  0  0  0  0  0  0
  186.5520  177.0690  137.7970 C   0  0  0  0  0  0  0  0  0  0  0  0
  184.7720  176.5350  136.2360 C   0  0  0  0  0  3  0  0  0  0  0  0
  183.4100  177.9460  141.3560 C   0  0  0  0  0  3  0  0  0  0  0  0
  184.1110  178.8930  142.2510 C   0  0  0  0  0  0  0  0  0  0  0  0
  185.4100  179.2250  142.1300 C   0  0  0  0  0  3  0  0  0  0  0  0
  184.6080  178.6710  139.3130 C   0  0  2  0  0  3  0  0  0  0  0  0
  186.3460  178.7810  141.0780 C   0  0  0  0  0  3  0  0  0  0  0  0
  186.0170  178.4710  139.8220 C   0  0  0  0  0  0  0  0  0  0  0  0
  183.3340  179.3890  143.4330 C   0  0  1  0  0  3  0  0  0  0  0  0
  181.9290  179.0330  143.3210 N   0  0  0  0  0  1  0  0  0  0  0  0
  183.9060  178.8500  144.7320 C   0  0  0  0  0  1  0  0  0  0  0  0
  188.0610  178.8670  138.5250 O   0  0  0  0  0  0  0  0  0  0  0  0
  189.1480  178.8240  139.4170 C   0  0  0  0  0  2  0  0  0  0  0  0
  189.4240  177.3930  139.8440 C   0  0  0  0  0  2  0  0  0  0  0  0
  191.0360  177.3090  143.2740 C   0  0  0  0  0  3  0  0  0  0  0  0
  188.4670  177.2310  142.1490 C   0  0  0  0  0  3  0  0  0  0  0  0
  188.9430  177.1230  146.3250 C   0  0  0  0  0  0  0  0  0  0  0  0
  190.0680  177.1970  145.4910 C   0  0  0  0  0  3  0  0  0  0  0  0
  189.9150  177.2270  144.1040 C   0  0  0  0  0  0  0  0  0  0  0  0
  187.4990  177.1340  144.3690 C   0  0  0  0  0  3  0  0  0  0  0  0
  188.6210  177.1900  143.5370 C   0  0  0  0  0  0  0  0  0  0  0  0
  187.6600  177.1080  145.7570 C   0  0  0  0  0  3  0  0  0  0  0  0
  189.5940  177.3080  141.3230 C   0  0  0  0  0  0  0  0  0  0  0  0
  190.8750  177.3510  141.8850 C   0  0  0  0  0  3  0  0  0  0  0  0
  189.1070  177.1520  147.8140 C   0  0  0  0  0  3  0  0  0  0  0  0
  189.1140  178.5870  148.3180 C   0  0  0  0  0  2  0  0  0  0  0  0
  187.8720  177.7420  148.4750 C   0  0  0  0  0  2  0  0  0  0  0  0
  1 19  1  6  0  0  0
  1 15  1  0  0  0  0
  2 10  2  0  0  0  0
  4  8  1  0  0  0  0
  5  6  1  0  0  0  0
  5  9  2  0  0  0  0
  6  4  2  0  0  0  0
  7  8  2  0  0  0  0
  7  3  1  0  0  0  0
  8  1  1  0  0  0  0
  9  7  1  0  0  0  0
 10 11  1  0  0  0  0
 11 16  1  0  0  0  0
 12 11  2  0  0  0  0
 13  3  1  6  0  0  0
 13 15  1  0  0  0  0
 13  2  1  0  0  0  0
 14 12  1  0  0  0  0
 15 14  2  0  0  0  0
 16 18  1  1  0  0  0
 17 16  1  0  0  0  0
 19 20  1  0  0  0  0
 20 21  1  0  0  0  0
 21 30  1  0  0  0  0
 22 26  1  0  0  0  0
 23 28  1  0  0  0  0
 24 32  1  0  0  0  0
 25 24  2  0  0  0  0
 26 25  1  0  0  0  0
 27 29  2  0  0  0  0
 28 26  2  0  0  0  0
 28 27  1  0  0  0  0
 29 24  1  0  0  0  0
 30 31  1  0  0  0  0
 30 23  2  0  0  0  0
 31 22  2  0  0  0  0
 32 33  1  0  0  0  0
 32 34  1  0  0  0  0
 33 34  1  0  0  0  0
M  END
>  <MODEL>
8

>  <REMARK>
 VINA RESULT:      -9.4      2.691      5.426
  Name = 
  6 active torsions:
  status: ('A' for Active; 'I' for Inactive)
    1  A    between atoms: C_1  and  O_9
    2  A    between atoms: C_3  and  C_25
    3  A    between atoms: C_7  and  C_11
    4  A    between atoms: C_8  and  O_9
    5  A    between atoms: C_8  and  C_18
    6  A    between atoms: C_18  and  C_30
                            x       y       z     vdW  Elec       q    Type
                         _______ _______ _______ _____ _____    ______ ____

>  <TORSDO>
F 6

$$$$
=
 OpenBabel10262423163D

 34 39  0  0  1  0  0  0  0  0999 V2000
  181.9730  178.3570  139.1530 C   0  0  2  0  0  3  0  0  0  0  0  0
  179.8310  180.1160  136.8000 C   0  0  0  0  0  3  0  0  0  0  0  0
  181.0040  177.9550  136.4330 C   0  0  0  0  0  2  0  0  0  0  0  0
  180.6850  176.3080  139.8430 C   0  0  0  0  0  3  0  0  0  0  0  0
  179.3450  175.0690  138.2510 C   0  0  0  0  0  3  0  0  0  0  0  0
  179.8300  175.2420  139.5510 C   0  0  0  0  0  3  0  0  0  0  0  0
  180.5600  177.0370  137.5310 C   0  0  0  0  0  0  0  0  0  0  0  0
  181.0540  177.2060  138.8360 C   0  0  0  0  0  0  0  0  0  0  0  0
  179.7140  175.9620  137.2410 C   0  0  0  0  0  3  0  0  0  0  0  0
  179.7180  181.4360  136.9340 C   0  0  0  0  0  3  0  0  0  0  0  0
  180.8270  182.3610  137.2560 C   0  0  0  0  0  0  0  0  0  0  0  0
  181.8490  182.0550  138.0760 C   0  0  0  0  0  3  0  0  0  0  0  0
  181.1430  179.4120  136.8950 C   0  0  2  0  0  3  0  0  0  0  0  0
  182.0980  180.7610  138.7420 C   0  0  0  0  0  3  0  0  0  0  0  0
  181.7480  179.5620  138.2710 C   0  0  0  0  0  0  0  0  0  0  0  0
  180.7030  183.7570  136.7280 C   0  0  1  0  0  3  0  0  0  0  0  0
  181.7030  184.6300  137.3210 N   0  0  0  0  0  1  0  0  0  0  0  0
  180.8190  183.7850  135.2150 C   0  0  0  0  0  1  0  0  0  0  0  0
  183.3340  177.9990  139.3000 O   0  0  0  0  0  0  0  0  0  0  0  0
  183.6570  177.9480  140.6690 C   0  0  0  0  0  2  0  0  0  0  0  0
  184.7320  178.9710  140.9940 C   0  0  0  0  0  2  0  0  0  0  0  0
  185.0310  178.7140  144.7640 C   0  0  0  0  0  3  0  0  0  0  0  0
  186.5890  178.2080  142.4870 C   0  0  0  0  0  3  0  0  0  0  0  0
  188.1290  177.4020  146.3140 C   0  0  0  0  0  0  0  0  0  0  0  0
  186.8350  177.9250  146.1740 C   0  0  0  0  0  3  0  0  0  0  0  0
  186.3220  178.2000  144.9050 C   0  0  0  0  0  0  0  0  0  0  0  0
  188.3880  177.4050  143.8970 C   0  0  0  0  0  3  0  0  0  0  0  0
  187.1060  177.9430  143.7570 C   0  0  0  0  0  0  0  0  0  0  0  0
  188.8940  177.1290  145.1700 C   0  0  0  0  0  3  0  0  0  0  0  0
  185.2960  178.7270  142.3530 C   0  0  0  0  0  0  0  0  0  0  0  0
  184.5180  178.9750  143.4900 C   0  0  0  0  0  3  0  0  0  0  0  0
  188.6550  177.0510  147.6730 C   0  0  0  0  0  3  0  0  0  0  0  0
  189.2760  178.2720  148.3330 C   0  0  0  0  0  2  0  0  0  0  0  0
  187.8990  177.8120  148.7500 C   0  0  0  0  0  2  0  0  0  0  0  0
  1 19  1  6  0  0  0
  2 13  1  0  0  0  0
  2 10  2  0  0  0  0
  3  7  1  0  0  0  0
  5  6  2  0  0  0  0
  6  4  1  0  0  0  0
  7  8  1  0  0  0  0
  8  1  1  0  0  0  0
  8  4  2  0  0  0  0
  9  7  2  0  0  0  0
  9  5  1  0  0  0  0
 10 11  1  0  0  0  0
 11 12  2  0  0  0  0
 12 14  1  0  0  0  0
 13  3  1  1  0  0  0
 13 15  1  0  0  0  0
 15 14  2  0  0  0  0
 15  1  1  0  0  0  0
 16 18  1  6  0  0  0
 16 11  1  0  0  0  0
 16 17  1  0  0  0  0
 19 20  1  0  0  0  0
 20 21  1  0  0  0  0
 21 30  1  0  0  0  0
 22 26  1  0  0  0  0
 23 28  1  0  0  0  0
 24 32  1  0  0  0  0
 25 24  1  0  0  0  0
 26 25  2  0  0  0  0
 27 29  1  0  0  0  0
 28 27  2  0  0  0  0
 28 26  1  0  0  0  0
 29 24  2  0  0  0  0
 30 23  2  0  0  0  0
 30 31  1  0  0  0  0
 31 22  2  0  0  0  0
 32 33  1  0  0  0  0
 32 34  1  0  0  0  0
 33 34  1  0  0  0  0
M  END
>  <MODEL>
9

>  <REMARK>
 VINA RESULT:      -9.4      3.223      4.757
  Name = 
  6 active torsions:
  status: ('A' for Active; 'I' for Inactive)
    1  A    between atoms: C_1  and  O_9
    2  A    between atoms: C_3  and  C_25
    3  A    between atoms: C_7  and  C_11
    4  A    between atoms: C_8  and  O_9
    5  A    between atoms: C_8  and  C_18
    6  A    between atoms: C_18  and  C_30
                            x       y       z     vdW  Elec       q    Type
                         _______ _______ _______ _____ _____    ______ ____

>  <TORSDO>
F 6

$$$$
