=
 OpenBabel10262421293D

 32 35  0  0  1  0  0  0  0  0999 V2000
  187.4910  177.8390  142.1400 C   0  0  0  0  0  0  0  0  0  0  0  0
  186.2500  178.0910  146.8200 N   0  0  0  0  0  0  0  0  0  0  0  0
  184.9920  178.4770  146.4830 C   0  0  0  0  0  3  0  0  0  0  0  0
  185.8330  178.4940  140.4200 C   0  0  0  0  0  0  0  0  0  0  0  0
  184.3880  178.4600  139.9930 C   0  0  2  0  0  3  0  0  0  0  0  0
  181.6880  178.6170  139.3640 C   0  0  0  0  0  2  0  0  0  0  0  0
  187.1910  177.8360  145.8730 C   0  0  0  0  0  3  0  0  0  0  0  0
  187.8480  177.6950  143.5170 C   0  0  0  0  0  0  0  0  0  0  0  0
  186.8890  177.9640  144.5060 C   0  0  0  0  0  0  0  0  0  0  0  0
  185.2750  178.5060  142.7820 C   0  0  0  0  0  0  0  0  0  0  0  0
  182.5930  179.6070  138.6200 C   0  0  0  0  0  2  0  0  0  0  0  0
  184.0040  179.7210  139.2160 C   0  0  0  0  0  2  0  0  0  0  0  0
  184.6430  178.6190  145.1410 C   0  0  0  0  0  3  0  0  0  0  0  0
  185.5940  178.3630  144.1400 C   0  0  0  0  0  0  0  0  0  0  0  0
  183.8920  178.9640  142.4020 C   0  0  0  0  0  2  0  0  0  0  0  0
  188.3190  177.5410  141.1690 N   0  0  0  0  0  0  0  0  0  0  0  0
  186.7030  178.7260  139.5350 O   0  0  0  0  0  0  0  0  0  0  0  0
  181.9770  178.6300  140.8620 C   0  0  0  0  0  2  0  0  0  0  0  0
  186.2200  178.2790  141.8090 N   0  0  0  0  0  0  0  0  0  0  0  0
  183.4230  178.2160  141.1690 C   0  0  1  0  0  3  0  0  0  0  0  0
  189.6810  177.0290  141.2350 C   0  0  0  0  0  2  0  0  0  0  0  0
  189.8800  178.2870  139.2450 F   0  0  0  0  0  0  0  0  0  0  0  0
  190.3300  177.1420  139.8730 C   0  0  0  0  0  2  0  0  0  0  0  0
  189.2330  177.3130  143.9640 C   0  0  0  0  0  2  0  0  0  0  0  0
  190.0430  178.5070  144.1220 N   0  0  0  0  0  2  0  0  0  0  0  0
  191.3890  178.0610  144.4340 C   0  0  0  0  0  2  0  0  0  0  0  0
  191.3870  176.5700  144.7150 C   0  0  0  0  0  2  0  0  0  0  0  0
  191.8830  176.3050  146.1260 C   0  0  0  0  0  2  0  0  0  0  0  0
  190.0870  177.1650  147.6850 C   0  0  0  0  0  0  0  0  0  0  0  0
  191.3530  177.3060  147.0390 N   0  0  0  0  0  2  0  0  0  0  0  0
  189.6190  178.2180  148.6230 C   0  0  0  0  0  1  0  0  0  0  0  0
  189.3600  176.1600  147.4640 O   0  0  0  0  0  0  0  0  0  0  0  0
  1  8  1  0  0  0  0
  3  2  1  0  0  0  0
  4 19  1  0  0  0  0
  5 12  1  1  0  0  0
  5  4  1  0  0  0  0
  5 20  1  0  0  0  0
  6 18  1  0  0  0  0
  7  2  2  0  0  0  0
  8 24  1  0  0  0  0
  8  9  2  0  0  0  0
  9  7  1  0  0  0  0
 10 14  2  0  0  0  0
 11 12  1  0  0  0  0
 11  6  1  0  0  0  0
 13  3  2  0  0  0  0
 14  9  1  0  0  0  0
 14 13  1  0  0  0  0
 15 10  1  0  0  0  0
 16 21  1  0  0  0  0
 16  1  2  0  0  0  0
 17  4  2  0  0  0  0
 19  1  1  0  0  0  0
 19 10  1  0  0  0  0
 20 18  1  6  0  0  0
 20 15  1  0  0  0  0
 22 23  1  0  0  0  0
 23 21  1  0  0  0  0
 24 25  1  0  0  0  0
 25 26  1  0  0  0  0
 26 27  1  0  0  0  0
 27 28  1  0  0  0  0
 28 30  1  0  0  0  0
 29 31  1  0  0  0  0
 30 29  1  0  0  0  0
 32 29  2  0  0  0  0
M  END
>  <MODEL>
1

>  <REMARK>
 VINA RESULT:      -8.6      0.000      0.000
  Name = 
  8 active torsions:
  status: ('A' for Active; 'I' for Inactive)
    1  A    between atoms: C_2  and  C_12
    2  A    between atoms: C_2  and  C_24
    3  A    between atoms: C_8  and  C_23
    4  A    between atoms: C_8  and  N_28
    5  A    between atoms: C_9  and  C_14
    6  A    between atoms: C_9  and  N_21
    7  A    between atoms: N_10  and  C_24
    8  A    between atoms: C_12  and  N_21
                            x       y       z     vdW  Elec       q    Type
                         _______ _______ _______ _____ _____    ______ ____

>  <TORSDO>
F 8

$$$$
=
 OpenBabel10262421293D

 32 35  0  0  1  0  0  0  0  0999 V2000
  183.9870  178.6520  143.1270 C   0  0  0  0  0  0  0  0  0  0  0  0
  186.8370  178.4710  139.2100 N   0  0  0  0  0  0  0  0  0  0  0  0
  187.9340  178.3170  139.9940 C   0  0  0  0  0  3  0  0  0  0  0  0
  185.0250  178.5620  145.3750 C   0  0  0  0  0  0  0  0  0  0  0  0
  186.0980  177.9490  146.2380 C   0  0  2  0  0  3  0  0  0  0  0  0
  188.2430  177.0070  147.7280 C   0  0  0  0  0  2  0  0  0  0  0  0
  185.5940  178.5940  139.7450 C   0  0  0  0  0  3  0  0  0  0  0  0
  184.1260  178.6850  141.7050 C   0  0  0  0  0  0  0  0  0  0  0  0
  185.4050  178.5680  141.1380 C   0  0  0  0  0  0  0  0  0  0  0  0
  186.3640  178.3930  143.3560 C   0  0  0  0  0  0  0  0  0  0  0  0
  187.5600  178.2620  148.2840 C   0  0  0  0  0  2  0  0  0  0  0  0
  186.6070  178.9390  147.2870 C   0  0  0  0  0  2  0  0  0  0  0  0
  187.8000  178.2860  141.3810 C   0  0  0  0  0  3  0  0  0  0  0  0
  186.5300  178.4120  141.9640 C   0  0  0  0  0  0  0  0  0  0  0  0
  187.5790  178.2560  144.2330 C   0  0  0  0  0  2  0  0  0  0  0  0
  182.8160  178.6910  143.7160 N   0  0  0  0  0  0  0  0  0  0  0  0
  184.0440  179.1060  145.9530 O   0  0  0  0  0  0  0  0  0  0  0  0
  188.5420  177.1600  146.2390 C   0  0  0  0  0  2  0  0  0  0  0  0
  185.1180  178.5430  143.9190 N   0  0  0  0  0  0  0  0  0  0  0  0
  187.2620  177.3610  145.4160 C   0  0  1  0  0  3  0  0  0  0  0  0
  181.4850  178.7640  143.1300 C   0  0  0  0  0  2  0  0  0  0  0  0
  179.9610  177.3790  144.2870 F   0  0  0  0  0  0  0  0  0  0  0  0
  180.4450  178.6710  144.2240 C   0  0  0  0  0  2  0  0  0  0  0  0
  182.9610  178.8950  140.7770 C   0  0  0  0  0  2  0  0  0  0  0  0
  182.4580  177.6100  140.3240 N   0  0  0  0  0  2  0  0  0  0  0  0
  181.8700  177.8300  139.0150 C   0  0  0  0  0  2  0  0  0  0  0  0
  181.4580  176.5030  138.4050 C   0  0  0  0  0  2  0  0  0  0  0  0
  179.9960  176.2230  138.7060 C   0  0  0  0  0  2  0  0  0  0  0  0
  179.4530  175.0090  140.8580 C   0  0  0  0  0  0  0  0  0  0  0  0
  179.8720  175.0040  139.4920 N   0  0  0  0  0  2  0  0  0  0  0  0
  179.3280  173.7240  141.5930 C   0  0  0  0  0  1  0  0  0  0  0  0
  179.1930  176.0920  141.4480 O   0  0  0  0  0  0  0  0  0  0  0  0
  1 16  2  0  0  0  0
  1 19  1  0  0  0  0
  2  7  2  0  0  0  0
  2  3  1  0  0  0  0
  3 13  2  0  0  0  0
  4 17  2  0  0  0  0
  4  5  1  0  0  0  0
  5 12  1  1  0  0  0
  6 11  1  0  0  0  0
  7  9  1  0  0  0  0
  8  1  1  0  0  0  0
  9  8  2  0  0  0  0
  9 14  1  0  0  0  0
 10 19  1  0  0  0  0
 10 15  1  0  0  0  0
 12 11  1  0  0  0  0
 13 14  1  0  0  0  0
 14 10  2  0  0  0  0
 18  6  1  0  0  0  0
 19  4  1  0  0  0  0
 20 15  1  6  0  0  0
 20  5  1  0  0  0  0
 20 18  1  0  0  0  0
 21 16  1  0  0  0  0
 21 23  1  0  0  0  0
 23 22  1  0  0  0  0
 24  8  1  0  0  0  0
 25 24  1  0  0  0  0
 26 25  1  0  0  0  0
 27 28  1  0  0  0  0
 27 26  1  0  0  0  0
 28 30  1  0  0  0  0
 29 32  2  0  0  0  0
 29 31  1  0  0  0  0
 30 29  1  0  0  0  0
M  END
>  <MODEL>
2

>  <REMARK>
 VINA RESULT:      -8.2      3.729      8.643
  Name = 
  8 active torsions:
  status: ('A' for Active; 'I' for Inactive)
    1  A    between atoms: C_2  and  C_12
    2  A    between atoms: C_2  and  C_24
    3  A    between atoms: C_8  and  C_23
    4  A    between atoms: C_8  and  N_28
    5  A    between atoms: C_9  and  C_14
    6  A    between atoms: C_9  and  N_21
    7  A    between atoms: N_10  and  C_24
    8  A    between atoms: C_12  and  N_21
                            x       y       z     vdW  Elec       q    Type
                         _______ _______ _______ _____ _____    ______ ____

>  <TORSDO>
F 8

$$$$
=
 OpenBabel10262421293D

 32 35  0  0  1  0  0  0  0  0999 V2000
  186.8980  178.1010  142.2970 C   0  0  0  0  0  0  0  0  0  0  0  0
  182.1760  178.9060  143.0390 N   0  0  0  0  0  0  0  0  0  0  0  0
  182.3490  178.7870  144.3800 C   0  0  0  0  0  3  0  0  0  0  0  0
  188.3530  177.6000  144.2390 C   0  0  0  0  0  0  0  0  0  0  0  0
  188.6770  177.9130  145.6780 C   0  0  2  0  0  3  0  0  0  0  0  0
  189.0780  178.3130  148.3960 C   0  0  0  0  0  2  0  0  0  0  0  0
  183.2160  178.7730  142.1750 C   0  0  0  0  0  3  0  0  0  0  0  0
  185.5990  178.3730  141.7670 C   0  0  0  0  0  0  0  0  0  0  0  0
  184.5130  178.5040  142.6470 C   0  0  0  0  0  0  0  0  0  0  0  0
  185.9940  178.1000  144.5220 C   0  0  0  0  0  0  0  0  0  0  0  0
  189.6910  177.0290  147.8250 C   0  0  0  0  0  2  0  0  0  0  0  0
  189.1840  176.6740  146.4200 C   0  0  0  0  0  2  0  0  0  0  0  0
  183.6150  178.5200  144.8990 C   0  0  0  0  0  3  0  0  0  0  0  0
  184.7100  178.3760  144.0310 C   0  0  0  0  0  0  0  0  0  0  0  0
  186.1870  177.9340  146.0050 C   0  0  0  0  0  2  0  0  0  0  0  0
  187.9630  178.0330  141.5350 N   0  0  0  0  0  0  0  0  0  0  0  0
  189.2390  177.0270  143.5470 O   0  0  0  0  0  0  0  0  0  0  0  0
  187.6250  178.4710  147.9540 C   0  0  0  0  0  2  0  0  0  0  0  0
  187.0550  177.9350  143.6630 N   0  0  0  0  0  0  0  0  0  0  0  0
  187.5000  178.5670  146.4270 C   0  0  1  0  0  3  0  0  0  0  0  0
  188.0860  178.2050  140.0950 C   0  0  0  0  0  2  0  0  0  0  0  0
  189.7240  178.3250  138.3960 F   0  0  0  0  0  0  0  0  0  0  0  0
  189.4800  177.8150  139.6560 C   0  0  0  0  0  2  0  0  0  0  0  0
  185.3260  178.4760  140.2920 C   0  0  0  0  0  2  0  0  0  0  0  0
  184.8060  179.7950  139.9800 N   0  0  0  0  0  2  0  0  0  0  0  0
  183.9770  179.6480  138.7960 C   0  0  0  0  0  2  0  0  0  0  0  0
  183.5760  178.1950  138.6230 C   0  0  0  0  0  2  0  0  0  0  0  0
  183.8410  177.7490  137.1950 C   0  0  0  0  0  2  0  0  0  0  0  0
  186.2720  177.0680  137.0400 C   0  0  0  0  0  0  0  0  0  0  0  0
  184.8880  176.7390  137.1730 N   0  0  0  0  0  2  0  0  0  0  0  0
  187.2890  175.9850  137.0490 C   0  0  0  0  0  1  0  0  0  0  0  0
  186.6390  178.2670  136.9100 O   0  0  0  0  0  0  0  0  0  0  0  0
  1 19  1  0  0  0  0
  2  3  1  0  0  0  0
  3 13  2  0  0  0  0
  4  5  1  0  0  0  0
  5 12  1  1  0  0  0
  5 20  1  0  0  0  0
  7  9  1  0  0  0  0
  7  2  2  0  0  0  0
  8  1  1  0  0  0  0
  8  9  2  0  0  0  0
  9 14  1  0  0  0  0
 10 15  1  0  0  0  0
 11  6  1  0  0  0  0
 12 11  1  0  0  0  0
 14 10  2  0  0  0  0
 14 13  1  0  0  0  0
 16  1  2  0  0  0  0
 17  4  2  0  0  0  0
 18  6  1  0  0  0  0
 19  4  1  0  0  0  0
 19 10  1  0  0  0  0
 20 15  1  6  0  0  0
 20 18  1  0  0  0  0
 21 16  1  0  0  0  0
 22 23  1  0  0  0  0
 23 21  1  0  0  0  0
 24  8  1  0  0  0  0
 25 24  1  0  0  0  0
 26 25  1  0  0  0  0
 27 26  1  0  0  0  0
 28 27  1  0  0  0  0
 29 31  1  0  0  0  0
 29 30  1  0  0  0  0
 30 28  1  0  0  0  0
 32 29  2  0  0  0  0
M  END
>  <MODEL>
3

>  <REMARK>
 VINA RESULT:      -8.2      2.180      7.218
  Name = 
  8 active torsions:
  status: ('A' for Active; 'I' for Inactive)
    1  A    between atoms: C_2  and  C_12
    2  A    between atoms: C_2  and  C_24
    3  A    between atoms: C_8  and  C_23
    4  A    between atoms: C_8  and  N_28
    5  A    between atoms: C_9  and  C_14
    6  A    between atoms: C_9  and  N_21
    7  A    between atoms: N_10  and  C_24
    8  A    between atoms: C_12  and  N_21
                            x       y       z     vdW  Elec       q    Type
                         _______ _______ _______ _____ _____    ______ ____

>  <TORSDO>
F 8

$$$$
=
 OpenBabel10262421293D

 32 35  0  0  1  0  0  0  0  0999 V2000
  186.5390  178.4570  141.0590 C   0  0  0  0  0  0  0  0  0  0  0  0
  186.1390  178.0700  145.8740 N   0  0  0  0  0  0  0  0  0  0  0  0
  184.8030  178.3000  145.7990 C   0  0  0  0  0  3  0  0  0  0  0  0
  184.5300  179.0290  139.7270 C   0  0  0  0  0  0  0  0  0  0  0  0
  183.0470  178.8280  139.5440 C   0  0  2  0  0  3  0  0  0  0  0  0
  180.2800  178.6530  139.3930 C   0  0  0  0  0  2  0  0  0  0  0  0
  186.9180  178.0460  144.7620 C   0  0  0  0  0  3  0  0  0  0  0  0
  187.1530  178.2320  142.3290 C   0  0  0  0  0  0  0  0  0  0  0  0
  186.3620  178.2630  143.4890 C   0  0  0  0  0  0  0  0  0  0  0  0
  184.4080  178.7300  142.1340 C   0  0  0  0  0  0  0  0  0  0  0  0
  180.9040  179.8310  138.6350 C   0  0  0  0  0  2  0  0  0  0  0  0
  182.3740  180.0900  139.0000 C   0  0  0  0  0  2  0  0  0  0  0  0
  184.2030  178.5200  144.5600 C   0  0  0  0  0  3  0  0  0  0  0  0
  184.9820  178.5030  143.3930 C   0  0  0  0  0  0  0  0  0  0  0  0
  182.9340  179.0180  142.0450 C   0  0  0  0  0  2  0  0  0  0  0  0
  187.2090  178.3770  139.9350 N   0  0  0  0  0  0  0  0  0  0  0  0
  185.1900  179.4690  138.7460 O   0  0  0  0  0  0  0  0  0  0  0  0
  180.8300  178.5610  140.8130 C   0  0  0  0  0  2  0  0  0  0  0  0
  185.1840  178.7370  140.9980 N   0  0  0  0  0  0  0  0  0  0  0  0
  182.3480  178.3330  140.8250 C   0  0  1  0  0  3  0  0  0  0  0  0
  188.6140  178.0640  139.7130 C   0  0  0  0  0  2  0  0  0  0  0  0
  189.1790  179.5090  137.9310 F   0  0  0  0  0  0  0  0  0  0  0  0
  188.9320  178.1850  138.2390 C   0  0  0  0  0  2  0  0  0  0  0  0
  188.6330  178.0140  142.4930 C   0  0  0  0  0  2  0  0  0  0  0  0
  188.9080  176.5930  142.6130 N   0  0  0  0  0  2  0  0  0  0  0  0
  190.3530  176.4490  142.6400 C   0  0  0  0  0  2  0  0  0  0  0  0
  190.9750  177.6100  143.3930 C   0  0  0  0  0  2  0  0  0  0  0  0
  191.3430  177.1790  144.8020 C   0  0  0  0  0  2  0  0  0  0  0  0
  190.2190  177.0340  147.0640 C   0  0  0  0  0  0  0  0  0  0  0  0
  190.2780  177.5360  145.7280 N   0  0  0  0  0  2  0  0  0  0  0  0
  189.1140  177.4600  147.9610 C   0  0  0  0  0  1  0  0  0  0  0  0
  191.0910  176.2290  147.4880 O   0  0  0  0  0  0  0  0  0  0  0  0
  1  8  1  0  0  0  0
  3  2  1  0  0  0  0
  4 19  1  0  0  0  0
  5 12  1  1  0  0  0
  5  4  1  0  0  0  0
  5 20  1  0  0  0  0
  6 18  1  0  0  0  0
  7  2  2  0  0  0  0
  8 24  1  0  0  0  0
  8  9  2  0  0  0  0
  9  7  1  0  0  0  0
 10 14  2  0  0  0  0
 11 12  1  0  0  0  0
 11  6  1  0  0  0  0
 13  3  2  0  0  0  0
 14  9  1  0  0  0  0
 14 13  1  0  0  0  0
 15 10  1  0  0  0  0
 16  1  2  0  0  0  0
 17  4  2  0  0  0  0
 19  1  1  0  0  0  0
 19 10  1  0  0  0  0
 20 18  1  6  0  0  0
 20 15  1  0  0  0  0
 21 16  1  0  0  0  0
 22 23  1  0  0  0  0
 23 21  1  0  0  0  0
 24 25  1  0  0  0  0
 25 26  1  0  0  0  0
 26 27  1  0  0  0  0
 27 28  1  0  0  0  0
 28 30  1  0  0  0  0
 29 32  2  0  0  0  0
 29 31  1  0  0  0  0
 30 29  1  0  0  0  0
M  END
>  <MODEL>
4

>  <REMARK>
 VINA RESULT:      -8.1      1.297      1.590
  Name = 
  8 active torsions:
  status: ('A' for Active; 'I' for Inactive)
    1  A    between atoms: C_2  and  C_12
    2  A    between atoms: C_2  and  C_24
    3  A    between atoms: C_8  and  C_23
    4  A    between atoms: C_8  and  N_28
    5  A    between atoms: C_9  and  C_14
    6  A    between atoms: C_9  and  N_21
    7  A    between atoms: N_10  and  C_24
    8  A    between atoms: C_12  and  N_21
                            x       y       z     vdW  Elec       q    Type
                         _______ _______ _______ _____ _____    ______ ____

>  <TORSDO>
F 8

$$$$
=
 OpenBabel10262421293D

 32 35  0  0  1  0  0  0  0  0999 V2000
  186.6250  178.2550  141.3110 C   0  0  0  0  0  0  0  0  0  0  0  0
  183.1260  179.1250  144.5510 N   0  0  0  0  0  0  0  0  0  0  0  0
  183.9490  178.7530  145.5650 C   0  0  0  0  0  3  0  0  0  0  0  0
  188.7890  177.3380  142.0950 C   0  0  0  0  0  0  0  0  0  0  0  0
  189.8490  177.3640  143.1670 C   0  0  2  0  0  3  0  0  0  0  0  0
  191.6460  177.2380  145.2790 C   0  0  0  0  0  2  0  0  0  0  0  0
  183.5410  179.1050  143.2570 C   0  0  0  0  0  3  0  0  0  0  0  0
  185.2900  178.6790  141.5950 C   0  0  0  0  0  0  0  0  0  0  0  0
  184.8440  178.6950  142.9270 C   0  0  0  0  0  0  0  0  0  0  0  0
  187.0090  177.8840  143.6530 C   0  0  0  0  0  0  0  0  0  0  0  0
  191.6950  176.0540  144.3060 C   0  0  0  0  0  2  0  0  0  0  0  0
  190.4920  175.9890  143.3540 C   0  0  0  0  0  2  0  0  0  0  0  0
  185.2500  178.3370  145.2890 C   0  0  0  0  0  3  0  0  0  0  0  0
  185.7080  178.3050  143.9620 C   0  0  0  0  0  0  0  0  0  0  0  0
  187.9160  177.4400  144.7680 C   0  0  0  0  0  2  0  0  0  0  0  0
  187.1230  178.2790  140.0980 N   0  0  0  0  0  0  0  0  0  0  0  0
  189.1030  176.8620  140.9690 O   0  0  0  0  0  0  0  0  0  0  0  0
  190.2110  177.5410  145.7030 C   0  0  0  0  0  2  0  0  0  0  0  0
  187.4400  177.8320  142.3480 N   0  0  0  0  0  0  0  0  0  0  0  0
  189.3300  177.9230  144.5060 C   0  0  1  0  0  3  0  0  0  0  0  0
  186.5060  178.7080  138.8510 C   0  0  0  0  0  2  0  0  0  0  0  0
  186.9950  178.8940  136.5460 F   0  0  0  0  0  0  0  0  0  0  0  0
  187.3020  178.1700  137.6820 C   0  0  0  0  0  2  0  0  0  0  0  0
  184.3110  179.0640  140.5200 C   0  0  0  0  0  2  0  0  0  0  0  0
  183.6720  177.8740  139.9890 N   0  0  0  0  0  2  0  0  0  0  0  0
  182.2400  178.0740  140.1210 C   0  0  0  0  0  2  0  0  0  0  0  0
  181.8640  179.4570  139.6220 C   0  0  0  0  0  2  0  0  0  0  0  0
  180.5530  179.8980  140.2490 C   0  0  0  0  0  2  0  0  0  0  0  0
  179.9550  179.5960  142.6880 C   0  0  0  0  0  0  0  0  0  0  0  0
  180.2400  179.0580  141.3960 N   0  0  0  0  0  2  0  0  0  0  0  0
  179.6210  178.6780  143.8080 C   0  0  0  0  0  1  0  0  0  0  0  0
  179.9900  180.8390  142.8910 O   0  0  0  0  0  0  0  0  0  0  0  0
  1  8  1  0  0  0  0
  1 19  1  0  0  0  0
  2  3  1  0  0  0  0
  4 19  1  0  0  0  0
  4  5  1  0  0  0  0
  5 12  1  1  0  0  0
  5 20  1  0  0  0  0
  6 18  1  0  0  0  0
  7  2  2  0  0  0  0
  8  9  2  0  0  0  0
  9  7  1  0  0  0  0
  9 14  1  0  0  0  0
 10 14  2  0  0  0  0
 10 15  1  0  0  0  0
 11  6  1  0  0  0  0
 12 11  1  0  0  0  0
 13  3  2  0  0  0  0
 14 13  1  0  0  0  0
 16  1  2  0  0  0  0
 17  4  2  0  0  0  0
 19 10  1  0  0  0  0
 20 15  1  1  0  0  0
 20 18  1  0  0  0  0
 21 16  1  0  0  0  0
 22 23  1  0  0  0  0
 23 21  1  0  0  0  0
 24  8  1  0  0  0  0
 25 26  1  0  0  0  0
 25 24  1  0  0  0  0
 27 26  1  0  0  0  0
 27 28  1  0  0  0  0
 28 30  1  0  0  0  0
 29 32  2  0  0  0  0
 29 31  1  0  0  0  0
 30 29  1  0  0  0  0
M  END
>  <MODEL>
5

>  <REMARK>
 VINA RESULT:      -8.1      2.594      7.353
  Name = 
  8 active torsions:
  status: ('A' for Active; 'I' for Inactive)
    1  A    between atoms: C_2  and  C_12
    2  A    between atoms: C_2  and  C_24
    3  A    between atoms: C_8  and  C_23
    4  A    between atoms: C_8  and  N_28
    5  A    between atoms: C_9  and  C_14
    6  A    between atoms: C_9  and  N_21
    7  A    between atoms: N_10  and  C_24
    8  A    between atoms: C_12  and  N_21
                            x       y       z     vdW  Elec       q    Type
                         _______ _______ _______ _____ _____    ______ ____

>  <TORSDO>
F 8

$$$$
=
 OpenBabel10262421293D

 32 35  0  0  1  0  0  0  0  0999 V2000
  184.0700  178.6230  143.1440 C   0  0  0  0  0  0  0  0  0  0  0  0
  186.9020  178.5230  139.2110 N   0  0  0  0  0  0  0  0  0  0  0  0
  188.0040  178.3690  139.9880 C   0  0  0  0  0  3  0  0  0  0  0  0
  185.1200  178.5110  145.3850 C   0  0  0  0  0  0  0  0  0  0  0  0
  186.2030  177.8940  146.2350 C   0  0  2  0  0  3  0  0  0  0  0  0
  188.3640  176.9510  147.7000 C   0  0  0  0  0  2  0  0  0  0  0  0
  185.6610  178.6280  139.7540 C   0  0  0  0  0  3  0  0  0  0  0  0
  184.2020  178.6780  141.7220 C   0  0  0  0  0  0  0  0  0  0  0  0
  185.4790  178.5800  141.1470 C   0  0  0  0  0  0  0  0  0  0  0  0
  186.4500  178.3820  143.3580 C   0  0  0  0  0  0  0  0  0  0  0  0
  187.6720  178.1920  148.2780 C   0  0  0  0  0  2  0  0  0  0  0  0
  186.7080  178.8740  147.2960 C   0  0  0  0  0  2  0  0  0  0  0  0
  187.8780  178.3160  141.3750 C   0  0  0  0  0  3  0  0  0  0  0  0
  186.6090  178.4230  141.9660 C   0  0  0  0  0  0  0  0  0  0  0  0
  187.6710  178.2430  144.2270 C   0  0  0  0  0  2  0  0  0  0  0  0
  182.9020  178.6420  143.7390 N   0  0  0  0  0  0  0  0  0  0  0  0
  184.1370  179.0370  145.9760 O   0  0  0  0  0  0  0  0  0  0  0  0
  188.6540  177.1280  146.2130 C   0  0  0  0  0  2  0  0  0  0  0  0
  185.2060  178.5130  143.9290 N   0  0  0  0  0  0  0  0  0  0  0  0
  187.3680  177.3290  145.3990 C   0  0  1  0  0  3  0  0  0  0  0  0
  181.5670  178.7120  143.1610 C   0  0  0  0  0  2  0  0  0  0  0  0
  180.0550  177.3340  144.3440 F   0  0  0  0  0  0  0  0  0  0  0  0
  180.5340  178.6280  144.2620 C   0  0  0  0  0  2  0  0  0  0  0  0
  183.0300  178.8900  140.8030 C   0  0  0  0  0  2  0  0  0  0  0  0
  182.6390  177.6250  140.2070 N   0  0  0  0  0  2  0  0  0  0  0  0
  181.5110  177.9040  139.3360 C   0  0  0  0  0  2  0  0  0  0  0  0
  181.9740  178.7000  138.1300 C   0  0  0  0  0  2  0  0  0  0  0  0
  180.7830  179.3410  137.4400 C   0  0  0  0  0  2  0  0  0  0  0  0
  180.8240  181.8080  137.9960 C   0  0  0  0  0  0  0  0  0  0  0  0
  181.0850  180.7240  137.1030 N   0  0  0  0  0  2  0  0  0  0  0  0
  181.1800  183.1930  137.5930 C   0  0  0  0  0  1  0  0  0  0  0  0
  180.2910  181.6030  139.1190 O   0  0  0  0  0  0  0  0  0  0  0  0
  1 16  2  0  0  0  0
  1 19  1  0  0  0  0
  2  7  2  0  0  0  0
  2  3  1  0  0  0  0
  3 13  2  0  0  0  0
  4 17  2  0  0  0  0
  4  5  1  0  0  0  0
  5 12  1  1  0  0  0
  6 11  1  0  0  0  0
  7  9  1  0  0  0  0
  8  1  1  0  0  0  0
  9  8  2  0  0  0  0
  9 14  1  0  0  0  0
 10 19  1  0  0  0  0
 10 15  1  0  0  0  0
 12 11  1  0  0  0  0
 13 14  1  0  0  0  0
 14 10  2  0  0  0  0
 18  6  1  0  0  0  0
 19  4  1  0  0  0  0
 20 15  1  6  0  0  0
 20 18  1  0  0  0  0
 20  5  1  0  0  0  0
 21 16  1  0  0  0  0
 21 23  1  0  0  0  0
 23 22  1  0  0  0  0
 24  8  1  0  0  0  0
 25 24  1  0  0  0  0
 26 25  1  0  0  0  0
 27 26  1  0  0  0  0
 28 27  1  0  0  0  0
 29 32  2  0  0  0  0
 30 28  1  0  0  0  0
 30 29  1  0  0  0  0
 31 29  1  0  0  0  0
M  END
>  <MODEL>
6

>  <REMARK>
 VINA RESULT:      -8.0      3.472      8.916
  Name = 
  8 active torsions:
  status: ('A' for Active; 'I' for Inactive)
    1  A    between atoms: C_2  and  C_12
    2  A    between atoms: C_2  and  C_24
    3  A    between atoms: C_8  and  C_23
    4  A    between atoms: C_8  and  N_28
    5  A    between atoms: C_9  and  C_14
    6  A    between atoms: C_9  and  N_21
    7  A    between atoms: N_10  and  C_24
    8  A    between atoms: C_12  and  N_21
                            x       y       z     vdW  Elec       q    Type
                         _______ _______ _______ _____ _____    ______ ____

>  <TORSDO>
F 8

$$$$
=
 OpenBabel10262421293D

 32 35  0  0  1  0  0  0  0  0999 V2000
  187.7600  177.8890  142.8480 C   0  0  0  0  0  0  0  0  0  0  0  0
  183.8590  179.0080  145.4990 N   0  0  0  0  0  0  0  0  0  0  0  0
  184.4990  178.6250  146.6340 C   0  0  0  0  0  3  0  0  0  0  0  0
  189.7320  176.8940  143.9710 C   0  0  0  0  0  0  0  0  0  0  0  0
  190.6170  176.9010  145.1910 C   0  0  2  0  0  3  0  0  0  0  0  0
  192.0650  176.7480  147.5550 C   0  0  0  0  0  2  0  0  0  0  0  0
  184.4640  178.9340  144.2850 C   0  0  0  0  0  3  0  0  0  0  0  0
  186.4210  178.3830  142.9170 C   0  0  0  0  0  0  0  0  0  0  0  0
  185.7800  178.4550  144.1640 C   0  0  0  0  0  0  0  0  0  0  0  0
  187.7660  177.5650  145.2290 C   0  0  0  0  0  0  0  0  0  0  0  0
  192.2010  175.5370  146.6240 C   0  0  0  0  0  2  0  0  0  0  0  0
  191.1540  175.5020  145.5010 C   0  0  0  0  0  2  0  0  0  0  0  0
  185.8050  178.1420  146.5680 C   0  0  0  0  0  3  0  0  0  0  0  0
  186.4560  178.0540  145.3270 C   0  0  0  0  0  0  0  0  0  0  0  0
  188.4700  177.1090  146.4780 C   0  0  0  0  0  2  0  0  0  0  0  0
  188.4360  177.8570  141.7260 N   0  0  0  0  0  0  0  0  0  0  0  0
  190.1880  176.3750  142.9160 O   0  0  0  0  0  0  0  0  0  0  0  0
  190.6000  177.1280  147.7500 C   0  0  0  0  0  2  0  0  0  0  0  0
  188.3870  177.4570  144.0060 N   0  0  0  0  0  0  0  0  0  0  0  0
  189.9300  177.5180  146.4250 C   0  0  1  0  0  3  0  0  0  0  0  0
  188.0380  178.2810  140.3910 C   0  0  0  0  0  2  0  0  0  0  0  0
  189.1060  179.1690  138.4790 F   0  0  0  0  0  0  0  0  0  0  0  0
  189.2280  178.2040  139.4600 C   0  0  0  0  0  2  0  0  0  0  0  0
  185.6360  178.7840  141.6980 C   0  0  0  0  0  2  0  0  0  0  0  0
  184.5300  177.8640  141.5020 N   0  0  0  0  0  2  0  0  0  0  0  0
  183.5480  178.5580  140.6880 C   0  0  0  0  0  2  0  0  0  0  0  0
  184.2250  179.1760  139.4780 C   0  0  0  0  0  2  0  0  0  0  0  0
  183.7720  178.4720  138.2110 C   0  0  0  0  0  2  0  0  0  0  0  0
  186.0020  177.5720  137.4280 C   0  0  0  0  0  0  0  0  0  0  0  0
  184.6710  177.3690  137.9030 N   0  0  0  0  0  2  0  0  0  0  0  0
  186.8720  176.3980  137.1560 C   0  0  0  0  0  1  0  0  0  0  0  0
  186.4460  178.7350  137.2320 O   0  0  0  0  0  0  0  0  0  0  0  0
  1  8  1  0  0  0  0
  1 19  1  0  0  0  0
  2  3  1  0  0  0  0
  4 19  1  0  0  0  0
  4  5  1  0  0  0  0
  5 12  1  1  0  0  0
  5 20  1  0  0  0  0
  6 18  1  0  0  0  0
  7  2  2  0  0  0  0
  8  9  2  0  0  0  0
  9  7  1  0  0  0  0
  9 14  1  0  0  0  0
 10 14  2  0  0  0  0
 10 15  1  0  0  0  0
 11  6  1  0  0  0  0
 12 11  1  0  0  0  0
 13  3  2  0  0  0  0
 14 13  1  0  0  0  0
 16  1  2  0  0  0  0
 17  4  2  0  0  0  0
 19 10  1  0  0  0  0
 20 15  1  1  0  0  0
 20 18  1  0  0  0  0
 21 16  1  0  0  0  0
 22 23  1  0  0  0  0
 23 21  1  0  0  0  0
 24  8  1  0  0  0  0
 25 24  1  0  0  0  0
 26 25  1  0  0  0  0
 27 26  1  0  0  0  0
 28 27  1  0  0  0  0
 29 30  1  0  0  0  0
 30 28  1  0  0  0  0
 31 29  1  0  0  0  0
 32 29  2  0  0  0  0
M  END
>  <MODEL>
7

>  <REMARK>
 VINA RESULT:      -8.0      1.903      7.398
  Name = 
  8 active torsions:
  status: ('A' for Active; 'I' for Inactive)
    1  A    between atoms: C_2  and  C_12
    2  A    between atoms: C_2  and  C_24
    3  A    between atoms: C_8  and  C_23
    4  A    between atoms: C_8  and  N_28
    5  A    between atoms: C_9  and  C_14
    6  A    between atoms: C_9  and  N_21
    7  A    between atoms: N_10  and  C_24
    8  A    between atoms: C_12  and  N_21
                            x       y       z     vdW  Elec       q    Type
                         _______ _______ _______ _____ _____    ______ ____

>  <TORSDO>
F 8

$$$$
=
 OpenBabel10262421293D

 32 35  0  0  1  0  0  0  0  0999 V2000
  186.1530  178.2220  142.7420 C   0  0  0  0  0  0  0  0  0  0  0  0
  187.1920  178.5740  138.0200 N   0  0  0  0  0  0  0  0  0  0  0  0
  188.4930  178.2740  138.2660 C   0  0  0  0  0  3  0  0  0  0  0  0
  187.9850  177.7610  144.3450 C   0  0  0  0  0  0  0  0  0  0  0  0
  189.2550  176.9950  144.6120 C   0  0  2  0  0  3  0  0  0  0  0  0
  191.7260  175.7820  144.9710 C   0  0  0  0  0  2  0  0  0  0  0  0
  186.2780  178.6450  139.0230 C   0  0  0  0  0  3  0  0  0  0  0  0
  185.7200  178.4710  141.4030 C   0  0  0  0  0  0  0  0  0  0  0  0
  186.6550  178.4100  140.3570 C   0  0  0  0  0  0  0  0  0  0  0  0
  188.3950  177.8710  141.9540 C   0  0  0  0  0  0  0  0  0  0  0  0
  191.4290  176.9530  145.9150 C   0  0  0  0  0  2  0  0  0  0  0  0
  190.2200  177.7990  145.4860 C   0  0  0  0  0  2  0  0  0  0  0  0
  188.9170  178.0330  139.5720 C   0  0  0  0  0  3  0  0  0  0  0  0
  187.9970  178.1000  140.6300 C   0  0  0  0  0  0  0  0  0  0  0  0
  189.8420  177.5700  142.2390 C   0  0  0  0  0  2  0  0  0  0  0  0
  185.3190  178.1990  143.7530 N   0  0  0  0  0  0  0  0  0  0  0  0
  187.3620  178.2340  145.3360 O   0  0  0  0  0  0  0  0  0  0  0  0
  191.4230  176.1540  143.5220 C   0  0  0  0  0  2  0  0  0  0  0  0
  187.4920  177.9640  142.9870 N   0  0  0  0  0  0  0  0  0  0  0  0
  189.9440  176.5120  143.3210 C   0  0  1  0  0  3  0  0  0  0  0  0
  183.8760  178.3960  143.7700 C   0  0  0  0  0  2  0  0  0  0  0  0
  184.0330  178.4640  146.1270 F   0  0  0  0  0  0  0  0  0  0  0  0
  183.4790  179.1140  145.0410 C   0  0  0  0  0  2  0  0  0  0  0  0
  184.3050  178.8500  141.0600 C   0  0  0  0  0  2  0  0  0  0  0  0
  183.5490  177.6600  140.7130 N   0  0  0  0  0  2  0  0  0  0  0  0
  182.5430  178.0700  139.7490 C   0  0  0  0  0  2  0  0  0  0  0  0
  181.3460  177.1410  139.8240 C   0  0  0  0  0  2  0  0  0  0  0  0
  180.1170  177.9100  140.2780 C   0  0  0  0  0  2  0  0  0  0  0  0
  180.2380  178.5950  142.7090 C   0  0  0  0  0  0  0  0  0  0  0  0
  179.8680  177.6650  141.6910 N   0  0  0  0  0  2  0  0  0  0  0  0
  179.9320  178.2880  144.1310 C   0  0  0  0  0  1  0  0  0  0  0  0
  180.8260  179.6700  142.4170 O   0  0  0  0  0  0  0  0  0  0  0  0
  1 19  1  0  0  0  0
  1 16  2  0  0  0  0
  2  3  1  0  0  0  0
  2  7  2  0  0  0  0
  3 13  2  0  0  0  0
  4  5  1  0  0  0  0
  4 17  2  0  0  0  0
  5 12  1  6  0  0  0
  6 11  1  0  0  0  0
  7  9  1  0  0  0  0
  8  1  1  0  0  0  0
  9 14  1  0  0  0  0
  9  8  2  0  0  0  0
 10 15  1  0  0  0  0
 10 19  1  0  0  0  0
 12 11  1  0  0  0  0
 13 14  1  0  0  0  0
 14 10  2  0  0  0  0
 16 21  1  0  0  0  0
 18  6  1  0  0  0  0
 19  4  1  0  0  0  0
 20 15  1  6  0  0  0
 20 18  1  0  0  0  0
 20  5  1  0  0  0  0
 21 23  1  0  0  0  0
 23 22  1  0  0  0  0
 24  8  1  0  0  0  0
 25 24  1  0  0  0  0
 26 27  1  0  0  0  0
 26 25  1  0  0  0  0
 27 28  1  0  0  0  0
 28 30  1  0  0  0  0
 29 31  1  0  0  0  0
 30 29  1  0  0  0  0
 32 29  2  0  0  0  0
M  END
>  <MODEL>
8

>  <REMARK>
 VINA RESULT:      -7.9      2.902      8.266
  Name = 
  8 active torsions:
  status: ('A' for Active; 'I' for Inactive)
    1  A    between atoms: C_2  and  C_12
    2  A    between atoms: C_2  and  C_24
    3  A    between atoms: C_8  and  C_23
    4  A    between atoms: C_8  and  N_28
    5  A    between atoms: C_9  and  C_14
    6  A    between atoms: C_9  and  N_21
    7  A    between atoms: N_10  and  C_24
    8  A    between atoms: C_12  and  N_21
                            x       y       z     vdW  Elec       q    Type
                         _______ _______ _______ _____ _____    ______ ____

>  <TORSDO>
F 8

$$$$
=
 OpenBabel10262421293D

 32 35  0  0  1  0  0  0  0  0999 V2000
  186.8390  178.0310  142.3640 C   0  0  0  0  0  0  0  0  0  0  0  0
  182.1310  178.9730  143.0320 N   0  0  0  0  0  0  0  0  0  0  0  0
  182.2870  178.8860  144.3780 C   0  0  0  0  0  3  0  0  0  0  0  0
  188.2590  177.5470  144.3350 C   0  0  0  0  0  0  0  0  0  0  0  0
  188.5770  177.8910  145.7690 C   0  0  2  0  0  3  0  0  0  0  0  0
  188.9590  178.3550  148.4790 C   0  0  0  0  0  2  0  0  0  0  0  0
  183.1760  178.7900  142.1840 C   0  0  0  0  0  3  0  0  0  0  0  0
  185.5530  178.3210  141.8130 C   0  0  0  0  0  0  0  0  0  0  0  0
  184.4610  178.5030  142.6770 C   0  0  0  0  0  0  0  0  0  0  0  0
  185.9110  178.1130  144.5790 C   0  0  0  0  0  0  0  0  0  0  0  0
  189.5460  177.0400  147.9500 C   0  0  0  0  0  2  0  0  0  0  0  0
  189.0440  176.6610  146.5490 C   0  0  0  0  0  2  0  0  0  0  0  0
  183.5400  178.6020  144.9170 C   0  0  0  0  0  3  0  0  0  0  0  0
  184.6400  178.4080  144.0660 C   0  0  0  0  0  0  0  0  0  0  0  0
  186.0850  177.9830  146.0680 C   0  0  0  0  0  2  0  0  0  0  0  0
  187.9100  177.9150  141.6170 N   0  0  0  0  0  0  0  0  0  0  0  0
  189.1380  176.9340  143.6690 O   0  0  0  0  0  0  0  0  0  0  0  0
  187.5150  178.5360  148.0170 C   0  0  0  0  0  2  0  0  0  0  0  0
  186.9770  177.8980  143.7360 N   0  0  0  0  0  0  0  0  0  0  0  0
  187.4080  178.5940  146.4870 C   0  0  1  0  0  3  0  0  0  0  0  0
  188.0520  178.0450  140.1730 C   0  0  0  0  0  2  0  0  0  0  0  0
  189.6970  178.0680  138.4770 F   0  0  0  0  0  0  0  0  0  0  0  0
  189.4480  177.6310  139.7640 C   0  0  0  0  0  2  0  0  0  0  0  0
  185.2970  178.3900  140.3320 C   0  0  0  0  0  2  0  0  0  0  0  0
  184.9500  179.7490  139.9570 N   0  0  0  0  0  2  0  0  0  0  0  0
  184.0670  179.6530  138.8090 C   0  0  0  0  0  2  0  0  0  0  0  0
  183.6450  178.2110  138.6000 C   0  0  0  0  0  2  0  0  0  0  0  0
  182.1300  178.1150  138.5320 C   0  0  0  0  0  2  0  0  0  0  0  0
  180.7180  176.4630  139.8250 C   0  0  0  0  0  0  0  0  0  0  0  0
  181.7020  176.7570  138.8320 N   0  0  0  0  0  2  0  0  0  0  0  0
  180.3120  175.0530  140.0620 C   0  0  0  0  0  1  0  0  0  0  0  0
  180.1940  177.3850  140.5060 O   0  0  0  0  0  0  0  0  0  0  0  0
  1 19  1  0  0  0  0
  2  3  1  0  0  0  0
  3 13  2  0  0  0  0
  4  5  1  0  0  0  0
  5 20  1  0  0  0  0
  5 12  1  1  0  0  0
  7  9  1  0  0  0  0
  7  2  2  0  0  0  0
  8  1  1  0  0  0  0
  8  9  2  0  0  0  0
  9 14  1  0  0  0  0
 10 15  1  0  0  0  0
 11  6  1  0  0  0  0
 12 11  1  0  0  0  0
 14 10  2  0  0  0  0
 14 13  1  0  0  0  0
 16  1  2  0  0  0  0
 17  4  2  0  0  0  0
 18  6  1  0  0  0  0
 19  4  1  0  0  0  0
 19 10  1  0  0  0  0
 20 15  1  1  0  0  0
 20 18  1  0  0  0  0
 21 16  1  0  0  0  0
 22 23  1  0  0  0  0
 23 21  1  0  0  0  0
 24  8  1  0  0  0  0
 25 24  1  0  0  0  0
 26 25  1  0  0  0  0
 27 26  1  0  0  0  0
 28 27  1  0  0  0  0
 28 30  1  0  0  0  0
 29 31  1  0  0  0  0
 29 32  2  0  0  0  0
 30 29  1  0  0  0  0
M  END
>  <MODEL>
9

>  <REMARK>
 VINA RESULT:      -7.9      2.362      7.407
  Name = 
  8 active torsions:
  status: ('A' for Active; 'I' for Inactive)
    1  A    between atoms: C_2  and  C_12
    2  A    between atoms: C_2  and  C_24
    3  A    between atoms: C_8  and  C_23
    4  A    between atoms: C_8  and  N_28
    5  A    between atoms: C_9  and  C_14
    6  A    between atoms: C_9  and  N_21
    7  A    between atoms: N_10  and  C_24
    8  A    between atoms: C_12  and  N_21
                            x       y       z     vdW  Elec       q    Type
                         _______ _______ _______ _____ _____    ______ ____

>  <TORSDO>
F 8

$$$$
