=
 OpenBabel10262420023D

 27 30  0  0  1  0  0  0  0  0999 V2000
  189.3080  177.3980  143.9280 C   0  0  1  0  0  3  0  0  0  0  0  0
  187.8480  177.7100  144.1380 C   0  0  0  0  0  0  0  0  0  0  0  0
  183.6940  178.6010  144.8500 C   0  0  0  0  0  2  0  0  0  0  0  0
  181.9050  179.9450  143.7380 O   0  0  0  0  0  1  0  0  0  0  0  0
  187.4120  178.0800  145.4160 C   0  0  0  0  0  3  0  0  0  0  0  0
  184.5830  177.8180  142.1920 C   0  0  0  0  0  2  0  0  0  0  0  0
  183.4220  178.7530  142.3900 C   0  0  0  0  0  3  0  0  0  0  0  0
  186.9220  177.6380  143.0860 C   0  0  0  0  0  3  0  0  0  0  0  0
  183.0030  179.1060  143.6110 C   0  0  0  0  0  0  0  0  0  0  0  0
  185.1460  178.3110  144.5960 C   0  0  0  0  0  0  0  0  0  0  0  0
  185.5780  177.9420  143.3090 C   0  0  0  0  0  0  0  0  0  0  0  0
  186.0650  178.3760  145.6470 C   0  0  0  0  0  3  0  0  0  0  0  0
  190.0770  178.2700  142.8930 C   0  0  2  0  0  0  0  0  0  0  0  0
  192.0000  176.9240  142.4980 O   0  0  0  0  0  0  0  0  0  0  0  0
  190.3820  175.9030  140.2930 O   0  0  0  0  0  1  0  0  0  0  0  0
  189.7550  178.1820  139.9130 C   0  0  0  0  0  2  0  0  0  0  0  0
  190.9180  179.2990  143.6370 C   0  0  0  0  0  1  0  0  0  0  0  0
  190.7670  177.2230  140.5300 C   0  0  1  0  0  3  0  0  0  0  0  0
  188.5700  178.3860  140.8350 C   0  0  0  0  0  2  0  0  0  0  0  0
  189.0640  179.0960  142.0830 C   0  0  0  0  0  2  0  0  0  0  0  0
  191.0070  177.4400  142.0060 C   0  0  0  0  0  0  0  0  0  0  0  0
  191.4430  176.3930  147.5310 C   0  0  0  0  0  3  0  0  0  0  0  0
  190.0390  177.0580  145.1980 C   0  0  0  0  0  0  0  0  0  0  0  0
  189.5890  177.5110  146.4460 C   0  0  0  0  0  3  0  0  0  0  0  0
  190.2900  177.1800  147.6090 C   0  0  0  0  0  3  0  0  0  0  0  0
  191.8940  175.9360  146.2890 C   0  0  0  0  0  3  0  0  0  0  0  0
  191.1920  176.2670  145.1260 C   0  0  0  0  0  3  0  0  0  0  0  0
  1  2  1  1  0  0  0
  1 23  1  0  0  0  0
  2  5  1  0  0  0  0
  5 12  2  0  0  0  0
  6  7  1  0  0  0  0
  6 11  1  0  0  0  0
  7  9  2  0  0  0  0
  8 11  1  0  0  0  0
  8  2  2  0  0  0  0
  9  4  1  0  0  0  0
  9  3  1  0  0  0  0
 10  3  1  0  0  0  0
 10 12  1  0  0  0  0
 11 10  2  0  0  0  0
 13 17  1  1  0  0  0
 13  1  1  0  0  0  0
 16 18  1  0  0  0  0
 16 19  1  0  0  0  0
 18 15  1  1  0  0  0
 18 21  1  0  0  0  0
 19 20  1  0  0  0  0
 20 13  1  0  0  0  0
 21 14  2  0  0  0  0
 21 13  1  0  0  0  0
 22 25  1  0  0  0  0
 23 24  1  0  0  0  0
 24 25  2  0  0  0  0
 26 22  2  0  0  0  0
 27 23  2  0  0  0  0
 27 26  1  0  0  0  0
M  END
>  <MODEL>
1

>  <REMARK>
 VINA RESULT:      -9.8      0.000      0.000
  Name = 
  3 active torsions:
  status: ('A' for Active; 'I' for Inactive)
    1  A    between atoms: C_1  and  C_15
    2  A    between atoms: C_2  and  C_15
    3  A    between atoms: C_9  and  C_15
                            x       y       z     vdW  Elec       q    Type
                         _______ _______ _______ _____ _____    ______ ____

>  <TORSDO>
F 3

$$$$
=
 OpenBabel10262420023D

 27 30  0  0  1  0  0  0  0  0999 V2000
  187.8180  177.3180  144.2240 C   0  0  1  0  0  3  0  0  0  0  0  0
  186.5080  177.7750  143.6330 C   0  0  0  0  0  0  0  0  0  0  0  0
  182.8150  179.0850  141.8440 C   0  0  0  0  0  2  0  0  0  0  0  0
  180.3790  178.6320  142.1610 O   0  0  0  0  0  1  0  0  0  0  0  0
  186.3760  177.8270  142.2400 C   0  0  0  0  0  3  0  0  0  0  0  0
  183.0820  178.9950  144.7400 C   0  0  0  0  0  2  0  0  0  0  0  0
  181.7580  178.7650  144.0640 C   0  0  0  0  0  3  0  0  0  0  0  0
  185.4260  178.1450  144.4450 C   0  0  0  0  0  3  0  0  0  0  0  0
  181.6300  178.8180  142.7330 C   0  0  0  0  0  0  0  0  0  0  0  0
  184.0950  178.6070  142.4680 C   0  0  0  0  0  0  0  0  0  0  0  0
  184.2220  178.5550  143.8680 C   0  0  0  0  0  0  0  0  0  0  0  0
  185.1760  178.2460  141.6580 C   0  0  0  0  0  3  0  0  0  0  0  0
  189.1060  177.6060  143.3990 C   0  0  2  0  0  0  0  0  0  0  0  0
  190.2310  179.1440  144.8250 O   0  0  0  0  0  0  0  0  0  0  0  0
  191.5200  176.7190  145.8160 O   0  0  0  0  0  1  0  0  0  0  0  0
  191.6700  176.0570  143.5200 C   0  0  0  0  0  2  0  0  0  0  0  0
  188.8160  178.7110  142.3920 C   0  0  0  0  0  1  0  0  0  0  0  0
  191.5070  177.2060  144.5090 C   0  0  1  0  0  3  0  0  0  0  0  0
  190.3430  175.3760  143.2560 C   0  0  0  0  0  2  0  0  0  0  0  0
  189.4400  176.3700  142.5470 C   0  0  0  0  0  2  0  0  0  0  0  0
  190.2760  178.0520  144.2790 C   0  0  0  0  0  0  0  0  0  0  0  0
  188.0440  177.9510  148.4780 C   0  0  0  0  0  3  0  0  0  0  0  0
  187.9100  177.5230  145.7120 C   0  0  0  0  0  0  0  0  0  0  0  0
  188.6720  176.6690  146.5220 C   0  0  0  0  0  3  0  0  0  0  0  0
  188.7380  176.8830  147.9020 C   0  0  0  0  0  3  0  0  0  0  0  0
  187.2850  178.8070  147.6740 C   0  0  0  0  0  3  0  0  0  0  0  0
  187.2200  178.5930  146.2930 C   0  0  0  0  0  3  0  0  0  0  0  0
  1  2  1  6  0  0  0
  1 23  1  0  0  0  0
  2  8  1  0  0  0  0
  3 10  1  0  0  0  0
  3  9  1  0  0  0  0
  4  9  1  0  0  0  0
  5  2  2  0  0  0  0
  7  6  1  0  0  0  0
  9  7  2  0  0  0  0
 10 11  1  0  0  0  0
 11  8  2  0  0  0  0
 11  6  1  0  0  0  0
 12  5  1  0  0  0  0
 12 10  2  0  0  0  0
 13 17  1  6  0  0  0
 13  1  1  0  0  0  0
 13 21  1  0  0  0  0
 16 18  1  0  0  0  0
 18 15  1  1  0  0  0
 19 16  1  0  0  0  0
 20 19  1  0  0  0  0
 20 13  1  0  0  0  0
 21 18  1  0  0  0  0
 21 14  2  0  0  0  0
 23 27  2  0  0  0  0
 23 24  1  0  0  0  0
 24 25  2  0  0  0  0
 25 22  1  0  0  0  0
 26 22  2  0  0  0  0
 27 26  1  0  0  0  0
M  END
>  <MODEL>
2

>  <REMARK>
 VINA RESULT:      -9.7      1.937      3.228
  Name = 
  3 active torsions:
  status: ('A' for Active; 'I' for Inactive)
    1  A    between atoms: C_1  and  C_15
    2  A    between atoms: C_2  and  C_15
    3  A    between atoms: C_9  and  C_15
                            x       y       z     vdW  Elec       q    Type
                         _______ _______ _______ _____ _____    ______ ____

>  <TORSDO>
F 3

$$$$
=
 OpenBabel10262420023D

 27 30  0  0  1  0  0  0  0  0999 V2000
  182.0210  178.5120  139.8930 C   0  0  1  0  0  3  0  0  0  0  0  0
  182.7470  178.5740  141.2130 C   0  0  0  0  0  0  0  0  0  0  0  0
  184.7270  178.7940  145.0310 C   0  0  0  0  0  2  0  0  0  0  0  0
  186.4020  177.4350  146.2930 O   0  0  0  0  0  1  0  0  0  0  0  0
  182.0170  178.8570  142.3730 C   0  0  0  0  0  3  0  0  0  0  0  0
  186.2590  178.2180  142.6250 C   0  0  0  0  0  2  0  0  0  0  0  0
  186.6630  177.6680  143.9650 C   0  0  0  0  0  3  0  0  0  0  0  0
  184.1290  178.3540  141.3020 C   0  0  0  0  0  3  0  0  0  0  0  0
  185.9680  177.9400  145.0760 C   0  0  0  0  0  0  0  0  0  0  0  0
  184.0340  178.6950  143.7030 C   0  0  0  0  0  0  0  0  0  0  0  0
  184.7720  178.4080  142.5400 C   0  0  0  0  0  0  0  0  0  0  0  0
  182.6580  178.9230  143.6140 C   0  0  0  0  0  3  0  0  0  0  0  0
  181.2590  177.1960  139.5630 C   0  0  2  0  0  0  0  0  0  0  0  0
  179.7920  177.9330  137.8400 O   0  0  0  0  0  0  0  0  0  0  0  0
  181.9510  177.0050  136.1080 O   0  0  0  0  0  1  0  0  0  0  0  0
  182.0930  175.1160  137.5720 C   0  0  0  0  0  2  0  0  0  0  0  0
  180.0910  177.0430  140.5280 C   0  0  0  0  0  1  0  0  0  0  0  0
  181.2390  176.2680  137.0540 C   0  0  1  0  0  3  0  0  0  0  0  0
  183.0260  175.5830  138.6710 C   0  0  0  0  0  2  0  0  0  0  0  0
  182.1770  175.9990  139.8600 C   0  0  0  0  0  2  0  0  0  0  0  0
  180.7090  177.1800  138.1360 C   0  0  0  0  0  0  0  0  0  0  0  0
  180.0960  182.2040  138.7910 C   0  0  0  0  0  3  0  0  0  0  0  0
  181.3340  179.8000  139.5230 C   0  0  0  0  0  0  0  0  0  0  0  0
  180.1870  180.2370  140.2000 C   0  0  0  0  0  3  0  0  0  0  0  0
  179.5690  181.4360  139.8340 C   0  0  0  0  0  3  0  0  0  0  0  0
  181.2410  181.7730  138.1150 C   0  0  0  0  0  3  0  0  0  0  0  0
  181.8590  180.5740  138.4820 C   0  0  0  0  0  3  0  0  0  0  0  0
  1 23  1  1  0  0  0
  1  2  1  0  0  0  0
  2  8  2  0  0  0  0
  2  5  1  0  0  0  0
  3  9  1  0  0  0  0
  5 12  2  0  0  0  0
  6  7  1  0  0  0  0
  7  9  2  0  0  0  0
  8 11  1  0  0  0  0
  9  4  1  0  0  0  0
 10  3  1  0  0  0  0
 11  6  1  0  0  0  0
 11 10  2  0  0  0  0
 12 10  1  0  0  0  0
 13 20  1  0  0  0  0
 13  1  1  0  0  0  0
 13 17  1  1  0  0  0
 14 21  2  0  0  0  0
 16 19  1  0  0  0  0
 18 15  1  6  0  0  0
 18 16  1  0  0  0  0
 18 21  1  0  0  0  0
 19 20  1  0  0  0  0
 21 13  1  0  0  0  0
 22 25  1  0  0  0  0
 23 24  1  0  0  0  0
 25 24  2  0  0  0  0
 26 27  1  0  0  0  0
 26 22  2  0  0  0  0
 27 23  2  0  0  0  0
M  END
>  <MODEL>
3

>  <REMARK>
 VINA RESULT:      -9.4      4.214      8.973
  Name = 
  3 active torsions:
  status: ('A' for Active; 'I' for Inactive)
    1  A    between atoms: C_1  and  C_15
    2  A    between atoms: C_2  and  C_15
    3  A    between atoms: C_9  and  C_15
                            x       y       z     vdW  Elec       q    Type
                         _______ _______ _______ _____ _____    ______ ____

>  <TORSDO>
F 3

$$$$
=
 OpenBabel10262420023D

 27 30  0  0  1  0  0  0  0  0999 V2000
  181.8970  178.5450  139.9900 C   0  0  1  0  0  3  0  0  0  0  0  0
  182.6890  178.6020  141.2710 C   0  0  0  0  0  0  0  0  0  0  0  0
  184.8650  178.8130  144.9820 C   0  0  0  0  0  2  0  0  0  0  0  0
  186.5360  177.4050  146.1940 O   0  0  0  0  0  1  0  0  0  0  0  0
  182.0320  178.9450  142.4580 C   0  0  0  0  0  3  0  0  0  0  0  0
  186.2470  178.1120  142.5200 C   0  0  0  0  0  2  0  0  0  0  0  0
  186.6910  177.5730  143.8520 C   0  0  0  0  0  3  0  0  0  0  0  0
  184.0630  178.3180  141.2980 C   0  0  0  0  0  3  0  0  0  0  0  0
  186.0650  177.9030  144.9870 C   0  0  0  0  0  0  0  0  0  0  0  0
  184.1030  178.7170  143.6920 C   0  0  0  0  0  0  0  0  0  0  0  0
  184.7680  178.3700  142.5020 C   0  0  0  0  0  0  0  0  0  0  0  0
  182.7360  179.0080  143.6650 C   0  0  0  0  0  3  0  0  0  0  0  0
  182.5890  179.0830  138.7030 C   0  0  2  0  0  0  0  0  0  0  0  0
  183.9090  177.2050  138.0720 O   0  0  0  0  0  0  0  0  0  0  0  0
  181.5730  176.5750  136.4380 O   0  0  0  0  0  1  0  0  0  0  0  0
  181.5160  178.9090  135.9090 C   0  0  0  0  0  2  0  0  0  0  0  0
  183.8370  179.8610  139.0990 C   0  0  0  0  0  1  0  0  0  0  0  0
  182.3500  177.7330  136.4060 C   0  0  1  0  0  3  0  0  0  0  0  0
  180.7030  179.5120  137.0360 C   0  0  0  0  0  2  0  0  0  0  0  0
  181.6700  180.1200  138.0380 C   0  0  0  0  0  2  0  0  0  0  0  0
  183.0030  177.9610  137.7500 C   0  0  0  0  0  0  0  0  0  0  0  0
  179.5140  174.9840  139.5520 C   0  0  0  0  0  3  0  0  0  0  0  0
  181.0810  177.2890  139.8410 C   0  0  0  0  0  0  0  0  0  0  0  0
  181.6590  176.0190  139.9870 C   0  0  0  0  0  3  0  0  0  0  0  0
  180.8780  174.8700  139.8420 C   0  0  0  0  0  3  0  0  0  0  0  0
  178.9330  176.2470  139.4100 C   0  0  0  0  0  3  0  0  0  0  0  0
  179.7160  177.3960  139.5550 C   0  0  0  0  0  3  0  0  0  0  0  0
  1 23  1  6  0  0  0
  1  2  1  0  0  0  0
  2  8  2  0  0  0  0
  2  5  1  0  0  0  0
  3  9  1  0  0  0  0
  5 12  2  0  0  0  0
  6  7  1  0  0  0  0
  7  9  2  0  0  0  0
  8 11  1  0  0  0  0
  9  4  1  0  0  0  0
 10  3  1  0  0  0  0
 11  6  1  0  0  0  0
 11 10  2  0  0  0  0
 12 10  1  0  0  0  0
 13 17  1  1  0  0  0
 13  1  1  0  0  0  0
 16 18  1  0  0  0  0
 16 19  1  0  0  0  0
 18 15  1  1  0  0  0
 18 21  1  0  0  0  0
 19 20  1  0  0  0  0
 20 13  1  0  0  0  0
 21 14  2  0  0  0  0
 21 13  1  0  0  0  0
 22 25  1  0  0  0  0
 23 24  1  0  0  0  0
 25 24  2  0  0  0  0
 26 22  2  0  0  0  0
 26 27  1  0  0  0  0
 27 23  2  0  0  0  0
M  END
>  <MODEL>
4

>  <REMARK>
 VINA RESULT:      -9.2      4.338      8.449
  Name = 
  3 active torsions:
  status: ('A' for Active; 'I' for Inactive)
    1  A    between atoms: C_1  and  C_15
    2  A    between atoms: C_2  and  C_15
    3  A    between atoms: C_9  and  C_15
                            x       y       z     vdW  Elec       q    Type
                         _______ _______ _______ _____ _____    ______ ____

>  <TORSDO>
F 3

$$$$
=
 OpenBabel10262420023D

 27 30  0  0  1  0  0  0  0  0999 V2000
  182.8670  179.1570  139.0530 C   0  0  1  0  0  3  0  0  0  0  0  0
  183.5600  178.9680  140.3770 C   0  0  0  0  0  0  0  0  0  0  0  0
  185.6390  178.4070  144.1080 C   0  0  0  0  0  2  0  0  0  0  0  0
  185.5320  179.3670  146.4120 O   0  0  0  0  0  1  0  0  0  0  0  0
  184.9580  178.9050  140.4060 C   0  0  0  0  0  3  0  0  0  0  0  0
  182.7320  178.5210  144.0610 C   0  0  0  0  0  2  0  0  0  0  0  0
  183.5190  179.0030  145.2490 C   0  0  0  0  0  3  0  0  0  0  0  0
  182.8380  178.8540  141.5750 C   0  0  0  0  0  3  0  0  0  0  0  0
  184.8550  178.9410  145.2780 C   0  0  0  0  0  0  0  0  0  0  0  0
  184.9140  178.6250  142.8110 C   0  0  0  0  0  0  0  0  0  0  0  0
  183.5090  178.6890  142.7880 C   0  0  0  0  0  0  0  0  0  0  0  0
  185.6340  178.7290  141.6170 C   0  0  0  0  0  3  0  0  0  0  0  0
  182.6500  177.8890  138.1770 C   0  0  2  0  0  0  0  0  0  0  0  0
  182.6890  176.1770  139.8300 O   0  0  0  0  0  0  0  0  0  0  0  0
  179.7980  176.5810  139.7910 O   0  0  0  0  0  1  0  0  0  0  0  0
  180.0100  176.6940  137.4090 C   0  0  0  0  0  2  0  0  0  0  0  0
  183.9950  177.4270  137.6300 C   0  0  0  0  0  1  0  0  0  0  0  0
  180.6250  176.2290  138.7250 C   0  0  1  0  0  3  0  0  0  0  0  0
  180.3280  178.1520  137.1470 C   0  0  0  0  0  2  0  0  0  0  0  0
  181.8280  178.2730  136.9360 C   0  0  0  0  0  2  0  0  0  0  0  0
  182.0290  176.7340  138.9650 C   0  0  0  0  0  0  0  0  0  0  0  0
  179.6420  182.0120  139.1590 C   0  0  0  0  0  3  0  0  0  0  0  0
  181.7300  180.1430  139.1040 C   0  0  0  0  0  0  0  0  0  0  0  0
  180.5980  179.9130  139.8990 C   0  0  0  0  0  3  0  0  0  0  0  0
  179.5570  180.8450  139.9260 C   0  0  0  0  0  3  0  0  0  0  0  0
  180.7710  182.2460  138.3670 C   0  0  0  0  0  3  0  0  0  0  0  0
  181.8120  181.3130  138.3420 C   0  0  0  0  0  3  0  0  0  0  0  0
  1 23  1  1  0  0  0
  1  2  1  0  0  0  0
  2  5  2  0  0  0  0
  2  8  1  0  0  0  0
  3  9  1  0  0  0  0
  5 12  1  0  0  0  0
  6  7  1  0  0  0  0
  7  9  2  0  0  0  0
  8 11  2  0  0  0  0
  9  4  1  0  0  0  0
 10  3  1  0  0  0  0
 11 10  1  0  0  0  0
 11  6  1  0  0  0  0
 12 10  2  0  0  0  0
 13 17  1  6  0  0  0
 13 21  1  0  0  0  0
 13  1  1  0  0  0  0
 16 18  1  0  0  0  0
 18 21  1  0  0  0  0
 18 15  1  1  0  0  0
 19 16  1  0  0  0  0
 20 19  1  0  0  0  0
 20 13  1  0  0  0  0
 21 14  2  0  0  0  0
 22 25  1  0  0  0  0
 23 24  1  0  0  0  0
 24 25  2  0  0  0  0
 26 22  2  0  0  0  0
 27 26  1  0  0  0  0
 27 23  2  0  0  0  0
M  END
>  <MODEL>
5

>  <REMARK>
 VINA RESULT:      -8.8      4.491      8.862
  Name = 
  3 active torsions:
  status: ('A' for Active; 'I' for Inactive)
    1  A    between atoms: C_1  and  C_15
    2  A    between atoms: C_2  and  C_15
    3  A    between atoms: C_9  and  C_15
                            x       y       z     vdW  Elec       q    Type
                         _______ _______ _______ _____ _____    ______ ____

>  <TORSDO>
F 3

$$$$
=
 OpenBabel10262420023D

 27 30  0  0  1  0  0  0  0  0999 V2000
  182.1290  179.1670  138.9630 C   0  0  1  0  0  3  0  0  0  0  0  0
  182.9590  178.9780  140.2070 C   0  0  0  0  0  0  0  0  0  0  0  0
  185.4220  178.4220  143.6970 C   0  0  0  0  0  2  0  0  0  0  0  0
  185.5530  179.3760  146.0020 O   0  0  0  0  0  1  0  0  0  0  0  0
  184.3530  178.9230  140.0880 C   0  0  0  0  0  3  0  0  0  0  0  0
  182.5250  178.5190  143.9560 C   0  0  0  0  0  2  0  0  0  0  0  0
  183.4300  179.0030  145.0560 C   0  0  0  0  0  3  0  0  0  0  0  0
  182.3680  178.8580  141.4730 C   0  0  0  0  0  3  0  0  0  0  0  0
  184.7630  178.9480  144.9440 C   0  0  0  0  0  0  0  0  0  0  0  0
  184.5630  178.6370  142.4830 C   0  0  0  0  0  0  0  0  0  0  0  0
  183.1630  178.6940  142.6090 C   0  0  0  0  0  0  0  0  0  0  0  0
  185.1530  178.7490  141.2210 C   0  0  0  0  0  3  0  0  0  0  0  0
  181.6530  177.8810  138.2260 C   0  0  2  0  0  0  0  0  0  0  0  0
  182.6770  178.1650  136.0970 O   0  0  0  0  0  0  0  0  0  0  0  0
  184.7980  176.5680  137.3120 O   0  0  0  0  0  1  0  0  0  0  0  0
  183.0400  175.2230  138.2230 C   0  0  0  0  0  2  0  0  0  0  0  0
  180.2750  178.1330  137.6270 C   0  0  0  0  0  1  0  0  0  0  0  0
  183.4560  176.2240  137.1510 C   0  0  1  0  0  3  0  0  0  0  0  0
  182.6800  175.9290  139.5140 C   0  0  0  0  0  2  0  0  0  0  0  0
  181.4360  176.7630  139.2600 C   0  0  0  0  0  2  0  0  0  0  0  0
  182.6000  177.4680  137.0980 C   0  0  0  0  0  0  0  0  0  0  0  0
  179.3060  182.4100  139.2170 C   0  0  0  0  0  3  0  0  0  0  0  0
  181.1330  180.2900  139.0690 C   0  0  0  0  0  0  0  0  0  0  0  0
  180.1120  180.2760  140.0300 C   0  0  0  0  0  3  0  0  0  0  0  0
  179.2010  181.3330  140.1040 C   0  0  0  0  0  3  0  0  0  0  0  0
  180.3240  182.4300  138.2590 C   0  0  0  0  0  3  0  0  0  0  0  0
  181.2360  181.3720  138.1870 C   0  0  0  0  0  3  0  0  0  0  0  0
  1 23  1  1  0  0  0
  1  2  1  0  0  0  0
  2  8  1  0  0  0  0
  3  9  1  0  0  0  0
  5  2  2  0  0  0  0
  5 12  1  0  0  0  0
  6  7  1  0  0  0  0
  8 11  2  0  0  0  0
  9  7  2  0  0  0  0
  9  4  1  0  0  0  0
 10 11  1  0  0  0  0
 10  3  1  0  0  0  0
 11  6  1  0  0  0  0
 12 10  2  0  0  0  0
 13 17  1  6  0  0  0
 13  1  1  0  0  0  0
 13 20  1  0  0  0  0
 14 21  2  0  0  0  0
 16 19  1  0  0  0  0
 18 15  1  1  0  0  0
 18 16  1  0  0  0  0
 20 19  1  0  0  0  0
 21 18  1  0  0  0  0
 21 13  1  0  0  0  0
 22 25  1  0  0  0  0
 23 24  1  0  0  0  0
 24 25  2  0  0  0  0
 26 22  2  0  0  0  0
 27 26  1  0  0  0  0
 27 23  2  0  0  0  0
M  END
>  <MODEL>
6

>  <REMARK>
 VINA RESULT:      -8.8      4.607      8.888
  Name = 
  3 active torsions:
  status: ('A' for Active; 'I' for Inactive)
    1  A    between atoms: C_1  and  C_15
    2  A    between atoms: C_2  and  C_15
    3  A    between atoms: C_9  and  C_15
                            x       y       z     vdW  Elec       q    Type
                         _______ _______ _______ _____ _____    ______ ____

>  <TORSDO>
F 3

$$$$
=
 OpenBabel10262420023D

 27 30  0  0  1  0  0  0  0  0999 V2000
  181.9810  179.4550  138.4180 C   0  0  1  0  0  3  0  0  0  0  0  0
  182.7670  179.2240  139.6840 C   0  0  0  0  0  0  0  0  0  0  0  0
  185.1040  178.5490  143.2380 C   0  0  0  0  0  2  0  0  0  0  0  0
  185.1120  179.3790  145.5950 O   0  0  0  0  0  1  0  0  0  0  0  0
  184.1650  179.2160  139.6200 C   0  0  0  0  0  3  0  0  0  0  0  0
  182.1980  178.5460  143.3810 C   0  0  0  0  0  2  0  0  0  0  0  0
  183.0430  178.9950  144.5420 C   0  0  0  0  0  3  0  0  0  0  0  0
  182.1290  179.0160  140.9160 C   0  0  0  0  0  3  0  0  0  0  0  0
  184.3790  178.9870  144.4840 C   0  0  0  0  0  0  0  0  0  0  0  0
  184.2890  178.8060  142.0030 C   0  0  0  0  0  0  0  0  0  0  0  0
  182.8840  178.8140  142.0730 C   0  0  0  0  0  0  0  0  0  0  0  0
  184.9250  179.0040  140.7750 C   0  0  0  0  0  3  0  0  0  0  0  0
  181.4230  178.1980  137.6890 C   0  0  2  0  0  0  0  0  0  0  0  0
  183.4200  176.9590  137.3140 O   0  0  0  0  0  0  0  0  0  0  0  0
  182.6810  175.7030  139.8440 O   0  0  0  0  0  1  0  0  0  0  0  0
  180.4430  175.6830  138.9930 C   0  0  0  0  0  2  0  0  0  0  0  0
  181.3000  178.5000  136.2010 C   0  0  0  0  0  1  0  0  0  0  0  0
  181.9310  175.7620  138.6690 C   0  0  1  0  0  3  0  0  0  0  0  0
  179.8990  177.0420  139.3820 C   0  0  0  0  0  2  0  0  0  0  0  0
  179.9820  177.9450  138.1630 C   0  0  0  0  0  2  0  0  0  0  0  0
  182.3250  176.9750  137.8590 C   0  0  0  0  0  0  0  0  0  0  0  0
  179.3610  182.8650  138.6580 C   0  0  0  0  0  3  0  0  0  0  0  0
  181.0740  180.6550  138.4840 C   0  0  0  0  0  0  0  0  0  0  0  0
  181.1370  181.6740  137.5230 C   0  0  0  0  0  3  0  0  0  0  0  0
  180.2830  182.7770  137.6100 C   0  0  0  0  0  3  0  0  0  0  0  0
  179.2930  181.8500  139.6170 C   0  0  0  0  0  3  0  0  0  0  0  0
  180.1470  180.7470  139.5280 C   0  0  0  0  0  3  0  0  0  0  0  0
  1 23  1  1  0  0  0
  1  2  1  0  0  0  0
  2  8  1  0  0  0  0
  3  9  1  0  0  0  0
  5  2  2  0  0  0  0
  5 12  1  0  0  0  0
  6  7  1  0  0  0  0
  8 11  2  0  0  0  0
  9  7  2  0  0  0  0
  9  4  1  0  0  0  0
 10 11  1  0  0  0  0
 10  3  1  0  0  0  0
 11  6  1  0  0  0  0
 12 10  2  0  0  0  0
 13 17  1  6  0  0  0
 13 21  1  0  0  0  0
 13 20  1  0  0  0  0
 13  1  1  0  0  0  0
 14 21  2  0  0  0  0
 16 19  1  0  0  0  0
 18 16  1  0  0  0  0
 18 15  1  1  0  0  0
 20 19  1  0  0  0  0
 21 18  1  0  0  0  0
 22 26  1  0  0  0  0
 23 27  1  0  0  0  0
 24 25  1  0  0  0  0
 24 23  2  0  0  0  0
 25 22  2  0  0  0  0
 27 26  2  0  0  0  0
M  END
>  <MODEL>
7

>  <REMARK>
 VINA RESULT:      -8.7      4.940      9.355
  Name = 
  3 active torsions:
  status: ('A' for Active; 'I' for Inactive)
    1  A    between atoms: C_1  and  C_15
    2  A    between atoms: C_2  and  C_15
    3  A    between atoms: C_9  and  C_15
                            x       y       z     vdW  Elec       q    Type
                         _______ _______ _______ _____ _____    ______ ____

>  <TORSDO>
F 3

$$$$
=
 OpenBabel10262420023D

 27 30  0  0  1  0  0  0  0  0999 V2000
  189.1410  176.7670  138.4090 C   0  0  1  0  0  3  0  0  0  0  0  0
  189.2820  177.1720  139.8540 C   0  0  0  0  0  0  0  0  0  0  0  0
  189.5950  178.3970  143.9720 C   0  0  0  0  0  2  0  0  0  0  0  0
  190.2240  177.3330  146.1430 O   0  0  0  0  0  1  0  0  0  0  0  0
  188.2590  177.9180  140.4500 C   0  0  0  0  0  3  0  0  0  0  0  0
  191.7360  176.8580  142.7410 C   0  0  0  0  0  2  0  0  0  0  0  0
  191.4250  176.7400  144.2080 C   0  0  0  0  0  3  0  0  0  0  0  0
  190.4100  176.8180  140.6100 C   0  0  0  0  0  3  0  0  0  0  0  0
  190.4490  177.4550  144.7790 C   0  0  0  0  0  0  0  0  0  0  0  0
  189.4770  177.9500  142.5430 C   0  0  0  0  0  0  0  0  0  0  0  0
  190.5070  177.1990  141.9500 C   0  0  0  0  0  0  0  0  0  0  0  0
  188.3560  178.3110  141.7890 C   0  0  0  0  0  3  0  0  0  0  0  0
  188.4720  177.7920  137.4470 C   0  0  2  0  0  0  0  0  0  0  0  0
  189.6170  177.3290  135.4130 O   0  0  0  0  0  0  0  0  0  0  0  0
  187.3390  175.5600  134.9600 O   0  0  0  0  0  1  0  0  0  0  0  0
  185.9930  177.3410  135.8230 C   0  0  0  0  0  2  0  0  0  0  0  0
  189.1850  179.1320  137.5740 C   0  0  0  0  0  1  0  0  0  0  0  0
  187.3200  176.9360  135.1910 C   0  0  1  0  0  3  0  0  0  0  0  0
  186.0130  177.1130  137.3210 C   0  0  0  0  0  2  0  0  0  0  0  0
  187.0350  178.0610  137.9250 C   0  0  0  0  0  2  0  0  0  0  0  0
  188.5370  177.3500  135.9840 C   0  0  0  0  0  0  0  0  0  0  0  0
  192.5180  174.5830  136.8670 C   0  0  0  0  0  3  0  0  0  0  0  0
  190.3340  176.0210  137.8750 C   0  0  0  0  0  0  0  0  0  0  0  0
  191.6060  176.6080  137.8320 C   0  0  0  0  0  3  0  0  0  0  0  0
  192.6960  175.8910  137.3290 C   0  0  0  0  0  3  0  0  0  0  0  0
  191.2520  173.9930  136.9100 C   0  0  0  0  0  3  0  0  0  0  0  0
  190.1630  174.7110  137.4140 C   0  0  0  0  0  3  0  0  0  0  0  0
  1 23  1  6  0  0  0
  1  2  1  0  0  0  0
  2  5  2  0  0  0  0
  2  8  1  0  0  0  0
  3  9  1  0  0  0  0
  5 12  1  0  0  0  0
  6  7  1  0  0  0  0
  7  9  2  0  0  0  0
  8 11  2  0  0  0  0
  9  4  1  0  0  0  0
 10  3  1  0  0  0  0
 11 10  1  0  0  0  0
 11  6  1  0  0  0  0
 12 10  2  0  0  0  0
 13 17  1  1  0  0  0
 13 20  1  0  0  0  0
 13  1  1  0  0  0  0
 14 21  2  0  0  0  0
 16 19  1  0  0  0  0
 18 15  1  1  0  0  0
 18 16  1  0  0  0  0
 18 21  1  0  0  0  0
 19 20  1  0  0  0  0
 21 13  1  0  0  0  0
 22 26  2  0  0  0  0
 22 25  1  0  0  0  0
 24 23  1  0  0  0  0
 25 24  2  0  0  0  0
 26 27  1  0  0  0  0
 27 23  2  0  0  0  0
M  END
>  <MODEL>
8

>  <REMARK>
 VINA RESULT:      -8.7      3.456      6.967
  Name = 
  3 active torsions:
  status: ('A' for Active; 'I' for Inactive)
    1  A    between atoms: C_1  and  C_15
    2  A    between atoms: C_2  and  C_15
    3  A    between atoms: C_9  and  C_15
                            x       y       z     vdW  Elec       q    Type
                         _______ _______ _______ _____ _____    ______ ____

>  <TORSDO>
F 3

$$$$
=
 OpenBabel10262420023D

 27 30  0  0  1  0  0  0  0  0999 V2000
  188.4170  177.1120  144.0920 C   0  0  1  0  0  3  0  0  0  0  0  0
  188.3150  177.4380  142.6240 C   0  0  0  0  0  0  0  0  0  0  0  0
  187.9340  178.4320  138.4500 C   0  0  0  0  0  2  0  0  0  0  0  0
  189.4780  178.8430  136.5290 O   0  0  0  0  0  1  0  0  0  0  0  0
  187.4440  178.4540  142.2150 C   0  0  0  0  0  3  0  0  0  0  0  0
  189.7380  176.3070  139.2840 C   0  0  0  0  0  2  0  0  0  0  0  0
  190.0210  177.1480  138.0700 C   0  0  0  0  0  3  0  0  0  0  0  0
  189.0710  176.7480  141.6640 C   0  0  0  0  0  3  0  0  0  0  0  0
  189.1880  178.1180  137.6770 C   0  0  0  0  0  0  0  0  0  0  0  0
  188.0840  178.1000  139.9070 C   0  0  0  0  0  0  0  0  0  0  0  0
  188.9630  177.0780  140.3120 C   0  0  0  0  0  0  0  0  0  0  0  0
  187.3240  178.7820  140.8610 C   0  0  0  0  0  3  0  0  0  0  0  0
  189.8200  177.2430  144.7520 C   0  0  2  0  0  0  0  0  0  0  0  0
  190.9730  175.4180  143.7490 O   0  0  0  0  0  0  0  0  0  0  0  0
  191.7890  177.4630  141.8320 O   0  0  0  0  0  1  0  0  0  0  0  0
  192.1130  178.8840  143.7320 C   0  0  0  0  0  2  0  0  0  0  0  0
  189.8060  176.5290  146.0970 C   0  0  0  0  0  1  0  0  0  0  0  0
  191.9960  177.4550  143.2110 C   0  0  1  0  0  3  0  0  0  0  0  0
  190.7440  179.4900  143.9640 C   0  0  0  0  0  2  0  0  0  0  0  0
  190.0770  178.7210  145.0910 C   0  0  0  0  0  2  0  0  0  0  0  0
  190.9300  176.6310  143.8950 C   0  0  0  0  0  0  0  0  0  0  0  0
  185.0250  178.5050  146.3520 C   0  0  0  0  0  3  0  0  0  0  0  0
  187.2440  177.6000  144.8990 C   0  0  0  0  0  0  0  0  0  0  0  0
  187.3550  177.8500  146.2740 C   0  0  0  0  0  3  0  0  0  0  0  0
  186.2480  178.3010  146.9990 C   0  0  0  0  0  3  0  0  0  0  0  0
  184.9110  178.2600  144.9800 C   0  0  0  0  0  3  0  0  0  0  0  0
  186.0190  177.8090  144.2560 C   0  0  0  0  0  3  0  0  0  0  0  0
  1  2  1  6  0  0  0
  1 13  1  0  0  0  0
  1 23  1  0  0  0  0
  3 10  1  0  0  0  0
  4  9  1  0  0  0  0
  5  2  1  0  0  0  0
  6 11  1  0  0  0  0
  7  6  1  0  0  0  0
  8  2  2  0  0  0  0
  9  7  2  0  0  0  0
  9  3  1  0  0  0  0
 10 11  2  0  0  0  0
 10 12  1  0  0  0  0
 11  8  1  0  0  0  0
 12  5  2  0  0  0  0
 13 20  1  0  0  0  0
 13 17  1  1  0  0  0
 14 21  2  0  0  0  0
 16 19  1  0  0  0  0
 18 15  1  6  0  0  0
 18 16  1  0  0  0  0
 18 21  1  0  0  0  0
 19 20  1  0  0  0  0
 21 13  1  0  0  0  0
 22 25  1  0  0  0  0
 23 24  1  0  0  0  0
 24 25  2  0  0  0  0
 26 22  2  0  0  0  0
 27 23  2  0  0  0  0
 27 26  1  0  0  0  0
M  END
>  <MODEL>
9

>  <REMARK>
 VINA RESULT:      -8.7      2.518      5.087
  Name = 
  3 active torsions:
  status: ('A' for Active; 'I' for Inactive)
    1  A    between atoms: C_1  and  C_15
    2  A    between atoms: C_2  and  C_15
    3  A    between atoms: C_9  and  C_15
                            x       y       z     vdW  Elec       q    Type
                         _______ _______ _______ _____ _____    ______ ____

>  <TORSDO>
F 3

$$$$
