=
 OpenBabel10252415053D

 34 38  0  0  1  0  0  0  0  0999 V2000
  191.7270  176.3650  137.3580 C   0  0  0  0  0  0  0  0  0  0  0  0
  189.5680  175.4420  136.5120 C   0  0  0  0  0  2  0  0  0  0  0  0
  189.5700  177.4300  137.9440 N   0  0  0  0  0  0  0  0  0  0  0  0
  187.2410  177.9930  138.4850 C   0  0  2  0  0  3  0  0  0  0  0  0
  192.3270  175.8550  134.9500 C   0  0  0  0  0  2  0  0  0  0  0  0
  191.3840  174.3090  134.7690 S   0  0  0  0  0  0  0  0  0  0  0  0
  188.0970  178.1740  136.2450 O   0  0  0  0  0  1  0  0  0  0  0  0
  190.3210  176.7080  136.9040 C   0  0  1  0  0  3  0  0  0  0  0  0
  192.8120  176.0070  136.3850 C   0  0  0  0  0  2  0  0  0  0  0  0
  189.8560  177.2060  139.3420 C   0  0  0  0  0  0  0  0  0  0  0  0
  192.0160  176.3020  138.6590 C   0  0  0  0  0  3  0  0  0  0  0  0
  189.7800  175.1260  135.0410 C   0  0  0  0  0  2  0  0  0  0  0  0
  187.6230  177.9640  139.9400 C   0  0  0  0  0  3  0  0  0  0  0  0
  188.8330  177.5750  140.3660 C   0  0  0  0  0  0  0  0  0  0  0  0
  188.4480  178.3100  137.5920 C   0  0  2  0  0  3  0  0  0  0  0  0
  191.0240  176.6560  139.6840 C   0  0  0  0  0  3  0  0  0  0  0  0
  190.3130  178.4290  143.7650 C   0  0  0  0  0  0  0  0  0  0  0  0
  189.5480  177.6220  144.6090 C   0  0  0  0  0  3  0  0  0  0  0  0
  189.1040  177.5760  141.8310 C   0  0  0  0  0  0  0  0  0  0  0  0
  188.5600  176.7930  144.0750 C   0  0  0  0  0  3  0  0  0  0  0  0
  190.0900  178.4070  142.3850 C   0  0  0  0  0  3  0  0  0  0  0  0
  188.3380  176.7720  142.6950 C   0  0  0  0  0  3  0  0  0  0  0  0
  191.5430  179.4790  144.4320 Cl  0  0  0  0  0  0  0  0  0  0  0  0
  186.1010  178.8870  138.2480 N   0  0  0  0  0  2  0  0  0  0  0  0
  184.8530  178.2800  138.7060 C   0  0  0  0  0  2  0  0  0  0  0  0
  184.2410  179.1040  139.8230 C   0  0  0  0  0  2  0  0  0  0  0  0
  183.5330  178.1860  140.8060 C   0  0  0  0  0  2  0  0  0  0  0  0
  181.1770  178.9750  142.6500 S   0  0  0  0  0  0  0  0  0  0  0  0
  183.8030  178.6050  142.1770 N   0  0  0  0  0  0  0  0  0  0  0  0
  182.7490  178.9220  143.1100 C   0  0  0  0  0  0  0  0  0  0  0  0
  184.4190  178.7480  144.9150 C   0  0  0  0  0  3  0  0  0  0  0  0
  185.3890  178.5000  144.0230 C   0  0  0  0  0  3  0  0  0  0  0  0
  185.1910  178.8420  142.5700 C   0  0  0  0  0  2  0  0  0  0  0  0
  183.1180  179.3760  144.4920 C   0  0  0  0  0  2  0  0  0  0  0  0
  1 11  2  0  0  0  0
  3 10  1  0  0  0  0
  4 24  1  1  0  0  0
  4 13  1  0  0  0  0
  5  9  1  0  0  0  0
  6  5  1  0  0  0  0
  6 12  1  0  0  0  0
  8  2  1  1  0  0  0
  8  1  1  0  0  0  0
  8  3  1  0  0  0  0
  9  1  1  0  0  0  0
 10 16  2  0  0  0  0
 10 14  1  0  0  0  0
 11 16  1  0  0  0  0
 12  2  1  0  0  0  0
 13 14  2  0  0  0  0
 14 19  1  0  0  0  0
 15  7  1  6  0  0  0
 15  3  1  0  0  0  0
 15  4  1  0  0  0  0
 17 23  1  0  0  0  0
 17 18  1  0  0  0  0
 19 21  1  0  0  0  0
 19 22  2  0  0  0  0
 20 18  2  0  0  0  0
 21 17  2  0  0  0  0
 22 20  1  0  0  0  0
 24 25  1  0  0  0  0
 25 26  1  0  0  0  0
 26 27  1  0  0  0  0
 27 29  1  0  0  0  0
 28 30  2  0  0  0  0
 29 33  1  0  0  0  0
 29 30  1  0  0  0  0
 30 34  1  0  0  0  0
 32 31  2  0  0  0  0
 33 32  1  0  0  0  0
 34 31  1  0  0  0  0
M  END
>  <MODEL>
1

>  <REMARK>
 VINA RESULT:      -8.5      0.000      0.000
  Name = 
  6 active torsions:
  status: ('A' for Active; 'I' for Inactive)
    1  A    between atoms: C_3  and  N_13
    2  A    between atoms: C_3  and  C_17
    3  A    between atoms: C_5  and  N_18
    4  A    between atoms: C_12  and  C_28
    5  A    between atoms: C_17  and  C_29
    6  A    between atoms: N_18  and  C_29
                            x       y       z     vdW  Elec       q    Type
                         _______ _______ _______ _____ _____    ______ ____

>  <TORSDO>
F 6

$$$$
=
 OpenBabel10252415053D

 34 38  0  0  1  0  0  0  0  0999 V2000
  191.8940  177.2650  140.6850 C   0  0  0  0  0  0  0  0  0  0  0  0
  190.0080  176.1500  139.4890 C   0  0  0  0  0  2  0  0  0  0  0  0
  189.5470  177.9310  141.1070 N   0  0  0  0  0  0  0  0  0  0  0  0
  187.1150  178.0850  141.4110 C   0  0  2  0  0  3  0  0  0  0  0  0
  192.8200  177.1390  138.3290 C   0  0  0  0  0  2  0  0  0  0  0  0
  192.1540  175.5070  137.8760 S   0  0  0  0  0  0  0  0  0  0  0  0
  188.1660  178.6550  139.3250 O   0  0  0  0  0  1  0  0  0  0  0  0
  190.5080  177.4550  140.0990 C   0  0  1  0  0  3  0  0  0  0  0  0
  193.1200  177.1850  139.8210 C   0  0  0  0  0  2  0  0  0  0  0  0
  189.7140  177.5840  142.4990 C   0  0  0  0  0  0  0  0  0  0  0  0
  192.0490  177.0870  141.9980 C   0  0  0  0  0  3  0  0  0  0  0  0
  190.4230  176.0470  138.0310 C   0  0  0  0  0  2  0  0  0  0  0  0
  187.3400  177.9370  142.8920 C   0  0  0  0  0  3  0  0  0  0  0  0
  188.5430  177.6770  143.4210 C   0  0  0  0  0  0  0  0  0  0  0  0
  188.3460  178.6770  140.7120 C   0  0  2  0  0  3  0  0  0  0  0  0
  190.9110  177.1710  142.9240 C   0  0  0  0  0  3  0  0  0  0  0  0
  189.9670  177.0710  146.8970 C   0  0  0  0  0  0  0  0  0  0  0  0
  188.8640  177.3650  147.7010 C   0  0  0  0  0  3  0  0  0  0  0  0
  188.6530  177.5400  144.9010 C   0  0  0  0  0  0  0  0  0  0  0  0
  187.6560  177.7480  147.1160 C   0  0  0  0  0  3  0  0  0  0  0  0
  189.8620  177.1610  145.5060 C   0  0  0  0  0  3  0  0  0  0  0  0
  187.5530  177.8370  145.7250 C   0  0  0  0  0  3  0  0  0  0  0  0
  191.4860  176.6030  147.6280 Cl  0  0  0  0  0  0  0  0  0  0  0  0
  185.8810  178.8290  141.1290 N   0  0  0  0  0  2  0  0  0  0  0  0
  185.2140  179.2280  142.3660 C   0  0  0  0  0  2  0  0  0  0  0  0
  183.9900  178.3640  142.6110 C   0  0  0  0  0  2  0  0  0  0  0  0
  182.9460  178.6440  141.5420 C   0  0  0  0  0  2  0  0  0  0  0  0
  180.6670  179.7860  139.7880 S   0  0  0  0  0  0  0  0  0  0  0  0
  181.6680  178.9840  142.1580 N   0  0  0  0  0  0  0  0  0  0  0  0
  180.5430  179.4580  141.3890 C   0  0  0  0  0  0  0  0  0  0  0  0
  179.1200  178.9670  143.3420 C   0  0  0  0  0  3  0  0  0  0  0  0
  180.1890  178.5750  144.0490 C   0  0  0  0  0  3  0  0  0  0  0  0
  181.5750  178.9740  143.6160 C   0  0  0  0  0  2  0  0  0  0  0  0
  179.2740  179.8150  142.1080 C   0  0  0  0  0  2  0  0  0  0  0  0
  1 11  2  0  0  0  0
  3 10  1  0  0  0  0
  4 24  1  1  0  0  0
  4 13  1  0  0  0  0
  5  9  1  0  0  0  0
  6 12  1  0  0  0  0
  6  5  1  0  0  0  0
  8  2  1  1  0  0  0
  8  1  1  0  0  0  0
  8  3  1  0  0  0  0
  9  1  1  0  0  0  0
 10 16  2  0  0  0  0
 10 14  1  0  0  0  0
 11 16  1  0  0  0  0
 12  2  1  0  0  0  0
 13 14  2  0  0  0  0
 14 19  1  0  0  0  0
 15  7  1  6  0  0  0
 15  3  1  0  0  0  0
 15  4  1  0  0  0  0
 17 23  1  0  0  0  0
 17 18  1  0  0  0  0
 19 21  1  0  0  0  0
 19 22  2  0  0  0  0
 20 18  2  0  0  0  0
 21 17  2  0  0  0  0
 22 20  1  0  0  0  0
 24 25  1  0  0  0  0
 25 26  1  0  0  0  0
 27 29  1  0  0  0  0
 27 26  1  0  0  0  0
 28 30  2  0  0  0  0
 29 33  1  0  0  0  0
 30 34  1  0  0  0  0
 30 29  1  0  0  0  0
 31 32  2  0  0  0  0
 33 32  1  0  0  0  0
 34 31  1  0  0  0  0
M  END
>  <MODEL>
2

>  <REMARK>
 VINA RESULT:      -8.3      2.281      3.430
  Name = 
  6 active torsions:
  status: ('A' for Active; 'I' for Inactive)
    1  A    between atoms: C_3  and  N_13
    2  A    between atoms: C_3  and  C_17
    3  A    between atoms: C_5  and  N_18
    4  A    between atoms: C_12  and  C_28
    5  A    between atoms: C_17  and  C_29
    6  A    between atoms: N_18  and  C_29
                            x       y       z     vdW  Elec       q    Type
                         _______ _______ _______ _____ _____    ______ ____

>  <TORSDO>
F 6

$$$$
=
 OpenBabel10252415053D

 34 38  0  0  1  0  0  0  0  0999 V2000
  191.8300  177.2600  140.4810 C   0  0  0  0  0  0  0  0  0  0  0  0
  190.1370  176.1760  139.0030 C   0  0  0  0  0  2  0  0  0  0  0  0
  189.4760  178.0270  140.4640 N   0  0  0  0  0  0  0  0  0  0  0  0
  187.0370  178.2820  140.3310 C   0  0  2  0  0  3  0  0  0  0  0  0
  193.1470  177.0190  138.3300 C   0  0  0  0  0  2  0  0  0  0  0  0
  192.5030  175.3980  137.8120 S   0  0  0  0  0  0  0  0  0  0  0  0
  188.4600  178.7400  138.4470 O   0  0  0  0  0  1  0  0  0  0  0  0
  190.5770  177.4810  139.6550 C   0  0  1  0  0  3  0  0  0  0  0  0
  193.1830  177.1050  139.8500 C   0  0  0  0  0  2  0  0  0  0  0  0
  189.3820  177.7230  141.8730 C   0  0  0  0  0  0  0  0  0  0  0  0
  191.7450  177.1230  141.8050 C   0  0  0  0  0  3  0  0  0  0  0  0
  190.7960  176.0060  137.6440 C   0  0  0  0  0  2  0  0  0  0  0  0
  186.9920  178.1780  141.8310 C   0  0  0  0  0  3  0  0  0  0  0  0
  188.0720  177.8910  142.5710 C   0  0  0  0  0  0  0  0  0  0  0  0
  188.3950  178.8040  139.8430 C   0  0  2  0  0  3  0  0  0  0  0  0
  190.4670  177.2810  142.5140 C   0  0  0  0  0  3  0  0  0  0  0  0
  186.5330  177.9430  146.0500 C   0  0  0  0  0  0  0  0  0  0  0  0
  187.6180  177.5530  146.8370 C   0  0  0  0  0  3  0  0  0  0  0  0
  187.9160  177.8020  144.0500 C   0  0  0  0  0  0  0  0  0  0  0  0
  188.8510  177.2840  146.2410 C   0  0  0  0  0  3  0  0  0  0  0  0
  186.6810  178.0640  144.6660 C   0  0  0  0  0  3  0  0  0  0  0  0
  188.9980  177.4060  144.8570 C   0  0  0  0  0  3  0  0  0  0  0  0
  184.9830  178.2690  146.7920 Cl  0  0  0  0  0  0  0  0  0  0  0  0
  185.9040  179.0620  139.8150 N   0  0  0  0  0  2  0  0  0  0  0  0
  185.0360  178.2360  138.9790 C   0  0  0  0  0  2  0  0  0  0  0  0
  183.5780  178.5790  139.2280 C   0  0  0  0  0  2  0  0  0  0  0  0
  182.9770  177.5810  140.2030 C   0  0  0  0  0  2  0  0  0  0  0  0
  180.0030  178.3610  140.5450 S   0  0  0  0  0  0  0  0  0  0  0  0
  182.5480  178.2580  141.4220 N   0  0  0  0  0  0  0  0  0  0  0  0
  181.1670  178.5900  141.6750 C   0  0  0  0  0  0  0  0  0  0  0  0
  181.7800  178.9420  144.0370 C   0  0  0  0  0  3  0  0  0  0  0  0
  183.0650  178.6730  143.7660 C   0  0  0  0  0  3  0  0  0  0  0  0
  183.5720  178.7350  142.3500 C   0  0  0  0  0  2  0  0  0  0  0  0
  180.8170  179.3160  142.9420 C   0  0  0  0  0  2  0  0  0  0  0  0
  1 11  2  0  0  0  0
  3 10  1  0  0  0  0
  4 24  1  1  0  0  0
  4 13  1  0  0  0  0
  5  9  1  0  0  0  0
  6  5  1  0  0  0  0
  8  2  1  1  0  0  0
  8  3  1  0  0  0  0
  8  1  1  0  0  0  0
  9  1  1  0  0  0  0
 10 16  2  0  0  0  0
 10 14  1  0  0  0  0
 11 16  1  0  0  0  0
 12  6  1  0  0  0  0
 12  2  1  0  0  0  0
 13 14  2  0  0  0  0
 14 19  1  0  0  0  0
 15  7  1  6  0  0  0
 15  4  1  0  0  0  0
 15  3  1  0  0  0  0
 17 23  1  0  0  0  0
 17 18  1  0  0  0  0
 19 21  1  0  0  0  0
 19 22  2  0  0  0  0
 20 18  2  0  0  0  0
 21 17  2  0  0  0  0
 22 20  1  0  0  0  0
 25 26  1  0  0  0  0
 25 24  1  0  0  0  0
 26 27  1  0  0  0  0
 27 29  1  0  0  0  0
 28 30  2  0  0  0  0
 29 30  1  0  0  0  0
 29 33  1  0  0  0  0
 30 34  1  0  0  0  0
 32 31  2  0  0  0  0
 33 32  1  0  0  0  0
 34 31  1  0  0  0  0
M  END
>  <MODEL>
3

>  <REMARK>
 VINA RESULT:      -8.3      2.082      2.888
  Name = 
  6 active torsions:
  status: ('A' for Active; 'I' for Inactive)
    1  A    between atoms: C_3  and  N_13
    2  A    between atoms: C_3  and  C_17
    3  A    between atoms: C_5  and  N_18
    4  A    between atoms: C_12  and  C_28
    5  A    between atoms: C_17  and  C_29
    6  A    between atoms: N_18  and  C_29
                            x       y       z     vdW  Elec       q    Type
                         _______ _______ _______ _____ _____    ______ ____

>  <TORSDO>
F 6

$$$$
=
 OpenBabel10252415053D

 34 38  0  0  1  0  0  0  0  0999 V2000
  189.6990  177.1500  145.7490 C   0  0  0  0  0  0  0  0  0  0  0  0
  190.2520  175.7350  143.7690 C   0  0  0  0  0  2  0  0  0  0  0  0
  189.1000  177.8740  143.4590 N   0  0  0  0  0  0  0  0  0  0  0  0
  188.4680  178.0730  141.0940 C   0  0  2  0  0  3  0  0  0  0  0  0
  192.0560  176.4170  146.3200 C   0  0  0  0  0  2  0  0  0  0  0  0
  191.9600  174.7140  145.6840 S   0  0  0  0  0  0  0  0  0  0  0  0
  190.7690  178.0830  141.7910 O   0  0  0  0  0  1  0  0  0  0  0  0
  190.0880  177.1600  144.2830 C   0  0  1  0  0  3  0  0  0  0  0  0
  190.6930  176.8600  146.8350 C   0  0  0  0  0  2  0  0  0  0  0  0
  187.7100  177.9110  143.8490 C   0  0  0  0  0  0  0  0  0  0  0  0
  188.4260  177.3280  146.1070 C   0  0  0  0  0  3  0  0  0  0  0  0
  191.6800  175.2540  143.9680 C   0  0  0  0  0  2  0  0  0  0  0  0
  187.0540  178.3250  141.5430 C   0  0  0  0  0  3  0  0  0  0  0  0
  186.6710  178.2300  142.8240 C   0  0  0  0  0  0  0  0  0  0  0  0
  189.4810  178.4740  142.1730 C   0  0  2  0  0  3  0  0  0  0  0  0
  187.3860  177.6400  145.1160 C   0  0  0  0  0  3  0  0  0  0  0  0
  182.9010  178.6270  142.5080 C   0  0  0  0  0  0  0  0  0  0  0  0
  182.5420  178.9120  143.8270 C   0  0  0  0  0  3  0  0  0  0  0  0
  185.2440  178.4920  143.1600 C   0  0  0  0  0  0  0  0  0  0  0  0
  183.5240  178.9860  144.8160 C   0  0  0  0  0  3  0  0  0  0  0  0
  184.2420  178.4160  142.1780 C   0  0  0  0  0  3  0  0  0  0  0  0
  184.8660  178.7750  144.4850 C   0  0  0  0  0  3  0  0  0  0  0  0
  181.6720  178.5210  141.2680 Cl  0  0  0  0  0  0  0  0  0  0  0  0
  188.7360  178.7000  139.7940 N   0  0  0  0  0  2  0  0  0  0  0  0
  187.9070  178.1100  138.7450 C   0  0  0  0  0  2  0  0  0  0  0  0
  188.7760  177.5470  137.6360 C   0  0  0  0  0  2  0  0  0  0  0  0
  188.8950  176.0400  137.7950 C   0  0  0  0  0  2  0  0  0  0  0  0
  189.7710  173.4530  136.3410 S   0  0  0  0  0  0  0  0  0  0  0  0
  190.2980  175.6410  137.8220 N   0  0  0  0  0  0  0  0  0  0  0  0
  190.7860  174.4840  137.1110 C   0  0  0  0  0  0  0  0  0  0  0  0
  193.0660  175.3710  137.4180 C   0  0  0  0  0  3  0  0  0  0  0  0
  192.5900  176.4130  138.1150 C   0  0  0  0  0  3  0  0  0  0  0  0
  191.2080  176.3610  138.7110 C   0  0  0  0  0  2  0  0  0  0  0  0
  192.2400  174.1280  137.2190 C   0  0  0  0  0  2  0  0  0  0  0  0
  1 11  2  0  0  0  0
  1  9  1  0  0  0  0
  2 12  1  0  0  0  0
  3 10  1  0  0  0  0
  3  8  1  0  0  0  0
  4 24  1  6  0  0  0
  4 13  1  0  0  0  0
  4 15  1  0  0  0  0
  5  9  1  0  0  0  0
  6  5  1  0  0  0  0
  8  2  1  6  0  0  0
  8  1  1  0  0  0  0
 10 16  2  0  0  0  0
 12  6  1  0  0  0  0
 13 14  2  0  0  0  0
 14 19  1  0  0  0  0
 14 10  1  0  0  0  0
 15  7  1  6  0  0  0
 15  3  1  0  0  0  0
 16 11  1  0  0  0  0
 17 18  1  0  0  0  0
 18 20  2  0  0  0  0
 19 22  2  0  0  0  0
 21 17  2  0  0  0  0
 21 19  1  0  0  0  0
 22 20  1  0  0  0  0
 23 17  1  0  0  0  0
 25 24  1  0  0  0  0
 26 27  1  0  0  0  0
 26 25  1  0  0  0  0
 27 29  1  0  0  0  0
 28 30  2  0  0  0  0
 29 33  1  0  0  0  0
 30 34  1  0  0  0  0
 30 29  1  0  0  0  0
 31 32  2  0  0  0  0
 32 33  1  0  0  0  0
 34 31  1  0  0  0  0
M  END
>  <MODEL>
4

>  <REMARK>
 VINA RESULT:      -8.1      3.419      7.817
  Name = 
  6 active torsions:
  status: ('A' for Active; 'I' for Inactive)
    1  A    between atoms: C_3  and  N_13
    2  A    between atoms: C_3  and  C_17
    3  A    between atoms: C_5  and  N_18
    4  A    between atoms: C_12  and  C_28
    5  A    between atoms: C_17  and  C_29
    6  A    between atoms: N_18  and  C_29
                            x       y       z     vdW  Elec       q    Type
                         _______ _______ _______ _____ _____    ______ ____

>  <TORSDO>
F 6

$$$$
=
 OpenBabel10252415053D

 34 38  0  0  1  0  0  0  0  0999 V2000
  189.7050  177.1430  145.7220 C   0  0  0  0  0  0  0  0  0  0  0  0
  190.2710  175.7160  143.7550 C   0  0  0  0  0  2  0  0  0  0  0  0
  189.1290  177.8570  143.4230 N   0  0  0  0  0  0  0  0  0  0  0  0
  188.5170  178.0450  141.0510 C   0  0  2  0  0  3  0  0  0  0  0  0
  192.0550  176.4060  146.3170 C   0  0  0  0  0  2  0  0  0  0  0  0
  191.9590  174.7000  145.6890 S   0  0  0  0  0  0  0  0  0  0  0  0
  190.8130  178.0520  141.7690 O   0  0  0  0  0  1  0  0  0  0  0  0
  190.1080  177.1450  144.2600 C   0  0  1  0  0  3  0  0  0  0  0  0
  190.6900  176.8560  146.8180 C   0  0  0  0  0  2  0  0  0  0  0  0
  187.7360  177.9000  143.8010 C   0  0  0  0  0  0  0  0  0  0  0  0
  188.4300  177.3280  146.0680 C   0  0  0  0  0  3  0  0  0  0  0  0
  191.6960  175.2320  143.9690 C   0  0  0  0  0  2  0  0  0  0  0  0
  187.1000  178.3040  141.4870 C   0  0  0  0  0  3  0  0  0  0  0  0
  186.7070  178.2170  142.7660 C   0  0  0  0  0  0  0  0  0  0  0  0
  189.5230  178.4490  142.1380 C   0  0  2  0  0  3  0  0  0  0  0  0
  187.4000  177.6370  145.0670 C   0  0  0  0  0  3  0  0  0  0  0  0
  182.9410  178.6280  142.4140 C   0  0  0  0  0  0  0  0  0  0  0  0
  182.5710  178.9160  143.7290 C   0  0  0  0  0  3  0  0  0  0  0  0
  185.2770  178.4850  143.0870 C   0  0  0  0  0  0  0  0  0  0  0  0
  183.5440  178.9890  144.7270 C   0  0  0  0  0  3  0  0  0  0  0  0
  184.2840  178.4110  142.0970 C   0  0  0  0  0  3  0  0  0  0  0  0
  184.8880  178.7720  144.4080 C   0  0  0  0  0  3  0  0  0  0  0  0
  181.7230  178.5240  141.1630 Cl  0  0  0  0  0  0  0  0  0  0  0  0
  188.7980  178.6650  139.7500 N   0  0  0  0  0  2  0  0  0  0  0  0
  189.3740  177.6950  138.8210 C   0  0  0  0  0  2  0  0  0  0  0  0
  188.6870  177.7840  137.4700 C   0  0  0  0  0  2  0  0  0  0  0  0
  187.8420  176.5410  137.2440 C   0  0  0  0  0  2  0  0  0  0  0  0
  185.7280  174.3490  136.6960 S   0  0  0  0  0  0  0  0  0  0  0  0
  186.4260  176.8560  137.3940 N   0  0  0  0  0  0  0  0  0  0  0  0
  185.3920  175.8650  137.2190 C   0  0  0  0  0  0  0  0  0  0  0  0
  183.8410  177.4190  138.3420 C   0  0  0  0  0  3  0  0  0  0  0  0
  184.8090  178.3400  138.4510 C   0  0  0  0  0  3  0  0  0  0  0  0
  186.0420  178.2530  137.5910 C   0  0  0  0  0  2  0  0  0  0  0  0
  183.9570  176.2840  137.3600 C   0  0  0  0  0  2  0  0  0  0  0  0
  1 11  2  0  0  0  0
  1  9  1  0  0  0  0
  2 12  1  0  0  0  0
  3 10  1  0  0  0  0
  3  8  1  0  0  0  0
  4 24  1  6  0  0  0
  4 13  1  0  0  0  0
  4 15  1  0  0  0  0
  5  9  1  0  0  0  0
  6  5  1  0  0  0  0
  8  2  1  6  0  0  0
  8  1  1  0  0  0  0
 10 16  2  0  0  0  0
 12  6  1  0  0  0  0
 13 14  2  0  0  0  0
 14 19  1  0  0  0  0
 14 10  1  0  0  0  0
 15  7  1  6  0  0  0
 15  3  1  0  0  0  0
 16 11  1  0  0  0  0
 17 18  1  0  0  0  0
 18 20  2  0  0  0  0
 19 22  2  0  0  0  0
 21 17  2  0  0  0  0
 21 19  1  0  0  0  0
 22 20  1  0  0  0  0
 23 17  1  0  0  0  0
 25 24  1  0  0  0  0
 26 25  1  0  0  0  0
 27 29  1  0  0  0  0
 27 26  1  0  0  0  0
 28 30  2  0  0  0  0
 29 33  1  0  0  0  0
 30 34  1  0  0  0  0
 30 29  1  0  0  0  0
 31 32  2  0  0  0  0
 33 32  1  0  0  0  0
 34 31  1  0  0  0  0
M  END
>  <MODEL>
5

>  <REMARK>
 VINA RESULT:      -8.0      3.512      6.880
  Name = 
  6 active torsions:
  status: ('A' for Active; 'I' for Inactive)
    1  A    between atoms: C_3  and  N_13
    2  A    between atoms: C_3  and  C_17
    3  A    between atoms: C_5  and  N_18
    4  A    between atoms: C_12  and  C_28
    5  A    between atoms: C_17  and  C_29
    6  A    between atoms: N_18  and  C_29
                            x       y       z     vdW  Elec       q    Type
                         _______ _______ _______ _____ _____    ______ ____

>  <TORSDO>
F 6

$$$$
=
 OpenBabel10252415053D

 34 38  0  0  1  0  0  0  0  0999 V2000
  189.6920  177.2010  145.7200 C   0  0  0  0  0  0  0  0  0  0  0  0
  190.2170  175.7330  143.7710 C   0  0  0  0  0  2  0  0  0  0  0  0
  189.0640  177.8660  143.4200 N   0  0  0  0  0  0  0  0  0  0  0  0
  188.4000  178.0040  141.0590 C   0  0  2  0  0  3  0  0  0  0  0  0
  192.0560  176.4780  146.2780 C   0  0  0  0  0  2  0  0  0  0  0  0
  191.9480  174.7600  145.6880 S   0  0  0  0  0  0  0  0  0  0  0  0
  190.7110  178.0280  141.7250 O   0  0  0  0  0  1  0  0  0  0  0  0
  190.0620  177.1720  144.2490 C   0  0  1  0  0  3  0  0  0  0  0  0
  190.7010  176.9370  146.8000 C   0  0  0  0  0  2  0  0  0  0  0  0
  187.6800  177.9150  143.8270 C   0  0  0  0  0  0  0  0  0  0  0  0
  188.4250  177.3910  146.0900 C   0  0  0  0  0  3  0  0  0  0  0  0
  191.6460  175.2540  143.9630 C   0  0  0  0  0  2  0  0  0  0  0  0
  186.9930  178.2710  141.5210 C   0  0  0  0  0  3  0  0  0  0  0  0
  186.6280  178.2090  142.8090 C   0  0  0  0  0  0  0  0  0  0  0  0
  189.4290  178.4310  142.1140 C   0  0  2  0  0  3  0  0  0  0  0  0
  187.3730  177.6780  145.1060 C   0  0  0  0  0  3  0  0  0  0  0  0
  182.8570  178.6270  142.5280 C   0  0  0  0  0  0  0  0  0  0  0  0
  182.5130  178.9250  143.8480 C   0  0  0  0  0  3  0  0  0  0  0  0
  185.2050  178.4830  143.1570 C   0  0  0  0  0  0  0  0  0  0  0  0
  183.5060  179.0020  144.8260 C   0  0  0  0  0  3  0  0  0  0  0  0
  184.1930  178.4040  142.1860 C   0  0  0  0  0  3  0  0  0  0  0  0
  184.8420  178.7800  144.4830 C   0  0  0  0  0  3  0  0  0  0  0  0
  181.6140  178.5170  141.3010 Cl  0  0  0  0  0  0  0  0  0  0  0  0
  188.6520  178.5960  139.7390 N   0  0  0  0  0  2  0  0  0  0  0  0
  188.6800  177.5700  138.7000 C   0  0  0  0  0  2  0  0  0  0  0  0
  187.3500  177.5160  137.9710 C   0  0  0  0  0  2  0  0  0  0  0  0
  187.5150  176.7640  136.6610 C   0  0  0  0  0  2  0  0  0  0  0  0
  189.3660  174.2900  136.8350 S   0  0  0  0  0  0  0  0  0  0  0  0
  186.9270  175.4330  136.7610 N   0  0  0  0  0  0  0  0  0  0  0  0
  187.7290  174.2430  136.9120 C   0  0  0  0  0  0  0  0  0  0  0  0
  185.6780  173.0570  137.5940 C   0  0  0  0  0  3  0  0  0  0  0  0
  184.9480  174.1660  137.4020 C   0  0  0  0  0  3  0  0  0  0  0  0
  185.4850  175.2940  136.5620 C   0  0  0  0  0  2  0  0  0  0  0  0
  187.0420  172.9100  136.9750 C   0  0  0  0  0  2  0  0  0  0  0  0
  1 11  2  0  0  0  0
  1  9  1  0  0  0  0
  2 12  1  0  0  0  0
  3 10  1  0  0  0  0
  3  8  1  0  0  0  0
  4 24  1  6  0  0  0
  4 13  1  0  0  0  0
  4 15  1  0  0  0  0
  5  9  1  0  0  0  0
  6  5  1  0  0  0  0
  8  2  1  6  0  0  0
  8  1  1  0  0  0  0
 10 16  2  0  0  0  0
 12  6  1  0  0  0  0
 13 14  2  0  0  0  0
 14 19  1  0  0  0  0
 14 10  1  0  0  0  0
 15  7  1  6  0  0  0
 15  3  1  0  0  0  0
 16 11  1  0  0  0  0
 17 18  1  0  0  0  0
 18 20  2  0  0  0  0
 19 22  2  0  0  0  0
 21 17  2  0  0  0  0
 21 19  1  0  0  0  0
 22 20  1  0  0  0  0
 23 17  1  0  0  0  0
 25 24  1  0  0  0  0
 26 25  1  0  0  0  0
 27 29  1  0  0  0  0
 27 26  1  0  0  0  0
 28 30  2  0  0  0  0
 29 30  1  0  0  0  0
 30 34  1  0  0  0  0
 32 31  2  0  0  0  0
 33 29  1  0  0  0  0
 33 32  1  0  0  0  0
 34 31  1  0  0  0  0
M  END
>  <MODEL>
6

>  <REMARK>
 VINA RESULT:      -7.9      3.677      7.362
  Name = 
  6 active torsions:
  status: ('A' for Active; 'I' for Inactive)
    1  A    between atoms: C_3  and  N_13
    2  A    between atoms: C_3  and  C_17
    3  A    between atoms: C_5  and  N_18
    4  A    between atoms: C_12  and  C_28
    5  A    between atoms: C_17  and  C_29
    6  A    between atoms: N_18  and  C_29
                            x       y       z     vdW  Elec       q    Type
                         _______ _______ _______ _____ _____    ______ ____

>  <TORSDO>
F 6

$$$$
=
 OpenBabel10252415053D

 34 38  0  0  1  0  0  0  0  0999 V2000
  180.6790  178.6220  140.2300 C   0  0  0  0  0  0  0  0  0  0  0  0
  181.9790  180.2590  138.8670 C   0  0  0  0  0  2  0  0  0  0  0  0
  183.1370  178.4260  140.0070 N   0  0  0  0  0  0  0  0  0  0  0  0
  185.5560  178.7600  139.7430 C   0  0  2  0  0  3  0  0  0  0  0  0
  179.1910  178.8470  138.1910 C   0  0  0  0  0  2  0  0  0  0  0  0
  179.4200  180.6280  137.8970 S   0  0  0  0  0  0  0  0  0  0  0  0
  184.1390  178.2500  137.8680 O   0  0  0  0  0  1  0  0  0  0  0  0
  181.8870  178.8100  139.3320 C   0  0  1  0  0  3  0  0  0  0  0  0
  179.2840  178.5470  139.6810 C   0  0  0  0  0  2  0  0  0  0  0  0
  183.2620  178.5480  141.4410 C   0  0  0  0  0  0  0  0  0  0  0  0
  180.8260  178.5920  141.5550 C   0  0  0  0  0  3  0  0  0  0  0  0
  181.2030  180.4570  137.5750 C   0  0  0  0  0  2  0  0  0  0  0  0
  185.6840  178.6650  141.2400 C   0  0  0  0  0  3  0  0  0  0  0  0
  184.6220  178.5910  142.0560 C   0  0  0  0  0  0  0  0  0  0  0  0
  184.3160  178.0120  139.2360 C   0  0  2  0  0  3  0  0  0  0  0  0
  182.1540  178.6360  142.1820 C   0  0  0  0  0  3  0  0  0  0  0  0
  186.2730  177.9060  145.4140 C   0  0  0  0  0  0  0  0  0  0  0  0
  185.3300  178.4360  146.2980 C   0  0  0  0  0  3  0  0  0  0  0  0
  184.8610  178.5090  143.5240 C   0  0  0  0  0  0  0  0  0  0  0  0
  184.1540  179.0030  145.8040 C   0  0  0  0  0  3  0  0  0  0  0  0
  186.0400  177.9460  144.0370 C   0  0  0  0  0  3  0  0  0  0  0  0
  183.9230  179.0420  144.4260 C   0  0  0  0  0  3  0  0  0  0  0  0
  187.7530  177.2050  146.0280 Cl  0  0  0  0  0  0  0  0  0  0  0  0
  186.7930  178.3400  139.0730 N   0  0  0  0  0  2  0  0  0  0  0  0
  187.9190  178.3320  140.0060 C   0  0  0  0  0  2  0  0  0  0  0  0
  189.2070  177.9910  139.2790 C   0  0  0  0  0  2  0  0  0  0  0  0
  189.8300  176.7520  139.9010 C   0  0  0  0  0  2  0  0  0  0  0  0
  192.7970  177.5010  140.3570 S   0  0  0  0  0  0  0  0  0  0  0  0
  190.2980  177.0420  141.2520 N   0  0  0  0  0  0  0  0  0  0  0  0
  191.6500  177.4610  141.5270 C   0  0  0  0  0  0  0  0  0  0  0  0
  190.8740  178.1860  143.7530 C   0  0  0  0  0  3  0  0  0  0  0  0
  189.6360  177.7460  143.4870 C   0  0  0  0  0  3  0  0  0  0  0  0
  189.4010  176.7620  142.3720 C   0  0  0  0  0  2  0  0  0  0  0  0
  192.0560  177.7080  142.9520 C   0  0  0  0  0  2  0  0  0  0  0  0
  1 11  2  0  0  0  0
  3 10  1  0  0  0  0
  4 24  1  6  0  0  0
  4 13  1  0  0  0  0
  5  9  1  0  0  0  0
  6  5  1  0  0  0  0
  8  2  1  1  0  0  0
  8  3  1  0  0  0  0
  8  1  1  0  0  0  0
  9  1  1  0  0  0  0
 10 14  1  0  0  0  0
 10 16  2  0  0  0  0
 11 16  1  0  0  0  0
 12  6  1  0  0  0  0
 12  2  1  0  0  0  0
 13 14  2  0  0  0  0
 14 19  1  0  0  0  0
 15  7  1  6  0  0  0
 15  4  1  0  0  0  0
 15  3  1  0  0  0  0
 17 23  1  0  0  0  0
 17 18  1  0  0  0  0
 19 21  1  0  0  0  0
 19 22  2  0  0  0  0
 20 18  2  0  0  0  0
 21 17  2  0  0  0  0
 22 20  1  0  0  0  0
 24 25  1  0  0  0  0
 26 27  1  0  0  0  0
 26 25  1  0  0  0  0
 27 29  1  0  0  0  0
 28 30  2  0  0  0  0
 29 30  1  0  0  0  0
 29 33  1  0  0  0  0
 30 34  1  0  0  0  0
 32 31  2  0  0  0  0
 33 32  1  0  0  0  0
 34 31  1  0  0  0  0
M  END
>  <MODEL>
7

>  <REMARK>
 VINA RESULT:      -7.8      2.827      7.808
  Name = 
  6 active torsions:
  status: ('A' for Active; 'I' for Inactive)
    1  A    between atoms: C_3  and  N_13
    2  A    between atoms: C_3  and  C_17
    3  A    between atoms: C_5  and  N_18
    4  A    between atoms: C_12  and  C_28
    5  A    between atoms: C_17  and  C_29
    6  A    between atoms: N_18  and  C_29
                            x       y       z     vdW  Elec       q    Type
                         _______ _______ _______ _____ _____    ______ ____

>  <TORSDO>
F 6

$$$$
=
 OpenBabel10252415053D

 34 38  0  0  1  0  0  0  0  0999 V2000
  189.3330  177.4210  145.2940 C   0  0  0  0  0  0  0  0  0  0  0  0
  189.8690  175.9320  143.3640 C   0  0  0  0  0  2  0  0  0  0  0  0
  188.6500  178.0240  142.9930 N   0  0  0  0  0  0  0  0  0  0  0  0
  187.9450  178.0980  140.6410 C   0  0  2  0  0  3  0  0  0  0  0  0
  191.7250  176.7770  145.8270 C   0  0  0  0  0  2  0  0  0  0  0  0
  191.6580  175.0460  145.2700 S   0  0  0  0  0  0  0  0  0  0  0  0
  190.2640  178.2010  141.2690 O   0  0  0  0  0  1  0  0  0  0  0  0
  189.6800  177.3750  143.8180 C   0  0  1  0  0  3  0  0  0  0  0  0
  190.3660  177.2070  146.3620 C   0  0  0  0  0  2  0  0  0  0  0  0
  187.2710  178.0410  143.4220 C   0  0  0  0  0  0  0  0  0  0  0  0
  188.0660  177.5820  145.6810 C   0  0  0  0  0  3  0  0  0  0  0  0
  191.3150  175.4990  143.5420 C   0  0  0  0  0  2  0  0  0  0  0  0
  186.5380  178.3330  141.1200 C   0  0  0  0  0  3  0  0  0  0  0  0
  186.1950  178.2860  142.4150 C   0  0  0  0  0  0  0  0  0  0  0  0
  188.9770  178.5750  141.6710 C   0  0  2  0  0  3  0  0  0  0  0  0
  186.9910  177.8200  144.7090 C   0  0  0  0  0  3  0  0  0  0  0  0
  182.4130  178.6240  142.1790 C   0  0  0  0  0  0  0  0  0  0  0  0
  182.0770  178.9010  143.5060 C   0  0  0  0  0  3  0  0  0  0  0  0
  184.7700  178.5250  142.7810 C   0  0  0  0  0  0  0  0  0  0  0  0
  183.0790  178.9910  144.4740 C   0  0  0  0  0  3  0  0  0  0  0  0
  183.7500  178.4340  141.8210 C   0  0  0  0  0  3  0  0  0  0  0  0
  184.4160  178.8010  144.1140 C   0  0  0  0  0  3  0  0  0  0  0  0
  181.1590  178.4990  140.9650 Cl  0  0  0  0  0  0  0  0  0  0  0  0
  188.1580  178.6730  139.3070 N   0  0  0  0  0  2  0  0  0  0  0  0
  187.8790  177.6900  138.2610 C   0  0  0  0  0  2  0  0  0  0  0  0
  186.8950  178.2540  137.2530 C   0  0  0  0  0  2  0  0  0  0  0  0
  186.3900  177.1380  136.3530 C   0  0  0  0  0  2  0  0  0  0  0  0
  186.2960  174.0840  136.8390 S   0  0  0  0  0  0  0  0  0  0  0  0
  185.1860  176.5370  136.9160 N   0  0  0  0  0  0  0  0  0  0  0  0
  185.0980  175.1320  137.2290 C   0  0  0  0  0  0  0  0  0  0  0  0
  183.0990  175.6500  138.5770 C   0  0  0  0  0  3  0  0  0  0  0  0
  183.1780  176.9440  138.2330 C   0  0  0  0  0  3  0  0  0  0  0  0
  183.9870  177.3650  137.0360 C   0  0  0  0  0  2  0  0  0  0  0  0
  183.8090  174.5910  137.7770 C   0  0  0  0  0  2  0  0  0  0  0  0
  1 11  2  0  0  0  0
  1  9  1  0  0  0  0
  2 12  1  0  0  0  0
  3 10  1  0  0  0  0
  3  8  1  0  0  0  0
  4 24  1  6  0  0  0
  4 13  1  0  0  0  0
  4 15  1  0  0  0  0
  5  9  1  0  0  0  0
  6  5  1  0  0  0  0
  8  2  1  6  0  0  0
  8  1  1  0  0  0  0
 10 16  2  0  0  0  0
 12  6  1  0  0  0  0
 13 14  2  0  0  0  0
 14 19  1  0  0  0  0
 14 10  1  0  0  0  0
 15  7  1  6  0  0  0
 15  3  1  0  0  0  0
 16 11  1  0  0  0  0
 17 18  1  0  0  0  0
 18 20  2  0  0  0  0
 19 22  2  0  0  0  0
 21 17  2  0  0  0  0
 21 19  1  0  0  0  0
 22 20  1  0  0  0  0
 23 17  1  0  0  0  0
 25 24  1  0  0  0  0
 26 25  1  0  0  0  0
 27 29  1  0  0  0  0
 27 26  1  0  0  0  0
 28 30  2  0  0  0  0
 29 33  1  0  0  0  0
 29 30  1  0  0  0  0
 30 34  1  0  0  0  0
 32 31  2  0  0  0  0
 33 32  1  0  0  0  0
 34 31  1  0  0  0  0
M  END
>  <MODEL>
8

>  <REMARK>
 VINA RESULT:      -7.8      3.765      6.844
  Name = 
  6 active torsions:
  status: ('A' for Active; 'I' for Inactive)
    1  A    between atoms: C_3  and  N_13
    2  A    between atoms: C_3  and  C_17
    3  A    between atoms: C_5  and  N_18
    4  A    between atoms: C_12  and  C_28
    5  A    between atoms: C_17  and  C_29
    6  A    between atoms: N_18  and  C_29
                            x       y       z     vdW  Elec       q    Type
                         _______ _______ _______ _____ _____    ______ ____

>  <TORSDO>
F 6

$$$$
=
 OpenBabel10252415053D

 34 38  0  0  1  0  0  0  0  0999 V2000
  180.7320  178.7220  140.5870 C   0  0  0  0  0  0  0  0  0  0  0  0
  181.9460  180.3150  139.0980 C   0  0  0  0  0  2  0  0  0  0  0  0
  183.1510  178.4510  140.1340 N   0  0  0  0  0  0  0  0  0  0  0  0
  185.5430  178.7090  139.6410 C   0  0  2  0  0  3  0  0  0  0  0  0
  179.0650  178.9870  138.6970 C   0  0  0  0  0  2  0  0  0  0  0  0
  179.3200  180.7600  138.3730 S   0  0  0  0  0  0  0  0  0  0  0  0
  183.9400  178.2390  137.9110 O   0  0  0  0  0  1  0  0  0  0  0  0
  181.8550  178.8710  139.5780 C   0  0  1  0  0  3  0  0  0  0  0  0
  179.2890  178.6880  140.1730 C   0  0  0  0  0  2  0  0  0  0  0  0
  183.4140  178.5720  141.5490 C   0  0  0  0  0  0  0  0  0  0  0  0
  181.0020  178.6910  141.8930 C   0  0  0  0  0  3  0  0  0  0  0  0
  181.0580  180.5340  137.8850 C   0  0  0  0  0  2  0  0  0  0  0  0
  185.8090  178.6140  141.1190 C   0  0  0  0  0  3  0  0  0  0  0  0
  184.8280  178.5750  142.0320 C   0  0  0  0  0  0  0  0  0  0  0  0
  184.2390  177.9990  139.2570 C   0  0  2  0  0  3  0  0  0  0  0  0
  182.3850  178.6960  142.3910 C   0  0  0  0  0  3  0  0  0  0  0  0
  186.7730  177.8610  145.2220 C   0  0  0  0  0  0  0  0  0  0  0  0
  185.9270  178.4080  146.1890 C   0  0  0  0  0  3  0  0  0  0  0  0
  185.2010  178.4900  143.4720 C   0  0  0  0  0  0  0  0  0  0  0  0
  184.7210  178.9970  145.8080 C   0  0  0  0  0  3  0  0  0  0  0  0
  186.4130  177.9050  143.8730 C   0  0  0  0  0  3  0  0  0  0  0  0
  184.3620  179.0400  144.4570 C   0  0  0  0  0  3  0  0  0  0  0  0
  188.2920  177.1330  145.6960 Cl  0  0  0  0  0  0  0  0  0  0  0  0
  186.6980  178.2510  138.8600 N   0  0  0  0  0  2  0  0  0  0  0  0
  187.8890  178.1400  139.6980 C   0  0  0  0  0  2  0  0  0  0  0  0
  189.1070  178.6690  138.9620 C   0  0  0  0  0  2  0  0  0  0  0  0
  189.1850  178.0340  137.5840 C   0  0  0  0  0  2  0  0  0  0  0  0
  187.7850  175.5620  136.3580 S   0  0  0  0  0  0  0  0  0  0  0  0
  189.8340  176.7300  137.6610 N   0  0  0  0  0  0  0  0  0  0  0  0
  189.2690  175.5490  137.0540 C   0  0  0  0  0  0  0  0  0  0  0  0
  191.4710  174.4720  137.3170 C   0  0  0  0  0  3  0  0  0  0  0  0
  191.9580  175.5660  137.9190 C   0  0  0  0  0  3  0  0  0  0  0  0
  191.0230  176.5940  138.5000 C   0  0  0  0  0  2  0  0  0  0  0  0
  189.9870  174.2410  137.2100 C   0  0  0  0  0  2  0  0  0  0  0  0
  1 11  2  0  0  0  0
  3 10  1  0  0  0  0
  4 24  1  6  0  0  0
  4 13  1  0  0  0  0
  5  9  1  0  0  0  0
  6  5  1  0  0  0  0
  8  2  1  1  0  0  0
  8  3  1  0  0  0  0
  8  1  1  0  0  0  0
  9  1  1  0  0  0  0
 10 14  1  0  0  0  0
 10 16  2  0  0  0  0
 11 16  1  0  0  0  0
 12  6  1  0  0  0  0
 12  2  1  0  0  0  0
 13 14  2  0  0  0  0
 14 19  1  0  0  0  0
 15  7  1  6  0  0  0
 15  4  1  0  0  0  0
 15  3  1  0  0  0  0
 17 23  1  0  0  0  0
 17 18  1  0  0  0  0
 19 21  1  0  0  0  0
 19 22  2  0  0  0  0
 20 18  2  0  0  0  0
 21 17  2  0  0  0  0
 22 20  1  0  0  0  0
 24 25  1  0  0  0  0
 26 25  1  0  0  0  0
 27 29  1  0  0  0  0
 27 26  1  0  0  0  0
 28 30  2  0  0  0  0
 29 33  1  0  0  0  0
 30 34  1  0  0  0  0
 30 29  1  0  0  0  0
 31 32  2  0  0  0  0
 32 33  1  0  0  0  0
 34 31  1  0  0  0  0
M  END
>  <MODEL>
9

>  <REMARK>
 VINA RESULT:      -7.6      2.423      8.166
  Name = 
  6 active torsions:
  status: ('A' for Active; 'I' for Inactive)
    1  A    between atoms: C_3  and  N_13
    2  A    between atoms: C_3  and  C_17
    3  A    between atoms: C_5  and  N_18
    4  A    between atoms: C_12  and  C_28
    5  A    between atoms: C_17  and  C_29
    6  A    between atoms: N_18  and  C_29
                            x       y       z     vdW  Elec       q    Type
                         _______ _______ _______ _____ _____    ______ ____

>  <TORSDO>
F 6

$$$$
