=
 OpenBabel10262421353D

 32 36  0  0  1  0  0  0  0  0999 V2000
  187.3220  177.5480  143.5430 C   0  0  0  0  0  3  0  0  0  0  0  0
  190.6810  177.4510  139.8380 C   0  0  1  0  0  3  0  0  0  0  0  0
  187.5560  178.6280  135.8940 C   0  0  0  0  0  3  0  0  0  0  0  0
  188.4320  177.8060  135.1890 C   0  0  0  0  0  3  0  0  0  0  0  0
  189.9620  177.5130  142.6880 C   0  0  0  0  0  0  0  0  0  0  0  0
  189.2510  177.5940  140.2970 C   0  0  0  0  0  0  0  0  0  0  0  0
  187.5990  177.5810  142.1780 C   0  0  0  0  0  3  0  0  0  0  0  0
  187.5460  178.5980  137.2880 C   0  0  0  0  0  3  0  0  0  0  0  0
  188.2930  177.7580  139.4310 N   0  0  0  0  0  0  0  0  0  0  0  0
  188.4190  177.7660  137.9990 C   0  0  0  0  0  0  0  0  0  0  0  0
  190.2090  175.9260  137.9350 C   0  0  0  0  0  0  0  0  0  0  0  0
  190.5660  177.4440  144.9170 O   0  0  0  0  0  0  0  0  0  0  0  0
  189.6420  177.4840  144.0570 C   0  0  0  0  0  0  0  0  0  0  0  0
  188.9270  177.5630  141.7400 C   0  0  0  0  0  0  0  0  0  0  0  0
  191.3660  177.5170  142.2430 C   0  0  0  0  0  3  0  0  0  0  0  0
  188.3320  177.5010  144.4540 N   0  0  0  0  0  0  0  0  0  0  0  0
  189.2920  176.9510  135.8780 C   0  0  0  0  0  3  0  0  0  0  0  0
  189.3070  176.9130  137.2820 C   0  0  0  0  0  0  0  0  0  0  0  0
  191.6930  177.5030  140.9500 C   0  0  0  0  0  3  0  0  0  0  0  0
  190.8310  176.1730  139.0930 C   0  0  0  0  0  3  0  0  0  0  0  0
  191.9410  174.0070  135.3900 C   0  0  0  0  0  0  0  0  0  0  0  0
  190.8530  173.2380  134.6940 C   0  0  0  0  0  2  0  0  0  0  0  0
  189.2780  174.1570  136.3950 C   0  0  1  0  0  3  0  0  0  0  0  0
  188.6140  172.4490  134.8570 O   0  0  0  0  0  1  0  0  0  0  0  0
  189.6860  172.9120  135.6190 C   0  0  1  0  0  3  0  0  0  0  0  0
  191.7160  174.6680  136.4880 N   0  0  0  0  0  0  0  0  0  0  0  0
  193.2020  174.1410  134.7470 N   0  0  0  0  0  1  0  0  0  0  0  0
  188.1910  173.8620  137.2200 O   0  0  0  0  0  1  0  0  0  0  0  0
  190.4650  174.6110  137.2510 C   0  0  1  0  0  3  0  0  0  0  0  0
  187.9780  177.4590  145.8680 C   0  0  0  0  0  2  0  0  0  0  0  0
  186.4690  177.5030  146.0300 C   0  0  0  0  0  2  0  0  0  0  0  0
  186.0960  178.6330  146.9660 C   0  0  0  0  0  1  0  0  0  0  0  0
  1 16  1  0  0  0  0
  2 20  1  1  0  0  0
  2  6  1  0  0  0  0
  2 19  1  0  0  0  0
  3  8  1  0  0  0  0
  4 17  1  0  0  0  0
  4  3  2  0  0  0  0
  5 13  1  0  0  0  0
  6 14  1  0  0  0  0
  7  1  2  0  0  0  0
  8 10  2  0  0  0  0
  9  6  2  0  0  0  0
 10  9  1  0  0  0  0
 11 20  2  0  0  0  0
 13 16  1  0  0  0  0
 13 12  2  0  0  0  0
 14  7  1  0  0  0  0
 14  5  2  0  0  0  0
 15  5  1  0  0  0  0
 16 30  1  0  0  0  0
 17 18  2  0  0  0  0
 18 11  1  0  0  0  0
 18 10  1  0  0  0  0
 19 15  2  0  0  0  0
 21 26  2  0  0  0  0
 22 21  1  0  0  0  0
 22 25  1  0  0  0  0
 23 28  1  1  0  0  0
 23 29  1  0  0  0  0
 25 24  1  6  0  0  0
 25 23  1  0  0  0  0
 26 29  1  0  0  0  0
 27 21  1  0  0  0  0
 29 11  1  6  0  0  0
 30 31  1  0  0  0  0
 31 32  1  0  0  0  0
M  END
>  <MODEL>
1

>  <REMARK>
 VINA RESULT:      -8.1      0.000      0.000
  Name = 
  3 active torsions:
  status: ('A' for Active; 'I' for Inactive)
    1  A    between atoms: C_1  and  C_10
    2  A    between atoms: C_10  and  N_24
    3  A    between atoms: C_16  and  C_32
                            x       y       z     vdW  Elec       q    Type
                         _______ _______ _______ _____ _____    ______ ____

>  <TORSDO>
F 3

$$$$
=
 OpenBabel10262421353D

 32 36  0  0  1  0  0  0  0  0999 V2000
  186.4260  177.5000  144.8980 C   0  0  0  0  0  3  0  0  0  0  0  0
  183.9360  178.9700  140.8160 C   0  0  1  0  0  3  0  0  0  0  0  0
  179.4510  180.2580  143.0350 C   0  0  0  0  0  3  0  0  0  0  0  0
  178.9310  179.8270  141.8170 C   0  0  0  0  0  3  0  0  0  0  0  0
  186.4130  178.2430  142.2240 C   0  0  0  0  0  0  0  0  0  0  0  0
  183.9580  178.6870  142.2980 C   0  0  0  0  0  0  0  0  0  0  0  0
  185.2290  177.8940  144.3030 C   0  0  0  0  0  3  0  0  0  0  0  0
  180.7560  179.9220  143.3910 C   0  0  0  0  0  3  0  0  0  0  0  0
  182.8770  178.8200  143.0110 N   0  0  0  0  0  0  0  0  0  0  0  0
  181.5670  179.1700  142.5320 C   0  0  0  0  0  0  0  0  0  0  0  0
  181.7770  177.8340  140.3490 C   0  0  0  0  0  0  0  0  0  0  0  0
  188.6850  177.8220  142.2120 O   0  0  0  0  0  0  0  0  0  0  0  0
  187.6020  177.8440  142.8610 C   0  0  0  0  0  0  0  0  0  0  0  0
  185.2150  178.2680  142.9560 C   0  0  0  0  0  0  0  0  0  0  0  0
  186.4190  178.6580  140.8100 C   0  0  0  0  0  3  0  0  0  0  0  0
  187.5820  177.4810  144.1810 N   0  0  0  0  0  0  0  0  0  0  0  0
  179.7130  179.0560  140.9590 C   0  0  0  0  0  3  0  0  0  0  0  0
  181.0350  178.7140  141.2920 C   0  0  0  0  0  0  0  0  0  0  0  0
  185.2980  179.0010  140.1750 C   0  0  0  0  0  3  0  0  0  0  0  0
  183.0920  177.9530  140.1350 C   0  0  0  0  0  3  0  0  0  0  0  0
  179.9250  174.7150  140.2810 C   0  0  0  0  0  0  0  0  0  0  0  0
  180.5500  173.9320  139.1610 C   0  0  0  0  0  2  0  0  0  0  0  0
  181.9280  175.9530  138.6750 C   0  0  1  0  0  3  0  0  0  0  0  0
  181.8970  174.0660  137.2030 O   0  0  0  0  0  1  0  0  0  0  0  0
  181.1040  174.8300  138.0600 C   0  0  1  0  0  3  0  0  0  0  0  0
  180.2110  175.9690  140.4820 N   0  0  0  0  0  0  0  0  0  0  0  0
  179.1260  174.0260  141.2340 N   0  0  0  0  0  1  0  0  0  0  0  0
  182.4570  176.7560  137.6630 O   0  0  0  0  0  1  0  0  0  0  0  0
  181.0170  176.7930  139.5750 C   0  0  1  0  0  3  0  0  0  0  0  0
  188.8010  177.0520  144.8560 C   0  0  0  0  0  2  0  0  0  0  0  0
  188.9730  177.8150  146.1570 C   0  0  0  0  0  2  0  0  0  0  0  0
  189.3460  176.8500  147.2620 C   0  0  0  0  0  1  0  0  0  0  0  0
  2 20  1  6  0  0  0
  2  6  1  0  0  0  0
  3  8  1  0  0  0  0
  4  3  2  0  0  0  0
  5 13  1  0  0  0  0
  5 14  2  0  0  0  0
  6 14  1  0  0  0  0
  6  9  2  0  0  0  0
  7  1  2  0  0  0  0
 10  9  1  0  0  0  0
 10  8  2  0  0  0  0
 11 18  1  0  0  0  0
 12 13  2  0  0  0  0
 13 16  1  0  0  0  0
 14  7  1  0  0  0  0
 15  5  1  0  0  0  0
 16 30  1  0  0  0  0
 16  1  1  0  0  0  0
 17 18  2  0  0  0  0
 17  4  1  0  0  0  0
 18 10  1  0  0  0  0
 19 15  2  0  0  0  0
 19  2  1  0  0  0  0
 20 11  2  0  0  0  0
 21 26  2  0  0  0  0
 21 27  1  0  0  0  0
 22 21  1  0  0  0  0
 23 28  1  6  0  0  0
 23 29  1  0  0  0  0
 25 24  1  6  0  0  0
 25 23  1  0  0  0  0
 25 22  1  0  0  0  0
 29 11  1  1  0  0  0
 29 26  1  0  0  0  0
 30 31  1  0  0  0  0
 31 32  1  0  0  0  0
M  END
>  <MODEL>
2

>  <REMARK>
 VINA RESULT:      -7.9      5.725      8.043
  Name = 
  3 active torsions:
  status: ('A' for Active; 'I' for Inactive)
    1  A    between atoms: C_1  and  C_10
    2  A    between atoms: C_10  and  N_24
    3  A    between atoms: C_16  and  C_32
                            x       y       z     vdW  Elec       q    Type
                         _______ _______ _______ _____ _____    ______ ____

>  <TORSDO>
F 3

$$$$
=
 OpenBabel10262421353D

 32 36  0  0  1  0  0  0  0  0999 V2000
  187.2080  177.1030  145.0050 C   0  0  0  0  0  3  0  0  0  0  0  0
  184.8930  178.9560  140.9760 C   0  0  1  0  0  3  0  0  0  0  0  0
  180.2010  179.6840  143.0130 C   0  0  0  0  0  3  0  0  0  0  0  0
  179.7880  179.3880  141.7160 C   0  0  0  0  0  3  0  0  0  0  0  0
  187.3170  178.1910  142.4550 C   0  0  0  0  0  0  0  0  0  0  0  0
  184.8380  178.4810  142.4080 C   0  0  0  0  0  0  0  0  0  0  0  0
  186.0280  177.5030  144.3810 C   0  0  0  0  0  3  0  0  0  0  0  0
  181.5000  179.3780  143.4160 C   0  0  0  0  0  3  0  0  0  0  0  0
  183.7080  178.4570  143.0520 N   0  0  0  0  0  0  0  0  0  0  0  0
  182.4120  178.7930  142.5290 C   0  0  0  0  0  0  0  0  0  0  0  0
  182.8480  177.7720  140.2140 C   0  0  0  0  0  0  0  0  0  0  0  0
  189.6080  177.9050  142.5520 O   0  0  0  0  0  0  0  0  0  0  0  0
  188.4860  177.7790  143.1180 C   0  0  0  0  0  0  0  0  0  0  0  0
  186.0760  178.0510  143.0950 C   0  0  0  0  0  0  0  0  0  0  0  0
  187.3860  178.7880  141.1090 C   0  0  0  0  0  3  0  0  0  0  0  0
  188.4060  177.2440  144.3760 N   0  0  0  0  0  0  0  0  0  0  0  0
  180.6740  178.7830  140.8240 C   0  0  0  0  0  3  0  0  0  0  0  0
  181.9910  178.4760  141.2050 C   0  0  0  0  0  0  0  0  0  0  0  0
  186.2880  179.1480  140.4440 C   0  0  0  0  0  3  0  0  0  0  0  0
  184.1630  177.9920  140.1110 C   0  0  0  0  0  3  0  0  0  0  0  0
  183.1300  174.9100  138.0020 C   0  0  0  0  0  0  0  0  0  0  0  0
  182.4680  175.3530  136.7270 C   0  0  0  0  0  2  0  0  0  0  0  0
  181.8420  177.4510  137.9220 C   0  0  1  0  0  3  0  0  0  0  0  0
  180.9770  176.9310  135.7530 O   0  0  0  0  0  1  0  0  0  0  0  0
  181.3550  176.3660  136.9710 C   0  0  1  0  0  3  0  0  0  0  0  0
  183.0560  175.6150  139.0930 N   0  0  0  0  0  0  0  0  0  0  0  0
  183.9860  173.7740  137.9680 N   0  0  0  0  0  1  0  0  0  0  0  0
  180.8290  178.3910  138.1200 O   0  0  0  0  0  1  0  0  0  0  0  0
  182.2080  176.8000  139.2590 C   0  0  1  0  0  3  0  0  0  0  0  0
  189.6050  176.7990  145.0770 C   0  0  0  0  0  2  0  0  0  0  0  0
  189.5030  177.1400  146.5530 C   0  0  0  0  0  2  0  0  0  0  0  0
  190.7900  176.7530  147.2500 C   0  0  0  0  0  1  0  0  0  0  0  0
  2 20  1  6  0  0  0
  2  6  1  0  0  0  0
  3  8  1  0  0  0  0
  4  3  2  0  0  0  0
  5 14  2  0  0  0  0
  5 13  1  0  0  0  0
  6  9  2  0  0  0  0
  6 14  1  0  0  0  0
  7  1  2  0  0  0  0
 10  9  1  0  0  0  0
 10  8  2  0  0  0  0
 11 18  1  0  0  0  0
 12 13  2  0  0  0  0
 13 16  1  0  0  0  0
 14  7  1  0  0  0  0
 15  5  1  0  0  0  0
 16  1  1  0  0  0  0
 16 30  1  0  0  0  0
 17 18  2  0  0  0  0
 17  4  1  0  0  0  0
 18 10  1  0  0  0  0
 19  2  1  0  0  0  0
 19 15  2  0  0  0  0
 20 11  2  0  0  0  0
 21 26  2  0  0  0  0
 22 25  1  0  0  0  0
 22 21  1  0  0  0  0
 23 28  1  1  0  0  0
 23 29  1  0  0  0  0
 25 24  1  6  0  0  0
 25 23  1  0  0  0  0
 26 29  1  0  0  0  0
 27 21  1  0  0  0  0
 29 11  1  1  0  0  0
 30 31  1  0  0  0  0
 31 32  1  0  0  0  0
M  END
>  <MODEL>
3

>  <REMARK>
 VINA RESULT:      -7.4      5.151      7.052
  Name = 
  3 active torsions:
  status: ('A' for Active; 'I' for Inactive)
    1  A    between atoms: C_1  and  C_10
    2  A    between atoms: C_10  and  N_24
    3  A    between atoms: C_16  and  C_32
                            x       y       z     vdW  Elec       q    Type
                         _______ _______ _______ _____ _____    ______ ____

>  <TORSDO>
F 3

$$$$
=
 OpenBabel10262421353D

 32 36  0  0  1  0  0  0  0  0999 V2000
  186.3380  177.5020  145.5060 C   0  0  0  0  0  3  0  0  0  0  0  0
  184.5420  178.8090  141.0240 C   0  0  1  0  0  3  0  0  0  0  0  0
  179.6810  179.8960  142.3950 C   0  0  0  0  0  3  0  0  0  0  0  0
  179.4040  179.4290  141.1130 C   0  0  0  0  0  3  0  0  0  0  0  0
  186.7630  178.2180  142.8590 C   0  0  0  0  0  0  0  0  0  0  0  0
  184.3150  178.5410  142.4910 C   0  0  0  0  0  0  0  0  0  0  0  0
  185.2470  177.8300  144.7030 C   0  0  0  0  0  3  0  0  0  0  0  0
  180.9170  179.6280  142.9810 C   0  0  0  0  0  3  0  0  0  0  0  0
  183.1200  178.6280  143.0000 N   0  0  0  0  0  0  0  0  0  0  0  0
  181.9010  178.9080  142.2930 C   0  0  0  0  0  0  0  0  0  0  0  0
  182.5550  177.5650  140.2040 C   0  0  0  0  0  0  0  0  0  0  0  0
  189.0180  177.9090  143.2540 O   0  0  0  0  0  0  0  0  0  0  0  0
  187.8370  177.8830  143.7020 C   0  0  0  0  0  0  0  0  0  0  0  0
  185.4540  178.1910  143.3680 C   0  0  0  0  0  0  0  0  0  0  0  0
  186.9990  178.6190  141.4610 C   0  0  0  0  0  3  0  0  0  0  0  0
  187.6020  177.5320  145.0040 N   0  0  0  0  0  0  0  0  0  0  0  0
  180.3610  178.6890  140.4200 C   0  0  0  0  0  3  0  0  0  0  0  0
  181.6180  178.4160  140.9860 C   0  0  0  0  0  0  0  0  0  0  0  0
  185.9930  178.9010  140.6320 C   0  0  0  0  0  3  0  0  0  0  0  0
  183.8810  177.7460  140.2230 C   0  0  0  0  0  3  0  0  0  0  0  0
  180.9470  176.5590  137.1120 C   0  0  0  0  0  0  0  0  0  0  0  0
  179.8080  175.6810  137.5490 C   0  0  0  0  0  2  0  0  0  0  0  0
  180.6830  175.9070  139.8740 C   0  0  1  0  0  3  0  0  0  0  0  0
  178.9310  174.3700  139.3320 O   0  0  0  0  0  1  0  0  0  0  0  0
  180.1080  174.9400  138.8470 C   0  0  1  0  0  3  0  0  0  0  0  0
  181.8630  176.9560  137.9460 N   0  0  0  0  0  0  0  0  0  0  0  0
  180.9310  177.0920  135.7940 N   0  0  0  0  0  1  0  0  0  0  0  0
  180.9300  175.2300  141.0700 O   0  0  0  0  0  1  0  0  0  0  0  0
  181.9930  176.4800  139.3270 C   0  0  1  0  0  3  0  0  0  0  0  0
  188.7010  177.1690  145.8910 C   0  0  0  0  0  2  0  0  0  0  0  0
  188.2260  177.1630  147.3330 C   0  0  0  0  0  2  0  0  0  0  0  0
  189.0500  178.1450  148.1390 C   0  0  0  0  0  1  0  0  0  0  0  0
  2 20  1  6  0  0  0
  2  6  1  0  0  0  0
  3  8  1  0  0  0  0
  4  3  2  0  0  0  0
  5 14  2  0  0  0  0
  5 13  1  0  0  0  0
  6  9  2  0  0  0  0
  6 14  1  0  0  0  0
  7  1  2  0  0  0  0
 10  8  2  0  0  0  0
 10  9  1  0  0  0  0
 11 20  2  0  0  0  0
 11 18  1  0  0  0  0
 12 13  2  0  0  0  0
 13 16  1  0  0  0  0
 14  7  1  0  0  0  0
 15  5  1  0  0  0  0
 16  1  1  0  0  0  0
 16 30  1  0  0  0  0
 17 18  2  0  0  0  0
 17  4  1  0  0  0  0
 18 10  1  0  0  0  0
 19  2  1  0  0  0  0
 19 15  2  0  0  0  0
 21 22  1  0  0  0  0
 21 26  2  0  0  0  0
 22 25  1  0  0  0  0
 23 28  1  1  0  0  0
 25 24  1  1  0  0  0
 25 23  1  0  0  0  0
 26 29  1  0  0  0  0
 27 21  1  0  0  0  0
 29 23  1  0  0  0  0
 29 11  1  1  0  0  0
 30 31  1  0  0  0  0
 31 32  1  0  0  0  0
M  END
>  <MODEL>
4

>  <REMARK>
 VINA RESULT:      -7.4      5.783      7.685
  Name = 
  3 active torsions:
  status: ('A' for Active; 'I' for Inactive)
    1  A    between atoms: C_1  and  C_10
    2  A    between atoms: C_10  and  N_24
    3  A    between atoms: C_16  and  C_32
                            x       y       z     vdW  Elec       q    Type
                         _______ _______ _______ _____ _____    ______ ____

>  <TORSDO>
F 3

$$$$
=
 OpenBabel10262421353D

 32 36  0  0  1  0  0  0  0  0999 V2000
  186.2760  173.1940  136.4730 C   0  0  0  0  0  3  0  0  0  0  0  0
  188.2120  177.5420  138.0100 C   0  0  0  0  0  0  0  0  0  0  0  0
  193.1790  176.1480  138.3010 C   0  0  0  0  0  3  0  0  0  0  0  0
  193.1910  177.0690  139.3460 C   0  0  0  0  0  3  0  0  0  0  0  0
  186.0290  175.9270  136.8820 C   0  0  0  0  0  0  0  0  0  0  0  0
  188.3910  176.0820  137.6740 C   0  0  0  0  0  0  0  0  0  0  0  0
  187.3670  173.9150  136.9530 C   0  0  0  0  0  3  0  0  0  0  0  0
  191.9650  175.6660  137.8130 C   0  0  0  0  0  3  0  0  0  0  0  0
  189.5510  175.5090  137.8190 N   0  0  0  0  0  0  0  0  0  0  0  0
  190.7470  176.1080  138.3440 C   0  0  0  0  0  0  0  0  0  0  0  0
  189.5240  177.5030  140.1190 C   0  0  0  0  0  0  0  0  0  0  0  0
  183.8510  175.7300  136.1370 O   0  0  0  0  0  0  0  0  0  0  0  0
  184.9510  175.1660  136.3960 C   0  0  0  0  0  0  0  0  0  0  0  0
  187.2500  175.2920  137.1620 C   0  0  1  0  0  3  0  0  0  0  0  0
  185.8970  177.3820  137.0750 C   0  0  0  0  0  3  0  0  0  0  0  0
  185.0970  173.8190  136.2030 N   0  0  0  0  0  0  0  0  0  0  0  0
  191.9900  177.5030  139.9050 C   0  0  0  0  0  3  0  0  0  0  0  0
  190.7540  177.0390  139.4220 C   0  0  0  0  0  0  0  0  0  0  0  0
  186.8910  178.1180  137.5740 C   0  0  0  0  0  3  0  0  0  0  0  0
  188.3730  177.7320  139.4760 C   0  0  0  0  0  3  0  0  0  0  0  0
  190.5410  176.4680  143.4430 C   0  0  0  0  0  0  0  0  0  0  0  0
  189.3030  176.6230  144.2810 C   0  0  0  0  0  2  0  0  0  0  0  0
  188.2130  177.6200  142.2710 C   0  0  1  0  0  3  0  0  0  0  0  0
  187.1610  177.6510  144.4200 O   0  0  0  0  0  1  0  0  0  0  0  0
  188.3960  177.7410  143.7780 C   0  0  1  0  0  3  0  0  0  0  0  0
  190.6060  176.9240  142.2270 N   0  0  0  0  0  0  0  0  0  0  0  0
  191.6060  175.6680  143.9400 N   0  0  0  0  0  1  0  0  0  0  0  0
  187.3590  178.6270  141.8190 O   0  0  0  0  0  1  0  0  0  0  0  0
  189.5820  177.7650  141.5990 C   0  0  1  0  0  3  0  0  0  0  0  0
  183.9890  173.0090  135.7120 C   0  0  0  0  0  2  0  0  0  0  0  0
  183.4040  172.1840  136.8440 C   0  0  0  0  0  2  0  0  0  0  0  0
  183.4310  170.7180  136.4640 C   0  0  0  0  0  1  0  0  0  0  0  0
  1  7  2  0  0  0  0
  2 20  1  0  0  0  0
  3  4  1  0  0  0  0
  4 17  2  0  0  0  0
  5 15  2  0  0  0  0
  5 14  1  0  0  0  0
  6  9  2  0  0  0  0
  6  2  1  0  0  0  0
  8  3  2  0  0  0  0
  8 10  1  0  0  0  0
  9 10  1  0  0  0  0
 10 18  2  0  0  0  0
 12 13  2  0  0  0  0
 13  5  1  0  0  0  0
 14  7  1  1  0  0  0
 14  6  1  0  0  0  0
 15 19  1  0  0  0  0
 16 13  1  0  0  0  0
 16  1  1  0  0  0  0
 18 17  1  0  0  0  0
 18 11  1  0  0  0  0
 19  2  2  0  0  0  0
 20 11  2  0  0  0  0
 21 27  1  0  0  0  0
 21 22  1  0  0  0  0
 23 28  1  6  0  0  0
 23 25  1  0  0  0  0
 25 22  1  0  0  0  0
 25 24  1  1  0  0  0
 26 21  2  0  0  0  0
 29 11  1  6  0  0  0
 29 26  1  0  0  0  0
 29 23  1  0  0  0  0
 30 16  1  0  0  0  0
 30 31  1  0  0  0  0
 32 31  1  0  0  0  0
M  END
>  <MODEL>
5

>  <REMARK>
 VINA RESULT:      -7.3      3.143      7.634
  Name = 
  3 active torsions:
  status: ('A' for Active; 'I' for Inactive)
    1  A    between atoms: C_1  and  C_10
    2  A    between atoms: C_10  and  N_24
    3  A    between atoms: C_16  and  C_32
                            x       y       z     vdW  Elec       q    Type
                         _______ _______ _______ _____ _____    ______ ____

>  <TORSDO>
F 3

$$$$
=
 OpenBabel10262421353D

 32 36  0  0  1  0  0  0  0  0999 V2000
  184.6150  178.5930  143.7870 C   0  0  0  0  0  3  0  0  0  0  0  0
  184.9230  178.6940  138.7950 C   0  0  1  0  0  3  0  0  0  0  0  0
  180.3860  180.9390  137.7590 C   0  0  0  0  0  3  0  0  0  0  0  0
  180.4560  180.1430  136.6190 C   0  0  0  0  0  3  0  0  0  0  0  0
  186.1130  178.3580  141.4630 C   0  0  0  0  0  0  0  0  0  0  0  0
  184.1350  178.9440  140.0580 C   0  0  0  0  0  0  0  0  0  0  0  0
  184.0070  178.8250  142.5550 C   0  0  0  0  0  3  0  0  0  0  0  0
  181.2170  180.6700  138.8460 C   0  0  0  0  0  3  0  0  0  0  0  0
  182.9110  179.3810  139.9960 N   0  0  0  0  0  0  0  0  0  0  0  0
  182.1410  179.6200  138.8060 C   0  0  0  0  0  0  0  0  0  0  0  0
  183.0850  177.5980  137.5350 C   0  0  0  0  0  0  0  0  0  0  0  0
  187.9130  177.8240  142.8100 O   0  0  0  0  0  0  0  0  0  0  0  0
  186.6920  178.1350  142.7250 C   0  0  0  0  0  0  0  0  0  0  0  0
  184.7560  178.7070  141.3800 C   0  0  0  0  0  0  0  0  0  0  0  0
  186.9210  178.2530  140.2350 C   0  0  0  0  0  3  0  0  0  0  0  0
  185.9320  178.2560  143.8570 N   0  0  0  0  0  0  0  0  0  0  0  0
  181.3520  179.0760  136.5680 C   0  0  0  0  0  3  0  0  0  0  0  0
  182.2070  178.7930  137.6470 C   0  0  0  0  0  0  0  0  0  0  0  0
  186.3850  178.4190  139.0250 C   0  0  0  0  0  3  0  0  0  0  0  0
  184.3170  177.5560  138.0560 C   0  0  0  0  0  3  0  0  0  0  0  0
  181.4310  174.3700  137.5120 C   0  0  0  0  0  0  0  0  0  0  0  0
  182.3510  173.4810  136.7220 C   0  0  0  0  0  2  0  0  0  0  0  0
  183.7310  175.5100  136.2750 C   0  0  1  0  0  3  0  0  0  0  0  0
  184.1500  173.4320  135.1650 O   0  0  0  0  0  1  0  0  0  0  0  0
  183.1350  174.2490  135.6640 C   0  0  1  0  0  3  0  0  0  0  0  0
  181.6080  175.6570  137.5730 N   0  0  0  0  0  0  0  0  0  0  0  0
  180.4390  173.7670  138.3350 N   0  0  0  0  0  1  0  0  0  0  0  0
  184.4730  176.1950  135.3110 O   0  0  0  0  0  1  0  0  0  0  0  0
  182.5890  176.3990  136.7740 C   0  0  1  0  0  3  0  0  0  0  0  0
  186.5090  178.0170  145.1740 C   0  0  0  0  0  2  0  0  0  0  0  0
  185.4650  178.2530  146.2520 C   0  0  0  0  0  2  0  0  0  0  0  0
  186.0560  179.1190  147.3440 C   0  0  0  0  0  1  0  0  0  0  0  0
  1 16  1  0  0  0  0
  2 20  1  1  0  0  0
  2 19  1  0  0  0  0
  2  6  1  0  0  0  0
  3  8  1  0  0  0  0
  4  3  2  0  0  0  0
  5 13  1  0  0  0  0
  6 14  1  0  0  0  0
  7  1  2  0  0  0  0
  9  6  2  0  0  0  0
 10  8  2  0  0  0  0
 10  9  1  0  0  0  0
 11 18  1  0  0  0  0
 11 20  2  0  0  0  0
 13 12  2  0  0  0  0
 13 16  1  0  0  0  0
 14  5  2  0  0  0  0
 14  7  1  0  0  0  0
 15  5  1  0  0  0  0
 16 30  1  0  0  0  0
 17  4  1  0  0  0  0
 17 18  2  0  0  0  0
 18 10  1  0  0  0  0
 19 15  2  0  0  0  0
 21 26  2  0  0  0  0
 21 27  1  0  0  0  0
 22 21  1  0  0  0  0
 23 28  1  6  0  0  0
 23 29  1  0  0  0  0
 25 24  1  1  0  0  0
 25 23  1  0  0  0  0
 25 22  1  0  0  0  0
 29 11  1  1  0  0  0
 29 26  1  0  0  0  0
 30 31  1  0  0  0  0
 31 32  1  0  0  0  0
M  END
>  <MODEL>
6

>  <REMARK>
 VINA RESULT:      -7.3      4.961      6.488
  Name = 
  3 active torsions:
  status: ('A' for Active; 'I' for Inactive)
    1  A    between atoms: C_1  and  C_10
    2  A    between atoms: C_10  and  N_24
    3  A    between atoms: C_16  and  C_32
                            x       y       z     vdW  Elec       q    Type
                         _______ _______ _______ _____ _____    ______ ____

>  <TORSDO>
F 3

$$$$
=
 OpenBabel10262421353D

 32 36  0  0  1  0  0  0  0  0999 V2000
  189.2280  177.7020  142.3830 C   0  0  0  0  0  3  0  0  0  0  0  0
  187.4200  178.0820  137.7340 C   0  0  1  0  0  3  0  0  0  0  0  0
  182.6600  179.7480  138.8590 C   0  0  0  0  0  3  0  0  0  0  0  0
  182.3300  179.0230  137.7170 C   0  0  0  0  0  3  0  0  0  0  0  0
  189.6390  177.7800  139.6400 C   0  0  0  0  0  0  0  0  0  0  0  0
  187.2080  178.1640  139.2260 C   0  0  0  0  0  0  0  0  0  0  0  0
  188.1420  177.9090  141.5340 C   0  0  0  0  0  3  0  0  0  0  0  0
  183.8900  179.5410  139.4820 C   0  0  0  0  0  3  0  0  0  0  0  0
  186.0310  178.4360  139.7110 N   0  0  0  0  0  0  0  0  0  0  0  0
  184.8160  178.6260  138.9660 C   0  0  0  0  0  0  0  0  0  0  0  0
  185.3470  176.8110  137.2290 C   0  0  0  0  0  0  0  0  0  0  0  0
  191.8800  177.4280  140.0780 O   0  0  0  0  0  0  0  0  0  0  0  0
  190.7100  177.5760  140.5280 C   0  0  0  0  0  0  0  0  0  0  0  0
  188.3420  177.9480  140.1510 C   0  0  0  0  0  0  0  0  0  0  0  0
  189.8700  177.8420  138.1860 C   0  0  0  0  0  3  0  0  0  0  0  0
  190.4810  177.5410  141.8780 N   0  0  0  0  0  0  0  0  0  0  0  0
  183.2280  178.0890  137.2010 C   0  0  0  0  0  3  0  0  0  0  0  0
  184.4780  177.8720  137.8050 C   0  0  0  0  0  0  0  0  0  0  0  0
  188.8650  177.9930  137.3210 C   0  0  0  0  0  3  0  0  0  0  0  0
  186.6810  176.9090  137.1970 C   0  0  0  0  0  3  0  0  0  0  0  0
  182.7930  174.2370  137.3360 C   0  0  0  0  0  0  0  0  0  0  0  0
  183.5440  172.9530  137.1220 C   0  0  0  0  0  2  0  0  0  0  0  0
  185.5800  174.3450  136.7500 C   0  0  1  0  0  3  0  0  0  0  0  0
  185.5700  171.9900  136.3270 O   0  0  0  0  0  1  0  0  0  0  0  0
  184.7860  173.1420  136.2590 C   0  0  1  0  0  3  0  0  0  0  0  0
  183.3600  175.3970  137.1750 N   0  0  0  0  0  0  0  0  0  0  0  0
  181.4800  174.1780  137.8780 N   0  0  0  0  0  1  0  0  0  0  0  0
  186.7310  174.4970  135.9750 O   0  0  0  0  0  1  0  0  0  0  0  0
  184.7040  175.5940  136.6210 C   0  0  1  0  0  3  0  0  0  0  0  0
  191.5750  177.3180  142.8160 C   0  0  0  0  0  2  0  0  0  0  0  0
  191.3470  178.1230  144.0830 C   0  0  0  0  0  2  0  0  0  0  0  0
  191.5080  177.2200  145.2880 C   0  0  0  0  0  1  0  0  0  0  0  0
  2 20  1  1  0  0  0
  2  6  1  0  0  0  0
  3  8  1  0  0  0  0
  4  3  2  0  0  0  0
  5 14  2  0  0  0  0
  5 13  1  0  0  0  0
  6  9  2  0  0  0  0
  6 14  1  0  0  0  0
  7  1  2  0  0  0  0
 10  8  2  0  0  0  0
 10  9  1  0  0  0  0
 11 18  1  0  0  0  0
 12 13  2  0  0  0  0
 13 16  1  0  0  0  0
 14  7  1  0  0  0  0
 15  5  1  0  0  0  0
 16  1  1  0  0  0  0
 16 30  1  0  0  0  0
 17  4  1  0  0  0  0
 17 18  2  0  0  0  0
 18 10  1  0  0  0  0
 19  2  1  0  0  0  0
 19 15  2  0  0  0  0
 20 11  2  0  0  0  0
 21 27  1  0  0  0  0
 22 21  1  0  0  0  0
 23 28  1  6  0  0  0
 25 24  1  1  0  0  0
 25 23  1  0  0  0  0
 25 22  1  0  0  0  0
 26 21  2  0  0  0  0
 29 23  1  0  0  0  0
 29 26  1  0  0  0  0
 29 11  1  1  0  0  0
 30 31  1  0  0  0  0
 31 32  1  0  0  0  0
M  END
>  <MODEL>
7

>  <REMARK>
 VINA RESULT:      -7.1      3.650      5.293
  Name = 
  3 active torsions:
  status: ('A' for Active; 'I' for Inactive)
    1  A    between atoms: C_1  and  C_10
    2  A    between atoms: C_10  and  N_24
    3  A    between atoms: C_16  and  C_32
                            x       y       z     vdW  Elec       q    Type
                         _______ _______ _______ _____ _____    ______ ____

>  <TORSDO>
F 3

$$$$
=
 OpenBabel10262421353D

 32 36  0  0  1  0  0  0  0  0999 V2000
  186.8770  178.6950  142.4430 C   0  0  0  0  0  3  0  0  0  0  0  0
  185.2200  178.4580  137.7300 C   0  0  1  0  0  3  0  0  0  0  0  0
  181.0410  181.4610  138.1990 C   0  0  0  0  0  3  0  0  0  0  0  0
  180.5360  180.6040  137.2240 C   0  0  0  0  0  3  0  0  0  0  0  0
  187.2910  178.0510  139.7760 C   0  0  0  0  0  0  0  0  0  0  0  0
  185.0370  178.9230  139.1540 C   0  0  0  0  0  0  0  0  0  0  0  0
  185.8780  178.9690  141.5100 C   0  0  0  0  0  3  0  0  0  0  0  0
  182.1790  181.1010  138.9190 C   0  0  0  0  0  3  0  0  0  0  0  0
  183.9680  179.5800  139.5010 N   0  0  0  0  0  0  0  0  0  0  0  0
  182.8410  179.8940  138.6670 C   0  0  0  0  0  0  0  0  0  0  0  0
  182.8910  177.6620  137.3980 C   0  0  0  0  0  0  0  0  0  0  0  0
  189.3700  177.2620  140.4050 O   0  0  0  0  0  0  0  0  0  0  0  0
  188.2760  177.7930  140.7460 C   0  0  0  0  0  0  0  0  0  0  0  0
  186.0800  178.6460  140.1650 C   0  0  0  0  0  0  0  0  0  0  0  0
  187.5280  177.7270  138.3580 C   0  0  0  0  0  3  0  0  0  0  0  0
  188.0480  178.1190  142.0560 N   0  0  0  0  0  0  0  0  0  0  0  0
  181.1660  179.3860  136.9750 C   0  0  0  0  0  3  0  0  0  0  0  0
  182.3200  179.0070  137.6800 C   0  0  0  0  0  0  0  0  0  0  0  0
  186.5940  177.9240  137.4270 C   0  0  0  0  0  3  0  0  0  0  0  0
  184.2060  177.4170  137.4190 C   0  0  0  0  0  3  0  0  0  0  0  0
  180.8540  174.8340  138.4040 C   0  0  0  0  0  0  0  0  0  0  0  0
  181.2540  173.7300  137.4650 C   0  0  0  0  0  2  0  0  0  0  0  0
  182.6710  175.4080  136.2850 C   0  0  1  0  0  3  0  0  0  0  0  0
  182.3010  173.2200  135.3900 O   0  0  0  0  0  1  0  0  0  0  0  0
  181.6940  174.2540  136.1040 C   0  0  1  0  0  3  0  0  0  0  0  0
  181.2460  176.0610  138.2230 N   0  0  0  0  0  0  0  0  0  0  0  0
  180.1630  174.4970  139.6000 N   0  0  0  0  0  1  0  0  0  0  0  0
  183.0940  175.8670  135.0360 O   0  0  0  0  0  1  0  0  0  0  0  0
  181.9590  176.5390  137.0340 C   0  0  1  0  0  3  0  0  0  0  0  0
  189.0500  177.8490  143.0800 C   0  0  0  0  0  2  0  0  0  0  0  0
  188.4920  176.8880  144.1150 C   0  0  0  0  0  2  0  0  0  0  0  0
  188.6960  177.4650  145.5000 C   0  0  0  0  0  1  0  0  0  0  0  0
  2 20  1  1  0  0  0
  2  6  1  0  0  0  0
  3  8  1  0  0  0  0
  4  3  2  0  0  0  0
  5 14  2  0  0  0  0
  5 13  1  0  0  0  0
  6  9  2  0  0  0  0
  6 14  1  0  0  0  0
  7  1  2  0  0  0  0
 10  8  2  0  0  0  0
 10  9  1  0  0  0  0
 11 20  2  0  0  0  0
 11 18  1  0  0  0  0
 12 13  2  0  0  0  0
 13 16  1  0  0  0  0
 14  7  1  0  0  0  0
 15  5  1  0  0  0  0
 16  1  1  0  0  0  0
 16 30  1  0  0  0  0
 17  4  1  0  0  0  0
 17 18  2  0  0  0  0
 18 10  1  0  0  0  0
 19  2  1  0  0  0  0
 19 15  2  0  0  0  0
 21 27  1  0  0  0  0
 22 21  1  0  0  0  0
 23 28  1  6  0  0  0
 23 29  1  0  0  0  0
 25 24  1  6  0  0  0
 25 23  1  0  0  0  0
 25 22  1  0  0  0  0
 26 21  2  0  0  0  0
 29 11  1  1  0  0  0
 29 26  1  0  0  0  0
 30 31  1  0  0  0  0
 31 32  1  0  0  0  0
M  END
>  <MODEL>
8

>  <REMARK>
 VINA RESULT:      -7.0      5.045      6.824
  Name = 
  3 active torsions:
  status: ('A' for Active; 'I' for Inactive)
    1  A    between atoms: C_1  and  C_10
    2  A    between atoms: C_10  and  N_24
    3  A    between atoms: C_16  and  C_32
                            x       y       z     vdW  Elec       q    Type
                         _______ _______ _______ _____ _____    ______ ____

>  <TORSDO>
F 3

$$$$
=
 OpenBabel10262421353D

 32 36  0  0  1  0  0  0  0  0999 V2000
  185.0470  177.9570  144.8460 C   0  0  0  0  0  3  0  0  0  0  0  0
  183.9610  178.9510  140.0650 C   0  0  1  0  0  3  0  0  0  0  0  0
  179.0830  180.5440  140.6660 C   0  0  0  0  0  3  0  0  0  0  0  0
  178.9310  179.9750  139.4040 C   0  0  0  0  0  3  0  0  0  0  0  0
  185.8680  178.3730  142.2280 C   0  0  0  0  0  0  0  0  0  0  0  0
  183.5260  178.8480  141.5060 C   0  0  0  0  0  0  0  0  0  0  0  0
  184.1020  178.2880  143.8770 C   0  0  0  0  0  3  0  0  0  0  0  0
  180.2050  180.2390  141.4350 C   0  0  0  0  0  3  0  0  0  0  0  0
  182.2890  179.0770  141.8400 N   0  0  0  0  0  0  0  0  0  0  0  0
  181.2000  179.3800  140.9520 C   0  0  0  0  0  0  0  0  0  0  0  0
  181.9910  177.7900  139.0970 C   0  0  0  0  0  0  0  0  0  0  0  0
  188.0180  177.9300  142.9490 O   0  0  0  0  0  0  0  0  0  0  0  0
  186.7920  178.0400  143.2340 C   0  0  0  0  0  0  0  0  0  0  0  0
  184.5080  178.4980  142.5560 C   0  0  0  0  0  0  0  0  0  0  0  0
  186.3150  178.6140  140.8450 C   0  0  0  0  0  3  0  0  0  0  0  0
  186.3630  177.8390  144.5180 N   0  0  0  0  0  0  0  0  0  0  0  0
  179.8980  179.0980  138.9150 C   0  0  0  0  0  3  0  0  0  0  0  0
  181.0420  178.7850  139.6670 C   0  0  0  0  0  0  0  0  0  0  0  0
  185.4520  178.8900  139.8660 C   0  0  0  0  0  3  0  0  0  0  0  0
  183.3140  177.8680  139.2780 C   0  0  0  0  0  3  0  0  0  0  0  0
  180.4920  174.4960  138.8480 C   0  0  0  0  0  0  0  0  0  0  0  0
  181.3350  173.7750  137.8340 C   0  0  0  0  0  2  0  0  0  0  0  0
  182.5510  175.9250  137.4930 C   0  0  1  0  0  3  0  0  0  0  0  0
  182.9060  174.0370  136.0660 O   0  0  0  0  0  1  0  0  0  0  0  0
  181.9340  174.7190  136.7980 C   0  0  1  0  0  3  0  0  0  0  0  0
  180.6190  175.7730  139.0600 N   0  0  0  0  0  0  0  0  0  0  0  0
  179.6490  173.7320  139.7020 N   0  0  0  0  0  1  0  0  0  0  0  0
  183.1240  176.7730  136.5430 O   0  0  0  0  0  1  0  0  0  0  0  0
  181.4490  176.6710  138.2500 C   0  0  1  0  0  3  0  0  0  0  0  0
  187.3020  177.4810  145.5740 C   0  0  0  0  0  2  0  0  0  0  0  0
  186.8170  178.0180  146.9080 C   0  0  0  0  0  2  0  0  0  0  0  0
  187.9900  178.1390  147.8590 C   0  0  0  0  0  1  0  0  0  0  0  0
  2 20  1  6  0  0  0
  2  6  1  0  0  0  0
  3  8  1  0  0  0  0
  4  3  2  0  0  0  0
  5 14  2  0  0  0  0
  5 13  1  0  0  0  0
  6  9  2  0  0  0  0
  6 14  1  0  0  0  0
  7  1  2  0  0  0  0
 10  8  2  0  0  0  0
 10  9  1  0  0  0  0
 11 20  2  0  0  0  0
 11 18  1  0  0  0  0
 12 13  2  0  0  0  0
 13 16  1  0  0  0  0
 14  7  1  0  0  0  0
 15  5  1  0  0  0  0
 16  1  1  0  0  0  0
 16 30  1  0  0  0  0
 17  4  1  0  0  0  0
 17 18  2  0  0  0  0
 18 10  1  0  0  0  0
 19  2  1  0  0  0  0
 19 15  2  0  0  0  0
 21 26  2  0  0  0  0
 21 27  1  0  0  0  0
 22 21  1  0  0  0  0
 23 28  1  6  0  0  0
 23 29  1  0  0  0  0
 25 24  1  1  0  0  0
 25 23  1  0  0  0  0
 25 22  1  0  0  0  0
 29 26  1  0  0  0  0
 29 11  1  1  0  0  0
 30 31  1  0  0  0  0
 31 32  1  0  0  0  0
M  END
>  <MODEL>
9

>  <REMARK>
 VINA RESULT:      -6.9      5.742      7.508
  Name = 
  3 active torsions:
  status: ('A' for Active; 'I' for Inactive)
    1  A    between atoms: C_1  and  C_10
    2  A    between atoms: C_10  and  N_24
    3  A    between atoms: C_16  and  C_32
                            x       y       z     vdW  Elec       q    Type
                         _______ _______ _______ _____ _____    ______ ____

>  <TORSDO>
F 3

$$$$
