=
 OpenBabel10262419233D

 31 34  0  0  1  0  0  0  0  0999 V2000
  187.4110  178.4670  141.6500 C   0  0  2  0  0  3  0  0  0  0  0  0
  187.2980  178.3140  140.2000 N   0  0  0  0  0  0  0  0  0  0  0  0
  188.2790  177.6200  138.1140 C   0  0  0  0  0  0  0  0  0  0  0  0
  189.4390  177.2520  137.2900 C   0  0  0  0  0  3  0  0  0  0  0  0
  188.4230  177.8810  139.4150 C   0  0  0  0  0  3  0  0  0  0  0  0
  186.0170  178.5300  138.1330 O   0  0  0  0  0  0  0  0  0  0  0  0
  189.3220  177.2390  135.9590 C   0  0  0  0  0  3  0  0  0  0  0  0
  186.1180  178.7520  139.5080 C   0  0  0  0  0  0  0  0  0  0  0  0
  188.0530  177.6150  135.2980 C   0  0  0  0  0  3  0  0  0  0  0  0
  185.1830  179.3960  140.1270 N   0  0  0  0  0  2  0  0  0  0  0  0
  186.8980  177.6080  137.4940 C   0  0  1  0  0  3  0  0  0  0  0  0
  186.9370  177.8310  136.0050 C   0  0  0  0  0  3  0  0  0  0  0  0
  190.9290  177.8070  142.7020 C   0  0  2  0  0  3  0  0  0  0  0  0
  190.4080  176.0850  143.0430 S   0  0  0  0  0  0  0  0  0  0  0  0
  191.4820  178.4360  143.9660 C   0  0  0  0  0  1  0  0  0  0  0  0
  189.7600  178.5500  142.2530 N   0  0  0  0  0  0  0  0  0  0  0  0
  188.6830  177.8540  142.1500 C   0  0  0  0  0  0  0  0  0  0  0  0
  188.7890  176.4800  142.4770 N   0  0  0  0  0  2  0  0  0  0  0  0
  186.1800  177.9050  142.3530 C   0  0  0  0  0  2  0  0  0  0  0  0
  185.4420  178.9980  143.1100 C   0  0  0  0  0  2  0  0  0  0  0  0
  183.8530  178.6350  146.3620 O   0  0  0  0  0  0  0  0  0  0  0  0
  185.2810  178.6130  144.5020 N   0  0  0  0  0  0  0  0  0  0  0  0
  184.1150  179.0550  145.2030 C   0  0  0  0  0  3  0  0  0  0  0  0
  186.1970  177.6280  145.0650 C   0  0  0  0  0  2  0  0  0  0  0  0
  188.3000  177.3460  147.9160 C   0  0  1  0  0  3  0  0  0  0  0  0
  190.2220  176.5720  146.6690 O   0  0  0  0  0  0  0  0  0  0  0  0
  189.0110  178.2660  148.8910 C   0  0  0  0  0  1  0  0  0  0  0  0
  187.0530  178.0490  147.3800 C   0  0  0  0  0  2  0  0  0  0  0  0
  188.5360  177.7220  145.5790 O   0  0  0  0  0  0  0  0  0  0  0  0
  187.2840  178.3080  145.8820 C   0  0  1  0  0  3  0  0  0  0  0  0
  189.1160  177.1740  146.7000 C   0  0  0  0  0  0  0  0  0  0  0  0
  1 17  1  0  0  0  0
  1 19  1  1  0  0  0
  2  1  1  0  0  0  0
  3  5  2  0  0  0  0
  4  3  1  0  0  0  0
  5  2  1  0  0  0  0
  6  8  1  0  0  0  0
  7  4  2  0  0  0  0
  8 10  2  0  0  0  0
  8  2  1  0  0  0  0
  9  7  1  0  0  0  0
  9 12  2  0  0  0  0
 11 12  1  6  0  0  0
 11  3  1  0  0  0  0
 11  6  1  0  0  0  0
 13 14  1  0  0  0  0
 13 15  1  1  0  0  0
 16 13  1  0  0  0  0
 17 16  2  0  0  0  0
 17 18  1  0  0  0  0
 18 14  1  0  0  0  0
 19 20  1  0  0  0  0
 20 22  1  0  0  0  0
 22 24  1  0  0  0  0
 22 23  1  0  0  0  0
 23 21  2  0  0  0  0
 25 27  1  1  0  0  0
 26 31  2  0  0  0  0
 28 25  1  0  0  0  0
 29 30  1  0  0  0  0
 29 31  1  0  0  0  0
 30 24  1  6  0  0  0
 30 28  1  0  0  0  0
 31 25  1  0  0  0  0
M  END
>  <MODEL>
1

>  <REMARK>
 VINA RESULT:      -8.4      0.000      0.000
  Name = 
  7 active torsions:
  status: ('A' for Active; 'I' for Inactive)
    1  A    between atoms: C_3  and  N_9
    2  A    between atoms: C_3  and  C_22
    3  A    between atoms: N_4  and  C_12
    4  A    between atoms: N_9  and  C_15
    5  A    between atoms: C_12  and  C_20
    6  A    between atoms: C_12  and  C_27
    7  A    between atoms: C_15  and  C_20
                            x       y       z     vdW  Elec       q    Type
                         _______ _______ _______ _____ _____    ______ ____

>  <TORSDO>
F 7

$$$$
=
 OpenBabel10262419233D

 31 34  0  0  1  0  0  0  0  0999 V2000
  189.2390  177.8990  140.5500 C   0  0  2  0  0  3  0  0  0  0  0  0
  189.6970  177.4350  139.2400 N   0  0  0  0  0  0  0  0  0  0  0  0
  190.9070  175.8190  137.9290 C   0  0  0  0  0  0  0  0  0  0  0  0
  191.8840  174.7290  137.8010 C   0  0  0  0  0  3  0  0  0  0  0  0
  190.5960  176.3180  139.1270 C   0  0  0  0  0  3  0  0  0  0  0  0
  189.7930  177.6790  136.8130 O   0  0  0  0  0  0  0  0  0  0  0  0
  192.3650  174.4160  136.5940 C   0  0  0  0  0  3  0  0  0  0  0  0
  189.3960  178.1860  138.0530 C   0  0  0  0  0  0  0  0  0  0  0  0
  191.9540  175.1660  135.3880 C   0  0  0  0  0  3  0  0  0  0  0  0
  188.8220  179.3420  138.1220 N   0  0  0  0  0  2  0  0  0  0  0  0
  190.1840  176.3120  136.6940 C   0  0  1  0  0  3  0  0  0  0  0  0
  190.9750  176.0770  135.4340 C   0  0  0  0  0  3  0  0  0  0  0  0
  191.9160  177.4460  143.1080 C   0  0  2  0  0  3  0  0  0  0  0  0
  191.1960  175.7950  143.4380 S   0  0  0  0  0  0  0  0  0  0  0  0
  191.9090  178.2730  144.3790 C   0  0  0  0  0  1  0  0  0  0  0  0
  191.1020  178.0980  142.0920 N   0  0  0  0  0  0  0  0  0  0  0  0
  190.1330  177.3850  141.6360 C   0  0  0  0  0  0  0  0  0  0  0  0
  190.0040  176.0810  142.1740 N   0  0  0  0  0  2  0  0  0  0  0  0
  187.7770  177.5280  140.7760 C   0  0  0  0  0  2  0  0  0  0  0  0
  186.9890  178.7220  141.2900 C   0  0  0  0  0  2  0  0  0  0  0  0
  184.0440  178.2360  143.3700 O   0  0  0  0  0  0  0  0  0  0  0  0
  186.1960  178.3320  142.4440 N   0  0  0  0  0  0  0  0  0  0  0  0
  184.8070  178.6710  142.4670 C   0  0  0  0  0  3  0  0  0  0  0  0
  186.7910  177.4340  143.4290 C   0  0  0  0  0  2  0  0  0  0  0  0
  187.4640  177.3550  146.9170 C   0  0  1  0  0  3  0  0  0  0  0  0
  189.8020  176.7930  146.6560 O   0  0  0  0  0  0  0  0  0  0  0  0
  187.5900  178.3370  148.0670 C   0  0  0  0  0  1  0  0  0  0  0  0
  186.5120  177.9270  145.8670 C   0  0  0  0  0  2  0  0  0  0  0  0
  188.6540  177.7680  144.9000 O   0  0  0  0  0  0  0  0  0  0  0  0
  187.3440  178.2190  144.6080 C   0  0  1  0  0  3  0  0  0  0  0  0
  188.7400  177.2760  146.1810 C   0  0  0  0  0  0  0  0  0  0  0  0
  1 19  1  1  0  0  0
  1 17  1  0  0  0  0
  2  1  1  0  0  0  0
  3  5  2  0  0  0  0
  4  3  1  0  0  0  0
  5  2  1  0  0  0  0
  6  8  1  0  0  0  0
  7  4  2  0  0  0  0
  8 10  2  0  0  0  0
  8  2  1  0  0  0  0
  9 12  2  0  0  0  0
  9  7  1  0  0  0  0
 11 12  1  6  0  0  0
 11  6  1  0  0  0  0
 11  3  1  0  0  0  0
 13 14  1  0  0  0  0
 13 15  1  1  0  0  0
 16 13  1  0  0  0  0
 17 16  2  0  0  0  0
 17 18  1  0  0  0  0
 18 14  1  0  0  0  0
 19 20  1  0  0  0  0
 20 22  1  0  0  0  0
 22 23  1  0  0  0  0
 22 24  1  0  0  0  0
 23 21  2  0  0  0  0
 25 27  1  1  0  0  0
 28 25  1  0  0  0  0
 29 31  1  0  0  0  0
 30 24  1  6  0  0  0
 30 29  1  0  0  0  0
 30 28  1  0  0  0  0
 31 26  2  0  0  0  0
 31 25  1  0  0  0  0
M  END
>  <MODEL>
2

>  <REMARK>
 VINA RESULT:      -8.1      2.012      2.641
  Name = 
  7 active torsions:
  status: ('A' for Active; 'I' for Inactive)
    1  A    between atoms: C_3  and  N_9
    2  A    between atoms: C_3  and  C_22
    3  A    between atoms: N_4  and  C_12
    4  A    between atoms: N_9  and  C_15
    5  A    between atoms: C_12  and  C_20
    6  A    between atoms: C_12  and  C_27
    7  A    between atoms: C_15  and  C_20
                            x       y       z     vdW  Elec       q    Type
                         _______ _______ _______ _____ _____    ______ ____

>  <TORSDO>
F 7

$$$$
=
 OpenBabel10262419233D

 31 34  0  0  1  0  0  0  0  0999 V2000
  184.8590  178.9810  141.0670 C   0  0  2  0  0  3  0  0  0  0  0  0
  183.8210  178.5960  140.1120 N   0  0  0  0  0  0  0  0  0  0  0  0
  182.2930  176.9310  139.2810 C   0  0  0  0  0  0  0  0  0  0  0  0
  181.8340  175.5390  139.1680 C   0  0  0  0  0  3  0  0  0  0  0  0
  183.3280  177.2450  140.0630 C   0  0  0  0  0  3  0  0  0  0  0  0
  182.3520  179.1340  138.2380 O   0  0  0  0  0  0  0  0  0  0  0  0
  180.9720  175.2080  138.2030 C   0  0  0  0  0  3  0  0  0  0  0  0
  183.3910  179.5110  139.0910 C   0  0  0  0  0  0  0  0  0  0  0  0
  180.4910  176.2120  137.2280 C   0  0  0  0  0  3  0  0  0  0  0  0
  183.9890  180.6440  138.9160 N   0  0  0  0  0  2  0  0  0  0  0  0
  181.5210  178.0240  138.5740 C   0  0  1  0  0  3  0  0  0  0  0  0
  180.7780  177.5120  137.3680 C   0  0  0  0  0  3  0  0  0  0  0  0
  188.5120  178.3730  140.6270 C   0  0  2  0  0  3  0  0  0  0  0  0
  188.1530  178.0480  138.8610 S   0  0  0  0  0  0  0  0  0  0  0  0
  189.1680  177.1560  141.2500 C   0  0  0  0  0  1  0  0  0  0  0  0
  187.2520  178.6520  141.2980 N   0  0  0  0  0  0  0  0  0  0  0  0
  186.2190  178.6580  140.5310 C   0  0  0  0  0  0  0  0  0  0  0  0
  186.4550  178.4050  139.1570 N   0  0  0  0  0  2  0  0  0  0  0  0
  184.6050  178.3450  142.4300 C   0  0  0  0  0  2  0  0  0  0  0  0
  184.7460  179.3720  143.5420 C   0  0  0  0  0  2  0  0  0  0  0  0
  184.4640  178.2550  146.9930 O   0  0  0  0  0  0  0  0  0  0  0  0
  185.1080  178.7100  144.7840 N   0  0  0  0  0  0  0  0  0  0  0  0
  184.2810  178.9130  145.9340 C   0  0  0  0  0  3  0  0  0  0  0  0
  186.1670  177.7070  144.7590 C   0  0  0  0  0  2  0  0  0  0  0  0
  189.0290  176.8380  146.6770 C   0  0  1  0  0  3  0  0  0  0  0  0
  190.5170  176.7240  144.7730 O   0  0  0  0  0  0  0  0  0  0  0  0
  189.9710  177.5000  147.6660 C   0  0  0  0  0  1  0  0  0  0  0  0
  187.6580  177.5100  146.7590 C   0  0  0  0  0  2  0  0  0  0  0  0
  188.5490  177.9310  144.6200 O   0  0  0  0  0  0  0  0  0  0  0  0
  187.4270  178.2380  145.4250 C   0  0  1  0  0  3  0  0  0  0  0  0
  189.4520  177.1460  145.2980 C   0  0  0  0  0  0  0  0  0  0  0  0
  1 19  1  1  0  0  0
  2  1  1  0  0  0  0
  3  5  2  0  0  0  0
  4  3  1  0  0  0  0
  5  2  1  0  0  0  0
  6 11  1  0  0  0  0
  6  8  1  0  0  0  0
  7  4  2  0  0  0  0
  8  2  1  0  0  0  0
  9 12  2  0  0  0  0
  9  7  1  0  0  0  0
 10  8  2  0  0  0  0
 11 12  1  6  0  0  0
 11  3  1  0  0  0  0
 13 15  1  1  0  0  0
 13 16  1  0  0  0  0
 14 18  1  0  0  0  0
 14 13  1  0  0  0  0
 17  1  1  0  0  0  0
 17 16  2  0  0  0  0
 18 17  1  0  0  0  0
 19 20  1  0  0  0  0
 20 22  1  0  0  0  0
 22 23  1  0  0  0  0
 23 21  2  0  0  0  0
 24 22  1  0  0  0  0
 25 28  1  0  0  0  0
 25 27  1  1  0  0  0
 26 31  2  0  0  0  0
 29 31  1  0  0  0  0
 29 30  1  0  0  0  0
 30 24  1  6  0  0  0
 30 28  1  0  0  0  0
 31 25  1  0  0  0  0
M  END
>  <MODEL>
3

>  <REMARK>
 VINA RESULT:      -8.1      3.000      3.988
  Name = 
  7 active torsions:
  status: ('A' for Active; 'I' for Inactive)
    1  A    between atoms: C_3  and  N_9
    2  A    between atoms: C_3  and  C_22
    3  A    between atoms: N_4  and  C_12
    4  A    between atoms: N_9  and  C_15
    5  A    between atoms: C_12  and  C_20
    6  A    between atoms: C_12  and  C_27
    7  A    between atoms: C_15  and  C_20
                            x       y       z     vdW  Elec       q    Type
                         _______ _______ _______ _____ _____    ______ ____

>  <TORSDO>
F 7

$$$$
=
 OpenBabel10262419233D

 31 34  0  0  1  0  0  0  0  0999 V2000
  190.2200  176.9410  138.5290 C   0  0  2  0  0  3  0  0  0  0  0  0
  188.8560  177.0740  138.0170 N   0  0  0  0  0  0  0  0  0  0  0  0
  186.8380  176.0290  137.2230 C   0  0  0  0  0  0  0  0  0  0  0  0
  186.1050  174.8720  136.6890 C   0  0  0  0  0  3  0  0  0  0  0  0
  188.1230  175.9210  137.5670 C   0  0  0  0  0  3  0  0  0  0  0  0
  186.9550  178.4600  137.3670 O   0  0  0  0  0  0  0  0  0  0  0  0
  184.9090  175.0570  136.1230 C   0  0  0  0  0  3  0  0  0  0  0  0
  188.2810  178.3710  137.7940 C   0  0  0  0  0  0  0  0  0  0  0  0
  184.3210  176.4090  135.9980 C   0  0  0  0  0  3  0  0  0  0  0  0
  188.9890  179.4450  137.9250 N   0  0  0  0  0  2  0  0  0  0  0  0
  186.0960  177.3250  137.4680 C   0  0  1  0  0  3  0  0  0  0  0  0
  184.8890  177.4710  136.5810 C   0  0  0  0  0  3  0  0  0  0  0  0
  192.1820  175.4630  135.7220 C   0  0  2  0  0  3  0  0  0  0  0  0
  192.3240  173.9470  136.7400 S   0  0  0  0  0  0  0  0  0  0  0  0
  193.5640  175.9910  135.3910 C   0  0  0  0  0  1  0  0  0  0  0  0
  191.4470  176.4550  136.4930 N   0  0  0  0  0  0  0  0  0  0  0  0
  191.0350  176.0510  137.6430 C   0  0  0  0  0  0  0  0  0  0  0  0
  191.3440  174.7120  137.9860 N   0  0  0  0  0  2  0  0  0  0  0  0
  190.2120  176.4680  139.9790 C   0  0  0  0  0  2  0  0  0  0  0  0
  190.3550  177.6430  140.9340 C   0  0  0  0  0  2  0  0  0  0  0  0
  186.9720  178.2570  142.1220 O   0  0  0  0  0  0  0  0  0  0  0  0
  189.2280  177.6760  141.8500 N   0  0  0  0  0  0  0  0  0  0  0  0
  188.0230  178.3230  141.4300 C   0  0  0  0  0  3  0  0  0  0  0  0
  189.2930  176.8740  143.0670 C   0  0  0  0  0  2  0  0  0  0  0  0
  189.4320  176.9520  146.6170 C   0  0  1  0  0  3  0  0  0  0  0  0
  191.8470  176.8570  146.7230 O   0  0  0  0  0  0  0  0  0  0  0  0
  189.1920  177.9480  147.7360 C   0  0  0  0  0  1  0  0  0  0  0  0
  188.5580  177.3200  145.4180 C   0  0  0  0  0  2  0  0  0  0  0  0
  190.8120  177.5760  144.7830 O   0  0  0  0  0  0  0  0  0  0  0  0
  189.5000  177.7600  144.2850 C   0  0  1  0  0  3  0  0  0  0  0  0
  190.7960  177.1190  146.0800 C   0  0  0  0  0  0  0  0  0  0  0  0
  1 19  1  1  0  0  0
  2  1  1  0  0  0  0
  3 11  1  0  0  0  0
  3  5  2  0  0  0  0
  4  3  1  0  0  0  0
  5  2  1  0  0  0  0
  6 11  1  0  0  0  0
  6  8  1  0  0  0  0
  7  4  2  0  0  0  0
  8 10  2  0  0  0  0
  8  2  1  0  0  0  0
  9  7  1  0  0  0  0
  9 12  2  0  0  0  0
 11 12  1  6  0  0  0
 13 15  1  1  0  0  0
 13 16  1  0  0  0  0
 13 14  1  0  0  0  0
 14 18  1  0  0  0  0
 16 17  2  0  0  0  0
 17 18  1  0  0  0  0
 17  1  1  0  0  0  0
 19 20  1  0  0  0  0
 20 22  1  0  0  0  0
 22 24  1  0  0  0  0
 23 22  1  0  0  0  0
 23 21  2  0  0  0  0
 25 27  1  1  0  0  0
 28 25  1  0  0  0  0
 29 31  1  0  0  0  0
 30 24  1  6  0  0  0
 30 29  1  0  0  0  0
 30 28  1  0  0  0  0
 31 25  1  0  0  0  0
 31 26  2  0  0  0  0
M  END
>  <MODEL>
4

>  <REMARK>
 VINA RESULT:      -8.0      2.878      4.401
  Name = 
  7 active torsions:
  status: ('A' for Active; 'I' for Inactive)
    1  A    between atoms: C_3  and  N_9
    2  A    between atoms: C_3  and  C_22
    3  A    between atoms: N_4  and  C_12
    4  A    between atoms: N_9  and  C_15
    5  A    between atoms: C_12  and  C_20
    6  A    between atoms: C_12  and  C_27
    7  A    between atoms: C_15  and  C_20
                            x       y       z     vdW  Elec       q    Type
                         _______ _______ _______ _____ _____    ______ ____

>  <TORSDO>
F 7

$$$$
=
 OpenBabel10262419233D

 31 34  0  0  1  0  0  0  0  0999 V2000
  190.2930  177.2330  138.5770 C   0  0  2  0  0  3  0  0  0  0  0  0
  188.9630  177.2110  137.9690 N   0  0  0  0  0  0  0  0  0  0  0  0
  187.0380  175.9520  137.2580 C   0  0  0  0  0  0  0  0  0  0  0  0
  186.3810  174.6870  136.9000 C   0  0  0  0  0  3  0  0  0  0  0  0
  188.3000  175.9640  137.6920 C   0  0  0  0  0  3  0  0  0  0  0  0
  187.0640  178.3720  136.9660 O   0  0  0  0  0  0  0  0  0  0  0  0
  185.2190  174.7140  136.2390 C   0  0  0  0  0  3  0  0  0  0  0  0
  188.3610  178.4210  137.4810 C   0  0  0  0  0  0  0  0  0  0  0  0
  184.5980  175.9940  135.8360 C   0  0  0  0  0  3  0  0  0  0  0  0
  189.0220  179.5310  137.4560 N   0  0  0  0  0  2  0  0  0  0  0  0
  186.2390  177.2360  137.2200 C   0  0  1  0  0  3  0  0  0  0  0  0
  185.0890  177.1680  136.2500 C   0  0  0  0  0  3  0  0  0  0  0  0
  193.4090  175.9250  136.9990 C   0  0  2  0  0  3  0  0  0  0  0  0
  192.4470  175.7600  135.4490 S   0  0  0  0  0  0  0  0  0  0  0  0
  193.9650  174.5740  137.4050 C   0  0  0  0  0  1  0  0  0  0  0  0
  192.5130  176.4200  138.0340 N   0  0  0  0  0  0  0  0  0  0  0  0
  191.3140  176.6690  137.6390 C   0  0  0  0  0  0  0  0  0  0  0  0
  191.0430  176.4370  136.2690 N   0  0  0  0  0  2  0  0  0  0  0  0
  190.2850  176.5210  139.9260 C   0  0  0  0  0  2  0  0  0  0  0  0
  189.7940  177.4480  141.0260 C   0  0  0  0  0  2  0  0  0  0  0  0
  191.6800  176.5190  143.9940 O   0  0  0  0  0  0  0  0  0  0  0  0
  190.0670  176.8600  142.3270 N   0  0  0  0  0  0  0  0  0  0  0  0
  191.4110  176.8820  142.8190 C   0  0  0  0  0  3  0  0  0  0  0  0
  188.9420  176.4620  143.1650 C   0  0  0  0  0  2  0  0  0  0  0  0
  186.4590  177.5560  145.4600 C   0  0  1  0  0  3  0  0  0  0  0  0
  187.9810  177.7260  147.3330 O   0  0  0  0  0  0  0  0  0  0  0  0
  185.6310  178.8000  145.7220 C   0  0  0  0  0  1  0  0  0  0  0  0
  186.8040  177.4830  143.9720 C   0  0  0  0  0  2  0  0  0  0  0  0
  188.8110  177.7640  145.1730 O   0  0  0  0  0  0  0  0  0  0  0  0
  188.3240  177.6720  143.8480 C   0  0  1  0  0  3  0  0  0  0  0  0
  187.7870  177.6940  146.0880 C   0  0  0  0  0  0  0  0  0  0  0  0
  1 19  1  1  0  0  0
  2  1  1  0  0  0  0
  3  5  2  0  0  0  0
  4  3  1  0  0  0  0
  5  2  1  0  0  0  0
  6 11  1  0  0  0  0
  6  8  1  0  0  0  0
  7  4  2  0  0  0  0
  8  2  1  0  0  0  0
  9  7  1  0  0  0  0
  9 12  2  0  0  0  0
 10  8  2  0  0  0  0
 11 12  1  6  0  0  0
 11  3  1  0  0  0  0
 13 15  1  1  0  0  0
 13 16  1  0  0  0  0
 14 18  1  0  0  0  0
 14 13  1  0  0  0  0
 17 16  2  0  0  0  0
 17  1  1  0  0  0  0
 18 17  1  0  0  0  0
 19 20  1  0  0  0  0
 20 22  1  0  0  0  0
 22 23  1  0  0  0  0
 22 24  1  0  0  0  0
 23 21  2  0  0  0  0
 25 27  1  6  0  0  0
 25 31  1  0  0  0  0
 28 25  1  0  0  0  0
 29 31  1  0  0  0  0
 30 24  1  1  0  0  0
 30 28  1  0  0  0  0
 30 29  1  0  0  0  0
 31 26  2  0  0  0  0
M  END
>  <MODEL>
5

>  <REMARK>
 VINA RESULT:      -7.9      2.988      4.717
  Name = 
  7 active torsions:
  status: ('A' for Active; 'I' for Inactive)
    1  A    between atoms: C_3  and  N_9
    2  A    between atoms: C_3  and  C_22
    3  A    between atoms: N_4  and  C_12
    4  A    between atoms: N_9  and  C_15
    5  A    between atoms: C_12  and  C_20
    6  A    between atoms: C_12  and  C_27
    7  A    between atoms: C_15  and  C_20
                            x       y       z     vdW  Elec       q    Type
                         _______ _______ _______ _____ _____    ______ ____

>  <TORSDO>
F 7

$$$$
=
 OpenBabel10262419233D

 31 34  0  0  1  0  0  0  0  0999 V2000
  187.5740  178.5120  140.3160 C   0  0  2  0  0  3  0  0  0  0  0  0
  186.1240  178.5230  140.1300 N   0  0  0  0  0  0  0  0  0  0  0  0
  184.2160  178.0310  138.7470 C   0  0  0  0  0  0  0  0  0  0  0  0
  183.6080  177.7190  137.4450 C   0  0  0  0  0  3  0  0  0  0  0  0
  185.5390  178.1430  138.8710 C   0  0  0  0  0  3  0  0  0  0  0  0
  183.8780  179.0050  140.9560 O   0  0  0  0  0  0  0  0  0  0  0  0
  182.2880  177.8560  137.2860 C   0  0  0  0  0  3  0  0  0  0  0  0
  185.2610  179.0710  141.1390 C   0  0  0  0  0  0  0  0  0  0  0  0
  181.4310  178.3430  138.3890 C   0  0  0  0  0  3  0  0  0  0  0  0
  185.7450  179.6730  142.1750 N   0  0  0  0  0  2  0  0  0  0  0  0
  183.3300  178.1310  139.9700 C   0  0  1  0  0  3  0  0  0  0  0  0
  181.9160  178.5150  139.6240 C   0  0  0  0  0  3  0  0  0  0  0  0
  189.3610  176.6780  137.6030 C   0  0  2  0  0  3  0  0  0  0  0  0
  189.3900  178.2580  136.6780 S   0  0  0  0  0  0  0  0  0  0  0  0
  188.6420  175.6200  136.7910 C   0  0  0  0  0  1  0  0  0  0  0  0
  188.6540  176.9030  138.8560 N   0  0  0  0  0  0  0  0  0  0  0  0
  188.2680  178.1140  139.0500 C   0  0  0  0  0  0  0  0  0  0  0  0
  188.5910  179.0470  138.0340 N   0  0  0  0  0  2  0  0  0  0  0  0
  187.9630  177.6260  141.4950 C   0  0  0  0  0  2  0  0  0  0  0  0
  189.2180  178.1490  142.1760 C   0  0  0  0  0  2  0  0  0  0  0  0
  191.7280  176.0050  143.7040 O   0  0  0  0  0  0  0  0  0  0  0  0
  189.7760  177.1230  143.0400 N   0  0  0  0  0  0  0  0  0  0  0  0
  191.1570  176.7800  142.8910 C   0  0  0  0  0  3  0  0  0  0  0  0
  188.9730  176.6360  144.1570 C   0  0  0  0  0  2  0  0  0  0  0  0
  186.5500  177.6380  146.5550 C   0  0  1  0  0  3  0  0  0  0  0  0
  188.0360  177.4040  148.4490 O   0  0  0  0  0  0  0  0  0  0  0  0
  185.8350  178.9070  146.9770 C   0  0  0  0  0  1  0  0  0  0  0  0
  186.9220  177.7370  145.0750 C   0  0  0  0  0  2  0  0  0  0  0  0
  188.9170  177.6570  146.3240 O   0  0  0  0  0  0  0  0  0  0  0  0
  188.4550  177.7950  144.9940 C   0  0  1  0  0  3  0  0  0  0  0  0
  187.8690  177.5610  147.2100 C   0  0  0  0  0  0  0  0  0  0  0  0
  1 19  1  1  0  0  0
  2  1  1  0  0  0  0
  2  8  1  0  0  0  0
  3  5  2  0  0  0  0
  3 11  1  0  0  0  0
  4  3  1  0  0  0  0
  5  2  1  0  0  0  0
  6  8  1  0  0  0  0
  7  4  2  0  0  0  0
  7  9  1  0  0  0  0
  8 10  2  0  0  0  0
  9 12  2  0  0  0  0
 11 12  1  6  0  0  0
 11  6  1  0  0  0  0
 13 15  1  6  0  0  0
 13 16  1  0  0  0  0
 14 13  1  0  0  0  0
 14 18  1  0  0  0  0
 16 17  2  0  0  0  0
 17  1  1  0  0  0  0
 18 17  1  0  0  0  0
 19 20  1  0  0  0  0
 20 22  1  0  0  0  0
 22 24  1  0  0  0  0
 23 22  1  0  0  0  0
 23 21  2  0  0  0  0
 25 27  1  1  0  0  0
 25 31  1  0  0  0  0
 28 25  1  0  0  0  0
 29 31  1  0  0  0  0
 30 24  1  6  0  0  0
 30 28  1  0  0  0  0
 30 29  1  0  0  0  0
 31 26  2  0  0  0  0
M  END
>  <MODEL>
6

>  <REMARK>
 VINA RESULT:      -7.9      2.611      4.653
  Name = 
  7 active torsions:
  status: ('A' for Active; 'I' for Inactive)
    1  A    between atoms: C_3  and  N_9
    2  A    between atoms: C_3  and  C_22
    3  A    between atoms: N_4  and  C_12
    4  A    between atoms: N_9  and  C_15
    5  A    between atoms: C_12  and  C_20
    6  A    between atoms: C_12  and  C_27
    7  A    between atoms: C_15  and  C_20
                            x       y       z     vdW  Elec       q    Type
                         _______ _______ _______ _____ _____    ______ ____

>  <TORSDO>
F 7

$$$$
=
 OpenBabel10262419233D

 31 34  0  0  1  0  0  0  0  0999 V2000
  188.6970  177.1870  141.7910 C   0  0  2  0  0  3  0  0  0  0  0  0
  187.5260  177.7560  142.4580 N   0  0  0  0  0  0  0  0  0  0  0  0
  186.2580  178.0890  144.4770 C   0  0  0  0  0  0  0  0  0  0  0  0
  185.9230  177.7420  145.8650 C   0  0  0  0  0  3  0  0  0  0  0  0
  187.2510  177.4660  143.8400 C   0  0  0  0  0  3  0  0  0  0  0  0
  185.4650  179.0630  142.3870 O   0  0  0  0  0  0  0  0  0  0  0  0
  184.7820  178.1890  146.3980 C   0  0  0  0  0  3  0  0  0  0  0  0
  186.5350  178.4770  141.7080 C   0  0  0  0  0  0  0  0  0  0  0  0
  183.8360  179.0040  145.6060 C   0  0  0  0  0  3  0  0  0  0  0  0
  186.5900  178.5380  140.4170 N   0  0  0  0  0  2  0  0  0  0  0  0
  185.5240  179.2280  143.8030 C   0  0  1  0  0  3  0  0  0  0  0  0
  184.1540  179.4520  144.3860 C   0  0  0  0  0  3  0  0  0  0  0  0
  191.2560  177.3810  144.4980 C   0  0  2  0  0  3  0  0  0  0  0  0
  191.6930  175.6510  144.0850 S   0  0  0  0  0  0  0  0  0  0  0  0
  190.8300  177.4710  145.9500 C   0  0  0  0  0  1  0  0  0  0  0  0
  190.1550  177.7860  143.6360 N   0  0  0  0  0  0  0  0  0  0  0  0
  189.7830  176.8990  142.7810 C   0  0  0  0  0  0  0  0  0  0  0  0
  190.4950  175.6750  142.7940 N   0  0  0  0  0  2  0  0  0  0  0  0
  189.1690  178.0920  140.6580 C   0  0  0  0  0  2  0  0  0  0  0  0
  190.2340  177.4020  139.8200 C   0  0  0  0  0  2  0  0  0  0  0  0
  188.9710  178.9500  136.7800 O   0  0  0  0  0  0  0  0  0  0  0  0
  189.9330  177.5620  138.4080 N   0  0  0  0  0  0  0  0  0  0  0  0
  189.1420  178.6820  137.9990 C   0  0  0  0  0  3  0  0  0  0  0  0
  190.6170  176.7050  137.4450 C   0  0  0  0  0  2  0  0  0  0  0  0
  193.3530  174.5050  136.8940 C   0  0  1  0  0  3  0  0  0  0  0  0
  194.9320  176.2700  136.4060 O   0  0  0  0  0  0  0  0  0  0  0  0
  194.2600  173.6020  137.7100 C   0  0  0  0  0  1  0  0  0  0  0  0
  191.9980  174.6230  137.5930 C   0  0  0  0  0  2  0  0  0  0  0  0
  193.0090  176.7510  137.5990 O   0  0  0  0  0  0  0  0  0  0  0  0
  191.8550  176.0780  138.0670 C   0  0  1  0  0  3  0  0  0  0  0  0
  193.8540  175.8920  136.9360 C   0  0  0  0  0  0  0  0  0  0  0  0
  1 19  1  6  0  0  0
  1  2  1  0  0  0  0
  1 17  1  0  0  0  0
  2  5  1  0  0  0  0
  3  4  1  0  0  0  0
  4  7  2  0  0  0  0
  5  3  2  0  0  0  0
  6 11  1  0  0  0  0
  8  6  1  0  0  0  0
  8  2  1  0  0  0  0
  9  7  1  0  0  0  0
 10  8  2  0  0  0  0
 11 12  1  1  0  0  0
 11  3  1  0  0  0  0
 12  9  2  0  0  0  0
 13 15  1  1  0  0  0
 14 13  1  0  0  0  0
 16 13  1  0  0  0  0
 17 18  1  0  0  0  0
 17 16  2  0  0  0  0
 18 14  1  0  0  0  0
 20 19  1  0  0  0  0
 21 23  2  0  0  0  0
 22 20  1  0  0  0  0
 23 22  1  0  0  0  0
 24 22  1  0  0  0  0
 25 31  1  0  0  0  0
 25 28  1  0  0  0  0
 25 27  1  1  0  0  0
 26 31  2  0  0  0  0
 28 30  1  0  0  0  0
 29 30  1  0  0  0  0
 30 24  1  6  0  0  0
 31 29  1  0  0  0  0
M  END
>  <MODEL>
7

>  <REMARK>
 VINA RESULT:      -7.8      3.221      7.728
  Name = 
  7 active torsions:
  status: ('A' for Active; 'I' for Inactive)
    1  A    between atoms: C_3  and  N_9
    2  A    between atoms: C_3  and  C_22
    3  A    between atoms: N_4  and  C_12
    4  A    between atoms: N_9  and  C_15
    5  A    between atoms: C_12  and  C_20
    6  A    between atoms: C_12  and  C_27
    7  A    between atoms: C_15  and  C_20
                            x       y       z     vdW  Elec       q    Type
                         _______ _______ _______ _____ _____    ______ ____

>  <TORSDO>
F 7

$$$$
=
 OpenBabel10262419233D

 31 34  0  0  1  0  0  0  0  0999 V2000
  190.1060  176.2140  138.8580 C   0  0  2  0  0  3  0  0  0  0  0  0
  191.1000  175.6380  137.9520 N   0  0  0  0  0  0  0  0  0  0  0  0
  193.1960  175.8420  136.7860 C   0  0  0  0  0  0  0  0  0  0  0  0
  194.3110  176.6430  136.2620 C   0  0  0  0  0  3  0  0  0  0  0  0
  192.2280  176.4110  137.5060 C   0  0  0  0  0  3  0  0  0  0  0  0
  191.8830  173.8010  136.5480 O   0  0  0  0  0  0  0  0  0  0  0  0
  195.1270  176.1130  135.3450 C   0  0  0  0  0  3  0  0  0  0  0  0
  190.8840  174.3480  137.3550 C   0  0  0  0  0  0  0  0  0  0  0  0
  194.9110  174.7440  134.8280 C   0  0  0  0  0  3  0  0  0  0  0  0
  189.7630  173.7230  137.5060 N   0  0  0  0  0  2  0  0  0  0  0  0
  193.2030  174.3420  136.5810 C   0  0  1  0  0  3  0  0  0  0  0  0
  193.9920  173.9330  135.3650 C   0  0  0  0  0  3  0  0  0  0  0  0
  187.0320  177.4570  137.1500 C   0  0  2  0  0  3  0  0  0  0  0  0
  188.0110  178.9220  136.6500 S   0  0  0  0  0  0  0  0  0  0  0  0
  185.8290  177.8960  137.9610 C   0  0  0  0  0  1  0  0  0  0  0  0
  187.8860  176.6000  137.9590 N   0  0  0  0  0  0  0  0  0  0  0  0
  189.0960  177.0150  138.0960 C   0  0  0  0  0  0  0  0  0  0  0  0
  189.4230  178.2270  137.4410 N   0  0  0  0  0  2  0  0  0  0  0  0
  190.7820  177.0260  139.9580 C   0  0  0  0  0  2  0  0  0  0  0  0
  189.7740  177.4540  141.0120 C   0  0  0  0  0  2  0  0  0  0  0  0
  191.6790  176.2240  143.8560 O   0  0  0  0  0  0  0  0  0  0  0  0
  190.0460  176.7690  142.2640 N   0  0  0  0  0  0  0  0  0  0  0  0
  191.4010  176.6780  142.7140 C   0  0  0  0  0  3  0  0  0  0  0  0
  188.9210  176.3870  143.1120 C   0  0  0  0  0  2  0  0  0  0  0  0
  186.5360  177.4990  145.5000 C   0  0  1  0  0  3  0  0  0  0  0  0
  188.1160  177.5940  147.3290 O   0  0  0  0  0  0  0  0  0  0  0  0
  185.7490  178.7590  145.8090 C   0  0  0  0  0  1  0  0  0  0  0  0
  186.8350  177.4470  144.0010 C   0  0  0  0  0  2  0  0  0  0  0  0
  188.8830  177.6530  145.1470 O   0  0  0  0  0  0  0  0  0  0  0  0
  188.3550  177.5990  143.8350 C   0  0  1  0  0  3  0  0  0  0  0  0
  187.8850  177.5910  146.0900 C   0  0  0  0  0  0  0  0  0  0  0  0
  1 19  1  1  0  0  0
  2  1  1  0  0  0  0
  3  5  2  0  0  0  0
  4  3  1  0  0  0  0
  5  2  1  0  0  0  0
  6 11  1  0  0  0  0
  6  8  1  0  0  0  0
  7  4  2  0  0  0  0
  8 10  2  0  0  0  0
  8  2  1  0  0  0  0
  9  7  1  0  0  0  0
  9 12  2  0  0  0  0
 11 12  1  6  0  0  0
 11  3  1  0  0  0  0
 13 16  1  0  0  0  0
 13 15  1  1  0  0  0
 14 13  1  0  0  0  0
 14 18  1  0  0  0  0
 16 17  2  0  0  0  0
 17  1  1  0  0  0  0
 18 17  1  0  0  0  0
 19 20  1  0  0  0  0
 20 22  1  0  0  0  0
 22 23  1  0  0  0  0
 22 24  1  0  0  0  0
 23 21  2  0  0  0  0
 25 27  1  6  0  0  0
 25 31  1  0  0  0  0
 28 25  1  0  0  0  0
 29 31  1  0  0  0  0
 30 24  1  1  0  0  0
 30 28  1  0  0  0  0
 30 29  1  0  0  0  0
 31 26  2  0  0  0  0
M  END
>  <MODEL>
8

>  <REMARK>
 VINA RESULT:      -7.7      3.718      5.754
  Name = 
  7 active torsions:
  status: ('A' for Active; 'I' for Inactive)
    1  A    between atoms: C_3  and  N_9
    2  A    between atoms: C_3  and  C_22
    3  A    between atoms: N_4  and  C_12
    4  A    between atoms: N_9  and  C_15
    5  A    between atoms: C_12  and  C_20
    6  A    between atoms: C_12  and  C_27
    7  A    between atoms: C_15  and  C_20
                            x       y       z     vdW  Elec       q    Type
                         _______ _______ _______ _____ _____    ______ ____

>  <TORSDO>
F 7

$$$$
=
 OpenBabel10262419233D

 31 34  0  0  1  0  0  0  0  0999 V2000
  188.8520  178.0840  141.4730 C   0  0  2  0  0  3  0  0  0  0  0  0
  189.5780  177.6850  142.6790 N   0  0  0  0  0  0  0  0  0  0  0  0
  189.5730  177.2760  145.0520 C   0  0  0  0  0  0  0  0  0  0  0  0
  188.9770  177.4190  146.3870 C   0  0  0  0  0  3  0  0  0  0  0  0
  188.9540  177.7610  143.9740 C   0  0  0  0  0  3  0  0  0  0  0  0
  191.6230  176.9300  143.7770 O   0  0  0  0  0  0  0  0  0  0  0  0
  189.7160  177.1550  147.4690 C   0  0  0  0  0  3  0  0  0  0  0  0
  190.9790  177.3700  142.6200 C   0  0  0  0  0  0  0  0  0  0  0  0
  191.1320  176.7480  147.3470 C   0  0  0  0  0  3  0  0  0  0  0  0
  191.6560  177.5460  141.5330 N   0  0  0  0  0  2  0  0  0  0  0  0
  190.8560  176.4880  144.8960 C   0  0  1  0  0  3  0  0  0  0  0  0
  191.6810  176.4800  146.1560 C   0  0  0  0  0  3  0  0  0  0  0  0
  185.4140  177.9000  142.9080 C   0  0  2  0  0  3  0  0  0  0  0  0
  184.8850  179.0040  141.5460 S   0  0  0  0  0  0  0  0  0  0  0  0
  185.1050  178.5480  144.2430 C   0  0  0  0  0  1  0  0  0  0  0  0
  186.8490  177.6880  142.7830 N   0  0  0  0  0  0  0  0  0  0  0  0
  187.3930  178.2540  141.7640 C   0  0  0  0  0  0  0  0  0  0  0  0
  186.5280  178.9860  140.9150 N   0  0  0  0  0  2  0  0  0  0  0  0
  189.1070  177.1000  140.3360 C   0  0  0  0  0  2  0  0  0  0  0  0
  189.3020  177.8330  139.0180 C   0  0  0  0  0  2  0  0  0  0  0  0
  187.8910  175.5410  136.5710 O   0  0  0  0  0  0  0  0  0  0  0  0
  189.2620  176.8870  137.9160 N   0  0  0  0  0  0  0  0  0  0  0  0
  188.0170  176.2570  137.6000 C   0  0  0  0  0  3  0  0  0  0  0  0
  190.4290  176.7740  137.0480 C   0  0  0  0  0  2  0  0  0  0  0  0
  193.1600  174.5260  136.7100 C   0  0  1  0  0  3  0  0  0  0  0  0
  194.8210  176.2670  136.4660 O   0  0  0  0  0  0  0  0  0  0  0  0
  193.9530  173.5710  137.5830 C   0  0  0  0  0  1  0  0  0  0  0  0
  191.7400  174.6530  137.2620 C   0  0  0  0  0  2  0  0  0  0  0  0
  192.7900  176.7530  137.4610 O   0  0  0  0  0  0  0  0  0  0  0  0
  191.5780  176.0930  137.7750 C   0  0  1  0  0  3  0  0  0  0  0  0
  193.6830  175.8970  136.8600 C   0  0  0  0  0  0  0  0  0  0  0  0
  1 19  1  6  0  0  0
  1 17  1  0  0  0  0
  1  2  1  0  0  0  0
  2  5  1  0  0  0  0
  3  4  1  0  0  0  0
  4  7  2  0  0  0  0
  5  3  2  0  0  0  0
  6 11  1  0  0  0  0
  8  2  1  0  0  0  0
  8  6  1  0  0  0  0
  9  7  1  0  0  0  0
 10  8  2  0  0  0  0
 11  3  1  0  0  0  0
 11 12  1  1  0  0  0
 12  9  2  0  0  0  0
 13 15  1  1  0  0  0
 14 13  1  0  0  0  0
 16 13  1  0  0  0  0
 17 16  2  0  0  0  0
 18 14  1  0  0  0  0
 18 17  1  0  0  0  0
 20 19  1  0  0  0  0
 21 23  2  0  0  0  0
 22 20  1  0  0  0  0
 23 22  1  0  0  0  0
 24 22  1  0  0  0  0
 25 31  1  0  0  0  0
 25 28  1  0  0  0  0
 25 27  1  1  0  0  0
 26 31  2  0  0  0  0
 28 30  1  0  0  0  0
 29 30  1  0  0  0  0
 30 24  1  6  0  0  0
 31 29  1  0  0  0  0
M  END
>  <MODEL>
9

>  <REMARK>
 VINA RESULT:      -7.6      3.377      8.465
  Name = 
  7 active torsions:
  status: ('A' for Active; 'I' for Inactive)
    1  A    between atoms: C_3  and  N_9
    2  A    between atoms: C_3  and  C_22
    3  A    between atoms: N_4  and  C_12
    4  A    between atoms: N_9  and  C_15
    5  A    between atoms: C_12  and  C_20
    6  A    between atoms: C_12  and  C_27
    7  A    between atoms: C_15  and  C_20
                            x       y       z     vdW  Elec       q    Type
                         _______ _______ _______ _____ _____    ______ ____

>  <TORSDO>
F 7

$$$$
