=
 OpenBabel10262421543D

 30 33  0  0  1  0  0  0  0  0999 V2000
  189.6700  177.7360  140.5520 C   0  0  0  0  0  2  0  0  0  0  0  0
  190.0890  176.2970  138.5230 C   0  0  0  0  0  0  0  0  0  0  0  0
  185.3690  178.5060  139.1130 S   0  0  0  0  0  0  0  0  0  0  0  0
  188.6170  178.3840  141.4930 C   0  0  1  0  0  3  0  0  0  0  0  0
  185.0040  179.0540  140.8270 C   0  0  1  0  0  3  0  0  0  0  0  0
  189.9480  176.3680  137.0620 C   0  0  0  0  0  3  0  0  0  0  0  0
  191.0580  175.6640  139.0200 O   0  0  0  0  0  0  0  0  0  0  0  0
  187.1230  178.6370  139.4900 C   0  0  1  0  0  3  0  0  0  0  0  0
  188.9610  177.0720  136.5100 C   0  0  0  0  0  3  0  0  0  0  0  0
  189.0420  176.9030  139.4210 C   0  0  2  0  0  3  0  0  0  0  0  0
  187.1920  178.2540  140.9410 C   0  0  2  0  0  3  0  0  0  0  0  0
  183.9750  178.1310  141.4500 C   0  0  0  0  0  1  0  0  0  0  0  0
  186.2200  179.0670  141.6460 N   0  0  0  0  0  2  0  0  0  0  0  0
  187.9960  177.8140  137.3400 C   0  0  0  0  0  3  0  0  0  0  0  0
  188.0160  177.7430  138.6760 C   0  0  0  0  0  0  0  0  0  0  0  0
  188.6870  177.8320  142.9260 C   0  0  2  0  0  3  0  0  0  0  0  0
  190.5770  179.1060  144.0490 C   0  0  0  0  0  1  0  0  0  0  0  0
  190.1120  177.7580  143.5080 C   0  0  1  0  0  3  0  0  0  0  0  0
  191.5670  175.9430  144.4360 C   0  0  0  0  0  2  0  0  0  0  0  0
  190.3110  177.2450  145.9560 C   0  0  0  0  0  2  0  0  0  0  0  0
  190.2440  176.6570  144.5670 C   0  0  0  0  0  3  0  0  0  0  0  0
  192.1820  175.9380  145.7530 N   0  0  0  0  0  2  0  0  0  0  0  0
  191.6680  177.0510  146.4400 N   0  0  0  0  0  2  0  0  0  0  0  0
  187.9040  176.5340  143.1090 C   0  0  0  0  0  2  0  0  0  0  0  0
  186.7400  176.7490  144.0600 C   0  0  0  0  0  2  0  0  0  0  0  0
  186.9330  178.0320  144.8470 C   0  0  0  0  0  2  0  0  0  0  0  0
  186.5630  177.8190  146.3050 C   0  0  0  0  0  2  0  0  0  0  0  0
  185.8650  179.7770  147.4650 O   0  0  0  0  0  1  0  0  0  0  0  0
  185.5410  178.8170  146.7180 C   0  0  0  0  0  0  0  0  0  0  0  0
  184.2380  178.7110  146.2520 O   0  0  0  0  0  0  0  0  0  0  0  0
  1  4  1  0  0  0  0
  2  7  2  0  0  0  0
  2 10  1  0  0  0  0
  3  8  1  0  0  0  0
  3  5  1  0  0  0  0
  4 16  1  1  0  0  0
  5 12  1  1  0  0  0
  5 13  1  0  0  0  0
  6  2  1  0  0  0  0
  8 15  1  6  0  0  0
  8 11  1  0  0  0  0
  9  6  2  0  0  0  0
  9 14  1  0  0  0  0
 10  1  1  1  0  0  0
 11  4  1  0  0  0  0
 11 13  1  1  0  0  0
 14 15  2  0  0  0  0
 15 10  1  0  0  0  0
 16 24  1  6  0  0  0
 16 18  1  0  0  0  0
 18 17  1  1  0  0  0
 18 21  1  0  0  0  0
 19 21  1  0  0  0  0
 19 22  1  0  0  0  0
 20 23  1  0  0  0  0
 21 20  1  0  0  0  0
 22 23  1  0  0  0  0
 24 25  1  0  0  0  0
 25 26  1  0  0  0  0
 26 27  1  0  0  0  0
 27 29  1  0  0  0  0
 29 28  1  0  0  0  0
 30 29  2  0  0  0  0
M  END
>  <MODEL>
1

>  <REMARK>
 VINA RESULT:      -8.0      0.000      0.000
  Name = 
  8 active torsions:
  status: ('A' for Active; 'I' for Inactive)
    1  A    between atoms: C_4  and  C_13
    2  A    between atoms: C_7  and  C_15
    3  A    between atoms: C_7  and  C_16
    4  A    between atoms: C_8  and  C_12
    5  A    between atoms: C_8  and  C_13
    6  A    between atoms: C_13  and  C_27
    7  A    between atoms: C_16  and  C_30
    8  A    between atoms: C_27  and  C_30
                            x       y       z     vdW  Elec       q    Type
                         _______ _______ _______ _____ _____    ______ ____

>  <TORSDO>
F 8

$$$$
=
 OpenBabel10262421543D

 30 33  0  0  1  0  0  0  0  0999 V2000
  187.5640  177.6300  140.2480 C   0  0  0  0  0  2  0  0  0  0  0  0
  188.3690  178.2250  137.9320 C   0  0  0  0  0  0  0  0  0  0  0  0
  191.9180  177.5310  141.7310 S   0  0  0  0  0  0  0  0  0  0  0  0
  187.8890  177.5820  141.7660 C   0  0  1  0  0  3  0  0  0  0  0  0
  191.2320  177.6460  143.4300 C   0  0  1  0  0  3  0  0  0  0  0  0
  189.3330  177.7430  136.9330 C   0  0  0  0  0  3  0  0  0  0  0  0
  187.2780  178.7220  137.5470 O   0  0  0  0  0  0  0  0  0  0  0  0
  190.2740  177.0970  141.1430 C   0  0  1  0  0  3  0  0  0  0  0  0
  190.4720  177.1670  137.3140 C   0  0  0  0  0  3  0  0  0  0  0  0
  188.7140  178.2000  139.3980 C   0  0  2  0  0  3  0  0  0  0  0  0
  189.3670  177.8800  142.0500 C   0  0  2  0  0  3  0  0  0  0  0  0
  191.6880  178.9380  144.0780 C   0  0  0  0  0  1  0  0  0  0  0  0
  189.7670  177.5880  143.4130 N   0  0  0  0  0  2  0  0  0  0  0  0
  190.7920  176.9770  138.7390 C   0  0  0  0  0  3  0  0  0  0  0  0
  189.9990  177.4490  139.7080 C   0  0  0  0  0  0  0  0  0  0  0  0
  186.9880  178.5150  142.5920 C   0  0  2  0  0  3  0  0  0  0  0  0
  186.9130  176.4460  144.0650 C   0  0  0  0  0  1  0  0  0  0  0  0
  186.3890  177.8630  143.8530 C   0  0  1  0  0  3  0  0  0  0  0  0
  185.2770  179.1200  145.7120 C   0  0  0  0  0  2  0  0  0  0  0  0
  187.2610  177.9340  146.2050 C   0  0  0  0  0  2  0  0  0  0  0  0
  186.6000  178.7260  145.1030 C   0  0  0  0  0  3  0  0  0  0  0  0
  185.3390  178.7780  147.1240 N   0  0  0  0  0  2  0  0  0  0  0  0
  186.2620  177.7260  147.2420 N   0  0  0  0  0  2  0  0  0  0  0  0
  185.9450  179.2440  141.7500 C   0  0  0  0  0  2  0  0  0  0  0  0
  184.5450  178.8460  142.1840 C   0  0  0  0  0  2  0  0  0  0  0  0
  183.9030  177.9540  141.1380 C   0  0  0  0  0  2  0  0  0  0  0  0
  182.9910  178.7670  140.2350 C   0  0  0  0  0  2  0  0  0  0  0  0
  183.9310  178.4150  138.0770 O   0  0  0  0  0  0  0  0  0  0  0  0
  183.7410  179.2130  139.0310 C   0  0  0  0  0  0  0  0  0  0  0  0
  184.2010  180.5190  138.9440 O   0  0  0  0  0  1  0  0  0  0  0  0
  1  4  1  0  0  0  0
  2 10  1  0  0  0  0
  3  5  1  0  0  0  0
  4 11  1  0  0  0  0
  4 16  1  1  0  0  0
  5 12  1  6  0  0  0
  6  9  2  0  0  0  0
  6  2  1  0  0  0  0
  7  2  2  0  0  0  0
  8 15  1  6  0  0  0
  8  3  1  0  0  0  0
  8 11  1  0  0  0  0
  9 14  1  0  0  0  0
 10 15  1  0  0  0  0
 10  1  1  1  0  0  0
 11 13  1  1  0  0  0
 13  5  1  0  0  0  0
 14 15  2  0  0  0  0
 16 24  1  6  0  0  0
 16 18  1  0  0  0  0
 18 17  1  1  0  0  0
 18 21  1  0  0  0  0
 19 22  1  0  0  0  0
 20 23  1  0  0  0  0
 21 19  1  0  0  0  0
 21 20  1  0  0  0  0
 22 23  1  0  0  0  0
 24 25  1  0  0  0  0
 26 25  1  0  0  0  0
 27 26  1  0  0  0  0
 28 29  2  0  0  0  0
 29 27  1  0  0  0  0
 30 29  1  0  0  0  0
M  END
>  <MODEL>
2

>  <REMARK>
 VINA RESULT:      -6.9      3.146      5.104
  Name = 
  8 active torsions:
  status: ('A' for Active; 'I' for Inactive)
    1  A    between atoms: C_4  and  C_13
    2  A    between atoms: C_7  and  C_15
    3  A    between atoms: C_7  and  C_16
    4  A    between atoms: C_8  and  C_12
    5  A    between atoms: C_8  and  C_13
    6  A    between atoms: C_13  and  C_27
    7  A    between atoms: C_16  and  C_30
    8  A    between atoms: C_27  and  C_30
                            x       y       z     vdW  Elec       q    Type
                         _______ _______ _______ _____ _____    ______ ____

>  <TORSDO>
F 8

$$$$
=
 OpenBabel10262421543D

 30 33  0  0  1  0  0  0  0  0999 V2000
  185.2020  178.7200  141.1330 C   0  0  0  0  0  2  0  0  0  0  0  0
  182.8390  178.0060  140.6120 C   0  0  0  0  0  0  0  0  0  0  0  0
  184.2270  178.6560  145.6280 S   0  0  0  0  0  0  0  0  0  0  0  0
  186.3310  178.8040  142.1960 C   0  0  1  0  0  3  0  0  0  0  0  0
  186.0400  178.6340  145.9150 C   0  0  1  0  0  3  0  0  0  0  0  0
  181.4610  178.4050  140.9340 C   0  0  0  0  0  3  0  0  0  0  0  0
  183.0980  177.5500  139.4680 O   0  0  0  0  0  0  0  0  0  0  0  0
  184.5450  179.1490  143.9280 C   0  0  1  0  0  3  0  0  0  0  0  0
  181.1700  178.9370  142.1200 C   0  0  0  0  0  3  0  0  0  0  0  0
  183.9150  178.0640  141.6650 C   0  0  2  0  0  3  0  0  0  0  0  0
  185.8310  178.4430  143.6010 C   0  0  2  0  0  3  0  0  0  0  0  0
  186.4310  177.3450  146.6090 C   0  0  0  0  0  1  0  0  0  0  0  0
  186.7750  178.7630  144.6530 N   0  0  0  0  0  2  0  0  0  0  0  0
  182.2140  179.1610  143.1340 C   0  0  0  0  0  3  0  0  0  0  0  0
  183.4780  178.7620  142.9440 C   0  0  0  0  0  0  0  0  0  0  0  0
  187.5530  177.9460  141.8290 C   0  0  2  0  0  3  0  0  0  0  0  0
  188.4430  176.0690  143.2910 C   0  0  0  0  0  1  0  0  0  0  0  0
  188.4470  177.5710  143.0260 C   0  0  1  0  0  3  0  0  0  0  0  0
  190.3620  178.7310  144.1490 C   0  0  0  0  0  2  0  0  0  0  0  0
  190.8550  176.9750  142.6470 C   0  0  0  0  0  2  0  0  0  0  0  0
  189.8770  178.1030  142.8660 C   0  0  0  0  0  3  0  0  0  0  0  0
  191.6540  178.1380  144.4530 N   0  0  0  0  0  2  0  0  0  0  0  0
  191.6630  176.8680  143.8510 N   0  0  0  0  0  2  0  0  0  0  0  0
  188.3460  178.5040  140.6500 C   0  0  0  0  0  2  0  0  0  0  0  0
  188.5100  177.4440  139.5740 C   0  0  0  0  0  2  0  0  0  0  0  0
  189.8830  177.5490  138.9370 C   0  0  0  0  0  2  0  0  0  0  0  0
  189.7630  177.5650  137.4220 C   0  0  0  0  0  2  0  0  0  0  0  0
  188.9870  179.8150  137.3720 O   0  0  0  0  0  1  0  0  0  0  0  0
  188.8080  178.6250  137.0020 C   0  0  0  0  0  0  0  0  0  0  0  0
  187.7390  178.3090  136.1750 O   0  0  0  0  0  0  0  0  0  0  0  0
  1  4  1  0  0  0  0
  2  6  1  0  0  0  0
  2 10  1  0  0  0  0
  3  5  1  0  0  0  0
  4 16  1  6  0  0  0
  4 11  1  0  0  0  0
  5 12  1  6  0  0  0
  6  9  2  0  0  0  0
  7  2  2  0  0  0  0
  8 15  1  6  0  0  0
  8  3  1  0  0  0  0
  9 14  1  0  0  0  0
 10  1  1  6  0  0  0
 10 15  1  0  0  0  0
 11  8  1  0  0  0  0
 11 13  1  1  0  0  0
 13  5  1  0  0  0  0
 15 14  2  0  0  0  0
 16 24  1  6  0  0  0
 16 18  1  0  0  0  0
 18 17  1  6  0  0  0
 19 22  1  0  0  0  0
 20 21  1  0  0  0  0
 20 23  1  0  0  0  0
 21 18  1  0  0  0  0
 21 19  1  0  0  0  0
 23 22  1  0  0  0  0
 25 24  1  0  0  0  0
 26 25  1  0  0  0  0
 27 26  1  0  0  0  0
 29 28  1  0  0  0  0
 29 27  1  0  0  0  0
 30 29  2  0  0  0  0
M  END
>  <MODEL>
3

>  <REMARK>
 VINA RESULT:      -6.8      2.895      6.294
  Name = 
  8 active torsions:
  status: ('A' for Active; 'I' for Inactive)
    1  A    between atoms: C_4  and  C_13
    2  A    between atoms: C_7  and  C_15
    3  A    between atoms: C_7  and  C_16
    4  A    between atoms: C_8  and  C_12
    5  A    between atoms: C_8  and  C_13
    6  A    between atoms: C_13  and  C_27
    7  A    between atoms: C_16  and  C_30
    8  A    between atoms: C_27  and  C_30
                            x       y       z     vdW  Elec       q    Type
                         _______ _______ _______ _____ _____    ______ ____

>  <TORSDO>
F 8

$$$$
=
 OpenBabel10262421543D

 30 33  0  0  1  0  0  0  0  0999 V2000
  187.0010  178.8810  141.0670 C   0  0  0  0  0  2  0  0  0  0  0  0
  184.7720  178.2360  142.0570 C   0  0  0  0  0  0  0  0  0  0  0  0
  189.1420  177.0690  144.7130 S   0  0  0  0  0  0  0  0  0  0  0  0
  188.5370  178.6480  141.0570 C   0  0  1  0  0  3  0  0  0  0  0  0
  190.6680  177.0790  143.6920 C   0  0  1  0  0  3  0  0  0  0  0  0
  184.0340  178.3790  143.3200 C   0  0  0  0  0  3  0  0  0  0  0  0
  184.1420  178.2610  140.9670 O   0  0  0  0  0  0  0  0  0  0  0  0
  188.3870  178.1840  143.5210 C   0  0  1  0  0  3  0  0  0  0  0  0
  184.6820  178.4060  144.4840 C   0  0  0  0  0  3  0  0  0  0  0  0
  186.2570  177.9780  142.0670 C   0  0  2  0  0  3  0  0  0  0  0  0
  188.9930  177.7520  142.2150 C   0  0  2  0  0  3  0  0  0  0  0  0
  191.1480  175.6580  143.4770 C   0  0  0  0  0  1  0  0  0  0  0  0
  190.4310  177.7260  142.3970 N   0  0  0  0  0  2  0  0  0  0  0  0
  186.1500  178.3140  144.5420 C   0  0  0  0  0  3  0  0  0  0  0  0
  186.8880  178.1120  143.4440 C   0  0  0  0  0  0  0  0  0  0  0  0
  189.0400  178.0860  139.7170 C   0  0  2  0  0  3  0  0  0  0  0  0
  189.0650  179.2010  137.4340 C   0  0  0  0  0  1  0  0  0  0  0  0
  188.2070  178.5180  138.4950 C   0  0  1  0  0  3  0  0  0  0  0  0
  185.9380  177.6800  137.8480 C   0  0  0  0  0  2  0  0  0  0  0  0
  187.7630  177.1390  136.4470 C   0  0  0  0  0  2  0  0  0  0  0  0
  187.4100  177.3520  137.9000 C   0  0  0  0  0  3  0  0  0  0  0  0
  185.4870  177.4090  136.4930 N   0  0  0  0  0  2  0  0  0  0  0  0
  186.6110  177.5510  135.6610 N   0  0  0  0  0  2  0  0  0  0  0  0
  189.2960  176.5810  139.7550 C   0  0  0  0  0  2  0  0  0  0  0  0
  190.7110  176.2750  139.2950 C   0  0  0  0  0  2  0  0  0  0  0  0
  190.6840  175.5100  137.9850 C   0  0  0  0  0  2  0  0  0  0  0  0
  191.5970  176.1720  136.9670 C   0  0  0  0  0  2  0  0  0  0  0  0
  193.8490  176.8570  137.3190 O   0  0  0  0  0  0  0  0  0  0  0  0
  193.0180  175.9120  137.3190 C   0  0  0  0  0  0  0  0  0  0  0  0
  193.4210  174.6340  137.6810 O   0  0  0  0  0  1  0  0  0  0  0  0
  2 10  1  0  0  0  0
  2  6  1  0  0  0  0
  4 16  1  6  0  0  0
  4  1  1  0  0  0  0
  4 11  1  0  0  0  0
  5 12  1  6  0  0  0
  5  3  1  0  0  0  0
  6  9  2  0  0  0  0
  7  2  2  0  0  0  0
  8 15  1  6  0  0  0
  8  3  1  0  0  0  0
  9 14  1  0  0  0  0
 10  1  1  6  0  0  0
 10 15  1  0  0  0  0
 11 13  1  1  0  0  0
 11  8  1  0  0  0  0
 13  5  1  0  0  0  0
 15 14  2  0  0  0  0
 16 24  1  1  0  0  0
 18 17  1  6  0  0  0
 18 16  1  0  0  0  0
 19 21  1  0  0  0  0
 20 21  1  0  0  0  0
 21 18  1  0  0  0  0
 22 19  1  0  0  0  0
 23 20  1  0  0  0  0
 23 22  1  0  0  0  0
 25 24  1  0  0  0  0
 26 25  1  0  0  0  0
 27 29  1  0  0  0  0
 27 26  1  0  0  0  0
 29 28  2  0  0  0  0
 29 30  1  0  0  0  0
M  END
>  <MODEL>
4

>  <REMARK>
 VINA RESULT:      -6.6      2.767      7.941
  Name = 
  8 active torsions:
  status: ('A' for Active; 'I' for Inactive)
    1  A    between atoms: C_4  and  C_13
    2  A    between atoms: C_7  and  C_15
    3  A    between atoms: C_7  and  C_16
    4  A    between atoms: C_8  and  C_12
    5  A    between atoms: C_8  and  C_13
    6  A    between atoms: C_13  and  C_27
    7  A    between atoms: C_16  and  C_30
    8  A    between atoms: C_27  and  C_30
                            x       y       z     vdW  Elec       q    Type
                         _______ _______ _______ _____ _____    ______ ____

>  <TORSDO>
F 8

$$$$
=
 OpenBabel10262421543D

 30 33  0  0  1  0  0  0  0  0999 V2000
  187.5760  177.1390  142.7610 C   0  0  0  0  0  2  0  0  0  0  0  0
  190.0000  177.6500  142.2800 C   0  0  0  0  0  0  0  0  0  0  0  0
  188.2550  178.1160  147.2040 S   0  0  0  0  0  0  0  0  0  0  0  0
  186.3770  177.3170  143.7310 C   0  0  1  0  0  3  0  0  0  0  0  0
  186.4300  178.2570  147.3450 C   0  0  1  0  0  3  0  0  0  0  0  0
  191.3330  177.2840  142.7790 C   0  0  0  0  0  3  0  0  0  0  0  0
  189.8380  177.8630  141.0490 O   0  0  0  0  0  0  0  0  0  0  0  0
  188.0270  177.2870  145.6250 C   0  0  1  0  0  3  0  0  0  0  0  0
  191.5200  177.0040  144.0680 C   0  0  0  0  0  3  0  0  0  0  0  0
  188.8550  177.8500  143.2390 C   0  0  2  0  0  3  0  0  0  0  0  0
  186.8000  177.9490  145.0630 C   0  0  2  0  0  3  0  0  0  0  0  0
  186.0550  179.6750  147.7240 C   0  0  0  0  0  1  0  0  0  0  0  0
  185.7740  177.8890  146.0860 N   0  0  0  0  0  2  0  0  0  0  0  0
  190.4020  177.0330  145.0260 C   0  0  0  0  0  3  0  0  0  0  0  0
  189.1740  177.4240  144.6630 C   0  0  0  0  0  0  0  0  0  0  0  0
  185.2230  178.1170  143.1040 C   0  0  2  0  0  3  0  0  0  0  0  0
  183.5520  177.5030  141.2920 C   0  0  0  0  0  1  0  0  0  0  0  0
  185.0050  177.8450  141.6030 C   0  0  1  0  0  3  0  0  0  0  0  0
  186.6560  178.5620  139.8610 C   0  0  0  0  0  2  0  0  0  0  0  0
  184.4560  179.4140  139.7240 C   0  0  0  0  0  2  0  0  0  0  0  0
  185.5040  179.0030  140.7300 C   0  0  0  0  0  3  0  0  0  0  0  0
  186.3350  178.9510  138.4970 N   0  0  0  0  0  2  0  0  0  0  0  0
  184.9340  179.0030  138.4140 N   0  0  0  0  0  2  0  0  0  0  0  0
  185.2760  179.6070  143.4330 C   0  0  0  0  0  2  0  0  0  0  0  0
  184.0610  180.0110  144.2490 C   0  0  0  0  0  2  0  0  0  0  0  0
  182.9570  178.9820  144.0940 C   0  0  0  0  0  2  0  0  0  0  0  0
  181.6580  179.6570  143.6900 C   0  0  0  0  0  2  0  0  0  0  0  0
  180.4320  178.3370  142.1330 O   0  0  0  0  0  0  0  0  0  0  0  0
  180.6420  178.6280  143.3400 C   0  0  0  0  0  0  0  0  0  0  0  0
  179.9500  177.9650  144.3440 O   0  0  0  0  0  1  0  0  0  0  0  0
  1  4  1  0  0  0  0
  2  6  1  0  0  0  0
  2 10  1  0  0  0  0
  3  5  1  0  0  0  0
  4 16  1  6  0  0  0
  4 11  1  0  0  0  0
  5 12  1  6  0  0  0
  6  9  2  0  0  0  0
  7  2  2  0  0  0  0
  8 15  1  6  0  0  0
  8  3  1  0  0  0  0
  9 14  1  0  0  0  0
 10  1  1  6  0  0  0
 10 15  1  0  0  0  0
 11  8  1  0  0  0  0
 11 13  1  1  0  0  0
 13  5  1  0  0  0  0
 15 14  2  0  0  0  0
 16 24  1  6  0  0  0
 18 17  1  1  0  0  0
 18 16  1  0  0  0  0
 19 21  1  0  0  0  0
 20 21  1  0  0  0  0
 21 18  1  0  0  0  0
 22 19  1  0  0  0  0
 23 22  1  0  0  0  0
 23 20  1  0  0  0  0
 24 25  1  0  0  0  0
 26 25  1  0  0  0  0
 27 26  1  0  0  0  0
 28 29  2  0  0  0  0
 29 27  1  0  0  0  0
 29 30  1  0  0  0  0
M  END
>  <MODEL>
5

>  <REMARK>
 VINA RESULT:      -6.4      3.402      6.313
  Name = 
  8 active torsions:
  status: ('A' for Active; 'I' for Inactive)
    1  A    between atoms: C_4  and  C_13
    2  A    between atoms: C_7  and  C_15
    3  A    between atoms: C_7  and  C_16
    4  A    between atoms: C_8  and  C_12
    5  A    between atoms: C_8  and  C_13
    6  A    between atoms: C_13  and  C_27
    7  A    between atoms: C_16  and  C_30
    8  A    between atoms: C_27  and  C_30
                            x       y       z     vdW  Elec       q    Type
                         _______ _______ _______ _____ _____    ______ ____

>  <TORSDO>
F 8

$$$$
=
 OpenBabel10262421543D

 30 33  0  0  1  0  0  0  0  0999 V2000
  188.7970  176.6540  143.9830 C   0  0  0  0  0  2  0  0  0  0  0  0
  191.2280  176.5410  144.6460 C   0  0  0  0  0  0  0  0  0  0  0  0
  187.7380  178.2830  148.1520 S   0  0  0  0  0  0  0  0  0  0  0  0
  187.3970  177.2610  144.2700 C   0  0  1  0  0  3  0  0  0  0  0  0
  186.1460  178.8310  147.4190 C   0  0  1  0  0  3  0  0  0  0  0  0
  192.0600  176.0010  145.7320 C   0  0  0  0  0  3  0  0  0  0  0  0
  191.6770  176.5480  143.4700 O   0  0  0  0  0  0  0  0  0  0  0  0
  187.9930  177.2390  146.7100 C   0  0  1  0  0  3  0  0  0  0  0  0
  191.5900  175.9350  146.9770 C   0  0  0  0  0  3  0  0  0  0  0  0
  189.8860  177.1550  144.9480 C   0  0  2  0  0  3  0  0  0  0  0  0
  187.3610  178.0280  145.5980 C   0  0  2  0  0  3  0  0  0  0  0  0
  186.0490  180.3420  147.4800 C   0  0  0  0  0  1  0  0  0  0  0  0
  186.0220  178.3800  146.0300 N   0  0  0  0  0  2  0  0  0  0  0  0
  190.2240  176.3800  147.3010 C   0  0  0  0  0  3  0  0  0  0  0  0
  189.4310  176.9470  146.3840 C   0  0  0  0  0  0  0  0  0  0  0  0
  186.8940  178.1550  143.1240 C   0  0  2  0  0  3  0  0  0  0  0  0
  184.9300  179.7170  143.5200 C   0  0  0  0  0  1  0  0  0  0  0  0
  185.3630  178.3230  143.0770 C   0  0  1  0  0  3  0  0  0  0  0  0
  183.2820  178.0620  141.7080 C   0  0  0  0  0  2  0  0  0  0  0  0
  185.1840  179.0030  140.6690 C   0  0  0  0  0  2  0  0  0  0  0  0
  184.7880  177.9730  141.6990 C   0  0  0  0  0  3  0  0  0  0  0  0
  182.8960  178.8960  140.5820 N   0  0  0  0  0  2  0  0  0  0  0  0
  183.9830  179.7470  140.3230 N   0  0  0  0  0  2  0  0  0  0  0  0
  187.4910  177.7860  141.7680 C   0  0  0  0  0  2  0  0  0  0  0  0
  188.6450  178.7140  141.4300 C   0  0  0  0  0  2  0  0  0  0  0  0
  189.3390  178.2490  140.1630 C   0  0  0  0  0  2  0  0  0  0  0  0
  188.3360  177.6230  139.2090 C   0  0  0  0  0  2  0  0  0  0  0  0
  186.8930  178.6250  137.6030 O   0  0  0  0  0  1  0  0  0  0  0  0
  188.0520  178.5590  138.0890 C   0  0  0  0  0  0  0  0  0  0  0  0
  189.0560  179.3840  137.6020 O   0  0  0  0  0  0  0  0  0  0  0  0
  1  4  1  0  0  0  0
  2 10  1  0  0  0  0
  2  6  1  0  0  0  0
  4 16  1  6  0  0  0
  4 11  1  0  0  0  0
  5 12  1  6  0  0  0
  5  3  1  0  0  0  0
  6  9  2  0  0  0  0
  7  2  2  0  0  0  0
  8 15  1  6  0  0  0
  8  3  1  0  0  0  0
  9 14  1  0  0  0  0
 10  1  1  6  0  0  0
 10 15  1  0  0  0  0
 11 13  1  1  0  0  0
 11  8  1  0  0  0  0
 13  5  1  0  0  0  0
 15 14  2  0  0  0  0
 16 24  1  6  0  0  0
 18 16  1  0  0  0  0
 18 17  1  6  0  0  0
 20 21  1  0  0  0  0
 21 19  1  0  0  0  0
 21 18  1  0  0  0  0
 22 19  1  0  0  0  0
 23 22  1  0  0  0  0
 23 20  1  0  0  0  0
 25 24  1  0  0  0  0
 26 25  1  0  0  0  0
 27 26  1  0  0  0  0
 28 29  1  0  0  0  0
 29 27  1  0  0  0  0
 30 29  2  0  0  0  0
M  END
>  <MODEL>
6

>  <REMARK>
 VINA RESULT:      -6.3      3.485      7.293
  Name = 
  8 active torsions:
  status: ('A' for Active; 'I' for Inactive)
    1  A    between atoms: C_4  and  C_13
    2  A    between atoms: C_7  and  C_15
    3  A    between atoms: C_7  and  C_16
    4  A    between atoms: C_8  and  C_12
    5  A    between atoms: C_8  and  C_13
    6  A    between atoms: C_13  and  C_27
    7  A    between atoms: C_16  and  C_30
    8  A    between atoms: C_27  and  C_30
                            x       y       z     vdW  Elec       q    Type
                         _______ _______ _______ _____ _____    ______ ____

>  <TORSDO>
F 8

$$$$
=
 OpenBabel10262421543D

 30 33  0  0  1  0  0  0  0  0999 V2000
  187.4730  178.4060  142.0050 C   0  0  0  0  0  2  0  0  0  0  0  0
  189.4170  176.9800  142.7470 C   0  0  0  0  0  0  0  0  0  0  0  0
  188.5150  177.5350  137.6100 S   0  0  0  0  0  0  0  0  0  0  0  0
  186.4810  178.7630  140.8640 C   0  0  1  0  0  3  0  0  0  0  0  0
  186.8190  178.1100  137.2030 C   0  0  1  0  0  3  0  0  0  0  0  0
  190.8570  176.8420  142.4870 C   0  0  0  0  0  3  0  0  0  0  0  0
  188.9760  176.7650  143.9070 O   0  0  0  0  0  0  0  0  0  0  0  0
  188.3320  178.2840  139.2350 C   0  0  1  0  0  3  0  0  0  0  0  0
  191.3570  177.1120  141.2810 C   0  0  0  0  0  3  0  0  0  0  0  0
  188.4660  177.2950  141.6220 C   0  0  2  0  0  3  0  0  0  0  0  0
  186.8710  178.1050  139.5340 C   0  0  2  0  0  3  0  0  0  0  0  0
  186.0240  176.9700  136.5990 C   0  0  0  0  0  1  0  0  0  0  0  0
  186.1340  178.6180  138.3960 N   0  0  0  0  0  2  0  0  0  0  0  0
  190.4910  177.5740  140.1830 C   0  0  0  0  0  3  0  0  0  0  0  0
  189.1620  177.6580  140.3200 C   0  0  0  0  0  0  0  0  0  0  0  0
  185.0240  178.4240  141.2210 C   0  0  2  0  0  3  0  0  0  0  0  0
  183.3840  177.0360  139.8660 C   0  0  0  0  0  1  0  0  0  0  0  0
  184.0680  178.3910  140.0140 C   0  0  1  0  0  3  0  0  0  0  0  0
  182.9220  180.2020  138.7170 C   0  0  0  0  0  2  0  0  0  0  0  0
  181.6500  178.9960  140.3010 C   0  0  0  0  0  2  0  0  0  0  0  0
  183.0410  179.5300  140.0620 C   0  0  0  0  0  3  0  0  0  0  0  0
  181.5080  180.2430  138.3830 N   0  0  0  0  0  2  0  0  0  0  0  0
  180.9040  179.1730  139.0640 N   0  0  0  0  0  2  0  0  0  0  0  0
  184.4820  179.2510  142.3840 C   0  0  0  0  0  2  0  0  0  0  0  0
  184.2680  178.3720  143.6030 C   0  0  0  0  0  2  0  0  0  0  0  0
  184.9260  178.9910  144.8220 C   0  0  0  0  0  2  0  0  0  0  0  0
  185.9830  178.0570  145.3850 C   0  0  0  0  0  2  0  0  0  0  0  0
  185.6970  179.3910  147.3360 O   0  0  0  0  0  0  0  0  0  0  0  0
  186.3540  178.4840  146.7600 C   0  0  0  0  0  0  0  0  0  0  0  0
  187.4020  177.8610  147.4220 O   0  0  0  0  0  1  0  0  0  0  0  0
  2  7  2  0  0  0  0
  4 16  1  1  0  0  0
  4  1  1  0  0  0  0
  5 12  1  1  0  0  0
  5  3  1  0  0  0  0
  5 13  1  0  0  0  0
  6  2  1  0  0  0  0
  8  3  1  6  0  0  0
  8 11  1  0  0  0  0
  8 15  1  0  0  0  0
  9  6  2  0  0  0  0
 10  1  1  1  0  0  0
 10  2  1  0  0  0  0
 11 13  1  6  0  0  0
 11  4  1  0  0  0  0
 14 15  2  0  0  0  0
 14  9  1  0  0  0  0
 15 10  1  0  0  0  0
 16 24  1  1  0  0  0
 18 17  1  1  0  0  0
 18 21  1  0  0  0  0
 18 16  1  0  0  0  0
 19 21  1  0  0  0  0
 21 20  1  0  0  0  0
 22 19  1  0  0  0  0
 22 23  1  0  0  0  0
 23 20  1  0  0  0  0
 24 25  1  0  0  0  0
 25 26  1  0  0  0  0
 26 27  1  0  0  0  0
 27 29  1  0  0  0  0
 29 28  2  0  0  0  0
 29 30  1  0  0  0  0
M  END
>  <MODEL>
7

>  <REMARK>
 VINA RESULT:      -6.3      3.281      6.006
  Name = 
  8 active torsions:
  status: ('A' for Active; 'I' for Inactive)
    1  A    between atoms: C_4  and  C_13
    2  A    between atoms: C_7  and  C_15
    3  A    between atoms: C_7  and  C_16
    4  A    between atoms: C_8  and  C_12
    5  A    between atoms: C_8  and  C_13
    6  A    between atoms: C_13  and  C_27
    7  A    between atoms: C_16  and  C_30
    8  A    between atoms: C_27  and  C_30
                            x       y       z     vdW  Elec       q    Type
                         _______ _______ _______ _____ _____    ______ ____

>  <TORSDO>
F 8

$$$$
=
 OpenBabel10262421543D

 30 33  0  0  1  0  0  0  0  0999 V2000
  186.6190  177.5660  142.2180 C   0  0  0  0  0  2  0  0  0  0  0  0
  185.3550  179.0970  140.6620 C   0  0  0  0  0  0  0  0  0  0  0  0
  190.1010  177.3940  139.2170 S   0  0  0  0  0  0  0  0  0  0  0  0
  187.9950  176.9720  142.6250 C   0  0  1  0  0  3  0  0  0  0  0  0
  191.1280  176.7650  140.6030 C   0  0  1  0  0  3  0  0  0  0  0  0
  184.9380  179.1510  139.2530 C   0  0  0  0  0  3  0  0  0  0  0  0
  184.6010  179.5770  141.5480 O   0  0  0  0  0  0  0  0  0  0  0  0
  188.6360  177.0390  140.1970 C   0  0  1  0  0  3  0  0  0  0  0  0
  185.6930  178.6060  138.3010 C   0  0  0  0  0  3  0  0  0  0  0  0
  186.7070  178.5470  141.0360 C   0  0  2  0  0  3  0  0  0  0  0  0
  189.0920  177.3030  141.6050 C   0  0  2  0  0  3  0  0  0  0  0  0
  192.2420  177.7490  140.9000 C   0  0  0  0  0  1  0  0  0  0  0  0
  190.3170  176.5540  141.8060 N   0  0  0  0  0  2  0  0  0  0  0  0
  186.9540  177.9170  138.6280 C   0  0  0  0  0  3  0  0  0  0  0  0
  187.4360  177.8850  139.8770 C   0  0  0  0  0  0  0  0  0  0  0  0
  188.4310  177.4040  144.0350 C   0  0  2  0  0  3  0  0  0  0  0  0
  187.9000  176.7360  146.4280 C   0  0  0  0  0  1  0  0  0  0  0  0
  187.3370  177.2570  145.1100 C   0  0  1  0  0  3  0  0  0  0  0  0
  185.1420  178.4240  144.8000 C   0  0  0  0  0  2  0  0  0  0  0  0
  186.3550  178.8480  146.7840 C   0  0  0  0  0  2  0  0  0  0  0  0
  186.5540  178.5600  145.3150 C   0  0  0  0  0  3  0  0  0  0  0  0
  184.2550  178.8600  145.8660 N   0  0  0  0  0  2  0  0  0  0  0  0
  184.9430  178.6490  147.0720 N   0  0  0  0  0  2  0  0  0  0  0  0
  189.1080  178.7720  144.0630 C   0  0  0  0  0  2  0  0  0  0  0  0
  190.5970  178.6200  144.3190 C   0  0  0  0  0  2  0  0  0  0  0  0
  190.8340  177.9120  145.6400 C   0  0  0  0  0  2  0  0  0  0  0  0
  191.6590  176.6550  145.4260 C   0  0  0  0  0  2  0  0  0  0  0  0
  192.5270  174.9190  146.8050 O   0  0  0  0  0  0  0  0  0  0  0  0
  192.0660  176.0890  146.7390 C   0  0  0  0  0  0  0  0  0  0  0  0
  191.9710  176.8610  147.8890 O   0  0  0  0  0  1  0  0  0  0  0  0
  1  4  1  0  0  0  0
  2 10  1  0  0  0  0
  2  7  2  0  0  0  0
  3  5  1  0  0  0  0
  4 16  1  1  0  0  0
  5 12  1  1  0  0  0
  5 13  1  0  0  0  0
  6  2  1  0  0  0  0
  8  3  1  6  0  0  0
  8 11  1  0  0  0  0
  9 14  1  0  0  0  0
  9  6  2  0  0  0  0
 10  1  1  1  0  0  0
 11 13  1  1  0  0  0
 11  4  1  0  0  0  0
 14 15  2  0  0  0  0
 15  8  1  0  0  0  0
 15 10  1  0  0  0  0
 16 24  1  6  0  0  0
 16 18  1  0  0  0  0
 18 21  1  0  0  0  0
 18 17  1  1  0  0  0
 19 21  1  0  0  0  0
 19 22  1  0  0  0  0
 20 23  1  0  0  0  0
 21 20  1  0  0  0  0
 22 23  1  0  0  0  0
 24 25  1  0  0  0  0
 25 26  1  0  0  0  0
 27 26  1  0  0  0  0
 27 29  1  0  0  0  0
 29 28  2  0  0  0  0
 29 30  1  0  0  0  0
M  END
>  <MODEL>
8

>  <REMARK>
 VINA RESULT:      -6.3      3.008      5.292
  Name = 
  8 active torsions:
  status: ('A' for Active; 'I' for Inactive)
    1  A    between atoms: C_4  and  C_13
    2  A    between atoms: C_7  and  C_15
    3  A    between atoms: C_7  and  C_16
    4  A    between atoms: C_8  and  C_12
    5  A    between atoms: C_8  and  C_13
    6  A    between atoms: C_13  and  C_27
    7  A    between atoms: C_16  and  C_30
    8  A    between atoms: C_27  and  C_30
                            x       y       z     vdW  Elec       q    Type
                         _______ _______ _______ _____ _____    ______ ____

>  <TORSDO>
F 8

$$$$
=
 OpenBabel10262421543D

 30 33  0  0  1  0  0  0  0  0999 V2000
  183.7810  177.8750  141.2570 C   0  0  0  0  0  2  0  0  0  0  0  0
  185.1650  178.7740  143.1650 C   0  0  0  0  0  0  0  0  0  0  0  0
  180.1010  180.1090  142.8790 S   0  0  0  0  0  0  0  0  0  0  0  0
  182.4960  178.0260  140.3980 C   0  0  1  0  0  3  0  0  0  0  0  0
  179.3530  179.8670  141.2190 C   0  0  1  0  0  3  0  0  0  0  0  0
  185.1130  178.8610  144.6310 C   0  0  0  0  0  3  0  0  0  0  0  0
  186.2770  178.6160  142.5950 O   0  0  0  0  0  0  0  0  0  0  0  0
  181.3300  178.8660  142.4580 C   0  0  1  0  0  3  0  0  0  0  0  0
  183.9450  178.9790  145.2620 C   0  0  0  0  0  3  0  0  0  0  0  0
  183.9140  178.9550  142.3450 C   0  0  2  0  0  3  0  0  0  0  0  0
  181.5290  179.0640  140.9820 C   0  0  2  0  0  3  0  0  0  0  0  0
  179.1150  181.2130  140.5650 C   0  0  0  0  0  1  0  0  0  0  0  0
  180.2160  179.0440  140.3670 N   0  0  0  0  0  2  0  0  0  0  0  0
  182.6750  179.0050  144.5170 C   0  0  0  0  0  3  0  0  0  0  0  0
  182.6430  179.0010  143.1780 C   0  0  0  0  0  0  0  0  0  0  0  0
  182.8040  178.3530  138.9270 C   0  0  2  0  0  3  0  0  0  0  0  0
  182.0010  175.9630  138.6160 C   0  0  0  0  0  1  0  0  0  0  0  0
  182.3230  177.2850  137.9260 C   0  0  1  0  0  3  0  0  0  0  0  0
  181.1190  179.2840  137.0160 C   0  0  0  0  0  2  0  0  0  0  0  0
  181.2970  177.3720  135.6390 C   0  0  0  0  0  2  0  0  0  0  0  0
  181.1400  177.7770  137.0850 C   0  0  0  0  0  3  0  0  0  0  0  0
  181.0170  179.6470  135.6120 N   0  0  0  0  0  2  0  0  0  0  0  0
  181.5720  178.5830  134.8820 N   0  0  0  0  0  2  0  0  0  0  0  0
  184.2550  178.7710  138.6960 C   0  0  0  0  0  2  0  0  0  0  0  0
  184.9060  177.8670  137.6640 C   0  0  0  0  0  2  0  0  0  0  0  0
  186.4120  178.0540  137.6770 C   0  0  0  0  0  2  0  0  0  0  0  0
  186.9090  178.2520  139.0990 C   0  0  0  0  0  2  0  0  0  0  0  0
  189.0450  179.1520  138.5570 O   0  0  0  0  0  0  0  0  0  0  0  0
  188.3950  178.2330  139.1210 C   0  0  0  0  0  0  0  0  0  0  0  0
  189.0670  177.2220  139.7930 O   0  0  0  0  0  1  0  0  0  0  0  0
  2  6  1  0  0  0  0
  4 16  1  6  0  0  0
  4 11  1  0  0  0  0
  4  1  1  0  0  0  0
  5 12  1  6  0  0  0
  5  3  1  0  0  0  0
  6  9  2  0  0  0  0
  7  2  2  0  0  0  0
  8  3  1  1  0  0  0
  8 15  1  0  0  0  0
 10  1  1  6  0  0  0
 10  2  1  0  0  0  0
 10 15  1  0  0  0  0
 11 13  1  6  0  0  0
 11  8  1  0  0  0  0
 13  5  1  0  0  0  0
 14  9  1  0  0  0  0
 15 14  2  0  0  0  0
 16 24  1  1  0  0  0
 18 17  1  1  0  0  0
 18 16  1  0  0  0  0
 19 21  1  0  0  0  0
 20 21  1  0  0  0  0
 21 18  1  0  0  0  0
 22 19  1  0  0  0  0
 23 22  1  0  0  0  0
 23 20  1  0  0  0  0
 25 26  1  0  0  0  0
 25 24  1  0  0  0  0
 26 27  1  0  0  0  0
 27 29  1  0  0  0  0
 28 29  2  0  0  0  0
 29 30  1  0  0  0  0
M  END
>  <MODEL>
9

>  <REMARK>
 VINA RESULT:      -6.3      4.966      8.956
  Name = 
  8 active torsions:
  status: ('A' for Active; 'I' for Inactive)
    1  A    between atoms: C_4  and  C_13
    2  A    between atoms: C_7  and  C_15
    3  A    between atoms: C_7  and  C_16
    4  A    between atoms: C_8  and  C_12
    5  A    between atoms: C_8  and  C_13
    6  A    between atoms: C_13  and  C_27
    7  A    between atoms: C_16  and  C_30
    8  A    between atoms: C_27  and  C_30
                            x       y       z     vdW  Elec       q    Type
                         _______ _______ _______ _____ _____    ______ ____

>  <TORSDO>
F 8

$$$$
