=
 OpenBabel10262420083D

 27 31  0  0  1  0  0  0  0  0999 V2000
  188.8090  176.6340  140.8670 O   0  0  0  0  0  0  0  0  0  0  0  0
  189.4070  177.7480  137.6830 C   0  0  0  0  0  3  0  0  0  0  0  0
  190.5980  177.1490  137.5650 C   0  0  0  0  0  3  0  0  0  0  0  0
  189.1280  177.8070  141.5890 C   0  0  2  0  0  0  0  0  0  0  0  0
  189.6060  177.5890  140.1970 C   0  0  1  0  0  0  0  0  0  0  0  0
  187.5080  178.0420  139.0510 F   0  0  0  0  0  0  0  0  0  0  0  0
  191.4460  176.8720  138.7380 C   0  0  0  0  0  3  0  0  0  0  0  0
  191.0020  177.0830  139.9770 C   0  0  0  0  0  3  0  0  0  0  0  0
  188.8780  178.2410  139.0040 C   0  0  2  0  0  3  0  0  0  0  0  0
  191.6870  177.1840  144.9910 C   0  0  0  0  0  3  0  0  0  0  0  0
  190.0440  177.5810  142.7580 C   0  0  0  0  0  0  0  0  0  0  0  0
  190.5760  178.6800  143.4430 C   0  0  0  0  0  3  0  0  0  0  0  0
  191.3990  178.4810  144.5560 C   0  0  0  0  0  3  0  0  0  0  0  0
  191.1490  176.0840  144.3150 C   0  0  0  0  0  3  0  0  0  0  0  0
  190.3260  176.2820  143.2030 C   0  0  0  0  0  3  0  0  0  0  0  0
  187.9800  178.6960  141.7620 N   0  0  0  0  0  2  0  0  0  0  0  0
  185.5790  178.5150  141.3560 C   0  0  0  0  0  3  0  0  0  0  0  0
  186.7530  177.7000  145.8660 C   0  0  0  0  0  3  0  0  0  0  0  0
  185.0670  178.5280  147.3880 O   0  0  0  0  0  1  0  0  0  0  0  0
  186.7970  177.8960  142.0540 C   0  0  2  0  0  3  0  0  0  0  0  0
  184.7730  178.8220  145.0000 C   0  0  0  0  0  0  0  0  0  0  0  0
  183.5570  179.4660  145.2050 O   0  0  0  0  0  1  0  0  0  0  0  0
  185.2680  178.6290  143.7070 C   0  0  0  0  0  0  0  0  0  0  0  0
  185.5270  178.3520  146.0880 C   0  0  0  0  0  0  0  0  0  0  0  0
  186.4660  177.9970  143.4940 C   0  0  0  0  0  0  0  0  0  0  0  0
  184.6250  179.0380  142.4400 C   0  0  0  0  0  3  0  0  0  0  0  0
  187.2310  177.5180  144.5610 C   0  0  0  0  0  3  0  0  0  0  0  0
  1  4  1  0  0  0  0
  2  9  1  0  0  0  0
  3  2  2  0  0  0  0
  3  7  1  0  0  0  0
  4 16  1  1  0  0  0
  4 11  1  0  0  0  0
  5  8  1  6  0  0  0
  5  1  1  0  0  0  0
  5  4  1  0  0  0  0
  7  8  2  0  0  0  0
  9  6  1  1  0  0  0
  9  5  1  0  0  0  0
 11 15  2  0  0  0  0
 11 12  1  0  0  0  0
 12 13  2  0  0  0  0
 13 10  1  0  0  0  0
 14 10  2  0  0  0  0
 15 14  1  0  0  0  0
 17 20  1  0  0  0  0
 17 26  2  0  0  0  0
 18 24  1  0  0  0  0
 20 16  1  1  0  0  0
 20 25  1  0  0  0  0
 21 22  1  0  0  0  0
 21 24  2  0  0  0  0
 23 21  1  0  0  0  0
 24 19  1  0  0  0  0
 25 23  2  0  0  0  0
 25 27  1  0  0  0  0
 26 23  1  0  0  0  0
 27 18  2  0  0  0  0
M  END
>  <MODEL>
1

>  <REMARK>
 VINA RESULT:      -9.4      0.000      0.000
  Name = 
  3 active torsions:
  status: ('A' for Active; 'I' for Inactive)
    1  A    between atoms: N_2  and  C_6
    2  A    between atoms: N_2  and  C_15
    3  A    between atoms: C_9  and  C_15
                            x       y       z     vdW  Elec       q    Type
                         _______ _______ _______ _____ _____    ______ ____

>  <TORSDO>
F 3

$$$$
=
 OpenBabel10262420083D

 27 31  0  0  1  0  0  0  0  0999 V2000
  188.9380  178.5600  144.9100 O   0  0  0  0  0  0  0  0  0  0  0  0
  189.9920  176.7280  147.6060 C   0  0  0  0  0  3  0  0  0  0  0  0
  191.2710  176.6640  147.2180 C   0  0  0  0  0  3  0  0  0  0  0  0
  188.3360  177.5310  144.1490 C   0  0  2  0  0  0  0  0  0  0  0  0
  189.3230  177.2370  145.2230 C   0  0  1  0  0  0  0  0  0  0  0  0
  187.8610  177.6200  147.1300 F   0  0  0  0  0  0  0  0  0  0  0  0
  191.6540  176.7210  145.7950 C   0  0  0  0  0  3  0  0  0  0  0  0
  190.7530  176.9770  144.8470 C   0  0  0  0  0  3  0  0  0  0  0  0
  188.8520  176.7960  146.6240 C   0  0  2  0  0  3  0  0  0  0  0  0
  189.5790  177.5330  140.0300 C   0  0  0  0  0  3  0  0  0  0  0  0
  188.7480  177.5120  142.7050 C   0  0  0  0  0  0  0  0  0  0  0  0
  188.4590  178.6110  141.8870 C   0  0  0  0  0  3  0  0  0  0  0  0
  188.8710  178.6200  140.5520 C   0  0  0  0  0  3  0  0  0  0  0  0
  189.8780  176.4370  140.8460 C   0  0  0  0  0  3  0  0  0  0  0  0
  189.4670  176.4280  142.1820 C   0  0  0  0  0  3  0  0  0  0  0  0
  186.9240  177.3350  144.4760 N   0  0  0  0  0  2  0  0  0  0  0  0
  185.5420  178.8520  145.7990 C   0  0  0  0  0  3  0  0  0  0  0  0
  184.0820  178.4630  141.3160 C   0  0  0  0  0  3  0  0  0  0  0  0
  181.6730  178.5720  141.1520 O   0  0  0  0  0  1  0  0  0  0  0  0
  186.2470  178.6260  144.4550 C   0  0  2  0  0  3  0  0  0  0  0  0
  182.7320  178.7110  143.3280 C   0  0  0  0  0  0  0  0  0  0  0  0
  181.4950  178.8320  143.9500 O   0  0  0  0  0  1  0  0  0  0  0  0
  183.9110  178.7150  144.0800 C   0  0  0  0  0  0  0  0  0  0  0  0
  182.8240  178.5820  141.9310 C   0  0  0  0  0  0  0  0  0  0  0  0
  185.1360  178.5940  143.4760 C   0  0  0  0  0  0  0  0  0  0  0  0
  184.0270  178.8490  145.5470 C   0  0  0  0  0  3  0  0  0  0  0  0
  185.2510  178.4690  142.0890 C   0  0  0  0  0  3  0  0  0  0  0  0
  1  5  1  0  0  0  0
  3  2  2  0  0  0  0
  4 16  1  1  0  0  0
  4  1  1  0  0  0  0
  4  5  1  0  0  0  0
  5  8  1  6  0  0  0
  5  9  1  0  0  0  0
  7  3  1  0  0  0  0
  8  7  2  0  0  0  0
  9  6  1  1  0  0  0
  9  2  1  0  0  0  0
 10 13  2  0  0  0  0
 10 14  1  0  0  0  0
 11  4  1  0  0  0  0
 12 11  2  0  0  0  0
 13 12  1  0  0  0  0
 14 15  2  0  0  0  0
 15 11  1  0  0  0  0
 18 24  2  0  0  0  0
 18 27  1  0  0  0  0
 19 24  1  0  0  0  0
 20 16  1  1  0  0  0
 20 17  1  0  0  0  0
 21 22  1  0  0  0  0
 21 23  2  0  0  0  0
 23 26  1  0  0  0  0
 24 21  1  0  0  0  0
 25 23  1  0  0  0  0
 25 20  1  0  0  0  0
 26 17  2  0  0  0  0
 27 25  2  0  0  0  0
M  END
>  <MODEL>
2

>  <REMARK>
 VINA RESULT:      -8.6      2.547      5.093
  Name = 
  3 active torsions:
  status: ('A' for Active; 'I' for Inactive)
    1  A    between atoms: N_2  and  C_6
    2  A    between atoms: N_2  and  C_15
    3  A    between atoms: C_9  and  C_15
                            x       y       z     vdW  Elec       q    Type
                         _______ _______ _______ _____ _____    ______ ____

>  <TORSDO>
F 3

$$$$
=
 OpenBabel10262420083D

 27 31  0  0  1  0  0  0  0  0999 V2000
  184.8330  179.5880  142.9480 O   0  0  0  0  0  0  0  0  0  0  0  0
  181.8740  178.5960  141.5350 C   0  0  0  0  0  3  0  0  0  0  0  0
  181.1140  178.9660  142.5710 C   0  0  0  0  0  3  0  0  0  0  0  0
  185.3260  178.3290  143.3640 C   0  0  2  0  0  0  0  0  0  0  0  0
  183.8860  178.5460  143.0630 C   0  0  1  0  0  0  0  0  0  0  0  0
  184.0560  178.5760  140.6360 F   0  0  0  0  0  0  0  0  0  0  0  0
  181.6400  178.9980  143.9480 C   0  0  0  0  0  3  0  0  0  0  0  0
  182.9330  178.7920  144.1970 C   0  0  0  0  0  3  0  0  0  0  0  0
  183.2950  178.1250  141.7020 C   0  0  2  0  0  3  0  0  0  0  0  0
  186.8090  178.2650  147.4030 C   0  0  0  0  0  3  0  0  0  0  0  0
  185.8160  178.2980  144.7840 C   0  0  0  0  0  0  0  0  0  0  0  0
  186.6470  177.2540  145.2080 C   0  0  0  0  0  3  0  0  0  0  0  0
  187.1390  177.2360  146.5160 C   0  0  0  0  0  3  0  0  0  0  0  0
  185.9870  179.3150  146.9810 C   0  0  0  0  0  3  0  0  0  0  0  0
  185.4950  179.3340  145.6730 C   0  0  0  0  0  3  0  0  0  0  0  0
  186.1250  177.6640  142.3350 N   0  0  0  0  0  2  0  0  0  0  0  0
  186.9090  178.5860  140.2150 C   0  0  0  0  0  3  0  0  0  0  0  0
  190.4220  177.7290  143.2640 C   0  0  0  0  0  3  0  0  0  0  0  0
  192.4210  176.9780  142.1310 O   0  0  0  0  0  1  0  0  0  0  0  0
  187.0400  178.6310  141.7430 C   0  0  2  0  0  3  0  0  0  0  0  0
  190.4280  177.4720  140.8430 C   0  0  0  0  0  0  0  0  0  0  0  0
  191.0820  177.1450  139.6600 O   0  0  0  0  0  1  0  0  0  0  0  0
  189.0940  177.8900  140.8270 C   0  0  0  0  0  0  0  0  0  0  0  0
  191.0950  177.3910  142.0770 C   0  0  0  0  0  0  0  0  0  0  0  0
  188.4400  178.2130  141.9880 C   0  0  0  0  0  0  0  0  0  0  0  0
  188.2270  178.0480  139.6400 C   0  0  0  0  0  3  0  0  0  0  0  0
  189.0840  178.1440  143.2260 C   0  0  0  0  0  3  0  0  0  0  0  0
  1  5  1  0  0  0  0
  1  4  1  0  0  0  0
  2  9  1  0  0  0  0
  2  3  2  0  0  0  0
  3  7  1  0  0  0  0
  4 16  1  6  0  0  0
  4 11  1  0  0  0  0
  5  4  1  0  0  0  0
  5  8  1  1  0  0  0
  7  8  2  0  0  0  0
  9  6  1  6  0  0  0
  9  5  1  0  0  0  0
 11 12  2  0  0  0  0
 11 15  1  0  0  0  0
 12 13  1  0  0  0  0
 13 10  2  0  0  0  0
 14 10  1  0  0  0  0
 15 14  2  0  0  0  0
 17 20  1  0  0  0  0
 20 25  1  0  0  0  0
 20 16  1  1  0  0  0
 21 24  1  0  0  0  0
 22 21  1  0  0  0  0
 23 21  2  0  0  0  0
 23 25  1  0  0  0  0
 24 19  1  0  0  0  0
 24 18  2  0  0  0  0
 25 27  2  0  0  0  0
 26 17  2  0  0  0  0
 26 23  1  0  0  0  0
 27 18  1  0  0  0  0
M  END
>  <MODEL>
3

>  <REMARK>
 VINA RESULT:      -8.3      1.996      6.349
  Name = 
  3 active torsions:
  status: ('A' for Active; 'I' for Inactive)
    1  A    between atoms: N_2  and  C_6
    2  A    between atoms: N_2  and  C_15
    3  A    between atoms: C_9  and  C_15
                            x       y       z     vdW  Elec       q    Type
                         _______ _______ _______ _____ _____    ______ ____

>  <TORSDO>
F 3

$$$$
=
 OpenBabel10262420083D

 27 31  0  0  1  0  0  0  0  0999 V2000
  187.5820  176.6800  144.9870 O   0  0  0  0  0  0  0  0  0  0  0  0
  189.6290  177.6750  147.5480 C   0  0  0  0  0  3  0  0  0  0  0  0
  188.6590  177.7210  148.4680 C   0  0  0  0  0  3  0  0  0  0  0  0
  187.4270  177.9170  144.3190 C   0  0  2  0  0  0  0  0  0  0  0  0
  187.8770  177.8430  145.7340 C   0  0  1  0  0  0  0  0  0  0  0  0
  190.1630  177.1230  145.3170 F   0  0  0  0  0  0  0  0  0  0  0  0
  187.2560  177.9900  148.1050 C   0  0  0  0  0  3  0  0  0  0  0  0
  186.8750  178.0610  146.8310 C   0  0  0  0  0  3  0  0  0  0  0  0
  189.3730  177.9570  146.0910 C   0  0  2  0  0  3  0  0  0  0  0  0
  183.3740  178.9890  143.3490 C   0  0  0  0  0  3  0  0  0  0  0  0
  186.0030  178.2620  143.9850 C   0  0  0  0  0  0  0  0  0  0  0  0
  185.2330  178.9890  144.9010 C   0  0  0  0  0  3  0  0  0  0  0  0
  183.9200  179.3490  144.5840 C   0  0  0  0  0  3  0  0  0  0  0  0
  184.1430  178.2720  142.4270 C   0  0  0  0  0  3  0  0  0  0  0  0
  185.4560  177.9120  142.7420 C   0  0  0  0  0  3  0  0  0  0  0  0
  188.4570  178.1480  143.3070 N   0  0  0  0  0  2  0  0  0  0  0  0
  189.8460  176.2290  142.7150 C   0  0  0  0  0  3  0  0  0  0  0  0
  188.0320  178.4300  138.9390 C   0  0  0  0  0  3  0  0  0  0  0  0
  189.5700  178.4110  137.0740 O   0  0  0  0  0  1  0  0  0  0  0  0
  188.5390  176.9830  142.4350 C   0  0  2  0  0  3  0  0  0  0  0  0
  190.2200  177.3860  139.1730 C   0  0  0  0  0  0  0  0  0  0  0  0
  191.4540  177.0270  138.6430 O   0  0  0  0  0  1  0  0  0  0  0  0
  189.8920  177.0670  140.4940 C   0  0  0  0  0  0  0  0  0  0  0  0
  189.2770  178.0760  138.3910 C   0  0  0  0  0  0  0  0  0  0  0  0
  188.6790  177.4200  141.0270 C   0  0  0  0  0  0  0  0  0  0  0  0
  190.7360  176.3430  141.4680 C   0  0  0  0  0  3  0  0  0  0  0  0
  187.7250  178.1010  140.2670 C   0  0  0  0  0  3  0  0  0  0  0  0
  1  5  1  0  0  0  0
  2  3  2  0  0  0  0
  4 16  1  6  0  0  0
  4  1  1  0  0  0  0
  4  5  1  0  0  0  0
  5  9  1  0  0  0  0
  5  8  1  1  0  0  0
  7  3  1  0  0  0  0
  8  7  2  0  0  0  0
  9  6  1  6  0  0  0
  9  2  1  0  0  0  0
 10 13  1  0  0  0  0
 11  4  1  0  0  0  0
 11 12  1  0  0  0  0
 13 12  2  0  0  0  0
 14 15  1  0  0  0  0
 14 10  2  0  0  0  0
 15 11  2  0  0  0  0
 18 27  1  0  0  0  0
 19 24  1  0  0  0  0
 20 17  1  0  0  0  0
 20 16  1  1  0  0  0
 21 23  2  0  0  0  0
 22 21  1  0  0  0  0
 23 25  1  0  0  0  0
 23 26  1  0  0  0  0
 24 18  2  0  0  0  0
 24 21  1  0  0  0  0
 25 20  1  0  0  0  0
 26 17  2  0  0  0  0
 27 25  2  0  0  0  0
M  END
>  <MODEL>
4

>  <REMARK>
 VINA RESULT:      -8.0      2.360      7.166
  Name = 
  3 active torsions:
  status: ('A' for Active; 'I' for Inactive)
    1  A    between atoms: N_2  and  C_6
    2  A    between atoms: N_2  and  C_15
    3  A    between atoms: C_9  and  C_15
                            x       y       z     vdW  Elec       q    Type
                         _______ _______ _______ _____ _____    ______ ____

>  <TORSDO>
F 3

$$$$
=
 OpenBabel10262420083D

 27 31  0  0  1  0  0  0  0  0999 V2000
  187.3880  179.0730  144.0690 O   0  0  0  0  0  0  0  0  0  0  0  0
  184.8190  178.4370  146.2440 C   0  0  0  0  0  3  0  0  0  0  0  0
  185.5890  178.4100  147.3380 C   0  0  0  0  0  3  0  0  0  0  0  0
  187.5690  177.7750  143.5360 C   0  0  2  0  0  0  0  0  0  0  0  0
  186.8650  178.0010  144.8260 C   0  0  1  0  0  0  0  0  0  0  0  0
  184.7640  178.8250  143.9180 F   0  0  0  0  0  0  0  0  0  0  0  0
  187.0100  178.0230  147.2780 C   0  0  0  0  0  3  0  0  0  0  0  0
  187.6200  177.8160  146.1110 C   0  0  0  0  0  3  0  0  0  0  0  0
  185.3240  178.0130  144.8900 C   0  0  2  0  0  3  0  0  0  0  0  0
  191.6590  176.4470  143.3840 C   0  0  0  0  0  3  0  0  0  0  0  0
  188.9980  177.3120  143.5140 C   0  0  0  0  0  0  0  0  0  0  0  0
  189.2890  175.9770  143.2090 C   0  0  0  0  0  3  0  0  0  0  0  0
  190.6170  175.5450  143.1480 C   0  0  0  0  0  3  0  0  0  0  0  0
  191.3720  177.7840  143.6800 C   0  0  0  0  0  3  0  0  0  0  0  0
  190.0450  178.2170  143.7400 C   0  0  0  0  0  3  0  0  0  0  0  0
  186.7350  177.5230  142.3620 N   0  0  0  0  0  2  0  0  0  0  0  0
  185.4270  178.9920  140.9160 C   0  0  0  0  0  3  0  0  0  0  0  0
  189.5100  177.6290  138.9530 C   0  0  0  0  0  3  0  0  0  0  0  0
  189.2890  177.3140  136.5660 O   0  0  0  0  0  1  0  0  0  0  0  0
  186.8240  178.6640  141.4590 C   0  0  2  0  0  3  0  0  0  0  0  0
  187.3580  177.9840  137.8700 C   0  0  0  0  0  0  0  0  0  0  0  0
  186.5640  178.0040  136.7280 O   0  0  0  0  0  1  0  0  0  0  0  0
  186.8180  178.3070  139.1190 C   0  0  0  0  0  0  0  0  0  0  0  0
  188.7190  177.6410  137.7910 C   0  0  0  0  0  0  0  0  0  0  0  0
  187.5920  178.2880  140.2500 C   0  0  0  0  0  0  0  0  0  0  0  0
  185.4230  178.7000  139.4080 C   0  0  0  0  0  3  0  0  0  0  0  0
  188.9480  177.9540  140.1950 C   0  0  0  0  0  3  0  0  0  0  0  0
  1  5  1  0  0  0  0
  2  3  2  0  0  0  0
  4 16  1  6  0  0  0
  4  1  1  0  0  0  0
  4  5  1  0  0  0  0
  5  9  1  0  0  0  0
  5  8  1  1  0  0  0
  7  3  1  0  0  0  0
  8  7  2  0  0  0  0
  9  6  1  6  0  0  0
  9  2  1  0  0  0  0
 10 14  1  0  0  0  0
 11  4  1  0  0  0  0
 11 15  1  0  0  0  0
 12 11  2  0  0  0  0
 13 12  1  0  0  0  0
 13 10  2  0  0  0  0
 14 15  2  0  0  0  0
 17 20  1  0  0  0  0
 18 27  1  0  0  0  0
 19 24  1  0  0  0  0
 20 16  1  1  0  0  0
 21 23  2  0  0  0  0
 22 21  1  0  0  0  0
 23 26  1  0  0  0  0
 23 25  1  0  0  0  0
 24 21  1  0  0  0  0
 24 18  2  0  0  0  0
 25 20  1  0  0  0  0
 26 17  2  0  0  0  0
 27 25  2  0  0  0  0
M  END
>  <MODEL>
5

>  <REMARK>
 VINA RESULT:      -7.9      2.169      6.118
  Name = 
  3 active torsions:
  status: ('A' for Active; 'I' for Inactive)
    1  A    between atoms: N_2  and  C_6
    2  A    between atoms: N_2  and  C_15
    3  A    between atoms: C_9  and  C_15
                            x       y       z     vdW  Elec       q    Type
                         _______ _______ _______ _____ _____    ______ ____

>  <TORSDO>
F 3

$$$$
=
 OpenBabel10262420083D

 27 31  0  0  1  0  0  0  0  0999 V2000
  187.9990  178.8880  145.4270 O   0  0  0  0  0  0  0  0  0  0  0  0
  187.9260  177.8780  148.7000 C   0  0  0  0  0  3  0  0  0  0  0  0
  189.2550  177.8610  148.8520 C   0  0  0  0  0  3  0  0  0  0  0  0
  187.7490  177.6490  144.7950 C   0  0  2  0  0  0  0  0  0  0  0  0
  188.2380  177.7280  146.1970 C   0  0  1  0  0  0  0  0  0  0  0  0
  186.1450  178.3950  147.2420 F   0  0  0  0  0  0  0  0  0  0  0  0
  190.1630  177.6180  147.7170 C   0  0  0  0  0  3  0  0  0  0  0  0
  189.7030  177.5410  146.4690 C   0  0  0  0  0  3  0  0  0  0  0  0
  187.2600  177.5860  147.3810 C   0  0  2  0  0  3  0  0  0  0  0  0
  190.5200  176.7480  141.6290 C   0  0  0  0  0  3  0  0  0  0  0  0
  188.6920  177.3290  143.6700 C   0  0  0  0  0  0  0  0  0  0  0  0
  189.4160  178.3610  143.0590 C   0  0  0  0  0  3  0  0  0  0  0  0
  190.3260  178.0700  142.0380 C   0  0  0  0  0  3  0  0  0  0  0  0
  189.8060  175.7140  142.2430 C   0  0  0  0  0  3  0  0  0  0  0  0
  188.8970  176.0030  143.2650 C   0  0  0  0  0  3  0  0  0  0  0  0
  186.3230  177.3860  144.6060 N   0  0  0  0  0  2  0  0  0  0  0  0
  184.3120  178.7040  145.0290 C   0  0  0  0  0  3  0  0  0  0  0  0
  185.5400  178.6290  140.4610 C   0  0  0  0  0  3  0  0  0  0  0  0
  183.6010  178.6210  139.0170 O   0  0  0  0  0  1  0  0  0  0  0  0
  185.6470  178.6350  144.2760 C   0  0  2  0  0  3  0  0  0  0  0  0
  183.3030  178.6270  141.4230 C   0  0  0  0  0  0  0  0  0  0  0  0
  181.9210  178.6270  141.2760 O   0  0  0  0  0  1  0  0  0  0  0  0
  183.8850  178.6300  142.6950 C   0  0  0  0  0  0  0  0  0  0  0  0
  184.1440  178.6250  140.2970 C   0  0  0  0  0  0  0  0  0  0  0  0
  185.2470  178.6270  142.8500 C   0  0  0  0  0  0  0  0  0  0  0  0
  183.1790  178.6410  143.9940 C   0  0  0  0  0  3  0  0  0  0  0  0
  186.1020  178.6310  141.7450 C   0  0  0  0  0  3  0  0  0  0  0  0
  1  5  1  0  0  0  0
  2  3  2  0  0  0  0
  4 16  1  6  0  0  0
  4  1  1  0  0  0  0
  4  5  1  0  0  0  0
  5  8  1  1  0  0  0
  5  9  1  0  0  0  0
  7  3  1  0  0  0  0
  8  7  2  0  0  0  0
  9  6  1  6  0  0  0
  9  2  1  0  0  0  0
 10 13  2  0  0  0  0
 10 14  1  0  0  0  0
 11  4  1  0  0  0  0
 12 11  2  0  0  0  0
 13 12  1  0  0  0  0
 14 15  2  0  0  0  0
 15 11  1  0  0  0  0
 18 27  1  0  0  0  0
 19 24  1  0  0  0  0
 20 16  1  1  0  0  0
 20 17  1  0  0  0  0
 21 23  2  0  0  0  0
 22 21  1  0  0  0  0
 23 25  1  0  0  0  0
 23 26  1  0  0  0  0
 24 18  2  0  0  0  0
 24 21  1  0  0  0  0
 25 20  1  0  0  0  0
 26 17  2  0  0  0  0
 27 25  2  0  0  0  0
M  END
>  <MODEL>
6

>  <REMARK>
 VINA RESULT:      -7.9      2.953      5.644
  Name = 
  3 active torsions:
  status: ('A' for Active; 'I' for Inactive)
    1  A    between atoms: N_2  and  C_6
    2  A    between atoms: N_2  and  C_15
    3  A    between atoms: C_9  and  C_15
                            x       y       z     vdW  Elec       q    Type
                         _______ _______ _______ _____ _____    ______ ____

>  <TORSDO>
F 3

$$$$
=
 OpenBabel10262420083D

 27 31  0  0  1  0  0  0  0  0999 V2000
  187.6400  179.0590  142.2650 O   0  0  0  0  0  0  0  0  0  0  0  0
  184.3280  178.5090  142.9510 C   0  0  0  0  0  3  0  0  0  0  0  0
  184.4530  178.6520  144.2750 C   0  0  0  0  0  3  0  0  0  0  0  0
  188.0600  177.7240  142.0610 C   0  0  2  0  0  0  0  0  0  0  0  0
  186.8080  178.0470  142.7950 C   0  0  1  0  0  0  0  0  0  0  0  0
  185.4380  178.6320  140.8720 F   0  0  0  0  0  0  0  0  0  0  0  0
  185.7150  178.3500  144.9740 C   0  0  0  0  0  3  0  0  0  0  0  0
  186.8250  178.0530  144.2970 C   0  0  0  0  0  3  0  0  0  0  0  0
  185.4390  177.9700  142.0890 C   0  0  2  0  0  3  0  0  0  0  0  0
  191.6810  176.6380  144.1170 C   0  0  0  0  0  3  0  0  0  0  0  0
  189.3110  177.3520  142.8050 C   0  0  0  0  0  0  0  0  0  0  0  0
  189.6640  176.0030  142.9360 C   0  0  0  0  0  3  0  0  0  0  0  0
  190.8450  175.6480  143.5940 C   0  0  0  0  0  3  0  0  0  0  0  0
  191.3370  177.9870  143.9800 C   0  0  0  0  0  3  0  0  0  0  0  0
  190.1570  178.3440  143.3220 C   0  0  0  0  0  3  0  0  0  0  0  0
  187.9190  177.2910  140.6710 N   0  0  0  0  0  2  0  0  0  0  0  0
  187.7140  178.5950  138.6170 C   0  0  0  0  0  3  0  0  0  0  0  0
  191.9330  176.4990  139.0570 C   0  0  0  0  0  3  0  0  0  0  0  0
  192.7960  175.7780  136.9180 O   0  0  0  0  0  1  0  0  0  0  0  0
  188.6160  178.2340  139.8050 C   0  0  2  0  0  3  0  0  0  0  0  0
  190.6310  176.8630  137.0320 C   0  0  0  0  0  0  0  0  0  0  0  0
  190.4770  176.7530  135.6540 O   0  0  0  0  0  1  0  0  0  0  0  0
  189.6380  177.4590  137.8150 C   0  0  0  0  0  0  0  0  0  0  0  0
  191.7890  176.3780  137.6640 C   0  0  0  0  0  0  0  0  0  0  0  0
  189.7800  177.5700  139.1740 C   0  0  0  0  0  0  0  0  0  0  0  0
  188.3610  178.0350  137.3420 C   0  0  0  0  0  3  0  0  0  0  0  0
  190.9240  177.0990  139.8230 C   0  0  0  0  0  3  0  0  0  0  0  0
  1  5  1  0  0  0  0
  2  3  2  0  0  0  0
  3  7  1  0  0  0  0
  4 16  1  6  0  0  0
  4  1  1  0  0  0  0
  4  5  1  0  0  0  0
  4 11  1  0  0  0  0
  5  8  1  1  0  0  0
  8  7  2  0  0  0  0
  9  6  1  6  0  0  0
  9  5  1  0  0  0  0
  9  2  1  0  0  0  0
 11 12  2  0  0  0  0
 11 15  1  0  0  0  0
 12 13  1  0  0  0  0
 13 10  2  0  0  0  0
 14 10  1  0  0  0  0
 15 14  2  0  0  0  0
 17 20  1  0  0  0  0
 18 27  1  0  0  0  0
 19 24  1  0  0  0  0
 20 16  1  1  0  0  0
 21 24  1  0  0  0  0
 21 23  2  0  0  0  0
 22 21  1  0  0  0  0
 23 25  1  0  0  0  0
 24 18  2  0  0  0  0
 25 20  1  0  0  0  0
 25 27  2  0  0  0  0
 26 23  1  0  0  0  0
 26 17  2  0  0  0  0
M  END
>  <MODEL>
7

>  <REMARK>
 VINA RESULT:      -7.7      1.915      6.474
  Name = 
  3 active torsions:
  status: ('A' for Active; 'I' for Inactive)
    1  A    between atoms: N_2  and  C_6
    2  A    between atoms: N_2  and  C_15
    3  A    between atoms: C_9  and  C_15
                            x       y       z     vdW  Elec       q    Type
                         _______ _______ _______ _____ _____    ______ ____

>  <TORSDO>
F 3

$$$$
=
 OpenBabel10262420083D

 27 31  0  0  1  0  0  0  0  0999 V2000
  188.6620  176.3380  144.2750 O   0  0  0  0  0  0  0  0  0  0  0  0
  191.4740  176.9020  146.1500 C   0  0  0  0  0  3  0  0  0  0  0  0
  190.8680  176.7350  147.3310 C   0  0  0  0  0  3  0  0  0  0  0  0
  188.3290  177.6720  143.9470 C   0  0  2  0  0  0  0  0  0  0  0  0
  189.2230  177.3460  145.0900 C   0  0  1  0  0  0  0  0  0  0  0  0
  191.2180  176.8070  143.8060 F   0  0  0  0  0  0  0  0  0  0  0  0
  189.4330  177.0150  147.5140 C   0  0  0  0  0  3  0  0  0  0  0  0
  188.6500  177.3140  146.4780 C   0  0  0  0  0  3  0  0  0  0  0  0
  190.7550  177.4470  144.9440 C   0  0  2  0  0  3  0  0  0  0  0  0
  184.2180  178.7570  144.6100 C   0  0  0  0  0  3  0  0  0  0  0  0
  186.8860  178.0210  144.1780 C   0  0  0  0  0  0  0  0  0  0  0  0
  186.4760  178.4720  145.4390 C   0  0  0  0  0  3  0  0  0  0  0  0
  185.1430  178.8360  145.6540 C   0  0  0  0  0  3  0  0  0  0  0  0
  184.6260  178.3160  143.3470 C   0  0  0  0  0  3  0  0  0  0  0  0
  185.9580  177.9530  143.1300 C   0  0  0  0  0  3  0  0  0  0  0  0
  188.9690  178.1310  142.7150 N   0  0  0  0  0  2  0  0  0  0  0  0
  190.3190  176.6250  141.3480 C   0  0  0  0  0  3  0  0  0  0  0  0
  186.7280  178.5670  138.9570 C   0  0  0  0  0  3  0  0  0  0  0  0
  187.3270  179.0150  136.6590 O   0  0  0  0  0  1  0  0  0  0  0  0
  188.8980  177.0710  141.7180 C   0  0  2  0  0  3  0  0  0  0  0  0
  188.9680  178.0450  138.1570 C   0  0  0  0  0  0  0  0  0  0  0  0
  189.9150  178.0140  137.1390 O   0  0  0  0  0  1  0  0  0  0  0  0
  189.2830  177.5810  139.4380 C   0  0  0  0  0  0  0  0  0  0  0  0
  187.6760  178.5440  137.9190 C   0  0  0  0  0  0  0  0  0  0  0  0
  188.3580  177.6110  140.4490 C   0  0  0  0  0  0  0  0  0  0  0  0
  190.5740  177.0160  139.8850 C   0  0  0  0  0  3  0  0  0  0  0  0
  187.0660  178.0970  140.2340 C   0  0  0  0  0  3  0  0  0  0  0  0
  1  5  1  0  0  0  0
  2  3  2  0  0  0  0
  3  7  1  0  0  0  0
  4 16  1  6  0  0  0
  4 11  1  0  0  0  0
  4  1  1  0  0  0  0
  4  5  1  0  0  0  0
  5  8  1  1  0  0  0
  8  7  2  0  0  0  0
  9  6  1  6  0  0  0
  9  5  1  0  0  0  0
  9  2  1  0  0  0  0
 10 13  1  0  0  0  0
 11 12  1  0  0  0  0
 12 13  2  0  0  0  0
 14 10  2  0  0  0  0
 15 14  1  0  0  0  0
 15 11  2  0  0  0  0
 17 20  1  0  0  0  0
 18 27  1  0  0  0  0
 19 24  1  0  0  0  0
 20 16  1  1  0  0  0
 21 23  2  0  0  0  0
 22 21  1  0  0  0  0
 23 26  1  0  0  0  0
 23 25  1  0  0  0  0
 24 21  1  0  0  0  0
 24 18  2  0  0  0  0
 25 20  1  0  0  0  0
 26 17  2  0  0  0  0
 27 25  2  0  0  0  0
M  END
>  <MODEL>
8

>  <REMARK>
 VINA RESULT:      -7.6      2.356      6.619
  Name = 
  3 active torsions:
  status: ('A' for Active; 'I' for Inactive)
    1  A    between atoms: N_2  and  C_6
    2  A    between atoms: N_2  and  C_15
    3  A    between atoms: C_9  and  C_15
                            x       y       z     vdW  Elec       q    Type
                         _______ _______ _______ _____ _____    ______ ____

>  <TORSDO>
F 3

$$$$
=
 OpenBabel10262420083D

 27 31  0  0  1  0  0  0  0  0999 V2000
  185.3060  179.7530  139.3550 O   0  0  0  0  0  0  0  0  0  0  0  0
  188.1020  177.8200  138.9260 C   0  0  0  0  0  3  0  0  0  0  0  0
  187.6890  177.2590  137.7840 C   0  0  0  0  0  3  0  0  0  0  0  0
  184.6370  178.9810  140.3330 C   0  0  2  0  0  0  0  0  0  0  0  0
  185.7050  178.4030  139.4750 C   0  0  1  0  0  0  0  0  0  0  0  0
  187.6130  179.4170  140.5930 F   0  0  0  0  0  0  0  0  0  0  0  0
  186.2570  177.0850  137.4780 C   0  0  0  0  0  3  0  0  0  0  0  0
  185.3150  177.6040  138.2650 C   0  0  0  0  0  3  0  0  0  0  0  0
  187.1450  178.2530  140.0060 C   0  0  2  0  0  3  0  0  0  0  0  0
  180.5060  178.2450  139.3800 C   0  0  0  0  0  3  0  0  0  0  0  0
  183.1880  178.7250  140.0300 C   0  0  0  0  0  0  0  0  0  0  0  0
  182.3970  179.7530  139.5020 C   0  0  0  0  0  3  0  0  0  0  0  0
  181.0580  179.5140  139.1810 C   0  0  0  0  0  3  0  0  0  0  0  0
  181.2950  177.2130  139.8980 C   0  0  0  0  0  3  0  0  0  0  0  0
  182.6340  177.4500  140.2180 C   0  0  0  0  0  3  0  0  0  0  0  0
  185.0100  179.3480  141.6980 N   0  0  0  0  0  2  0  0  0  0  0  0
  183.2860  178.8440  143.3520 C   0  0  0  0  0  3  0  0  0  0  0  0
  187.6030  177.4610  144.7070 C   0  0  0  0  0  3  0  0  0  0  0  0
  187.9120  177.7180  147.0910 O   0  0  0  0  0  1  0  0  0  0  0  0
  184.5290  178.3240  142.6160 C   0  0  2  0  0  3  0  0  0  0  0  0
  185.8080  178.3710  146.0790 C   0  0  0  0  0  0  0  0  0  0  0  0
  185.3050  178.7580  147.3160 O   0  0  0  0  0  1  0  0  0  0  0  0
  185.0290  178.4920  144.9240 C   0  0  0  0  0  0  0  0  0  0  0  0
  187.1090  177.8510  145.9640 C   0  0  0  0  0  0  0  0  0  0  0  0
  185.5170  178.1160  143.6990 C   0  0  0  0  0  0  0  0  0  0  0  0
  183.6450  179.0030  144.8360 C   0  0  0  0  0  3  0  0  0  0  0  0
  186.8050  177.5920  143.5620 C   0  0  0  0  0  3  0  0  0  0  0  0
  1  5  1  0  0  0  0
  1  4  1  0  0  0  0
  2  9  1  0  0  0  0
  3  2  2  0  0  0  0
  4 16  1  1  0  0  0
  5  8  1  6  0  0  0
  5  9  1  0  0  0  0
  5  4  1  0  0  0  0
  7  3  1  0  0  0  0
  7  8  2  0  0  0  0
  9  6  1  6  0  0  0
 10 14  1  0  0  0  0
 11 15  1  0  0  0  0
 11  4  1  0  0  0  0
 12 11  2  0  0  0  0
 13 10  2  0  0  0  0
 13 12  1  0  0  0  0
 14 15  2  0  0  0  0
 17 26  2  0  0  0  0
 18 24  1  0  0  0  0
 20 16  1  6  0  0  0
 20 17  1  0  0  0  0
 20 25  1  0  0  0  0
 21 22  1  0  0  0  0
 23 21  1  0  0  0  0
 24 21  2  0  0  0  0
 24 19  1  0  0  0  0
 25 23  2  0  0  0  0
 26 23  1  0  0  0  0
 27 25  1  0  0  0  0
 27 18  2  0  0  0  0
M  END
>  <MODEL>
9

>  <REMARK>
 VINA RESULT:      -7.6      2.661      5.538
  Name = 
  3 active torsions:
  status: ('A' for Active; 'I' for Inactive)
    1  A    between atoms: N_2  and  C_6
    2  A    between atoms: N_2  and  C_15
    3  A    between atoms: C_9  and  C_15
                            x       y       z     vdW  Elec       q    Type
                         _______ _______ _______ _____ _____    ______ ____

>  <TORSDO>
F 3

$$$$
