=
 OpenBabel10262419473D

 25 27  0  0  1  0  0  0  0  0999 V2000
  188.3000  177.4740  144.4230 C   0  0  1  0  0  3  0  0  0  0  0  0
  191.2480  179.7660  143.7140 C   0  0  0  0  0  1  0  0  0  0  0  0
  190.7580  175.9480  143.2140 C   0  0  0  0  0  2  0  0  0  0  0  0
  190.3780  178.5440  143.4830 C   0  0  1  0  0  3  0  0  0  0  0  0
  190.4020  176.9830  145.6930 S   0  0  0  0  0  0  0  0  0  0  0  0
  189.7680  176.7390  147.0340 O   0  0  0  0  0  0  0  0  0  0  0  0
  191.2350  177.3850  142.9090 C   0  0  2  0  0  3  0  0  0  0  0  0
  188.5560  176.1140  144.1070 O   0  0  0  0  0  0  0  0  0  0  0  0
  191.8920  177.1610  145.8010 O   0  0  0  0  0  0  0  0  0  0  0  0
  189.8880  175.8120  144.4710 C   0  0  1  0  0  3  0  0  0  0  0  0
  189.5860  178.2210  144.7710 C   0  0  2  0  0  3  0  0  0  0  0  0
  187.4170  178.1690  143.3820 C   0  0  1  0  0  3  0  0  0  0  0  0
  187.3050  177.4100  142.2140 O   0  0  0  0  0  1  0  0  0  0  0  0
  186.0650  178.4930  143.9430 C   0  0  0  0  0  0  0  0  0  0  0  0
  183.5510  179.0190  145.0700 C   0  0  0  0  0  3  0  0  0  0  0  0
  185.0320  179.0320  143.1510 C   0  0  0  0  0  0  0  0  0  0  0  0
  183.7810  179.2950  143.7200 C   0  0  0  0  0  3  0  0  0  0  0  0
  184.5720  178.4780  145.8560 C   0  0  0  0  0  3  0  0  0  0  0  0
  185.2290  179.3090  141.8380 F   0  0  0  0  0  0  0  0  0  0  0  0
  185.8220  178.2150  145.2920 C   0  0  0  0  0  3  0  0  0  0  0  0
  191.4920  177.5610  141.4450 C   0  0  0  0  0  0  0  0  0  0  0  0
  192.6180  177.9630  141.0500 O   0  0  0  0  0  0  0  0  0  0  0  0
  190.4390  177.2640  140.4660 C   0  0  0  0  0  0  0  0  0  0  0  0
  190.4370  176.0470  139.7940 O   0  0  0  0  0  0  0  0  0  0  0  0
  189.5340  178.1070  140.2270 O   0  0  0  0  0  1  0  0  0  0  0  0
  1 12  1  6  0  0  0
  1 11  1  0  0  0  0
  4  2  1  1  0  0  0
  4 11  1  0  0  0  0
  5  9  2  0  0  0  0
  5  6  2  0  0  0  0
  7 21  1  6  0  0  0
  7  3  1  0  0  0  0
  7  4  1  0  0  0  0
  8  1  1  0  0  0  0
  8 10  1  0  0  0  0
 10  3  1  6  0  0  0
 10  5  1  0  0  0  0
 11  5  1  1  0  0  0
 12 13  1  6  0  0  0
 12 14  1  0  0  0  0
 14 20  1  0  0  0  0
 15 18  1  0  0  0  0
 16 17  1  0  0  0  0
 16 14  2  0  0  0  0
 17 15  2  0  0  0  0
 19 16  1  0  0  0  0
 20 18  2  0  0  0  0
 22 21  2  0  0  0  0
 23 21  1  0  0  0  0
 24 23  2  0  0  0  0
 25 23  1  0  0  0  0
M  END
>  <MODEL>
1

>  <REMARK>
 VINA RESULT:      -7.0      0.000      0.000
  Name = 
  4 active torsions:
  status: ('A' for Active; 'I' for Inactive)
    1  A    between atoms: C_1  and  C_3
    2  A    between atoms: C_1  and  C_5
    3  A    between atoms: C_2  and  C_21
    4  A    between atoms: C_15  and  C_21
                            x       y       z     vdW  Elec       q    Type
                         _______ _______ _______ _____ _____    ______ ____

>  <TORSDO>
F 4

$$$$
=
 OpenBabel10262419473D

 25 27  0  0  1  0  0  0  0  0999 V2000
  188.3760  177.9070  139.3180 C   0  0  1  0  0  3  0  0  0  0  0  0
  187.9940  174.8210  137.1330 C   0  0  0  0  0  1  0  0  0  0  0  0
  189.6270  178.2790  136.4670 C   0  0  0  0  0  2  0  0  0  0  0  0
  188.6810  176.0920  137.5970 C   0  0  1  0  0  3  0  0  0  0  0  0
  187.0270  178.2020  137.2280 S   0  0  0  0  0  0  0  0  0  0  0  0
  185.9110  179.0100  137.8290 O   0  0  0  0  0  0  0  0  0  0  0  0
  189.4410  176.7470  136.4140 C   0  0  2  0  0  3  0  0  0  0  0  0
  189.0310  178.9830  138.6630 O   0  0  0  0  0  0  0  0  0  0  0  0
  186.6720  177.6830  135.8620 O   0  0  0  0  0  0  0  0  0  0  0  0
  188.5920  179.0240  137.3200 C   0  0  1  0  0  3  0  0  0  0  0  0
  187.6580  176.9970  138.3240 C   0  0  2  0  0  3  0  0  0  0  0  0
  189.2840  177.1780  140.3130 C   0  0  1  0  0  3  0  0  0  0  0  0
  190.5780  177.7080  140.3120 O   0  0  0  0  0  1  0  0  0  0  0  0
  188.7010  177.1890  141.6940 C   0  0  0  0  0  0  0  0  0  0  0  0
  187.5680  177.3150  144.2570 C   0  0  0  0  0  3  0  0  0  0  0  0
  189.2660  176.4550  142.7550 C   0  0  0  0  0  0  0  0  0  0  0  0
  188.6940  176.5190  144.0300 C   0  0  0  0  0  3  0  0  0  0  0  0
  187.0100  178.0490  143.2070 C   0  0  0  0  0  3  0  0  0  0  0  0
  190.3580  175.6760  142.5630 F   0  0  0  0  0  0  0  0  0  0  0  0
  187.5770  177.9880  141.9330 C   0  0  0  0  0  3  0  0  0  0  0  0
  190.7440  176.0620  136.1480 C   0  0  0  0  0  0  0  0  0  0  0  0
  191.0570  175.7430  134.9700 O   0  0  0  0  0  0  0  0  0  0  0  0
  191.6640  175.7600  137.2520 C   0  0  0  0  0  0  0  0  0  0  0  0
  191.6090  174.5240  137.8850 O   0  0  0  0  0  1  0  0  0  0  0  0
  192.5060  176.6160  137.6330 O   0  0  0  0  0  0  0  0  0  0  0  0
  1 12  1  6  0  0  0
  4  2  1  6  0  0  0
  4 11  1  0  0  0  0
  5 10  1  0  0  0  0
  5  6  2  0  0  0  0
  7 21  1  1  0  0  0
  7  3  1  0  0  0  0
  7  4  1  0  0  0  0
  8  1  1  0  0  0  0
  9  5  2  0  0  0  0
 10  3  1  6  0  0  0
 10  8  1  0  0  0  0
 11  5  1  6  0  0  0
 11  1  1  0  0  0  0
 12 13  1  1  0  0  0
 12 14  1  0  0  0  0
 14 20  2  0  0  0  0
 14 16  1  0  0  0  0
 16 17  2  0  0  0  0
 17 15  1  0  0  0  0
 18 15  2  0  0  0  0
 19 16  1  0  0  0  0
 20 18  1  0  0  0  0
 21 23  1  0  0  0  0
 22 21  2  0  0  0  0
 23 25  2  0  0  0  0
 23 24  1  0  0  0  0
M  END
>  <MODEL>
2

>  <REMARK>
 VINA RESULT:      -6.8      3.846      6.357
  Name = 
  4 active torsions:
  status: ('A' for Active; 'I' for Inactive)
    1  A    between atoms: C_1  and  C_3
    2  A    between atoms: C_1  and  C_5
    3  A    between atoms: C_2  and  C_21
    4  A    between atoms: C_15  and  C_21
                            x       y       z     vdW  Elec       q    Type
                         _______ _______ _______ _____ _____    ______ ____

>  <TORSDO>
F 4

$$$$
=
 OpenBabel10262419473D

 25 27  0  0  1  0  0  0  0  0999 V2000
  182.8640  178.6630  140.8560 C   0  0  1  0  0  3  0  0  0  0  0  0
  182.8820  175.3610  138.9730 C   0  0  0  0  0  1  0  0  0  0  0  0
  182.2980  179.0130  137.7910 C   0  0  0  0  0  2  0  0  0  0  0  0
  183.0710  176.8610  139.1070 C   0  0  1  0  0  3  0  0  0  0  0  0
  180.7110  178.0190  139.7500 S   0  0  0  0  0  0  0  0  0  0  0  0
  179.7920  178.3930  140.8790 O   0  0  0  0  0  0  0  0  0  0  0  0
  182.8020  177.5530  137.7450 C   0  0  2  0  0  3  0  0  0  0  0  0
  182.5810  179.7810  140.0290 O   0  0  0  0  0  0  0  0  0  0  0  0
  180.0170  177.1730  138.7180 O   0  0  0  0  0  0  0  0  0  0  0  0
  181.5890  179.4070  139.0940 C   0  0  1  0  0  3  0  0  0  0  0  0
  182.2410  177.3830  140.3030 C   0  0  2  0  0  3  0  0  0  0  0  0
  184.3490  178.5500  141.2120 C   0  0  1  0  0  3  0  0  0  0  0  0
  185.1000  179.5660  140.6140 O   0  0  0  0  0  1  0  0  0  0  0  0
  184.5550  178.5350  142.6970 C   0  0  0  0  0  0  0  0  0  0  0  0
  184.8590  178.5890  145.4850 C   0  0  0  0  0  3  0  0  0  0  0  0
  185.7800  178.1600  143.2840 C   0  0  0  0  0  0  0  0  0  0  0  0
  185.9240  178.1860  144.6750 C   0  0  0  0  0  3  0  0  0  0  0  0
  183.6450  178.9670  144.9060 C   0  0  0  0  0  3  0  0  0  0  0  0
  186.8280  177.7670  142.5200 F   0  0  0  0  0  0  0  0  0  0  0  0
  183.4960  178.9420  143.5170 C   0  0  0  0  0  3  0  0  0  0  0  0
  183.9690  177.4230  136.8180 C   0  0  0  0  0  0  0  0  0  0  0  0
  183.7750  177.2630  135.5840 O   0  0  0  0  0  0  0  0  0  0  0  0
  185.3400  177.4810  137.3390 C   0  0  0  0  0  0  0  0  0  0  0  0
  185.8390  178.6720  137.8530 O   0  0  0  0  0  1  0  0  0  0  0  0
  186.0730  176.4570  137.3220 O   0  0  0  0  0  0  0  0  0  0  0  0
  1 12  1  6  0  0  0
  4  2  1  6  0  0  0
  4 11  1  0  0  0  0
  5  6  2  0  0  0  0
  7 21  1  6  0  0  0
  7  3  1  0  0  0  0
  7  4  1  0  0  0  0
  8  1  1  0  0  0  0
  9  5  2  0  0  0  0
 10  3  1  6  0  0  0
 10  5  1  0  0  0  0
 10  8  1  0  0  0  0
 11  5  1  6  0  0  0
 11  1  1  0  0  0  0
 12 13  1  6  0  0  0
 12 14  1  0  0  0  0
 14 16  2  0  0  0  0
 14 20  1  0  0  0  0
 16 17  1  0  0  0  0
 17 15  2  0  0  0  0
 18 15  1  0  0  0  0
 19 16  1  0  0  0  0
 20 18  2  0  0  0  0
 21 23  1  0  0  0  0
 22 21  2  0  0  0  0
 23 24  1  0  0  0  0
 25 23  2  0  0  0  0
M  END
>  <MODEL>
3

>  <REMARK>
 VINA RESULT:      -6.6      5.200      7.710
  Name = 
  4 active torsions:
  status: ('A' for Active; 'I' for Inactive)
    1  A    between atoms: C_1  and  C_3
    2  A    between atoms: C_1  and  C_5
    3  A    between atoms: C_2  and  C_21
    4  A    between atoms: C_15  and  C_21
                            x       y       z     vdW  Elec       q    Type
                         _______ _______ _______ _____ _____    ______ ____

>  <TORSDO>
F 4

$$$$
=
 OpenBabel10262419473D

 25 27  0  0  1  0  0  0  0  0999 V2000
  188.7240  177.6780  143.7170 C   0  0  1  0  0  3  0  0  0  0  0  0
  190.7980  174.4940  143.6380 C   0  0  0  0  0  1  0  0  0  0  0  0
  191.6260  178.0940  144.8310 C   0  0  0  0  0  2  0  0  0  0  0  0
  190.3960  175.8520  144.1830 C   0  0  1  0  0  3  0  0  0  0  0  0
  190.7760  177.7400  142.2820 S   0  0  0  0  0  0  0  0  0  0  0  0
  190.1630  178.4320  141.0970 O   0  0  0  0  0  0  0  0  0  0  0  0
  191.6240  176.5490  144.8250 C   0  0  2  0  0  3  0  0  0  0  0  0
  189.4340  178.7990  144.2210 O   0  0  0  0  0  0  0  0  0  0  0  0
  192.1120  177.1360  141.9500 O   0  0  0  0  0  0  0  0  0  0  0  0
  190.7620  178.7420  143.7400 C   0  0  1  0  0  3  0  0  0  0  0  0
  189.6650  176.6560  143.0830 C   0  0  2  0  0  3  0  0  0  0  0  0
  187.7380  177.0960  144.7340 C   0  0  1  0  0  3  0  0  0  0  0  0
  188.2410  177.1650  146.0370 O   0  0  0  0  0  1  0  0  0  0  0  0
  186.3990  177.7640  144.6410 C   0  0  0  0  0  0  0  0  0  0  0  0
  183.8690  178.9730  144.5700 C   0  0  0  0  0  3  0  0  0  0  0  0
  185.7590  177.9960  143.4080 C   0  0  0  0  0  0  0  0  0  0  0  0
  184.4980  178.6020  143.3790 C   0  0  0  0  0  3  0  0  0  0  0  0
  184.4990  178.7380  145.7950 C   0  0  0  0  0  3  0  0  0  0  0  0
  186.3470  177.6450  142.2370 F   0  0  0  0  0  0  0  0  0  0  0  0
  185.7580  178.1330  145.8280 C   0  0  0  0  0  3  0  0  0  0  0  0
  191.9130  176.0120  146.1920 C   0  0  0  0  0  0  0  0  0  0  0  0
  192.5890  174.9580  146.3220 O   0  0  0  0  0  0  0  0  0  0  0  0
  191.4130  176.7090  147.3840 C   0  0  0  0  0  0  0  0  0  0  0  0
  192.3040  177.1640  148.3480 O   0  0  0  0  0  1  0  0  0  0  0  0
  190.1770  176.8980  147.5410 O   0  0  0  0  0  0  0  0  0  0  0  0
  1  8  1  0  0  0  0
  1 12  1  1  0  0  0
  4  2  1  6  0  0  0
  4  7  1  0  0  0  0
  5 10  1  0  0  0  0
  6  5  2  0  0  0  0
  7  3  1  0  0  0  0
  7 21  1  1  0  0  0
  9  5  2  0  0  0  0
 10  8  1  0  0  0  0
 10  3  1  1  0  0  0
 11  5  1  1  0  0  0
 11  1  1  0  0  0  0
 11  4  1  0  0  0  0
 12 13  1  1  0  0  0
 14 12  1  0  0  0  0
 14 20  1  0  0  0  0
 15 18  1  0  0  0  0
 16 14  2  0  0  0  0
 17 16  1  0  0  0  0
 17 15  2  0  0  0  0
 18 20  2  0  0  0  0
 19 16  1  0  0  0  0
 21 22  2  0  0  0  0
 21 23  1  0  0  0  0
 23 25  2  0  0  0  0
 23 24  1  0  0  0  0
M  END
>  <MODEL>
4

>  <REMARK>
 VINA RESULT:      -6.0      1.771      4.047
  Name = 
  4 active torsions:
  status: ('A' for Active; 'I' for Inactive)
    1  A    between atoms: C_1  and  C_3
    2  A    between atoms: C_1  and  C_5
    3  A    between atoms: C_2  and  C_21
    4  A    between atoms: C_15  and  C_21
                            x       y       z     vdW  Elec       q    Type
                         _______ _______ _______ _____ _____    ______ ____

>  <TORSDO>
F 4

$$$$
=
 OpenBabel10262419473D

 25 27  0  0  1  0  0  0  0  0999 V2000
  188.7680  177.8650  143.5500 C   0  0  1  0  0  3  0  0  0  0  0  0
  190.5780  174.5230  143.5660 C   0  0  0  0  0  1  0  0  0  0  0  0
  191.7000  178.0810  144.6420 C   0  0  0  0  0  2  0  0  0  0  0  0
  190.2900  175.9260  144.0690 C   0  0  1  0  0  3  0  0  0  0  0  0
  190.8110  177.7170  142.1080 S   0  0  0  0  0  0  0  0  0  0  0  0
  190.2500  178.4180  140.9030 O   0  0  0  0  0  0  0  0  0  0  0  0
  191.5740  176.5410  144.6850 C   0  0  2  0  0  3  0  0  0  0  0  0
  189.5680  178.9410  144.0160 O   0  0  0  0  0  0  0  0  0  0  0  0
  192.0930  176.9960  141.7920 O   0  0  0  0  0  0  0  0  0  0  0  0
  190.8850  178.7610  143.5340 C   0  0  1  0  0  3  0  0  0  0  0  0
  189.6210  176.7510  142.9460 C   0  0  2  0  0  3  0  0  0  0  0  0
  187.7430  177.3970  144.5870 C   0  0  1  0  0  3  0  0  0  0  0  0
  188.1080  177.7810  145.8810 O   0  0  0  0  0  1  0  0  0  0  0  0
  186.3660  177.8830  144.2520 C   0  0  0  0  0  0  0  0  0  0  0  0
  183.8280  178.8280  143.5220 C   0  0  0  0  0  3  0  0  0  0  0  0
  185.4480  178.2860  145.2410 C   0  0  0  0  0  0  0  0  0  0  0  0
  184.1830  178.7540  144.8710 C   0  0  0  0  0  3  0  0  0  0  0  0
  184.7380  178.4350  142.5380 C   0  0  0  0  0  3  0  0  0  0  0  0
  185.7680  178.2240  146.5580 F   0  0  0  0  0  0  0  0  0  0  0  0
  186.0030  177.9670  142.9030 C   0  0  0  0  0  3  0  0  0  0  0  0
  191.8240  176.0270  146.0680 C   0  0  0  0  0  0  0  0  0  0  0  0
  192.5620  175.0190  146.2380 O   0  0  0  0  0  0  0  0  0  0  0  0
  191.2180  176.6900  147.2290 C   0  0  0  0  0  0  0  0  0  0  0  0
  192.0180  177.3740  148.1360 O   0  0  0  0  0  1  0  0  0  0  0  0
  189.9730  176.6440  147.4110 O   0  0  0  0  0  0  0  0  0  0  0  0
  1  8  1  0  0  0  0
  1 12  1  1  0  0  0
  3  7  1  0  0  0  0
  4  2  1  6  0  0  0
  4  7  1  0  0  0  0
  5 10  1  0  0  0  0
  6  5  2  0  0  0  0
  7 21  1  1  0  0  0
  9  5  2  0  0  0  0
 10  8  1  0  0  0  0
 10  3  1  1  0  0  0
 11  5  1  6  0  0  0
 11  1  1  0  0  0  0
 11  4  1  0  0  0  0
 12 13  1  1  0  0  0
 14 12  1  0  0  0  0
 14 16  1  0  0  0  0
 15 17  1  0  0  0  0
 16 19  1  0  0  0  0
 17 16  2  0  0  0  0
 18 20  1  0  0  0  0
 18 15  2  0  0  0  0
 20 14  2  0  0  0  0
 21 22  2  0  0  0  0
 21 23  1  0  0  0  0
 23 25  2  0  0  0  0
 23 24  1  0  0  0  0
M  END
>  <MODEL>
5

>  <REMARK>
 VINA RESULT:      -6.0      1.982      4.214
  Name = 
  4 active torsions:
  status: ('A' for Active; 'I' for Inactive)
    1  A    between atoms: C_1  and  C_3
    2  A    between atoms: C_1  and  C_5
    3  A    between atoms: C_2  and  C_21
    4  A    between atoms: C_15  and  C_21
                            x       y       z     vdW  Elec       q    Type
                         _______ _______ _______ _____ _____    ______ ____

>  <TORSDO>
F 4

$$$$
=
 OpenBabel10262419473D

 25 27  0  0  1  0  0  0  0  0999 V2000
  187.5870  177.7570  143.9710 C   0  0  1  0  0  3  0  0  0  0  0  0
  190.8410  179.5700  143.2200 C   0  0  0  0  0  1  0  0  0  0  0  0
  189.6440  175.9640  142.4250 C   0  0  0  0  0  2  0  0  0  0  0  0
  189.7530  178.5460  142.9560 C   0  0  1  0  0  3  0  0  0  0  0  0
  189.6480  176.7840  145.0080 S   0  0  0  0  0  0  0  0  0  0  0  0
  189.0740  176.5170  146.3710 O   0  0  0  0  0  0  0  0  0  0  0  0
  190.3470  177.3220  142.2100 C   0  0  2  0  0  3  0  0  0  0  0  0
  187.5720  176.4130  143.5130 O   0  0  0  0  0  0  0  0  0  0  0  0
  191.1500  176.6930  145.0040 O   0  0  0  0  0  0  0  0  0  0  0  0
  188.8510  175.8510  143.7340 C   0  0  1  0  0  3  0  0  0  0  0  0
  189.0060  178.2330  144.2730 C   0  0  2  0  0  3  0  0  0  0  0  0
  186.7730  178.6960  143.0750 C   0  0  1  0  0  3  0  0  0  0  0  0
  186.9010  178.3580  141.7250 O   0  0  0  0  0  1  0  0  0  0  0  0
  185.3320  178.7290  143.4850 C   0  0  0  0  0  0  0  0  0  0  0  0
  182.6080  178.8280  144.1470 C   0  0  0  0  0  3  0  0  0  0  0  0
  184.9340  178.9420  144.8200 C   0  0  0  0  0  0  0  0  0  0  0  0
  183.5740  178.9880  145.1440 C   0  0  0  0  0  3  0  0  0  0  0  0
  183.0000  178.6230  142.8210 C   0  0  0  0  0  3  0  0  0  0  0  0
  185.8510  179.1000  145.8060 F   0  0  0  0  0  0  0  0  0  0  0  0
  184.3560  178.5770  142.4930 C   0  0  0  0  0  3  0  0  0  0  0  0
  190.5310  177.6000  140.7510 C   0  0  0  0  0  0  0  0  0  0  0  0
  189.6550  178.2510  140.1210 O   0  0  0  0  0  0  0  0  0  0  0  0
  191.7290  177.1220  140.0490 C   0  0  0  0  0  0  0  0  0  0  0  0
  192.9910  177.5090  140.4830 O   0  0  0  0  0  1  0  0  0  0  0  0
  191.6210  176.3600  139.0520 O   0  0  0  0  0  0  0  0  0  0  0  0
  1 12  1  6  0  0  0
  1 11  1  0  0  0  0
  4  2  1  1  0  0  0
  4 11  1  0  0  0  0
  5  6  2  0  0  0  0
  7 21  1  6  0  0  0
  7  3  1  0  0  0  0
  7  4  1  0  0  0  0
  8 10  1  0  0  0  0
  8  1  1  0  0  0  0
  9  5  2  0  0  0  0
 10  3  1  6  0  0  0
 10  5  1  0  0  0  0
 11  5  1  6  0  0  0
 12 13  1  6  0  0  0
 12 14  1  0  0  0  0
 14 16  1  0  0  0  0
 15 17  1  0  0  0  0
 16 17  2  0  0  0  0
 16 19  1  0  0  0  0
 18 15  2  0  0  0  0
 20 18  1  0  0  0  0
 20 14  2  0  0  0  0
 22 21  2  0  0  0  0
 23 24  1  0  0  0  0
 23 21  1  0  0  0  0
 25 23  2  0  0  0  0
M  END
>  <MODEL>
6

>  <REMARK>
 VINA RESULT:      -5.8      1.287      1.904
  Name = 
  4 active torsions:
  status: ('A' for Active; 'I' for Inactive)
    1  A    between atoms: C_1  and  C_3
    2  A    between atoms: C_1  and  C_5
    3  A    between atoms: C_2  and  C_21
    4  A    between atoms: C_15  and  C_21
                            x       y       z     vdW  Elec       q    Type
                         _______ _______ _______ _____ _____    ______ ____

>  <TORSDO>
F 4

$$$$
=
 OpenBabel10262419473D

 25 27  0  0  1  0  0  0  0  0999 V2000
  188.0740  177.7070  145.9420 C   0  0  1  0  0  3  0  0  0  0  0  0
  191.4150  178.9930  144.6660 C   0  0  0  0  0  1  0  0  0  0  0  0
  190.4060  175.6550  146.3740 C   0  0  0  0  0  2  0  0  0  0  0  0
  190.4050  177.9130  145.0090 C   0  0  1  0  0  3  0  0  0  0  0  0
  189.8740  177.9790  147.6620 S   0  0  0  0  0  0  0  0  0  0  0  0
  189.0280  178.6110  148.7320 O   0  0  0  0  0  0  0  0  0  0  0  0
  191.1410  176.6050  145.4010 C   0  0  2  0  0  3  0  0  0  0  0  0
  188.1540  176.4170  146.5290 O   0  0  0  0  0  0  0  0  0  0  0  0
  191.3430  178.1220  147.9510 O   0  0  0  0  0  0  0  0  0  0  0  0
  189.3580  176.3340  147.2660 C   0  0  1  0  0  3  0  0  0  0  0  0
  189.3990  178.4570  146.0510 C   0  0  2  0  0  3  0  0  0  0  0  0
  187.4660  177.6810  144.5370 C   0  0  1  0  0  3  0  0  0  0  0  0
  187.5740  176.4160  143.9520 O   0  0  0  0  0  1  0  0  0  0  0  0
  186.0400  178.1460  144.5500 C   0  0  0  0  0  0  0  0  0  0  0  0
  183.3620  178.9700  144.6810 C   0  0  0  0  0  3  0  0  0  0  0  0
  185.2880  178.3010  143.3690 C   0  0  0  0  0  0  0  0  0  0  0  0
  183.9540  178.7150  143.4410 C   0  0  0  0  0  3  0  0  0  0  0  0
  184.1040  178.8100  145.8540 C   0  0  0  0  0  3  0  0  0  0  0  0
  185.8380  178.0610  142.1540 F   0  0  0  0  0  0  0  0  0  0  0  0
  185.4370  178.3970  145.7870 C   0  0  0  0  0  3  0  0  0  0  0  0
  191.6240  175.8610  144.1960 C   0  0  0  0  0  0  0  0  0  0  0  0
  192.3840  174.8650  144.3360 O   0  0  0  0  0  0  0  0  0  0  0  0
  191.2180  176.2830  142.8500 C   0  0  0  0  0  0  0  0  0  0  0  0
  191.9950  177.1930  142.1420 O   0  0  0  0  0  0  0  0  0  0  0  0
  190.1660  175.8270  142.3280 O   0  0  0  0  0  1  0  0  0  0  0  0
  1 12  1  6  0  0  0
  1 11  1  0  0  0  0
  1  8  1  0  0  0  0
  4  2  1  1  0  0  0
  4  7  1  0  0  0  0
  4 11  1  0  0  0  0
  5  9  2  0  0  0  0
  5  6  2  0  0  0  0
  7 21  1  6  0  0  0
  7  3  1  0  0  0  0
  8 10  1  0  0  0  0
 10  3  1  6  0  0  0
 10  5  1  0  0  0  0
 11  5  1  1  0  0  0
 12 13  1  1  0  0  0
 12 14  1  0  0  0  0
 14 20  1  0  0  0  0
 15 18  1  0  0  0  0
 16 17  1  0  0  0  0
 16 14  2  0  0  0  0
 17 15  2  0  0  0  0
 19 16  1  0  0  0  0
 20 18  2  0  0  0  0
 21 22  2  0  0  0  0
 23 21  1  0  0  0  0
 24 23  2  0  0  0  0
 25 23  1  0  0  0  0
M  END
>  <MODEL>
7

>  <REMARK>
 VINA RESULT:      -5.7      1.629      2.240
  Name = 
  4 active torsions:
  status: ('A' for Active; 'I' for Inactive)
    1  A    between atoms: C_1  and  C_3
    2  A    between atoms: C_1  and  C_5
    3  A    between atoms: C_2  and  C_21
    4  A    between atoms: C_15  and  C_21
                            x       y       z     vdW  Elec       q    Type
                         _______ _______ _______ _____ _____    ______ ____

>  <TORSDO>
F 4

$$$$
=
 OpenBabel10262419473D

 25 27  0  0  1  0  0  0  0  0999 V2000
  188.9860  177.4910  141.3390 C   0  0  1  0  0  3  0  0  0  0  0  0
  190.8090  179.3510  144.1070 C   0  0  0  0  0  1  0  0  0  0  0  0
  189.0590  175.8860  144.0320 C   0  0  0  0  0  2  0  0  0  0  0  0
  190.3230  178.1090  143.3830 C   0  0  1  0  0  3  0  0  0  0  0  0
  187.6170  178.0780  143.3520 S   0  0  0  0  0  0  0  0  0  0  0  0
  186.3900  178.5490  142.6240 O   0  0  0  0  0  0  0  0  0  0  0  0
  190.1170  176.9520  144.3950 C   0  0  2  0  0  3  0  0  0  0  0  0
  188.4680  176.2360  141.7510 O   0  0  0  0  0  0  0  0  0  0  0  0
  187.5980  178.4790  144.8020 O   0  0  0  0  0  0  0  0  0  0  0  0
  187.9680  176.3670  143.0670 C   0  0  1  0  0  3  0  0  0  0  0  0
  189.0970  178.4650  142.5100 C   0  0  2  0  0  3  0  0  0  0  0  0
  190.2560  177.3590  140.4930 C   0  0  1  0  0  3  0  0  0  0  0  0
  190.9090  176.1460  140.7320 O   0  0  0  0  0  1  0  0  0  0  0  0
  189.9600  177.5290  139.0330 C   0  0  0  0  0  0  0  0  0  0  0  0
  189.3060  177.8980  136.3310 C   0  0  0  0  0  3  0  0  0  0  0  0
  190.4860  176.6660  138.0530 C   0  0  0  0  0  0  0  0  0  0  0  0
  190.1590  176.8570  136.7060 C   0  0  0  0  0  3  0  0  0  0  0  0
  188.7770  178.7520  137.3020 C   0  0  0  0  0  3  0  0  0  0  0  0
  191.3160  175.6480  138.3900 F   0  0  0  0  0  0  0  0  0  0  0  0
  189.1020  178.5650  138.6480 C   0  0  0  0  0  3  0  0  0  0  0  0
  191.4150  176.3070  144.7680 C   0  0  0  0  0  0  0  0  0  0  0  0
  192.1260  175.7680  143.8780 O   0  0  0  0  0  0  0  0  0  0  0  0
  191.8670  176.3000  146.1650 C   0  0  0  0  0  0  0  0  0  0  0  0
  192.5370  175.1930  146.6730 O   0  0  0  0  0  0  0  0  0  0  0  0
  191.6510  177.2910  146.9100 O   0  0  0  0  0  1  0  0  0  0  0  0
  1 12  1  1  0  0  0
  1  8  1  0  0  0  0
  1 11  1  0  0  0  0
  3  7  1  0  0  0  0
  4  2  1  1  0  0  0
  4  7  1  0  0  0  0
  5  9  2  0  0  0  0
  6  5  2  0  0  0  0
  7 21  1  6  0  0  0
  8 10  1  0  0  0  0
 10  5  1  0  0  0  0
 10  3  1  1  0  0  0
 11  5  1  1  0  0  0
 11  4  1  0  0  0  0
 12 13  1  6  0  0  0
 14 12  1  0  0  0  0
 15 17  2  0  0  0  0
 15 18  1  0  0  0  0
 16 19  1  0  0  0  0
 16 14  2  0  0  0  0
 17 16  1  0  0  0  0
 18 20  2  0  0  0  0
 20 14  1  0  0  0  0
 21 23  1  0  0  0  0
 22 21  2  0  0  0  0
 23 24  2  0  0  0  0
 23 25  1  0  0  0  0
M  END
>  <MODEL>
8

>  <REMARK>
 VINA RESULT:      -5.7      3.092      5.721
  Name = 
  4 active torsions:
  status: ('A' for Active; 'I' for Inactive)
    1  A    between atoms: C_1  and  C_3
    2  A    between atoms: C_1  and  C_5
    3  A    between atoms: C_2  and  C_21
    4  A    between atoms: C_15  and  C_21
                            x       y       z     vdW  Elec       q    Type
                         _______ _______ _______ _____ _____    ______ ____

>  <TORSDO>
F 4

$$$$
=
 OpenBabel10262419473D

 25 27  0  0  1  0  0  0  0  0999 V2000
  182.7540  178.6280  140.9900 C   0  0  1  0  0  3  0  0  0  0  0  0
  182.6820  175.3680  139.0390 C   0  0  0  0  0  1  0  0  0  0  0  0
  182.2230  179.0600  137.9300 C   0  0  0  0  0  2  0  0  0  0  0  0
  182.9180  176.8580  139.2060 C   0  0  1  0  0  3  0  0  0  0  0  0
  180.5900  178.0760  139.8570 S   0  0  0  0  0  0  0  0  0  0  0  0
  179.6750  178.4560  140.9870 O   0  0  0  0  0  0  0  0  0  0  0  0
  182.6800  177.5860  137.8570 C   0  0  2  0  0  3  0  0  0  0  0  0
  182.5130  179.7720  140.1850 O   0  0  0  0  0  0  0  0  0  0  0  0
  179.8780  177.2740  138.8020 O   0  0  0  0  0  0  0  0  0  0  0  0
  181.5170  179.4490  139.2350 C   0  0  1  0  0  3  0  0  0  0  0  0
  182.0950  177.3810  140.4060 C   0  0  2  0  0  3  0  0  0  0  0  0
  184.2330  178.4610  141.3540 C   0  0  1  0  0  3  0  0  0  0  0  0
  185.0370  179.3800  140.6740 O   0  0  0  0  0  1  0  0  0  0  0  0
  184.4440  178.5560  142.8360 C   0  0  0  0  0  0  0  0  0  0  0  0
  184.9210  178.6530  145.5980 C   0  0  0  0  0  3  0  0  0  0  0  0
  183.4200  178.9540  143.7180 C   0  0  0  0  0  0  0  0  0  0  0  0
  183.6650  179.0030  145.0940 C   0  0  0  0  0  3  0  0  0  0  0  0
  185.9370  178.2530  144.7250 C   0  0  0  0  0  3  0  0  0  0  0  0
  182.1930  179.2980  143.2560 F   0  0  0  0  0  0  0  0  0  0  0  0
  185.6960  178.2020  143.3500 C   0  0  0  0  0  3  0  0  0  0  0  0
  183.8500  177.4380  136.9350 C   0  0  0  0  0  0  0  0  0  0  0  0
  185.0100  177.7140  137.3430 O   0  0  0  0  0  0  0  0  0  0  0  0
  183.6550  176.9710  135.5570 C   0  0  0  0  0  0  0  0  0  0  0  0
  182.7280  177.5990  134.7340 O   0  0  0  0  0  0  0  0  0  0  0  0
  184.3240  176.0010  135.1120 O   0  0  0  0  0  1  0  0  0  0  0  0
  1 12  1  6  0  0  0
  4  2  1  6  0  0  0
  4 11  1  0  0  0  0
  5  6  2  0  0  0  0
  7 21  1  6  0  0  0
  7  3  1  0  0  0  0
  7  4  1  0  0  0  0
  8  1  1  0  0  0  0
  9  5  2  0  0  0  0
 10  3  1  6  0  0  0
 10  5  1  0  0  0  0
 10  8  1  0  0  0  0
 11  5  1  6  0  0  0
 11  1  1  0  0  0  0
 12 13  1  6  0  0  0
 12 14  1  0  0  0  0
 14 20  2  0  0  0  0
 14 16  1  0  0  0  0
 16 17  2  0  0  0  0
 17 15  1  0  0  0  0
 18 15  2  0  0  0  0
 19 16  1  0  0  0  0
 20 18  1  0  0  0  0
 21 22  2  0  0  0  0
 23 21  1  0  0  0  0
 24 23  2  0  0  0  0
 25 23  1  0  0  0  0
M  END
>  <MODEL>
9

>  <REMARK>
 VINA RESULT:      -5.5      5.563      7.958
  Name = 
  4 active torsions:
  status: ('A' for Active; 'I' for Inactive)
    1  A    between atoms: C_1  and  C_3
    2  A    between atoms: C_1  and  C_5
    3  A    between atoms: C_2  and  C_21
    4  A    between atoms: C_15  and  C_21
                            x       y       z     vdW  Elec       q    Type
                         _______ _______ _______ _____ _____    ______ ____

>  <TORSDO>
F 4

$$$$
