=
 OpenBabel10262420013D

 27 31  0  0  1  0  0  0  0  0999 V2000
  182.4450  178.7670  138.9240 C   0  0  2  0  0  0  0  0  0  0  0  0
  182.3430  178.6970  141.4320 C   0  0  0  0  0  0  0  0  0  0  0  0
  184.4670  178.7460  140.2910 O   0  0  0  0  0  0  0  0  0  0  0  0
  184.4550  178.7850  145.2070 C   0  0  0  0  0  2  0  0  0  0  0  0
  186.4890  178.3240  146.5520 C   0  0  0  0  0  1  0  0  0  0  0  0
  181.7200  179.1120  142.5460 C   0  0  0  0  0  3  0  0  0  0  0  0
  185.8390  177.8140  142.8080 C   0  0  0  0  0  2  0  0  0  0  0  0
  185.8410  177.1790  138.0330 C   0  0  0  0  0  1  0  0  0  0  0  0
  186.6020  178.1800  144.0770 C   0  0  0  0  0  2  0  0  0  0  0  0
  183.9670  178.0400  136.6340 C   0  0  0  0  0  2  0  0  0  0  0  0
  183.8000  178.2490  141.4290 C   0  0  1  0  0  3  0  0  0  0  0  0
  181.5560  178.4850  140.1620 C   0  0  2  0  0  3  0  0  0  0  0  0
  185.7250  177.9440  145.3020 C   0  0  2  0  0  3  0  0  0  0  0  0
  183.6810  178.4350  143.9400 C   0  0  2  0  0  3  0  0  0  0  0  0
  182.5600  180.2790  138.7650 C   0  0  0  0  0  1  0  0  0  0  0  0
  184.5610  178.6460  142.6980 C   0  0  1  0  0  3  0  0  0  0  0  0
  184.7570  178.2360  137.9350 C   0  0  1  0  0  3  0  0  0  0  0  0
  182.4550  179.3330  143.8390 C   0  0  0  0  0  2  0  0  0  0  0  0
  182.7120  177.3340  136.8830 N   0  0  0  0  0  2  0  0  0  0  0  0
  181.8120  178.2260  137.6230 C   0  0  0  0  0  2  0  0  0  0  0  0
  183.8520  178.1570  139.1680 C   0  0  2  0  0  3  0  0  0  0  0  0
  179.6510  174.6190  140.1770 C   0  0  0  0  0  3  0  0  0  0  0  0
  180.9070  177.1230  140.1620 C   0  0  0  0  0  0  0  0  0  0  0  0
  181.6270  175.9690  139.8160 C   0  0  0  0  0  3  0  0  0  0  0  0
  180.9980  174.7200  139.8230 C   0  0  0  0  0  3  0  0  0  0  0  0
  178.9310  175.7660  140.5250 C   0  0  0  0  0  3  0  0  0  0  0  0
  179.5590  177.0150  140.5170 C   0  0  0  0  0  3  0  0  0  0  0  0
  1 15  1  6  0  0  0
  1 21  1  0  0  0  0
  1 12  1  0  0  0  0
  2  6  2  0  0  0  0
  4 13  1  0  0  0  0
  6 18  1  0  0  0  0
  7  9  1  0  0  0  0
  9 13  1  0  0  0  0
 10 19  1  0  0  0  0
 10 17  1  0  0  0  0
 11  3  1  6  0  0  0
 11  2  1  0  0  0  0
 11 16  1  0  0  0  0
 12 23  1  6  0  0  0
 12  2  1  0  0  0  0
 13  5  1  1  0  0  0
 14 18  1  6  0  0  0
 14  4  1  0  0  0  0
 16  7  1  1  0  0  0
 16 14  1  0  0  0  0
 17  8  1  1  0  0  0
 17 21  1  0  0  0  0
 19 20  1  0  0  0  0
 20  1  1  0  0  0  0
 21  3  1  1  0  0  0
 22 26  1  0  0  0  0
 23 27  1  0  0  0  0
 24 25  1  0  0  0  0
 24 23  2  0  0  0  0
 25 22  2  0  0  0  0
 27 26  2  0  0  0  0
M  END
>  <MODEL>
1

>  <REMARK>
 VINA RESULT:      -7.1      0.000      0.000
  Name = 
  1 active torsions:
  status: ('A' for Active; 'I' for Inactive)
    1  A    between atoms: C_9  and  C_15
                            x       y       z     vdW  Elec       q    Type
                         _______ _______ _______ _____ _____    ______ ____

>  <TORSDO>
F 1

$$$$
=
 OpenBabel10262420013D

 27 31  0  0  1  0  0  0  0  0999 V2000
  188.5550  177.9390  137.2480 C   0  0  2  0  0  0  0  0  0  0  0  0
  187.0760  178.1290  139.2670 C   0  0  0  0  0  0  0  0  0  0  0  0
  189.4280  177.6580  139.5090 O   0  0  0  0  0  0  0  0  0  0  0  0
  186.7170  178.1680  143.5790 C   0  0  0  0  0  2  0  0  0  0  0  0
  187.5190  177.4540  145.8170 C   0  0  0  0  0  1  0  0  0  0  0  0
  186.0470  178.7620  139.8550 C   0  0  0  0  0  3  0  0  0  0  0  0
  188.9490  176.7240  142.3350 C   0  0  0  0  0  2  0  0  0  0  0  0
  191.4460  175.6480  138.3590 C   0  0  0  0  0  1  0  0  0  0  0  0
  188.9430  177.0550  143.8230 C   0  0  0  0  0  2  0  0  0  0  0  0
  190.8900  176.7160  136.1780 C   0  0  0  0  0  2  0  0  0  0  0  0
  188.1570  177.4100  140.0660 C   0  0  1  0  0  3  0  0  0  0  0  0
  187.0950  177.9530  137.7690 C   0  0  2  0  0  3  0  0  0  0  0  0
  187.5100  177.1110  144.3420 C   0  0  2  0  0  3  0  0  0  0  0  0
  186.7170  177.8550  142.0860 C   0  0  2  0  0  3  0  0  0  0  0  0
  189.0580  179.3780  137.2240 C   0  0  0  0  0  1  0  0  0  0  0  0
  188.1560  177.7720  141.5540 C   0  0  1  0  0  3  0  0  0  0  0  0
  190.8520  176.8790  137.7030 C   0  0  1  0  0  3  0  0  0  0  0  0
  185.9750  178.9590  141.3440 C   0  0  0  0  0  2  0  0  0  0  0  0
  189.5880  176.2930  135.6630 N   0  0  0  0  0  2  0  0  0  0  0  0
  188.6460  177.4080  135.7990 C   0  0  0  0  0  2  0  0  0  0  0  0
  189.4250  177.0940  138.2180 C   0  0  2  0  0  3  0  0  0  0  0  0
  184.7270  174.5470  136.6000 C   0  0  0  0  0  3  0  0  0  0  0  0
  186.2810  176.7490  137.3670 C   0  0  0  0  0  0  0  0  0  0  0  0
  186.7750  175.4440  137.5240 C   0  0  0  0  0  3  0  0  0  0  0  0
  185.9990  174.3470  137.1410 C   0  0  0  0  0  3  0  0  0  0  0  0
  184.2290  175.8450  136.4430 C   0  0  0  0  0  3  0  0  0  0  0  0
  185.0060  176.9420  136.8260 C   0  0  0  0  0  3  0  0  0  0  0  0
  1 15  1  1  0  0  0
  1 12  1  0  0  0  0
  1 21  1  0  0  0  0
  2  6  2  0  0  0  0
  3 11  1  0  0  0  0
  4 13  1  0  0  0  0
  6 18  1  0  0  0  0
  7  9  1  0  0  0  0
  9 13  1  0  0  0  0
 10 17  1  0  0  0  0
 11  2  1  6  0  0  0
 11 16  1  0  0  0  0
 12 23  1  1  0  0  0
 12  2  1  0  0  0  0
 13  5  1  1  0  0  0
 14 18  1  6  0  0  0
 14  4  1  0  0  0  0
 16 14  1  0  0  0  0
 16  7  1  1  0  0  0
 17 21  1  0  0  0  0
 17  8  1  1  0  0  0
 19 20  1  0  0  0  0
 19 10  1  0  0  0  0
 20  1  1  0  0  0  0
 21  3  1  1  0  0  0
 22 25  1  0  0  0  0
 23 24  1  0  0  0  0
 25 24  2  0  0  0  0
 26 22  2  0  0  0  0
 26 27  1  0  0  0  0
 27 23  2  0  0  0  0
M  END
>  <MODEL>
2

>  <REMARK>
 VINA RESULT:      -7.0      3.968      5.404
  Name = 
  1 active torsions:
  status: ('A' for Active; 'I' for Inactive)
    1  A    between atoms: C_9  and  C_15
                            x       y       z     vdW  Elec       q    Type
                         _______ _______ _______ _____ _____    ______ ____

>  <TORSDO>
F 1

$$$$
=
 OpenBabel10262420013D

 27 31  0  0  1  0  0  0  0  0999 V2000
  188.7550  177.8510  137.1890 C   0  0  2  0  0  0  0  0  0  0  0  0
  187.5290  178.0000  139.3740 C   0  0  0  0  0  0  0  0  0  0  0  0
  189.8860  177.4940  139.3210 O   0  0  0  0  0  0  0  0  0  0  0  0
  187.6850  177.9170  143.6980 C   0  0  0  0  0  2  0  0  0  0  0  0
  188.7350  177.1270  145.8030 C   0  0  0  0  0  1  0  0  0  0  0  0
  186.5870  178.6280  140.0970 C   0  0  0  0  0  3  0  0  0  0  0  0
  189.7310  176.4830  142.1570 C   0  0  0  0  0  2  0  0  0  0  0  0
  191.7220  175.4930  137.8840 C   0  0  0  0  0  1  0  0  0  0  0  0
  189.9060  176.7690  143.6440 C   0  0  0  0  0  2  0  0  0  0  0  0
  190.9270  176.6310  135.8150 C   0  0  0  0  0  2  0  0  0  0  0  0
  188.6860  177.2450  140.0180 C   0  0  1  0  0  3  0  0  0  0  0  0
  187.3680  177.8670  137.8800 C   0  0  2  0  0  3  0  0  0  0  0  0
  188.5460  176.8280  144.3310 C   0  0  2  0  0  3  0  0  0  0  0  0
  187.5020  177.6470  142.2070 C   0  0  2  0  0  3  0  0  0  0  0  0
  189.2740  179.2840  137.1450 C   0  0  0  0  0  1  0  0  0  0  0  0
  188.8670  177.5630  141.5050 C   0  0  1  0  0  3  0  0  0  0  0  0
  191.0730  176.7500  137.3380 C   0  0  1  0  0  3  0  0  0  0  0  0
  186.6960  178.7820  141.5890 C   0  0  0  0  0  2  0  0  0  0  0  0
  189.5680  176.2400  135.4470 N   0  0  0  0  0  2  0  0  0  0  0  0
  188.6660  177.3620  135.7250 C   0  0  0  0  0  2  0  0  0  0  0  0
  189.7210  176.9680  138.0250 C   0  0  2  0  0  3  0  0  0  0  0  0
  184.9160  174.4540  136.9280 C   0  0  0  0  0  3  0  0  0  0  0  0
  186.4940  176.6860  137.5440 C   0  0  0  0  0  0  0  0  0  0  0  0
  185.1300  176.8430  137.2490 C   0  0  0  0  0  3  0  0  0  0  0  0
  184.3440  175.7280  136.9420 C   0  0  0  0  0  3  0  0  0  0  0  0
  186.2740  174.2930  137.2190 C   0  0  0  0  0  3  0  0  0  0  0  0
  187.0600  175.4070  137.5260 C   0  0  0  0  0  3  0  0  0  0  0  0
  1 15  1  6  0  0  0
  1 12  1  0  0  0  0
  1 21  1  0  0  0  0
  2 11  1  0  0  0  0
  2  6  2  0  0  0  0
  4 13  1  0  0  0  0
  6 18  1  0  0  0  0
  7  9  1  0  0  0  0
  9 13  1  0  0  0  0
 10 17  1  0  0  0  0
 11  3  1  6  0  0  0
 11 16  1  0  0  0  0
 12 23  1  1  0  0  0
 12  2  1  0  0  0  0
 13  5  1  1  0  0  0
 14 18  1  6  0  0  0
 14  4  1  0  0  0  0
 16  7  1  1  0  0  0
 16 14  1  0  0  0  0
 17  8  1  1  0  0  0
 17 21  1  0  0  0  0
 19 20  1  0  0  0  0
 19 10  1  0  0  0  0
 20  1  1  0  0  0  0
 21  3  1  1  0  0  0
 22 25  2  0  0  0  0
 22 26  1  0  0  0  0
 24 23  2  0  0  0  0
 25 24  1  0  0  0  0
 26 27  2  0  0  0  0
 27 23  1  0  0  0  0
M  END
>  <MODEL>
3

>  <REMARK>
 VINA RESULT:      -6.8      4.171      5.764
  Name = 
  1 active torsions:
  status: ('A' for Active; 'I' for Inactive)
    1  A    between atoms: C_9  and  C_15
                            x       y       z     vdW  Elec       q    Type
                         _______ _______ _______ _____ _____    ______ ____

>  <TORSDO>
F 1

$$$$
=
 OpenBabel10262420013D

 27 31  0  0  1  0  0  0  0  0999 V2000
  188.3420  178.0040  137.4070 C   0  0  2  0  0  0  0  0  0  0  0  0
  186.0800  178.2970  138.4550 C   0  0  0  0  0  0  0  0  0  0  0  0
  188.0750  178.3570  139.8060 O   0  0  0  0  0  0  0  0  0  0  0  0
  183.7430  179.1210  142.0020 C   0  0  0  0  0  2  0  0  0  0  0  0
  183.4600  179.0390  144.4650 C   0  0  0  0  0  1  0  0  0  0  0  0
  184.8460  178.8180  138.3460 C   0  0  0  0  0  3  0  0  0  0  0  0
  186.4090  177.9280  142.2820 C   0  0  0  0  0  2  0  0  0  0  0  0
  190.5570  176.5960  140.2270 C   0  0  0  0  0  1  0  0  0  0  0  0
  185.6790  178.5400  143.4730 C   0  0  0  0  0  2  0  0  0  0  0  0
  190.9990  177.0770  137.8230 C   0  0  0  0  0  2  0  0  0  0  0  0
  186.7170  177.9790  139.8020 C   0  0  1  0  0  3  0  0  0  0  0  0
  186.8120  177.8330  137.2200 C   0  0  2  0  0  3  0  0  0  0  0  0
  184.1720  178.4150  143.2840 C   0  0  2  0  0  3  0  0  0  0  0  0
  184.4670  178.5230  140.7990 C   0  0  2  0  0  3  0  0  0  0  0  0
  188.6750  179.4790  137.2190 C   0  0  0  0  0  1  0  0  0  0  0  0
  185.9900  178.6220  140.9860 C   0  0  1  0  0  3  0  0  0  0  0  0
  190.2380  177.5300  139.0760 C   0  0  1  0  0  3  0  0  0  0  0  0
  184.0700  179.2890  139.5440 C   0  0  0  0  0  2  0  0  0  0  0  0
  190.1310  176.3120  136.9290 N   0  0  0  0  0  2  0  0  0  0  0  0
  189.1450  177.2240  136.3410 C   0  0  0  0  0  2  0  0  0  0  0  0
  188.7240  177.5580  138.8440 C   0  0  2  0  0  3  0  0  0  0  0  0
  185.5650  173.8640  136.0970 C   0  0  0  0  0  3  0  0  0  0  0  0
  186.3860  176.4360  136.8430 C   0  0  0  0  0  0  0  0  0  0  0  0
  186.7900  175.3200  137.5920 C   0  0  0  0  0  3  0  0  0  0  0  0
  186.3790  174.0360  137.2180 C   0  0  0  0  0  3  0  0  0  0  0  0
  185.1580  174.9730  135.3490 C   0  0  0  0  0  3  0  0  0  0  0  0
  185.5680  176.2560  135.7230 C   0  0  0  0  0  3  0  0  0  0  0  0
  1 15  1  6  0  0  0
  1 21  1  0  0  0  0
  4 13  1  0  0  0  0
  6  2  2  0  0  0  0
  6 18  1  0  0  0  0
  7  9  1  0  0  0  0
 10 17  1  0  0  0  0
 11  2  1  6  0  0  0
 11  3  1  0  0  0  0
 11 16  1  0  0  0  0
 12 23  1  1  0  0  0
 12  1  1  0  0  0  0
 12  2  1  0  0  0  0
 13  9  1  0  0  0  0
 13  5  1  1  0  0  0
 14 18  1  6  0  0  0
 14 16  1  0  0  0  0
 14  4  1  0  0  0  0
 16  7  1  1  0  0  0
 17  8  1  1  0  0  0
 19 10  1  0  0  0  0
 20 19  1  0  0  0  0
 20  1  1  0  0  0  0
 21 17  1  0  0  0  0
 21  3  1  1  0  0  0
 22 25  1  0  0  0  0
 23 24  1  0  0  0  0
 25 24  2  0  0  0  0
 26 27  1  0  0  0  0
 26 22  2  0  0  0  0
 27 23  2  0  0  0  0
M  END
>  <MODEL>
4

>  <REMARK>
 VINA RESULT:      -6.7      3.262      5.428
  Name = 
  1 active torsions:
  status: ('A' for Active; 'I' for Inactive)
    1  A    between atoms: C_9  and  C_15
                            x       y       z     vdW  Elec       q    Type
                         _______ _______ _______ _____ _____    ______ ____

>  <TORSDO>
F 1

$$$$
=
 OpenBabel10262420013D

 27 31  0  0  1  0  0  0  0  0999 V2000
  181.1990  177.0480  139.3440 C   0  0  2  0  0  0  0  0  0  0  0  0
  180.6630  179.4670  139.7500 C   0  0  0  0  0  0  0  0  0  0  0  0
  180.6700  178.5700  137.5120 O   0  0  0  0  0  0  0  0  0  0  0  0
  179.4290  183.2870  138.1350 C   0  0  0  0  0  2  0  0  0  0  0  0
  179.3280  184.9020  136.2540 C   0  0  0  0  0  1  0  0  0  0  0  0
  180.0550  180.3690  140.5370 C   0  0  0  0  0  3  0  0  0  0  0  0
  180.8060  181.3670  136.3940 C   0  0  0  0  0  2  0  0  0  0  0  0
  182.5880  176.9380  135.7520 C   0  0  0  0  0  1  0  0  0  0  0  0
  180.0620  182.5700  135.8250 C   0  0  0  0  0  2  0  0  0  0  0  0
  182.3000  175.1840  137.4990 C   0  0  0  0  0  2  0  0  0  0  0  0
  180.9410  179.7250  138.2740 C   0  0  1  0  0  3  0  0  0  0  0  0
  181.2620  178.2210  140.3560 C   0  0  2  0  0  3  0  0  0  0  0  0
  180.0820  183.7200  136.8260 C   0  0  2  0  0  3  0  0  0  0  0  0
  180.1590  182.0800  138.7170 C   0  0  2  0  0  3  0  0  0  0  0  0
  179.7690  176.5190  139.3280 C   0  0  0  0  0  1  0  0  0  0  0  0
  180.1670  180.9200  137.7090 C   0  0  1  0  0  3  0  0  0  0  0  0
  181.7090  176.4640  136.8940 C   0  0  1  0  0  3  0  0  0  0  0  0
  179.4480  181.6300  139.9870 C   0  0  0  0  0  2  0  0  0  0  0  0
  183.0520  175.4790  138.7180 N   0  0  0  0  0  2  0  0  0  0  0  0
  182.1060  175.8710  139.7680 C   0  0  0  0  0  2  0  0  0  0  0  0
  181.5790  177.5800  137.9360 C   0  0  2  0  0  3  0  0  0  0  0  0
  185.1870  179.0220  141.9440 C   0  0  0  0  0  3  0  0  0  0  0  0
  182.6420  178.5040  140.8920 C   0  0  0  0  0  0  0  0  0  0  0  0
  183.7270  178.7450  140.0340 C   0  0  0  0  0  3  0  0  0  0  0  0
  184.9960  179.0030  140.5610 C   0  0  0  0  0  3  0  0  0  0  0  0
  184.1090  178.7850  142.8030 C   0  0  0  0  0  3  0  0  0  0  0  0
  182.8400  178.5270  142.2770 C   0  0  0  0  0  3  0  0  0  0  0  0
  1 15  1  6  0  0  0
  1 20  1  0  0  0  0
  1 12  1  0  0  0  0
  2 12  1  0  0  0  0
  2  6  2  0  0  0  0
  9  7  1  0  0  0  0
  9 13  1  0  0  0  0
 10 19  1  0  0  0  0
 11  3  1  6  0  0  0
 11  2  1  0  0  0  0
 12 23  1  6  0  0  0
 13  5  1  6  0  0  0
 13  4  1  0  0  0  0
 14  4  1  6  0  0  0
 14 18  1  0  0  0  0
 16  7  1  6  0  0  0
 16 11  1  0  0  0  0
 16 14  1  0  0  0  0
 17  8  1  6  0  0  0
 17 10  1  0  0  0  0
 17 21  1  0  0  0  0
 18  6  1  0  0  0  0
 19 20  1  0  0  0  0
 21  3  1  6  0  0  0
 21  1  1  0  0  0  0
 22 26  1  0  0  0  0
 23 27  1  0  0  0  0
 24 25  1  0  0  0  0
 24 23  2  0  0  0  0
 25 22  2  0  0  0  0
 27 26  2  0  0  0  0
M  END
>  <MODEL>
5

>  <REMARK>
 VINA RESULT:      -6.3      2.739      6.343
  Name = 
  1 active torsions:
  status: ('A' for Active; 'I' for Inactive)
    1  A    between atoms: C_9  and  C_15
                            x       y       z     vdW  Elec       q    Type
                         _______ _______ _______ _____ _____    ______ ____

>  <TORSDO>
F 1

$$$$
=
 OpenBabel10262420013D

 27 31  0  0  1  0  0  0  0  0999 V2000
  180.9470  178.1120  139.8080 C   0  0  2  0  0  0  0  0  0  0  0  0
  183.0580  178.1680  138.4510 C   0  0  0  0  0  0  0  0  0  0  0  0
  183.1460  177.9280  140.8490 O   0  0  0  0  0  0  0  0  0  0  0  0
  187.3720  177.8440  138.3360 C   0  0  0  0  0  2  0  0  0  0  0  0
  189.5830  178.0960  139.4330 C   0  0  0  0  0  1  0  0  0  0  0  0
  183.6790  177.8030  137.3180 C   0  0  0  0  0  3  0  0  0  0  0  0
  186.0600  178.7010  140.8180 C   0  0  0  0  0  2  0  0  0  0  0  0
  181.9850  179.3780  143.2950 C   0  0  0  0  0  1  0  0  0  0  0  0
  187.5170  178.2530  140.7990 C   0  0  0  0  0  2  0  0  0  0  0  0
  179.7850  178.7130  142.3340 C   0  0  0  0  0  2  0  0  0  0  0  0
  183.8180  178.4750  139.7360 C   0  0  1  0  0  3  0  0  0  0  0  0
  181.5790  178.4660  138.4370 C   0  0  2  0  0  3  0  0  0  0  0  0
  188.1420  178.5590  139.4420 C   0  0  2  0  0  3  0  0  0  0  0  0
  185.9090  178.2780  138.3440 C   0  0  2  0  0  3  0  0  0  0  0  0
  180.7820  176.5980  139.8710 C   0  0  0  0  0  1  0  0  0  0  0  0
  185.2720  177.9960  139.7140 C   0  0  1  0  0  3  0  0  0  0  0  0
  181.2920  178.4310  142.3350 C   0  0  1  0  0  3  0  0  0  0  0  0
  185.1520  177.5010  137.2740 C   0  0  0  0  0  2  0  0  0  0  0  0
  179.4050  179.5320  141.1840 N   0  0  0  0  0  2  0  0  0  0  0  0
  179.5370  178.7230  139.9680 C   0  0  0  0  0  2  0  0  0  0  0  0
  181.9020  178.5830  140.9370 C   0  0  2  0  0  3  0  0  0  0  0  0
  180.8310  182.4940  137.1020 C   0  0  0  0  0  3  0  0  0  0  0  0
  181.3280  179.8830  137.9860 C   0  0  0  0  0  0  0  0  0  0  0  0
  181.8060  180.9810  138.7190 C   0  0  0  0  0  3  0  0  0  0  0  0
  181.5570  182.2840  138.2760 C   0  0  0  0  0  3  0  0  0  0  0  0
  180.3540  181.4040  136.3680 C   0  0  0  0  0  3  0  0  0  0  0  0
  180.6030  180.1010  136.8100 C   0  0  0  0  0  3  0  0  0  0  0  0
  1 15  1  1  0  0  0
  1 20  1  0  0  0  0
  1 21  1  0  0  0  0
  4 14  1  0  0  0  0
  4 13  1  0  0  0  0
  6  2  2  0  0  0  0
  9  7  1  0  0  0  0
 10 17  1  0  0  0  0
 11  2  1  6  0  0  0
 11  3  1  0  0  0  0
 12 23  1  1  0  0  0
 12  2  1  0  0  0  0
 12  1  1  0  0  0  0
 13  5  1  1  0  0  0
 13  9  1  0  0  0  0
 14 18  1  6  0  0  0
 14 16  1  0  0  0  0
 16 11  1  0  0  0  0
 16  7  1  1  0  0  0
 17  8  1  1  0  0  0
 18  6  1  0  0  0  0
 19 10  1  0  0  0  0
 20 19  1  0  0  0  0
 21  3  1  1  0  0  0
 21 17  1  0  0  0  0
 22 25  1  0  0  0  0
 23 24  1  0  0  0  0
 25 24  2  0  0  0  0
 26 27  1  0  0  0  0
 26 22  2  0  0  0  0
 27 23  2  0  0  0  0
M  END
>  <MODEL>
6

>  <REMARK>
 VINA RESULT:      -6.1      2.384      5.357
  Name = 
  1 active torsions:
  status: ('A' for Active; 'I' for Inactive)
    1  A    between atoms: C_9  and  C_15
                            x       y       z     vdW  Elec       q    Type
                         _______ _______ _______ _____ _____    ______ ____

>  <TORSDO>
F 1

$$$$
=
 OpenBabel10262420013D

 27 31  0  0  1  0  0  0  0  0999 V2000
  188.5940  177.3010  137.3230 C   0  0  2  0  0  0  0  0  0  0  0  0
  186.2430  177.0230  136.4900 C   0  0  0  0  0  0  0  0  0  0  0  0
  186.6950  178.2970  138.4860 O   0  0  0  0  0  0  0  0  0  0  0  0
  182.0480  178.0020  136.9050 C   0  0  0  0  0  2  0  0  0  0  0  0
  180.1120  178.6390  138.3200 C   0  0  0  0  0  1  0  0  0  0  0  0
  185.4240  176.9560  135.4270 C   0  0  0  0  0  3  0  0  0  0  0  0
  183.7890  178.1030  139.2660 C   0  0  0  0  0  2  0  0  0  0  0  0
  188.2320  177.8860  141.1140 C   0  0  0  0  0  1  0  0  0  0  0  0
  182.4040  178.7420  139.2670 C   0  0  0  0  0  2  0  0  0  0  0  0
  190.2200  177.6740  139.6280 C   0  0  0  0  0  2  0  0  0  0  0  0
  185.7560  177.4430  137.8720 C   0  0  1  0  0  3  0  0  0  0  0  0
  187.6540  176.4980  136.3880 C   0  0  2  0  0  3  0  0  0  0  0  0
  181.4780  177.9860  138.3210 C   0  0  2  0  0  3  0  0  0  0  0  0
  183.4370  177.3700  136.8870 C   0  0  2  0  0  3  0  0  0  0  0  0
  188.8940  178.6370  136.6530 C   0  0  0  0  0  1  0  0  0  0  0  0
  184.3760  178.1070  137.8550 C   0  0  1  0  0  3  0  0  0  0  0  0
  188.7770  178.1830  139.7310 C   0  0  1  0  0  3  0  0  0  0  0  0
  184.0080  177.4580  135.4770 C   0  0  0  0  0  2  0  0  0  0  0  0
  190.2740  176.3830  138.9440 N   0  0  0  0  0  2  0  0  0  0  0  0
  189.9500  176.5890  137.5290 C   0  0  0  0  0  2  0  0  0  0  0  0
  187.8700  177.5430  138.6750 C   0  0  2  0  0  3  0  0  0  0  0  0
  187.7920  172.2350  137.0000 C   0  0  0  0  0  3  0  0  0  0  0  0
  187.6830  175.0070  136.6100 C   0  0  0  0  0  0  0  0  0  0  0  0
  186.6090  174.3350  137.2150 C   0  0  0  0  0  3  0  0  0  0  0  0
  186.6650  172.9520  137.4090 C   0  0  0  0  0  3  0  0  0  0  0  0
  188.8630  172.9000  136.3950 C   0  0  0  0  0  3  0  0  0  0  0  0
  188.8080  174.2830  136.2010 C   0  0  0  0  0  3  0  0  0  0  0  0
  1 15  1  6  0  0  0
  1 20  1  0  0  0  0
  1 21  1  0  0  0  0
  4 13  1  0  0  0  0
  6 18  1  0  0  0  0
  6  2  2  0  0  0  0
  7  9  1  0  0  0  0
 10 17  1  0  0  0  0
 11  2  1  6  0  0  0
 11  3  1  0  0  0  0
 12  2  1  0  0  0  0
 12 23  1  1  0  0  0
 12  1  1  0  0  0  0
 13  5  1  6  0  0  0
 13  9  1  0  0  0  0
 14 18  1  6  0  0  0
 14  4  1  0  0  0  0
 14 16  1  0  0  0  0
 16 11  1  0  0  0  0
 16  7  1  1  0  0  0
 17  8  1  1  0  0  0
 19 10  1  0  0  0  0
 20 19  1  0  0  0  0
 21  3  1  6  0  0  0
 21 17  1  0  0  0  0
 22 25  1  0  0  0  0
 23 24  1  0  0  0  0
 24 25  2  0  0  0  0
 26 22  2  0  0  0  0
 27 26  1  0  0  0  0
 27 23  2  0  0  0  0
M  END
>  <MODEL>
7

>  <REMARK>
 VINA RESULT:      -5.9      3.477      7.274
  Name = 
  1 active torsions:
  status: ('A' for Active; 'I' for Inactive)
    1  A    between atoms: C_9  and  C_15
                            x       y       z     vdW  Elec       q    Type
                         _______ _______ _______ _____ _____    ______ ____

>  <TORSDO>
F 1

$$$$
=
 OpenBabel10262420013D

 27 31  0  0  1  0  0  0  0  0999 V2000
  187.3200  177.2800  136.2320 C   0  0  2  0  0  0  0  0  0  0  0  0
  184.8300  177.1230  136.5100 C   0  0  0  0  0  0  0  0  0  0  0  0
  186.1730  178.3040  138.1270 O   0  0  0  0  0  0  0  0  0  0  0  0
  181.2940  178.2460  138.7370 C   0  0  0  0  0  2  0  0  0  0  0  0
  180.2060  178.9040  140.8680 C   0  0  0  0  0  1  0  0  0  0  0  0
  183.6270  177.1280  135.9120 C   0  0  0  0  0  3  0  0  0  0  0  0
  183.8940  178.1930  140.0980 C   0  0  0  0  0  2  0  0  0  0  0  0
  188.6800  177.7360  139.8080 C   0  0  0  0  0  1  0  0  0  0  0  0
  182.6830  178.8830  140.7160 C   0  0  0  0  0  2  0  0  0  0  0  0
  189.8060  177.5030  137.5970 C   0  0  0  0  0  2  0  0  0  0  0  0
  185.0170  177.5100  137.9710 C   0  0  1  0  0  3  0  0  0  0  0  0
  186.0260  176.5490  135.7900 C   0  0  2  0  0  3  0  0  0  0  0  0
  181.3990  178.2000  140.2590 C   0  0  2  0  0  3  0  0  0  0  0  0
  182.5010  177.5620  138.1010 C   0  0  2  0  0  3  0  0  0  0  0  0
  187.3640  178.6270  135.5210 C   0  0  0  0  0  1  0  0  0  0  0  0
  183.8040  178.2270  138.5720 C   0  0  1  0  0  3  0  0  0  0  0  0
  188.5800  178.0640  138.3300 C   0  0  1  0  0  3  0  0  0  0  0  0
  182.4020  177.6810  136.5860 C   0  0  0  0  0  2  0  0  0  0  0  0
  189.4890  176.2380  136.9380 N   0  0  0  0  0  2  0  0  0  0  0  0
  188.5910  176.5090  135.8110 C   0  0  0  0  0  2  0  0  0  0  0  0
  187.2720  177.4980  137.7690 C   0  0  2  0  0  3  0  0  0  0  0  0
  186.1680  172.2610  136.1950 C   0  0  0  0  0  3  0  0  0  0  0  0
  186.0730  175.0510  135.9520 C   0  0  0  0  0  0  0  0  0  0  0  0
  186.0080  174.4480  137.2190 C   0  0  0  0  0  3  0  0  0  0  0  0
  186.0560  173.0560  137.3380 C   0  0  0  0  0  3  0  0  0  0  0  0
  186.2310  172.8570  134.9310 C   0  0  0  0  0  3  0  0  0  0  0  0
  186.1830  174.2490  134.8120 C   0  0  0  0  0  3  0  0  0  0  0  0
  1 15  1  6  0  0  0
  1 21  1  0  0  0  0
  4 13  1  0  0  0  0
  6  2  2  0  0  0  0
  6 18  1  0  0  0  0
  7  9  1  0  0  0  0
 10 17  1  0  0  0  0
 11  2  1  6  0  0  0
 11  3  1  0  0  0  0
 11 16  1  0  0  0  0
 12 23  1  1  0  0  0
 12  1  1  0  0  0  0
 12  2  1  0  0  0  0
 13  9  1  0  0  0  0
 13  5  1  1  0  0  0
 14 18  1  6  0  0  0
 14 16  1  0  0  0  0
 14  4  1  0  0  0  0
 16  7  1  1  0  0  0
 17  8  1  1  0  0  0
 19 10  1  0  0  0  0
 20  1  1  0  0  0  0
 20 19  1  0  0  0  0
 21  3  1  6  0  0  0
 21 17  1  0  0  0  0
 22 25  1  0  0  0  0
 23 24  1  0  0  0  0
 24 25  2  0  0  0  0
 26 22  2  0  0  0  0
 27 26  1  0  0  0  0
 27 23  2  0  0  0  0
M  END
>  <MODEL>
8

>  <REMARK>
 VINA RESULT:      -5.8      3.274      6.273
  Name = 
  1 active torsions:
  status: ('A' for Active; 'I' for Inactive)
    1  A    between atoms: C_9  and  C_15
                            x       y       z     vdW  Elec       q    Type
                         _______ _______ _______ _____ _____    ______ ____

>  <TORSDO>
F 1

$$$$
=
 OpenBabel10262420013D

 27 31  0  0  1  0  0  0  0  0999 V2000
  187.3020  177.7510  136.8470 C   0  0  2  0  0  0  0  0  0  0  0  0
  184.9060  177.8020  137.5980 C   0  0  0  0  0  0  0  0  0  0  0  0
  186.6730  178.5070  139.0810 O   0  0  0  0  0  0  0  0  0  0  0  0
  182.0270  178.8380  140.6580 C   0  0  0  0  0  2  0  0  0  0  0  0
  181.4480  179.1840  143.0450 C   0  0  0  0  0  1  0  0  0  0  0  0
  183.6270  178.0460  137.2690 C   0  0  0  0  0  3  0  0  0  0  0  0
  184.7990  178.2570  141.4290 C   0  0  0  0  0  2  0  0  0  0  0  0
  189.3420  177.3720  140.0930 C   0  0  0  0  0  1  0  0  0  0  0  0
  183.8290  178.9380  142.3890 C   0  0  0  0  0  2  0  0  0  0  0  0
  190.0010  177.4520  137.6920 C   0  0  0  0  0  2  0  0  0  0  0  0
  185.4100  177.8810  139.0340 C   0  0  1  0  0  3  0  0  0  0  0  0
  185.8600  177.2560  136.5630 C   0  0  2  0  0  3  0  0  0  0  0  0
  182.4010  178.4900  142.0960 C   0  0  2  0  0  3  0  0  0  0  0  0
  182.9910  178.1670  139.6830 C   0  0  2  0  0  3  0  0  0  0  0  0
  187.4020  179.1980  136.3770 C   0  0  0  0  0  1  0  0  0  0  0  0
  184.4380  178.5910  139.9820 C   0  0  1  0  0  3  0  0  0  0  0  0
  189.0200  177.9850  138.7440 C   0  0  1  0  0  3  0  0  0  0  0  0
  182.6350  178.5830  138.2620 C   0  0  0  0  0  2  0  0  0  0  0  0
  189.3970  176.3750  136.9090 N   0  0  0  0  0  2  0  0  0  0  0  0
  188.3550  176.9480  136.0510 C   0  0  0  0  0  2  0  0  0  0  0  0
  187.5650  177.6760  138.3760 C   0  0  2  0  0  3  0  0  0  0  0  0
  185.4900  172.9780  136.2070 C   0  0  0  0  0  3  0  0  0  0  0  0
  185.7280  175.7580  136.4590 C   0  0  0  0  0  0  0  0  0  0  0  0
  185.5480  174.9570  137.5980 C   0  0  0  0  0  3  0  0  0  0  0  0
  185.4300  173.5700  137.4700 C   0  0  0  0  0  3  0  0  0  0  0  0
  185.6670  173.7720  135.0690 C   0  0  0  0  0  3  0  0  0  0  0  0
  185.7850  175.1590  135.1970 C   0  0  0  0  0  3  0  0  0  0  0  0
  1 15  1  6  0  0  0
  1 21  1  0  0  0  0
  4 13  1  0  0  0  0
  6  2  2  0  0  0  0
  6 18  1  0  0  0  0
  7  9  1  0  0  0  0
 10 17  1  0  0  0  0
 11  2  1  6  0  0  0
 11  3  1  0  0  0  0
 11 16  1  0  0  0  0
 12 23  1  1  0  0  0
 12  1  1  0  0  0  0
 12  2  1  0  0  0  0
 13  9  1  0  0  0  0
 13  5  1  1  0  0  0
 14 18  1  6  0  0  0
 14 16  1  0  0  0  0
 14  4  1  0  0  0  0
 16  7  1  1  0  0  0
 17  8  1  1  0  0  0
 19 10  1  0  0  0  0
 20  1  1  0  0  0  0
 20 19  1  0  0  0  0
 21 17  1  0  0  0  0
 21  3  1  1  0  0  0
 22 25  1  0  0  0  0
 23 24  1  0  0  0  0
 25 24  2  0  0  0  0
 26 27  1  0  0  0  0
 26 22  2  0  0  0  0
 27 23  2  0  0  0  0
M  END
>  <MODEL>
9

>  <REMARK>
 VINA RESULT:      -5.8      2.799      5.408
  Name = 
  1 active torsions:
  status: ('A' for Active; 'I' for Inactive)
    1  A    between atoms: C_9  and  C_15
                            x       y       z     vdW  Elec       q    Type
                         _______ _______ _______ _____ _____    ______ ____

>  <TORSDO>
F 1

$$$$
