=
 OpenBabel10252415083D

 34 37  0  0  1  0  0  0  0  0999 V2000
  187.9130  177.5720  144.3570 N   0  0  0  0  0  0  0  0  0  0  0  0
  186.0770  178.2380  142.7280 C   0  0  1  0  0  3  0  0  0  0  0  0
  185.7470  178.0710  145.1130 O   0  0  0  0  0  0  0  0  0  0  0  0
  188.8560  177.5570  143.2350 C   0  0  1  0  0  3  0  0  0  0  0  0
  187.1480  178.6050  141.8890 O   0  0  0  0  0  0  0  0  0  0  0  0
  188.0670  177.5400  141.9110 C   0  0  1  0  0  3  0  0  0  0  0  0
  186.5530  178.0030  144.1460 C   0  0  0  0  0  0  0  0  0  0  0  0
  189.4160  178.3870  138.4700 C   0  0  0  0  0  0  0  0  0  0  0  0
  190.4970  177.5090  138.3600 C   0  0  0  0  0  3  0  0  0  0  0  0
  188.9320  177.5260  140.6860 C   0  0  0  0  0  0  0  0  0  0  0  0
  190.7950  176.6350  139.4100 C   0  0  0  0  0  3  0  0  0  0  0  0
  188.6320  178.3920  139.6290 C   0  0  0  0  0  3  0  0  0  0  0  0
  190.0150  176.6420  140.5690 C   0  0  0  0  0  3  0  0  0  0  0  0
  189.1260  179.2350  137.4520 F   0  0  0  0  0  0  0  0  0  0  0  0
  191.1810  178.3240  143.7070 C   0  0  0  0  0  1  0  0  0  0  0  0
  189.7790  178.7680  143.3380 C   0  0  0  0  0  2  0  0  0  0  0  0
  188.3280  176.9810  145.6250 C   0  0  0  0  0  2  0  0  0  0  0  0
  188.4660  178.0400  146.7130 C   0  0  0  0  0  2  0  0  0  0  0  0
  189.5030  177.6500  147.7520 C   0  0  0  0  0  2  0  0  0  0  0  0
  190.2000  176.3640  147.3490 C   0  0  0  0  0  2  0  0  0  0  0  0
  192.5290  176.1090  147.9940 N   0  0  0  0  0  2  0  0  0  0  0  0
  191.6340  176.6600  146.9660 C   0  0  1  0  0  3  0  0  0  0  0  0
  192.3460  175.4140  146.7130 C   0  0  0  0  0  2  0  0  0  0  0  0
  185.0050  179.3180  142.6500 C   0  0  0  0  0  2  0  0  0  0  0  0
  183.6030  178.7530  142.8540 C   0  0  0  0  0  2  0  0  0  0  0  0
  183.1890  177.7910  141.7410 C   0  0  0  0  0  2  0  0  0  0  0  0
  182.7460  178.5320  140.4860 C   0  0  0  0  0  2  0  0  0  0  0  0
  184.9390  179.7950  139.2380 O   0  0  0  0  0  0  0  0  0  0  0  0
  183.4300  178.0030  139.3130 N   0  0  0  0  0  0  0  0  0  0  0  0
  184.5890  178.6730  138.7840 C   0  0  0  0  0  0  0  0  0  0  0  0
  184.6410  177.0180  136.9120 C   0  0  0  0  0  2  0  0  0  0  0  0
  183.8380  176.0880  137.8110 C   0  0  0  0  0  2  0  0  0  0  0  0
  182.8030  176.9010  138.5800 C   0  0  0  0  0  2  0  0  0  0  0  0
  185.4470  178.0010  137.7550 C   0  0  0  0  0  2  0  0  0  0  0  0
  1 17  1  0  0  0  0
  2 24  1  1  0  0  0
  2  7  1  0  0  0  0
  4 16  1  6  0  0  0
  4  1  1  0  0  0  0
  5  6  1  0  0  0  0
  5  2  1  0  0  0  0
  6 10  1  6  0  0  0
  6  4  1  0  0  0  0
  7  1  1  0  0  0  0
  7  3  2  0  0  0  0
  8 12  1  0  0  0  0
  9  8  2  0  0  0  0
  9 11  1  0  0  0  0
 11 13  2  0  0  0  0
 12 10  2  0  0  0  0
 13 10  1  0  0  0  0
 14  8  1  0  0  0  0
 16 15  1  0  0  0  0
 17 18  1  0  0  0  0
 18 19  1  0  0  0  0
 20 19  1  0  0  0  0
 22 20  1  1  0  0  0
 22 21  1  0  0  0  0
 23 22  1  0  0  0  0
 23 21  1  0  0  0  0
 24 25  1  0  0  0  0
 26 25  1  0  0  0  0
 27 26  1  0  0  0  0
 29 27  1  0  0  0  0
 30 28  2  0  0  0  0
 30 29  1  0  0  0  0
 31 34  1  0  0  0  0
 31 32  1  0  0  0  0
 32 33  1  0  0  0  0
 33 29  1  0  0  0  0
 34 30  1  0  0  0  0
M  END
>  <MODEL>
1

>  <REMARK>
 VINA RESULT:      -7.5      0.000      0.000
  Name = 
  12 active torsions:
  status: ('A' for Active; 'I' for Inactive)
    1  A    between atoms: C_2  and  C_15
    2  A    between atoms: C_2  and  C_25
    3  A    between atoms: C_3  and  N_13
    4  A    between atoms: C_3  and  C_17
    5  A    between atoms: N_4  and  C_15
    6  A    between atoms: C_5  and  C_18
    7  A    between atoms: C_6  and  C_9
    8  A    between atoms: C_9  and  C_25
    9  A    between atoms: C_12  and  C_28
   10  A    between atoms: C_17  and  C_29
   11  A    between atoms: C_18  and  C_29
   12  A    between atoms: C_21  and  C_32
                            x       y       z     vdW  Elec       q    Type
                         _______ _______ _______ _____ _____    ______ ____

>  <TORSDO>
F 12

$$$$
=
 OpenBabel10252415083D

 34 37  0  0  1  0  0  0  0  0999 V2000
  187.8680  178.2360  141.6320 N   0  0  0  0  0  0  0  0  0  0  0  0
  185.7390  178.6850  142.9470 C   0  0  1  0  0  3  0  0  0  0  0  0
  185.9060  178.9400  140.5530 O   0  0  0  0  0  0  0  0  0  0  0  0
  188.4980  177.7790  142.8740 C   0  0  1  0  0  3  0  0  0  0  0  0
  186.3160  177.8290  143.9050 O   0  0  0  0  0  0  0  0  0  0  0  0
  187.6500  178.2450  144.0740 C   0  0  1  0  0  3  0  0  0  0  0  0
  186.4720  178.5960  141.6260 C   0  0  0  0  0  0  0  0  0  0  0  0
  190.1100  177.2500  146.7820 C   0  0  0  0  0  0  0  0  0  0  0  0
  189.2640  177.0250  147.8710 C   0  0  0  0  0  3  0  0  0  0  0  0
  188.1970  177.8320  145.4070 C   0  0  0  0  0  0  0  0  0  0  0  0
  187.8830  177.1990  147.7300 C   0  0  0  0  0  3  0  0  0  0  0  0
  189.5760  177.6490  145.5510 C   0  0  0  0  0  3  0  0  0  0  0  0
  187.3510  177.6000  146.5020 C   0  0  0  0  0  3  0  0  0  0  0  0
  191.4490  177.0820  146.9190 F   0  0  0  0  0  0  0  0  0  0  0  0
  190.1110  175.8850  142.7090 C   0  0  0  0  0  1  0  0  0  0  0  0
  188.6480  176.2610  142.8340 C   0  0  0  0  0  2  0  0  0  0  0  0
  188.7170  178.4840  140.4710 C   0  0  0  0  0  2  0  0  0  0  0  0
  188.7760  177.2660  139.5560 C   0  0  0  0  0  2  0  0  0  0  0  0
  188.9080  177.6640  138.0960 C   0  0  0  0  0  2  0  0  0  0  0  0
  190.1290  177.0100  137.4760 C   0  0  0  0  0  2  0  0  0  0  0  0
  190.8390  174.7290  137.9200 N   0  0  0  0  0  2  0  0  0  0  0  0
  190.7780  176.0860  138.4840 C   0  0  1  0  0  3  0  0  0  0  0  0
  192.0370  175.5790  137.9510 C   0  0  0  0  0  2  0  0  0  0  0  0
  184.2600  178.3380  142.8120 C   0  0  0  0  0  2  0  0  0  0  0  0
  183.3920  179.1410  143.7740 C   0  0  0  0  0  2  0  0  0  0  0  0
  181.9190  178.7370  143.7160 C   0  0  0  0  0  2  0  0  0  0  0  0
  181.1830  179.4380  142.5820 C   0  0  0  0  0  2  0  0  0  0  0  0
  182.4440  179.2150  140.0680 O   0  0  0  0  0  0  0  0  0  0  0  0
  180.7910  178.4780  141.5580 N   0  0  0  0  0  0  0  0  0  0  0  0
  181.5370  178.3810  140.3310 C   0  0  0  0  0  0  0  0  0  0  0  0
  179.8870  176.6930  139.5090 C   0  0  0  0  0  2  0  0  0  0  0  0
  179.5340  176.4390  140.9680 C   0  0  0  0  0  2  0  0  0  0  0  0
  179.5230  177.7630  141.7210 C   0  0  0  0  0  2  0  0  0  0  0  0
  181.3100  177.2300  139.3970 C   0  0  0  0  0  2  0  0  0  0  0  0
  1  4  1  0  0  0  0
  2 24  1  6  0  0  0
  2  5  1  0  0  0  0
  3  7  2  0  0  0  0
  4 16  1  6  0  0  0
  4  6  1  0  0  0  0
  5  6  1  0  0  0  0
  6 10  1  1  0  0  0
  7  1  1  0  0  0  0
  7  2  1  0  0  0  0
  8 14  1  0  0  0  0
  8  9  1  0  0  0  0
 10 12  1  0  0  0  0
 10 13  2  0  0  0  0
 11  9  2  0  0  0  0
 12  8  2  0  0  0  0
 13 11  1  0  0  0  0
 15 16  1  0  0  0  0
 17  1  1  0  0  0  0
 18 17  1  0  0  0  0
 19 18  1  0  0  0  0
 20 19  1  0  0  0  0
 21 23  1  0  0  0  0
 21 22  1  0  0  0  0
 22 20  1  6  0  0  0
 23 22  1  0  0  0  0
 24 25  1  0  0  0  0
 26 25  1  0  0  0  0
 27 26  1  0  0  0  0
 28 30  2  0  0  0  0
 29 33  1  0  0  0  0
 29 27  1  0  0  0  0
 30 29  1  0  0  0  0
 31 32  1  0  0  0  0
 32 33  1  0  0  0  0
 34 31  1  0  0  0  0
 34 30  1  0  0  0  0
M  END
>  <MODEL>
2

>  <REMARK>
 VINA RESULT:      -7.2      2.923      5.899
  Name = 
  12 active torsions:
  status: ('A' for Active; 'I' for Inactive)
    1  A    between atoms: C_2  and  C_15
    2  A    between atoms: C_2  and  C_25
    3  A    between atoms: C_3  and  N_13
    4  A    between atoms: C_3  and  C_17
    5  A    between atoms: N_4  and  C_15
    6  A    between atoms: C_5  and  C_18
    7  A    between atoms: C_6  and  C_9
    8  A    between atoms: C_9  and  C_25
    9  A    between atoms: C_12  and  C_28
   10  A    between atoms: C_17  and  C_29
   11  A    between atoms: C_18  and  C_29
   12  A    between atoms: C_21  and  C_32
                            x       y       z     vdW  Elec       q    Type
                         _______ _______ _______ _____ _____    ______ ____

>  <TORSDO>
F 12

$$$$
=
 OpenBabel10252415083D

 34 37  0  0  1  0  0  0  0  0999 V2000
  187.8580  177.5270  144.5050 N   0  0  0  0  0  0  0  0  0  0  0  0
  186.0140  178.1710  142.8770 C   0  0  1  0  0  3  0  0  0  0  0  0
  185.6830  177.9840  145.2600 O   0  0  0  0  0  0  0  0  0  0  0  0
  188.8040  177.5350  143.3850 C   0  0  1  0  0  3  0  0  0  0  0  0
  187.0800  178.5610  142.0420 O   0  0  0  0  0  0  0  0  0  0  0  0
  188.0180  177.5120  142.0590 C   0  0  1  0  0  3  0  0  0  0  0  0
  186.4920  177.9360  144.2940 C   0  0  0  0  0  0  0  0  0  0  0  0
  189.3590  178.4060  138.6270 C   0  0  0  0  0  0  0  0  0  0  0  0
  190.4530  177.5450  138.5120 C   0  0  0  0  0  3  0  0  0  0  0  0
  188.8840  177.5200  140.8350 C   0  0  0  0  0  0  0  0  0  0  0  0
  190.7630  176.6670  139.5560 C   0  0  0  0  0  3  0  0  0  0  0  0
  188.5730  178.3890  139.7850 C   0  0  0  0  0  3  0  0  0  0  0  0
  189.9810  176.6540  140.7140 C   0  0  0  0  0  3  0  0  0  0  0  0
  189.0580  179.2570  137.6150 F   0  0  0  0  0  0  0  0  0  0  0  0
  191.1080  178.3420  143.8900 C   0  0  0  0  0  1  0  0  0  0  0  0
  189.7050  178.7620  143.4960 C   0  0  0  0  0  2  0  0  0  0  0  0
  188.2820  176.9360  145.7700 C   0  0  0  0  0  2  0  0  0  0  0  0
  188.3520  177.9830  146.8760 C   0  0  0  0  0  2  0  0  0  0  0  0
  189.5250  177.7390  147.8110 C   0  0  0  0  0  2  0  0  0  0  0  0
  190.2130  176.4310  147.4680 C   0  0  0  0  0  2  0  0  0  0  0  0
  192.4730  175.7460  148.0430 N   0  0  0  0  0  2  0  0  0  0  0  0
  191.6860  176.6790  147.2230 C   0  0  1  0  0  3  0  0  0  0  0  0
  192.2900  175.5050  146.6050 C   0  0  0  0  0  2  0  0  0  0  0  0
  184.9240  179.2330  142.8030 C   0  0  0  0  0  2  0  0  0  0  0  0
  183.5410  178.6230  142.5940 C   0  0  0  0  0  2  0  0  0  0  0  0
  183.2140  178.3950  141.1190 C   0  0  0  0  0  2  0  0  0  0  0  0
  181.7360  178.6160  140.8250 C   0  0  0  0  0  2  0  0  0  0  0  0
  179.3550  177.6810  142.0130 O   0  0  0  0  0  0  0  0  0  0  0  0
  181.0920  177.3580  140.4730 N   0  0  0  0  0  0  0  0  0  0  0  0
  179.8370  176.9910  141.0750 C   0  0  0  0  0  0  0  0  0  0  0  0
  179.9450  174.8030  139.8720 C   0  0  0  0  0  2  0  0  0  0  0  0
  180.8940  175.4760  138.8900 C   0  0  0  0  0  2  0  0  0  0  0  0
  181.8360  176.4000  139.6520 C   0  0  0  0  0  2  0  0  0  0  0  0
  179.0420  175.8430  140.5290 C   0  0  0  0  0  2  0  0  0  0  0  0
  1 17  1  0  0  0  0
  2 24  1  1  0  0  0
  2  7  1  0  0  0  0
  4 16  1  6  0  0  0
  4  1  1  0  0  0  0
  5  6  1  0  0  0  0
  5  2  1  0  0  0  0
  6 10  1  6  0  0  0
  6  4  1  0  0  0  0
  7  1  1  0  0  0  0
  7  3  2  0  0  0  0
  8 12  1  0  0  0  0
  9  8  2  0  0  0  0
  9 11  1  0  0  0  0
 11 13  2  0  0  0  0
 12 10  2  0  0  0  0
 13 10  1  0  0  0  0
 14  8  1  0  0  0  0
 16 15  1  0  0  0  0
 17 18  1  0  0  0  0
 18 19  1  0  0  0  0
 20 19  1  0  0  0  0
 22 20  1  1  0  0  0
 22 21  1  0  0  0  0
 23 22  1  0  0  0  0
 23 21  1  0  0  0  0
 25 24  1  0  0  0  0
 26 25  1  0  0  0  0
 27 26  1  0  0  0  0
 29 27  1  0  0  0  0
 29 30  1  0  0  0  0
 30 28  2  0  0  0  0
 31 34  1  0  0  0  0
 32 33  1  0  0  0  0
 32 31  1  0  0  0  0
 33 29  1  0  0  0  0
 34 30  1  0  0  0  0
M  END
>  <MODEL>
3

>  <REMARK>
 VINA RESULT:      -7.2      1.765      2.337
  Name = 
  12 active torsions:
  status: ('A' for Active; 'I' for Inactive)
    1  A    between atoms: C_2  and  C_15
    2  A    between atoms: C_2  and  C_25
    3  A    between atoms: C_3  and  N_13
    4  A    between atoms: C_3  and  C_17
    5  A    between atoms: N_4  and  C_15
    6  A    between atoms: C_5  and  C_18
    7  A    between atoms: C_6  and  C_9
    8  A    between atoms: C_9  and  C_25
    9  A    between atoms: C_12  and  C_28
   10  A    between atoms: C_17  and  C_29
   11  A    between atoms: C_18  and  C_29
   12  A    between atoms: C_21  and  C_32
                            x       y       z     vdW  Elec       q    Type
                         _______ _______ _______ _____ _____    ______ ____

>  <TORSDO>
F 12

$$$$
=
 OpenBabel10252415083D

 34 37  0  0  1  0  0  0  0  0999 V2000
  187.8870  177.5750  144.5500 N   0  0  0  0  0  0  0  0  0  0  0  0
  186.0320  178.0500  142.8770 C   0  0  1  0  0  3  0  0  0  0  0  0
  185.6770  177.9270  145.2600 O   0  0  0  0  0  0  0  0  0  0  0  0
  188.8460  177.6010  143.4430 C   0  0  1  0  0  3  0  0  0  0  0  0
  187.0850  178.4740  142.0420 O   0  0  0  0  0  0  0  0  0  0  0  0
  188.0830  177.4850  142.1090 C   0  0  1  0  0  3  0  0  0  0  0  0
  186.5020  177.8940  144.3070 C   0  0  0  0  0  0  0  0  0  0  0  0
  189.3930  178.2960  138.6440 C   0  0  0  0  0  0  0  0  0  0  0  0
  190.5640  177.5370  138.5940 C   0  0  0  0  0  3  0  0  0  0  0  0
  188.9650  177.5020  140.8960 C   0  0  0  0  0  0  0  0  0  0  0  0
  190.9370  176.7560  139.6920 C   0  0  0  0  0  3  0  0  0  0  0  0
  188.5930  178.2750  139.7920 C   0  0  0  0  0  3  0  0  0  0  0  0
  190.1410  176.7380  140.8400 C   0  0  0  0  0  3  0  0  0  0  0  0
  189.0310  179.0540  137.5790 F   0  0  0  0  0  0  0  0  0  0  0  0
  191.0910  178.5620  143.9480 C   0  0  0  0  0  1  0  0  0  0  0  0
  189.6720  178.8820  143.5210 C   0  0  0  0  0  2  0  0  0  0  0  0
  188.3260  177.0550  145.8410 C   0  0  0  0  0  2  0  0  0  0  0  0
  188.4720  178.1710  146.8690 C   0  0  0  0  0  2  0  0  0  0  0  0
  189.4670  177.8080  147.9590 C   0  0  0  0  0  2  0  0  0  0  0  0
  190.1850  176.5170  147.6130 C   0  0  0  0  0  2  0  0  0  0  0  0
  192.5190  175.9190  147.9300 N   0  0  0  0  0  2  0  0  0  0  0  0
  191.6110  176.8210  147.2070 C   0  0  1  0  0  3  0  0  0  0  0  0
  192.1860  175.6700  146.5210 C   0  0  0  0  0  2  0  0  0  0  0  0
  184.8820  179.0420  142.7520 C   0  0  0  0  0  2  0  0  0  0  0  0
  184.2790  179.0490  141.3500 C   0  0  0  0  0  2  0  0  0  0  0  0
  183.1490  178.0330  141.1900 C   0  0  0  0  0  2  0  0  0  0  0  0
  181.9110  178.6570  140.5600 C   0  0  0  0  0  2  0  0  0  0  0  0
  180.1180  180.8090  140.2280 O   0  0  0  0  0  0  0  0  0  0  0  0
  180.9860  179.1110  141.5900 N   0  0  0  0  0  0  0  0  0  0  0  0
  180.0520  180.1700  141.3120 C   0  0  0  0  0  0  0  0  0  0  0  0
  179.3020  180.0810  143.6940 C   0  0  0  0  0  2  0  0  0  0  0  0
  179.8540  178.6620  143.7360 C   0  0  0  0  0  2  0  0  0  0  0  0
  181.1610  178.6070  142.9540 C   0  0  0  0  0  2  0  0  0  0  0  0
  178.9310  180.4600  142.2640 C   0  0  0  0  0  2  0  0  0  0  0  0
  1 17  1  0  0  0  0
  2 24  1  1  0  0  0
  2  7  1  0  0  0  0
  4 16  1  6  0  0  0
  4  1  1  0  0  0  0
  5  6  1  0  0  0  0
  5  2  1  0  0  0  0
  6 10  1  6  0  0  0
  6  4  1  0  0  0  0
  7  1  1  0  0  0  0
  7  3  2  0  0  0  0
  8 12  1  0  0  0  0
  9  8  2  0  0  0  0
  9 11  1  0  0  0  0
 11 13  2  0  0  0  0
 12 10  2  0  0  0  0
 13 10  1  0  0  0  0
 14  8  1  0  0  0  0
 16 15  1  0  0  0  0
 17 18  1  0  0  0  0
 18 19  1  0  0  0  0
 20 19  1  0  0  0  0
 22 20  1  1  0  0  0
 22 21  1  0  0  0  0
 23 22  1  0  0  0  0
 23 21  1  0  0  0  0
 25 24  1  0  0  0  0
 26 25  1  0  0  0  0
 27 26  1  0  0  0  0
 27 29  1  0  0  0  0
 28 30  2  0  0  0  0
 29 33  1  0  0  0  0
 30 29  1  0  0  0  0
 30 34  1  0  0  0  0
 31 32  1  0  0  0  0
 33 32  1  0  0  0  0
 34 31  1  0  0  0  0
M  END
>  <MODEL>
4

>  <REMARK>
 VINA RESULT:      -7.1      1.851      3.007
  Name = 
  12 active torsions:
  status: ('A' for Active; 'I' for Inactive)
    1  A    between atoms: C_2  and  C_15
    2  A    between atoms: C_2  and  C_25
    3  A    between atoms: C_3  and  N_13
    4  A    between atoms: C_3  and  C_17
    5  A    between atoms: N_4  and  C_15
    6  A    between atoms: C_5  and  C_18
    7  A    between atoms: C_6  and  C_9
    8  A    between atoms: C_9  and  C_25
    9  A    between atoms: C_12  and  C_28
   10  A    between atoms: C_17  and  C_29
   11  A    between atoms: C_18  and  C_29
   12  A    between atoms: C_21  and  C_32
                            x       y       z     vdW  Elec       q    Type
                         _______ _______ _______ _____ _____    ______ ____

>  <TORSDO>
F 12

$$$$
=
 OpenBabel10252415083D

 34 37  0  0  1  0  0  0  0  0999 V2000
  189.4690  177.7490  141.3030 N   0  0  0  0  0  0  0  0  0  0  0  0
  187.1960  178.7270  141.8880 C   0  0  1  0  0  3  0  0  0  0  0  0
  188.0590  178.6120  139.6380 O   0  0  0  0  0  0  0  0  0  0  0  0
  189.6310  177.3710  142.7100 C   0  0  1  0  0  3  0  0  0  0  0  0
  187.3060  177.9300  143.0450 O   0  0  0  0  0  0  0  0  0  0  0  0
  188.5980  178.1360  143.5620 C   0  0  1  0  0  3  0  0  0  0  0  0
  188.2290  178.3320  140.8550 C   0  0  0  0  0  0  0  0  0  0  0  0
  190.0050  177.3290  146.9900 C   0  0  0  0  0  0  0  0  0  0  0  0
  188.8430  177.2150  147.7580 C   0  0  0  0  0  3  0  0  0  0  0  0
  188.6670  177.8280  145.0280 C   0  0  0  0  0  0  0  0  0  0  0  0
  187.5910  177.4020  147.1620 C   0  0  0  0  0  3  0  0  0  0  0  0
  189.9150  177.6310  145.6260 C   0  0  0  0  0  3  0  0  0  0  0  0
  187.5030  177.7070  145.8020 C   0  0  0  0  0  3  0  0  0  0  0  0
  191.2180  177.1480  147.5670 F   0  0  0  0  0  0  0  0  0  0  0  0
  190.7960  175.2390  143.2680 C   0  0  0  0  0  1  0  0  0  0  0  0
  189.4790  175.8590  142.8460 C   0  0  0  0  0  2  0  0  0  0  0  0
  190.6340  177.6870  140.4270 C   0  0  0  0  0  2  0  0  0  0  0  0
  190.5900  176.4530  139.5320 C   0  0  0  0  0  2  0  0  0  0  0  0
  191.5950  176.5450  138.3950 C   0  0  0  0  0  2  0  0  0  0  0  0
  191.0810  175.8100  137.1720 C   0  0  0  0  0  2  0  0  0  0  0  0
  190.0790  173.6000  137.3090 N   0  0  0  0  0  2  0  0  0  0  0  0
  191.3560  174.3290  137.3150 C   0  0  1  0  0  3  0  0  0  0  0  0
  190.9290  173.6270  136.1110 C   0  0  0  0  0  2  0  0  0  0  0  0
  185.7730  178.6170  141.3540 C   0  0  0  0  0  2  0  0  0  0  0  0
  184.7650  178.3250  142.4610 C   0  0  0  0  0  2  0  0  0  0  0  0
  183.3180  178.4910  142.0000 C   0  0  0  0  0  2  0  0  0  0  0  0
  183.1720  178.2700  140.5000 C   0  0  0  0  0  2  0  0  0  0  0  0
  184.0440  180.4430  138.9250 O   0  0  0  0  0  0  0  0  0  0  0  0
  182.2780  179.2650  139.9210 N   0  0  0  0  0  0  0  0  0  0  0  0
  182.8000  180.3000  139.0670 C   0  0  0  0  0  0  0  0  0  0  0  0
  180.5100  181.2920  138.9390 C   0  0  0  0  0  2  0  0  0  0  0  0
  179.9750  179.9200  139.3270 C   0  0  0  0  0  2  0  0  0  0  0  0
  180.8880  179.3040  140.3800 C   0  0  0  0  0  2  0  0  0  0  0  0
  181.8690  181.1570  138.2620 C   0  0  0  0  0  2  0  0  0  0  0  0
  1  4  1  0  0  0  0
  2 24  1  6  0  0  0
  2  5  1  0  0  0  0
  3  7  2  0  0  0  0
  4 16  1  6  0  0  0
  4  6  1  0  0  0  0
  5  6  1  0  0  0  0
  6 10  1  1  0  0  0
  7  1  1  0  0  0  0
  7  2  1  0  0  0  0
  8 14  1  0  0  0  0
  8  9  1  0  0  0  0
 10 12  1  0  0  0  0
 10 13  2  0  0  0  0
 11  9  2  0  0  0  0
 12  8  2  0  0  0  0
 13 11  1  0  0  0  0
 16 15  1  0  0  0  0
 17  1  1  0  0  0  0
 18 17  1  0  0  0  0
 19 18  1  0  0  0  0
 20 19  1  0  0  0  0
 21 22  1  0  0  0  0
 22 20  1  6  0  0  0
 23 21  1  0  0  0  0
 23 22  1  0  0  0  0
 24 25  1  0  0  0  0
 26 25  1  0  0  0  0
 27 26  1  0  0  0  0
 28 30  2  0  0  0  0
 29 33  1  0  0  0  0
 29 27  1  0  0  0  0
 30 29  1  0  0  0  0
 31 32  1  0  0  0  0
 32 33  1  0  0  0  0
 34 31  1  0  0  0  0
 34 30  1  0  0  0  0
M  END
>  <MODEL>
5

>  <REMARK>
 VINA RESULT:      -7.1      3.059      6.141
  Name = 
  12 active torsions:
  status: ('A' for Active; 'I' for Inactive)
    1  A    between atoms: C_2  and  C_15
    2  A    between atoms: C_2  and  C_25
    3  A    between atoms: C_3  and  N_13
    4  A    between atoms: C_3  and  C_17
    5  A    between atoms: N_4  and  C_15
    6  A    between atoms: C_5  and  C_18
    7  A    between atoms: C_6  and  C_9
    8  A    between atoms: C_9  and  C_25
    9  A    between atoms: C_12  and  C_28
   10  A    between atoms: C_17  and  C_29
   11  A    between atoms: C_18  and  C_29
   12  A    between atoms: C_21  and  C_32
                            x       y       z     vdW  Elec       q    Type
                         _______ _______ _______ _____ _____    ______ ____

>  <TORSDO>
F 12

$$$$
=
 OpenBabel10252415083D

 34 37  0  0  1  0  0  0  0  0999 V2000
  190.5950  177.5820  142.3550 N   0  0  0  0  0  0  0  0  0  0  0  0
  189.8050  178.0380  139.9810 C   0  0  1  0  0  3  0  0  0  0  0  0
  192.1040  177.5820  140.5570 O   0  0  0  0  0  0  0  0  0  0  0  0
  189.1970  177.6360  142.7940 C   0  0  1  0  0  3  0  0  0  0  0  0
  188.5500  177.6240  140.4690 O   0  0  0  0  0  0  0  0  0  0  0  0
  188.3450  178.2910  141.6900 C   0  0  1  0  0  3  0  0  0  0  0  0
  190.9100  177.6800  140.9520 C   0  0  0  0  0  0  0  0  0  0  0  0
  184.6240  178.9310  141.3320 C   0  0  0  0  0  0  0  0  0  0  0  0
  184.1590  178.6540  142.6190 C   0  0  0  0  0  3  0  0  0  0  0  0
  186.8870  178.4000  142.0270 C   0  0  0  0  0  0  0  0  0  0  0  0
  185.0570  178.2530  143.6150 C   0  0  0  0  0  3  0  0  0  0  0  0
  185.9870  178.8090  141.0380 C   0  0  0  0  0  3  0  0  0  0  0  0
  186.4170  178.1270  143.3200 C   0  0  0  0  0  3  0  0  0  0  0  0
  183.7540  179.3190  140.3660 F   0  0  0  0  0  0  0  0  0  0  0  0
  189.8570  175.2370  142.9570 C   0  0  0  0  0  1  0  0  0  0  0  0
  188.7190  176.2250  143.1260 C   0  0  0  0  0  2  0  0  0  0  0  0
  191.6450  177.6080  143.3680 C   0  0  0  0  0  2  0  0  0  0  0  0
  191.1160  178.1210  144.7030 C   0  0  0  0  0  2  0  0  0  0  0  0
  191.3730  177.1330  145.8280 C   0  0  0  0  0  2  0  0  0  0  0  0
  190.0680  176.7300  146.4890 C   0  0  0  0  0  2  0  0  0  0  0  0
  187.7600  177.4860  146.5960 N   0  0  0  0  0  2  0  0  0  0  0  0
  189.1600  177.9360  146.6010 C   0  0  1  0  0  3  0  0  0  0  0  0
  188.4130  177.8790  147.8520 C   0  0  0  0  0  2  0  0  0  0  0  0
  190.0210  177.4210  138.6050 C   0  0  0  0  0  2  0  0  0  0  0  0
  189.4690  176.0020  138.5190 C   0  0  0  0  0  2  0  0  0  0  0  0
  189.0780  175.6070  137.0950 C   0  0  0  0  0  2  0  0  0  0  0  0
  188.2750  176.7010  136.4040 C   0  0  0  0  0  2  0  0  0  0  0  0
  186.9530  178.8470  137.6710 O   0  0  0  0  0  0  0  0  0  0  0  0
  186.8820  176.6600  136.8300 N   0  0  0  0  0  0  0  0  0  0  0  0
  186.2640  177.8270  137.4020 C   0  0  0  0  0  0  0  0  0  0  0  0
  184.1940  176.4840  137.8020 C   0  0  0  0  0  2  0  0  0  0  0  0
  184.6870  175.5390  136.7140 C   0  0  0  0  0  2  0  0  0  0  0  0
  186.1960  175.3670  136.8440 C   0  0  0  0  0  2  0  0  0  0  0  0
  184.7770  177.8780  137.5940 C   0  0  0  0  0  2  0  0  0  0  0  0
  1  4  1  0  0  0  0
  1 17  1  0  0  0  0
  2 24  1  6  0  0  0
  2  5  1  0  0  0  0
  2  7  1  0  0  0  0
  3  7  2  0  0  0  0
  4 16  1  6  0  0  0
  5  6  1  0  0  0  0
  6 10  1  1  0  0  0
  6  4  1  0  0  0  0
  7  1  1  0  0  0  0
  8  9  1  0  0  0  0
  9 11  2  0  0  0  0
 10 13  2  0  0  0  0
 12  8  2  0  0  0  0
 12 10  1  0  0  0  0
 13 11  1  0  0  0  0
 14  8  1  0  0  0  0
 15 16  1  0  0  0  0
 17 18  1  0  0  0  0
 18 19  1  0  0  0  0
 19 20  1  0  0  0  0
 21 22  1  0  0  0  0
 21 23  1  0  0  0  0
 22 20  1  1  0  0  0
 22 23  1  0  0  0  0
 25 24  1  0  0  0  0
 26 25  1  0  0  0  0
 27 29  1  0  0  0  0
 27 26  1  0  0  0  0
 29 33  1  0  0  0  0
 29 30  1  0  0  0  0
 30 34  1  0  0  0  0
 30 28  2  0  0  0  0
 32 33  1  0  0  0  0
 32 31  1  0  0  0  0
 34 31  1  0  0  0  0
M  END
>  <MODEL>
6

>  <REMARK>
 VINA RESULT:      -7.0      2.243      4.644
  Name = 
  12 active torsions:
  status: ('A' for Active; 'I' for Inactive)
    1  A    between atoms: C_2  and  C_15
    2  A    between atoms: C_2  and  C_25
    3  A    between atoms: C_3  and  N_13
    4  A    between atoms: C_3  and  C_17
    5  A    between atoms: N_4  and  C_15
    6  A    between atoms: C_5  and  C_18
    7  A    between atoms: C_6  and  C_9
    8  A    between atoms: C_9  and  C_25
    9  A    between atoms: C_12  and  C_28
   10  A    between atoms: C_17  and  C_29
   11  A    between atoms: C_18  and  C_29
   12  A    between atoms: C_21  and  C_32
                            x       y       z     vdW  Elec       q    Type
                         _______ _______ _______ _____ _____    ______ ____

>  <TORSDO>
F 12

$$$$
=
 OpenBabel10252415083D

 34 37  0  0  1  0  0  0  0  0999 V2000
  187.9790  178.1750  141.5700 N   0  0  0  0  0  0  0  0  0  0  0  0
  185.8670  178.6860  142.8900 C   0  0  1  0  0  3  0  0  0  0  0  0
  186.0240  178.8980  140.4910 O   0  0  0  0  0  0  0  0  0  0  0  0
  188.6080  177.7270  142.8150 C   0  0  1  0  0  3  0  0  0  0  0  0
  186.4340  177.8360  143.8590 O   0  0  0  0  0  0  0  0  0  0  0  0
  187.7770  178.2290  144.0120 C   0  0  1  0  0  3  0  0  0  0  0  0
  186.5900  178.5610  141.5660 C   0  0  0  0  0  0  0  0  0  0  0  0
  190.2390  177.2630  146.7290 C   0  0  0  0  0  0  0  0  0  0  0  0
  189.3940  177.0430  147.8190 C   0  0  0  0  0  3  0  0  0  0  0  0
  188.3250  177.8280  145.3490 C   0  0  0  0  0  0  0  0  0  0  0  0
  188.0120  177.2110  147.6760 C   0  0  0  0  0  3  0  0  0  0  0  0
  189.7040  177.6500  145.4950 C   0  0  0  0  0  3  0  0  0  0  0  0
  187.4790  177.6020  146.4450 C   0  0  0  0  0  3  0  0  0  0  0  0
  191.5780  177.1000  146.8670 F   0  0  0  0  0  0  0  0  0  0  0  0
  190.1890  175.7990  142.7540 C   0  0  0  0  0  1  0  0  0  0  0  0
  188.7290  176.2050  142.7990 C   0  0  0  0  0  2  0  0  0  0  0  0
  188.8250  178.3870  140.3990 C   0  0  0  0  0  2  0  0  0  0  0  0
  188.7420  177.2100  139.4340 C   0  0  0  0  0  2  0  0  0  0  0  0
  188.8290  177.6620  137.9860 C   0  0  0  0  0  2  0  0  0  0  0  0
  187.7640  176.9770  137.1510 C   0  0  0  0  0  2  0  0  0  0  0  0
  185.6870  177.3410  135.9430 N   0  0  0  0  0  2  0  0  0  0  0  0
  186.5960  177.9170  136.9450 C   0  0  1  0  0  3  0  0  0  0  0  0
  185.3600  177.2730  137.3730 C   0  0  0  0  0  2  0  0  0  0  0  0
  184.3820  178.3660  142.7700 C   0  0  0  0  0  2  0  0  0  0  0  0
  183.5420  179.1500  143.7720 C   0  0  0  0  0  2  0  0  0  0  0  0
  182.0840  178.6940  143.8040 C   0  0  0  0  0  2  0  0  0  0  0  0
  181.2010  179.5540  142.9080 C   0  0  0  0  0  2  0  0  0  0  0  0
  179.3980  177.3940  142.6960 O   0  0  0  0  0  0  0  0  0  0  0  0
  180.9080  178.8590  141.6610 N   0  0  0  0  0  0  0  0  0  0  0  0
  179.9170  177.8150  141.6280 C   0  0  0  0  0  0  0  0  0  0  0  0
  180.4820  177.4120  139.2270 C   0  0  0  0  0  2  0  0  0  0  0  0
  181.0390  178.8290  139.1980 C   0  0  0  0  0  2  0  0  0  0  0  0
  181.7710  179.1090  140.5050 C   0  0  0  0  0  2  0  0  0  0  0  0
  179.4220  177.2840  140.3160 C   0  0  0  0  0  2  0  0  0  0  0  0
  1  4  1  0  0  0  0
  2 24  1  6  0  0  0
  2  5  1  0  0  0  0
  3  7  2  0  0  0  0
  4 16  1  6  0  0  0
  4  6  1  0  0  0  0
  5  6  1  0  0  0  0
  6 10  1  1  0  0  0
  7  1  1  0  0  0  0
  7  2  1  0  0  0  0
  8 14  1  0  0  0  0
  8  9  1  0  0  0  0
 10 12  1  0  0  0  0
 10 13  2  0  0  0  0
 11  9  2  0  0  0  0
 12  8  2  0  0  0  0
 13 11  1  0  0  0  0
 15 16  1  0  0  0  0
 17  1  1  0  0  0  0
 18 17  1  0  0  0  0
 19 18  1  0  0  0  0
 20 19  1  0  0  0  0
 21 22  1  0  0  0  0
 21 23  1  0  0  0  0
 22 20  1  1  0  0  0
 22 23  1  0  0  0  0
 24 25  1  0  0  0  0
 25 26  1  0  0  0  0
 27 26  1  0  0  0  0
 29 27  1  0  0  0  0
 30 29  1  0  0  0  0
 30 28  2  0  0  0  0
 31 34  1  0  0  0  0
 32 31  1  0  0  0  0
 32 33  1  0  0  0  0
 33 29  1  0  0  0  0
 34 30  1  0  0  0  0
M  END
>  <MODEL>
7

>  <REMARK>
 VINA RESULT:      -6.9      2.796      6.538
  Name = 
  12 active torsions:
  status: ('A' for Active; 'I' for Inactive)
    1  A    between atoms: C_2  and  C_15
    2  A    between atoms: C_2  and  C_25
    3  A    between atoms: C_3  and  N_13
    4  A    between atoms: C_3  and  C_17
    5  A    between atoms: N_4  and  C_15
    6  A    between atoms: C_5  and  C_18
    7  A    between atoms: C_6  and  C_9
    8  A    between atoms: C_9  and  C_25
    9  A    between atoms: C_12  and  C_28
   10  A    between atoms: C_17  and  C_29
   11  A    between atoms: C_18  and  C_29
   12  A    between atoms: C_21  and  C_32
                            x       y       z     vdW  Elec       q    Type
                         _______ _______ _______ _____ _____    ______ ____

>  <TORSDO>
F 12

$$$$
=
 OpenBabel10252415083D

 34 37  0  0  1  0  0  0  0  0999 V2000
  190.4410  177.3670  139.9190 N   0  0  0  0  0  0  0  0  0  0  0  0
  189.8800  178.0080  142.3140 C   0  0  1  0  0  3  0  0  0  0  0  0
  192.0730  177.2940  141.6040 O   0  0  0  0  0  0  0  0  0  0  0  0
  189.0820  177.7560  139.5320 C   0  0  1  0  0  3  0  0  0  0  0  0
  188.8230  178.7290  141.7260 O   0  0  0  0  0  0  0  0  0  0  0  0
  188.2080  177.8690  140.7970 C   0  0  1  0  0  3  0  0  0  0  0  0
  190.8900  177.5760  141.2720 C   0  0  0  0  0  0  0  0  0  0  0  0
  184.6340  179.0000  141.3680 C   0  0  0  0  0  0  0  0  0  0  0  0
  184.1160  178.9820  140.0710 C   0  0  0  0  0  3  0  0  0  0  0  0
  186.7880  178.2660  140.5250 C   0  0  0  0  0  0  0  0  0  0  0  0
  184.9300  178.6020  138.9990 C   0  0  0  0  0  3  0  0  0  0  0  0
  185.9670  178.6380  141.5950 C   0  0  0  0  0  3  0  0  0  0  0  0
  186.2620  178.2450  139.2250 C   0  0  0  0  0  3  0  0  0  0  0  0
  183.8450  179.3690  142.4080 F   0  0  0  0  0  0  0  0  0  0  0  0
  189.0340  178.7950  137.2660 C   0  0  0  0  0  1  0  0  0  0  0  0
  189.1360  179.0680  138.7540 C   0  0  0  0  0  2  0  0  0  0  0  0
  191.2480  176.6130  138.9640 C   0  0  0  0  0  2  0  0  0  0  0  0
  190.3820  175.6920  138.1100 C   0  0  0  0  0  2  0  0  0  0  0  0
  191.1900  175.0100  137.0190 C   0  0  0  0  0  2  0  0  0  0  0  0
  192.4500  174.3950  137.5980 C   0  0  0  0  0  2  0  0  0  0  0  0
  194.5490  175.6190  137.6160 N   0  0  0  0  0  2  0  0  0  0  0  0
  193.6480  174.8180  136.7750 C   0  0  1  0  0  3  0  0  0  0  0  0
  194.8590  174.2150  137.3180 C   0  0  0  0  0  2  0  0  0  0  0  0
  190.5070  178.8660  143.4060 C   0  0  0  0  0  2  0  0  0  0  0  0
  190.7980  178.0650  144.6710 C   0  0  0  0  0  2  0  0  0  0  0  0
  189.7810  176.9500  144.9090 C   0  0  0  0  0  2  0  0  0  0  0  0
  189.1890  177.0110  146.3110 C   0  0  0  0  0  2  0  0  0  0  0  0
  187.9070  178.1570  148.5470 O   0  0  0  0  0  0  0  0  0  0  0  0
  187.8490  177.5830  146.2750 N   0  0  0  0  0  0  0  0  0  0  0  0
  187.2990  178.2160  147.4450 C   0  0  0  0  0  0  0  0  0  0  0  0
  185.1540  178.5480  146.2070 C   0  0  0  0  0  2  0  0  0  0  0  0
  185.9620  178.4170  144.9230 C   0  0  0  0  0  2  0  0  0  0  0  0
  187.0140  177.3290  145.0990 C   0  0  0  0  0  2  0  0  0  0  0  0
  186.0460  179.0330  147.3450 C   0  0  0  0  0  2  0  0  0  0  0  0
  1  7  1  0  0  0  0
  2 24  1  1  0  0  0
  4 16  1  1  0  0  0
  4  1  1  0  0  0  0
  4  6  1  0  0  0  0
  5  2  1  0  0  0  0
  6 10  1  6  0  0  0
  6  5  1  0  0  0  0
  7  3  2  0  0  0  0
  7  2  1  0  0  0  0
  8 12  1  0  0  0  0
  8 14  1  0  0  0  0
  9  8  2  0  0  0  0
 10 12  2  0  0  0  0
 11 13  2  0  0  0  0
 11  9  1  0  0  0  0
 13 10  1  0  0  0  0
 15 16  1  0  0  0  0
 17  1  1  0  0  0  0
 18 17  1  0  0  0  0
 19 20  1  0  0  0  0
 19 18  1  0  0  0  0
 22 23  1  0  0  0  0
 22 20  1  1  0  0  0
 22 21  1  0  0  0  0
 23 21  1  0  0  0  0
 24 25  1  0  0  0  0
 25 26  1  0  0  0  0
 26 27  1  0  0  0  0
 29 27  1  0  0  0  0
 29 30  1  0  0  0  0
 30 28  2  0  0  0  0
 31 34  1  0  0  0  0
 32 33  1  0  0  0  0
 32 31  1  0  0  0  0
 33 29  1  0  0  0  0
 34 30  1  0  0  0  0
M  END
>  <MODEL>
8

>  <REMARK>
 VINA RESULT:      -6.9      3.127      7.407
  Name = 
  12 active torsions:
  status: ('A' for Active; 'I' for Inactive)
    1  A    between atoms: C_2  and  C_15
    2  A    between atoms: C_2  and  C_25
    3  A    between atoms: C_3  and  N_13
    4  A    between atoms: C_3  and  C_17
    5  A    between atoms: N_4  and  C_15
    6  A    between atoms: C_5  and  C_18
    7  A    between atoms: C_6  and  C_9
    8  A    between atoms: C_9  and  C_25
    9  A    between atoms: C_12  and  C_28
   10  A    between atoms: C_17  and  C_29
   11  A    between atoms: C_18  and  C_29
   12  A    between atoms: C_21  and  C_32
                            x       y       z     vdW  Elec       q    Type
                         _______ _______ _______ _____ _____    ______ ____

>  <TORSDO>
F 12

$$$$
=
 OpenBabel10252415083D

 34 37  0  0  1  0  0  0  0  0999 V2000
  181.8620  178.7150  141.3610 N   0  0  0  0  0  0  0  0  0  0  0  0
  183.4880  179.0880  143.2800 C   0  0  1  0  0  3  0  0  0  0  0  0
  181.0890  179.1860  143.5270 O   0  0  0  0  0  0  0  0  0  0  0  0
  183.0050  178.3970  140.5000 C   0  0  1  0  0  3  0  0  0  0  0  0
  184.3830  178.3490  142.4810 O   0  0  0  0  0  0  0  0  0  0  0  0
  184.3010  178.8780  141.1800 C   0  0  1  0  0  3  0  0  0  0  0  0
  182.0700  178.9630  142.7650 C   0  0  0  0  0  0  0  0  0  0  0  0
  187.9410  178.2230  140.3420 C   0  0  0  0  0  0  0  0  0  0  0  0
  187.9030  178.1260  138.9490 C   0  0  0  0  0  3  0  0  0  0  0  0
  185.5450  178.6040  140.3890 C   0  0  0  0  0  0  0  0  0  0  0  0
  186.6870  178.2710  138.2720 C   0  0  0  0  0  3  0  0  0  0  0  0
  186.7640  178.4660  141.0600 C   0  0  0  0  0  3  0  0  0  0  0  0
  185.5120  178.5100  138.9890 C   0  0  0  0  0  3  0  0  0  0  0  0
  189.1190  178.0820  140.9980 F   0  0  0  0  0  0  0  0  0  0  0  0
  182.4680  176.6120  138.8440 C   0  0  0  0  0  1  0  0  0  0  0  0
  183.0250  176.8960  140.2250 C   0  0  0  0  0  2  0  0  0  0  0  0
  180.5630  178.9470  140.7370 C   0  0  0  0  0  2  0  0  0  0  0  0
  180.4330  180.3830  140.2430 C   0  0  0  0  0  2  0  0  0  0  0  0
  180.0040  180.4410  138.7870 C   0  0  0  0  0  2  0  0  0  0  0  0
  181.2070  180.3070  137.8730 C   0  0  0  0  0  2  0  0  0  0  0  0
  181.5450  178.6880  136.0930 N   0  0  0  0  0  2  0  0  0  0  0  0
  180.7560  179.8600  136.4990 C   0  0  1  0  0  3  0  0  0  0  0  0
  180.1690  178.5280  136.5800 C   0  0  0  0  0  2  0  0  0  0  0  0
  183.6220  178.6180  144.7240 C   0  0  0  0  0  2  0  0  0  0  0  0
  184.9360  179.0690  145.3550 C   0  0  0  0  0  2  0  0  0  0  0  0
  185.8460  177.8980  145.7220 C   0  0  0  0  0  2  0  0  0  0  0  0
  187.1070  177.8710  144.8680 C   0  0  0  0  0  2  0  0  0  0  0  0
  189.5480  176.9000  143.8410 O   0  0  0  0  0  0  0  0  0  0  0  0
  188.2740  177.5740  145.6890 N   0  0  0  0  0  0  0  0  0  0  0  0
  189.5050  177.1530  145.0740 C   0  0  0  0  0  0  0  0  0  0  0  0
  190.4890  176.8470  147.3510 C   0  0  0  0  0  2  0  0  0  0  0  0
  189.4240  177.8090  147.8590 C   0  0  0  0  0  2  0  0  0  0  0  0
  188.1090  177.5260  147.1430 C   0  0  0  0  0  2  0  0  0  0  0  0
  190.7720  177.1050  145.8750 C   0  0  0  0  0  2  0  0  0  0  0  0
  1  7  1  0  0  0  0
  2 24  1  1  0  0  0
  4 16  1  1  0  0  0
  4  6  1  0  0  0  0
  4  1  1  0  0  0  0
  5  2  1  0  0  0  0
  6 10  1  6  0  0  0
  6  5  1  0  0  0  0
  7  2  1  0  0  0  0
  7  3  2  0  0  0  0
  8 14  1  0  0  0  0
  8 12  1  0  0  0  0
  9  8  2  0  0  0  0
 10 12  2  0  0  0  0
 11  9  1  0  0  0  0
 11 13  2  0  0  0  0
 13 10  1  0  0  0  0
 15 16  1  0  0  0  0
 17  1  1  0  0  0  0
 18 17  1  0  0  0  0
 19 18  1  0  0  0  0
 20 19  1  0  0  0  0
 21 22  1  0  0  0  0
 21 23  1  0  0  0  0
 22 23  1  0  0  0  0
 22 20  1  1  0  0  0
 24 25  1  0  0  0  0
 25 26  1  0  0  0  0
 27 29  1  0  0  0  0
 27 26  1  0  0  0  0
 28 30  2  0  0  0  0
 29 33  1  0  0  0  0
 30 29  1  0  0  0  0
 30 34  1  0  0  0  0
 31 32  1  0  0  0  0
 33 32  1  0  0  0  0
 34 31  1  0  0  0  0
M  END
>  <MODEL>
9

>  <REMARK>
 VINA RESULT:      -6.8      2.377      8.556
  Name = 
  12 active torsions:
  status: ('A' for Active; 'I' for Inactive)
    1  A    between atoms: C_2  and  C_15
    2  A    between atoms: C_2  and  C_25
    3  A    between atoms: C_3  and  N_13
    4  A    between atoms: C_3  and  C_17
    5  A    between atoms: N_4  and  C_15
    6  A    between atoms: C_5  and  C_18
    7  A    between atoms: C_6  and  C_9
    8  A    between atoms: C_9  and  C_25
    9  A    between atoms: C_12  and  C_28
   10  A    between atoms: C_17  and  C_29
   11  A    between atoms: C_18  and  C_29
   12  A    between atoms: C_21  and  C_32
                            x       y       z     vdW  Elec       q    Type
                         _______ _______ _______ _____ _____    ______ ____

>  <TORSDO>
F 12

$$$$
