=
 OpenBabel10262420003D

 27 31  0  0  1  0  0  0  0  0999 V2000
  183.8620  178.1660  141.1130 C   0  0  0  0  0  2  0  0  0  0  0  0
  186.3240  178.3760  140.5220 C   0  0  0  0  0  0  0  0  0  0  0  0
  185.8760  178.1340  143.0550 C   0  0  0  0  0  2  0  0  0  0  0  0
  190.3480  177.9020  141.4500 N   0  0  0  0  0  2  0  0  0  0  0  0
  191.0380  176.4380  143.0860 C   0  0  0  0  0  1  0  0  0  0  0  0
  187.2470  178.4300  139.5060 N   0  0  0  0  0  0  0  0  0  0  0  0
  188.9550  177.7680  143.2890 C   0  0  2  0  0  3  0  0  0  0  0  0
  183.7720  178.7880  145.1800 C   0  0  0  0  0  2  0  0  0  0  0  0
  188.4700  176.5430  144.0700 C   0  0  0  0  0  1  0  0  0  0  0  0
  182.3920  178.8340  144.5370 C   0  0  0  0  0  2  0  0  0  0  0  0
  188.1550  177.9670  142.0430 C   0  0  0  0  0  0  0  0  0  0  0  0
  184.9270  178.5740  140.1990 N   0  0  0  0  0  0  0  0  0  0  0  0
  190.3870  177.7240  142.8480 N   0  0  0  0  0  0  0  0  0  0  0  0
  189.0200  178.0420  141.0090 C   0  0  0  0  0  0  0  0  0  0  0  0
  183.6880  179.1830  142.2420 C   0  0  1  0  0  3  0  0  0  0  0  0
  186.7800  178.1590  141.8580 C   0  0  0  0  0  0  0  0  0  0  0  0
  184.6960  179.7950  144.5190 C   0  0  0  0  0  2  0  0  0  0  0  0
  188.5850  178.2760  139.7150 C   0  0  0  0  0  3  0  0  0  0  0  0
  181.3770  178.7420  142.4290 O   0  0  0  0  0  0  0  0  0  0  0  0
  182.4300  178.8830  143.0330 C   0  0  0  0  0  0  0  0  0  0  0  0
  184.9750  179.3650  143.0840 C   0  0  1  0  0  3  0  0  0  0  0  0
  181.8520  178.3990  137.9340 C   0  0  0  0  0  2  0  0  0  0  0  0
  184.5790  179.0270  138.8470 C   0  0  0  0  0  3  0  0  0  0  0  0
  183.4680  180.0860  138.8420 C   0  0  0  0  0  2  0  0  0  0  0  0
  182.0820  179.4640  139.0000 C   0  0  0  0  0  2  0  0  0  0  0  0
  182.8940  177.2950  138.0730 C   0  0  0  0  0  2  0  0  0  0  0  0
  184.2990  177.8640  137.8860 C   0  0  0  0  0  2  0  0  0  0  0  0
  2 16  1  0  0  0  0
  4 13  1  0  0  0  0
  6 18  1  0  0  0  0
  6  2  2  0  0  0  0
  7  9  1  6  0  0  0
 10  8  1  0  0  0  0
 11  7  1  0  0  0  0
 12  2  1  0  0  0  0
 12  1  1  0  0  0  0
 13  5  1  0  0  0  0
 13  7  1  0  0  0  0
 14  4  1  0  0  0  0
 14 11  1  0  0  0  0
 15  1  1  6  0  0  0
 15 20  1  0  0  0  0
 15 21  1  0  0  0  0
 16 11  2  0  0  0  0
 16  3  1  0  0  0  0
 17  8  1  0  0  0  0
 18 14  2  0  0  0  0
 19 20  2  0  0  0  0
 20 10  1  0  0  0  0
 21  3  1  1  0  0  0
 21 17  1  0  0  0  0
 22 26  1  0  0  0  0
 22 25  1  0  0  0  0
 23 12  1  0  0  0  0
 24 23  1  0  0  0  0
 24 25  1  0  0  0  0
 27 26  1  0  0  0  0
 27 23  1  0  0  0  0
M  END
>  <MODEL>
1

>  <REMARK>
 VINA RESULT:      -8.6      0.000      0.000
  Name = 
  1 active torsions:
  status: ('A' for Active; 'I' for Inactive)
    1  A    between atoms: C_9  and  N_15
                            x       y       z     vdW  Elec       q    Type
                         _______ _______ _______ _____ _____    ______ ____

>  <TORSDO>
F 1

$$$$
=
 OpenBabel10262420003D

 27 31  0  0  1  0  0  0  0  0999 V2000
  189.3190  178.4960  140.2580 C   0  0  0  0  0  2  0  0  0  0  0  0
  186.7790  178.4640  140.3030 C   0  0  0  0  0  0  0  0  0  0  0  0
  187.8680  177.9750  142.5940 C   0  0  0  0  0  2  0  0  0  0  0  0
  183.1660  178.6560  142.3510 N   0  0  0  0  0  2  0  0  0  0  0  0
  183.0240  179.5950  144.4480 C   0  0  0  0  0  1  0  0  0  0  0  0
  185.6280  178.7020  139.5920 N   0  0  0  0  0  0  0  0  0  0  0  0
  184.9840  178.2600  143.7210 C   0  0  2  0  0  3  0  0  0  0  0  0
  190.3850  176.7420  143.8250 C   0  0  0  0  0  2  0  0  0  0  0  0
  185.7410  179.2130  144.6520 C   0  0  0  0  0  1  0  0  0  0  0  0
  191.5500  176.8800  142.8550 C   0  0  0  0  0  2  0  0  0  0  0  0
  185.4270  178.4240  142.3030 C   0  0  0  0  0  0  0  0  0  0  0  0
  188.0290  178.3660  139.5820 N   0  0  0  0  0  0  0  0  0  0  0  0
  183.4950  178.4290  143.7030 N   0  0  0  0  0  0  0  0  0  0  0  0
  184.3260  178.6470  141.5540 C   0  0  0  0  0  0  0  0  0  0  0  0
  189.6940  177.1990  140.9780 C   0  0  1  0  0  3  0  0  0  0  0  0
  186.6920  178.2920  141.7180 C   0  0  0  0  0  0  0  0  0  0  0  0
  189.2500  175.9660  143.1810 C   0  0  0  0  0  2  0  0  0  0  0  0
  184.4010  178.7920  140.1790 C   0  0  0  0  0  3  0  0  0  0  0  0
  192.0040  177.5680  140.6640 O   0  0  0  0  0  0  0  0  0  0  0  0
  191.1310  177.2610  141.4600 C   0  0  0  0  0  0  0  0  0  0  0  0
  188.6520  176.7860  142.0450 C   0  0  1  0  0  3  0  0  0  0  0  0
  189.4940  176.1210  136.8550 C   0  0  0  0  0  2  0  0  0  0  0  0
  187.9900  178.3160  138.1160 C   0  0  0  0  0  3  0  0  0  0  0  0
  187.2870  177.0600  137.5810 C   0  0  0  0  0  2  0  0  0  0  0  0
  188.2000  175.8360  137.6080 C   0  0  0  0  0  2  0  0  0  0  0  0
  190.2290  177.2830  137.5130 C   0  0  0  0  0  2  0  0  0  0  0  0
  189.3670  178.5450  137.4780 C   0  0  0  0  0  2  0  0  0  0  0  0
  2 16  1  0  0  0  0
  4 13  1  0  0  0  0
  6 18  1  0  0  0  0
  6  2  2  0  0  0  0
  7  9  1  1  0  0  0
 10  8  1  0  0  0  0
 11  7  1  0  0  0  0
 12  1  1  0  0  0  0
 12  2  1  0  0  0  0
 13  7  1  0  0  0  0
 13  5  1  0  0  0  0
 14 11  1  0  0  0  0
 14  4  1  0  0  0  0
 15  1  1  1  0  0  0
 15 20  1  0  0  0  0
 15 21  1  0  0  0  0
 16 11  2  0  0  0  0
 16  3  1  0  0  0  0
 17  8  1  0  0  0  0
 18 14  2  0  0  0  0
 19 20  2  0  0  0  0
 20 10  1  0  0  0  0
 21  3  1  1  0  0  0
 21 17  1  0  0  0  0
 22 26  1  0  0  0  0
 22 25  1  0  0  0  0
 23 12  1  0  0  0  0
 24 25  1  0  0  0  0
 24 23  1  0  0  0  0
 27 26  1  0  0  0  0
 27 23  1  0  0  0  0
M  END
>  <MODEL>
2

>  <REMARK>
 VINA RESULT:      -8.6      2.774      6.023
  Name = 
  1 active torsions:
  status: ('A' for Active; 'I' for Inactive)
    1  A    between atoms: C_9  and  N_15
                            x       y       z     vdW  Elec       q    Type
                         _______ _______ _______ _____ _____    ______ ____

>  <TORSDO>
F 1

$$$$
=
 OpenBabel10262420003D

 27 31  0  0  1  0  0  0  0  0999 V2000
  187.8120  176.9470  144.6040 C   0  0  0  0  0  2  0  0  0  0  0  0
  186.7750  177.9050  142.4920 C   0  0  0  0  0  0  0  0  0  0  0  0
  189.3440  177.6590  142.3730 C   0  0  0  0  0  2  0  0  0  0  0  0
  186.9310  178.7940  138.4340 N   0  0  0  0  0  2  0  0  0  0  0  0
  188.3930  177.7120  137.0240 C   0  0  0  0  0  1  0  0  0  0  0  0
  185.6060  178.2020  141.8350 N   0  0  0  0  0  0  0  0  0  0  0  0
  188.9960  178.3130  139.3530 C   0  0  2  0  0  3  0  0  0  0  0  0
  191.8320  177.7100  144.1570 C   0  0  0  0  0  2  0  0  0  0  0  0
  189.8390  177.0370  139.2650 C   0  0  0  0  0  1  0  0  0  0  0  0
  191.4580  177.2780  145.5690 C   0  0  0  0  0  2  0  0  0  0  0  0
  187.9230  178.1820  140.3850 C   0  0  0  0  0  0  0  0  0  0  0  0
  186.7200  177.6280  143.9110 N   0  0  0  0  0  0  0  0  0  0  0  0
  188.2950  178.7080  138.0880 N   0  0  0  0  0  0  0  0  0  0  0  0
  186.7460  178.4780  139.7920 C   0  0  0  0  0  0  0  0  0  0  0  0
  188.9660  177.9100  144.8920 C   0  0  1  0  0  3  0  0  0  0  0  0
  188.0000  177.9130  141.7580 C   0  0  0  0  0  0  0  0  0  0  0  0
  191.0210  178.9250  143.7440 C   0  0  0  0  0  2  0  0  0  0  0  0
  185.5590  178.4950  140.5050 C   0  0  0  0  0  3  0  0  0  0  0  0
  189.5760  176.7610  146.8610 O   0  0  0  0  0  0  0  0  0  0  0  0
  189.9730  177.2620  145.8210 C   0  0  0  0  0  0  0  0  0  0  0  0
  189.5540  178.5370  143.6040 C   0  0  1  0  0  3  0  0  0  0  0  0
  185.6930  179.2890  147.1980 C   0  0  0  0  0  2  0  0  0  0  0  0
  185.4620  177.8780  144.6240 C   0  0  0  0  0  3  0  0  0  0  0  0
  185.1380  179.3730  144.7550 C   0  0  0  0  0  2  0  0  0  0  0  0
  185.9220  180.0330  145.8880 C   0  0  0  0  0  2  0  0  0  0  0  0
  186.1660  177.8460  147.0630 C   0  0  0  0  0  2  0  0  0  0  0  0
  185.3830  177.1310  145.9630 C   0  0  0  0  0  2  0  0  0  0  0  0
  2 12  1  0  0  0  0
  4 14  1  0  0  0  0
  5 13  1  0  0  0  0
  6  2  1  0  0  0  0
  7  9  1  6  0  0  0
  7 11  1  0  0  0  0
  8 10  1  0  0  0  0
 10 20  1  0  0  0  0
 11 16  1  0  0  0  0
 12  1  1  0  0  0  0
 12 23  1  0  0  0  0
 13  4  1  0  0  0  0
 13  7  1  0  0  0  0
 14 11  2  0  0  0  0
 14 18  1  0  0  0  0
 15  1  1  6  0  0  0
 15 20  1  0  0  0  0
 16  3  1  0  0  0  0
 16  2  2  0  0  0  0
 17  8  1  0  0  0  0
 18  6  2  0  0  0  0
 20 19  2  0  0  0  0
 21  3  1  6  0  0  0
 21 17  1  0  0  0  0
 21 15  1  0  0  0  0
 23 24  1  0  0  0  0
 23 27  1  0  0  0  0
 24 25  1  0  0  0  0
 25 22  1  0  0  0  0
 26 22  1  0  0  0  0
 27 26  1  0  0  0  0
M  END
>  <MODEL>
3

>  <REMARK>
 VINA RESULT:      -7.9      2.999      6.196
  Name = 
  1 active torsions:
  status: ('A' for Active; 'I' for Inactive)
    1  A    between atoms: C_9  and  N_15
                            x       y       z     vdW  Elec       q    Type
                         _______ _______ _______ _____ _____    ______ ____

>  <TORSDO>
F 1

$$$$
=
 OpenBabel10262420003D

 27 31  0  0  1  0  0  0  0  0999 V2000
  187.4010  178.4010  145.5070 C   0  0  0  0  0  2  0  0  0  0  0  0
  188.9540  177.0220  144.0450 C   0  0  0  0  0  0  0  0  0  0  0  0
  187.1300  178.2880  142.7240 C   0  0  0  0  0  2  0  0  0  0  0  0
  190.6340  176.1150  140.3510 N   0  0  0  0  0  2  0  0  0  0  0  0
  190.6440  177.6430  138.6300 C   0  0  0  0  0  1  0  0  0  0  0  0
  190.0900  176.2490  144.0060 N   0  0  0  0  0  0  0  0  0  0  0  0
  188.7410  177.4310  140.2060 C   0  0  2  0  0  3  0  0  0  0  0  0
  184.2640  179.3250  143.0080 C   0  0  0  0  0  2  0  0  0  0  0  0
  188.6040  178.9350  139.9490 C   0  0  0  0  0  1  0  0  0  0  0  0
  183.9700  179.6220  144.4730 C   0  0  0  0  0  2  0  0  0  0  0  0
  189.0730  177.1540  141.6360 C   0  0  0  0  0  0  0  0  0  0  0  0
  188.3550  177.3070  145.3300 N   0  0  0  0  0  0  0  0  0  0  0  0
  189.7980  176.7360  139.4020 N   0  0  0  0  0  0  0  0  0  0  0  0
  190.1800  176.3820  141.6560 C   0  0  0  0  0  0  0  0  0  0  0  0
  186.0110  178.0030  145.0070 C   0  0  1  0  0  3  0  0  0  0  0  0
  188.3930  177.4840  142.8150 C   0  0  0  0  0  0  0  0  0  0  0  0
  184.6590  177.8690  142.8330 C   0  0  0  0  0  2  0  0  0  0  0  0
  190.7150  175.9100  142.8440 C   0  0  0  0  0  3  0  0  0  0  0  0
  184.9310  179.3780  146.5930 O   0  0  0  0  0  0  0  0  0  0  0  0
  184.9860  179.0420  145.4210 C   0  0  0  0  0  0  0  0  0  0  0  0
  186.0030  177.6210  143.5080 C   0  0  1  0  0  3  0  0  0  0  0  0
  189.4310  178.2530  148.8740 C   0  0  0  0  0  2  0  0  0  0  0  0
  188.8570  176.5950  146.5100 C   0  0  0  0  0  3  0  0  0  0  0  0
  187.8910  176.6610  147.7010 C   0  0  0  0  0  2  0  0  0  0  0  0
  187.9910  177.9890  148.4490 C   0  0  0  0  0  2  0  0  0  0  0  0
  190.3280  178.3240  147.6450 C   0  0  0  0  0  2  0  0  0  0  0  0
  190.2900  177.0010  146.8820 C   0  0  0  0  0  2  0  0  0  0  0  0
  2 12  1  0  0  0  0
  3 16  1  0  0  0  0
  4 14  1  0  0  0  0
  5 13  1  0  0  0  0
  6  2  1  0  0  0  0
  7  9  1  1  0  0  0
  7 11  1  0  0  0  0
  8 10  1  0  0  0  0
 10 20  1  0  0  0  0
 11 14  2  0  0  0  0
 11 16  1  0  0  0  0
 12  1  1  0  0  0  0
 12 23  1  0  0  0  0
 13  7  1  0  0  0  0
 13  4  1  0  0  0  0
 14 18  1  0  0  0  0
 15 20  1  0  0  0  0
 15  1  1  6  0  0  0
 16  2  2  0  0  0  0
 17  8  1  0  0  0  0
 17 21  1  0  0  0  0
 18  6  2  0  0  0  0
 20 19  2  0  0  0  0
 21  3  1  6  0  0  0
 21 15  1  0  0  0  0
 23 27  1  0  0  0  0
 23 24  1  0  0  0  0
 24 25  1  0  0  0  0
 25 22  1  0  0  0  0
 26 22  1  0  0  0  0
 27 26  1  0  0  0  0
M  END
>  <MODEL>
4

>  <REMARK>
 VINA RESULT:      -7.8      2.975      6.287
  Name = 
  1 active torsions:
  status: ('A' for Active; 'I' for Inactive)
    1  A    between atoms: C_9  and  N_15
                            x       y       z     vdW  Elec       q    Type
                         _______ _______ _______ _____ _____    ______ ____

>  <TORSDO>
F 1

$$$$
=
 OpenBabel10262420003D

 27 31  0  0  1  0  0  0  0  0999 V2000
  188.7680  176.3920  142.4340 C   0  0  0  0  0  2  0  0  0  0  0  0
  187.1940  177.5820  144.0340 C   0  0  0  0  0  0  0  0  0  0  0  0
  186.5100  177.7900  141.5510 C   0  0  0  0  0  2  0  0  0  0  0  0
  183.5150  179.3030  144.9220 N   0  0  0  0  0  2  0  0  0  0  0  0
  181.6260  178.7900  143.7110 C   0  0  0  0  0  1  0  0  0  0  0  0
  186.8720  177.8120  145.3490 N   0  0  0  0  0  0  0  0  0  0  0  0
  183.8640  178.9870  142.6600 C   0  0  2  0  0  3  0  0  0  0  0  0
  187.7240  177.8770  138.7410 C   0  0  0  0  0  2  0  0  0  0  0  0
  183.3090  177.9130  141.7190 C   0  0  0  0  0  1  0  0  0  0  0  0
  189.0380  177.1090  138.7270 C   0  0  0  0  0  2  0  0  0  0  0  0
  185.0270  178.4720  143.4430 C   0  0  0  0  0  0  0  0  0  0  0  0
  188.4880  177.0130  143.7280 N   0  0  0  0  0  0  0  0  0  0  0  0
  182.8940  179.5150  143.6740 N   0  0  0  0  0  0  0  0  0  0  0  0
  184.7680  178.6880  144.7500 C   0  0  0  0  0  0  0  0  0  0  0  0
  189.0400  177.4500  141.3640 C   0  0  1  0  0  3  0  0  0  0  0  0
  186.2530  177.9420  143.0210 C   0  0  0  0  0  0  0  0  0  0  0  0
  187.7810  179.0030  139.7600 C   0  0  0  0  0  2  0  0  0  0  0  0
  185.6860  178.3630  145.7350 C   0  0  0  0  0  3  0  0  0  0  0  0
  190.5180  176.0340  140.1880 O   0  0  0  0  0  0  0  0  0  0  0  0
  189.5690  176.7980  140.1020 C   0  0  0  0  0  0  0  0  0  0  0  0
  187.8480  178.4170  141.1640 C   0  0  1  0  0  3  0  0  0  0  0  0
  192.0560  178.2410  144.3440 C   0  0  0  0  0  2  0  0  0  0  0  0
  189.4760  176.9010  144.8070 C   0  0  0  0  0  3  0  0  0  0  0  0
  189.8080  178.2530  145.4530 C   0  0  0  0  0  2  0  0  0  0  0  0
  190.8000  179.0600  144.6170 C   0  0  0  0  0  2  0  0  0  0  0  0
  191.6920  176.9790  143.5710 C   0  0  0  0  0  2  0  0  0  0  0  0
  190.7270  176.1180  144.3850 C   0  0  0  0  0  2  0  0  0  0  0  0
  1 12  1  0  0  0  0
  2  6  1  0  0  0  0
  3 16  1  0  0  0  0
  6 18  2  0  0  0  0
  7  9  1  1  0  0  0
  7 11  1  0  0  0  0
  7 13  1  0  0  0  0
  8 17  1  0  0  0  0
 10  8  1  0  0  0  0
 10 20  1  0  0  0  0
 11 14  2  0  0  0  0
 12  2  1  0  0  0  0
 12 23  1  0  0  0  0
 13  5  1  0  0  0  0
 13  4  1  0  0  0  0
 14  4  1  0  0  0  0
 14 18  1  0  0  0  0
 15  1  1  1  0  0  0
 16 11  1  0  0  0  0
 16  2  2  0  0  0  0
 20 19  2  0  0  0  0
 20 15  1  0  0  0  0
 21 17  1  6  0  0  0
 21 15  1  0  0  0  0
 21  3  1  0  0  0  0
 22 25  1  0  0  0  0
 23 24  1  0  0  0  0
 25 24  1  0  0  0  0
 26 22  1  0  0  0  0
 26 27  1  0  0  0  0
 27 23  1  0  0  0  0
M  END
>  <MODEL>
5

>  <REMARK>
 VINA RESULT:      -7.8      3.005      7.330
  Name = 
  1 active torsions:
  status: ('A' for Active; 'I' for Inactive)
    1  A    between atoms: C_9  and  N_15
                            x       y       z     vdW  Elec       q    Type
                         _______ _______ _______ _____ _____    ______ ____

>  <TORSDO>
F 1

$$$$
=
 OpenBabel10262420003D

 27 31  0  0  1  0  0  0  0  0999 V2000
  187.5830  177.6160  142.4750 C   0  0  0  0  0  2  0  0  0  0  0  0
  187.7320  178.2080  140.0090 C   0  0  0  0  0  0  0  0  0  0  0  0
  189.7970  176.9390  140.9030 C   0  0  0  0  0  2  0  0  0  0  0  0
  189.3630  177.6670  136.2230 N   0  0  0  0  0  2  0  0  0  0  0  0
  190.4430  175.7180  135.6480 C   0  0  0  0  0  1  0  0  0  0  0  0
  187.0690  178.7260  138.9230 N   0  0  0  0  0  0  0  0  0  0  0  0
  190.6180  176.7140  137.9130 C   0  0  2  0  0  3  0  0  0  0  0  0
  191.4320  176.5440  143.4620 C   0  0  0  0  0  2  0  0  0  0  0  0
  190.7380  175.2490  138.3430 C   0  0  0  0  0  1  0  0  0  0  0  0
  190.5390  176.7530  144.6770 C   0  0  0  0  0  2  0  0  0  0  0  0
  189.3840  177.3440  138.4720 C   0  0  0  0  0  0  0  0  0  0  0  0
  187.1780  178.4260  141.3270 N   0  0  0  0  0  0  0  0  0  0  0  0
  190.5550  176.9450  136.4330 N   0  0  0  0  0  0  0  0  0  0  0  0
  188.6970  177.8850  137.4430 C   0  0  0  0  0  0  0  0  0  0  0  0
  188.9340  178.0800  143.0250 C   0  0  1  0  0  3  0  0  0  0  0  0
  188.9570  177.5030  139.7970 C   0  0  0  0  0  0  0  0  0  0  0  0
  191.4440  177.7900  142.5940 C   0  0  0  0  0  2  0  0  0  0  0  0
  187.5230  178.5890  137.6450 C   0  0  0  0  0  3  0  0  0  0  0  0
  188.3730  177.4490  145.2290 O   0  0  0  0  0  0  0  0  0  0  0  0
  189.2210  177.4050  144.3520 C   0  0  0  0  0  0  0  0  0  0  0  0
  190.0670  177.9930  141.9740 C   0  0  1  0  0  3  0  0  0  0  0  0
  183.5900  178.2530  142.6340 C   0  0  0  0  0  2  0  0  0  0  0  0
  186.0560  179.3600  141.4680 C   0  0  0  0  0  3  0  0  0  0  0  0
  185.6720  179.6140  142.9330 C   0  0  0  0  0  2  0  0  0  0  0  0
  184.8170  178.4860  143.5060 C   0  0  0  0  0  2  0  0  0  0  0  0
  184.0220  177.8610  141.2260 C   0  0  0  0  0  2  0  0  0  0  0  0
  184.8530  178.9770  140.5950 C   0  0  0  0  0  2  0  0  0  0  0  0
  2 12  1  0  0  0  0
  4 13  1  0  0  0  0
  4 14  1  0  0  0  0
  5 13  1  0  0  0  0
  6  2  2  0  0  0  0
  7  9  1  6  0  0  0
  7 11  1  0  0  0  0
  8 10  1  0  0  0  0
 11 16  2  0  0  0  0
 12 23  1  0  0  0  0
 12  1  1  0  0  0  0
 13  7  1  0  0  0  0
 14 18  2  0  0  0  0
 14 11  1  0  0  0  0
 15  1  1  6  0  0  0
 15 20  1  0  0  0  0
 16  2  1  0  0  0  0
 16  3  1  0  0  0  0
 17  8  1  0  0  0  0
 18  6  1  0  0  0  0
 20 10  1  0  0  0  0
 20 19  2  0  0  0  0
 21  3  1  6  0  0  0
 21 17  1  0  0  0  0
 21 15  1  0  0  0  0
 22 25  1  0  0  0  0
 23 24  1  0  0  0  0
 24 25  1  0  0  0  0
 26 22  1  0  0  0  0
 27 26  1  0  0  0  0
 27 23  1  0  0  0  0
M  END
>  <MODEL>
6

>  <REMARK>
 VINA RESULT:      -7.6      2.625      5.272
  Name = 
  1 active torsions:
  status: ('A' for Active; 'I' for Inactive)
    1  A    between atoms: C_9  and  N_15
                            x       y       z     vdW  Elec       q    Type
                         _______ _______ _______ _____ _____    ______ ____

>  <TORSDO>
F 1

$$$$
=
 OpenBabel10262420003D

 27 31  0  0  1  0  0  0  0  0999 V2000
  189.2970  176.9370  140.5180 C   0  0  0  0  0  2  0  0  0  0  0  0
  187.1960  178.1330  141.2980 C   0  0  0  0  0  0  0  0  0  0  0  0
  187.3600  177.8800  138.7330 C   0  0  0  0  0  2  0  0  0  0  0  0
  183.3110  179.4660  140.6590 N   0  0  0  0  0  2  0  0  0  0  0  0
  181.9750  178.5360  139.0330 C   0  0  0  0  0  1  0  0  0  0  0  0
  186.4400  178.5100  142.3810 N   0  0  0  0  0  0  0  0  0  0  0  0
  184.4120  178.8680  138.7180 C   0  0  2  0  0  3  0  0  0  0  0  0
  189.4250  177.7100  136.4780 C   0  0  0  0  0  2  0  0  0  0  0  0
  184.2850  177.6040  137.8630 C   0  0  0  0  0  1  0  0  0  0  0  0
  190.7240  177.1280  137.0170 C   0  0  0  0  0  2  0  0  0  0  0  0
  185.2870  178.6330  139.9070 C   0  0  0  0  0  0  0  0  0  0  0  0
  188.5580  177.7000  141.5220 N   0  0  0  0  0  0  0  0  0  0  0  0
  183.1240  179.4080  139.2630 N   0  0  0  0  0  0  0  0  0  0  0  0
  184.5940  179.0030  141.0050 C   0  0  0  0  0  0  0  0  0  0  0  0
  189.8270  177.8520  139.4130 C   0  0  1  0  0  3  0  0  0  0  0  0
  186.6200  178.2120  139.9940 C   0  0  0  0  0  0  0  0  0  0  0  0
  189.0550  178.9710  137.2400 C   0  0  0  0  0  2  0  0  0  0  0  0
  185.1550  178.9500  142.2690 C   0  0  0  0  0  3  0  0  0  0  0  0
  191.7150  176.4850  139.0390 O   0  0  0  0  0  0  0  0  0  0  0  0
  190.7930  177.0960  138.5210 C   0  0  0  0  0  0  0  0  0  0  0  0
  188.6980  178.6130  138.6770 C   0  0  1  0  0  3  0  0  0  0  0  0
  191.6110  176.3780  143.4060 C   0  0  0  0  0  2  0  0  0  0  0  0
  189.1390  177.8790  142.8580 C   0  0  0  0  0  3  0  0  0  0  0  0
  190.5170  178.5560  142.8230 C   0  0  0  0  0  2  0  0  0  0  0  0
  191.6290  177.5740  142.4610 C   0  0  0  0  0  2  0  0  0  0  0  0
  190.2750  175.6530  143.2970 C   0  0  0  0  0  2  0  0  0  0  0  0
  189.1300  176.5870  143.6860 C   0  0  0  0  0  2  0  0  0  0  0  0
  1 12  1  0  0  0  0
  2 12  1  0  0  0  0
  2  6  1  0  0  0  0
  3 16  1  0  0  0  0
  4 14  1  0  0  0  0
  5 13  1  0  0  0  0
  7  9  1  1  0  0  0
  7 13  1  0  0  0  0
  7 11  1  0  0  0  0
  8 10  1  0  0  0  0
  8 17  1  0  0  0  0
 10 20  1  0  0  0  0
 11 16  1  0  0  0  0
 11 14  2  0  0  0  0
 12 23  1  0  0  0  0
 13  4  1  0  0  0  0
 14 18  1  0  0  0  0
 15  1  1  1  0  0  0
 16  2  2  0  0  0  0
 18  6  2  0  0  0  0
 20 19  2  0  0  0  0
 20 15  1  0  0  0  0
 21 17  1  6  0  0  0
 21  3  1  0  0  0  0
 21 15  1  0  0  0  0
 23 27  1  0  0  0  0
 24 23  1  0  0  0  0
 25 24  1  0  0  0  0
 25 22  1  0  0  0  0
 26 22  1  0  0  0  0
 26 27  1  0  0  0  0
M  END
>  <MODEL>
7

>  <REMARK>
 VINA RESULT:      -7.3      2.735      7.582
  Name = 
  1 active torsions:
  status: ('A' for Active; 'I' for Inactive)
    1  A    between atoms: C_9  and  N_15
                            x       y       z     vdW  Elec       q    Type
                         _______ _______ _______ _____ _____    ______ ____

>  <TORSDO>
F 1

$$$$
=
 OpenBabel10262420003D

 27 31  0  0  1  0  0  0  0  0999 V2000
  187.3750  177.3500  139.4590 C   0  0  0  0  0  2  0  0  0  0  0  0
  189.5400  177.6650  140.7490 C   0  0  0  0  0  0  0  0  0  0  0  0
  187.4170  177.8760  142.2070 C   0  0  0  0  0  2  0  0  0  0  0  0
  191.6800  177.7460  144.3130 N   0  0  0  0  0  2  0  0  0  0  0  0
  190.9010  176.6940  146.2050 C   0  0  0  0  0  1  0  0  0  0  0  0
  190.9110  177.6050  140.6980 N   0  0  0  0  0  0  0  0  0  0  0  0
  189.3910  177.8430  144.6090 C   0  0  2  0  0  3  0  0  0  0  0  0
  184.4830  178.7340  142.0390 C   0  0  0  0  0  2  0  0  0  0  0  0
  188.4070  176.7530  145.0440 C   0  0  0  0  0  1  0  0  0  0  0  0
  183.9700  178.5300  140.6210 C   0  0  0  0  0  2  0  0  0  0  0  0
  189.7230  177.7250  143.1570 C   0  0  0  0  0  0  0  0  0  0  0  0
  188.8010  177.6690  139.5060 N   0  0  0  0  0  0  0  0  0  0  0  0
  190.7070  177.8450  145.3270 N   0  0  0  0  0  0  0  0  0  0  0  0
  191.0680  177.6770  143.0480 C   0  0  0  0  0  0  0  0  0  0  0  0
  186.5300  178.5460  139.9020 C   0  0  1  0  0  3  0  0  0  0  0  0
  188.9000  177.7520  142.0240 C   0  0  0  0  0  0  0  0  0  0  0  0
  185.6760  179.6740  142.0400 C   0  0  0  0  0  2  0  0  0  0  0  0
  191.6940  177.6160  141.8140 C   0  0  0  0  0  3  0  0  0  0  0  0
  184.7390  177.9410  138.4890 O   0  0  0  0  0  0  0  0  0  0  0  0
  185.0630  178.2910  139.6130 C   0  0  0  0  0  0  0  0  0  0  0  0
  186.8540  179.0030  141.3450 C   0  0  1  0  0  3  0  0  0  0  0  0
  188.0020  177.4130  135.7760 C   0  0  0  0  0  2  0  0  0  0  0  0
  189.5450  177.8200  138.2500 C   0  0  0  0  0  3  0  0  0  0  0  0
  189.0520  179.0020  137.4050 C   0  0  0  0  0  2  0  0  0  0  0  0
  187.7850  178.6610  136.6230 C   0  0  0  0  0  2  0  0  0  0  0  0
  188.3460  176.2310  136.6750 C   0  0  0  0  0  2  0  0  0  0  0  0
  189.6310  176.5110  137.4520 C   0  0  0  0  0  2  0  0  0  0  0  0
  1 12  1  0  0  0  0
  2 16  1  0  0  0  0
  4 13  1  0  0  0  0
  6  2  2  0  0  0  0
  6 18  1  0  0  0  0
  7  9  1  1  0  0  0
  7 13  1  0  0  0  0
  8 17  1  0  0  0  0
 10  8  1  0  0  0  0
 11  7  1  0  0  0  0
 12  2  1  0  0  0  0
 13  5  1  0  0  0  0
 14 11  1  0  0  0  0
 14  4  1  0  0  0  0
 15  1  1  1  0  0  0
 15 21  1  0  0  0  0
 16  3  1  0  0  0  0
 16 11  2  0  0  0  0
 18 14  2  0  0  0  0
 19 20  2  0  0  0  0
 20 15  1  0  0  0  0
 20 10  1  0  0  0  0
 21 17  1  1  0  0  0
 21  3  1  0  0  0  0
 22 25  1  0  0  0  0
 22 26  1  0  0  0  0
 23 12  1  0  0  0  0
 24 23  1  0  0  0  0
 25 24  1  0  0  0  0
 26 27  1  0  0  0  0
 27 23  1  0  0  0  0
M  END
>  <MODEL>
8

>  <REMARK>
 VINA RESULT:      -7.2      2.248      3.995
  Name = 
  1 active torsions:
  status: ('A' for Active; 'I' for Inactive)
    1  A    between atoms: C_9  and  N_15
                            x       y       z     vdW  Elec       q    Type
                         _______ _______ _______ _____ _____    ______ ____

>  <TORSDO>
F 1

$$$$
=
 OpenBabel10262420003D

 27 31  0  0  1  0  0  0  0  0999 V2000
  189.1750  176.8740  144.0520 C   0  0  0  0  0  2  0  0  0  0  0  0
  187.2290  178.1530  145.0660 C   0  0  0  0  0  0  0  0  0  0  0  0
  187.0230  177.7920  142.5160 C   0  0  0  0  0  2  0  0  0  0  0  0
  183.3180  179.5570  144.9210 N   0  0  0  0  0  2  0  0  0  0  0  0
  181.7480  178.5950  143.5410 C   0  0  0  0  0  1  0  0  0  0  0  0
  186.6410  178.5930  146.2270 N   0  0  0  0  0  0  0  0  0  0  0  0
  184.1230  178.8530  142.8730 C   0  0  2  0  0  3  0  0  0  0  0  0
  188.7450  177.4790  140.0040 C   0  0  0  0  0  2  0  0  0  0  0  0
  183.8510  177.5580  142.1010 C   0  0  0  0  0  1  0  0  0  0  0  0
  190.0960  176.8870  140.3800 C   0  0  0  0  0  2  0  0  0  0  0  0
  185.1520  178.6440  143.9360 C   0  0  0  0  0  0  0  0  0  0  0  0
  188.6000  177.6960  145.1150 N   0  0  0  0  0  0  0  0  0  0  0  0
  182.9350  179.4470  143.5700 N   0  0  0  0  0  0  0  0  0  0  0  0
  184.6280  179.0760  145.1030 C   0  0  0  0  0  0  0  0  0  0  0  0
  189.5610  177.7300  142.8440 C   0  0  1  0  0  3  0  0  0  0  0  0
  186.4750  178.1940  143.8530 C   0  0  0  0  0  0  0  0  0  0  0  0
  188.5110  178.7790  140.7540 C   0  0  0  0  0  2  0  0  0  0  0  0
  185.3620  179.0610  146.2770 C   0  0  0  0  0  3  0  0  0  0  0  0
  191.3500  176.3020  142.2680 O   0  0  0  0  0  0  0  0  0  0  0  0
  190.3760  176.9140  141.8590 C   0  0  0  0  0  0  0  0  0  0  0  0
  188.3540  178.4880  142.2410 C   0  0  1  0  0  3  0  0  0  0  0  0
  191.5690  176.0270  146.8520 C   0  0  0  0  0  2  0  0  0  0  0  0
  189.3670  177.9150  146.3470 C   0  0  0  0  0  3  0  0  0  0  0  0
  190.8300  178.2940  146.0780 C   0  0  0  0  0  2  0  0  0  0  0  0
  191.6880  177.0730  145.7500 C   0  0  0  0  0  2  0  0  0  0  0  0
  190.1200  175.5750  146.9820 C   0  0  0  0  0  2  0  0  0  0  0  0
  189.2250  176.7590  147.3470 C   0  0  0  0  0  2  0  0  0  0  0  0
  1 12  1  0  0  0  0
  2 12  1  0  0  0  0
  2  6  1  0  0  0  0
  3 16  1  0  0  0  0
  4 14  1  0  0  0  0
  5 13  1  0  0  0  0
  6 18  2  0  0  0  0
  7  9  1  1  0  0  0
  7 13  1  0  0  0  0
  7 11  1  0  0  0  0
  8 10  1  0  0  0  0
  8 17  1  0  0  0  0
 10 20  1  0  0  0  0
 11 14  2  0  0  0  0
 12 23  1  0  0  0  0
 13  4  1  0  0  0  0
 14 18  1  0  0  0  0
 15  1  1  1  0  0  0
 16 11  1  0  0  0  0
 16  2  2  0  0  0  0
 20 19  2  0  0  0  0
 20 15  1  0  0  0  0
 21 17  1  6  0  0  0
 21  3  1  0  0  0  0
 21 15  1  0  0  0  0
 22 26  1  0  0  0  0
 23 27  1  0  0  0  0
 24 23  1  0  0  0  0
 25 24  1  0  0  0  0
 25 22  1  0  0  0  0
 26 27  1  0  0  0  0
M  END
>  <MODEL>
9

>  <REMARK>
 VINA RESULT:      -7.2      3.351      7.863
  Name = 
  1 active torsions:
  status: ('A' for Active; 'I' for Inactive)
    1  A    between atoms: C_9  and  N_15
                            x       y       z     vdW  Elec       q    Type
                         _______ _______ _______ _____ _____    ______ ____

>  <TORSDO>
F 1

$$$$
