=
 OpenBabel10262419223D

 31 35  0  0  1  0  0  0  0  0999 V2000
  186.3200  177.6480  146.3420 C   0  0  0  0  0  0  0  0  0  0  0  0
  186.8440  177.9930  142.5610 C   0  0  0  0  0  0  0  0  0  0  0  0
  188.0730  177.4870  142.2710 C   0  0  0  0  0  0  0  0  0  0  0  0
  190.2720  176.6810  142.9890 C   0  0  0  0  0  0  0  0  0  0  0  0
  186.2680  178.0800  143.9430 C   0  0  0  0  0  0  0  0  0  0  0  0
  185.1570  178.4000  146.5120 C   0  0  0  0  0  3  0  0  0  0  0  0
  189.0010  176.9530  143.2910 C   0  0  0  0  0  3  0  0  0  0  0  0
  184.6660  178.9190  141.6450 C   0  0  1  0  0  3  0  0  0  0  0  0
  186.9220  177.0800  147.4130 F   0  0  0  0  0  0  0  0  0  0  0  0
  187.8820  178.3830  139.9180 C   0  0  0  0  0  3  0  0  0  0  0  0
  191.1820  176.1640  144.0440 C   0  0  0  0  0  1  0  0  0  0  0  0
  184.4040  179.3820  143.0040 N   0  0  0  0  0  2  0  0  0  0  0  0
  186.0800  178.5900  141.4840 N   0  0  0  0  0  0  0  0  0  0  0  0
  186.8720  177.4950  145.0680 C   0  0  0  0  0  3  0  0  0  0  0  0
  190.8060  176.9670  141.6440 C   0  0  0  0  0  3  0  0  0  0  0  0
  185.0760  178.8090  144.1250 C   0  0  0  0  0  0  0  0  0  0  0  0
  184.5360  178.9790  145.4040 C   0  0  0  0  0  3  0  0  0  0  0  0
  186.7040  178.9120  140.2340 C   0  0  0  0  0  3  0  0  0  0  0  0
  188.5050  177.3630  140.8180 C   0  0  1  0  0  3  0  0  0  0  0  0
  189.9980  177.3240  140.6430 C   0  0  0  0  0  3  0  0  0  0  0  0
  181.4230  176.9790  140.8200 C   0  0  0  0  0  1  0  0  0  0  0  0
  183.7240  177.4640  139.8480 C   0  0  0  0  0  2  0  0  0  0  0  0
  182.5200  178.0020  140.5880 C   0  0  2  0  0  0  0  0  0  0  0  0
  183.8060  177.6900  141.3520 C   0  0  2  0  0  3  0  0  0  0  0  0
  182.1570  179.4780  140.3170 C   0  0  1  0  0  3  0  0  0  0  0  0
  182.4370  179.9770  138.8820 C   0  0  0  0  0  0  0  0  0  0  0  0
  183.7760  180.3570  138.7890 O   0  0  0  0  0  1  0  0  0  0  0  0
  181.5730  181.1770  138.5280 C   0  0  0  0  0  1  0  0  0  0  0  0
  182.1900  178.8770  137.8670 C   0  0  0  0  0  1  0  0  0  0  0  0
  180.8690  180.0910  141.9300 O   0  0  0  0  0  1  0  0  0  0  0  0
  180.8220  179.7090  140.6700 O   0  0  0  0  0  0  0  0  0  0  0  0
  1  6  1  0  0  0  0
  1  9  1  0  0  0  0
  2  5  1  0  0  0  0
  3  2  2  0  0  0  0
  3  7  1  0  0  0  0
  4  7  2  0  0  0  0
  4 11  1  0  0  0  0
  5 16  2  0  0  0  0
  5 14  1  0  0  0  0
  8 12  1  1  0  0  0
 10 18  2  0  0  0  0
 12 16  1  0  0  0  0
 13  8  1  0  0  0  0
 13  2  1  0  0  0  0
 14  1  2  0  0  0  0
 15  4  1  0  0  0  0
 16 17  1  0  0  0  0
 17  6  2  0  0  0  0
 18 13  1  0  0  0  0
 19 10  1  6  0  0  0
 19  3  1  0  0  0  0
 20 19  1  0  0  0  0
 20 15  2  0  0  0  0
 22 23  1  0  0  0  0
 23 21  1  1  0  0  0
 23 24  1  0  0  0  0
 24 22  1  6  0  0  0
 24  8  1  0  0  0  0
 25 23  1  0  0  0  0
 25 31  1  6  0  0  0
 26 25  1  0  0  0  0
 27 26  1  0  0  0  0
 28 26  1  0  0  0  0
 29 26  1  0  0  0  0
 31 30  1  0  0  0  0
M  END
>  <MODEL>
1

>  <REMARK>
 VINA RESULT:      -8.2      0.000      0.000
  Name = 
  4 active torsions:
  status: ('A' for Active; 'I' for Inactive)
    1  A    between atoms: C_1  and  C_19
    2  A    between atoms: O_7  and  C_19
    3  A    between atoms: C_15  and  C_23
    4  A    between atoms: C_19  and  C_22
                            x       y       z     vdW  Elec       q    Type
                         _______ _______ _______ _____ _____    ______ ____

>  <TORSDO>
F 4

$$$$
=
 OpenBabel10262419223D

 31 35  0  0  1  0  0  0  0  0999 V2000
  185.1820  178.3720  143.3780 C   0  0  0  0  0  0  0  0  0  0  0  0
  188.8150  177.5810  142.4490 C   0  0  0  0  0  0  0  0  0  0  0  0
  189.4590  177.2220  143.5910 C   0  0  0  0  0  0  0  0  0  0  0  0
  189.5430  177.0620  146.0340 C   0  0  0  0  0  0  0  0  0  0  0  0
  187.3780  178.0050  142.3840 C   0  0  0  0  0  0  0  0  0  0  0  0
  184.7260  178.9340  142.1850 C   0  0  0  0  0  3  0  0  0  0  0  0
  188.8170  177.2010  144.9230 C   0  0  0  0  0  3  0  0  0  0  0  0
  188.9420  177.7940  139.9230 C   0  0  1  0  0  3  0  0  0  0  0  0
  184.3530  178.2810  144.4440 F   0  0  0  0  0  0  0  0  0  0  0  0
  191.6640  177.2800  142.3600 C   0  0  0  0  0  3  0  0  0  0  0  0
  188.8670  177.0650  147.3570 C   0  0  0  0  0  1  0  0  0  0  0  0
  187.7400  178.6140  140.0280 N   0  0  0  0  0  2  0  0  0  0  0  0
  189.5900  177.6700  141.2270 N   0  0  0  0  0  0  0  0  0  0  0  0
  186.4990  177.9160  143.4760 C   0  0  0  0  0  3  0  0  0  0  0  0
  191.0150  176.9910  145.9700 C   0  0  0  0  0  3  0  0  0  0  0  0
  186.8940  178.5460  141.1760 C   0  0  0  0  0  0  0  0  0  0  0  0
  185.5820  179.0210  141.0860 C   0  0  0  0  0  3  0  0  0  0  0  0
  191.0230  177.6780  141.2660 C   0  0  0  0  0  3  0  0  0  0  0  0
  190.8920  176.7170  143.5120 C   0  0  1  0  0  3  0  0  0  0  0  0
  191.6500  176.8730  144.8010 C   0  0  0  0  0  3  0  0  0  0  0  0
  187.5890  175.2290  137.3630 C   0  0  0  0  0  1  0  0  0  0  0  0
  189.7330  175.8340  138.5940 C   0  0  0  0  0  2  0  0  0  0  0  0
  188.5040  176.3310  137.8660 C   0  0  2  0  0  0  0  0  0  0  0  0
  188.5700  176.4110  139.3910 C   0  0  2  0  0  3  0  0  0  0  0  0
  188.6760  177.6280  137.0460 C   0  0  1  0  0  3  0  0  0  0  0  0
  189.3950  177.4640  135.6890 C   0  0  0  0  0  0  0  0  0  0  0  0
  189.9560  178.6870  135.3240 O   0  0  0  0  0  1  0  0  0  0  0  0
  188.4330  177.0320  134.5940 C   0  0  0  0  0  1  0  0  0  0  0  0
  190.5150  176.4450  135.7880 C   0  0  0  0  0  1  0  0  0  0  0  0
  187.6860  179.5380  136.9670 O   0  0  0  0  0  1  0  0  0  0  0  0
  187.4320  178.2480  136.8770 O   0  0  0  0  0  0  0  0  0  0  0  0
  1 14  1  0  0  0  0
  1  9  1  0  0  0  0
  2  3  2  0  0  0  0
  3  7  1  0  0  0  0
  4 11  1  0  0  0  0
  5  2  1  0  0  0  0
  5 14  2  0  0  0  0
  6  1  2  0  0  0  0
  7  4  2  0  0  0  0
  8 12  1  1  0  0  0
  8 13  1  0  0  0  0
 12 16  1  0  0  0  0
 13 18  1  0  0  0  0
 13  2  1  0  0  0  0
 15  4  1  0  0  0  0
 16  5  1  0  0  0  0
 17 16  2  0  0  0  0
 17  6  1  0  0  0  0
 18 10  2  0  0  0  0
 19 10  1  6  0  0  0
 19  3  1  0  0  0  0
 19 20  1  0  0  0  0
 20 15  2  0  0  0  0
 23 21  1  6  0  0  0
 23 22  1  0  0  0  0
 23 24  1  0  0  0  0
 24 22  1  6  0  0  0
 24  8  1  0  0  0  0
 25 31  1  6  0  0  0
 25 23  1  0  0  0  0
 26 29  1  0  0  0  0
 26 25  1  0  0  0  0
 27 26  1  0  0  0  0
 28 26  1  0  0  0  0
 31 30  1  0  0  0  0
M  END
>  <MODEL>
2

>  <REMARK>
 VINA RESULT:      -7.7      3.308      5.409
  Name = 
  4 active torsions:
  status: ('A' for Active; 'I' for Inactive)
    1  A    between atoms: C_1  and  C_19
    2  A    between atoms: O_7  and  C_19
    3  A    between atoms: C_15  and  C_23
    4  A    between atoms: C_19  and  C_22
                            x       y       z     vdW  Elec       q    Type
                         _______ _______ _______ _____ _____    ______ ____

>  <TORSDO>
F 4

$$$$
=
 OpenBabel10262419223D

 31 35  0  0  1  0  0  0  0  0999 V2000
  184.8420  177.8310  137.9210 C   0  0  0  0  0  0  0  0  0  0  0  0
  184.6740  178.5010  141.6900 C   0  0  0  0  0  0  0  0  0  0  0  0
  183.3600  178.5450  142.0390 C   0  0  0  0  0  0  0  0  0  0  0  0
  180.9920  178.6680  141.4240 C   0  0  0  0  0  0  0  0  0  0  0  0
  185.1730  178.2950  140.2920 C   0  0  0  0  0  0  0  0  0  0  0  0
  186.2000  178.0420  137.6810 C   0  0  0  0  0  3  0  0  0  0  0  0
  182.2500  178.3930  141.0740 C   0  0  0  0  0  3  0  0  0  0  0  0
  187.0800  178.5040  142.4980 C   0  0  1  0  0  3  0  0  0  0  0  0
  184.0150  177.5130  136.8980 F   0  0  0  0  0  0  0  0  0  0  0  0
  184.0020  179.3770  144.3360 C   0  0  0  0  0  3  0  0  0  0  0  0
  179.9040  178.5220  140.4220 C   0  0  0  0  0  1  0  0  0  0  0  0
  187.4440  178.7700  141.1110 N   0  0  0  0  0  2  0  0  0  0  0  0
  185.6620  178.7790  142.7140 N   0  0  0  0  0  0  0  0  0  0  0  0
  184.3340  177.9610  139.2160 C   0  0  0  0  0  3  0  0  0  0  0  0
  180.6800  179.1960  142.7650 C   0  0  0  0  0  3  0  0  0  0  0  0
  186.5480  178.4740  140.0390 C   0  0  0  0  0  0  0  0  0  0  0  0
  187.0510  178.3630  138.7390 C   0  0  0  0  0  3  0  0  0  0  0  0
  185.2770  179.3730  143.9610 C   0  0  0  0  0  3  0  0  0  0  0  0
  182.9810  178.6610  143.5080 C   0  0  1  0  0  3  0  0  0  0  0  0
  181.6080  179.2350  143.7240 C   0  0  0  0  0  3  0  0  0  0  0  0
  189.2880  175.3590  142.9460 C   0  0  0  0  0  1  0  0  0  0  0  0
  187.8040  176.9270  144.2940 C   0  0  0  0  0  2  0  0  0  0  0  0
  188.8460  176.7880  143.2060 C   0  0  2  0  0  0  0  0  0  0  0  0
  187.3860  177.0450  142.8340 C   0  0  2  0  0  3  0  0  0  0  0  0
  189.8590  177.9460  143.0810 C   0  0  1  0  0  3  0  0  0  0  0  0
  190.5150  178.3990  144.4030 C   0  0  0  0  0  0  0  0  0  0  0  0
  189.5150  178.6390  145.3460 O   0  0  0  0  0  1  0  0  0  0  0  0
  191.3180  179.6770  144.2210 C   0  0  0  0  0  1  0  0  0  0  0  0
  191.4290  177.3200  144.9540 C   0  0  0  0  0  1  0  0  0  0  0  0
  190.2430  177.8020  140.9670 O   0  0  0  0  0  1  0  0  0  0  0  0
  190.8340  177.6210  142.1300 O   0  0  0  0  0  0  0  0  0  0  0  0
  1 14  1  0  0  0  0
  2  3  2  0  0  0  0
  2 13  1  0  0  0  0
  3 19  1  0  0  0  0
  4 15  1  0  0  0  0
  5  2  1  0  0  0  0
  6  1  2  0  0  0  0
  6 17  1  0  0  0  0
  7  4  2  0  0  0  0
  7  3  1  0  0  0  0
  8 12  1  6  0  0  0
  8 13  1  0  0  0  0
  8 24  1  0  0  0  0
  9  1  1  0  0  0  0
 11  4  1  0  0  0  0
 13 18  1  0  0  0  0
 14  5  2  0  0  0  0
 15 20  2  0  0  0  0
 16  5  1  0  0  0  0
 16 12  1  0  0  0  0
 17 16  2  0  0  0  0
 18 10  2  0  0  0  0
 19 20  1  6  0  0  0
 19 10  1  0  0  0  0
 23 21  1  6  0  0  0
 23 22  1  0  0  0  0
 24 23  1  0  0  0  0
 24 22  1  1  0  0  0
 25 31  1  6  0  0  0
 25 23  1  0  0  0  0
 25 26  1  0  0  0  0
 26 29  1  0  0  0  0
 26 27  1  0  0  0  0
 28 26  1  0  0  0  0
 30 31  1  0  0  0  0
M  END
>  <MODEL>
3

>  <REMARK>
 VINA RESULT:      -7.4      3.751      7.842
  Name = 
  4 active torsions:
  status: ('A' for Active; 'I' for Inactive)
    1  A    between atoms: C_1  and  C_19
    2  A    between atoms: O_7  and  C_19
    3  A    between atoms: C_15  and  C_23
    4  A    between atoms: C_19  and  C_22
                            x       y       z     vdW  Elec       q    Type
                         _______ _______ _______ _____ _____    ______ ____

>  <TORSDO>
F 4

$$$$
=
 OpenBabel10262419223D

 31 35  0  0  1  0  0  0  0  0999 V2000
  187.3250  178.2070  136.7430 C   0  0  0  0  0  0  0  0  0  0  0  0
  186.2040  178.3230  140.4060 C   0  0  0  0  0  0  0  0  0  0  0  0
  184.8460  178.2580  140.4200 C   0  0  0  0  0  0  0  0  0  0  0  0
  182.6930  178.3630  139.2550 C   0  0  0  0  0  0  0  0  0  0  0  0
  187.0400  178.3420  139.1610 C   0  0  0  0  0  0  0  0  0  0  0  0
  188.6800  178.5100  136.8770 C   0  0  0  0  0  3  0  0  0  0  0  0
  184.0160  178.1960  139.1970 C   0  0  0  0  0  3  0  0  0  0  0  0
  188.3390  178.3180  141.7800 C   0  0  1  0  0  3  0  0  0  0  0  0
  186.7950  178.0020  135.5140 F   0  0  0  0  0  0  0  0  0  0  0  0
  184.8500  178.7810  142.8910 C   0  0  0  0  0  3  0  0  0  0  0  0
  181.8920  178.3130  138.0050 C   0  0  0  0  0  1  0  0  0  0  0  0
  189.0020  178.7950  140.5730 N   0  0  0  0  0  2  0  0  0  0  0  0
  186.8920  178.4960  141.6700 N   0  0  0  0  0  0  0  0  0  0  0  0
  186.5130  178.1280  137.8770 C   0  0  0  0  0  3  0  0  0  0  0  0
  182.0280  178.6790  140.5330 C   0  0  0  0  0  3  0  0  0  0  0  0
  188.4170  178.6160  139.2830 C   0  0  0  0  0  0  0  0  0  0  0  0
  189.2240  178.7140  138.1460 C   0  0  0  0  0  3  0  0  0  0  0  0
  186.1740  178.8870  142.8480 C   0  0  0  0  0  3  0  0  0  0  0  0
  184.1170  178.1460  141.7500 C   0  0  1  0  0  3  0  0  0  0  0  0
  182.6920  178.6220  141.6900 C   0  0  0  0  0  3  0  0  0  0  0  0
  190.2560  175.2880  143.2330 C   0  0  0  0  0  1  0  0  0  0  0  0
  187.9280  176.3170  143.2170 C   0  0  0  0  0  2  0  0  0  0  0  0
  189.4210  176.5540  143.2910 C   0  0  2  0  0  0  0  0  0  0  0  0
  188.6680  176.8400  141.9920 C   0  0  2  0  0  3  0  0  0  0  0  0
  189.8780  177.7440  144.1620 C   0  0  1  0  0  3  0  0  0  0  0  0
  189.4990  177.6560  145.6570 C   0  0  0  0  0  0  0  0  0  0  0  0
  189.5530  178.9340  146.2130 O   0  0  0  0  0  1  0  0  0  0  0  0
  190.4540  176.7580  146.4260 C   0  0  0  0  0  1  0  0  0  0  0  0
  188.0850  177.1300  145.8280 C   0  0  0  0  0  1  0  0  0  0  0  0
  191.3760  179.1810  143.5920 O   0  0  0  0  0  1  0  0  0  0  0  0
  191.2560  177.9380  144.0110 O   0  0  0  0  0  0  0  0  0  0  0  0
  1  6  2  0  0  0  0
  1 14  1  0  0  0  0
  2  3  2  0  0  0  0
  2 13  1  0  0  0  0
  3 19  1  0  0  0  0
  4 15  1  0  0  0  0
  5 16  1  0  0  0  0
  5  2  1  0  0  0  0
  6 17  1  0  0  0  0
  7  4  2  0  0  0  0
  7  3  1  0  0  0  0
  8 12  1  6  0  0  0
  8 24  1  0  0  0  0
  9  1  1  0  0  0  0
 11  4  1  0  0  0  0
 13  8  1  0  0  0  0
 13 18  1  0  0  0  0
 14  5  2  0  0  0  0
 15 20  2  0  0  0  0
 16 12  1  0  0  0  0
 17 16  2  0  0  0  0
 18 10  2  0  0  0  0
 19 20  1  6  0  0  0
 19 10  1  0  0  0  0
 22 23  1  0  0  0  0
 23 21  1  1  0  0  0
 23 25  1  0  0  0  0
 24 22  1  1  0  0  0
 24 23  1  0  0  0  0
 25 31  1  1  0  0  0
 25 26  1  0  0  0  0
 26 29  1  0  0  0  0
 26 27  1  0  0  0  0
 26 28  1  0  0  0  0
 30 31  1  0  0  0  0
M  END
>  <MODEL>
4

>  <REMARK>
 VINA RESULT:      -7.3      4.013      7.998
  Name = 
  4 active torsions:
  status: ('A' for Active; 'I' for Inactive)
    1  A    between atoms: C_1  and  C_19
    2  A    between atoms: O_7  and  C_19
    3  A    between atoms: C_15  and  C_23
    4  A    between atoms: C_19  and  C_22
                            x       y       z     vdW  Elec       q    Type
                         _______ _______ _______ _____ _____    ______ ____

>  <TORSDO>
F 4

$$$$
=
 OpenBabel10262419223D

 31 35  0  0  1  0  0  0  0  0999 V2000
  186.1860  177.7710  146.1700 C   0  0  0  0  0  0  0  0  0  0  0  0
  185.6700  178.3610  142.4180 C   0  0  0  0  0  0  0  0  0  0  0  0
  186.8110  177.9800  141.7840 C   0  0  0  0  0  0  0  0  0  0  0  0
  189.1720  177.3290  141.8480 C   0  0  0  0  0  0  0  0  0  0  0  0
  185.4730  178.3240  143.9040 C   0  0  0  0  0  0  0  0  0  0  0  0
  185.0590  178.4090  146.6890 C   0  0  0  0  0  3  0  0  0  0  0  0
  188.0100  177.4740  142.4870 C   0  0  0  0  0  3  0  0  0  0  0  0
  183.2680  179.1440  142.1670 C   0  0  1  0  0  3  0  0  0  0  0  0
  187.0860  177.2000  147.0040 F   0  0  0  0  0  0  0  0  0  0  0  0
  185.9460  178.9800  139.6330 C   0  0  0  0  0  3  0  0  0  0  0  0
  190.3610  176.8370  142.5900 C   0  0  0  0  0  1  0  0  0  0  0  0
  183.3420  179.5090  143.5770 N   0  0  0  0  0  2  0  0  0  0  0  0
  184.6100  178.9460  141.6220 N   0  0  0  0  0  0  0  0  0  0  0  0
  186.3910  177.7340  144.7880 C   0  0  0  0  0  3  0  0  0  0  0  0
  189.3120  177.7320  140.4360 C   0  0  0  0  0  3  0  0  0  0  0  0
  184.3240  178.9370  144.4420 C   0  0  0  0  0  0  0  0  0  0  0  0
  184.1290  178.9910  145.8260 C   0  0  0  0  0  3  0  0  0  0  0  0
  184.8590  179.3880  140.2800 C   0  0  0  0  0  3  0  0  0  0  0  0
  186.8530  177.9710  140.2640 C   0  0  1  0  0  3  0  0  0  0  0  0
  188.2460  178.0710  139.7060 C   0  0  0  0  0  3  0  0  0  0  0  0
  180.1190  177.0160  141.4480 C   0  0  0  0  0  1  0  0  0  0  0  0
  182.4740  177.4030  140.5630 C   0  0  0  0  0  2  0  0  0  0  0  0
  181.2130  178.0180  141.1300 C   0  0  2  0  0  0  0  0  0  0  0  0
  182.4490  177.8620  142.0150 C   0  0  2  0  0  3  0  0  0  0  0  0
  180.8480  179.4240  140.6070 C   0  0  1  0  0  3  0  0  0  0  0  0
  180.7230  179.5500  139.0730 C   0  0  0  0  0  0  0  0  0  0  0  0
  180.4650  178.2890  138.5350 O   0  0  0  0  0  1  0  0  0  0  0  0
  182.0030  180.0840  138.4490 C   0  0  0  0  0  1  0  0  0  0  0  0
  179.5740  180.4660  138.6950 C   0  0  0  0  0  1  0  0  0  0  0  0
  180.1050  180.6610  142.2060 O   0  0  0  0  0  1  0  0  0  0  0  0
  179.6810  179.8740  141.2370 O   0  0  0  0  0  0  0  0  0  0  0  0
  1  6  1  0  0  0  0
  1  9  1  0  0  0  0
  2  5  1  0  0  0  0
  3  2  2  0  0  0  0
  3  7  1  0  0  0  0
  4  7  2  0  0  0  0
  4 11  1  0  0  0  0
  5 16  2  0  0  0  0
  5 14  1  0  0  0  0
  8 12  1  1  0  0  0
 10 18  2  0  0  0  0
 12 16  1  0  0  0  0
 13  8  1  0  0  0  0
 13  2  1  0  0  0  0
 14  1  2  0  0  0  0
 15  4  1  0  0  0  0
 16 17  1  0  0  0  0
 17  6  2  0  0  0  0
 18 13  1  0  0  0  0
 19 10  1  6  0  0  0
 19  3  1  0  0  0  0
 20 19  1  0  0  0  0
 20 15  2  0  0  0  0
 22 23  1  0  0  0  0
 23 21  1  1  0  0  0
 23 24  1  0  0  0  0
 24 22  1  6  0  0  0
 24  8  1  0  0  0  0
 25 23  1  0  0  0  0
 25 31  1  1  0  0  0
 26 25  1  0  0  0  0
 27 26  1  0  0  0  0
 28 26  1  0  0  0  0
 29 26  1  0  0  0  0
 31 30  1  0  0  0  0
M  END
>  <MODEL>
5

>  <REMARK>
 VINA RESULT:      -7.2      1.232      1.636
  Name = 
  4 active torsions:
  status: ('A' for Active; 'I' for Inactive)
    1  A    between atoms: C_1  and  C_19
    2  A    between atoms: O_7  and  C_19
    3  A    between atoms: C_15  and  C_23
    4  A    between atoms: C_19  and  C_22
                            x       y       z     vdW  Elec       q    Type
                         _______ _______ _______ _____ _____    ______ ____

>  <TORSDO>
F 4

$$$$
=
 OpenBabel10262419223D

 31 35  0  0  1  0  0  0  0  0999 V2000
  184.9050  179.0690  141.2600 C   0  0  0  0  0  0  0  0  0  0  0  0
  188.3390  177.5900  142.1020 C   0  0  0  0  0  0  0  0  0  0  0  0
  189.1130  177.6960  140.9900 C   0  0  0  0  0  0  0  0  0  0  0  0
  189.3540  178.1320  138.5910 C   0  0  0  0  0  0  0  0  0  0  0  0
  186.9050  178.0220  142.1820 C   0  0  0  0  0  0  0  0  0  0  0  0
  184.1750  178.6860  142.3850 C   0  0  0  0  0  3  0  0  0  0  0  0
  188.6350  178.2570  139.7080 C   0  0  0  0  0  3  0  0  0  0  0  0
  188.2420  176.9820  144.5650 C   0  0  1  0  0  3  0  0  0  0  0  0
  184.3000  179.7520  140.2600 F   0  0  0  0  0  0  0  0  0  0  0  0
  190.8780  176.2600  142.0860 C   0  0  0  0  0  3  0  0  0  0  0  0
  188.8330  178.6910  137.3170 C   0  0  0  0  0  1  0  0  0  0  0  0
  186.7920  176.9840  144.4090 N   0  0  0  0  0  2  0  0  0  0  0  0
  188.8950  176.9160  143.2590 N   0  0  0  0  0  0  0  0  0  0  0  0
  186.2580  178.7350  141.1590 C   0  0  0  0  0  3  0  0  0  0  0  0
  190.6180  177.3720  138.5890 C   0  0  0  0  0  3  0  0  0  0  0  0
  186.1620  177.6690  143.3260 C   0  0  0  0  0  0  0  0  0  0  0  0
  184.8040  177.9870  143.4170 C   0  0  0  0  0  3  0  0  0  0  0  0
  190.0870  176.1270  143.1460 C   0  0  0  0  0  3  0  0  0  0  0  0
  190.5840  177.3130  141.0640 C   0  0  1  0  0  3  0  0  0  0  0  0
  191.1730  176.9530  139.7290 C   0  0  0  0  0  3  0  0  0  0  0  0
  189.5470  179.0780  147.5430 C   0  0  0  0  0  1  0  0  0  0  0  0
  190.1810  178.4380  145.1620 C   0  0  0  0  0  2  0  0  0  0  0  0
  189.6040  177.9900  146.4870 C   0  0  2  0  0  0  0  0  0  0  0  0
  188.6760  178.2490  145.3020 C   0  0  2  0  0  3  0  0  0  0  0  0
  189.8950  176.5290  146.8960 C   0  0  1  0  0  3  0  0  0  0  0  0
  191.3900  176.1640  147.0340 C   0  0  0  0  0  0  0  0  0  0  0  0
  192.0420  177.1830  147.7280 O   0  0  0  0  0  1  0  0  0  0  0  0
  192.0550  176.0060  145.6770 C   0  0  0  0  0  1  0  0  0  0  0  0
  191.5630  174.8770  147.8190 C   0  0  0  0  0  1  0  0  0  0  0  0
  187.9310  176.4100  147.7690 O   0  0  0  0  0  1  0  0  0  0  0  0
  189.1990  176.2200  148.0710 O   0  0  0  0  0  0  0  0  0  0  0  0
  1  6  1  0  0  0  0
  2  5  1  0  0  0  0
  2 13  1  0  0  0  0
  3 19  1  0  0  0  0
  3  2  2  0  0  0  0
  4  7  2  0  0  0  0
  5 16  2  0  0  0  0
  6 17  2  0  0  0  0
  7  3  1  0  0  0  0
  8 12  1  6  0  0  0
  8 24  1  0  0  0  0
  9  1  1  0  0  0  0
 10 18  2  0  0  0  0
 11  4  1  0  0  0  0
 13  8  1  0  0  0  0
 14  1  2  0  0  0  0
 14  5  1  0  0  0  0
 15  4  1  0  0  0  0
 15 20  2  0  0  0  0
 16 17  1  0  0  0  0
 16 12  1  0  0  0  0
 18 13  1  0  0  0  0
 19 20  1  6  0  0  0
 19 10  1  0  0  0  0
 22 23  1  0  0  0  0
 23 25  1  0  0  0  0
 23 21  1  1  0  0  0
 24 22  1  6  0  0  0
 24 23  1  0  0  0  0
 25 26  1  0  0  0  0
 25 31  1  1  0  0  0
 26 27  1  0  0  0  0
 26 29  1  0  0  0  0
 28 26  1  0  0  0  0
 30 31  1  0  0  0  0
M  END
>  <MODEL>
6

>  <REMARK>
 VINA RESULT:      -7.0      4.286      7.457
  Name = 
  4 active torsions:
  status: ('A' for Active; 'I' for Inactive)
    1  A    between atoms: C_1  and  C_19
    2  A    between atoms: O_7  and  C_19
    3  A    between atoms: C_15  and  C_23
    4  A    between atoms: C_19  and  C_22
                            x       y       z     vdW  Elec       q    Type
                         _______ _______ _______ _____ _____    ______ ____

>  <TORSDO>
F 4

$$$$
=
 OpenBabel10262419223D

 31 35  0  0  1  0  0  0  0  0999 V2000
  191.6160  176.1450  145.4720 C   0  0  0  0  0  0  0  0  0  0  0  0
  188.2010  177.3680  144.2370 C   0  0  0  0  0  0  0  0  0  0  0  0
  187.5490  177.9030  145.3030 C   0  0  0  0  0  0  0  0  0  0  0  0
  187.3420  178.2640  147.7170 C   0  0  0  0  0  0  0  0  0  0  0  0
  189.5610  176.7410  144.3030 C   0  0  0  0  0  0  0  0  0  0  0  0
  192.0560  175.4330  144.3560 C   0  0  0  0  0  3  0  0  0  0  0  0
  188.1060  177.9380  146.6720 C   0  0  0  0  0  3  0  0  0  0  0  0
  188.1960  176.9780  141.7280 C   0  0  1  0  0  3  0  0  0  0  0  0
  192.3840  176.2010  146.5860 F   0  0  0  0  0  0  0  0  0  0  0  0
  185.4370  178.0620  143.9260 C   0  0  0  0  0  3  0  0  0  0  0  0
  187.9300  178.2690  149.0820 C   0  0  0  0  0  1  0  0  0  0  0  0
  189.2560  176.0070  141.9750 N   0  0  0  0  0  2  0  0  0  0  0  0
  187.4960  177.2940  142.9720 N   0  0  0  0  0  0  0  0  0  0  0  0
  190.3770  176.7900  145.4450 C   0  0  0  0  0  3  0  0  0  0  0  0
  185.9040  178.5380  147.5440 C   0  0  0  0  0  3  0  0  0  0  0  0
  190.0330  176.0440  143.1720 C   0  0  0  0  0  0  0  0  0  0  0  0
  191.2640  175.3830  143.2080 C   0  0  0  0  0  3  0  0  0  0  0  0
  186.0780  177.4930  142.9100 C   0  0  0  0  0  3  0  0  0  0  0  0
  186.2130  178.5990  145.0880 C   0  0  1  0  0  3  0  0  0  0  0  0
  185.3640  178.6530  146.3280 C   0  0  0  0  0  3  0  0  0  0  0  0
  189.4310  179.3300  138.9160 C   0  0  0  0  0  1  0  0  0  0  0  0
  187.6870  179.2260  140.7670 C   0  0  0  0  0  2  0  0  0  0  0  0
  188.4180  178.4860  139.6690 C   0  0  2  0  0  0  0  0  0  0  0  0
  188.7980  178.2490  141.1300 C   0  0  2  0  0  3  0  0  0  0  0  0
  187.6120  177.4000  138.9260 C   0  0  1  0  0  3  0  0  0  0  0  0
  186.2930  177.8780  138.2790 C   0  0  0  0  0  0  0  0  0  0  0  0
  186.5550  179.0030  137.4970 O   0  0  0  0  0  1  0  0  0  0  0  0
  185.2590  178.2540  139.3280 C   0  0  0  0  0  1  0  0  0  0  0  0
  185.7100  176.8060  137.3770 C   0  0  0  0  0  1  0  0  0  0  0  0
  189.1910  175.9570  138.6820 O   0  0  0  0  0  1  0  0  0  0  0  0
  188.4280  176.7690  137.9790 O   0  0  0  0  0  0  0  0  0  0  0  0
  1  9  1  0  0  0  0
  2  5  1  0  0  0  0
  2  3  2  0  0  0  0
  3  7  1  0  0  0  0
  4 11  1  0  0  0  0
  5 14  2  0  0  0  0
  6  1  2  0  0  0  0
  7  4  2  0  0  0  0
  8 12  1  1  0  0  0
  8 13  1  0  0  0  0
 12 16  1  0  0  0  0
 13  2  1  0  0  0  0
 14  1  1  0  0  0  0
 15  4  1  0  0  0  0
 16 17  2  0  0  0  0
 16  5  1  0  0  0  0
 17  6  1  0  0  0  0
 18 13  1  0  0  0  0
 18 10  2  0  0  0  0
 19 10  1  6  0  0  0
 19  3  1  0  0  0  0
 19 20  1  0  0  0  0
 20 15  2  0  0  0  0
 23 21  1  6  0  0  0
 23 22  1  0  0  0  0
 23 24  1  0  0  0  0
 24 22  1  1  0  0  0
 24  8  1  0  0  0  0
 25 31  1  6  0  0  0
 25 23  1  0  0  0  0
 26 25  1  0  0  0  0
 26 28  1  0  0  0  0
 27 26  1  0  0  0  0
 29 26  1  0  0  0  0
 31 30  1  0  0  0  0
M  END
>  <MODEL>
7

>  <REMARK>
 VINA RESULT:      -7.0      3.003      5.708
  Name = 
  4 active torsions:
  status: ('A' for Active; 'I' for Inactive)
    1  A    between atoms: C_1  and  C_19
    2  A    between atoms: O_7  and  C_19
    3  A    between atoms: C_15  and  C_23
    4  A    between atoms: C_19  and  C_22
                            x       y       z     vdW  Elec       q    Type
                         _______ _______ _______ _____ _____    ______ ____

>  <TORSDO>
F 4

$$$$
=
 OpenBabel10262419223D

 31 35  0  0  1  0  0  0  0  0999 V2000
  179.7690  179.4010  143.8200 C   0  0  0  0  0  0  0  0  0  0  0  0
  182.9810  178.6310  141.8770 C   0  0  0  0  0  0  0  0  0  0  0  0
  183.9690  178.4220  142.7870 C   0  0  0  0  0  0  0  0  0  0  0  0
  184.8140  178.5390  145.0840 C   0  0  0  0  0  0  0  0  0  0  0  0
  181.5700  178.9970  142.2260 C   0  0  0  0  0  0  0  0  0  0  0  0
  178.9310  179.8110  142.7830 C   0  0  0  0  0  3  0  0  0  0  0  0
  183.7730  178.5290  144.2490 C   0  0  0  0  0  3  0  0  0  0  0  0
  182.3070  178.5640  139.4300 C   0  0  1  0  0  3  0  0  0  0  0  0
  179.3180  179.4020  145.0960 F   0  0  0  0  0  0  0  0  0  0  0  0
  185.6770  178.4150  140.9260 C   0  0  0  0  0  3  0  0  0  0  0  0
  184.5810  178.6680  146.5450 C   0  0  0  0  0  1  0  0  0  0  0  0
  181.1450  179.3510  139.8290 N   0  0  0  0  0  2  0  0  0  0  0  0
  183.3330  178.6080  140.4700 N   0  0  0  0  0  0  0  0  0  0  0  0
  181.0790  179.0020  143.5420 C   0  0  0  0  0  3  0  0  0  0  0  0
  186.1950  178.5100  144.5680 C   0  0  0  0  0  3  0  0  0  0  0  0
  180.7020  179.3840  141.1850 C   0  0  0  0  0  0  0  0  0  0  0  0
  179.3970  179.8020  141.4670 C   0  0  0  0  0  3  0  0  0  0  0  0
  184.7040  178.6680  140.0560 C   0  0  0  0  0  3  0  0  0  0  0  0
  185.3380  177.9590  142.3110 C   0  0  1  0  0  3  0  0  0  0  0  0
  186.4450  178.2830  143.2750 C   0  0  0  0  0  3  0  0  0  0  0  0
  181.4710  175.4360  137.3150 C   0  0  0  0  0  1  0  0  0  0  0  0
  183.1120  176.2250  139.0930 C   0  0  0  0  0  2  0  0  0  0  0  0
  182.3470  176.5620  137.8320 C   0  0  2  0  0  0  0  0  0  0  0  0
  181.8810  177.1190  139.1770 C   0  0  2  0  0  3  0  0  0  0  0  0
  183.0530  177.5110  136.8400 C   0  0  1  0  0  3  0  0  0  0  0  0
  184.4020  177.0040  136.2830 C   0  0  0  0  0  0  0  0  0  0  0  0
  184.5450  175.6540  136.6030 O   0  0  0  0  0  1  0  0  0  0  0  0
  185.5750  177.7650  136.8790 C   0  0  0  0  0  1  0  0  0  0  0  0
  184.4480  177.1360  134.7720 C   0  0  0  0  0  1  0  0  0  0  0  0
  181.5350  178.9080  136.2260 O   0  0  0  0  0  1  0  0  0  0  0  0
  182.1790  177.8420  135.7980 O   0  0  0  0  0  0  0  0  0  0  0  0
  1  9  1  0  0  0  0
  2  5  1  0  0  0  0
  2  3  2  0  0  0  0
  3  7  1  0  0  0  0
  4 11  1  0  0  0  0
  5 14  2  0  0  0  0
  6  1  2  0  0  0  0
  7  4  2  0  0  0  0
  8 12  1  1  0  0  0
  8 13  1  0  0  0  0
 12 16  1  0  0  0  0
 13  2  1  0  0  0  0
 14  1  1  0  0  0  0
 15  4  1  0  0  0  0
 16 17  2  0  0  0  0
 16  5  1  0  0  0  0
 17  6  1  0  0  0  0
 18 13  1  0  0  0  0
 18 10  2  0  0  0  0
 19 10  1  6  0  0  0
 19  3  1  0  0  0  0
 19 20  1  0  0  0  0
 20 15  2  0  0  0  0
 23 21  1  6  0  0  0
 23 22  1  0  0  0  0
 23 24  1  0  0  0  0
 24 22  1  1  0  0  0
 24  8  1  0  0  0  0
 25 31  1  6  0  0  0
 25 23  1  0  0  0  0
 26 27  1  0  0  0  0
 26 25  1  0  0  0  0
 26 28  1  0  0  0  0
 29 26  1  0  0  0  0
 31 30  1  0  0  0  0
M  END
>  <MODEL>
8

>  <REMARK>
 VINA RESULT:      -7.0      3.142      5.063
  Name = 
  4 active torsions:
  status: ('A' for Active; 'I' for Inactive)
    1  A    between atoms: C_1  and  C_19
    2  A    between atoms: O_7  and  C_19
    3  A    between atoms: C_15  and  C_23
    4  A    between atoms: C_19  and  C_22
                            x       y       z     vdW  Elec       q    Type
                         _______ _______ _______ _____ _____    ______ ____

>  <TORSDO>
F 4

$$$$
=
 OpenBabel10262419223D

 31 35  0  0  1  0  0  0  0  0999 V2000
  185.4570  178.4870  141.3160 C   0  0  0  0  0  0  0  0  0  0  0  0
  189.1660  177.5840  140.9820 C   0  0  0  0  0  0  0  0  0  0  0  0
  189.6620  177.4210  142.2370 C   0  0  0  0  0  0  0  0  0  0  0  0
  189.4440  177.6640  144.6650 C   0  0  0  0  0  0  0  0  0  0  0  0
  187.7540  177.9800  140.6720 C   0  0  0  0  0  0  0  0  0  0  0  0
  185.1580  178.8430  140.0010 C   0  0  0  0  0  3  0  0  0  0  0  0
  188.8610  177.6130  143.4660 C   0  0  0  0  0  3  0  0  0  0  0  0
  189.6040  177.3810  138.4890 C   0  0  1  0  0  3  0  0  0  0  0  0
  184.5030  178.5660  142.2730 F   0  0  0  0  0  0  0  0  0  0  0  0
  192.0010  177.2940  141.2940 C   0  0  0  0  0  3  0  0  0  0  0  0
  188.6110  177.8790  145.8770 C   0  0  0  0  0  1  0  0  0  0  0  0
  188.4080  178.1970  138.3110 N   0  0  0  0  0  2  0  0  0  0  0  0
  190.0860  177.4770  139.8660 N   0  0  0  0  0  0  0  0  0  0  0  0
  186.7460  178.0640  141.6480 C   0  0  0  0  0  3  0  0  0  0  0  0
  190.9120  177.5950  144.7950 C   0  0  0  0  0  3  0  0  0  0  0  0
  187.4280  178.3120  139.3420 C   0  0  0  0  0  0  0  0  0  0  0  0
  186.1420  178.7550  139.0150 C   0  0  0  0  0  3  0  0  0  0  0  0
  191.5030  177.5030  140.0790 C   0  0  0  0  0  3  0  0  0  0  0  0
  191.0870  176.9210  142.4190 C   0  0  1  0  0  3  0  0  0  0  0  0
  191.6840  177.2930  143.7480 C   0  0  0  0  0  3  0  0  0  0  0  0
  189.3430  174.2420  136.2440 C   0  0  0  0  0  1  0  0  0  0  0  0
  190.5240  175.0640  138.3430 C   0  0  0  0  0  2  0  0  0  0  0  0
  190.0510  175.3880  136.9430 C   0  0  2  0  0  0  0  0  0  0  0  0
  189.2830  175.9260  138.1490 C   0  0  2  0  0  3  0  0  0  0  0  0
  190.9370  176.3590  136.1330 C   0  0  1  0  0  3  0  0  0  0  0  0
  192.4030  175.9140  135.9370 C   0  0  0  0  0  0  0  0  0  0  0  0
  192.8890  176.4640  134.7520 O   0  0  0  0  0  1  0  0  0  0  0  0
  192.5210  174.4000  135.8470 C   0  0  0  0  0  1  0  0  0  0  0  0
  193.2770  176.4060  137.0760 C   0  0  0  0  0  1  0  0  0  0  0  0
  189.4660  177.5910  135.1570 O   0  0  0  0  0  1  0  0  0  0  0  0
  190.3340  176.6340  134.9000 O   0  0  0  0  0  0  0  0  0  0  0  0
  1 14  1  0  0  0  0
  1  9  1  0  0  0  0
  2  3  2  0  0  0  0
  3 19  1  0  0  0  0
  3  7  1  0  0  0  0
  4 15  1  0  0  0  0
  4 11  1  0  0  0  0
  5  2  1  0  0  0  0
  5 14  2  0  0  0  0
  6  1  2  0  0  0  0
  7  4  2  0  0  0  0
  8 12  1  1  0  0  0
  8 13  1  0  0  0  0
 12 16  1  0  0  0  0
 13 18  1  0  0  0  0
 13  2  1  0  0  0  0
 16  5  1  0  0  0  0
 17 16  2  0  0  0  0
 17  6  1  0  0  0  0
 18 10  2  0  0  0  0
 19 10  1  6  0  0  0
 19 20  1  0  0  0  0
 20 15  2  0  0  0  0
 23 21  1  6  0  0  0
 23 24  1  0  0  0  0
 23 22  1  0  0  0  0
 24 22  1  1  0  0  0
 24  8  1  0  0  0  0
 25 31  1  6  0  0  0
 25 23  1  0  0  0  0
 26 25  1  0  0  0  0
 26 29  1  0  0  0  0
 27 26  1  0  0  0  0
 28 26  1  0  0  0  0
 31 30  1  0  0  0  0
M  END
>  <MODEL>
9

>  <REMARK>
 VINA RESULT:      -6.9      4.134      7.124
  Name = 
  4 active torsions:
  status: ('A' for Active; 'I' for Inactive)
    1  A    between atoms: C_1  and  C_19
    2  A    between atoms: O_7  and  C_19
    3  A    between atoms: C_15  and  C_23
    4  A    between atoms: C_19  and  C_22
                            x       y       z     vdW  Elec       q    Type
                         _______ _______ _______ _____ _____    ______ ____

>  <TORSDO>
F 4

$$$$
