=
 OpenBabel10262420033D

 27 30  0  0  1  0  0  0  0  0999 V2000
  188.7240  177.0380  137.9980 O   0  0  0  0  0  0  0  0  0  0  0  0
  190.1140  177.2220  138.0830 C   0  0  0  0  0  2  0  0  0  0  0  0
  188.1530  177.9510  138.8980 C   0  0  0  0  0  2  0  0  0  0  0  0
  190.6240  176.6500  139.4020 C   0  0  0  0  0  2  0  0  0  0  0  0
  189.9240  177.3470  140.5780 C   0  0  1  0  0  3  0  0  0  0  0  0
  188.4090  177.5120  140.3410 C   0  0  1  0  0  3  0  0  0  0  0  0
  187.8230  178.5730  141.2640 C   0  0  0  0  0  2  0  0  0  0  0  0
  187.2640  177.9910  143.4370 C   0  0  0  0  0  2  0  0  0  0  0  0
  183.3360  179.2520  142.8030 O   0  0  0  0  0  0  0  0  0  0  0  0
  183.0760  177.6380  140.8540 C   0  0  0  0  0  2  0  0  0  0  0  0
  186.2080  177.5310  144.4480 C   0  0  0  0  0  2  0  0  0  0  0  0
  185.0770  179.2770  140.6240 C   0  0  0  0  0  2  0  0  0  0  0  0
  184.2160  178.1820  139.9830 C   0  0  0  0  0  2  0  0  0  0  0  0
  185.6050  178.9730  142.0410 C   0  0  1  0  0  3  0  0  0  0  0  0
  182.4590  178.6460  141.8580 C   0  0  0  0  0  2  0  0  0  0  0  0
  184.4900  178.4700  142.9560 C   0  0  1  0  0  3  0  0  0  0  0  0
  186.7350  178.0270  142.0670 N   0  0  0  0  0  0  0  0  0  0  0  0
  184.9850  178.4420  144.3890 C   0  0  0  0  0  2  0  0  0  0  0  0
  190.2370  176.6150  141.8830 C   0  0  0  0  0  2  0  0  0  0  0  0
  191.5320  177.1070  142.5190 C   0  0  0  0  0  2  0  0  0  0  0  0
  191.2460  178.2880  143.4280 C   0  0  0  0  0  2  0  0  0  0  0  0
  190.8170  176.7360  147.4190 C   0  0  0  0  0  2  0  0  0  0  0  0
  191.2740  177.8800  144.8930 C   0  0  0  0  0  3  0  0  0  0  0  0
  191.7760  176.4450  145.0510 C   0  0  0  0  0  2  0  0  0  0  0  0
  191.8670  176.0520  146.5320 C   0  0  0  0  0  2  0  0  0  0  0  0
  189.5580  177.0710  146.6260 C   0  0  0  0  0  2  0  0  0  0  0  0
  189.8680  178.0480  145.4860 C   0  0  0  0  0  2  0  0  0  0  0  0
  1  2  1  0  0  0  0
  1  3  1  0  0  0  0
  2  4  1  0  0  0  0
  3  6  1  0  0  0  0
  4  5  1  0  0  0  0
  5 19  1  1  0  0  0
  6  5  1  0  0  0  0
  6  7  1  1  0  0  0
  7 17  1  0  0  0  0
  8 11  1  0  0  0  0
  9 16  1  0  0  0  0
 10 15  1  0  0  0  0
 13 12  1  0  0  0  0
 13 10  1  0  0  0  0
 14 12  1  6  0  0  0
 14 17  1  0  0  0  0
 14 16  1  0  0  0  0
 15  9  1  0  0  0  0
 16 18  1  1  0  0  0
 17  8  1  0  0  0  0
 18 11  1  0  0  0  0
 19 20  1  0  0  0  0
 20 21  1  0  0  0  0
 21 23  1  0  0  0  0
 23 24  1  0  0  0  0
 23 27  1  0  0  0  0
 24 25  1  0  0  0  0
 25 22  1  0  0  0  0
 26 22  1  0  0  0  0
 27 26  1  0  0  0  0
M  END
>  <MODEL>
1

>  <REMARK>
 VINA RESULT:      -8.1      0.000      0.000
  Name = 
  6 active torsions:
  status: ('A' for Active; 'I' for Inactive)
    1  A    between atoms: C_1  and  C_15
    2  A    between atoms: C_1  and  C_18
    3  A    between atoms: C_3  and  N_19
    4  A    between atoms: C_3  and  C_26
    5  A    between atoms: C_9  and  C_15
    6  A    between atoms: C_18  and  C_24
                            x       y       z     vdW  Elec       q    Type
                         _______ _______ _______ _____ _____    ______ ____

>  <TORSDO>
F 6

$$$$
=
 OpenBabel10262420033D

 27 30  0  0  1  0  0  0  0  0999 V2000
  184.0170  179.3900  145.7550 O   0  0  0  0  0  0  0  0  0  0  0  0
  184.8550  178.4130  146.3160 C   0  0  0  0  0  2  0  0  0  0  0  0
  183.4580  178.8110  144.6050 C   0  0  0  0  0  2  0  0  0  0  0  0
  186.1080  178.2610  145.4590 C   0  0  0  0  0  2  0  0  0  0  0  0
  185.7150  177.8660  144.0280 C   0  0  1  0  0  3  0  0  0  0  0  0
  184.5130  178.6790  143.5050 C   0  0  1  0  0  3  0  0  0  0  0  0
  183.8630  177.9880  142.3130 C   0  0  0  0  0  2  0  0  0  0  0  0
  184.3540  178.9340  140.2550 C   0  0  0  0  0  2  0  0  0  0  0  0
  180.2870  179.1270  139.3320 O   0  0  0  0  0  0  0  0  0  0  0  0
  179.8310  180.5350  141.4000 C   0  0  0  0  0  2  0  0  0  0  0  0
  183.9420  179.8370  139.0870 C   0  0  0  0  0  2  0  0  0  0  0  0
  181.0010  178.2690  141.8880 C   0  0  0  0  0  2  0  0  0  0  0  0
  180.3420  179.5360  142.4460 C   0  0  0  0  0  2  0  0  0  0  0  0
  182.0820  178.4920  140.8110 C   0  0  1  0  0  3  0  0  0  0  0  0
  179.3530  179.9170  140.0600 C   0  0  0  0  0  2  0  0  0  0  0  0
  181.5960  179.4490  139.7220 C   0  0  1  0  0  3  0  0  0  0  0  0
  183.3720  178.9640  141.3470 N   0  0  0  0  0  0  0  0  0  0  0  0
  182.5690  179.4290  138.5600 C   0  0  0  0  0  2  0  0  0  0  0  0
  186.9310  177.9580  143.1070 C   0  0  0  0  0  2  0  0  0  0  0  0
  188.1120  177.1490  143.6340 C   0  0  0  0  0  2  0  0  0  0  0  0
  189.3540  178.0200  143.6800 C   0  0  0  0  0  2  0  0  0  0  0  0
  191.2210  176.7970  147.3600 C   0  0  0  0  0  2  0  0  0  0  0  0
  190.1610  177.7660  144.9430 C   0  0  0  0  0  3  0  0  0  0  0  0
  190.9850  176.4840  144.8190 C   0  0  0  0  0  2  0  0  0  0  0  0
  191.8510  176.2600  146.0660 C   0  0  0  0  0  2  0  0  0  0  0  0
  189.6990  176.7920  147.2770 C   0  0  0  0  0  2  0  0  0  0  0  0
  189.2060  177.7000  146.1430 C   0  0  0  0  0  2  0  0  0  0  0  0
  1  2  1  0  0  0  0
  3  1  1  0  0  0  0
  4  2  1  0  0  0  0
  5 19  1  6  0  0  0
  5  4  1  0  0  0  0
  6  7  1  6  0  0  0
  6  5  1  0  0  0  0
  6  3  1  0  0  0  0
  8 17  1  0  0  0  0
  9 16  1  0  0  0  0
  9 15  1  0  0  0  0
 10 13  1  0  0  0  0
 11  8  1  0  0  0  0
 12 13  1  0  0  0  0
 14 17  1  0  0  0  0
 14 12  1  1  0  0  0
 15 10  1  0  0  0  0
 16 18  1  6  0  0  0
 16 14  1  0  0  0  0
 17  7  1  0  0  0  0
 18 11  1  0  0  0  0
 19 20  1  0  0  0  0
 20 21  1  0  0  0  0
 21 23  1  0  0  0  0
 23 27  1  0  0  0  0
 24 23  1  0  0  0  0
 24 25  1  0  0  0  0
 25 22  1  0  0  0  0
 26 22  1  0  0  0  0
 27 26  1  0  0  0  0
M  END
>  <MODEL>
2

>  <REMARK>
 VINA RESULT:      -8.1      2.885      4.912
  Name = 
  6 active torsions:
  status: ('A' for Active; 'I' for Inactive)
    1  A    between atoms: C_1  and  C_15
    2  A    between atoms: C_1  and  C_18
    3  A    between atoms: C_3  and  N_19
    4  A    between atoms: C_3  and  C_26
    5  A    between atoms: C_9  and  C_15
    6  A    between atoms: C_18  and  C_24
                            x       y       z     vdW  Elec       q    Type
                         _______ _______ _______ _____ _____    ______ ____

>  <TORSDO>
F 6

$$$$
=
 OpenBabel10262420033D

 27 30  0  0  1  0  0  0  0  0999 V2000
  188.9190  177.3120  138.5270 O   0  0  0  0  0  0  0  0  0  0  0  0
  190.1970  177.4940  139.0800 C   0  0  0  0  0  2  0  0  0  0  0  0
  188.0840  178.2480  139.1590 C   0  0  0  0  0  2  0  0  0  0  0  0
  190.2180  176.9490  140.5050 C   0  0  0  0  0  2  0  0  0  0  0  0
  189.1640  177.6740  141.3550 C   0  0  1  0  0  3  0  0  0  0  0  0
  187.8240  177.8390  140.6110 C   0  0  1  0  0  3  0  0  0  0  0  0
  186.9700  178.9230  141.2560 C   0  0  0  0  0  2  0  0  0  0  0  0
  185.8500  178.6920  143.2720 C   0  0  0  0  0  2  0  0  0  0  0  0
  182.1790  179.0520  141.3170 O   0  0  0  0  0  0  0  0  0  0  0  0
  182.7170  177.0620  139.8270 C   0  0  0  0  0  2  0  0  0  0  0  0
  184.5990  178.2550  144.0430 C   0  0  0  0  0  2  0  0  0  0  0  0
  184.4840  178.9650  139.7490 C   0  0  0  0  0  2  0  0  0  0  0  0
  183.9950  177.6240  139.1880 C   0  0  0  0  0  2  0  0  0  0  0  0
  184.5890  179.0520  141.2850 C   0  0  1  0  0  3  0  0  0  0  0  0
  181.7090  178.1190  140.3490 C   0  0  0  0  0  2  0  0  0  0  0  0
  183.3170  178.5430  141.9620 C   0  0  1  0  0  3  0  0  0  0  0  0
  185.7610  178.3550  141.8450 N   0  0  0  0  0  0  0  0  0  0  0  0
  183.3530  178.8940  143.4360 C   0  0  0  0  0  2  0  0  0  0  0  0
  189.0030  176.9690  142.7020 C   0  0  0  0  0  2  0  0  0  0  0  0
  189.4790  177.8360  143.8630 C   0  0  0  0  0  2  0  0  0  0  0  0
  190.0250  176.9590  144.9740 C   0  0  0  0  0  2  0  0  0  0  0  0
  187.7710  177.7270  148.5590 C   0  0  0  0  0  2  0  0  0  0  0  0
  189.1410  177.0140  146.2100 C   0  0  0  0  0  3  0  0  0  0  0  0
  187.9800  177.9890  146.0100 C   0  0  0  0  0  2  0  0  0  0  0  0
  187.0500  177.9990  147.2300 C   0  0  0  0  0  2  0  0  0  0  0  0
  189.2260  178.1780  148.5000 C   0  0  0  0  0  2  0  0  0  0  0  0
  189.9990  177.4100  147.4210 C   0  0  0  0  0  2  0  0  0  0  0  0
  1  2  1  0  0  0  0
  1  3  1  0  0  0  0
  2  4  1  0  0  0  0
  3  6  1  0  0  0  0
  4  5  1  0  0  0  0
  5 19  1  1  0  0  0
  6  7  1  1  0  0  0
  6  5  1  0  0  0  0
  7 17  1  0  0  0  0
  8 11  1  0  0  0  0
  9 16  1  0  0  0  0
 10 15  1  0  0  0  0
 13 12  1  0  0  0  0
 13 10  1  0  0  0  0
 14 12  1  6  0  0  0
 14 17  1  0  0  0  0
 14 16  1  0  0  0  0
 15  9  1  0  0  0  0
 16 18  1  1  0  0  0
 17  8  1  0  0  0  0
 18 11  1  0  0  0  0
 19 20  1  0  0  0  0
 20 21  1  0  0  0  0
 21 23  1  0  0  0  0
 23 27  1  0  0  0  0
 24 23  1  0  0  0  0
 24 25  1  0  0  0  0
 25 22  1  0  0  0  0
 26 22  1  0  0  0  0
 27 26  1  0  0  0  0
M  END
>  <MODEL>
3

>  <REMARK>
 VINA RESULT:      -8.0      1.378      2.092
  Name = 
  6 active torsions:
  status: ('A' for Active; 'I' for Inactive)
    1  A    between atoms: C_1  and  C_15
    2  A    between atoms: C_1  and  C_18
    3  A    between atoms: C_3  and  N_19
    4  A    between atoms: C_3  and  C_26
    5  A    between atoms: C_9  and  C_15
    6  A    between atoms: C_18  and  C_24
                            x       y       z     vdW  Elec       q    Type
                         _______ _______ _______ _____ _____    ______ ____

>  <TORSDO>
F 6

$$$$
=
 OpenBabel10262420033D

 27 30  0  0  1  0  0  0  0  0999 V2000
  186.1600  179.3710  140.8850 O   0  0  0  0  0  0  0  0  0  0  0  0
  184.8980  178.9150  140.4710 C   0  0  0  0  0  2  0  0  0  0  0  0
  186.6510  178.4040  141.7770 C   0  0  0  0  0  2  0  0  0  0  0  0
  183.8980  179.0740  141.6130 C   0  0  0  0  0  2  0  0  0  0  0  0
  184.3750  178.2790  142.8370 C   0  0  1  0  0  3  0  0  0  0  0  0
  185.8840  178.4570  143.1000 C   0  0  1  0  0  3  0  0  0  0  0  0
  186.4180  177.3460  143.9950 C   0  0  0  0  0  2  0  0  0  0  0  0
  186.6750  177.7590  146.2620 C   0  0  0  0  0  2  0  0  0  0  0  0
  190.7190  176.7510  146.0240 O   0  0  0  0  0  0  0  0  0  0  0  0
  191.1170  178.5430  144.2630 C   0  0  0  0  0  2  0  0  0  0  0  0
  187.5720  178.1780  147.4320 C   0  0  0  0  0  2  0  0  0  0  0  0
  189.2590  176.8360  143.6490 C   0  0  0  0  0  2  0  0  0  0  0  0
  190.1240  178.0240  143.2140 C   0  0  0  0  0  2  0  0  0  0  0  0
  188.5450  176.9870  145.0090 C   0  0  1  0  0  3  0  0  0  0  0  0
  191.6660  177.4800  145.2500 C   0  0  0  0  0  2  0  0  0  0  0  0
  189.5100  177.4600  146.0950 C   0  0  1  0  0  3  0  0  0  0  0  0
  187.3670  177.8710  144.9710 N   0  0  0  0  0  0  0  0  0  0  0  0
  188.8450  177.3360  147.4510 C   0  0  0  0  0  2  0  0  0  0  0  0
  183.5220  178.6320  144.0550 C   0  0  0  0  0  2  0  0  0  0  0  0
  182.2520  179.3830  143.6690 C   0  0  0  0  0  2  0  0  0  0  0  0
  181.0560  178.4530  143.7510 C   0  0  0  0  0  2  0  0  0  0  0  0
  178.9310  179.3000  140.1060 C   0  0  0  0  0  2  0  0  0  0  0  0
  180.1240  178.6430  142.5650 C   0  0  0  0  0  3  0  0  0  0  0  0
  180.5550  177.7710  141.3850 C   0  0  0  0  0  2  0  0  0  0  0  0
  179.5790  177.9120  140.2090 C   0  0  0  0  0  2  0  0  0  0  0  0
  179.8360  180.3780  140.6900 C   0  0  0  0  0  2  0  0  0  0  0  0
  180.0990  180.1290  142.1810 C   0  0  0  0  0  2  0  0  0  0  0  0
  1  3  1  0  0  0  0
  2  1  1  0  0  0  0
  2  4  1  0  0  0  0
  3  6  1  0  0  0  0
  4  5  1  0  0  0  0
  5  6  1  0  0  0  0
  5 19  1  1  0  0  0
  6  7  1  1  0  0  0
  7 17  1  0  0  0  0
  8 11  1  0  0  0  0
  9 16  1  0  0  0  0
 10 15  1  0  0  0  0
 11 18  1  0  0  0  0
 13 12  1  0  0  0  0
 13 10  1  0  0  0  0
 14 12  1  6  0  0  0
 14 16  1  0  0  0  0
 15  9  1  0  0  0  0
 16 18  1  1  0  0  0
 17 14  1  0  0  0  0
 17  8  1  0  0  0  0
 20 21  1  0  0  0  0
 20 19  1  0  0  0  0
 22 25  1  0  0  0  0
 22 26  1  0  0  0  0
 23 21  1  0  0  0  0
 24 23  1  0  0  0  0
 25 24  1  0  0  0  0
 26 27  1  0  0  0  0
 27 23  1  0  0  0  0
M  END
>  <MODEL>
4

>  <REMARK>
 VINA RESULT:      -7.9      2.614      8.142
  Name = 
  6 active torsions:
  status: ('A' for Active; 'I' for Inactive)
    1  A    between atoms: C_1  and  C_15
    2  A    between atoms: C_1  and  C_18
    3  A    between atoms: C_3  and  N_19
    4  A    between atoms: C_3  and  C_26
    5  A    between atoms: C_9  and  C_15
    6  A    between atoms: C_18  and  C_24
                            x       y       z     vdW  Elec       q    Type
                         _______ _______ _______ _____ _____    ______ ____

>  <TORSDO>
F 6

$$$$
=
 OpenBabel10262420033D

 27 30  0  0  1  0  0  0  0  0999 V2000
  185.6080  179.7540  141.9110 O   0  0  0  0  0  0  0  0  0  0  0  0
  184.6090  179.0460  142.5990 C   0  0  0  0  0  2  0  0  0  0  0  0
  186.4470  178.7860  141.3380 C   0  0  0  0  0  2  0  0  0  0  0  0
  185.2000  178.4260  143.8610 C   0  0  0  0  0  2  0  0  0  0  0  0
  186.3550  177.4860  143.4870 C   0  0  1  0  0  3  0  0  0  0  0  0
  187.2830  178.0950  142.4160 C   0  0  1  0  0  3  0  0  0  0  0  0
  188.1200  177.0160  141.7410 C   0  0  0  0  0  2  0  0  0  0  0  0
  190.4180  177.3170  141.7140 C   0  0  0  0  0  2  0  0  0  0  0  0
  190.4610  176.9030  137.5600 O   0  0  0  0  0  0  0  0  0  0  0  0
  188.8340  178.8410  137.2970 C   0  0  0  0  0  2  0  0  0  0  0  0
  191.6780  177.7830  140.9750 C   0  0  0  0  0  2  0  0  0  0  0  0
  187.9820  176.9320  138.8380 C   0  0  0  0  0  2  0  0  0  0  0  0
  187.6810  178.2550  138.1240 C   0  0  0  0  0  2  0  0  0  0  0  0
  189.2840  176.8950  139.6640 C   0  0  1  0  0  3  0  0  0  0  0  0
  189.8060  177.8050  136.6740 C   0  0  0  0  0  2  0  0  0  0  0  0
  190.4700  177.4290  138.8610 C   0  0  1  0  0  3  0  0  0  0  0  0
  189.1960  177.6060  140.9520 N   0  0  0  0  0  0  0  0  0  0  0  0
  191.7580  177.1280  139.5990 C   0  0  0  0  0  2  0  0  0  0  0  0
  187.1120  177.0590  144.7450 C   0  0  0  0  0  2  0  0  0  0  0  0
  186.7090  177.8820  145.9640 C   0  0  0  0  0  2  0  0  0  0  0  0
  187.9240  178.1510  146.8300 C   0  0  0  0  0  2  0  0  0  0  0  0
  191.6800  176.4730  145.5680 C   0  0  0  0  0  2  0  0  0  0  0  0
  189.1310  177.3590  146.3540 C   0  0  0  0  0  3  0  0  0  0  0  0
  190.1110  177.1110  147.5020 C   0  0  0  0  0  2  0  0  0  0  0  0
  191.2990  176.2560  147.0400 C   0  0  0  0  0  2  0  0  0  0  0  0
  191.3160  177.8780  145.1040 C   0  0  0  0  0  2  0  0  0  0  0  0
  189.8040  178.1160  145.2010 C   0  0  0  0  0  2  0  0  0  0  0  0
  1  2  1  0  0  0  0
  2  4  1  0  0  0  0
  3  1  1  0  0  0  0
  3  6  1  0  0  0  0
  5  4  1  0  0  0  0
  5 19  1  1  0  0  0
  6  7  1  6  0  0  0
  6  5  1  0  0  0  0
  9 16  1  0  0  0  0
 10 13  1  0  0  0  0
 11  8  1  0  0  0  0
 13 12  1  0  0  0  0
 14 12  1  6  0  0  0
 14 17  1  0  0  0  0
 15 10  1  0  0  0  0
 15  9  1  0  0  0  0
 16 18  1  1  0  0  0
 16 14  1  0  0  0  0
 17  8  1  0  0  0  0
 17  7  1  0  0  0  0
 18 11  1  0  0  0  0
 19 20  1  0  0  0  0
 20 21  1  0  0  0  0
 22 25  1  0  0  0  0
 23 21  1  0  0  0  0
 23 24  1  0  0  0  0
 25 24  1  0  0  0  0
 26 27  1  0  0  0  0
 26 22  1  0  0  0  0
 27 23  1  0  0  0  0
M  END
>  <MODEL>
5

>  <REMARK>
 VINA RESULT:      -7.7      1.471      5.227
  Name = 
  6 active torsions:
  status: ('A' for Active; 'I' for Inactive)
    1  A    between atoms: C_1  and  C_15
    2  A    between atoms: C_1  and  C_18
    3  A    between atoms: C_3  and  N_19
    4  A    between atoms: C_3  and  C_26
    5  A    between atoms: C_9  and  C_15
    6  A    between atoms: C_18  and  C_24
                            x       y       z     vdW  Elec       q    Type
                         _______ _______ _______ _____ _____    ______ ____

>  <TORSDO>
F 6

$$$$
=
 OpenBabel10262420033D

 27 30  0  0  1  0  0  0  0  0999 V2000
  191.9550  176.8050  141.8500 O   0  0  0  0  0  0  0  0  0  0  0  0
  191.7060  177.5780  142.9960 C   0  0  0  0  0  2  0  0  0  0  0  0
  191.3780  177.5030  140.7760 C   0  0  0  0  0  2  0  0  0  0  0  0
  190.2320  177.4720  143.3720 C   0  0  0  0  0  2  0  0  0  0  0  0
  189.3610  177.9580  142.2040 C   0  0  1  0  0  3  0  0  0  0  0  0
  189.8520  177.4230  140.8440 C   0  0  1  0  0  3  0  0  0  0  0  0
  189.2890  178.2490  139.6950 C   0  0  0  0  0  2  0  0  0  0  0  0
  187.1570  178.2180  138.7860 C   0  0  0  0  0  2  0  0  0  0  0  0
  188.6170  176.3810  135.3330 O   0  0  0  0  0  0  0  0  0  0  0  0
  189.5420  174.4400  136.6930 C   0  0  0  0  0  2  0  0  0  0  0  0
  186.1320  177.5660  137.8510 C   0  0  0  0  0  2  0  0  0  0  0  0
  190.3940  176.7750  137.4460 C   0  0  0  0  0  2  0  0  0  0  0  0
  190.4810  175.2520  137.5960 C   0  0  0  0  0  2  0  0  0  0  0  0
  188.9740  177.3760  137.4990 C   0  0  1  0  0  3  0  0  0  0  0  0
  189.2080  175.0850  135.3220 C   0  0  0  0  0  2  0  0  0  0  0  0
  188.0150  176.6240  136.5770 C   0  0  1  0  0  3  0  0  0  0  0  0
  188.4050  177.4460  138.8570 N   0  0  0  0  0  0  0  0  0  0  0  0
  186.7200  177.4010  136.4530 C   0  0  0  0  0  2  0  0  0  0  0  0
  187.8930  177.6230  142.4700 C   0  0  0  0  0  2  0  0  0  0  0  0
  187.7190  176.7540  143.7120 C   0  0  0  0  0  2  0  0  0  0  0  0
  186.9100  177.5000  144.7560 C   0  0  0  0  0  2  0  0  0  0  0  0
  189.0550  178.2530  148.4100 C   0  0  0  0  0  2  0  0  0  0  0  0
  187.7800  177.9340  145.9260 C   0  0  0  0  0  3  0  0  0  0  0  0
  188.8210  176.8640  146.2590 C   0  0  0  0  0  2  0  0  0  0  0  0
  189.7420  177.3260  147.3970 C   0  0  0  0  0  2  0  0  0  0  0  0
  187.5580  177.9780  148.4860 C   0  0  0  0  0  2  0  0  0  0  0  0
  186.8810  178.2330  147.1340 C   0  0  0  0  0  2  0  0  0  0  0  0
  1  2  1  0  0  0  0
  2  4  1  0  0  0  0
  3  6  1  0  0  0  0
  3  1  1  0  0  0  0
  5 19  1  1  0  0  0
  5  4  1  0  0  0  0
  6  7  1  6  0  0  0
  6  5  1  0  0  0  0
  8 17  1  0  0  0  0
  9 16  1  0  0  0  0
 10 13  1  0  0  0  0
 11  8  1  0  0  0  0
 12 13  1  0  0  0  0
 14 12  1  1  0  0  0
 14 17  1  0  0  0  0
 15  9  1  0  0  0  0
 15 10  1  0  0  0  0
 16 18  1  6  0  0  0
 16 14  1  0  0  0  0
 17  7  1  0  0  0  0
 18 11  1  0  0  0  0
 19 20  1  0  0  0  0
 20 21  1  0  0  0  0
 21 23  1  0  0  0  0
 22 26  1  0  0  0  0
 23 24  1  0  0  0  0
 23 27  1  0  0  0  0
 24 25  1  0  0  0  0
 25 22  1  0  0  0  0
 27 26  1  0  0  0  0
M  END
>  <MODEL>
6

>  <REMARK>
 VINA RESULT:      -7.5      2.888      5.414
  Name = 
  6 active torsions:
  status: ('A' for Active; 'I' for Inactive)
    1  A    between atoms: C_1  and  C_15
    2  A    between atoms: C_1  and  C_18
    3  A    between atoms: C_3  and  N_19
    4  A    between atoms: C_3  and  C_26
    5  A    between atoms: C_9  and  C_15
    6  A    between atoms: C_18  and  C_24
                            x       y       z     vdW  Elec       q    Type
                         _______ _______ _______ _____ _____    ______ ____

>  <TORSDO>
F 6

$$$$
=
 OpenBabel10262420033D

 27 30  0  0  1  0  0  0  0  0999 V2000
  184.9620  177.9770  146.4360 O   0  0  0  0  0  0  0  0  0  0  0  0
  184.1350  178.9440  145.8420 C   0  0  0  0  0  2  0  0  0  0  0  0
  186.2640  178.2450  145.9830 C   0  0  0  0  0  2  0  0  0  0  0  0
  183.9700  178.6320  144.3580 C   0  0  0  0  0  2  0  0  0  0  0  0
  185.3440  178.6160  143.6730 C   0  0  1  0  0  3  0  0  0  0  0  0
  186.4050  177.8690  144.5070 C   0  0  1  0  0  3  0  0  0  0  0  0
  187.8130  178.2430  144.0610 C   0  0  0  0  0  2  0  0  0  0  0  0
  189.1110  176.7440  142.8600 C   0  0  0  0  0  2  0  0  0  0  0  0
  192.0360  176.8330  145.8370 O   0  0  0  0  0  0  0  0  0  0  0  0
  190.3520  176.0740  147.5870 C   0  0  0  0  0  2  0  0  0  0  0  0
  190.1630  175.6290  142.8430 C   0  0  0  0  0  2  0  0  0  0  0  0
  189.6630  178.2240  146.3030 C   0  0  0  0  0  2  0  0  0  0  0  0
  189.3620  177.2370  147.4370 C   0  0  0  0  0  2  0  0  0  0  0  0
  189.9400  177.5960  144.9220 C   0  0  1  0  0  3  0  0  0  0  0  0
  191.8150  176.3820  147.1690 C   0  0  0  0  0  2  0  0  0  0  0  0
  190.9580  176.4610  145.0190 C   0  0  1  0  0  3  0  0  0  0  0  0
  188.7300  177.1200  144.2280 N   0  0  0  0  0  0  0  0  0  0  0  0
  191.4000  176.0580  143.6260 C   0  0  0  0  0  2  0  0  0  0  0  0
  185.2150  178.0600  142.2550 C   0  0  0  0  0  2  0  0  0  0  0  0
  185.3030  179.1570  141.1990 C   0  0  0  0  0  2  0  0  0  0  0  0
  184.6090  178.7070  139.9270 C   0  0  0  0  0  2  0  0  0  0  0  0
  180.7350  176.8630  140.2640 C   0  0  0  0  0  2  0  0  0  0  0  0
  183.3290  177.9450  140.2330 C   0  0  0  0  0  3  0  0  0  0  0  0
  183.0640  176.8730  139.1750 C   0  0  0  0  0  2  0  0  0  0  0  0
  181.8080  176.0590  139.5160 C   0  0  0  0  0  2  0  0  0  0  0  0
  180.8110  178.3450  139.9150 C   0  0  0  0  0  2  0  0  0  0  0  0
  182.1640  178.9400  140.3230 C   0  0  0  0  0  2  0  0  0  0  0  0
  2  1  1  0  0  0  0
  3  1  1  0  0  0  0
  4  2  1  0  0  0  0
  5 19  1  6  0  0  0
  5  4  1  0  0  0  0
  5  6  1  0  0  0  0
  6  7  1  6  0  0  0
  6  3  1  0  0  0  0
  7 17  1  0  0  0  0
  8 17  1  0  0  0  0
  9 15  1  0  0  0  0
 11  8  1  0  0  0  0
 11 18  1  0  0  0  0
 12 13  1  0  0  0  0
 13 10  1  0  0  0  0
 14 16  1  0  0  0  0
 14 12  1  1  0  0  0
 15 10  1  0  0  0  0
 16 18  1  6  0  0  0
 16  9  1  0  0  0  0
 17 14  1  0  0  0  0
 20 19  1  0  0  0  0
 21 23  1  0  0  0  0
 21 20  1  0  0  0  0
 23 27  1  0  0  0  0
 24 25  1  0  0  0  0
 24 23  1  0  0  0  0
 25 22  1  0  0  0  0
 26 22  1  0  0  0  0
 26 27  1  0  0  0  0
M  END
>  <MODEL>
7

>  <REMARK>
 VINA RESULT:      -7.3      2.668      8.218
  Name = 
  6 active torsions:
  status: ('A' for Active; 'I' for Inactive)
    1  A    between atoms: C_1  and  C_15
    2  A    between atoms: C_1  and  C_18
    3  A    between atoms: C_3  and  N_19
    4  A    between atoms: C_3  and  C_26
    5  A    between atoms: C_9  and  C_15
    6  A    between atoms: C_18  and  C_24
                            x       y       z     vdW  Elec       q    Type
                         _______ _______ _______ _____ _____    ______ ____

>  <TORSDO>
F 6

$$$$
=
 OpenBabel10262420033D

 27 30  0  0  1  0  0  0  0  0999 V2000
  184.7060  178.0390  146.0890 O   0  0  0  0  0  0  0  0  0  0  0  0
  183.8940  179.0020  145.4680 C   0  0  0  0  0  2  0  0  0  0  0  0
  186.0170  178.2960  145.6560 C   0  0  0  0  0  2  0  0  0  0  0  0
  183.7540  178.6710  143.9850 C   0  0  0  0  0  2  0  0  0  0  0  0
  185.1400  178.6400  143.3250 C   0  0  1  0  0  3  0  0  0  0  0  0
  186.1820  177.9000  144.1870 C   0  0  1  0  0  3  0  0  0  0  0  0
  187.6000  178.2620  143.7620 C   0  0  0  0  0  2  0  0  0  0  0  0
  188.9870  176.7180  142.7310 C   0  0  0  0  0  2  0  0  0  0  0  0
  191.7450  177.0610  145.8460 O   0  0  0  0  0  0  0  0  0  0  0  0
  189.9840  176.3790  147.5500 C   0  0  0  0  0  2  0  0  0  0  0  0
  190.0590  175.6270  142.8420 C   0  0  0  0  0  2  0  0  0  0  0  0
  189.3260  178.4270  146.0950 C   0  0  0  0  0  2  0  0  0  0  0  0
  188.9820  177.5080  147.2730 C   0  0  0  0  0  2  0  0  0  0  0  0
  189.6890  177.7180  144.7740 C   0  0  1  0  0  3  0  0  0  0  0  0
  191.4610  176.6900  147.1910 C   0  0  0  0  0  2  0  0  0  0  0  0
  190.7210  176.6130  144.9980 C   0  0  1  0  0  3  0  0  0  0  0  0
  188.5270  177.1720  144.0490 N   0  0  0  0  0  0  0  0  0  0  0  0
  191.2450  176.1310  143.6600 C   0  0  0  0  0  2  0  0  0  0  0  0
  185.0340  178.0670  141.9120 C   0  0  0  0  0  2  0  0  0  0  0  0
  185.6340  179.0020  140.8680 C   0  0  0  0  0  2  0  0  0  0  0  0
  185.4270  178.4260  139.4790 C   0  0  0  0  0  2  0  0  0  0  0  0
  189.2310  177.8020  137.5660 C   0  0  0  0  0  2  0  0  0  0  0  0
  186.7260  178.4050  138.6880 C   0  0  0  0  0  3  0  0  0  0  0  0
  186.7140  177.2860  137.6460 C   0  0  0  0  0  2  0  0  0  0  0  0
  187.9960  177.3040  136.8030 C   0  0  0  0  0  2  0  0  0  0  0  0
  189.1100  177.5200  139.0590 C   0  0  0  0  0  2  0  0  0  0  0  0
  187.9020  178.2480  139.6620 C   0  0  0  0  0  2  0  0  0  0  0  0
  2  1  1  0  0  0  0
  3  1  1  0  0  0  0
  4  2  1  0  0  0  0
  5 19  1  6  0  0  0
  5  4  1  0  0  0  0
  5  6  1  0  0  0  0
  6  7  1  6  0  0  0
  6  3  1  0  0  0  0
  7 17  1  0  0  0  0
  8 11  1  0  0  0  0
  8 17  1  0  0  0  0
  9 15  1  0  0  0  0
 11 18  1  0  0  0  0
 12 13  1  0  0  0  0
 13 10  1  0  0  0  0
 14 16  1  0  0  0  0
 14 12  1  1  0  0  0
 15 10  1  0  0  0  0
 16 18  1  6  0  0  0
 16  9  1  0  0  0  0
 17 14  1  0  0  0  0
 20 19  1  0  0  0  0
 21 20  1  0  0  0  0
 22 26  1  0  0  0  0
 23 21  1  0  0  0  0
 23 27  1  0  0  0  0
 24 23  1  0  0  0  0
 25 22  1  0  0  0  0
 25 24  1  0  0  0  0
 26 27  1  0  0  0  0
M  END
>  <MODEL>
8

>  <REMARK>
 VINA RESULT:      -7.1      2.252      7.444
  Name = 
  6 active torsions:
  status: ('A' for Active; 'I' for Inactive)
    1  A    between atoms: C_1  and  C_15
    2  A    between atoms: C_1  and  C_18
    3  A    between atoms: C_3  and  N_19
    4  A    between atoms: C_3  and  C_26
    5  A    between atoms: C_9  and  C_15
    6  A    between atoms: C_18  and  C_24
                            x       y       z     vdW  Elec       q    Type
                         _______ _______ _______ _____ _____    ______ ____

>  <TORSDO>
F 6

$$$$
=
 OpenBabel10262420033D

 27 30  0  0  1  0  0  0  0  0999 V2000
  191.9770  176.8650  141.9830 O   0  0  0  0  0  0  0  0  0  0  0  0
  191.4050  177.6510  142.9970 C   0  0  0  0  0  2  0  0  0  0  0  0
  191.6640  177.5020  140.7720 C   0  0  0  0  0  2  0  0  0  0  0  0
  189.8890  177.4720  142.9860 C   0  0  0  0  0  2  0  0  0  0  0  0
  189.3270  177.8790  141.6170 C   0  0  1  0  0  3  0  0  0  0  0  0
  190.1770  177.3390  140.4500 C   0  0  1  0  0  3  0  0  0  0  0  0
  189.8900  178.1030  139.1640 C   0  0  0  0  0  2  0  0  0  0  0  0
  190.5330  176.0190  138.3770 C   0  0  0  0  0  2  0  0  0  0  0  0
  186.7490  175.4400  136.7120 O   0  0  0  0  0  0  0  0  0  0  0  0
  186.9830  177.5520  135.3130 C   0  0  0  0  0  2  0  0  0  0  0  0
  190.3860  174.8990  137.3420 C   0  0  0  0  0  2  0  0  0  0  0  0
  187.2960  177.9210  137.8650 C   0  0  0  0  0  2  0  0  0  0  0  0
  187.1790  178.5430  136.4680 C   0  0  0  0  0  2  0  0  0  0  0  0
  188.3020  176.7590  138.0000 C   0  0  1  0  0  3  0  0  0  0  0  0
  186.2170  176.2510  135.6680 C   0  0  0  0  0  2  0  0  0  0  0  0
  188.1110  175.7240  136.8930 C   0  0  1  0  0  3  0  0  0  0  0  0
  189.7110  177.1900  138.0410 N   0  0  0  0  0  0  0  0  0  0  0  0
  188.9230  174.4840  137.2140 C   0  0  0  0  0  2  0  0  0  0  0  0
  187.8580  177.4690  141.5110 C   0  0  0  0  0  2  0  0  0  0  0  0
  186.9150  178.6330  141.7990 C   0  0  0  0  0  2  0  0  0  0  0  0
  185.7700  178.1660  142.6770 C   0  0  0  0  0  2  0  0  0  0  0  0
  185.9250  178.8210  146.9280 C   0  0  0  0  0  2  0  0  0  0  0  0
  185.9890  178.5570  144.1300 C   0  0  0  0  0  3  0  0  0  0  0  0
  186.6850  177.4340  144.9000 C   0  0  0  0  0  2  0  0  0  0  0  0
  186.9670  177.8510  146.3500 C   0  0  0  0  0  2  0  0  0  0  0  0
  184.5640  178.6270  146.2680 C   0  0  0  0  0  2  0  0  0  0  0  0
  184.6360  178.9120  144.7630 C   0  0  0  0  0  2  0  0  0  0  0  0
  1  2  1  0  0  0  0
  3  1  1  0  0  0  0
  4  2  1  0  0  0  0
  5 19  1  6  0  0  0
  5  4  1  0  0  0  0
  6  7  1  6  0  0  0
  6  3  1  0  0  0  0
  6  5  1  0  0  0  0
  9 16  1  0  0  0  0
 10 15  1  0  0  0  0
 10 13  1  0  0  0  0
 11  8  1  0  0  0  0
 13 12  1  0  0  0  0
 14 12  1  6  0  0  0
 14 17  1  0  0  0  0
 15  9  1  0  0  0  0
 16 18  1  1  0  0  0
 16 14  1  0  0  0  0
 17  8  1  0  0  0  0
 17  7  1  0  0  0  0
 18 11  1  0  0  0  0
 19 20  1  0  0  0  0
 20 21  1  0  0  0  0
 21 23  1  0  0  0  0
 23 27  1  0  0  0  0
 23 24  1  0  0  0  0
 24 25  1  0  0  0  0
 25 22  1  0  0  0  0
 26 22  1  0  0  0  0
 27 26  1  0  0  0  0
M  END
>  <MODEL>
9

>  <REMARK>
 VINA RESULT:      -7.1      2.775      5.571
  Name = 
  6 active torsions:
  status: ('A' for Active; 'I' for Inactive)
    1  A    between atoms: C_1  and  C_15
    2  A    between atoms: C_1  and  C_18
    3  A    between atoms: C_3  and  N_19
    4  A    between atoms: C_3  and  C_26
    5  A    between atoms: C_9  and  C_15
    6  A    between atoms: C_18  and  C_24
                            x       y       z     vdW  Elec       q    Type
                         _______ _______ _______ _____ _____    ______ ____

>  <TORSDO>
F 6

$$$$
