=
 OpenBabel10262419443D

 25 27  0  0  1  0  0  0  0  0999 V2000
  189.6030  177.2870  144.5350 C   0  0  0  0  0  0  0  0  0  0  0  0
  188.5440  177.6320  145.4080 C   0  0  0  0  0  0  0  0  0  0  0  0
  191.0410  176.9110  146.4010 C   0  0  0  0  0  3  0  0  0  0  0  0
  190.0280  177.2490  147.2940 C   0  0  0  0  0  3  0  0  0  0  0  0
  187.7200  177.9450  147.6910 C   0  0  0  0  0  0  0  0  0  0  0  0
  187.9070  177.9420  149.1720 C   0  0  0  0  0  1  0  0  0  0  0  0
  187.2690  177.9670  144.9260 C   0  0  0  0  0  3  0  0  0  0  0  0
  190.8100  176.9360  145.0640 N   0  0  0  0  0  0  0  0  0  0  0  0
  186.4640  178.2820  147.1820 C   0  0  0  0  0  3  0  0  0  0  0  0
  186.2380  178.2970  145.8050 C   0  0  0  0  0  0  0  0  0  0  0  0
  188.7680  177.6120  146.8080 C   0  0  0  0  0  0  0  0  0  0  0  0
  189.4610  177.3040  143.0570 C   0  0  0  0  0  0  0  0  0  0  0  0
  189.2540  177.3860  140.2800 C   0  0  0  0  0  3  0  0  0  0  0  0
  189.9780  176.2670  142.2500 C   0  0  0  0  0  0  0  0  0  0  0  0
  189.8570  176.3360  140.8970 N   0  0  0  0  0  0  0  0  0  0  0  0
  188.7360  178.4360  141.0350 C   0  0  0  0  0  3  0  0  0  0  0  0
  190.6010  175.1260  142.8330 N   0  0  0  0  0  1  0  0  0  0  0  0
  188.8450  178.3920  142.4240 C   0  0  0  0  0  3  0  0  0  0  0  0
  184.8880  178.6360  145.2750 C   0  0  0  0  0  2  0  0  0  0  0  0
  184.9920  179.0650  143.8210 C   0  0  0  0  0  2  0  0  0  0  0  0
  183.7250  178.7500  143.0980 C   0  0  0  0  0  0  0  0  0  0  0  0
  182.6540  178.8160  143.6830 O   0  0  0  0  0  0  0  0  0  0  0  0
  183.7790  178.3690  141.6530 C   0  0  2  0  0  3  0  0  0  0  0  0
  185.0030  178.9690  140.9880 C   0  0  0  0  0  1  0  0  0  0  0  0
  182.6270  178.8070  141.0010 O   0  0  0  0  0  1  0  0  0  0  0  0
  1  8  2  0  0  0  0
  1  2  1  0  0  0  0
  2 11  1  0  0  0  0
  3  4  2  0  0  0  0
  5  6  1  0  0  0  0
  7  2  2  0  0  0  0
  7 10  1  0  0  0  0
  8  3  1  0  0  0  0
  9  5  1  0  0  0  0
 10  9  2  0  0  0  0
 11  4  1  0  0  0  0
 11  5  2  0  0  0  0
 12  1  1  0  0  0  0
 13 15  2  0  0  0  0
 13 16  1  0  0  0  0
 14 17  1  0  0  0  0
 14 12  2  0  0  0  0
 15 14  1  0  0  0  0
 16 18  2  0  0  0  0
 18 12  1  0  0  0  0
 19 10  1  0  0  0  0
 20 19  1  0  0  0  0
 21 22  2  0  0  0  0
 21 20  1  0  0  0  0
 23 24  1  6  0  0  0
 23 21  1  0  0  0  0
 25 23  1  0  0  0  0
M  END
>  <MODEL>
1

>  <REMARK>
 VINA RESULT:      -9.0      0.000      0.000
  Name = 
  5 active torsions:
  status: ('A' for Active; 'I' for Inactive)
    1  A    between atoms: C_1  and  C_5
    2  A    between atoms: C_2  and  C_21
    3  A    between atoms: C_6  and  C_15
    4  A    between atoms: C_6  and  C_23
    5  A    between atoms: C_15  and  C_21
                            x       y       z     vdW  Elec       q    Type
                         _______ _______ _______ _____ _____    ______ ____

>  <TORSDO>
F 5

$$$$
=
 OpenBabel10262419443D

 25 27  0  0  1  0  0  0  0  0999 V2000
  187.3520  177.7690  145.8540 C   0  0  0  0  0  0  0  0  0  0  0  0
  188.6250  177.3760  145.3750 C   0  0  0  0  0  0  0  0  0  0  0  0
  188.0940  177.4940  148.1040 C   0  0  0  0  0  3  0  0  0  0  0  0
  189.3580  177.0970  147.6760 C   0  0  0  0  0  3  0  0  0  0  0  0
  190.9140  176.6490  145.8460 C   0  0  0  0  0  0  0  0  0  0  0  0
  192.0120  176.2780  146.7870 C   0  0  0  0  0  1  0  0  0  0  0  0
  188.9200  177.3420  144.0040 C   0  0  0  0  0  3  0  0  0  0  0  0
  187.1360  177.8170  147.1990 N   0  0  0  0  0  0  0  0  0  0  0  0
  191.1760  176.6170  144.4750 C   0  0  0  0  0  3  0  0  0  0  0  0
  190.1840  176.9580  143.5550 C   0  0  0  0  0  0  0  0  0  0  0  0
  189.6380  177.0350  146.3070 C   0  0  0  0  0  0  0  0  0  0  0  0
  186.2290  178.1200  144.9480 C   0  0  0  0  0  0  0  0  0  0  0  0
  184.1020  178.7040  143.2460 C   0  0  0  0  0  3  0  0  0  0  0  0
  185.0220  178.6630  145.4390 C   0  0  0  0  0  0  0  0  0  0  0  0
  184.0040  178.9410  144.5800 N   0  0  0  0  0  0  0  0  0  0  0  0
  185.2710  178.1600  142.7160 C   0  0  0  0  0  3  0  0  0  0  0  0
  184.8600  178.9590  146.8230 N   0  0  0  0  0  1  0  0  0  0  0  0
  186.3310  177.8670  143.5730 C   0  0  0  0  0  3  0  0  0  0  0  0
  190.4820  176.9420  142.0960 C   0  0  0  0  0  2  0  0  0  0  0  0
  189.2270  177.2700  141.3040 C   0  0  0  0  0  2  0  0  0  0  0  0
  189.5720  177.5320  139.8760 C   0  0  0  0  0  0  0  0  0  0  0  0
  190.7320  177.4430  139.5000 O   0  0  0  0  0  0  0  0  0  0  0  0
  188.4860  177.8880  138.9120 C   0  0  2  0  0  3  0  0  0  0  0  0
  189.0250  178.7750  137.8040 C   0  0  0  0  0  1  0  0  0  0  0  0
  187.4520  178.5440  139.5790 O   0  0  0  0  0  1  0  0  0  0  0  0
  1  8  1  0  0  0  0
  2  1  2  0  0  0  0
  2 11  1  0  0  0  0
  4  3  1  0  0  0  0
  5 11  1  0  0  0  0
  5  6  1  0  0  0  0
  7  2  1  0  0  0  0
  8  3  2  0  0  0  0
  9  5  2  0  0  0  0
 10  7  2  0  0  0  0
 10  9  1  0  0  0  0
 11  4  2  0  0  0  0
 12 14  1  0  0  0  0
 12  1  1  0  0  0  0
 13 15  1  0  0  0  0
 14 17  1  0  0  0  0
 15 14  2  0  0  0  0
 16 13  2  0  0  0  0
 16 18  1  0  0  0  0
 18 12  2  0  0  0  0
 19 10  1  0  0  0  0
 20 19  1  0  0  0  0
 21 20  1  0  0  0  0
 22 21  2  0  0  0  0
 23 24  1  6  0  0  0
 23 25  1  0  0  0  0
 23 21  1  0  0  0  0
M  END
>  <MODEL>
2

>  <REMARK>
 VINA RESULT:      -8.9      3.070      5.124
  Name = 
  5 active torsions:
  status: ('A' for Active; 'I' for Inactive)
    1  A    between atoms: C_1  and  C_5
    2  A    between atoms: C_2  and  C_21
    3  A    between atoms: C_6  and  C_15
    4  A    between atoms: C_6  and  C_23
    5  A    between atoms: C_15  and  C_21
                            x       y       z     vdW  Elec       q    Type
                         _______ _______ _______ _____ _____    ______ ____

>  <TORSDO>
F 5

$$$$
=
 OpenBabel10262419443D

 25 27  0  0  1  0  0  0  0  0999 V2000
  187.0200  178.2810  141.4580 C   0  0  0  0  0  0  0  0  0  0  0  0
  186.5240  178.2470  142.7830 C   0  0  0  0  0  0  0  0  0  0  0  0
  184.8990  179.0300  140.6640 C   0  0  0  0  0  3  0  0  0  0  0  0
  184.3700  179.0050  141.9510 C   0  0  0  0  0  3  0  0  0  0  0  0
  184.6690  178.5950  144.3410 C   0  0  0  0  0  0  0  0  0  0  0  0
  183.2560  178.9710  144.6470 C   0  0  0  0  0  1  0  0  0  0  0  0
  187.3380  177.8870  143.8680 C   0  0  0  0  0  3  0  0  0  0  0  0
  186.1910  178.6750  140.4500 N   0  0  0  0  0  0  0  0  0  0  0  0
  185.5000  178.2240  145.4000 C   0  0  0  0  0  3  0  0  0  0  0  0
  186.8290  177.8670  145.1670 C   0  0  0  0  0  0  0  0  0  0  0  0
  185.1760  178.6150  143.0250 C   0  0  0  0  0  0  0  0  0  0  0  0
  188.4110  177.8900  141.1140 C   0  0  0  0  0  0  0  0  0  0  0  0
  190.9950  177.0830  140.4590 C   0  0  0  0  0  3  0  0  0  0  0  0
  188.9470  178.1140  139.8270 C   0  0  0  0  0  0  0  0  0  0  0  0
  190.2150  177.7110  139.5410 N   0  0  0  0  0  0  0  0  0  0  0  0
  190.5060  176.8320  141.7390 C   0  0  0  0  0  3  0  0  0  0  0  0
  188.1920  178.7880  138.8250 N   0  0  0  0  0  1  0  0  0  0  0  0
  189.2110  177.2360  142.0610 C   0  0  0  0  0  3  0  0  0  0  0  0
  187.7120  177.4950  146.3060 C   0  0  0  0  0  2  0  0  0  0  0  0
  189.0980  177.1390  145.7970 C   0  0  0  0  0  2  0  0  0  0  0  0
  190.0850  177.1740  146.9160 C   0  0  0  0  0  0  0  0  0  0  0  0
  189.7420  177.5660  148.0220 O   0  0  0  0  0  0  0  0  0  0  0  0
  191.4860  176.7120  146.6750 C   0  0  2  0  0  3  0  0  0  0  0  0
  191.6920  176.3710  145.2100 C   0  0  0  0  0  1  0  0  0  0  0  0
  191.7630  175.5940  147.4610 O   0  0  0  0  0  1  0  0  0  0  0  0
  1  2  1  0  0  0  0
  2 11  2  0  0  0  0
  2  7  1  0  0  0  0
  3  4  2  0  0  0  0
  4 11  1  0  0  0  0
  5  6  1  0  0  0  0
  5  9  2  0  0  0  0
  7 10  2  0  0  0  0
  8  3  1  0  0  0  0
  8  1  2  0  0  0  0
 10  9  1  0  0  0  0
 10 19  1  0  0  0  0
 11  5  1  0  0  0  0
 12  1  1  0  0  0  0
 12 18  1  0  0  0  0
 13 16  1  0  0  0  0
 14 12  2  0  0  0  0
 15 14  1  0  0  0  0
 15 13  2  0  0  0  0
 16 18  2  0  0  0  0
 17 14  1  0  0  0  0
 20 19  1  0  0  0  0
 20 21  1  0  0  0  0
 21 22  2  0  0  0  0
 23 24  1  6  0  0  0
 23 21  1  0  0  0  0
 23 25  1  0  0  0  0
M  END
>  <MODEL>
3

>  <REMARK>
 VINA RESULT:      -8.9      3.179      5.770
  Name = 
  5 active torsions:
  status: ('A' for Active; 'I' for Inactive)
    1  A    between atoms: C_1  and  C_5
    2  A    between atoms: C_2  and  C_21
    3  A    between atoms: C_6  and  C_15
    4  A    between atoms: C_6  and  C_23
    5  A    between atoms: C_15  and  C_21
                            x       y       z     vdW  Elec       q    Type
                         _______ _______ _______ _____ _____    ______ ____

>  <TORSDO>
F 5

$$$$
=
 OpenBabel10262419443D

 25 27  0  0  1  0  0  0  0  0999 V2000
  187.9530  177.8080  144.8330 C   0  0  0  0  0  0  0  0  0  0  0  0
  186.7640  178.1700  144.1550 C   0  0  0  0  0  0  0  0  0  0  0  0
  186.7840  177.8050  146.9130 C   0  0  0  0  0  3  0  0  0  0  0  0
  185.5950  178.1660  146.2860 C   0  0  0  0  0  3  0  0  0  0  0  0
  184.3770  178.7030  144.2370 C   0  0  0  0  0  0  0  0  0  0  0  0
  183.0970  178.9080  144.9770 C   0  0  0  0  0  1  0  0  0  0  0  0
  186.7280  178.3260  142.7610 C   0  0  0  0  0  3  0  0  0  0  0  0
  187.9170  177.6350  146.1850 N   0  0  0  0  0  0  0  0  0  0  0  0
  184.3730  178.8600  142.8500 C   0  0  0  0  0  3  0  0  0  0  0  0
  185.5430  178.6760  142.1120 C   0  0  0  0  0  0  0  0  0  0  0  0
  185.5710  178.3510  144.9000 C   0  0  0  0  0  0  0  0  0  0  0  0
  189.2490  177.6200  144.1330 C   0  0  0  0  0  0  0  0  0  0  0  0
  191.7120  177.2430  142.8880 C   0  0  0  0  0  3  0  0  0  0  0  0
  189.5030  176.4840  143.3350 C   0  0  0  0  0  0  0  0  0  0  0  0
  190.7150  176.3330  142.7370 N   0  0  0  0  0  0  0  0  0  0  0  0
  191.5110  178.3760  143.6740 C   0  0  0  0  0  3  0  0  0  0  0  0
  188.4940  175.5020  143.1150 N   0  0  0  0  0  1  0  0  0  0  0  0
  190.2770  178.5590  144.2980 C   0  0  0  0  0  3  0  0  0  0  0  0
  185.5220  178.8240  140.6310 C   0  0  0  0  0  2  0  0  0  0  0  0
  184.1450  178.4750  140.0920 C   0  0  0  0  0  2  0  0  0  0  0  0
  183.5870  179.6230  139.3180 C   0  0  0  0  0  0  0  0  0  0  0  0
  184.3210  180.5320  138.9570 O   0  0  0  0  0  0  0  0  0  0  0  0
  182.1310  179.6410  138.9770 C   0  0  2  0  0  3  0  0  0  0  0  0
  181.7520  180.9580  138.3250 C   0  0  0  0  0  1  0  0  0  0  0  0
  181.3700  179.4510  140.1300 O   0  0  0  0  0  1  0  0  0  0  0  0
  1  8  1  0  0  0  0
  2  1  2  0  0  0  0
  2 11  1  0  0  0  0
  4  3  1  0  0  0  0
  5 11  1  0  0  0  0
  5  6  1  0  0  0  0
  7  2  1  0  0  0  0
  8  3  2  0  0  0  0
  9  5  2  0  0  0  0
 10  7  2  0  0  0  0
 10  9  1  0  0  0  0
 11  4  2  0  0  0  0
 12 18  1  0  0  0  0
 12  1  1  0  0  0  0
 13 16  1  0  0  0  0
 14 12  2  0  0  0  0
 15 13  2  0  0  0  0
 15 14  1  0  0  0  0
 16 18  2  0  0  0  0
 17 14  1  0  0  0  0
 19 10  1  0  0  0  0
 20 19  1  0  0  0  0
 21 20  1  0  0  0  0
 22 21  2  0  0  0  0
 23 24  1  1  0  0  0
 23 21  1  0  0  0  0
 23 25  1  0  0  0  0
M  END
>  <MODEL>
4

>  <REMARK>
 VINA RESULT:      -8.9      1.967      3.700
  Name = 
  5 active torsions:
  status: ('A' for Active; 'I' for Inactive)
    1  A    between atoms: C_1  and  C_5
    2  A    between atoms: C_2  and  C_21
    3  A    between atoms: C_6  and  C_15
    4  A    between atoms: C_6  and  C_23
    5  A    between atoms: C_15  and  C_21
                            x       y       z     vdW  Elec       q    Type
                         _______ _______ _______ _____ _____    ______ ____

>  <TORSDO>
F 5

$$$$
=
 OpenBabel10262419443D

 25 27  0  0  1  0  0  0  0  0999 V2000
  189.0910  177.3850  145.0910 C   0  0  0  0  0  0  0  0  0  0  0  0
  187.7210  177.7200  144.9780 C   0  0  0  0  0  0  0  0  0  0  0  0
  188.8780  177.2380  147.4620 C   0  0  0  0  0  3  0  0  0  0  0  0
  187.5270  177.5710  147.3960 C   0  0  0  0  0  3  0  0  0  0  0  0
  185.5650  178.1390  146.0570 C   0  0  0  0  0  0  0  0  0  0  0  0
  184.6950  178.2530  147.2660 C   0  0  0  0  0  1  0  0  0  0  0  0
  187.1130  177.9340  143.7320 C   0  0  0  0  0  3  0  0  0  0  0  0
  189.6170  177.1530  146.3270 N   0  0  0  0  0  0  0  0  0  0  0  0
  184.9890  178.3550  144.8030 C   0  0  0  0  0  3  0  0  0  0  0  0
  185.7590  178.2570  143.6440 C   0  0  0  0  0  0  0  0  0  0  0  0
  186.9330  177.8140  146.1540 C   0  0  0  0  0  0  0  0  0  0  0  0
  189.9920  177.2870  143.9140 C   0  0  0  0  0  0  0  0  0  0  0  0
  191.6190  177.1220  141.6590 C   0  0  0  0  0  3  0  0  0  0  0  0
  190.8500  178.3460  143.5470 C   0  0  0  0  0  0  0  0  0  0  0  0
  191.6360  178.2310  142.4420 N   0  0  0  0  0  0  0  0  0  0  0  0
  190.7810  176.0540  141.9760 C   0  0  0  0  0  3  0  0  0  0  0  0
  190.9340  179.5290  144.3370 N   0  0  0  0  0  1  0  0  0  0  0  0
  189.9670  176.1430  143.1040 C   0  0  0  0  0  3  0  0  0  0  0  0
  185.1290  178.4670  142.3110 C   0  0  0  0  0  2  0  0  0  0  0  0
  186.1560  179.0020  141.3270 C   0  0  0  0  0  2  0  0  0  0  0  0
  185.6760  178.8170  139.9270 C   0  0  0  0  0  0  0  0  0  0  0  0
  186.4350  178.3850  139.0720 O   0  0  0  0  0  0  0  0  0  0  0  0
  184.2590  179.1510  139.5860 C   0  0  2  0  0  3  0  0  0  0  0  0
  183.7140  178.1810  138.5530 C   0  0  0  0  0  1  0  0  0  0  0  0
  184.1800  180.4540  139.0940 O   0  0  0  0  0  1  0  0  0  0  0  0
  1  8  1  0  0  0  0
  2  1  2  0  0  0  0
  2 11  1  0  0  0  0
  4  3  1  0  0  0  0
  5 11  1  0  0  0  0
  5  6  1  0  0  0  0
  7  2  1  0  0  0  0
  8  3  2  0  0  0  0
  9  5  2  0  0  0  0
 10  7  2  0  0  0  0
 10  9  1  0  0  0  0
 11  4  2  0  0  0  0
 12  1  1  0  0  0  0
 13 16  2  0  0  0  0
 13 15  1  0  0  0  0
 14 12  1  0  0  0  0
 14 17  1  0  0  0  0
 15 14  2  0  0  0  0
 16 18  1  0  0  0  0
 18 12  2  0  0  0  0
 19 10  1  0  0  0  0
 20 19  1  0  0  0  0
 21 20  1  0  0  0  0
 22 21  2  0  0  0  0
 23 24  1  6  0  0  0
 23 21  1  0  0  0  0
 25 23  1  0  0  0  0
M  END
>  <MODEL>
5

>  <REMARK>
 VINA RESULT:      -8.8      2.011      2.886
  Name = 
  5 active torsions:
  status: ('A' for Active; 'I' for Inactive)
    1  A    between atoms: C_1  and  C_5
    2  A    between atoms: C_2  and  C_21
    3  A    between atoms: C_6  and  C_15
    4  A    between atoms: C_6  and  C_23
    5  A    between atoms: C_15  and  C_21
                            x       y       z     vdW  Elec       q    Type
                         _______ _______ _______ _____ _____    ______ ____

>  <TORSDO>
F 5

$$$$
=
 OpenBabel10262419443D

 25 27  0  0  1  0  0  0  0  0999 V2000
  187.8440  177.8570  144.9010 C   0  0  0  0  0  0  0  0  0  0  0  0
  186.6980  178.1920  144.1400 C   0  0  0  0  0  0  0  0  0  0  0  0
  186.5590  177.9490  146.9090 C   0  0  0  0  0  3  0  0  0  0  0  0
  185.4100  178.2860  146.1990 C   0  0  0  0  0  3  0  0  0  0  0  0
  184.3130  178.7350  144.0630 C   0  0  0  0  0  0  0  0  0  0  0  0
  182.9940  178.9770  144.7190 C   0  0  0  0  0  1  0  0  0  0  0  0
  186.7420  178.2870  142.7410 C   0  0  0  0  0  3  0  0  0  0  0  0
  187.7310  177.7440  146.2550 N   0  0  0  0  0  0  0  0  0  0  0  0
  184.3890  178.8310  142.6720 C   0  0  0  0  0  3  0  0  0  0  0  0
  185.5980  178.6120  142.0110 C   0  0  0  0  0  0  0  0  0  0  0  0
  185.4660  178.4090  144.8080 C   0  0  0  0  0  0  0  0  0  0  0  0
  189.1770  177.6350  144.2850 C   0  0  0  0  0  0  0  0  0  0  0  0
  191.7040  177.1930  143.1990 C   0  0  0  0  0  3  0  0  0  0  0  0
  189.4530  176.4890  143.5090 C   0  0  0  0  0  0  0  0  0  0  0  0
  190.6970  176.3060  142.9880 N   0  0  0  0  0  0  0  0  0  0  0  0
  191.4810  178.3340  143.9670 C   0  0  0  0  0  3  0  0  0  0  0  0
  188.4370  175.5300  143.2290 N   0  0  0  0  0  1  0  0  0  0  0  0
  190.2150  178.5490  144.5110 C   0  0  0  0  0  3  0  0  0  0  0  0
  185.6620  178.6940  140.5260 C   0  0  0  0  0  2  0  0  0  0  0  0
  187.0430  178.2870  140.0400 C   0  0  0  0  0  2  0  0  0  0  0  0
  187.0800  178.2650  138.5480 C   0  0  0  0  0  0  0  0  0  0  0  0
  186.0440  178.3720  137.9090 O   0  0  0  0  0  0  0  0  0  0  0  0
  188.3940  178.1270  137.8480 C   0  0  2  0  0  3  0  0  0  0  0  0
  189.3080  177.1830  138.6080 C   0  0  0  0  0  1  0  0  0  0  0  0
  189.0040  179.3750  137.7270 O   0  0  0  0  0  1  0  0  0  0  0  0
  1  8  1  0  0  0  0
  2 11  1  0  0  0  0
  2  1  2  0  0  0  0
  4  3  1  0  0  0  0
  5  6  1  0  0  0  0
  5 11  1  0  0  0  0
  7  2  1  0  0  0  0
  8  3  2  0  0  0  0
  9  5  2  0  0  0  0
 10  9  1  0  0  0  0
 10  7  2  0  0  0  0
 11  4  2  0  0  0  0
 12 18  1  0  0  0  0
 12  1  1  0  0  0  0
 13 16  1  0  0  0  0
 14 12  2  0  0  0  0
 15 13  2  0  0  0  0
 15 14  1  0  0  0  0
 16 18  2  0  0  0  0
 17 14  1  0  0  0  0
 19 10  1  0  0  0  0
 20 19  1  0  0  0  0
 21 20  1  0  0  0  0
 22 21  2  0  0  0  0
 23 21  1  0  0  0  0
 23 24  1  1  0  0  0
 25 23  1  0  0  0  0
M  END
>  <MODEL>
6

>  <REMARK>
 VINA RESULT:      -8.7      2.372      4.389
  Name = 
  5 active torsions:
  status: ('A' for Active; 'I' for Inactive)
    1  A    between atoms: C_1  and  C_5
    2  A    between atoms: C_2  and  C_21
    3  A    between atoms: C_6  and  C_15
    4  A    between atoms: C_6  and  C_23
    5  A    between atoms: C_15  and  C_21
                            x       y       z     vdW  Elec       q    Type
                         _______ _______ _______ _____ _____    ______ ____

>  <TORSDO>
F 5

$$$$
=
 OpenBabel10262419443D

 25 27  0  0  1  0  0  0  0  0999 V2000
  188.5050  177.4940  143.5810 C   0  0  0  0  0  0  0  0  0  0  0  0
  187.1620  177.8500  143.8510 C   0  0  0  0  0  0  0  0  0  0  0  0
  188.9560  177.3540  145.9200 C   0  0  0  0  0  3  0  0  0  0  0  0
  187.6450  177.7070  146.2290 C   0  0  0  0  0  3  0  0  0  0  0  0
  185.3960  178.3020  145.4830 C   0  0  0  0  0  0  0  0  0  0  0  0
  184.8970  178.4310  146.8850 C   0  0  0  0  0  1  0  0  0  0  0  0
  186.2360  178.0720  142.8210 C   0  0  0  0  0  3  0  0  0  0  0  0
  189.3500  177.2560  144.6250 N   0  0  0  0  0  0  0  0  0  0  0  0
  184.4980  178.5260  144.4380 C   0  0  0  0  0  3  0  0  0  0  0  0
  184.9150  178.4150  143.1110 C   0  0  0  0  0  0  0  0  0  0  0  0
  186.7330  177.9570  145.1990 C   0  0  0  0  0  0  0  0  0  0  0  0
  189.0420  177.3820  142.2010 C   0  0  0  0  0  0  0  0  0  0  0  0
  190.0990  177.2310  139.6280 C   0  0  0  0  0  3  0  0  0  0  0  0
  189.9900  176.3960  141.8520 C   0  0  0  0  0  0  0  0  0  0  0  0
  190.4820  176.3460  140.5850 N   0  0  0  0  0  0  0  0  0  0  0  0
  189.1730  178.2280  139.9290 C   0  0  0  0  0  3  0  0  0  0  0  0
  190.4180  175.4220  142.8000 N   0  0  0  0  0  1  0  0  0  0  0  0
  188.6490  178.3010  141.2190 C   0  0  0  0  0  3  0  0  0  0  0  0
  183.9430  178.6330  142.0040 C   0  0  0  0  0  2  0  0  0  0  0  0
  184.6720  178.6780  140.6710 C   0  0  0  0  0  2  0  0  0  0  0  0
  183.8400  179.3810  139.6510 C   0  0  0  0  0  0  0  0  0  0  0  0
  184.2810  180.3650  139.0750 O   0  0  0  0  0  0  0  0  0  0  0  0
  182.4750  178.8630  139.3320 C   0  0  2  0  0  3  0  0  0  0  0  0
  182.3170  178.6570  137.8360 C   0  0  0  0  0  1  0  0  0  0  0  0
  181.5060  179.7560  139.7880 O   0  0  0  0  0  1  0  0  0  0  0  0
  1  2  2  0  0  0  0
  1  8  1  0  0  0  0
  2 11  1  0  0  0  0
  3  4  1  0  0  0  0
  5  6  1  0  0  0  0
  7 10  2  0  0  0  0
  7  2  1  0  0  0  0
  8  3  2  0  0  0  0
  9  5  2  0  0  0  0
 10  9  1  0  0  0  0
 11  5  1  0  0  0  0
 11  4  2  0  0  0  0
 12  1  1  0  0  0  0
 13 16  2  0  0  0  0
 13 15  1  0  0  0  0
 14 12  1  0  0  0  0
 14 17  1  0  0  0  0
 15 14  2  0  0  0  0
 16 18  1  0  0  0  0
 18 12  2  0  0  0  0
 19 10  1  0  0  0  0
 20 19  1  0  0  0  0
 21 20  1  0  0  0  0
 22 21  2  0  0  0  0
 23 24  1  6  0  0  0
 23 21  1  0  0  0  0
 23 25  1  0  0  0  0
M  END
>  <MODEL>
7

>  <REMARK>
 VINA RESULT:      -8.7      1.545      2.630
  Name = 
  5 active torsions:
  status: ('A' for Active; 'I' for Inactive)
    1  A    between atoms: C_1  and  C_5
    2  A    between atoms: C_2  and  C_21
    3  A    between atoms: C_6  and  C_15
    4  A    between atoms: C_6  and  C_23
    5  A    between atoms: C_15  and  C_21
                            x       y       z     vdW  Elec       q    Type
                         _______ _______ _______ _____ _____    ______ ____

>  <TORSDO>
F 5

$$$$
=
 OpenBabel10262419443D

 25 27  0  0  1  0  0  0  0  0999 V2000
  188.5060  177.5670  143.5800 C   0  0  0  0  0  0  0  0  0  0  0  0
  187.1700  177.8860  143.9220 C   0  0  0  0  0  0  0  0  0  0  0  0
  189.0940  177.4780  145.8900 C   0  0  0  0  0  3  0  0  0  0  0  0
  187.7930  177.7960  146.2700 C   0  0  0  0  0  3  0  0  0  0  0  0
  185.4870  178.3090  145.6470 C   0  0  0  0  0  0  0  0  0  0  0  0
  185.0660  178.4450  147.0740 C   0  0  0  0  0  1  0  0  0  0  0  0
  186.1790  178.0620  142.9440 C   0  0  0  0  0  3  0  0  0  0  0  0
  189.4160  177.3720  144.5760 N   0  0  0  0  0  0  0  0  0  0  0  0
  184.5240  178.4880  144.6530 C   0  0  0  0  0  3  0  0  0  0  0  0
  184.8670  178.3690  143.3050 C   0  0  0  0  0  0  0  0  0  0  0  0
  186.8160  178.0010  145.2910 C   0  0  0  0  0  0  0  0  0  0  0  0
  188.9660  177.4490  142.1730 C   0  0  0  0  0  0  0  0  0  0  0  0
  189.8800  177.2870  139.5460 C   0  0  0  0  0  3  0  0  0  0  0  0
  189.8820  176.4520  141.7730 C   0  0  0  0  0  0  0  0  0  0  0  0
  190.3040  176.3980  140.4810 N   0  0  0  0  0  0  0  0  0  0  0  0
  188.9820  178.2940  139.8960 C   0  0  0  0  0  3  0  0  0  0  0  0
  190.3500  175.4730  142.6970 N   0  0  0  0  0  1  0  0  0  0  0  0
  188.5310  178.3730  141.2130 C   0  0  0  0  0  3  0  0  0  0  0  0
  183.8270  178.5390  142.2530 C   0  0  0  0  0  2  0  0  0  0  0  0
  182.5210  178.9960  142.8800 C   0  0  0  0  0  2  0  0  0  0  0  0
  181.3640  178.5530  142.0470 C   0  0  0  0  0  0  0  0  0  0  0  0
  181.5540  178.1050  140.9260 O   0  0  0  0  0  0  0  0  0  0  0  0
  179.9790  178.6500  142.6020 C   0  0  2  0  0  3  0  0  0  0  0  0
  179.9850  178.4030  144.0990 C   0  0  0  0  0  1  0  0  0  0  0  0
  179.1490  177.7210  141.9750 O   0  0  0  0  0  1  0  0  0  0  0  0
  1  2  2  0  0  0  0
  1  8  1  0  0  0  0
  2 11  1  0  0  0  0
  3  4  1  0  0  0  0
  5  6  1  0  0  0  0
  7 10  2  0  0  0  0
  7  2  1  0  0  0  0
  8  3  2  0  0  0  0
  9  5  2  0  0  0  0
 10  9  1  0  0  0  0
 11  5  1  0  0  0  0
 11  4  2  0  0  0  0
 12  1  1  0  0  0  0
 13 16  2  0  0  0  0
 13 15  1  0  0  0  0
 14 12  1  0  0  0  0
 14 17  1  0  0  0  0
 15 14  2  0  0  0  0
 16 18  1  0  0  0  0
 18 12  2  0  0  0  0
 19 20  1  0  0  0  0
 19 10  1  0  0  0  0
 21 23  1  0  0  0  0
 21 20  1  0  0  0  0
 22 21  2  0  0  0  0
 23 24  1  1  0  0  0
 25 23  1  0  0  0  0
M  END
>  <MODEL>
8

>  <REMARK>
 VINA RESULT:      -8.6      1.685      2.646
  Name = 
  5 active torsions:
  status: ('A' for Active; 'I' for Inactive)
    1  A    between atoms: C_1  and  C_5
    2  A    between atoms: C_2  and  C_21
    3  A    between atoms: C_6  and  C_15
    4  A    between atoms: C_6  and  C_23
    5  A    between atoms: C_15  and  C_21
                            x       y       z     vdW  Elec       q    Type
                         _______ _______ _______ _____ _____    ______ ____

>  <TORSDO>
F 5

$$$$
=
 OpenBabel10262419443D

 25 27  0  0  1  0  0  0  0  0999 V2000
  185.4320  178.5930  144.5940 C   0  0  0  0  0  0  0  0  0  0  0  0
  186.6990  177.9770  144.7270 C   0  0  0  0  0  0  0  0  0  0  0  0
  185.3670  179.0090  146.9420 C   0  0  0  0  0  3  0  0  0  0  0  0
  186.6090  178.4050  147.1180 C   0  0  0  0  0  3  0  0  0  0  0  0
  188.5550  177.2800  146.1610 C   0  0  0  0  0  0  0  0  0  0  0  0
  189.2170  177.1550  147.4940 C   0  0  0  0  0  1  0  0  0  0  0  0
  187.3990  177.4800  143.6180 C   0  0  0  0  0  3  0  0  0  0  0  0
  184.8160  179.0890  145.7040 N   0  0  0  0  0  0  0  0  0  0  0  0
  189.2250  176.7870  145.0400 C   0  0  0  0  0  3  0  0  0  0  0  0
  188.6500  176.8820  143.7720 C   0  0  0  0  0  0  0  0  0  0  0  0
  187.2900  177.8840  146.0130 C   0  0  0  0  0  0  0  0  0  0  0  0
  184.7320  178.7120  143.2890 C   0  0  0  0  0  0  0  0  0  0  0  0
  183.4370  178.8590  140.8270 C   0  0  0  0  0  3  0  0  0  0  0  0
  183.3250  178.6720  143.1960 C   0  0  0  0  0  0  0  0  0  0  0  0
  182.7230  178.7520  141.9780 N   0  0  0  0  0  0  0  0  0  0  0  0
  184.8290  178.8930  140.8690 C   0  0  0  0  0  3  0  0  0  0  0  0
  182.5140  178.5850  144.3640 N   0  0  0  0  0  1  0  0  0  0  0  0
  185.4730  178.8160  142.1030 C   0  0  0  0  0  3  0  0  0  0  0  0
  189.3840  176.3740  142.5800 C   0  0  0  0  0  2  0  0  0  0  0  0
  189.9970  177.5320  141.8120 C   0  0  0  0  0  2  0  0  0  0  0  0
  189.4640  177.5680  140.4190 C   0  0  0  0  0  0  0  0  0  0  0  0
  188.2970  177.8710  140.2180 O   0  0  0  0  0  0  0  0  0  0  0  0
  190.3720  177.2450  139.2760 C   0  0  2  0  0  3  0  0  0  0  0  0
  189.7390  177.6520  137.9580 C   0  0  0  0  0  1  0  0  0  0  0  0
  190.6530  175.8790  139.2610 O   0  0  0  0  0  1  0  0  0  0  0  0
  1  2  2  0  0  0  0
  1  8  1  0  0  0  0
  2 11  1  0  0  0  0
  3  4  1  0  0  0  0
  5  6  1  0  0  0  0
  7 10  2  0  0  0  0
  7  2  1  0  0  0  0
  8  3  2  0  0  0  0
  9  5  2  0  0  0  0
 10  9  1  0  0  0  0
 11  5  1  0  0  0  0
 11  4  2  0  0  0  0
 12  1  1  0  0  0  0
 13 16  2  0  0  0  0
 13 15  1  0  0  0  0
 14 12  1  0  0  0  0
 14 17  1  0  0  0  0
 15 14  2  0  0  0  0
 16 18  1  0  0  0  0
 18 12  2  0  0  0  0
 19 10  1  0  0  0  0
 20 19  1  0  0  0  0
 21 20  1  0  0  0  0
 22 21  2  0  0  0  0
 23 24  1  6  0  0  0
 23 21  1  0  0  0  0
 25 23  1  0  0  0  0
M  END
>  <MODEL>
9

>  <REMARK>
 VINA RESULT:      -8.5      3.478      5.442
  Name = 
  5 active torsions:
  status: ('A' for Active; 'I' for Inactive)
    1  A    between atoms: C_1  and  C_5
    2  A    between atoms: C_2  and  C_21
    3  A    between atoms: C_6  and  C_15
    4  A    between atoms: C_6  and  C_23
    5  A    between atoms: C_15  and  C_21
                            x       y       z     vdW  Elec       q    Type
                         _______ _______ _______ _____ _____    ______ ____

>  <TORSDO>
F 5

$$$$
