=
 OpenBabel10262421323D

 32 36  0  0  1  0  0  0  0  0999 V2000
  189.3500  177.5140  136.4310 C   0  0  1  0  0  3  0  0  0  0  0  0
  189.0480  177.4790  141.4540 C   0  0  0  0  0  0  0  0  0  0  0  0
  184.4990  179.1840  142.4000 C   0  0  0  0  0  2  0  0  0  0  0  0
  184.4410  178.1760  143.4540 N   0  0  0  0  0  2  0  0  0  0  0  0
  189.8730  177.2620  139.1100 C   0  0  1  0  0  3  0  0  0  0  0  0
  187.6860  178.3500  139.4860 C   0  0  0  0  0  2  0  0  0  0  0  0
  188.9020  178.7150  137.2860 C   0  0  0  0  0  2  0  0  0  0  0  0
  185.4360  178.7160  141.2950 C   0  0  0  0  0  2  0  0  0  0  0  0
  187.8470  178.0470  140.9620 C   0  0  0  0  0  0  0  0  0  0  0  0
  186.7600  178.2420  141.8390 C   0  0  0  0  0  0  0  0  0  0  0  0
  188.0970  177.3570  143.6840 C   0  0  0  0  0  0  0  0  0  0  0  0
  190.5490  176.7440  137.0340 C   0  0  0  0  0  2  0  0  0  0  0  0
  189.0350  178.4910  138.7970 C   0  0  2  0  0  3  0  0  0  0  0  0
  190.9950  177.2510  138.2730 O   0  0  0  0  0  0  0  0  0  0  0  0
  185.7280  178.1300  144.1540 C   0  0  1  0  0  3  0  0  0  0  0  0
  186.8850  177.8940  143.2060 C   0  0  0  0  0  0  0  0  0  0  0  0
  190.2620  177.2940  140.5790 C   0  0  0  0  0  2  0  0  0  0  0  0
  185.9300  179.3540  144.9150 N   0  0  0  0  0  1  0  0  0  0  0  0
  189.1570  177.1480  142.8020 C   0  0  0  0  0  3  0  0  0  0  0  0
  188.1950  176.5440  136.2210 C   0  0  0  0  0  2  0  0  0  0  0  0
  186.8780  177.2820  136.0500 C   0  0  2  0  0  3  0  0  0  0  0  0
  185.9840  176.8890  137.0320 F   0  0  0  0  0  0  0  0  0  0  0  0
  184.8390  176.5930  134.8060 C   0  0  0  0  0  1  0  0  0  0  0  0
  186.3040  176.9650  134.6830 C   0  0  0  0  0  2  0  0  0  0  0  0
  188.2610  176.9730  145.1320 C   0  0  0  0  0  2  0  0  0  0  0  0
  191.6940  177.8460  145.4470 O   0  0  0  0  0  1  0  0  0  0  0  0
  190.6810  176.9910  145.8770 C   0  0  1  0  0  3  0  0  0  0  0  0
  189.1230  177.9220  147.3880 C   0  0  2  0  0  3  0  0  0  0  0  0
  189.7600  176.8830  148.0760 O   0  0  0  0  0  0  0  0  0  0  0  0
  190.9200  176.6120  147.3290 C   0  0  0  0  0  2  0  0  0  0  0  0
  187.6600  178.0390  147.7860 C   0  0  0  0  0  1  0  0  0  0  0  0
  189.3700  177.7280  145.8990 C   0  0  2  0  0  3  0  0  0  0  0  0
  1 20  1  1  0  0  0
  1 12  1  0  0  0  0
  1  7  1  0  0  0  0
  2 19  1  0  0  0  0
  3  4  1  0  0  0  0
  4 15  1  0  0  0  0
  5 17  1  1  0  0  0
  6  9  1  0  0  0  0
  8 10  1  0  0  0  0
  8  3  1  0  0  0  0
  9  2  2  0  0  0  0
  9 10  1  0  0  0  0
 10 16  2  0  0  0  0
 11 25  1  0  0  0  0
 12 14  1  0  0  0  0
 13  7  1  6  0  0  0
 13  5  1  0  0  0  0
 13  6  1  0  0  0  0
 14  5  1  0  0  0  0
 15 18  1  6  0  0  0
 16 11  1  0  0  0  0
 16 15  1  0  0  0  0
 17  2  1  0  0  0  0
 19 11  2  0  0  0  0
 21 20  1  0  0  0  0
 21 22  1  1  0  0  0
 24 23  1  0  0  0  0
 24 21  1  0  0  0  0
 27 26  1  1  0  0  0
 27 32  1  0  0  0  0
 27 30  1  0  0  0  0
 28 31  1  6  0  0  0
 28 29  1  0  0  0  0
 30 29  1  0  0  0  0
 32 25  1  1  0  0  0
 32 28  1  0  0  0  0
M  END
>  <MODEL>
1

>  <REMARK>
 VINA RESULT:      -8.8      0.000      0.000
  Name = 
  5 active torsions:
  status: ('A' for Active; 'I' for Inactive)
    1  A    between atoms: C_1  and  C_20
    2  A    between atoms: C_1  and  C_24
    3  A    between atoms: C_2  and  C_24
    4  A    between atoms: C_16  and  C_27
    5  A    between atoms: C_27  and  C_32
                            x       y       z     vdW  Elec       q    Type
                         _______ _______ _______ _____ _____    ______ ____

>  <TORSDO>
F 5

$$$$
=
 OpenBabel10262421323D

 32 36  0  0  1  0  0  0  0  0999 V2000
  185.0540  178.1770  137.7990 C   0  0  1  0  0  3  0  0  0  0  0  0
  187.1610  177.8840  142.3590 C   0  0  0  0  0  0  0  0  0  0  0  0
  183.5050  179.1220  145.4580 C   0  0  0  0  0  2  0  0  0  0  0  0
  184.0110  178.0660  146.3290 N   0  0  0  0  0  2  0  0  0  0  0  0
  186.7930  177.8510  139.8920 C   0  0  1  0  0  3  0  0  0  0  0  0
  184.9820  178.7160  141.3350 C   0  0  0  0  0  2  0  0  0  0  0  0
  184.9930  179.2910  138.8610 C   0  0  0  0  0  2  0  0  0  0  0  0
  183.8350  178.7920  144.0080 C   0  0  0  0  0  2  0  0  0  0  0  0
  185.8380  178.3620  142.5350 C   0  0  0  0  0  0  0  0  0  0  0  0
  185.2850  178.4170  143.8300 C   0  0  0  0  0  0  0  0  0  0  0  0
  187.3840  177.5740  144.7570 C   0  0  0  0  0  0  0  0  0  0  0  0
  186.4380  177.4930  137.7060 C   0  0  0  0  0  2  0  0  0  0  0  0
  185.8360  179.0120  140.1110 C   0  0  2  0  0  3  0  0  0  0  0  0
  187.3850  177.9810  138.6310 O   0  0  0  0  0  0  0  0  0  0  0  0
  185.4760  178.1050  146.3410 C   0  0  1  0  0  3  0  0  0  0  0  0
  186.0600  178.0190  144.9470 C   0  0  0  0  0  0  0  0  0  0  0  0
  187.8270  177.8510  141.0070 C   0  0  0  0  0  2  0  0  0  0  0  0
  185.9410  179.3060  147.0190 N   0  0  0  0  0  1  0  0  0  0  0  0
  187.9120  177.5040  143.4670 C   0  0  0  0  0  3  0  0  0  0  0  0
  183.9960  177.1160  138.0720 C   0  0  0  0  0  2  0  0  0  0  0  0
  182.7500  177.7260  138.6920 C   0  0  2  0  0  3  0  0  0  0  0  0
  182.4900  177.1310  139.9150 F   0  0  0  0  0  0  0  0  0  0  0  0
  181.6030  178.5260  136.6370 C   0  0  0  0  0  1  0  0  0  0  0  0
  181.5740  177.5080  137.7610 C   0  0  0  0  0  2  0  0  0  0  0  0
  188.2340  177.1400  145.9230 C   0  0  0  0  0  2  0  0  0  0  0  0
  191.3910  177.9170  144.4830 O   0  0  0  0  0  1  0  0  0  0  0  0
  190.6990  177.0720  145.3490 C   0  0  1  0  0  3  0  0  0  0  0  0
  190.1490  177.9860  147.4550 C   0  0  2  0  0  3  0  0  0  0  0  0
  191.0040  176.9080  147.7100 O   0  0  0  0  0  0  0  0  0  0  0  0
  191.6200  176.6350  146.4750 C   0  0  0  0  0  2  0  0  0  0  0  0
  189.0900  178.1250  148.5380 C   0  0  0  0  0  1  0  0  0  0  0  0
  189.6070  177.8400  146.0410 C   0  0  2  0  0  3  0  0  0  0  0  0
  1 20  1  1  0  0  0
  1  7  1  0  0  0  0
  2  9  2  0  0  0  0
  2 19  1  0  0  0  0
  3  4  1  0  0  0  0
  4 15  1  0  0  0  0
  5 13  1  0  0  0  0
  5 17  1  1  0  0  0
  6  9  1  0  0  0  0
  8  3  1  0  0  0  0
  9 10  1  0  0  0  0
 10  8  1  0  0  0  0
 10 16  2  0  0  0  0
 11 16  1  0  0  0  0
 11 25  1  0  0  0  0
 12  1  1  0  0  0  0
 12 14  1  0  0  0  0
 13  7  1  6  0  0  0
 13  6  1  0  0  0  0
 14  5  1  0  0  0  0
 15 18  1  6  0  0  0
 16 15  1  0  0  0  0
 17  2  1  0  0  0  0
 19 11  2  0  0  0  0
 20 21  1  0  0  0  0
 21 22  1  1  0  0  0
 23 24  1  0  0  0  0
 24 21  1  0  0  0  0
 27 26  1  6  0  0  0
 27 32  1  0  0  0  0
 27 30  1  0  0  0  0
 28 29  1  0  0  0  0
 28 31  1  1  0  0  0
 30 29  1  0  0  0  0
 32 25  1  1  0  0  0
 32 28  1  0  0  0  0
M  END
>  <MODEL>
2

>  <REMARK>
 VINA RESULT:      -8.1      2.220      3.051
  Name = 
  5 active torsions:
  status: ('A' for Active; 'I' for Inactive)
    1  A    between atoms: C_1  and  C_20
    2  A    between atoms: C_1  and  C_24
    3  A    between atoms: C_2  and  C_24
    4  A    between atoms: C_16  and  C_27
    5  A    between atoms: C_27  and  C_32
                            x       y       z     vdW  Elec       q    Type
                         _______ _______ _______ _____ _____    ______ ____

>  <TORSDO>
F 5

$$$$
=
 OpenBabel10262421323D

 32 36  0  0  1  0  0  0  0  0999 V2000
  184.1190  178.5240  138.1030 C   0  0  1  0  0  3  0  0  0  0  0  0
  186.9630  178.0880  142.2320 C   0  0  0  0  0  0  0  0  0  0  0  0
  183.8200  178.9520  145.9570 C   0  0  0  0  0  2  0  0  0  0  0  0
  184.5080  177.8760  146.6650 N   0  0  0  0  0  2  0  0  0  0  0  0
  186.1930  178.1740  139.8610 C   0  0  1  0  0  3  0  0  0  0  0  0
  184.6100  178.8590  141.6310 C   0  0  0  0  0  2  0  0  0  0  0  0
  184.1860  179.5720  139.2310 C   0  0  0  0  0  2  0  0  0  0  0  0
  183.9190  178.7220  144.4550 C   0  0  0  0  0  2  0  0  0  0  0  0
  185.6670  178.4840  142.6510 C   0  0  0  0  0  0  0  0  0  0  0  0
  185.3350  178.4360  144.0200 C   0  0  0  0  0  0  0  0  0  0  0  0
  187.5930  177.6560  144.5370 C   0  0  0  0  0  0  0  0  0  0  0  0
  185.4980  177.9210  137.7420 C   0  0  0  0  0  2  0  0  0  0  0  0
  185.2360  179.2680  140.3060 C   0  0  2  0  0  3  0  0  0  0  0  0
  186.5620  178.4070  138.5310 O   0  0  0  0  0  0  0  0  0  0  0  0
  185.9520  177.9930  146.4410 C   0  0  1  0  0  3  0  0  0  0  0  0
  186.3000  178.0180  144.9670 C   0  0  0  0  0  0  0  0  0  0  0  0
  187.3960  178.1670  140.7910 C   0  0  0  0  0  2  0  0  0  0  0  0
  186.4690  179.1780  147.1100 N   0  0  0  0  0  1  0  0  0  0  0  0
  187.9030  177.6870  143.1770 C   0  0  0  0  0  3  0  0  0  0  0  0
  183.1680  177.3940  138.4760 C   0  0  0  0  0  2  0  0  0  0  0  0
  181.7830  177.6230  137.8940 C   0  0  2  0  0  3  0  0  0  0  0  0
  181.8160  178.6760  136.9950 F   0  0  0  0  0  0  0  0  0  0  0  0
  181.3380  177.3830  140.3280 C   0  0  0  0  0  1  0  0  0  0  0  0
  180.8190  177.9450  139.0180 C   0  0  0  0  0  2  0  0  0  0  0  0
  188.6430  177.2030  145.5180 C   0  0  0  0  0  2  0  0  0  0  0  0
  190.7800  179.4450  143.7720 O   0  0  0  0  0  1  0  0  0  0  0  0
  190.4580  178.1080  144.0030 C   0  0  1  0  0  3  0  0  0  0  0  0
  191.1780  177.2200  146.0690 C   0  0  2  0  0  3  0  0  0  0  0  0
  191.8380  176.4860  145.0770 O   0  0  0  0  0  0  0  0  0  0  0  0
  191.7140  177.2600  143.9100 C   0  0  0  0  0  2  0  0  0  0  0  0
  190.8250  176.3500  147.2650 C   0  0  0  0  0  1  0  0  0  0  0  0
  189.9990  177.9360  145.4250 C   0  0  2  0  0  3  0  0  0  0  0  0
  1 20  1  1  0  0  0
  1  7  1  0  0  0  0
  2  9  2  0  0  0  0
  2 19  1  0  0  0  0
  3  4  1  0  0  0  0
  5 13  1  0  0  0  0
  5 17  1  1  0  0  0
  6  9  1  0  0  0  0
  8  3  1  0  0  0  0
  9 10  1  0  0  0  0
 10  8  1  0  0  0  0
 10 16  2  0  0  0  0
 11 16  1  0  0  0  0
 11 25  1  0  0  0  0
 12  1  1  0  0  0  0
 12 14  1  0  0  0  0
 13  7  1  6  0  0  0
 13  6  1  0  0  0  0
 14  5  1  0  0  0  0
 15  4  1  0  0  0  0
 15 18  1  6  0  0  0
 16 15  1  0  0  0  0
 17  2  1  0  0  0  0
 19 11  2  0  0  0  0
 21 22  1  6  0  0  0
 21 20  1  0  0  0  0
 21 24  1  0  0  0  0
 24 23  1  0  0  0  0
 27 26  1  1  0  0  0
 27 32  1  0  0  0  0
 28 31  1  1  0  0  0
 29 28  1  0  0  0  0
 30 27  1  0  0  0  0
 30 29  1  0  0  0  0
 32 25  1  6  0  0  0
 32 28  1  0  0  0  0
M  END
>  <MODEL>
3

>  <REMARK>
 VINA RESULT:      -8.1      2.582      3.820
  Name = 
  5 active torsions:
  status: ('A' for Active; 'I' for Inactive)
    1  A    between atoms: C_1  and  C_20
    2  A    between atoms: C_1  and  C_24
    3  A    between atoms: C_2  and  C_24
    4  A    between atoms: C_16  and  C_27
    5  A    between atoms: C_27  and  C_32
                            x       y       z     vdW  Elec       q    Type
                         _______ _______ _______ _____ _____    ______ ____

>  <TORSDO>
F 5

$$$$
=
 OpenBabel10262421323D

 32 36  0  0  1  0  0  0  0  0999 V2000
  186.1360  178.4030  145.8360 C   0  0  1  0  0  3  0  0  0  0  0  0
  182.3250  178.6900  142.5620 C   0  0  0  0  0  0  0  0  0  0  0  0
  184.5170  178.4150  138.1330 C   0  0  0  0  0  2  0  0  0  0  0  0
  183.3950  177.5720  137.7330 N   0  0  0  0  0  2  0  0  0  0  0  0
  183.6700  178.6310  144.6630 C   0  0  1  0  0  3  0  0  0  0  0  0
  184.8720  178.7340  142.5060 C   0  0  0  0  0  2  0  0  0  0  0  0
  186.0820  179.3780  144.6430 C   0  0  0  0  0  2  0  0  0  0  0  0
  184.7460  178.2850  139.6330 C   0  0  0  0  0  2  0  0  0  0  0  0
  183.5270  178.6580  141.8110 C   0  0  0  0  0  0  0  0  0  0  0  0
  183.4690  178.4590  140.4160 C   0  0  0  0  0  0  0  0  0  0  0  0
  181.0290  178.3800  140.5330 C   0  0  0  0  0  0  0  0  0  0  0  0
  184.7840  178.2620  146.5750 C   0  0  0  0  0  2  0  0  0  0  0  0
  184.7500  179.3650  143.8840 C   0  0  2  0  0  3  0  0  0  0  0  0
  183.7360  179.0160  146.0060 O   0  0  0  0  0  0  0  0  0  0  0  0
  182.1520  178.1300  138.2730 C   0  0  1  0  0  3  0  0  0  0  0  0
  182.2150  178.3160  139.7740 C   0  0  0  0  0  0  0  0  0  0  0  0
  182.3170  178.9530  144.0460 C   0  0  0  0  0  2  0  0  0  0  0  0
  181.8380  179.3880  137.6130 N   0  0  0  0  0  1  0  0  0  0  0  0
  181.1000  178.5560  141.9150 C   0  0  0  0  0  3  0  0  0  0  0  0
  186.5990  177.0250  145.3820 C   0  0  0  0  0  2  0  0  0  0  0  0
  187.7500  177.1260  144.3960 C   0  0  2  0  0  3  0  0  0  0  0  0
  187.7210  176.0510  143.5230 F   0  0  0  0  0  0  0  0  0  0  0  0
  189.9380  178.2680  144.6890 C   0  0  0  0  0  1  0  0  0  0  0  0
  189.0600  177.1260  145.1600 C   0  0  0  0  0  2  0  0  0  0  0  0
  179.6780  178.2300  139.8820 C   0  0  0  0  0  2  0  0  0  0  0  0
  179.0060  175.2560  141.7110 O   0  0  0  0  0  1  0  0  0  0  0  0
  179.8630  175.8800  140.8060 C   0  0  1  0  0  3  0  0  0  0  0  0
  179.0620  176.0640  138.5930 C   0  0  2  0  0  3  0  0  0  0  0  0
  180.2060  175.2620  138.5270 O   0  0  0  0  0  0  0  0  0  0  0  0
  180.4320  174.8450  139.8510 C   0  0  0  0  0  2  0  0  0  0  0  0
  178.9310  176.9490  137.3630 C   0  0  0  0  0  1  0  0  0  0  0  0
  179.0770  176.8070  139.9200 C   0  0  2  0  0  3  0  0  0  0  0  0
  1 20  1  6  0  0  0
  1 12  1  0  0  0  0
  2 17  1  0  0  0  0
  3  8  1  0  0  0  0
  4  3  1  0  0  0  0
  4 15  1  0  0  0  0
  5 17  1  6  0  0  0
  5 14  1  0  0  0  0
  7  1  1  0  0  0  0
  8 10  1  0  0  0  0
  9  6  1  0  0  0  0
  9  2  2  0  0  0  0
 10  9  1  0  0  0  0
 11 19  2  0  0  0  0
 13  6  1  6  0  0  0
 13  7  1  0  0  0  0
 13  5  1  0  0  0  0
 14 12  1  0  0  0  0
 15 18  1  6  0  0  0
 15 16  1  0  0  0  0
 16 10  2  0  0  0  0
 16 11  1  0  0  0  0
 19  2  1  0  0  0  0
 21 22  1  6  0  0  0
 21 24  1  0  0  0  0
 21 20  1  0  0  0  0
 23 24  1  0  0  0  0
 25 11  1  0  0  0  0
 27 26  1  1  0  0  0
 28 31  1  6  0  0  0
 28 32  1  0  0  0  0
 29 28  1  0  0  0  0
 29 30  1  0  0  0  0
 30 27  1  0  0  0  0
 32 25  1  6  0  0  0
 32 27  1  0  0  0  0
M  END
>  <MODEL>
4

>  <REMARK>
 VINA RESULT:      -7.9      5.015      9.308
  Name = 
  5 active torsions:
  status: ('A' for Active; 'I' for Inactive)
    1  A    between atoms: C_1  and  C_20
    2  A    between atoms: C_1  and  C_24
    3  A    between atoms: C_2  and  C_24
    4  A    between atoms: C_16  and  C_27
    5  A    between atoms: C_27  and  C_32
                            x       y       z     vdW  Elec       q    Type
                         _______ _______ _______ _____ _____    ______ ____

>  <TORSDO>
F 5

$$$$
=
 OpenBabel10262421323D

 32 36  0  0  1  0  0  0  0  0999 V2000
  187.2410  177.6210  146.5260 C   0  0  1  0  0  3  0  0  0  0  0  0
  189.2840  177.0540  141.9620 C   0  0  0  0  0  0  0  0  0  0  0  0
  185.6520  178.3280  138.8490 C   0  0  0  0  0  2  0  0  0  0  0  0
  186.6870  178.9880  138.0580 N   0  0  0  0  0  2  0  0  0  0  0  0
  188.9250  177.0870  144.4300 C   0  0  1  0  0  3  0  0  0  0  0  0
  186.9830  177.5020  142.9590 C   0  0  0  0  0  2  0  0  0  0  0  0
  186.5980  176.8210  145.3750 C   0  0  0  0  0  2  0  0  0  0  0  0
  186.0680  178.2980  140.3140 C   0  0  0  0  0  2  0  0  0  0  0  0
  187.9250  177.4130  141.7750 C   0  0  0  0  0  0  0  0  0  0  0  0
  187.4740  177.7820  140.4920 C   0  0  0  0  0  0  0  0  0  0  0  0
  189.7120  177.3800  139.5940 C   0  0  0  0  0  0  0  0  0  0  0  0
  188.7680  177.4030  146.6460 C   0  0  0  0  0  2  0  0  0  0  0  0
  187.4890  176.6820  144.1360 C   0  0  2  0  0  3  0  0  0  0  0  0
  189.3060  176.5460  145.6630 O   0  0  0  0  0  0  0  0  0  0  0  0
  187.8800  178.1380  138.0120 C   0  0  1  0  0  3  0  0  0  0  0  0
  188.3710  177.7680  139.3960 C   0  0  0  0  0  0  0  0  0  0  0  0
  189.8140  176.6000  143.2970 C   0  0  0  0  0  2  0  0  0  0  0  0
  187.6130  176.9420  137.2270 N   0  0  0  0  0  1  0  0  0  0  0  0
  190.1510  177.0380  140.8740 C   0  0  0  0  0  3  0  0  0  0  0  0
  186.9640  179.1100  146.3650 C   0  0  0  0  0  2  0  0  0  0  0  0
  185.4750  179.4050  146.4270 C   0  0  2  0  0  3  0  0  0  0  0  0
  184.8200  178.3940  147.1100 F   0  0  0  0  0  0  0  0  0  0  0  0
  183.5380  178.8990  144.9520 C   0  0  0  0  0  1  0  0  0  0  0  0
  184.9290  179.5020  145.0160 C   0  0  0  0  0  2  0  0  0  0  0  0
  190.6930  177.3570  138.4510 C   0  0  0  0  0  2  0  0  0  0  0  0
  194.0730  176.4860  139.1250 O   0  0  0  0  0  1  0  0  0  0  0  0
  193.1400  176.7920  138.1360 C   0  0  1  0  0  3  0  0  0  0  0  0
  191.6040  175.0790  137.6080 C   0  0  2  0  0  3  0  0  0  0  0  0
  192.3400  175.3160  136.4410 O   0  0  0  0  0  0  0  0  0  0  0  0
  193.4760  176.0260  136.8680 C   0  0  0  0  0  2  0  0  0  0  0  0
  190.1590  174.7280  137.2920 C   0  0  0  0  0  1  0  0  0  0  0  0
  191.7880  176.2710  138.5360 C   0  0  2  0  0  3  0  0  0  0  0  0
  1 20  1  6  0  0  0
  1 12  1  0  0  0  0
  2 17  1  0  0  0  0
  3  8  1  0  0  0  0
  4  3  1  0  0  0  0
  5 17  1  6  0  0  0
  5 14  1  0  0  0  0
  7  1  1  0  0  0  0
  8 10  1  0  0  0  0
  9  2  1  0  0  0  0
  9  6  1  0  0  0  0
 10  9  2  0  0  0  0
 11 19  1  0  0  0  0
 13  6  1  6  0  0  0
 13  5  1  0  0  0  0
 13  7  1  0  0  0  0
 14 12  1  0  0  0  0
 15 18  1  6  0  0  0
 15  4  1  0  0  0  0
 15 16  1  0  0  0  0
 16 11  2  0  0  0  0
 16 10  1  0  0  0  0
 19  2  2  0  0  0  0
 20 21  1  0  0  0  0
 21 22  1  1  0  0  0
 23 24  1  0  0  0  0
 24 21  1  0  0  0  0
 25 11  1  0  0  0  0
 27 32  1  0  0  0  0
 27 26  1  1  0  0  0
 28 31  1  6  0  0  0
 28 32  1  0  0  0  0
 29 30  1  0  0  0  0
 29 28  1  0  0  0  0
 30 27  1  0  0  0  0
 32 25  1  6  0  0  0
M  END
>  <MODEL>
5

>  <REMARK>
 VINA RESULT:      -7.3      3.063      7.716
  Name = 
  5 active torsions:
  status: ('A' for Active; 'I' for Inactive)
    1  A    between atoms: C_1  and  C_20
    2  A    between atoms: C_1  and  C_24
    3  A    between atoms: C_2  and  C_24
    4  A    between atoms: C_16  and  C_27
    5  A    between atoms: C_27  and  C_32
                            x       y       z     vdW  Elec       q    Type
                         _______ _______ _______ _____ _____    ______ ____

>  <TORSDO>
F 5

$$$$
=
 OpenBabel10262421323D

 32 36  0  0  1  0  0  0  0  0999 V2000
  191.4850  176.7450  143.1320 C   0  0  1  0  0  3  0  0  0  0  0  0
  187.0640  178.0570  141.1170 C   0  0  0  0  0  0  0  0  0  0  0  0
  184.0310  178.4370  145.0100 C   0  0  0  0  0  2  0  0  0  0  0  0
  183.4730  179.6100  144.3440 N   0  0  0  0  0  2  0  0  0  0  0  0
  189.4520  177.4000  141.4140 C   0  0  1  0  0  3  0  0  0  0  0  0
  187.9630  177.3240  143.3850 C   0  0  0  0  0  2  0  0  0  0  0  0
  190.1490  176.0320  143.4180 C   0  0  0  0  0  2  0  0  0  0  0  0
  185.4830  178.2530  144.5910 C   0  0  0  0  0  2  0  0  0  0  0  0
  186.8580  177.8790  142.5080 C   0  0  0  0  0  0  0  0  0  0  0  0
  185.6510  178.3120  143.0930 C   0  0  0  0  0  0  0  0  0  0  0  0
  184.8540  179.0390  140.9000 C   0  0  0  0  0  0  0  0  0  0  0  0
  191.6680  177.1310  141.6450 C   0  0  0  0  0  2  0  0  0  0  0  0
  188.9760  176.5340  142.5690 C   0  0  2  0  0  3  0  0  0  0  0  0
  190.5690  176.7980  140.8240 O   0  0  0  0  0  0  0  0  0  0  0  0
  183.3370  179.3360  142.9110 C   0  0  1  0  0  3  0  0  0  0  0  0
  184.6450  178.8970  142.2870 C   0  0  0  0  0  0  0  0  0  0  0  0
  188.3100  177.5680  140.4240 C   0  0  0  0  0  2  0  0  0  0  0  0
  182.3010  178.3380  142.6860 N   0  0  0  0  0  1  0  0  0  0  0  0
  186.0620  178.6270  140.3370 C   0  0  0  0  0  3  0  0  0  0  0  0
  191.6180  177.9980  143.9880 C   0  0  0  0  0  2  0  0  0  0  0  0
  191.6130  177.6580  145.4680 C   0  0  2  0  0  3  0  0  0  0  0  0
  192.0560  176.3590  145.6570 F   0  0  0  0  0  0  0  0  0  0  0  0
  189.9710  176.8050  147.1280 C   0  0  0  0  0  1  0  0  0  0  0  0
  190.2020  177.7970  146.0050 C   0  0  0  0  0  2  0  0  0  0  0  0
  183.8050  179.6600  140.0140 C   0  0  0  0  0  2  0  0  0  0  0  0
  182.5410  176.3530  139.6930 O   0  0  0  0  0  1  0  0  0  0  0  0
  183.1820  177.4070  139.0430 C   0  0  1  0  0  3  0  0  0  0  0  0
  181.8040  179.2200  138.4220 C   0  0  2  0  0  3  0  0  0  0  0  0
  182.3120  178.6900  137.2310 O   0  0  0  0  0  0  0  0  0  0  0  0
  182.7890  177.4130  137.5770 C   0  0  0  0  0  2  0  0  0  0  0  0
  181.6610  180.7320  138.3420 C   0  0  0  0  0  1  0  0  0  0  0  0
  182.6650  178.7160  139.5710 C   0  0  2  0  0  3  0  0  0  0  0  0
  1  7  1  0  0  0  0
  1 20  1  1  0  0  0
  2  9  1  0  0  0  0
  4  3  1  0  0  0  0
  5 17  1  6  0  0  0
  5 13  1  0  0  0  0
  8  3  1  0  0  0  0
  9 10  2  0  0  0  0
  9  6  1  0  0  0  0
 10  8  1  0  0  0  0
 11 16  2  0  0  0  0
 12  1  1  0  0  0  0
 13  6  1  1  0  0  0
 13  7  1  0  0  0  0
 14  5  1  0  0  0  0
 14 12  1  0  0  0  0
 15 18  1  1  0  0  0
 15  4  1  0  0  0  0
 16 15  1  0  0  0  0
 16 10  1  0  0  0  0
 17  2  1  0  0  0  0
 19 11  1  0  0  0  0
 19  2  2  0  0  0  0
 20 21  1  0  0  0  0
 21 22  1  6  0  0  0
 21 24  1  0  0  0  0
 24 23  1  0  0  0  0
 25 11  1  0  0  0  0
 27 32  1  0  0  0  0
 27 26  1  1  0  0  0
 28 31  1  6  0  0  0
 28 32  1  0  0  0  0
 29 30  1  0  0  0  0
 29 28  1  0  0  0  0
 30 27  1  0  0  0  0
 32 25  1  6  0  0  0
M  END
>  <MODEL>
6

>  <REMARK>
 VINA RESULT:      -7.3      3.538      7.631
  Name = 
  5 active torsions:
  status: ('A' for Active; 'I' for Inactive)
    1  A    between atoms: C_1  and  C_20
    2  A    between atoms: C_1  and  C_24
    3  A    between atoms: C_2  and  C_24
    4  A    between atoms: C_16  and  C_27
    5  A    between atoms: C_27  and  C_32
                            x       y       z     vdW  Elec       q    Type
                         _______ _______ _______ _____ _____    ______ ____

>  <TORSDO>
F 5

$$$$
=
 OpenBabel10262421323D

 32 36  0  0  1  0  0  0  0  0999 V2000
  184.7520  178.9830  145.2630 C   0  0  1  0  0  3  0  0  0  0  0  0
  184.3140  178.3560  140.2890 C   0  0  0  0  0  0  0  0  0  0  0  0
  188.9820  178.4590  138.6460 C   0  0  0  0  0  2  0  0  0  0  0  0
  188.5900  177.3830  137.7410 N   0  0  0  0  0  2  0  0  0  0  0  0
  183.8040  178.6410  142.7140 C   0  0  1  0  0  3  0  0  0  0  0  0
  186.1380  178.9520  141.9650 C   0  0  0  0  0  2  0  0  0  0  0  0
  185.4090  179.8940  144.2070 C   0  0  0  0  0  2  0  0  0  0  0  0
  188.1160  178.4180  139.8970 C   0  0  0  0  0  2  0  0  0  0  0  0
  185.6880  178.5690  140.5690 C   0  0  0  0  0  0  0  0  0  0  0  0
  186.6470  178.3280  139.5650 C   0  0  0  0  0  0  0  0  0  0  0  0
  184.8610  177.7240  138.0090 C   0  0  0  0  0  0  0  0  0  0  0  0
  183.3060  178.5680  144.9010 C   0  0  0  0  0  2  0  0  0  0  0  0
  185.0040  179.5740  142.7640 C   0  0  2  0  0  3  0  0  0  0  0  0
  182.8600  179.0630  143.6570 O   0  0  0  0  0  0  0  0  0  0  0  0
  187.2610  177.6700  137.1920 C   0  0  1  0  0  3  0  0  0  0  0  0
  186.2330  177.9010  138.2800 C   0  0  0  0  0  0  0  0  0  0  0  0
  183.2370  178.6460  141.3030 C   0  0  0  0  0  2  0  0  0  0  0  0
  187.3250  178.8140  136.2950 N   0  0  0  0  0  1  0  0  0  0  0  0
  183.9230  177.9440  139.0190 C   0  0  0  0  0  3  0  0  0  0  0  0
  185.5860  177.7280  145.4830 C   0  0  0  0  0  2  0  0  0  0  0  0
  186.5670  177.9100  146.6290 C   0  0  2  0  0  3  0  0  0  0  0  0
  186.3130  179.1040  147.2830 F   0  0  0  0  0  0  0  0  0  0  0  0
  188.0260  177.1930  144.7490 C   0  0  0  0  0  1  0  0  0  0  0  0
  187.9790  177.9220  146.0770 C   0  0  0  0  0  2  0  0  0  0  0  0
  184.3860  177.2680  136.6540 C   0  0  0  0  0  2  0  0  0  0  0  0
  183.3450  173.8700  136.7800 O   0  0  0  0  0  1  0  0  0  0  0  0
  183.6080  174.9630  135.9540 C   0  0  1  0  0  3  0  0  0  0  0  0
  181.9660  176.6600  135.9420 C   0  0  2  0  0  3  0  0  0  0  0  0
  182.0160  176.1560  134.6380 O   0  0  0  0  0  0  0  0  0  0  0  0
  182.6820  174.9230  134.7510 C   0  0  0  0  0  2  0  0  0  0  0  0
  181.6920  178.1550  135.9520 C   0  0  0  0  0  1  0  0  0  0  0  0
  183.2370  176.2350  136.6650 C   0  0  2  0  0  3  0  0  0  0  0  0
  1 20  1  6  0  0  0
  2  9  1  0  0  0  0
  2 17  1  0  0  0  0
  3  8  1  0  0  0  0
  4  3  1  0  0  0  0
  5 17  1  6  0  0  0
  5 13  1  0  0  0  0
  5 14  1  0  0  0  0
  7  1  1  0  0  0  0
  9  6  1  0  0  0  0
 10  8  1  0  0  0  0
 10  9  2  0  0  0  0
 11 16  2  0  0  0  0
 11 19  1  0  0  0  0
 12  1  1  0  0  0  0
 13  6  1  1  0  0  0
 13  7  1  0  0  0  0
 14 12  1  0  0  0  0
 15 18  1  6  0  0  0
 15  4  1  0  0  0  0
 15 16  1  0  0  0  0
 16 10  1  0  0  0  0
 19  2  2  0  0  0  0
 20 21  1  0  0  0  0
 21 22  1  6  0  0  0
 23 24  1  0  0  0  0
 24 21  1  0  0  0  0
 25 11  1  0  0  0  0
 27 32  1  0  0  0  0
 27 26  1  1  0  0  0
 28 31  1  6  0  0  0
 28 32  1  0  0  0  0
 29 30  1  0  0  0  0
 29 28  1  0  0  0  0
 30 27  1  0  0  0  0
 32 25  1  6  0  0  0
M  END
>  <MODEL>
7

>  <REMARK>
 VINA RESULT:      -7.2      4.171      9.363
  Name = 
  5 active torsions:
  status: ('A' for Active; 'I' for Inactive)
    1  A    between atoms: C_1  and  C_20
    2  A    between atoms: C_1  and  C_24
    3  A    between atoms: C_2  and  C_24
    4  A    between atoms: C_16  and  C_27
    5  A    between atoms: C_27  and  C_32
                            x       y       z     vdW  Elec       q    Type
                         _______ _______ _______ _____ _____    ______ ____

>  <TORSDO>
F 5

$$$$
=
 OpenBabel10262421323D

 32 36  0  0  1  0  0  0  0  0999 V2000
  189.0420  177.3790  146.8740 C   0  0  1  0  0  3  0  0  0  0  0  0
  188.7890  177.5450  141.8520 C   0  0  0  0  0  0  0  0  0  0  0  0
  184.0970  178.8180  140.9220 C   0  0  0  0  0  2  0  0  0  0  0  0
  184.6340  179.6620  139.8580 N   0  0  0  0  0  2  0  0  0  0  0  0
  189.5980  177.2560  144.1940 C   0  0  1  0  0  3  0  0  0  0  0  0
  187.1860  177.6520  143.8280 C   0  0  0  0  0  2  0  0  0  0  0  0
  187.9710  176.6610  146.0310 C   0  0  0  0  0  2  0  0  0  0  0  0
  185.1370  178.6580  142.0230 C   0  0  0  0  0  2  0  0  0  0  0  0
  187.4850  177.7910  142.3490 C   0  0  0  0  0  0  0  0  0  0  0  0
  186.4850  178.2620  141.4740 C   0  0  0  0  0  0  0  0  0  0  0  0
  188.0760  178.1830  139.6200 C   0  0  0  0  0  0  0  0  0  0  0  0
  190.4610  177.2960  146.2640 C   0  0  0  0  0  2  0  0  0  0  0  0
  188.2000  176.7520  144.5180 C   0  0  2  0  0  3  0  0  0  0  0  0
  190.5180  176.6140  145.0300 O   0  0  0  0  0  0  0  0  0  0  0  0
  185.7000  178.9400  139.1580 C   0  0  1  0  0  3  0  0  0  0  0  0
  186.7820  178.4610  140.1030 C   0  0  0  0  0  0  0  0  0  0  0  0
  189.8860  176.9910  142.7240 C   0  0  0  0  0  2  0  0  0  0  0  0
  185.1430  177.8240  138.4090 N   0  0  0  0  0  1  0  0  0  0  0  0
  189.0630  177.7380  140.5010 C   0  0  0  0  0  3  0  0  0  0  0  0
  188.6750  178.8430  147.0750 C   0  0  0  0  0  2  0  0  0  0  0  0
  187.5260  178.9940  148.0580 C   0  0  2  0  0  3  0  0  0  0  0  0
  187.1760  177.7560  148.5710 F   0  0  0  0  0  0  0  0  0  0  0  0
  185.3430  178.5200  146.9670 C   0  0  0  0  0  1  0  0  0  0  0  0
  186.3360  179.6030  147.3430 C   0  0  0  0  0  2  0  0  0  0  0  0
  188.4260  178.3870  138.1690 C   0  0  0  0  0  2  0  0  0  0  0  0
  190.0480  175.2620  137.6700 O   0  0  0  0  0  1  0  0  0  0  0  0
  190.0060  176.6070  137.3050 C   0  0  1  0  0  3  0  0  0  0  0  0
  188.2460  177.2240  135.8560 C   0  0  2  0  0  3  0  0  0  0  0  0
  189.4330  177.4720  135.1570 O   0  0  0  0  0  0  0  0  0  0  0  0
  190.4200  176.7510  135.8510 C   0  0  0  0  0  2  0  0  0  0  0  0
  187.1800  178.2570  135.5280 C   0  0  0  0  0  1  0  0  0  0  0  0
  188.5840  177.0960  137.3350 C   0  0  2  0  0  3  0  0  0  0  0  0
  1 20  1  6  0  0  0
  2  9  1  0  0  0  0
  2 17  1  0  0  0  0
  3  8  1  0  0  0  0
  4  3  1  0  0  0  0
  5 17  1  6  0  0  0
  5 13  1  0  0  0  0
  5 14  1  0  0  0  0
  7  1  1  0  0  0  0
  9  6  1  0  0  0  0
 10  8  1  0  0  0  0
 10  9  2  0  0  0  0
 11 16  2  0  0  0  0
 11 19  1  0  0  0  0
 12  1  1  0  0  0  0
 13  6  1  1  0  0  0
 13  7  1  0  0  0  0
 14 12  1  0  0  0  0
 15 18  1  1  0  0  0
 15  4  1  0  0  0  0
 15 16  1  0  0  0  0
 16 10  1  0  0  0  0
 19  2  2  0  0  0  0
 20 21  1  0  0  0  0
 21 22  1  6  0  0  0
 23 24  1  0  0  0  0
 24 21  1  0  0  0  0
 25 11  1  0  0  0  0
 27 32  1  0  0  0  0
 27 26  1  6  0  0  0
 28 31  1  1  0  0  0
 28 32  1  0  0  0  0
 29 30  1  0  0  0  0
 29 28  1  0  0  0  0
 30 27  1  0  0  0  0
 32 25  1  1  0  0  0
M  END
>  <MODEL>
8

>  <REMARK>
 VINA RESULT:      -7.0      2.694      8.124
  Name = 
  5 active torsions:
  status: ('A' for Active; 'I' for Inactive)
    1  A    between atoms: C_1  and  C_20
    2  A    between atoms: C_1  and  C_24
    3  A    between atoms: C_2  and  C_24
    4  A    between atoms: C_16  and  C_27
    5  A    between atoms: C_27  and  C_32
                            x       y       z     vdW  Elec       q    Type
                         _______ _______ _______ _____ _____    ______ ____

>  <TORSDO>
F 5

$$$$
=
 OpenBabel10262421323D

 32 36  0  0  1  0  0  0  0  0999 V2000
  184.6410  179.0220  145.0520 C   0  0  1  0  0  3  0  0  0  0  0  0
  184.1750  178.3060  140.0930 C   0  0  0  0  0  0  0  0  0  0  0  0
  188.8390  178.2880  138.4350 C   0  0  0  0  0  2  0  0  0  0  0  0
  188.4230  177.2020  137.5520 N   0  0  0  0  0  2  0  0  0  0  0  0
  183.6780  178.6480  142.5130 C   0  0  1  0  0  3  0  0  0  0  0  0
  186.0150  178.9000  141.7510 C   0  0  0  0  0  2  0  0  0  0  0  0
  185.3110  179.9000  143.9770 C   0  0  0  0  0  2  0  0  0  0  0  0
  187.9760  178.2880  139.6890 C   0  0  0  0  0  2  0  0  0  0  0  0
  185.5530  178.4980  140.3650 C   0  0  0  0  0  0  0  0  0  0  0  0
  186.5050  178.2190  139.3630 C   0  0  0  0  0  0  0  0  0  0  0  0
  184.7020  177.6180  137.8250 C   0  0  0  0  0  0  0  0  0  0  0  0
  183.1860  178.6280  144.7030 C   0  0  0  0  0  2  0  0  0  0  0  0
  184.8950  179.5590  142.5420 C   0  0  2  0  0  3  0  0  0  0  0  0
  182.7450  179.1060  143.4500 O   0  0  0  0  0  0  0  0  0  0  0  0
  187.0990  177.5030  137.0020 C   0  0  1  0  0  3  0  0  0  0  0  0
  186.0780  177.7750  138.0880 C   0  0  0  0  0  0  0  0  0  0  0  0
  183.1070  178.6360  141.1040 C   0  0  0  0  0  2  0  0  0  0  0  0
  187.1810  178.6280  136.0820 N   0  0  0  0  0  1  0  0  0  0  0  0
  183.7720  177.8760  138.8320 C   0  0  0  0  0  3  0  0  0  0  0  0
  185.4510  177.7560  145.2950 C   0  0  0  0  0  2  0  0  0  0  0  0
  186.3040  177.8780  146.5460 C   0  0  2  0  0  3  0  0  0  0  0  0
  186.2120  179.1620  147.0590 F   0  0  0  0  0  0  0  0  0  0  0  0
  187.8820  177.3300  144.7050 C   0  0  0  0  0  1  0  0  0  0  0  0
  187.7470  177.5740  146.1960 C   0  0  0  0  0  2  0  0  0  0  0  0
  184.2150  177.1440  136.4800 C   0  0  0  0  0  2  0  0  0  0  0  0
  182.3390  174.5020  137.9440 O   0  0  0  0  0  1  0  0  0  0  0  0
  183.6040  175.0710  137.7980 C   0  0  1  0  0  3  0  0  0  0  0  0
  184.6600  174.7040  135.7180 C   0  0  2  0  0  3  0  0  0  0  0  0
  185.4720  174.0940  136.6810 O   0  0  0  0  0  0  0  0  0  0  0  0
  184.6570  173.9760  137.8200 C   0  0  0  0  0  2  0  0  0  0  0  0
  185.4860  175.3090  134.5940 C   0  0  0  0  0  1  0  0  0  0  0  0
  183.7310  175.6780  136.4280 C   0  0  2  0  0  3  0  0  0  0  0  0
  1 20  1  6  0  0  0
  2  9  1  0  0  0  0
  2 17  1  0  0  0  0
  3  8  1  0  0  0  0
  4  3  1  0  0  0  0
  5 17  1  6  0  0  0
  5 13  1  0  0  0  0
  5 14  1  0  0  0  0
  7  1  1  0  0  0  0
  9  6  1  0  0  0  0
 10  8  1  0  0  0  0
 10  9  2  0  0  0  0
 11 16  2  0  0  0  0
 11 19  1  0  0  0  0
 12  1  1  0  0  0  0
 13  6  1  1  0  0  0
 13  7  1  0  0  0  0
 14 12  1  0  0  0  0
 15 18  1  6  0  0  0
 15  4  1  0  0  0  0
 15 16  1  0  0  0  0
 16 10  1  0  0  0  0
 19  2  2  0  0  0  0
 20 21  1  0  0  0  0
 21 22  1  6  0  0  0
 23 24  1  0  0  0  0
 24 21  1  0  0  0  0
 25 11  1  0  0  0  0
 27 30  1  0  0  0  0
 27 26  1  6  0  0  0
 28 31  1  6  0  0  0
 28 32  1  0  0  0  0
 28 29  1  0  0  0  0
 29 30  1  0  0  0  0
 32 25  1  1  0  0  0
 32 27  1  0  0  0  0
M  END
>  <MODEL>
9

>  <REMARK>
 VINA RESULT:      -7.0      4.029      8.999
  Name = 
  5 active torsions:
  status: ('A' for Active; 'I' for Inactive)
    1  A    between atoms: C_1  and  C_20
    2  A    between atoms: C_1  and  C_24
    3  A    between atoms: C_2  and  C_24
    4  A    between atoms: C_16  and  C_27
    5  A    between atoms: C_27  and  C_32
                            x       y       z     vdW  Elec       q    Type
                         _______ _______ _______ _____ _____    ______ ____

>  <TORSDO>
F 5

$$$$
