=
 OpenBabel10262423143D

 34 37  0  0  1  0  0  0  0  0999 V2000
  185.3160  178.1190  141.9790 C   0  0  2  0  0  3  0  0  0  0  0  0
  184.5160  179.1130  145.5960 N   0  0  0  0  0  2  0  0  0  0  0  0
  183.0530  178.9070  143.7050 C   0  0  0  0  0  2  0  0  0  0  0  0
  183.6480  178.9710  140.1880 C   0  0  0  0  0  0  0  0  0  0  0  0
  181.9070  178.8070  139.8590 S   0  0  0  0  0  0  0  0  0  0  0  0
  184.3270  179.9040  139.5330 C   0  0  0  0  0  2  0  0  0  0  0  0
  182.8520  178.2990  142.3360 C   0  0  2  0  0  3  0  0  0  0  0  0
  184.0080  178.6070  141.5210 N   0  0  0  0  0  0  0  0  0  0  0  0
  181.6320  178.9040  141.6570 C   0  0  0  0  0  2  0  0  0  0  0  0
  185.2720  178.3030  146.5370 C   0  0  0  0  0  2  0  0  0  0  0  0
  186.7590  178.5000  146.2860 C   0  0  2  0  0  3  0  0  0  0  0  0
  187.2230  177.6140  145.1710 C   0  0  0  0  0  3  0  0  0  0  0  0
  184.3240  178.3650  144.3580 C   0  0  1  0  0  3  0  0  0  0  0  0
  186.7000  177.6200  143.9390 C   0  0  0  0  0  3  0  0  0  0  0  0
  185.5790  178.5070  143.4500 C   0  0  1  0  0  3  0  0  0  0  0  0
  187.5420  178.2140  147.5290 C   0  0  0  0  0  0  0  0  0  0  0  0
  188.4780  177.0550  147.5560 C   0  0  0  0  0  1  0  0  0  0  0  0
  187.4230  178.9170  148.5210 O   0  0  0  0  0  0  0  0  0  0  0  0
  186.4780  178.5700  141.0920 C   0  0  0  0  0  2  0  0  0  0  0  0
  187.6230  177.5640  141.1300 C   0  0  0  0  0  2  0  0  0  0  0  0
  188.8890  178.2930  139.1290 C   0  0  0  0  0  1  0  0  0  0  0  0
  188.9180  178.1920  140.6400 C   0  0  2  0  0  3  0  0  0  0  0  0
  190.0260  177.3910  141.0420 O   0  0  0  0  0  0  0  0  0  0  0  0
  191.8050  178.6430  144.0000 N   0  0  0  0  0  2  0  0  0  0  0  0
  191.5660  176.6010  145.2880 C   0  0  0  0  0  0  0  0  0  0  0  0
  191.3200  178.0740  145.2470 C   0  0  0  0  0  2  0  0  0  0  0  0
  190.7060  178.6510  143.0390 C   0  0  1  0  0  3  0  0  0  0  0  0
  190.7340  176.1320  142.9270 C   0  0  0  0  0  3  0  0  0  0  0  0
  190.5000  177.3300  142.3590 C   0  0  0  0  0  0  0  0  0  0  0  0
  191.2610  175.7910  144.2660 C   0  0  0  0  0  3  0  0  0  0  0  0
  189.5260  179.1290  143.5870 F   0  0  0  0  0  0  0  0  0  0  0  0
  192.0900  176.0130  146.5350 C   0  0  0  0  0  0  0  0  0  0  0  0
  192.0360  176.7400  147.7600 N   0  0  0  0  0  1  0  0  0  0  0  0
  192.5930  174.8580  146.5290 O   0  0  0  0  0  0  0  0  0  0  0  0
  1 19  1  6  0  0  0
  1 15  1  0  0  0  0
  2 10  1  0  0  0  0
  4  8  1  0  0  0  0
  5  4  1  0  0  0  0
  5  9  1  0  0  0  0
  6  4  2  0  0  0  0
  7  9  1  6  0  0  0
  7  3  1  0  0  0  0
  8  1  1  0  0  0  0
  8  7  1  0  0  0  0
 11 10  1  0  0  0  0
 11 16  1  1  0  0  0
 12 11  1  0  0  0  0
 13  3  1  6  0  0  0
 13  2  1  0  0  0  0
 14 12  2  0  0  0  0
 15 14  1  1  0  0  0
 15 13  1  0  0  0  0
 16 17  1  0  0  0  0
 16 18  2  0  0  0  0
 19 20  1  0  0  0  0
 22 21  1  6  0  0  0
 22 23  1  0  0  0  0
 22 20  1  0  0  0  0
 23 29  1  0  0  0  0
 24 26  1  0  0  0  0
 25 32  1  0  0  0  0
 26 25  1  0  0  0  0
 27 31  1  1  0  0  0
 27 24  1  0  0  0  0
 28 30  1  0  0  0  0
 29 28  2  0  0  0  0
 29 27  1  0  0  0  0
 30 25  2  0  0  0  0
 32 33  1  0  0  0  0
 34 32  2  0  0  0  0
M  END
>  <MODEL>
1

>  <REMARK>
 VINA RESULT:      -8.6      0.000      0.000
  Name = 
  7 active torsions:
  status: ('A' for Active; 'I' for Inactive)
    1  A    between atoms: C_1  and  C_9
    2  A    between atoms: C_3  and  C_25
    3  A    between atoms: O_6  and  C_28
    4  A    between atoms: O_6  and  C_30
    5  A    between atoms: C_7  and  C_11
    6  A    between atoms: C_8  and  C_9
    7  A    between atoms: C_8  and  C_30
                            x       y       z     vdW  Elec       q    Type
                         _______ _______ _______ _____ _____    ______ ____

>  <TORSDO>
F 7

$$$$
=
 OpenBabel10262423143D

 34 37  0  0  1  0  0  0  0  0999 V2000
  187.4750  177.8610  139.7490 C   0  0  2  0  0  3  0  0  0  0  0  0
  184.0140  179.3210  140.5220 N   0  0  0  0  0  2  0  0  0  0  0  0
  184.9310  178.5780  138.4330 C   0  0  0  0  0  2  0  0  0  0  0  0
  188.2860  178.1340  137.3030 C   0  0  0  0  0  0  0  0  0  0  0  0
  187.7110  177.6560  135.6880 S   0  0  0  0  0  0  0  0  0  0  0  0
  189.2570  179.0350  137.3840 C   0  0  0  0  0  2  0  0  0  0  0  0
  185.9770  177.7230  137.7560 C   0  0  2  0  0  3  0  0  0  0  0  0
  187.2730  178.0600  138.3070 N   0  0  0  0  0  0  0  0  0  0  0  0
  186.0200  178.0130  136.2630 C   0  0  0  0  0  2  0  0  0  0  0  0
  183.5020  178.8060  141.7820 C   0  0  0  0  0  2  0  0  0  0  0  0
  184.4590  179.1790  142.9020 C   0  0  2  0  0  3  0  0  0  0  0  0
  185.5890  178.1980  142.9750 C   0  0  0  0  0  3  0  0  0  0  0  0
  184.9410  178.3530  139.9440 C   0  0  1  0  0  3  0  0  0  0  0  0
  186.4060  177.9160  141.9530 C   0  0  0  0  0  3  0  0  0  0  0  0
  186.3530  178.5270  140.5730 C   0  0  1  0  0  3  0  0  0  0  0  0
  183.7370  179.2300  144.2130 C   0  0  0  0  0  0  0  0  0  0  0  0
  182.3010  178.8390  144.2750 C   0  0  0  0  0  1  0  0  0  0  0  0
  184.3100  179.5890  145.2300 O   0  0  0  0  0  0  0  0  0  0  0  0
  188.8470  178.3250  140.2410 C   0  0  0  0  0  2  0  0  0  0  0  0
  189.7660  177.1390  140.5110 C   0  0  0  0  0  2  0  0  0  0  0  0
  192.1900  177.4730  140.8970 C   0  0  0  0  0  1  0  0  0  0  0  0
  190.8220  177.4900  141.5460 C   0  0  2  0  0  3  0  0  0  0  0  0
  190.7900  176.5430  142.6110 O   0  0  0  0  0  0  0  0  0  0  0  0
  190.9250  176.4850  146.2790 N   0  0  0  0  0  2  0  0  0  0  0  0
  188.7770  177.5660  146.6010 C   0  0  0  0  0  0  0  0  0  0  0  0
  190.2400  177.6080  146.8990 C   0  0  0  0  0  2  0  0  0  0  0  0
  191.3990  176.9020  144.9640 C   0  0  1  0  0  3  0  0  0  0  0  0
  189.0300  177.0650  144.1170 C   0  0  0  0  0  3  0  0  0  0  0  0
  190.3410  176.8450  143.9030 C   0  0  0  0  0  0  0  0  0  0  0  0
  188.2980  177.3620  145.3670 C   0  0  0  0  0  3  0  0  0  0  0  0
  192.0220  178.1410  144.9940 F   0  0  0  0  0  0  0  0  0  0  0  0
  187.8310  177.8400  147.6990 C   0  0  0  0  0  0  0  0  0  0  0  0
  186.5010  178.2710  147.4230 N   0  0  0  0  0  1  0  0  0  0  0  0
  188.1920  177.6950  148.8980 O   0  0  0  0  0  0  0  0  0  0  0  0
  1 19  1  1  0  0  0
  1 15  1  0  0  0  0
  2 10  1  0  0  0  0
  4  6  2  0  0  0  0
  4  8  1  0  0  0  0
  5  9  1  0  0  0  0
  5  4  1  0  0  0  0
  7  9  1  6  0  0  0
  7  8  1  0  0  0  0
  7  3  1  0  0  0  0
  8  1  1  0  0  0  0
 10 11  1  0  0  0  0
 11 12  1  0  0  0  0
 11 16  1  1  0  0  0
 13  3  1  6  0  0  0
 13  2  1  0  0  0  0
 13 15  1  0  0  0  0
 14 12  2  0  0  0  0
 15 14  1  1  0  0  0
 16 17  1  0  0  0  0
 16 18  2  0  0  0  0
 19 20  1  0  0  0  0
 20 22  1  0  0  0  0
 22 21  1  6  0  0  0
 22 23  1  0  0  0  0
 23 29  1  0  0  0  0
 24 26  1  0  0  0  0
 25 26  1  0  0  0  0
 25 32  1  0  0  0  0
 27 31  1  1  0  0  0
 27 24  1  0  0  0  0
 28 30  1  0  0  0  0
 29 28  2  0  0  0  0
 29 27  1  0  0  0  0
 30 25  2  0  0  0  0
 32 34  2  0  0  0  0
 33 32  1  0  0  0  0
M  END
>  <MODEL>
2

>  <REMARK>
 VINA RESULT:      -8.6      2.379      4.374
  Name = 
  7 active torsions:
  status: ('A' for Active; 'I' for Inactive)
    1  A    between atoms: C_1  and  C_9
    2  A    between atoms: C_3  and  C_25
    3  A    between atoms: O_6  and  C_28
    4  A    between atoms: O_6  and  C_30
    5  A    between atoms: C_7  and  C_11
    6  A    between atoms: C_8  and  C_9
    7  A    between atoms: C_8  and  C_30
                            x       y       z     vdW  Elec       q    Type
                         _______ _______ _______ _____ _____    ______ ____

>  <TORSDO>
F 7

$$$$
=
 OpenBabel10262423143D

 34 37  0  0  1  0  0  0  0  0999 V2000
  187.3110  178.2690  138.7910 C   0  0  2  0  0  3  0  0  0  0  0  0
  190.5810  176.5210  139.7710 N   0  0  0  0  0  2  0  0  0  0  0  0
  189.7330  177.0750  137.5950 C   0  0  0  0  0  2  0  0  0  0  0  0
  186.4410  177.7620  136.4030 C   0  0  0  0  0  0  0  0  0  0  0  0
  187.0480  177.9410  134.7400 S   0  0  0  0  0  0  0  0  0  0  0  0
  185.3700  177.0040  136.6040 C   0  0  0  0  0  2  0  0  0  0  0  0
  188.7880  177.9490  136.8030 C   0  0  2  0  0  3  0  0  0  0  0  0
  187.4680  177.8510  137.3910 N   0  0  0  0  0  0  0  0  0  0  0  0
  188.6910  177.4650  135.3640 C   0  0  0  0  0  2  0  0  0  0  0  0
  191.1680  177.1390  140.9490 C   0  0  0  0  0  2  0  0  0  0  0  0
  190.1880  177.0410  142.1070 C   0  0  2  0  0  3  0  0  0  0  0  0
  189.1850  178.1520  142.0390 C   0  0  0  0  0  3  0  0  0  0  0  0
  189.7700  177.5050  139.0620 C   0  0  1  0  0  3  0  0  0  0  0  0
  188.3940  178.3880  140.9850 C   0  0  0  0  0  3  0  0  0  0  0  0
  188.3550  177.5910  139.7030 C   0  0  1  0  0  3  0  0  0  0  0  0
  190.9150  177.0840  143.4140 C   0  0  0  0  0  0  0  0  0  0  0  0
  190.6780  178.2200  144.3480 C   0  0  0  0  0  1  0  0  0  0  0  0
  191.7000  176.2000  143.7240 O   0  0  0  0  0  0  0  0  0  0  0  0
  185.8990  178.0450  139.3370 C   0  0  0  0  0  2  0  0  0  0  0  0
  185.6630  178.8610  140.6030 C   0  0  0  0  0  2  0  0  0  0  0  0
  183.4270  177.8350  140.8980 C   0  0  0  0  0  1  0  0  0  0  0  0
  184.7550  178.1200  141.5700 C   0  0  2  0  0  3  0  0  0  0  0  0
  184.5380  178.9110  142.7350 O   0  0  0  0  0  0  0  0  0  0  0  0
  185.4720  179.6830  146.2000 N   0  0  0  0  0  2  0  0  0  0  0  0
  187.0140  177.8250  146.4370 C   0  0  0  0  0  0  0  0  0  0  0  0
  185.8000  178.5040  146.9850 C   0  0  0  0  0  2  0  0  0  0  0  0
  184.5230  179.2960  145.1610 C   0  0  1  0  0  3  0  0  0  0  0  0
  186.2930  177.9300  143.9980 C   0  0  0  0  0  3  0  0  0  0  0  0
  185.1740  178.6760  143.9610 C   0  0  0  0  0  0  0  0  0  0  0  0
  187.1670  177.5640  145.1330 C   0  0  0  0  0  3  0  0  0  0  0  0
  183.4970  178.5010  145.6500 F   0  0  0  0  0  0  0  0  0  0  0  0
  188.0400  177.3550  147.3870 C   0  0  0  0  0  0  0  0  0  0  0  0
  187.9760  177.7140  148.7650 N   0  0  0  0  0  1  0  0  0  0  0  0
  188.9880  176.6280  146.9860 O   0  0  0  0  0  0  0  0  0  0  0  0
  1 19  1  1  0  0  0
  1 15  1  0  0  0  0
  2 10  1  0  0  0  0
  4  6  2  0  0  0  0
  4  8  1  0  0  0  0
  5  9  1  0  0  0  0
  5  4  1  0  0  0  0
  7  9  1  6  0  0  0
  7  8  1  0  0  0  0
  7  3  1  0  0  0  0
  8  1  1  0  0  0  0
 10 11  1  0  0  0  0
 11 16  1  1  0  0  0
 12 11  1  0  0  0  0
 13  3  1  6  0  0  0
 13 15  1  0  0  0  0
 13  2  1  0  0  0  0
 14 12  2  0  0  0  0
 15 14  1  1  0  0  0
 16 18  2  0  0  0  0
 16 17  1  0  0  0  0
 19 20  1  0  0  0  0
 20 22  1  0  0  0  0
 22 21  1  6  0  0  0
 22 23  1  0  0  0  0
 23 29  1  0  0  0  0
 24 26  1  0  0  0  0
 25 26  1  0  0  0  0
 25 32  1  0  0  0  0
 27 31  1  1  0  0  0
 27 24  1  0  0  0  0
 28 30  1  0  0  0  0
 29 28  2  0  0  0  0
 29 27  1  0  0  0  0
 30 25  2  0  0  0  0
 32 33  1  0  0  0  0
 34 32  2  0  0  0  0
M  END
>  <MODEL>
3

>  <REMARK>
 VINA RESULT:      -8.6      2.989      5.877
  Name = 
  7 active torsions:
  status: ('A' for Active; 'I' for Inactive)
    1  A    between atoms: C_1  and  C_9
    2  A    between atoms: C_3  and  C_25
    3  A    between atoms: O_6  and  C_28
    4  A    between atoms: O_6  and  C_30
    5  A    between atoms: C_7  and  C_11
    6  A    between atoms: C_8  and  C_9
    7  A    between atoms: C_8  and  C_30
                            x       y       z     vdW  Elec       q    Type
                         _______ _______ _______ _____ _____    ______ ____

>  <TORSDO>
F 7

$$$$
=
 OpenBabel10262423143D

 34 37  0  0  1  0  0  0  0  0999 V2000
  183.6260  178.5480  140.7230 C   0  0  2  0  0  3  0  0  0  0  0  0
  182.8150  179.4070  144.3720 N   0  0  0  0  0  2  0  0  0  0  0  0
  181.3350  179.0570  142.5150 C   0  0  0  0  0  2  0  0  0  0  0  0
  181.8260  179.2240  138.9850 C   0  0  0  0  0  0  0  0  0  0  0  0
  180.1060  178.8690  138.6980 S   0  0  0  0  0  0  0  0  0  0  0  0
  182.3780  180.2350  138.3260 C   0  0  0  0  0  2  0  0  0  0  0  0
  181.1670  178.4440  141.1440 C   0  0  2  0  0  3  0  0  0  0  0  0
  182.2590  178.8890  140.3040 N   0  0  0  0  0  0  0  0  0  0  0  0
  179.8690  178.9160  140.5030 C   0  0  0  0  0  2  0  0  0  0  0  0
  183.6810  178.6780  145.2830 C   0  0  0  0  0  2  0  0  0  0  0  0
  185.1290  179.0430  144.9970 C   0  0  2  0  0  3  0  0  0  0  0  0
  185.6610  178.2270  143.8590 C   0  0  0  0  0  3  0  0  0  0  0  0
  182.6760  178.6550  143.1290 C   0  0  1  0  0  3  0  0  0  0  0  0
  185.1080  178.1870  142.6410 C   0  0  0  0  0  3  0  0  0  0  0  0
  183.8820  178.9470  142.1910 C   0  0  1  0  0  3  0  0  0  0  0  0
  185.9730  178.8340  146.2160 C   0  0  0  0  0  0  0  0  0  0  0  0
  187.1200  177.8850  146.1610 C   0  0  0  0  0  1  0  0  0  0  0  0
  185.7310  179.4300  147.2550 O   0  0  0  0  0  0  0  0  0  0  0  0
  184.7060  179.1360  139.8130 C   0  0  0  0  0  2  0  0  0  0  0  0
  185.2690  178.0770  138.8720 C   0  0  0  0  0  2  0  0  0  0  0  0
  186.8150  178.5730  137.0000 C   0  0  0  0  0  1  0  0  0  0  0  0
  186.7100  178.3880  138.5000 C   0  0  2  0  0  3  0  0  0  0  0  0
  187.5580  177.3170  138.9070 O   0  0  0  0  0  0  0  0  0  0  0  0
  190.5740  176.3380  140.7550 N   0  0  0  0  0  2  0  0  0  0  0  0
  190.2930  177.9700  142.5280 C   0  0  0  0  0  0  0  0  0  0  0  0
  191.2000  177.4420  141.4650 C   0  0  0  0  0  2  0  0  0  0  0  0
  189.8750  176.8740  139.5920 C   0  0  1  0  0  3  0  0  0  0  0  0
  188.1980  178.0260  141.0820 C   0  0  0  0  0  3  0  0  0  0  0  0
  188.5220  177.4340  139.9160 C   0  0  0  0  0  0  0  0  0  0  0  0
  189.0010  178.2430  142.3040 C   0  0  0  0  0  3  0  0  0  0  0  0
  190.6450  177.7840  138.8830 F   0  0  0  0  0  0  0  0  0  0  0  0
  190.8690  178.2750  143.8510 C   0  0  0  0  0  0  0  0  0  0  0  0
  190.5360  177.4860  144.9900 N   0  0  0  0  0  1  0  0  0  0  0  0
  191.6670  179.2410  143.9870 O   0  0  0  0  0  0  0  0  0  0  0  0
  1 19  1  6  0  0  0
  1 15  1  0  0  0  0
  2 10  1  0  0  0  0
  4  8  1  0  0  0  0
  5  4  1  0  0  0  0
  5  9  1  0  0  0  0
  6  4  2  0  0  0  0
  7  9  1  6  0  0  0
  7  3  1  0  0  0  0
  8  1  1  0  0  0  0
  8  7  1  0  0  0  0
 11 10  1  0  0  0  0
 11 16  1  1  0  0  0
 12 11  1  0  0  0  0
 13  3  1  6  0  0  0
 13  2  1  0  0  0  0
 14 12  2  0  0  0  0
 15 14  1  1  0  0  0
 15 13  1  0  0  0  0
 16 18  2  0  0  0  0
 17 16  1  0  0  0  0
 20 19  1  0  0  0  0
 22 21  1  6  0  0  0
 22 20  1  0  0  0  0
 22 23  1  0  0  0  0
 23 29  1  0  0  0  0
 24 26  1  0  0  0  0
 25 32  1  0  0  0  0
 26 25  1  0  0  0  0
 27 31  1  1  0  0  0
 27 29  1  0  0  0  0
 27 24  1  0  0  0  0
 28 30  1  0  0  0  0
 29 28  2  0  0  0  0
 30 25  2  0  0  0  0
 32 34  2  0  0  0  0
 32 33  1  0  0  0  0
M  END
>  <MODEL>
4

>  <REMARK>
 VINA RESULT:      -8.5      2.101      2.973
  Name = 
  7 active torsions:
  status: ('A' for Active; 'I' for Inactive)
    1  A    between atoms: C_1  and  C_9
    2  A    between atoms: C_3  and  C_25
    3  A    between atoms: O_6  and  C_28
    4  A    between atoms: O_6  and  C_30
    5  A    between atoms: C_7  and  C_11
    6  A    between atoms: C_8  and  C_9
    7  A    between atoms: C_8  and  C_30
                            x       y       z     vdW  Elec       q    Type
                         _______ _______ _______ _____ _____    ______ ____

>  <TORSDO>
F 7

$$$$
=
 OpenBabel10262423143D

 34 37  0  0  1  0  0  0  0  0999 V2000
  187.5280  177.1440  144.9990 C   0  0  2  0  0  3  0  0  0  0  0  0
  190.8000  178.3460  143.4000 N   0  0  0  0  0  2  0  0  0  0  0  0
  190.2320  178.0890  145.7170 C   0  0  0  0  0  2  0  0  0  0  0  0
  187.1010  177.9530  147.4240 C   0  0  0  0  0  0  0  0  0  0  0  0
  187.9290  177.8270  148.9940 S   0  0  0  0  0  0  0  0  0  0  0  0
  186.1130  178.8310  147.3020 C   0  0  0  0  0  2  0  0  0  0  0  0
  189.3190  177.4170  146.7170 C   0  0  2  0  0  3  0  0  0  0  0  0
  187.9470  177.6470  146.3150 N   0  0  0  0  0  0  0  0  0  0  0  0
  189.5020  178.0250  148.1000 C   0  0  0  0  0  2  0  0  0  0  0  0
  191.1190  177.5620  142.2180 C   0  0  0  0  0  2  0  0  0  0  0  0
  189.9930  177.7000  141.2060 C   0  0  2  0  0  3  0  0  0  0  0  0
  188.8840  176.7440  141.5240 C   0  0  0  0  0  3  0  0  0  0  0  0
  189.9910  177.5420  144.3100 C   0  0  1  0  0  3  0  0  0  0  0  0
  188.2400  176.7030  142.6970 C   0  0  0  0  0  3  0  0  0  0  0  0
  188.4960  177.5980  143.8870 C   0  0  1  0  0  3  0  0  0  0  0  0
  190.5020  177.4540  139.8200 C   0  0  0  0  0  0  0  0  0  0  0  0
  189.5770  177.6090  138.6620 C   0  0  0  0  0  1  0  0  0  0  0  0
  191.6630  177.1270  139.6270 O   0  0  0  0  0  0  0  0  0  0  0  0
  186.0870  177.5130  144.6380 C   0  0  0  0  0  2  0  0  0  0  0  0
  186.0120  178.9110  144.0350 C   0  0  0  0  0  2  0  0  0  0  0  0
  183.6500  179.3780  144.6180 C   0  0  0  0  0  1  0  0  0  0  0  0
  184.6270  179.1910  143.4750 C   0  0  2  0  0  3  0  0  0  0  0  0
  184.2030  178.1010  142.6620 O   0  0  0  0  0  0  0  0  0  0  0  0
  184.5560  179.7020  139.3770 N   0  0  0  0  0  2  0  0  0  0  0  0
  183.5720  177.8700  138.1260 C   0  0  0  0  0  0  0  0  0  0  0  0
  184.7640  178.7540  138.2940 C   0  0  0  0  0  2  0  0  0  0  0  0
  185.0830  179.1200  140.6060 C   0  0  1  0  0  3  0  0  0  0  0  0
  183.2680  177.3710  140.6040 C   0  0  0  0  0  3  0  0  0  0  0  0
  184.1390  178.1570  141.2630 C   0  0  0  0  0  0  0  0  0  0  0  0
  182.9760  177.2600  139.1590 C   0  0  0  0  0  3  0  0  0  0  0  0
  186.3400  178.5580  140.4310 F   0  0  0  0  0  0  0  0  0  0  0  0
  183.0880  177.5990  136.7590 C   0  0  0  0  0  0  0  0  0  0  0  0
  183.9150  176.9230  135.8160 N   0  0  0  0  0  1  0  0  0  0  0  0
  181.9330  177.9650  136.4120 O   0  0  0  0  0  0  0  0  0  0  0  0
  1 19  1  6  0  0  0
  1  8  1  0  0  0  0
  2 13  1  0  0  0  0
  4  5  1  0  0  0  0
  6  4  2  0  0  0  0
  7  3  1  6  0  0  0
  7  9  1  0  0  0  0
  8  7  1  0  0  0  0
  8  4  1  0  0  0  0
  9  5  1  0  0  0  0
 10  2  1  0  0  0  0
 11 16  1  6  0  0  0
 11 12  1  0  0  0  0
 11 10  1  0  0  0  0
 12 14  2  0  0  0  0
 13  3  1  1  0  0  0
 15 14  1  6  0  0  0
 15 13  1  0  0  0  0
 15  1  1  0  0  0  0
 17 16  1  0  0  0  0
 18 16  2  0  0  0  0
 20 19  1  0  0  0  0
 22 20  1  0  0  0  0
 22 21  1  1  0  0  0
 23 22  1  0  0  0  0
 24 27  1  0  0  0  0
 25 26  1  0  0  0  0
 25 30  2  0  0  0  0
 26 24  1  0  0  0  0
 27 31  1  6  0  0  0
 27 29  1  0  0  0  0
 28 29  2  0  0  0  0
 29 23  1  0  0  0  0
 30 28  1  0  0  0  0
 32 25  1  0  0  0  0
 33 32  1  0  0  0  0
 34 32  2  0  0  0  0
M  END
>  <MODEL>
5

>  <REMARK>
 VINA RESULT:      -8.4      3.397      8.195
  Name = 
  7 active torsions:
  status: ('A' for Active; 'I' for Inactive)
    1  A    between atoms: C_1  and  C_9
    2  A    between atoms: C_3  and  C_25
    3  A    between atoms: O_6  and  C_28
    4  A    between atoms: O_6  and  C_30
    5  A    between atoms: C_7  and  C_11
    6  A    between atoms: C_8  and  C_9
    7  A    between atoms: C_8  and  C_30
                            x       y       z     vdW  Elec       q    Type
                         _______ _______ _______ _____ _____    ______ ____

>  <TORSDO>
F 7

$$$$
=
 OpenBabel10262423143D

 34 37  0  0  1  0  0  0  0  0999 V2000
  189.9740  177.3290  143.5700 C   0  0  2  0  0  3  0  0  0  0  0  0
  186.2930  177.6280  144.6050 N   0  0  0  0  0  2  0  0  0  0  0  0
  188.2520  177.3740  145.9680 C   0  0  0  0  0  2  0  0  0  0  0  0
  191.5230  176.1320  145.2680 C   0  0  0  0  0  0  0  0  0  0  0  0
  192.0070  176.3640  146.9650 S   0  0  0  0  0  0  0  0  0  0  0  0
  191.8030  174.9720  144.6870 C   0  0  0  0  0  2  0  0  0  0  0  0
  189.7530  177.5320  146.0480 C   0  0  2  0  0  3  0  0  0  0  0  0
  190.3480  176.8610  144.9120 N   0  0  0  0  0  0  0  0  0  0  0  0
  190.2930  176.8740  147.3090 C   0  0  0  0  0  2  0  0  0  0  0  0
  185.6020  178.6120  143.7880 C   0  0  0  0  0  2  0  0  0  0  0  0
  185.6740  178.1910  142.3290 C   0  0  2  0  0  3  0  0  0  0  0  0
  186.9750  178.6220  141.7230 C   0  0  0  0  0  3  0  0  0  0  0  0
  187.7130  177.9590  144.6630 C   0  0  1  0  0  3  0  0  0  0  0  0
  188.1760  178.2780  142.2020 C   0  0  0  0  0  3  0  0  0  0  0  0
  188.4410  177.4040  143.4050 C   0  0  1  0  0  3  0  0  0  0  0  0
  184.5300  178.7740  141.5580 C   0  0  0  0  0  0  0  0  0  0  0  0
  183.1420  178.6130  142.0720 C   0  0  0  0  0  1  0  0  0  0  0  0
  184.7220  179.3770  140.5140 O   0  0  0  0  0  0  0  0  0  0  0  0
  190.5930  176.5000  142.4420 C   0  0  0  0  0  2  0  0  0  0  0  0
  191.5100  177.3510  141.5730 C   0  0  0  0  0  2  0  0  0  0  0  0
  192.6010  177.1430  139.3570 C   0  0  0  0  0  1  0  0  0  0  0  0
  191.2800  177.0680  140.0970 C   0  0  2  0  0  3  0  0  0  0  0  0
  190.3770  178.0280  139.5540 O   0  0  0  0  0  0  0  0  0  0  0  0
  187.3140  178.6160  137.6180 N   0  0  0  0  0  2  0  0  0  0  0  0
  187.3130  176.4460  136.5330 C   0  0  0  0  0  0  0  0  0  0  0  0
  187.3010  177.9270  136.3380 C   0  0  0  0  0  2  0  0  0  0  0  0
  188.7010  178.8910  137.9790 C   0  0  1  0  0  3  0  0  0  0  0  0
  189.1480  176.4310  138.2990 C   0  0  0  0  0  3  0  0  0  0  0  0
  189.3990  177.7180  138.6010 C   0  0  0  0  0  0  0  0  0  0  0  0
  188.1600  175.8360  137.3720 C   0  0  0  0  0  3  0  0  0  0  0  0
  189.4300  179.4140  136.9220 F   0  0  0  0  0  0  0  0  0  0  0  0
  186.4080  175.6240  135.7080 C   0  0  0  0  0  0  0  0  0  0  0  0
  186.8190  174.3440  135.2330 N   0  0  0  0  0  1  0  0  0  0  0  0
  185.2590  176.0470  135.4140 O   0  0  0  0  0  0  0  0  0  0  0  0
  1 19  1  6  0  0  0
  1  8  1  0  0  0  0
  2 13  1  0  0  0  0
  4  5  1  0  0  0  0
  5  9  1  0  0  0  0
  6  4  2  0  0  0  0
  7  3  1  6  0  0  0
  7  9  1  0  0  0  0
  8  4  1  0  0  0  0
  8  7  1  0  0  0  0
 10  2  1  0  0  0  0
 11 16  1  6  0  0  0
 11 10  1  0  0  0  0
 12 14  2  0  0  0  0
 12 11  1  0  0  0  0
 13  3  1  1  0  0  0
 15 14  1  6  0  0  0
 15  1  1  0  0  0  0
 15 13  1  0  0  0  0
 16 17  1  0  0  0  0
 18 16  2  0  0  0  0
 20 19  1  0  0  0  0
 22 21  1  6  0  0  0
 22 20  1  0  0  0  0
 23 22  1  0  0  0  0
 24 27  1  0  0  0  0
 25 30  2  0  0  0  0
 26 25  1  0  0  0  0
 26 24  1  0  0  0  0
 27 31  1  6  0  0  0
 27 29  1  0  0  0  0
 28 29  2  0  0  0  0
 29 23  1  0  0  0  0
 30 28  1  0  0  0  0
 32 25  1  0  0  0  0
 33 32  1  0  0  0  0
 34 32  2  0  0  0  0
M  END
>  <MODEL>
6

>  <REMARK>
 VINA RESULT:      -8.3      3.852      7.477
  Name = 
  7 active torsions:
  status: ('A' for Active; 'I' for Inactive)
    1  A    between atoms: C_1  and  C_9
    2  A    between atoms: C_3  and  C_25
    3  A    between atoms: O_6  and  C_28
    4  A    between atoms: O_6  and  C_30
    5  A    between atoms: C_7  and  C_11
    6  A    between atoms: C_8  and  C_9
    7  A    between atoms: C_8  and  C_30
                            x       y       z     vdW  Elec       q    Type
                         _______ _______ _______ _____ _____    ______ ____

>  <TORSDO>
F 7

$$$$
=
 OpenBabel10262423143D

 34 37  0  0  1  0  0  0  0  0999 V2000
  188.2710  177.8700  142.8180 C   0  0  2  0  0  3  0  0  0  0  0  0
  185.1490  177.8130  145.0440 N   0  0  0  0  0  2  0  0  0  0  0  0
  187.4660  177.6680  145.6520 C   0  0  0  0  0  2  0  0  0  0  0  0
  190.3790  176.7370  143.8140 C   0  0  0  0  0  0  0  0  0  0  0  0
  191.3930  176.9380  145.2620 S   0  0  0  0  0  0  0  0  0  0  0  0
  190.5210  175.6310  143.0940 C   0  0  0  0  0  2  0  0  0  0  0  0
  188.8910  177.9490  145.2350 C   0  0  2  0  0  3  0  0  0  0  0  0
  189.1080  177.3790  143.9220 N   0  0  0  0  0  0  0  0  0  0  0  0
  189.8690  177.2860  146.1940 C   0  0  0  0  0  2  0  0  0  0  0  0
  184.1580  178.7680  144.5750 C   0  0  0  0  0  2  0  0  0  0  0  0
  183.7580  178.4160  143.1510 C   0  0  2  0  0  3  0  0  0  0  0  0
  184.7450  178.9810  142.1750 C   0  0  0  0  0  3  0  0  0  0  0  0
  186.4790  178.2600  144.6450 C   0  0  1  0  0  3  0  0  0  0  0  0
  186.0580  178.7200  142.1990 C   0  0  0  0  0  3  0  0  0  0  0  0
  186.7720  177.8220  143.1820 C   0  0  1  0  0  3  0  0  0  0  0  0
  182.3860  178.9320  142.8490 C   0  0  0  0  0  0  0  0  0  0  0  0
  181.8050  178.7230  141.4930 C   0  0  0  0  0  1  0  0  0  0  0  0
  181.7370  179.5230  143.7000 O   0  0  0  0  0  0  0  0  0  0  0  0
  188.5230  177.1430  141.4950 C   0  0  0  0  0  2  0  0  0  0  0  0
  188.9570  178.1180  140.4060 C   0  0  0  0  0  2  0  0  0  0  0  0
  189.9150  177.4990  138.2060 C   0  0  0  0  0  1  0  0  0  0  0  0
  188.6410  177.5690  139.0240 C   0  0  2  0  0  3  0  0  0  0  0  0
  187.7020  178.4170  138.3690 O   0  0  0  0  0  0  0  0  0  0  0  0
  185.1670  177.1540  136.0330 N   0  0  0  0  0  2  0  0  0  0  0  0
  183.3000  177.4200  137.5600 C   0  0  0  0  0  0  0  0  0  0  0  0
  184.0640  176.4740  136.6930 C   0  0  0  0  0  2  0  0  0  0  0  0
  186.3580  177.0140  136.8640 C   0  0  1  0  0  3  0  0  0  0  0  0
  185.3430  178.4940  138.6360 C   0  0  0  0  0  3  0  0  0  0  0  0
  186.4180  178.0040  137.9900 C   0  0  0  0  0  0  0  0  0  0  0  0
  183.9000  178.2560  138.4170 C   0  0  0  0  0  3  0  0  0  0  0  0
  186.5390  175.7160  137.3190 F   0  0  0  0  0  0  0  0  0  0  0  0
  181.8270  177.3690  137.5240 C   0  0  0  0  0  0  0  0  0  0  0  0
  181.1490  176.1670  137.1670 N   0  0  0  0  0  1  0  0  0  0  0  0
  181.1500  178.3920  137.8100 O   0  0  0  0  0  0  0  0  0  0  0  0
  1 19  1  6  0  0  0
  1 15  1  0  0  0  0
  1  8  1  0  0  0  0
  4  8  1  0  0  0  0
  4  5  1  0  0  0  0
  5  9  1  0  0  0  0
  6  4  2  0  0  0  0
  7  3  1  1  0  0  0
  7  9  1  0  0  0  0
  8  7  1  0  0  0  0
 10  2  1  0  0  0  0
 11 16  1  6  0  0  0
 11 10  1  0  0  0  0
 12 14  2  0  0  0  0
 12 11  1  0  0  0  0
 13  2  1  0  0  0  0
 13  3  1  1  0  0  0
 15 14  1  6  0  0  0
 15 13  1  0  0  0  0
 16 18  2  0  0  0  0
 17 16  1  0  0  0  0
 20 19  1  0  0  0  0
 22 21  1  6  0  0  0
 22 20  1  0  0  0  0
 23 22  1  0  0  0  0
 24 26  1  0  0  0  0
 24 27  1  0  0  0  0
 25 30  2  0  0  0  0
 26 25  1  0  0  0  0
 27 31  1  1  0  0  0
 27 29  1  0  0  0  0
 29 23  1  0  0  0  0
 29 28  2  0  0  0  0
 30 28  1  0  0  0  0
 32 25  1  0  0  0  0
 32 34  2  0  0  0  0
 33 32  1  0  0  0  0
M  END
>  <MODEL>
7

>  <REMARK>
 VINA RESULT:      -8.0      3.878      7.746
  Name = 
  7 active torsions:
  status: ('A' for Active; 'I' for Inactive)
    1  A    between atoms: C_1  and  C_9
    2  A    between atoms: C_3  and  C_25
    3  A    between atoms: O_6  and  C_28
    4  A    between atoms: O_6  and  C_30
    5  A    between atoms: C_7  and  C_11
    6  A    between atoms: C_8  and  C_9
    7  A    between atoms: C_8  and  C_30
                            x       y       z     vdW  Elec       q    Type
                         _______ _______ _______ _____ _____    ______ ____

>  <TORSDO>
F 7

$$$$
=
 OpenBabel10262423143D

 34 37  0  0  1  0  0  0  0  0999 V2000
  190.1270  176.5980  139.3830 C   0  0  2  0  0  3  0  0  0  0  0  0
  187.0300  177.5000  137.3080 N   0  0  0  0  0  2  0  0  0  0  0  0
  188.8110  175.9690  136.8150 C   0  0  0  0  0  2  0  0  0  0  0  0
  192.1500  175.6920  138.0410 C   0  0  0  0  0  0  0  0  0  0  0  0
  192.4700  174.3250  136.9480 S   0  0  0  0  0  0  0  0  0  0  0  0
  193.0400  176.6750  138.0960 C   0  0  0  0  0  2  0  0  0  0  0  0
  189.9280  175.1210  137.3800 C   0  0  2  0  0  3  0  0  0  0  0  0
  190.7590  175.9560  138.2220 N   0  0  0  0  0  0  0  0  0  0  0  0
  190.8030  174.5770  136.2610 C   0  0  0  0  0  2  0  0  0  0  0  0
  185.8580  177.6390  138.1570 C   0  0  0  0  0  2  0  0  0  0  0  0
  186.1070  178.7370  139.1790 C   0  0  2  0  0  3  0  0  0  0  0  0
  186.8740  178.1990  140.3490 C   0  0  0  0  0  3  0  0  0  0  0  0
  187.9780  176.5870  137.9380 C   0  0  1  0  0  3  0  0  0  0  0  0
  188.0630  177.5930  140.2520 C   0  0  0  0  0  3  0  0  0  0  0  0
  188.8430  177.3540  138.9800 C   0  0  1  0  0  3  0  0  0  0  0  0
  184.8110  179.3260  139.6420 C   0  0  0  0  0  0  0  0  0  0  0  0
  184.1670  178.8000  140.8780 C   0  0  0  0  0  1  0  0  0  0  0  0
  184.2750  180.2290  139.0190 O   0  0  0  0  0  0  0  0  0  0  0  0
  191.0710  177.5230  140.1550 C   0  0  0  0  0  2  0  0  0  0  0  0
  191.3390  176.9890  141.5570 C   0  0  0  0  0  2  0  0  0  0  0  0
  191.4490  178.5860  143.4490 C   0  0  0  0  0  1  0  0  0  0  0  0
  190.5230  177.7440  142.5940 C   0  0  2  0  0  3  0  0  0  0  0  0
  189.8190  176.8230  143.4220 O   0  0  0  0  0  0  0  0  0  0  0  0
  188.0180  176.8470  146.6210 N   0  0  0  0  0  2  0  0  0  0  0  0
  186.1230  178.1230  145.8030 C   0  0  0  0  0  0  0  0  0  0  0  0
  187.2140  178.0420  146.8210 C   0  0  0  0  0  2  0  0  0  0  0  0
  189.1430  177.1870  145.7560 C   0  0  1  0  0  3  0  0  0  0  0  0
  187.5870  177.5380  143.8040 C   0  0  0  0  0  3  0  0  0  0  0  0
  188.7920  177.1970  144.2980 C   0  0  0  0  0  0  0  0  0  0  0  0
  186.3400  177.9310  144.4960 C   0  0  0  0  0  3  0  0  0  0  0  0
  189.7670  178.3660  146.1370 F   0  0  0  0  0  0  0  0  0  0  0  0
  184.7730  178.5090  146.2550 C   0  0  0  0  0  0  0  0  0  0  0  0
  183.8160  179.0210  145.3310 N   0  0  0  0  0  1  0  0  0  0  0  0
  184.4510  178.3870  147.4670 O   0  0  0  0  0  0  0  0  0  0  0  0
  1 19  1  6  0  0  0
  2 13  1  0  0  0  0
  2 10  1  0  0  0  0
  3  7  1  0  0  0  0
  4  6  2  0  0  0  0
  4  8  1  0  0  0  0
  5  4  1  0  0  0  0
  7  9  1  6  0  0  0
  7  8  1  0  0  0  0
  8  1  1  0  0  0  0
  9  5  1  0  0  0  0
 10 11  1  0  0  0  0
 11 16  1  1  0  0  0
 11 12  1  0  0  0  0
 13  3  1  6  0  0  0
 13 15  1  0  0  0  0
 14 12  2  0  0  0  0
 15  1  1  0  0  0  0
 15 14  1  1  0  0  0
 16 17  1  0  0  0  0
 18 16  2  0  0  0  0
 19 20  1  0  0  0  0
 20 22  1  0  0  0  0
 22 23  1  0  0  0  0
 22 21  1  1  0  0  0
 23 29  1  0  0  0  0
 24 26  1  0  0  0  0
 25 32  1  0  0  0  0
 25 26  1  0  0  0  0
 27 31  1  1  0  0  0
 27 24  1  0  0  0  0
 28 29  2  0  0  0  0
 28 30  1  0  0  0  0
 29 27  1  0  0  0  0
 30 25  2  0  0  0  0
 32 34  2  0  0  0  0
 33 32  1  0  0  0  0
M  END
>  <MODEL>
8

>  <REMARK>
 VINA RESULT:      -8.0      3.562      7.117
  Name = 
  7 active torsions:
  status: ('A' for Active; 'I' for Inactive)
    1  A    between atoms: C_1  and  C_9
    2  A    between atoms: C_3  and  C_25
    3  A    between atoms: O_6  and  C_28
    4  A    between atoms: O_6  and  C_30
    5  A    between atoms: C_7  and  C_11
    6  A    between atoms: C_8  and  C_9
    7  A    between atoms: C_8  and  C_30
                            x       y       z     vdW  Elec       q    Type
                         _______ _______ _______ _____ _____    ______ ____

>  <TORSDO>
F 7

$$$$
=
 OpenBabel10262423143D

 34 37  0  0  1  0  0  0  0  0999 V2000
  185.1140  178.8990  141.1770 C   0  0  2  0  0  3  0  0  0  0  0  0
  187.2000  177.6650  138.2050 N   0  0  0  0  0  2  0  0  0  0  0  0
  185.0260  178.6800  138.2340 C   0  0  0  0  0  2  0  0  0  0  0  0
  182.5540  178.9950  140.7870 C   0  0  0  0  0  0  0  0  0  0  0  0
  181.4470  179.8090  139.6570 S   0  0  0  0  0  0  0  0  0  0  0  0
  182.0770  178.0040  141.5310 C   0  0  0  0  0  2  0  0  0  0  0  0
  184.0530  179.5380  139.0090 C   0  0  2  0  0  3  0  0  0  0  0  0
  183.9090  178.9840  140.3390 N   0  0  0  0  0  0  0  0  0  0  0  0
  182.6810  179.5190  138.3510 C   0  0  0  0  0  2  0  0  0  0  0  0
  188.6050  177.9920  138.3850 C   0  0  0  0  0  2  0  0  0  0  0  0
  189.1140  177.3310  139.6560 C   0  0  2  0  0  3  0  0  0  0  0  0
  188.7800  178.1700  140.8520 C   0  0  0  0  0  3  0  0  0  0  0  0
  186.3820  178.6270  138.9370 C   0  0  1  0  0  3  0  0  0  0  0  0
  187.5390  178.5510  141.1790 C   0  0  0  0  0  3  0  0  0  0  0  0
  186.2730  178.2070  140.4300 C   0  0  1  0  0  3  0  0  0  0  0  0
  190.5940  177.1150  139.5780 C   0  0  0  0  0  0  0  0  0  0  0  0
  191.4530  177.5050  140.7310 C   0  0  0  0  0  1  0  0  0  0  0  0
  191.1040  176.6250  138.5820 O   0  0  0  0  0  0  0  0  0  0  0  0
  184.8690  178.2230  142.5280 C   0  0  0  0  0  2  0  0  0  0  0  0
  185.0480  179.2090  143.6770 C   0  0  0  0  0  2  0  0  0  0  0  0
  183.5360  178.7870  145.5940 C   0  0  0  0  0  1  0  0  0  0  0  0
  184.9110  178.5110  145.0210 C   0  0  2  0  0  3  0  0  0  0  0  0
  185.9060  178.9930  145.9200 O   0  0  0  0  0  0  0  0  0  0  0  0
  189.0260  178.2510  147.7070 N   0  0  0  0  0  2  0  0  0  0  0  0
  190.0140  176.9570  145.9080 C   0  0  0  0  0  0  0  0  0  0  0  0
  189.6060  176.9680  147.3450 C   0  0  0  0  0  2  0  0  0  0  0  0
  187.5810  178.1730  147.5200 C   0  0  1  0  0  3  0  0  0  0  0  0
  187.8730  178.0120  145.0210 C   0  0  0  0  0  3  0  0  0  0  0  0
  187.1520  178.3780  146.0970 C   0  0  0  0  0  0  0  0  0  0  0  0
  189.2110  177.3890  144.9270 C   0  0  0  0  0  3  0  0  0  0  0  0
  187.0390  177.0120  148.0510 F   0  0  0  0  0  0  0  0  0  0  0  0
  191.3220  176.3730  145.5560 C   0  0  0  0  0  0  0  0  0  0  0  0
  191.6780  176.1540  144.1930 N   0  0  0  0  0  1  0  0  0  0  0  0
  192.1400  176.0600  146.4610 O   0  0  0  0  0  0  0  0  0  0  0  0
  1 19  1  1  0  0  0
  2 10  1  0  0  0  0
  2 13  1  0  0  0  0
  4  6  2  0  0  0  0
  5  4  1  0  0  0  0
  7  3  1  6  0  0  0
  7  8  1  0  0  0  0
  8  4  1  0  0  0  0
  8  1  1  0  0  0  0
  9  7  1  0  0  0  0
  9  5  1  0  0  0  0
 10 11  1  0  0  0  0
 11 16  1  6  0  0  0
 11 12  1  0  0  0  0
 12 14  2  0  0  0  0
 13  3  1  6  0  0  0
 13 15  1  0  0  0  0
 15  1  1  0  0  0  0
 15 14  1  1  0  0  0
 16 17  1  0  0  0  0
 18 16  2  0  0  0  0
 19 20  1  0  0  0  0
 20 22  1  0  0  0  0
 22 21  1  1  0  0  0
 22 23  1  0  0  0  0
 23 29  1  0  0  0  0
 25 26  1  0  0  0  0
 26 24  1  0  0  0  0
 27 24  1  0  0  0  0
 27 31  1  6  0  0  0
 28 29  2  0  0  0  0
 29 27  1  0  0  0  0
 30 28  1  0  0  0  0
 30 25  2  0  0  0  0
 32 25  1  0  0  0  0
 32 34  2  0  0  0  0
 33 32  1  0  0  0  0
M  END
>  <MODEL>
9

>  <REMARK>
 VINA RESULT:      -8.0      2.029      5.207
  Name = 
  7 active torsions:
  status: ('A' for Active; 'I' for Inactive)
    1  A    between atoms: C_1  and  C_9
    2  A    between atoms: C_3  and  C_25
    3  A    between atoms: O_6  and  C_28
    4  A    between atoms: O_6  and  C_30
    5  A    between atoms: C_7  and  C_11
    6  A    between atoms: C_8  and  C_9
    7  A    between atoms: C_8  and  C_30
                            x       y       z     vdW  Elec       q    Type
                         _______ _______ _______ _____ _____    ______ ____

>  <TORSDO>
F 7

$$$$
