=
 OpenBabel10262421073D

 32 37  0  0  1  0  0  0  0  0999 V2000
  191.2790  177.5150  140.2280 C   0  0  2  0  0  3  0  0  0  0  0  0
  189.8560  177.2340  138.2000 C   0  0  1  0  0  3  0  0  0  0  0  0
  192.6330  177.5110  140.8860 C   0  0  0  0  0  2  0  0  0  0  0  0
  191.1880  177.3080  138.8940 C   0  0  2  0  0  3  0  0  0  0  0  0
  189.5610  175.7600  137.8880 C   0  0  1  0  0  3  0  0  0  0  0  0
  185.0150  178.1170  138.2970 C   0  0  0  0  0  3  0  0  0  0  0  0
  188.7300  177.8670  139.0390 C   0  0  2  0  0  3  0  0  0  0  0  0
  185.9010  176.2280  137.0680 C   0  0  0  0  0  3  0  0  0  0  0  0
  187.1720  176.4770  137.5940 C   0  0  0  0  0  0  0  0  0  0  0  0
  192.3430  176.7380  138.0990 C   0  0  2  0  0  3  0  0  0  0  0  0
  188.2740  175.6500  137.2090 N   0  0  0  0  0  2  0  0  0  0  0  0
  192.0440  175.2770  137.7480 C   0  0  0  0  0  2  0  0  0  0  0  0
  193.6450  176.8780  138.7650 N   0  0  0  0  0  2  0  0  0  0  0  0
  188.8130  177.4000  140.4190 N   0  0  0  0  0  2  0  0  0  0  0  0
  190.0460  177.9210  141.0200 C   0  0  1  0  0  3  0  0  0  0  0  0
  187.3710  177.5680  138.4680 C   0  0  0  0  0  0  0  0  0  0  0  0
  190.6860  175.1480  137.0370 C   0  0  1  0  0  3  0  0  0  0  0  0
  193.5480  176.5210  140.1800 C   0  0  0  0  0  2  0  0  0  0  0  0
  184.8230  177.0450  137.4210 C   0  0  0  0  0  3  0  0  0  0  0  0
  186.2840  178.3780  138.8190 C   0  0  0  0  0  3  0  0  0  0  0  0
  188.7390  177.8840  144.6630 C   0  0  1  0  0  3  0  0  0  0  0  0
  191.9980  176.3210  146.4440 Cl  0  0  0  0  0  0  0  0  0  0  0  0
  187.3510  177.8220  145.2790 C   0  0  0  0  0  1  0  0  0  0  0  0
  191.5820  178.1970  144.4340 C   0  0  0  0  0  3  0  0  0  0  0  0
  190.1280  177.5320  142.5010 C   0  0  1  0  0  3  0  0  0  0  0  0
  189.6780  177.0810  145.4420 N   0  0  0  0  0  0  0  0  0  0  0  0
  191.1700  178.3850  143.1780 C   0  0  0  0  0  3  0  0  0  0  0  0
  188.7370  177.4840  143.1800 C   0  0  1  0  0  3  0  0  0  0  0  0
  188.1180  176.1070  142.9760 C   0  0  0  0  0  1  0  0  0  0  0  0
  190.9660  177.2210  145.3550 C   0  0  0  0  0  0  0  0  0  0  0  0
  190.4090  173.7430  136.7840 N   0  0  0  0  0  2  0  0  0  0  0  0
  191.5840  173.1840  136.1400 C   0  0  0  0  0  1  0  0  0  0  0  0
  1  3  1  6  0  0  0
  1 15  1  0  0  0  0
  2  4  1  0  0  0  0
  2  7  1  0  0  0  0
  4  1  1  0  0  0  0
  5  2  1  0  0  0  0
  6 20  1  0  0  0  0
  7 14  1  0  0  0  0
  8 19  1  0  0  0  0
  8  9  2  0  0  0  0
  9 16  1  0  0  0  0
 10 13  1  0  0  0  0
 10  4  1  0  0  0  0
 11  9  1  0  0  0  0
 11  5  1  0  0  0  0
 12 10  1  0  0  0  0
 13 18  1  0  0  0  0
 14 15  1  0  0  0  0
 15 25  1  0  0  0  0
 16 20  2  0  0  0  0
 16  7  1  0  0  0  0
 17 12  1  0  0  0  0
 17  5  1  0  0  0  0
 18  3  1  0  0  0  0
 19  6  2  0  0  0  0
 21 23  1  0  0  0  0
 21 26  1  0  0  0  0
 24 30  1  0  0  0  0
 25 27  1  0  0  0  0
 25 28  1  0  0  0  0
 27 24  2  0  0  0  0
 28 21  1  0  0  0  0
 29 28  1  0  0  0  0
 30 26  2  0  0  0  0
 30 22  1  0  0  0  0
 31 17  1  0  0  0  0
 32 31  1  0  0  0  0
M  END
>  <MODEL>
1

>  <REMARK>
 VINA RESULT:      -8.4      0.000      0.000
  Name = 
  2 active torsions:
  status: ('A' for Active; 'I' for Inactive)
    1  A    between atoms: N_13  and  C_29
    2  A    between atoms: C_16  and  C_27
                            x       y       z     vdW  Elec       q    Type
                         _______ _______ _______ _____ _____    ______ ____

>  <TORSDO>
F 2

$$$$
=
 OpenBabel10262421073D

 32 37  0  0  1  0  0  0  0  0999 V2000
  186.8990  178.5280  140.3160 C   0  0  2  0  0  3  0  0  0  0  0  0
  184.4460  178.6880  139.9020 C   0  0  1  0  0  3  0  0  0  0  0  0
  188.3100  178.4480  139.7980 C   0  0  0  0  0  2  0  0  0  0  0  0
  185.8770  178.6710  139.4410 C   0  0  2  0  0  3  0  0  0  0  0  0
  183.8170  177.3300  139.5590 C   0  0  1  0  0  3  0  0  0  0  0  0
  181.2270  179.1740  143.5940 C   0  0  0  0  0  3  0  0  0  0  0  0
  184.3250  179.0000  141.4050 C   0  0  2  0  0  3  0  0  0  0  0  0
  180.7340  177.7390  141.7060 C   0  0  0  0  0  3  0  0  0  0  0  0
  182.0300  177.9300  141.2180 C   0  0  0  0  0  0  0  0  0  0  0  0
  186.0580  178.4110  137.9610 C   0  0  2  0  0  3  0  0  0  0  0  0
  182.4230  177.3120  139.9890 N   0  0  0  0  0  2  0  0  0  0  0  0
  185.4020  177.0760  137.5970 C   0  0  0  0  0  2  0  0  0  0  0  0
  187.4590  178.4630  137.5180 N   0  0  0  0  0  2  0  0  0  0  0  0
  185.2800  178.1950  142.1600 N   0  0  0  0  0  2  0  0  0  0  0  0
  186.6390  178.6260  141.8110 C   0  0  1  0  0  3  0  0  0  0  0  0
  182.9280  178.7660  141.9150 C   0  0  0  0  0  0  0  0  0  0  0  0
  183.9330  177.0420  138.0520 C   0  0  1  0  0  3  0  0  0  0  0  0
  188.3260  177.7430  138.4500 C   0  0  0  0  0  2  0  0  0  0  0  0
  180.3340  178.3570  142.8930 C   0  0  0  0  0  3  0  0  0  0  0  0
  182.5200  179.3780  143.1060 C   0  0  0  0  0  3  0  0  0  0  0  0
  188.5470  177.8780  145.0960 C   0  0  1  0  0  3  0  0  0  0  0  0
  191.3760  175.4360  143.5920 Cl  0  0  0  0  0  0  0  0  0  0  0  0
  188.1490  177.8780  146.5620 C   0  0  0  0  0  1  0  0  0  0  0  0
  190.1810  177.7970  142.7390 C   0  0  0  0  0  3  0  0  0  0  0  0
  187.6750  177.8700  142.6530 C   0  0  1  0  0  3  0  0  0  0  0  0
  189.4560  176.7710  144.8150 N   0  0  0  0  0  0  0  0  0  0  0  0
  189.0550  178.3550  142.2880 C   0  0  0  0  0  3  0  0  0  0  0  0
  187.3260  177.8680  144.1620 C   0  0  1  0  0  3  0  0  0  0  0  0
  186.4010  176.6980  144.4690 C   0  0  0  0  0  1  0  0  0  0  0  0
  190.2090  176.7280  143.7560 C   0  0  0  0  0  0  0  0  0  0  0  0
  183.3670  175.7360  137.7520 N   0  0  0  0  0  2  0  0  0  0  0  0
  184.4490  174.9080  137.2490 C   0  0  0  0  0  1  0  0  0  0  0  0
  1  3  1  6  0  0  0
  1 15  1  0  0  0  0
  2  7  1  0  0  0  0
  4  2  1  0  0  0  0
  4  1  1  0  0  0  0
  5  2  1  0  0  0  0
  5 11  1  0  0  0  0
  7 16  1  0  0  0  0
  7 14  1  0  0  0  0
  8 19  1  0  0  0  0
  9  8  2  0  0  0  0
  9 16  1  0  0  0  0
 10  4  1  0  0  0  0
 11  9  1  0  0  0  0
 12 10  1  0  0  0  0
 12 17  1  0  0  0  0
 13 10  1  0  0  0  0
 13 18  1  0  0  0  0
 15 14  1  0  0  0  0
 15 25  1  0  0  0  0
 16 20  2  0  0  0  0
 17  5  1  0  0  0  0
 18  3  1  0  0  0  0
 19  6  2  0  0  0  0
 20  6  1  0  0  0  0
 21 23  1  0  0  0  0
 22 30  1  0  0  0  0
 24 30  1  0  0  0  0
 25 28  1  0  0  0  0
 26 21  1  0  0  0  0
 27 25  1  0  0  0  0
 27 24  2  0  0  0  0
 28 29  1  0  0  0  0
 28 21  1  0  0  0  0
 30 26  2  0  0  0  0
 31 17  1  0  0  0  0
 32 31  1  0  0  0  0
M  END
>  <MODEL>
2

>  <REMARK>
 VINA RESULT:      -7.3      3.211      5.191
  Name = 
  2 active torsions:
  status: ('A' for Active; 'I' for Inactive)
    1  A    between atoms: N_13  and  C_29
    2  A    between atoms: C_16  and  C_27
                            x       y       z     vdW  Elec       q    Type
                         _______ _______ _______ _____ _____    ______ ____

>  <TORSDO>
F 2

$$$$
=
 OpenBabel10262421073D

 32 37  0  0  1  0  0  0  0  0999 V2000
  190.0740  177.3390  139.1210 C   0  0  2  0  0  3  0  0  0  0  0  0
  188.0960  177.5570  137.6200 C   0  0  1  0  0  3  0  0  0  0  0  0
  191.5340  177.0290  139.3240 C   0  0  0  0  0  2  0  0  0  0  0  0
  189.5600  177.3230  137.8700 C   0  0  2  0  0  3  0  0  0  0  0  0
  187.4410  176.2030  137.3080 C   0  0  1  0  0  3  0  0  0  0  0  0
  183.7630  179.2000  139.2770 C   0  0  0  0  0  3  0  0  0  0  0  0
  187.4100  178.2530  138.8100 C   0  0  2  0  0  3  0  0  0  0  0  0
  183.8660  177.3650  137.7000 C   0  0  0  0  0  3  0  0  0  0  0  0
  185.2580  177.3330  137.8230 C   0  0  0  0  0  0  0  0  0  0  0  0
  190.2990  176.6780  136.7170 C   0  0  2  0  0  3  0  0  0  0  0  0
  186.0170  176.3930  137.0560 N   0  0  0  0  0  2  0  0  0  0  0  0
  189.6330  175.3430  136.3710 C   0  0  0  0  0  2  0  0  0  0  0  0
  191.7410  176.5160  136.9550 N   0  0  0  0  0  2  0  0  0  0  0  0
  187.7980  177.6050  140.0590 N   0  0  0  0  0  2  0  0  0  0  0  0
  189.2300  177.8370  140.2830 C   0  0  1  0  0  3  0  0  0  0  0  0
  185.9120  178.2550  138.6680 C   0  0  0  0  0  0  0  0  0  0  0  0
  188.1290  175.5300  136.1080 C   0  0  1  0  0  3  0  0  0  0  0  0
  191.9920  176.0020  138.3000 C   0  0  0  0  0  2  0  0  0  0  0  0
  183.1190  178.2950  138.4280 C   0  0  0  0  0  3  0  0  0  0  0  0
  185.1550  179.1810  139.3970 C   0  0  0  0  0  3  0  0  0  0  0  0
  189.4220  177.8370  144.1500 C   0  0  1  0  0  3  0  0  0  0  0  0
  192.1190  174.8790  144.6080 Cl  0  0  0  0  0  0  0  0  0  0  0  0
  188.4570  178.2530  145.2470 C   0  0  0  0  0  1  0  0  0  0  0  0
  191.8440  177.0150  142.8500 C   0  0  0  0  0  3  0  0  0  0  0  0
  189.6630  177.2530  141.6340 C   0  0  1  0  0  3  0  0  0  0  0  0
  190.1450  176.6290  144.5380 N   0  0  0  0  0  0  0  0  0  0  0  0
  191.1320  177.5180  141.8390 C   0  0  0  0  0  3  0  0  0  0  0  0
  188.7230  177.6730  142.7910 C   0  0  1  0  0  3  0  0  0  0  0  0
  187.5560  176.7000  142.8800 C   0  0  0  0  0  1  0  0  0  0  0  0
  191.2480  176.2530  143.9640 C   0  0  0  0  0  0  0  0  0  0  0  0
  187.5210  174.2330  135.8530 N   0  0  0  0  0  2  0  0  0  0  0  0
  188.0590  173.3080  136.8350 C   0  0  0  0  0  1  0  0  0  0  0  0
  1  3  1  6  0  0  0
  1 15  1  0  0  0  0
  2  4  1  0  0  0  0
  2  7  1  0  0  0  0
  4  1  1  0  0  0  0
  5  2  1  0  0  0  0
  6 20  1  0  0  0  0
  7 14  1  0  0  0  0
  8  9  2  0  0  0  0
  8 19  1  0  0  0  0
  9 16  1  0  0  0  0
 10 13  1  0  0  0  0
 10  4  1  0  0  0  0
 11  5  1  0  0  0  0
 11  9  1  0  0  0  0
 12 10  1  0  0  0  0
 13 18  1  0  0  0  0
 14 15  1  0  0  0  0
 15 25  1  0  0  0  0
 16  7  1  0  0  0  0
 16 20  2  0  0  0  0
 17 12  1  0  0  0  0
 17  5  1  0  0  0  0
 18  3  1  0  0  0  0
 19  6  2  0  0  0  0
 21 26  1  0  0  0  0
 21 23  1  0  0  0  0
 24 30  1  0  0  0  0
 25 27  1  0  0  0  0
 25 28  1  0  0  0  0
 27 24  2  0  0  0  0
 28 29  1  0  0  0  0
 28 21  1  0  0  0  0
 30 26  2  0  0  0  0
 30 22  1  0  0  0  0
 31 17  1  0  0  0  0
 31 32  1  0  0  0  0
M  END
>  <MODEL>
3

>  <REMARK>
 VINA RESULT:      -7.1      1.514      2.019
  Name = 
  2 active torsions:
  status: ('A' for Active; 'I' for Inactive)
    1  A    between atoms: N_13  and  C_29
    2  A    between atoms: C_16  and  C_27
                            x       y       z     vdW  Elec       q    Type
                         _______ _______ _______ _____ _____    ______ ____

>  <TORSDO>
F 2

$$$$
=
 OpenBabel10262421073D

 32 37  0  0  1  0  0  0  0  0999 V2000
  183.9370  178.9970  141.2990 C   0  0  2  0  0  3  0  0  0  0  0  0
  186.4000  178.9820  141.6870 C   0  0  1  0  0  3  0  0  0  0  0  0
  182.5380  179.2510  141.7920 C   0  0  0  0  0  2  0  0  0  0  0  0
  184.9870  179.2800  142.1050 C   0  0  2  0  0  3  0  0  0  0  0  0
  186.8690  177.7300  142.4430 C   0  0  1  0  0  3  0  0  0  0  0  0
  189.5780  177.9170  138.0830 C   0  0  0  0  0  3  0  0  0  0  0  0
  186.5260  178.7980  140.1640 C   0  0  2  0  0  3  0  0  0  0  0  0
  189.9340  177.0850  140.3290 C   0  0  0  0  0  3  0  0  0  0  0  0
  188.6810  177.5710  140.7120 C   0  0  0  0  0  0  0  0  0  0  0  0
  184.8060  179.5120  143.5900 C   0  0  2  0  0  3  0  0  0  0  0  0
  188.2420  177.4130  142.0640 N   0  0  0  0  0  2  0  0  0  0  0  0
  185.3050  178.2840  144.3590 C   0  0  0  0  0  2  0  0  0  0  0  0
  183.4310  179.8650  143.9710 N   0  0  0  0  0  2  0  0  0  0  0  0
  185.4670  177.9210  139.6760 N   0  0  0  0  0  2  0  0  0  0  0  0
  184.1770  178.5980  139.8510 C   0  0  1  0  0  3  0  0  0  0  0  0
  187.8740  178.2530  139.7760 C   0  0  0  0  0  0  0  0  0  0  0  0
  186.7500  177.9360  143.9630 C   0  0  1  0  0  3  0  0  0  0  0  0
  182.4650  179.0030  143.2920 C   0  0  0  0  0  2  0  0  0  0  0  0
  190.3810  177.2550  139.0160 C   0  0  0  0  0  3  0  0  0  0  0  0
  188.3290  178.4150  138.4620 C   0  0  0  0  0  3  0  0  0  0  0  0
  180.4550  177.8520  139.0930 C   0  0  1  0  0  3  0  0  0  0  0  0
  180.8680  174.0680  137.7740 Cl  0  0  0  0  0  0  0  0  0  0  0  0
  179.2620  178.7240  138.7430 C   0  0  0  0  0  1  0  0  0  0  0  0
  181.9900  175.5470  139.8440 C   0  0  0  0  0  3  0  0  0  0  0  0
  183.0410  177.7500  139.2660 C   0  0  1  0  0  3  0  0  0  0  0  0
  180.4190  176.6080  138.3290 N   0  0  0  0  0  0  0  0  0  0  0  0
  182.8130  176.5530  140.1520 C   0  0  0  0  0  3  0  0  0  0  0  0
  181.7900  178.5940  138.9180 C   0  0  1  0  0  3  0  0  0  0  0  0
  181.9310  179.1590  137.5120 C   0  0  0  0  0  1  0  0  0  0  0  0
  181.1010  175.5550  138.6660 C   0  0  0  0  0  0  0  0  0  0  0  0
  187.1610  176.7290  144.6610 N   0  0  0  0  0  2  0  0  0  0  0  0
  188.1120  177.1280  145.6840 C   0  0  0  0  0  1  0  0  0  0  0  0
  1  3  1  6  0  0  0
  1  4  1  0  0  0  0
  2  4  1  0  0  0  0
  2  5  1  0  0  0  0
  3 18  1  0  0  0  0
  4 10  1  0  0  0  0
  5 17  1  0  0  0  0
  6 20  2  0  0  0  0
  6 19  1  0  0  0  0
  7  2  1  0  0  0  0
  8  9  1  0  0  0  0
  9 11  1  0  0  0  0
 10 13  1  0  0  0  0
 10 12  1  0  0  0  0
 11  5  1  0  0  0  0
 14 15  1  0  0  0  0
 14  7  1  0  0  0  0
 15  1  1  0  0  0  0
 16  7  1  0  0  0  0
 16  9  2  0  0  0  0
 17 12  1  0  0  0  0
 17 31  1  0  0  0  0
 18 13  1  0  0  0  0
 19  8  2  0  0  0  0
 20 16  1  0  0  0  0
 22 30  1  0  0  0  0
 23 21  1  0  0  0  0
 24 27  2  0  0  0  0
 25 15  1  0  0  0  0
 25 27  1  0  0  0  0
 26 30  2  0  0  0  0
 26 21  1  0  0  0  0
 28 21  1  0  0  0  0
 28 25  1  0  0  0  0
 29 28  1  0  0  0  0
 30 24  1  0  0  0  0
 31 32  1  0  0  0  0
M  END
>  <MODEL>
4

>  <REMARK>
 VINA RESULT:      -7.1      4.269      8.486
  Name = 
  2 active torsions:
  status: ('A' for Active; 'I' for Inactive)
    1  A    between atoms: N_13  and  C_29
    2  A    between atoms: C_16  and  C_27
                            x       y       z     vdW  Elec       q    Type
                         _______ _______ _______ _____ _____    ______ ____

>  <TORSDO>
F 2

$$$$
=
 OpenBabel10262421073D

 32 37  0  0  1  0  0  0  0  0999 V2000
  183.8070  178.7630  142.0650 C   0  0  2  0  0  3  0  0  0  0  0  0
  186.2910  178.9390  141.9450 C   0  0  1  0  0  3  0  0  0  0  0  0
  182.5220  178.9040  142.8360 C   0  0  0  0  0  2  0  0  0  0  0  0
  184.9740  179.1240  142.6470 C   0  0  2  0  0  3  0  0  0  0  0  0
  186.9980  177.7260  142.5670 C   0  0  1  0  0  3  0  0  0  0  0  0
  188.7410  178.1390  137.7520 C   0  0  0  0  0  3  0  0  0  0  0  0
  186.1180  178.7710  140.4250 C   0  0  2  0  0  3  0  0  0  0  0  0
  189.6090  177.3300  139.8630 C   0  0  0  0  0  3  0  0  0  0  0  0
  188.4260  177.7150  140.5020 C   0  0  0  0  0  0  0  0  0  0  0  0
  185.0820  179.3360  144.1410 C   0  0  2  0  0  3  0  0  0  0  0  0
  188.2850  177.5190  141.9110 N   0  0  0  0  0  2  0  0  0  0  0  0
  185.8190  178.1490  144.7700 C   0  0  0  0  0  2  0  0  0  0  0  0
  183.7900  179.5790  144.7990 N   0  0  0  0  0  2  0  0  0  0  0  0
  185.0520  177.8150  140.1450 N   0  0  0  0  0  2  0  0  0  0  0  0
  183.7770  178.3880  140.5910 C   0  0  1  0  0  3  0  0  0  0  0  0
  187.3970  178.3340  139.7610 C   0  0  0  0  0  0  0  0  0  0  0  0
  187.1760  177.9170  144.0830 C   0  0  1  0  0  3  0  0  0  0  0  0
  182.7750  178.6460  144.3140 C   0  0  0  0  0  2  0  0  0  0  0  0
  189.7650  177.5390  138.4910 C   0  0  0  0  0  3  0  0  0  0  0  0
  187.5600  178.5360  138.3860 C   0  0  0  0  0  3  0  0  0  0  0  0
  181.1890  176.8700  138.1440 C   0  0  1  0  0  3  0  0  0  0  0  0
  178.9320  174.8860  140.8270 Cl  0  0  0  0  0  0  0  0  0  0  0  0
  181.2280  176.5100  136.6690 C   0  0  0  0  0  1  0  0  0  0  0  0
  180.1660  177.3770  140.7770 C   0  0  0  0  0  3  0  0  0  0  0  0
  182.6140  177.4550  140.2320 C   0  0  1  0  0  3  0  0  0  0  0  0
  180.4340  175.8700  138.8930 N   0  0  0  0  0  0  0  0  0  0  0  0
  181.3350  178.0220  140.7940 C   0  0  0  0  0  3  0  0  0  0  0  0
  182.5950  177.0820  138.7290 C   0  0  1  0  0  3  0  0  0  0  0  0
  183.4830  175.8680  138.4940 C   0  0  0  0  0  1  0  0  0  0  0  0
  179.9560  176.0920  140.0810 C   0  0  0  0  0  0  0  0  0  0  0  0
  187.8110  176.7430  144.6590 N   0  0  0  0  0  2  0  0  0  0  0  0
  188.8860  177.2150  145.5140 C   0  0  0  0  0  1  0  0  0  0  0  0
  1  4  1  0  0  0  0
  1  3  1  6  0  0  0
  2  5  1  0  0  0  0
  2  4  1  0  0  0  0
  3 18  1  0  0  0  0
  4 10  1  0  0  0  0
  5 17  1  0  0  0  0
  6 20  2  0  0  0  0
  6 19  1  0  0  0  0
  7  2  1  0  0  0  0
  8  9  1  0  0  0  0
  9 11  1  0  0  0  0
 10 12  1  0  0  0  0
 10 13  1  0  0  0  0
 11  5  1  0  0  0  0
 14  7  1  0  0  0  0
 14 15  1  0  0  0  0
 15  1  1  0  0  0  0
 16  7  1  0  0  0  0
 16  9  2  0  0  0  0
 17 31  1  0  0  0  0
 17 12  1  0  0  0  0
 18 13  1  0  0  0  0
 19  8  2  0  0  0  0
 20 16  1  0  0  0  0
 21 28  1  0  0  0  0
 21 26  1  0  0  0  0
 23 21  1  0  0  0  0
 24 27  2  0  0  0  0
 25 15  1  0  0  0  0
 25 27  1  0  0  0  0
 26 30  2  0  0  0  0
 28 25  1  0  0  0  0
 29 28  1  0  0  0  0
 30 24  1  0  0  0  0
 30 22  1  0  0  0  0
 31 32  1  0  0  0  0
M  END
>  <MODEL>
5

>  <REMARK>
 VINA RESULT:      -7.1      4.285      8.460
  Name = 
  2 active torsions:
  status: ('A' for Active; 'I' for Inactive)
    1  A    between atoms: N_13  and  C_29
    2  A    between atoms: C_16  and  C_27
                            x       y       z     vdW  Elec       q    Type
                         _______ _______ _______ _____ _____    ______ ____

>  <TORSDO>
F 2

$$$$
=
 OpenBabel10262421073D

 32 37  0  0  1  0  0  0  0  0999 V2000
  186.8020  177.8750  138.5210 C   0  0  2  0  0  3  0  0  0  0  0  0
  189.2770  177.7150  138.7740 C   0  0  1  0  0  3  0  0  0  0  0  0
  185.4630  178.3400  139.0290 C   0  0  0  0  0  2  0  0  0  0  0  0
  187.9230  178.2110  139.2000 C   0  0  2  0  0  3  0  0  0  0  0  0
  189.6990  176.5930  139.7340 C   0  0  1  0  0  3  0  0  0  0  0  0
  192.1070  175.7070  135.2840 C   0  0  0  0  0  3  0  0  0  0  0  0
  189.2830  177.2350  137.3110 C   0  0  2  0  0  3  0  0  0  0  0  0
  192.5520  175.2880  137.6270 C   0  0  0  0  0  3  0  0  0  0  0  0
  191.3690  175.9470  137.9740 C   0  0  0  0  0  0  0  0  0  0  0  0
  187.8630  178.7360  140.6190 C   0  0  2  0  0  3  0  0  0  0  0  0
  191.0130  176.0890  139.3520 N   0  0  0  0  0  2  0  0  0  0  0  0
  188.3190  177.6370  141.5850 C   0  0  0  0  0  2  0  0  0  0  0  0
  186.5490  179.2750  140.9960 N   0  0  0  0  0  2  0  0  0  0  0  0
  188.1280  176.3790  137.0610 N   0  0  0  0  0  2  0  0  0  0  0  0
  186.9090  177.1890  137.1690 C   0  0  1  0  0  3  0  0  0  0  0  0
  190.5550  176.5080  136.9660 C   0  0  0  0  0  0  0  0  0  0  0  0
  189.7020  177.0930  141.1880 C   0  0  1  0  0  3  0  0  0  0  0  0
  185.4750  178.3890  140.5500 C   0  0  0  0  0  2  0  0  0  0  0  0
  192.9190  175.1650  136.2840 C   0  0  0  0  0  3  0  0  0  0  0  0
  190.9280  176.3770  135.6240 C   0  0  0  0  0  3  0  0  0  0  0  0
  185.0750  174.3530  135.2760 C   0  0  1  0  0  3  0  0  0  0  0  0
  181.2980  175.3000  136.3080 Cl  0  0  0  0  0  0  0  0  0  0  0  0
  185.4840  172.9630  134.8200 C   0  0  0  0  0  1  0  0  0  0  0  0
  183.5420  176.7620  135.5630 C   0  0  0  0  0  3  0  0  0  0  0  0
  185.6740  176.3490  136.8210 C   0  0  1  0  0  3  0  0  0  0  0  0
  183.6960  174.3470  135.7540 N   0  0  0  0  0  0  0  0  0  0  0  0
  184.7660  177.1540  135.9270 C   0  0  0  0  0  3  0  0  0  0  0  0
  186.0420  174.9300  136.3230 C   0  0  1  0  0  3  0  0  0  0  0  0
  186.1930  173.9950  137.5150 C   0  0  0  0  0  1  0  0  0  0  0  0
  182.9890  175.4300  135.8780 C   0  0  0  0  0  0  0  0  0  0  0  0
  190.0650  176.0080  142.0850 N   0  0  0  0  0  2  0  0  0  0  0  0
  189.1520  176.0610  143.2130 C   0  0  0  0  0  1  0  0  0  0  0  0
  1  3  1  6  0  0  0
  1  4  1  0  0  0  0
  2  4  1  0  0  0  0
  2  5  1  0  0  0  0
  3 18  1  0  0  0  0
  4 10  1  0  0  0  0
  5 17  1  0  0  0  0
  6 20  2  0  0  0  0
  6 19  1  0  0  0  0
  7  2  1  0  0  0  0
  8  9  1  0  0  0  0
  9 11  1  0  0  0  0
 10 13  1  0  0  0  0
 10 12  1  0  0  0  0
 11  5  1  0  0  0  0
 14 15  1  0  0  0  0
 14  7  1  0  0  0  0
 15  1  1  0  0  0  0
 16  7  1  0  0  0  0
 16  9  2  0  0  0  0
 17 12  1  0  0  0  0
 17 31  1  0  0  0  0
 18 13  1  0  0  0  0
 19  8  2  0  0  0  0
 20 16  1  0  0  0  0
 21 26  1  0  0  0  0
 21 28  1  0  0  0  0
 23 21  1  0  0  0  0
 24 30  1  0  0  0  0
 24 27  2  0  0  0  0
 25 15  1  0  0  0  0
 26 30  2  0  0  0  0
 27 25  1  0  0  0  0
 28 25  1  0  0  0  0
 28 29  1  0  0  0  0
 30 22  1  0  0  0  0
 31 32  1  0  0  0  0
M  END
>  <MODEL>
6

>  <REMARK>
 VINA RESULT:      -7.1      3.311      7.638
  Name = 
  2 active torsions:
  status: ('A' for Active; 'I' for Inactive)
    1  A    between atoms: N_13  and  C_29
    2  A    between atoms: C_16  and  C_27
                            x       y       z     vdW  Elec       q    Type
                         _______ _______ _______ _____ _____    ______ ____

>  <TORSDO>
F 2

$$$$
=
 OpenBabel10262421073D

 32 37  0  0  1  0  0  0  0  0999 V2000
  190.4140  177.7870  140.4130 C   0  0  2  0  0  3  0  0  0  0  0  0
  189.3060  177.2880  138.2360 C   0  0  1  0  0  3  0  0  0  0  0  0
  191.6560  177.8620  141.2610 C   0  0  0  0  0  2  0  0  0  0  0  0
  190.5210  177.4440  139.1090 C   0  0  2  0  0  3  0  0  0  0  0  0
  189.0500  175.7870  138.0360 C   0  0  1  0  0  3  0  0  0  0  0  0
  184.5110  178.1360  137.5230 C   0  0  0  0  0  3  0  0  0  0  0  0
  188.0730  177.9940  138.8300 C   0  0  2  0  0  3  0  0  0  0  0  0
  185.5560  176.1380  136.6390 C   0  0  0  0  0  3  0  0  0  0  0  0
  186.7360  176.4500  137.3200 C   0  0  0  0  0  0  0  0  0  0  0  0
  191.7770  176.8050  138.5570 C   0  0  2  0  0  3  0  0  0  0  0  0
  187.8770  175.5980  137.1890 N   0  0  0  0  0  2  0  0  0  0  0  0
  191.5240  175.3130  138.3170 C   0  0  0  0  0  2  0  0  0  0  0  0
  192.9670  177.0230  139.3910 N   0  0  0  0  0  2  0  0  0  0  0  0
  187.9460  177.6720  140.2470 N   0  0  0  0  0  2  0  0  0  0  0  0
  189.0800  178.2620  140.9670 C   0  0  1  0  0  3  0  0  0  0  0  0
  186.8110  177.6270  138.0960 C   0  0  0  0  0  0  0  0  0  0  0  0
  190.2860  175.1010  137.4290 C   0  0  1  0  0  3  0  0  0  0  0  0
  192.6580  176.8120  140.8050 C   0  0  0  0  0  2  0  0  0  0  0  0
  184.4440  176.9780  136.7430 C   0  0  0  0  0  3  0  0  0  0  0  0
  185.6900  178.4590  138.1980 C   0  0  0  0  0  3  0  0  0  0  0  0
  190.3140  176.9520  144.3950 C   0  0  1  0  0  3  0  0  0  0  0  0
  186.9020  177.4460  146.4800 Cl  0  0  0  0  0  0  0  0  0  0  0  0
  191.6800  176.8650  145.0530 C   0  0  0  0  0  1  0  0  0  0  0  0
  187.5130  176.5520  143.9190 C   0  0  0  0  0  3  0  0  0  0  0  0
  188.9390  178.0280  142.4770 C   0  0  1  0  0  3  0  0  0  0  0  0
  189.2960  177.3120  145.3780 N   0  0  0  0  0  0  0  0  0  0  0  0
  187.9620  176.9050  142.7120 C   0  0  0  0  0  3  0  0  0  0  0  0
  190.3080  177.9040  143.1890 C   0  0  1  0  0  3  0  0  0  0  0  0
  190.8100  179.2890  143.5730 C   0  0  0  0  0  1  0  0  0  0  0  0
  188.0260  177.1260  145.1780 C   0  0  0  0  0  0  0  0  0  0  0  0
  190.0390  173.6750  137.2840 N   0  0  0  0  0  2  0  0  0  0  0  0
  190.5590  173.2820  135.9860 C   0  0  0  0  0  1  0  0  0  0  0  0
  1 15  1  0  0  0  0
  1  3  1  6  0  0  0
  2  7  1  0  0  0  0
  2  4  1  0  0  0  0
  4  1  1  0  0  0  0
  5  2  1  0  0  0  0
  6 20  1  0  0  0  0
  7 14  1  0  0  0  0
  8 19  1  0  0  0  0
  8  9  2  0  0  0  0
  9 16  1  0  0  0  0
 10  4  1  0  0  0  0
 10 13  1  0  0  0  0
 11  9  1  0  0  0  0
 11  5  1  0  0  0  0
 12 10  1  0  0  0  0
 13 18  1  0  0  0  0
 14 15  1  0  0  0  0
 15 25  1  0  0  0  0
 16 20  2  0  0  0  0
 16  7  1  0  0  0  0
 17  5  1  0  0  0  0
 17 12  1  0  0  0  0
 18  3  1  0  0  0  0
 19  6  2  0  0  0  0
 21 23  1  0  0  0  0
 21 26  1  0  0  0  0
 24 30  1  0  0  0  0
 25 27  1  0  0  0  0
 25 28  1  0  0  0  0
 27 24  2  0  0  0  0
 28 29  1  0  0  0  0
 28 21  1  0  0  0  0
 30 26  2  0  0  0  0
 30 22  1  0  0  0  0
 31 17  1  0  0  0  0
 32 31  1  0  0  0  0
M  END
>  <MODEL>
7

>  <REMARK>
 VINA RESULT:      -6.8      1.229      1.996
  Name = 
  2 active torsions:
  status: ('A' for Active; 'I' for Inactive)
    1  A    between atoms: N_13  and  C_29
    2  A    between atoms: C_16  and  C_27
                            x       y       z     vdW  Elec       q    Type
                         _______ _______ _______ _____ _____    ______ ____

>  <TORSDO>
F 2

$$$$
=
 OpenBabel10262421073D

 32 37  0  0  1  0  0  0  0  0999 V2000
  189.4220  177.8500  139.9040 C   0  0  2  0  0  3  0  0  0  0  0  0
  187.7140  177.7770  138.0900 C   0  0  1  0  0  3  0  0  0  0  0  0
  190.8300  177.6190  140.3840 C   0  0  0  0  0  2  0  0  0  0  0  0
  189.1180  177.6270  138.6050 C   0  0  2  0  0  3  0  0  0  0  0  0
  187.1230  176.3730  137.8940 C   0  0  1  0  0  3  0  0  0  0  0  0
  183.1620  179.5300  138.7540 C   0  0  0  0  0  3  0  0  0  0  0  0
  186.8410  178.6280  139.0310 C   0  0  2  0  0  3  0  0  0  0  0  0
  183.5280  177.4770  137.5210 C   0  0  0  0  0  3  0  0  0  0  0  0
  184.8810  177.5050  137.8690 C   0  0  0  0  0  0  0  0  0  0  0  0
  190.0370  176.8340  137.7000 C   0  0  2  0  0  3  0  0  0  0  0  0
  185.7580  176.4810  137.3910 N   0  0  0  0  0  2  0  0  0  0  0  0
  189.4410  175.4420  137.4650 C   0  0  0  0  0  2  0  0  0  0  0  0
  191.4220  176.7530  138.1880 N   0  0  0  0  0  2  0  0  0  0  0  0
  187.0230  178.1920  140.4120 N   0  0  0  0  0  2  0  0  0  0  0  0
  188.3980  178.4970  140.8230 C   0  0  1  0  0  3  0  0  0  0  0  0
  185.3850  178.5650  138.6530 C   0  0  0  0  0  0  0  0  0  0  0  0
  187.9990  175.5430  136.9400 C   0  0  1  0  0  3  0  0  0  0  0  0
  191.4530  176.4590  139.6200 C   0  0  0  0  0  2  0  0  0  0  0  0
  182.6690  178.4860  137.9660 C   0  0  0  0  0  3  0  0  0  0  0  0
  184.5160  179.5690  139.0970 C   0  0  0  0  0  3  0  0  0  0  0  0
  190.2260  176.6940  143.7210 C   0  0  1  0  0  3  0  0  0  0  0  0
  187.5880  177.4800  146.6630 Cl  0  0  0  0  0  0  0  0  0  0  0  0
  191.6800  176.3450  143.9860 C   0  0  0  0  0  1  0  0  0  0  0  0
  187.3690  176.7570  143.9880 C   0  0  0  0  0  3  0  0  0  0  0  0
  188.6080  178.1410  142.3010 C   0  0  1  0  0  3  0  0  0  0  0  0
  189.5670  177.1040  144.9580 N   0  0  0  0  0  0  0  0  0  0  0  0
  187.5500  177.1560  142.7260 C   0  0  0  0  0  3  0  0  0  0  0  0
  190.0730  177.7500  142.6140 C   0  0  1  0  0  3  0  0  0  0  0  0
  190.8790  179.0030  142.9260 C   0  0  0  0  0  1  0  0  0  0  0  0
  188.2740  177.1250  145.0940 C   0  0  0  0  0  0  0  0  0  0  0  0
  187.4460  174.2060  136.7970 N   0  0  0  0  0  2  0  0  0  0  0  0
  188.5600  173.2750  136.8430 C   0  0  0  0  0  1  0  0  0  0  0  0
  1  3  1  6  0  0  0
  1 15  1  0  0  0  0
  2  4  1  0  0  0  0
  2  7  1  0  0  0  0
  4  1  1  0  0  0  0
  5  2  1  0  0  0  0
  6 20  1  0  0  0  0
  7 14  1  0  0  0  0
  8  9  2  0  0  0  0
  8 19  1  0  0  0  0
  9 16  1  0  0  0  0
 10 13  1  0  0  0  0
 10  4  1  0  0  0  0
 11  9  1  0  0  0  0
 11  5  1  0  0  0  0
 12 10  1  0  0  0  0
 13 18  1  0  0  0  0
 14 15  1  0  0  0  0
 15 25  1  0  0  0  0
 16  7  1  0  0  0  0
 16 20  2  0  0  0  0
 17 12  1  0  0  0  0
 17  5  1  0  0  0  0
 18  3  1  0  0  0  0
 19  6  2  0  0  0  0
 21 23  1  0  0  0  0
 21 26  1  0  0  0  0
 24 30  1  0  0  0  0
 25 28  1  0  0  0  0
 25 27  1  0  0  0  0
 26 30  2  0  0  0  0
 27 24  2  0  0  0  0
 28 29  1  0  0  0  0
 28 21  1  0  0  0  0
 30 22  1  0  0  0  0
 31 32  1  0  0  0  0
 31 17  1  0  0  0  0
M  END
>  <MODEL>
8

>  <REMARK>
 VINA RESULT:      -6.8      1.679      2.720
  Name = 
  2 active torsions:
  status: ('A' for Active; 'I' for Inactive)
    1  A    between atoms: N_13  and  C_29
    2  A    between atoms: C_16  and  C_27
                            x       y       z     vdW  Elec       q    Type
                         _______ _______ _______ _____ _____    ______ ____

>  <TORSDO>
F 2

$$$$
=
 OpenBabel10262421073D

 32 37  0  0  1  0  0  0  0  0999 V2000
  184.3270  178.2160  140.1730 C   0  0  2  0  0  3  0  0  0  0  0  0
  186.6120  178.6360  139.2700 C   0  0  1  0  0  3  0  0  0  0  0  0
  183.3230  178.3210  141.2900 C   0  0  0  0  0  2  0  0  0  0  0  0
  185.5510  178.7710  140.3260 C   0  0  2  0  0  3  0  0  0  0  0  0
  187.6350  177.5950  139.7490 C   0  0  1  0  0  3  0  0  0  0  0  0
  187.7890  177.5560  134.6140 C   0  0  0  0  0  3  0  0  0  0  0  0
  186.0200  178.2530  137.9010 C   0  0  2  0  0  3  0  0  0  0  0  0
  189.3510  177.1260  136.4140 C   0  0  0  0  0  3  0  0  0  0  0  0
  188.3700  177.4640  137.3510 C   0  0  0  0  0  0  0  0  0  0  0  0
  186.0690  179.1870  141.6870 C   0  0  2  0  0  3  0  0  0  0  0  0
  188.6840  177.4400  138.7470 N   0  0  0  0  0  2  0  0  0  0  0  0
  187.1190  178.1770  142.1610 C   0  0  0  0  0  2  0  0  0  0  0  0
  185.0110  179.3770  142.6890 N   0  0  0  0  0  2  0  0  0  0  0  0
  185.0640  177.1620  138.0580 N   0  0  0  0  0  2  0  0  0  0  0  0
  183.9120  177.6510  138.8240 C   0  0  1  0  0  3  0  0  0  0  0  0
  187.0910  177.8700  136.9150 C   0  0  0  0  0  0  0  0  0  0  0  0
  188.2270  178.0010  141.1090 C   0  0  1  0  0  3  0  0  0  0  0  0
  184.0380  178.2870  142.6330 C   0  0  0  0  0  2  0  0  0  0  0  0
  189.0600  177.1680  135.0480 C   0  0  0  0  0  3  0  0  0  0  0  0
  186.8070  177.9060  135.5450 C   0  0  0  0  0  3  0  0  0  0  0  0
  181.4600  175.0500  137.3380 C   0  0  1  0  0  3  0  0  0  0  0  0
  179.4120  174.1820  140.6970 Cl  0  0  0  0  0  0  0  0  0  0  0  0
  181.5220  174.1150  136.1420 C   0  0  0  0  0  1  0  0  0  0  0  0
  180.4110  176.5180  139.5690 C   0  0  0  0  0  3  0  0  0  0  0  0
  182.8370  176.5620  138.9330 C   0  0  1  0  0  3  0  0  0  0  0  0
  180.8040  174.3940  138.4650 N   0  0  0  0  0  0  0  0  0  0  0  0
  181.5160  177.2050  139.2670 C   0  0  0  0  0  3  0  0  0  0  0  0
  182.8440  175.5990  137.7200 C   0  0  1  0  0  3  0  0  0  0  0  0
  183.8380  174.4740  137.9680 C   0  0  0  0  0  1  0  0  0  0  0  0
  180.3160  175.0490  139.4750 C   0  0  0  0  0  0  0  0  0  0  0  0
  189.1630  176.9860  141.5640 N   0  0  0  0  0  2  0  0  0  0  0  0
  188.6770  176.4980  142.8430 C   0  0  0  0  0  1  0  0  0  0  0  0
  1  4  1  0  0  0  0
  1  3  1  6  0  0  0
  2  5  1  0  0  0  0
  2  4  1  0  0  0  0
  3 18  1  0  0  0  0
  4 10  1  0  0  0  0
  5 17  1  0  0  0  0
  6 19  2  0  0  0  0
  6 20  1  0  0  0  0
  7 14  1  0  0  0  0
  7  2  1  0  0  0  0
  8  9  2  0  0  0  0
  9 11  1  0  0  0  0
 10 12  1  0  0  0  0
 10 13  1  0  0  0  0
 11  5  1  0  0  0  0
 14 15  1  0  0  0  0
 15 25  1  0  0  0  0
 15  1  1  0  0  0  0
 16  9  1  0  0  0  0
 16  7  1  0  0  0  0
 17 31  1  0  0  0  0
 17 12  1  0  0  0  0
 18 13  1  0  0  0  0
 19  8  1  0  0  0  0
 20 16  2  0  0  0  0
 21 28  1  0  0  0  0
 21 26  1  0  0  0  0
 23 21  1  0  0  0  0
 25 27  1  0  0  0  0
 26 30  2  0  0  0  0
 27 24  2  0  0  0  0
 28 29  1  0  0  0  0
 28 25  1  0  0  0  0
 30 24  1  0  0  0  0
 30 22  1  0  0  0  0
 31 32  1  0  0  0  0
M  END
>  <MODEL>
9

>  <REMARK>
 VINA RESULT:      -6.7      4.005      7.817
  Name = 
  2 active torsions:
  status: ('A' for Active; 'I' for Inactive)
    1  A    between atoms: N_13  and  C_29
    2  A    between atoms: C_16  and  C_27
                            x       y       z     vdW  Elec       q    Type
                         _______ _______ _______ _____ _____    ______ ____

>  <TORSDO>
F 2

$$$$
