=
 OpenBabel10262421473D

 30 32  0  0  1  0  0  0  0  0999 V2000
  185.7820  178.7350  142.2600 C   0  0  0  0  0  0  0  0  0  0  0  0
  184.5320  179.3050  142.6570 N   0  0  0  0  0  0  0  0  0  0  0  0
  186.0610  178.6480  141.0340 O   0  0  0  0  0  0  0  0  0  0  0  0
  186.0740  177.9300  144.6180 C   0  0  2  0  0  3  0  0  0  0  0  0
  184.1880  179.4270  144.0400 C   0  0  0  0  0  3  0  0  0  0  0  0
  186.7870  178.3400  143.3150 C   0  0  1  0  0  3  0  0  0  0  0  0
  184.9210  178.8290  144.9790 C   0  0  0  0  0  2  0  0  0  0  0  0
  187.5200  177.8950  148.2640 C   0  0  0  0  0  3  0  0  0  0  0  0
  188.7680  177.4840  148.0360 C   0  0  0  0  0  3  0  0  0  0  0  0
  186.5200  178.1270  147.1600 C   0  0  0  0  0  0  0  0  0  0  0  0
  190.4470  176.8290  146.3930 N   0  0  0  0  0  2  0  0  0  0  0  0
  188.2830  177.3840  145.5580 C   0  0  0  0  0  3  0  0  0  0  0  0
  186.0860  179.4520  147.2040 O   0  0  0  0  0  1  0  0  0  0  0  0
  189.2340  177.2200  146.6640 C   0  0  0  0  0  0  0  0  0  0  0  0
  187.0260  177.7950  145.7720 C   0  0  0  0  0  0  0  0  0  0  0  0
  191.8310  177.4550  148.1920 O   0  0  0  0  0  0  0  0  0  0  0  0
  191.5220  176.6030  147.3170 C   0  0  0  0  0  0  0  0  0  0  0  0
  192.2570  175.3880  147.2410 N   0  0  0  0  0  1  0  0  0  0  0  0
  187.6750  177.1990  142.8350 C   0  0  0  0  0  2  0  0  0  0  0  0
  189.0510  177.7280  142.4910 C   0  0  0  0  0  2  0  0  0  0  0  0
  190.2070  176.3410  142.3320 S   0  0  0  0  0  0  0  0  0  0  0  0
  190.7570  176.8800  140.7090 C   0  0  0  0  0  0  0  0  0  0  0  0
  191.8550  177.6230  140.6000 C   0  0  0  0  0  2  0  0  0  0  0  0
  189.7890  177.3660  137.2790 C   0  0  0  0  0  2  0  0  0  0  0  0
  189.9510  176.5710  139.4860 C   0  0  1  0  0  3  0  0  0  0  0  0
  188.7510  177.9920  138.1780 C   0  0  2  0  0  0  0  0  0  0  0  0
  188.7950  177.3760  139.4440 O   0  0  0  0  0  0  0  0  0  0  0  0
  190.7730  176.7860  138.2370 C   0  0  0  0  0  2  0  0  0  0  0  0
  187.3780  177.8070  137.5680 C   0  0  0  0  0  1  0  0  0  0  0  0
  189.0160  179.3550  138.3170 O   0  0  0  0  0  1  0  0  0  0  0  0
  1  2  1  0  0  0  0
  1  6  1  0  0  0  0
  2  5  2  0  0  0  0
  3  1  2  0  0  0  0
  4  7  1  0  0  0  0
  4 15  1  1  0  0  0
  5  7  1  0  0  0  0
  6 19  1  6  0  0  0
  6  4  1  0  0  0  0
  9  8  1  0  0  0  0
 10 13  1  0  0  0  0
 10  8  2  0  0  0  0
 11 14  1  0  0  0  0
 11 17  1  0  0  0  0
 12 15  2  0  0  0  0
 12 14  1  0  0  0  0
 14  9  2  0  0  0  0
 15 10  1  0  0  0  0
 17 16  2  0  0  0  0
 18 17  1  0  0  0  0
 20 19  1  0  0  0  0
 21 20  1  0  0  0  0
 22 21  1  0  0  0  0
 23 22  2  0  0  0  0
 24 26  1  0  0  0  0
 24 28  1  0  0  0  0
 25 22  1  1  0  0  0
 26 29  1  6  0  0  0
 26 30  1  0  0  0  0
 26 27  1  0  0  0  0
 27 25  1  0  0  0  0
 28 25  1  0  0  0  0
M  END
>  <MODEL>
1

>  <REMARK>
 VINA RESULT:      -9.5      0.000      0.000
  Name = 
  7 active torsions:
  status: ('A' for Active; 'I' for Inactive)
    1  A    between atoms: C_1  and  S_4
    2  A    between atoms: C_1  and  C_5
    3  A    between atoms: S_4  and  C_27
    4  A    between atoms: C_5  and  C_22
    5  A    between atoms: C_8  and  C_27
    6  A    between atoms: C_15  and  N_16
    7  A    between atoms: C_19  and  C_29
                            x       y       z     vdW  Elec       q    Type
                         _______ _______ _______ _____ _____    ______ ____

>  <TORSDO>
F 7

$$$$
=
 OpenBabel10262421473D

 30 32  0  0  1  0  0  0  0  0999 V2000
  184.8990  178.6930  142.8010 C   0  0  0  0  0  0  0  0  0  0  0  0
  183.6440  179.0310  143.3980 N   0  0  0  0  0  0  0  0  0  0  0  0
  185.0080  178.6970  141.5460 O   0  0  0  0  0  0  0  0  0  0  0  0
  185.6530  177.8640  145.0450 C   0  0  2  0  0  3  0  0  0  0  0  0
  183.4880  179.0450  144.8200 C   0  0  0  0  0  3  0  0  0  0  0  0
  186.0950  178.4330  143.6840 C   0  0  1  0  0  3  0  0  0  0  0  0
  184.4340  178.5440  145.6120 C   0  0  0  0  0  2  0  0  0  0  0  0
  187.6590  178.3010  148.3880 C   0  0  0  0  0  3  0  0  0  0  0  0
  188.8360  177.7790  148.0450 C   0  0  0  0  0  3  0  0  0  0  0  0
  186.5060  178.4230  147.4240 C   0  0  0  0  0  0  0  0  0  0  0  0
  190.2040  176.7660  146.2970 N   0  0  0  0  0  2  0  0  0  0  0  0
  187.9590  177.3260  145.7190 C   0  0  0  0  0  3  0  0  0  0  0  0
  186.1390  179.7650  147.3150 O   0  0  0  0  0  1  0  0  0  0  0  0
  189.0670  177.2730  146.6800 C   0  0  0  0  0  0  0  0  0  0  0  0
  186.7700  177.8470  146.0500 C   0  0  0  0  0  0  0  0  0  0  0  0
  191.7130  177.4390  147.9740 O   0  0  0  0  0  0  0  0  0  0  0  0
  191.4030  176.6160  147.0730 C   0  0  0  0  0  0  0  0  0  0  0  0
  192.2600  175.5110  146.8170 N   0  0  0  0  0  1  0  0  0  0  0  0
  187.0760  177.4740  143.0220 C   0  0  0  0  0  2  0  0  0  0  0  0
  188.1280  178.2550  142.2650 C   0  0  0  0  0  2  0  0  0  0  0  0
  189.3070  177.1030  141.5090 S   0  0  0  0  0  0  0  0  0  0  0  0
  189.0270  177.7690  139.8650 C   0  0  0  0  0  0  0  0  0  0  0  0
  187.8090  178.1750  139.5180 C   0  0  0  0  0  2  0  0  0  0  0  0
  190.6930  176.6410  136.8820 C   0  0  0  0  0  2  0  0  0  0  0  0
  190.1290  177.7960  138.8520 C   0  0  1  0  0  3  0  0  0  0  0  0
  191.4010  176.0730  138.0880 C   0  0  2  0  0  0  0  0  0  0  0  0
  191.1460  176.8870  139.2080 O   0  0  0  0  0  0  0  0  0  0  0  0
  189.5990  177.4610  137.4770 C   0  0  0  0  0  2  0  0  0  0  0  0
  192.8910  176.0230  137.8210 C   0  0  0  0  0  1  0  0  0  0  0  0
  190.9330  174.7830  138.3370 O   0  0  0  0  0  1  0  0  0  0  0  0
  1  2  1  0  0  0  0
  1  6  1  0  0  0  0
  2  5  2  0  0  0  0
  3  1  2  0  0  0  0
  4  7  1  0  0  0  0
  4 15  1  1  0  0  0
  5  7  1  0  0  0  0
  6 19  1  6  0  0  0
  6  4  1  0  0  0  0
  9  8  1  0  0  0  0
 10  8  2  0  0  0  0
 11 14  1  0  0  0  0
 11 17  1  0  0  0  0
 12 15  2  0  0  0  0
 12 14  1  0  0  0  0
 13 10  1  0  0  0  0
 14  9  2  0  0  0  0
 15 10  1  0  0  0  0
 17 16  2  0  0  0  0
 18 17  1  0  0  0  0
 20 19  1  0  0  0  0
 21 20  1  0  0  0  0
 22 21  1  0  0  0  0
 23 22  2  0  0  0  0
 24 28  1  0  0  0  0
 24 26  1  0  0  0  0
 25 27  1  0  0  0  0
 25 22  1  1  0  0  0
 26 29  1  6  0  0  0
 26 30  1  0  0  0  0
 26 27  1  0  0  0  0
 28 25  1  0  0  0  0
M  END
>  <MODEL>
2

>  <REMARK>
 VINA RESULT:      -9.5      1.267      1.956
  Name = 
  7 active torsions:
  status: ('A' for Active; 'I' for Inactive)
    1  A    between atoms: C_1  and  S_4
    2  A    between atoms: C_1  and  C_5
    3  A    between atoms: S_4  and  C_27
    4  A    between atoms: C_5  and  C_22
    5  A    between atoms: C_8  and  C_27
    6  A    between atoms: C_15  and  N_16
    7  A    between atoms: C_19  and  C_29
                            x       y       z     vdW  Elec       q    Type
                         _______ _______ _______ _____ _____    ______ ____

>  <TORSDO>
F 7

$$$$
=
 OpenBabel10262421473D

 30 32  0  0  1  0  0  0  0  0999 V2000
  186.8030  177.8510  146.1490 C   0  0  0  0  0  0  0  0  0  0  0  0
  187.5460  177.6590  147.3550 N   0  0  0  0  0  2  0  0  0  0  0  0
  185.5690  178.0960  146.2140 O   0  0  0  0  0  0  0  0  0  0  0  0
  188.7770  176.9600  144.8830 C   0  0  2  0  0  3  0  0  0  0  0  0
  188.9510  177.3890  147.3160 C   0  0  0  0  0  3  0  0  0  0  0  0
  187.5260  177.8560  144.8230 C   0  0  1  0  0  3  0  0  0  0  0  0
  189.5560  177.1030  146.1640 C   0  0  0  0  0  3  0  0  0  0  0  0
  191.8430  177.9660  142.6520 C   0  0  0  0  0  3  0  0  0  0  0  0
  191.4690  177.4700  141.4730 C   0  0  0  0  0  3  0  0  0  0  0  0
  190.9760  177.8890  143.8840 C   0  0  0  0  0  0  0  0  0  0  0  0
  189.7570  176.3070  140.1830 N   0  0  0  0  0  2  0  0  0  0  0  0
  189.3100  176.6520  142.4990 C   0  0  0  0  0  3  0  0  0  0  0  0
  190.7240  179.1790  144.3500 O   0  0  0  0  0  1  0  0  0  0  0  0
  190.1680  176.7960  141.3180 C   0  0  0  0  0  0  0  0  0  0  0  0
  189.6720  177.1450  143.6920 C   0  0  0  0  0  0  0  0  0  0  0  0
  190.3960  177.3440  138.1680 O   0  0  0  0  0  0  0  0  0  0  0  0
  190.4370  176.3330  138.9180 C   0  0  0  0  0  0  0  0  0  0  0  0
  191.1730  175.1900  138.5040 N   0  0  0  0  0  1  0  0  0  0  0  0
  186.6160  177.3920  143.6930 C   0  0  0  0  0  2  0  0  0  0  0  0
  186.0160  178.5900  142.9900 C   0  0  0  0  0  2  0  0  0  0  0  0
  186.7730  178.7670  141.3510 S   0  0  0  0  0  0  0  0  0  0  0  0
  185.1840  178.6720  140.5190 C   0  0  0  0  0  0  0  0  0  0  0  0
  184.0870  178.4100  141.2230 C   0  0  0  0  0  2  0  0  0  0  0  0
  184.9270  177.3670  137.1770 C   0  0  0  0  0  2  0  0  0  0  0  0
  185.0900  178.8040  139.0300 C   0  0  1  0  0  3  0  0  0  0  0  0
  186.3510  177.7930  137.4310 C   0  0  2  0  0  0  0  0  0  0  0  0
  186.3750  178.7630  138.4520 O   0  0  0  0  0  0  0  0  0  0  0  0
  184.2300  177.7060  138.4500 C   0  0  0  0  0  2  0  0  0  0  0  0
  186.9390  178.3740  136.1620 C   0  0  0  0  0  1  0  0  0  0  0  0
  187.1050  176.6880  137.8260 O   0  0  0  0  0  1  0  0  0  0  0  0
  1  3  2  0  0  0  0
  1  2  1  0  0  0  0
  4 15  1  6  0  0  0
  4  7  1  0  0  0  0
  5  2  1  0  0  0  0
  6 19  1  6  0  0  0
  6  4  1  0  0  0  0
  6  1  1  0  0  0  0
  7  5  2  0  0  0  0
  8 10  1  0  0  0  0
  9  8  2  0  0  0  0
 10 13  1  0  0  0  0
 11 14  1  0  0  0  0
 12 15  1  0  0  0  0
 14  9  1  0  0  0  0
 14 12  2  0  0  0  0
 15 10  2  0  0  0  0
 16 17  2  0  0  0  0
 17 11  1  0  0  0  0
 18 17  1  0  0  0  0
 20 19  1  0  0  0  0
 21 20  1  0  0  0  0
 22 23  2  0  0  0  0
 22 21  1  0  0  0  0
 24 26  1  0  0  0  0
 24 28  1  0  0  0  0
 25 22  1  1  0  0  0
 26 29  1  6  0  0  0
 26 30  1  0  0  0  0
 26 27  1  0  0  0  0
 27 25  1  0  0  0  0
 28 25  1  0  0  0  0
M  END
>  <MODEL>
3

>  <REMARK>
 VINA RESULT:      -9.3      2.765      5.504
  Name = 
  7 active torsions:
  status: ('A' for Active; 'I' for Inactive)
    1  A    between atoms: C_1  and  S_4
    2  A    between atoms: C_1  and  C_5
    3  A    between atoms: S_4  and  C_27
    4  A    between atoms: C_5  and  C_22
    5  A    between atoms: C_8  and  C_27
    6  A    between atoms: C_15  and  N_16
    7  A    between atoms: C_19  and  C_29
                            x       y       z     vdW  Elec       q    Type
                         _______ _______ _______ _____ _____    ______ ____

>  <TORSDO>
F 7

$$$$
=
 OpenBabel10262421473D

 30 32  0  0  1  0  0  0  0  0999 V2000
  188.2580  178.2400  139.1330 C   0  0  0  0  0  0  0  0  0  0  0  0
  187.6800  178.6340  137.8860 N   0  0  0  0  0  2  0  0  0  0  0  0
  187.7550  178.6590  140.2090 O   0  0  0  0  0  0  0  0  0  0  0  0
  190.2310  177.3680  137.8520 C   0  0  2  0  0  3  0  0  0  0  0  0
  188.2210  178.1690  136.6460 C   0  0  0  0  0  3  0  0  0  0  0  0
  189.3990  177.2510  139.1430 C   0  0  1  0  0  3  0  0  0  0  0  0
  189.3920  177.5350  136.6110 C   0  0  0  0  0  3  0  0  0  0  0  0
  191.7790  173.9140  136.8220 C   0  0  0  0  0  3  0  0  0  0  0  0
  193.0240  174.0490  137.2790 C   0  0  0  0  0  3  0  0  0  0  0  0
  190.7210  174.9730  137.0030 C   0  0  0  0  0  0  0  0  0  0  0  0
  194.6370  175.4460  138.4610 N   0  0  0  0  0  2  0  0  0  0  0  0
  192.4550  176.3540  138.1460 C   0  0  0  0  0  3  0  0  0  0  0  0
  189.6430  174.4290  137.7020 O   0  0  0  0  0  1  0  0  0  0  0  0
  193.4360  175.2740  137.9870 C   0  0  0  0  0  0  0  0  0  0  0  0
  191.2010  176.2320  137.6910 C   0  0  0  0  0  0  0  0  0  0  0  0
  195.7580  173.4780  139.1060 O   0  0  0  0  0  0  0  0  0  0  0  0
  195.7400  174.5270  138.4090 C   0  0  0  0  0  0  0  0  0  0  0  0
  196.8380  174.8110  137.5510 N   0  0  0  0  0  1  0  0  0  0  0  0
  190.3000  177.4570  140.3540 C   0  0  0  0  0  2  0  0  0  0  0  0
  189.9250  176.4780  141.4470 C   0  0  0  0  0  2  0  0  0  0  0  0
  191.1350  176.5850  142.7930 S   0  0  0  0  0  0  0  0  0  0  0  0
  189.8990  177.1470  143.9680 C   0  0  0  0  0  0  0  0  0  0  0  0
  188.6120  177.1240  143.6310 C   0  0  0  0  0  2  0  0  0  0  0  0
  190.7940  176.9060  147.4440 C   0  0  0  0  0  2  0  0  0  0  0  0
  190.3030  177.7170  145.2920 C   0  0  1  0  0  3  0  0  0  0  0  0
  189.3640  177.3760  147.3340 C   0  0  2  0  0  0  0  0  0  0  0  0
  189.1660  177.9850  146.0800 O   0  0  0  0  0  0  0  0  0  0  0  0
  191.2240  176.7680  146.0230 C   0  0  0  0  0  2  0  0  0  0  0  0
  189.0740  178.3730  148.4370 C   0  0  0  0  0  1  0  0  0  0  0  0
  188.5040  176.2850  147.4600 O   0  0  0  0  0  1  0  0  0  0  0  0
  1  6  1  0  0  0  0
  1  3  2  0  0  0  0
  2  1  1  0  0  0  0
  4 15  1  6  0  0  0
  4  6  1  0  0  0  0
  5  2  1  0  0  0  0
  6 19  1  1  0  0  0
  7  5  2  0  0  0  0
  7  4  1  0  0  0  0
  8 10  2  0  0  0  0
  8  9  1  0  0  0  0
  9 14  2  0  0  0  0
 10 15  1  0  0  0  0
 10 13  1  0  0  0  0
 14 12  1  0  0  0  0
 14 11  1  0  0  0  0
 15 12  2  0  0  0  0
 17 11  1  0  0  0  0
 17 16  2  0  0  0  0
 18 17  1  0  0  0  0
 19 20  1  0  0  0  0
 20 21  1  0  0  0  0
 21 22  1  0  0  0  0
 23 22  2  0  0  0  0
 25 22  1  6  0  0  0
 25 28  1  0  0  0  0
 25 27  1  0  0  0  0
 26 24  1  0  0  0  0
 26 30  1  0  0  0  0
 26 29  1  1  0  0  0
 27 26  1  0  0  0  0
 28 24  1  0  0  0  0
M  END
>  <MODEL>
4

>  <REMARK>
 VINA RESULT:      -9.3      3.775      8.439
  Name = 
  7 active torsions:
  status: ('A' for Active; 'I' for Inactive)
    1  A    between atoms: C_1  and  S_4
    2  A    between atoms: C_1  and  C_5
    3  A    between atoms: S_4  and  C_27
    4  A    between atoms: C_5  and  C_22
    5  A    between atoms: C_8  and  C_27
    6  A    between atoms: C_15  and  N_16
    7  A    between atoms: C_19  and  C_29
                            x       y       z     vdW  Elec       q    Type
                         _______ _______ _______ _____ _____    ______ ____

>  <TORSDO>
F 7

$$$$
=
 OpenBabel10262421473D

 30 32  0  0  1  0  0  0  0  0999 V2000
  186.6670  178.3230  147.0780 C   0  0  0  0  0  0  0  0  0  0  0  0
  187.5920  178.1830  148.1600 N   0  0  0  0  0  2  0  0  0  0  0  0
  185.4760  178.6530  147.3210 O   0  0  0  0  0  0  0  0  0  0  0  0
  188.3510  177.1990  145.5970 C   0  0  2  0  0  3  0  0  0  0  0  0
  188.9540  177.8180  147.9180 C   0  0  0  0  0  3  0  0  0  0  0  0
  187.1550  178.1690  145.6580 C   0  0  1  0  0  3  0  0  0  0  0  0
  189.3420  177.3970  146.7150 C   0  0  0  0  0  3  0  0  0  0  0  0
  191.0950  176.8250  142.8190 C   0  0  0  0  0  3  0  0  0  0  0  0
  190.4050  177.1760  141.7340 C   0  0  0  0  0  3  0  0  0  0  0  0
  190.5040  176.8400  144.2060 C   0  0  0  0  0  0  0  0  0  0  0  0
  188.2850  177.9540  140.8110 N   0  0  0  0  0  2  0  0  0  0  0  0
  188.3600  177.5760  143.1640 C   0  0  0  0  0  3  0  0  0  0  0  0
  191.2530  177.6950  145.0150 O   0  0  0  0  0  1  0  0  0  0  0  0
  188.9950  177.5910  141.8410 C   0  0  0  0  0  0  0  0  0  0  0  0
  189.0410  177.2240  144.2630 C   0  0  0  0  0  0  0  0  0  0  0  0
  189.0330  179.1290  138.9130 O   0  0  0  0  0  0  0  0  0  0  0  0
  188.7050  178.0330  139.4400 C   0  0  0  0  0  0  0  0  0  0  0  0
  188.7520  176.8460  138.6590 N   0  0  0  0  0  1  0  0  0  0  0  0
  186.0460  177.6720  144.7400 C   0  0  0  0  0  2  0  0  0  0  0  0
  185.1300  178.8210  144.3720 C   0  0  0  0  0  2  0  0  0  0  0  0
  185.1020  179.0150  142.5700 S   0  0  0  0  0  0  0  0  0  0  0  0
  183.3180  178.8170  142.4960 C   0  0  0  0  0  0  0  0  0  0  0  0
  182.6030  178.8780  143.6150 C   0  0  0  0  0  2  0  0  0  0  0  0
  183.2680  178.0090  138.9910 C   0  0  0  0  0  2  0  0  0  0  0  0
  182.6360  178.5020  141.2010 C   0  0  1  0  0  3  0  0  0  0  0  0
  182.9330  179.4700  139.1660 C   0  0  2  0  0  0  0  0  0  0  0  0
  182.4210  179.6810  140.4600 O   0  0  0  0  0  0  0  0  0  0  0  0
  183.4550  177.5260  140.3890 C   0  0  0  0  0  2  0  0  0  0  0  0
  181.9000  179.8760  138.1350 C   0  0  0  0  0  1  0  0  0  0  0  0
  184.0850  180.2360  138.9920 O   0  0  0  0  0  1  0  0  0  0  0  0
  1  3  2  0  0  0  0
  1  2  1  0  0  0  0
  4 15  1  6  0  0  0
  4  6  1  0  0  0  0
  4  7  1  0  0  0  0
  5  2  1  0  0  0  0
  6 19  1  6  0  0  0
  6  1  1  0  0  0  0
  7  5  2  0  0  0  0
  8 10  1  0  0  0  0
  9 14  1  0  0  0  0
  9  8  2  0  0  0  0
 10 15  2  0  0  0  0
 10 13  1  0  0  0  0
 11 14  1  0  0  0  0
 12 15  1  0  0  0  0
 14 12  2  0  0  0  0
 16 17  2  0  0  0  0
 17 11  1  0  0  0  0
 18 17  1  0  0  0  0
 20 19  1  0  0  0  0
 21 20  1  0  0  0  0
 22 21  1  0  0  0  0
 22 23  2  0  0  0  0
 24 26  1  0  0  0  0
 24 28  1  0  0  0  0
 25 22  1  1  0  0  0
 26 29  1  6  0  0  0
 26 27  1  0  0  0  0
 27 25  1  0  0  0  0
 28 25  1  0  0  0  0
 30 26  1  0  0  0  0
M  END
>  <MODEL>
5

>  <REMARK>
 VINA RESULT:      -9.2      2.930      6.288
  Name = 
  7 active torsions:
  status: ('A' for Active; 'I' for Inactive)
    1  A    between atoms: C_1  and  S_4
    2  A    between atoms: C_1  and  C_5
    3  A    between atoms: S_4  and  C_27
    4  A    between atoms: C_5  and  C_22
    5  A    between atoms: C_8  and  C_27
    6  A    between atoms: C_15  and  N_16
    7  A    between atoms: C_19  and  C_29
                            x       y       z     vdW  Elec       q    Type
                         _______ _______ _______ _____ _____    ______ ____

>  <TORSDO>
F 7

$$$$
=
 OpenBabel10262421473D

 30 32  0  0  1  0  0  0  0  0999 V2000
  191.3410  176.3730  144.6970 C   0  0  0  0  0  0  0  0  0  0  0  0
  191.9000  176.0390  145.9700 N   0  0  0  0  0  0  0  0  0  0  0  0
  192.0060  176.1460  143.6500 O   0  0  0  0  0  0  0  0  0  0  0  0
  189.5630  177.6660  145.9030 C   0  0  2  0  0  3  0  0  0  0  0  0
  191.1680  176.2750  147.1760 C   0  0  0  0  0  3  0  0  0  0  0  0
  189.9280  176.8970  144.6190 C   0  0  1  0  0  3  0  0  0  0  0  0
  190.0480  176.9960  147.1620 C   0  0  0  0  0  2  0  0  0  0  0  0
  186.0380  178.6120  147.3430 C   0  0  0  0  0  3  0  0  0  0  0  0
  185.3080  178.6290  146.2280 C   0  0  0  0  0  3  0  0  0  0  0  0
  187.5020  178.2500  147.3560 C   0  0  0  0  0  0  0  0  0  0  0  0
  185.2360  178.2920  143.8130 N   0  0  0  0  0  2  0  0  0  0  0  0
  187.3470  177.9880  144.8800 C   0  0  0  0  0  3  0  0  0  0  0  0
  187.6960  177.1530  148.1950 O   0  0  0  0  0  1  0  0  0  0  0  0
  185.9140  178.3000  144.9260 C   0  0  0  0  0  0  0  0  0  0  0  0
  188.0940  177.9680  145.9920 C   0  0  0  0  0  0  0  0  0  0  0  0
  183.0750  178.7640  144.6170 O   0  0  0  0  0  0  0  0  0  0  0  0
  183.8390  178.5710  143.6350 C   0  0  0  0  0  0  0  0  0  0  0  0
  183.3060  178.6290  142.3180 N   0  0  0  0  0  1  0  0  0  0  0  0
  189.7370  177.8010  143.4080 C   0  0  0  0  0  2  0  0  0  0  0  0
  189.2400  176.9880  142.2320 C   0  0  0  0  0  2  0  0  0  0  0  0
  188.4710  178.0930  141.0170 S   0  0  0  0  0  0  0  0  0  0  0  0
  189.4850  177.4570  139.6780 C   0  0  0  0  0  0  0  0  0  0  0  0
  190.7530  177.1290  139.9110 C   0  0  0  0  0  2  0  0  0  0  0  0
  187.7990  178.7680  136.7840 C   0  0  0  0  0  2  0  0  0  0  0  0
  188.9450  177.3670  138.2840 C   0  0  1  0  0  3  0  0  0  0  0  0
  186.8560  177.8600  137.5350 C   0  0  2  0  0  0  0  0  0  0  0  0
  187.6000  176.9460  138.3050 O   0  0  0  0  0  0  0  0  0  0  0  0
  189.0560  178.7010  137.5820 C   0  0  0  0  0  2  0  0  0  0  0  0
  185.9870  177.1080  136.5480 C   0  0  0  0  0  1  0  0  0  0  0  0
  186.0460  178.6230  138.3770 O   0  0  0  0  0  1  0  0  0  0  0  0
  1  2  1  0  0  0  0
  2  5  2  0  0  0  0
  3  1  2  0  0  0  0
  4 15  1  1  0  0  0
  4  7  1  0  0  0  0
  6 19  1  6  0  0  0
  6  1  1  0  0  0  0
  6  4  1  0  0  0  0
  7  5  1  0  0  0  0
  8 10  1  0  0  0  0
  9  8  2  0  0  0  0
 10 13  1  0  0  0  0
 11 14  1  0  0  0  0
 12 14  2  0  0  0  0
 12 15  1  0  0  0  0
 14  9  1  0  0  0  0
 15 10  2  0  0  0  0
 17 11  1  0  0  0  0
 17 16  2  0  0  0  0
 18 17  1  0  0  0  0
 20 19  1  0  0  0  0
 21 20  1  0  0  0  0
 22 23  2  0  0  0  0
 22 21  1  0  0  0  0
 24 26  1  0  0  0  0
 24 28  1  0  0  0  0
 25 27  1  0  0  0  0
 25 22  1  1  0  0  0
 26 29  1  6  0  0  0
 26 27  1  0  0  0  0
 26 30  1  0  0  0  0
 28 25  1  0  0  0  0
M  END
>  <MODEL>
6

>  <REMARK>
 VINA RESULT:      -9.2      1.842      4.893
  Name = 
  7 active torsions:
  status: ('A' for Active; 'I' for Inactive)
    1  A    between atoms: C_1  and  S_4
    2  A    between atoms: C_1  and  C_5
    3  A    between atoms: S_4  and  C_27
    4  A    between atoms: C_5  and  C_22
    5  A    between atoms: C_8  and  C_27
    6  A    between atoms: C_15  and  N_16
    7  A    between atoms: C_19  and  C_29
                            x       y       z     vdW  Elec       q    Type
                         _______ _______ _______ _____ _____    ______ ____

>  <TORSDO>
F 7

$$$$
=
 OpenBabel10262421473D

 30 32  0  0  1  0  0  0  0  0999 V2000
  189.6870  176.9950  145.6850 C   0  0  0  0  0  0  0  0  0  0  0  0
  189.5170  176.7480  147.0830 N   0  0  0  0  0  2  0  0  0  0  0  0
  190.8070  176.7770  145.1500 O   0  0  0  0  0  0  0  0  0  0  0  0
  187.4920  178.2090  145.7130 C   0  0  2  0  0  3  0  0  0  0  0  0
  188.2560  176.9770  147.7200 C   0  0  0  0  0  3  0  0  0  0  0  0
  188.4990  177.4190  144.8550 C   0  0  1  0  0  3  0  0  0  0  0  0
  187.2790  177.6200  147.0830 C   0  0  0  0  0  3  0  0  0  0  0  0
  183.7820  179.2600  144.9890 C   0  0  0  0  0  3  0  0  0  0  0  0
  183.6640  178.9040  143.7100 C   0  0  0  0  0  3  0  0  0  0  0  0
  185.0380  179.0270  145.7920 C   0  0  0  0  0  0  0  0  0  0  0  0
  184.7130  177.8880  141.7560 N   0  0  0  0  0  2  0  0  0  0  0  0
  186.0460  178.0590  143.7250 C   0  0  0  0  0  3  0  0  0  0  0  0
  184.7350  178.2320  146.8970 O   0  0  0  0  0  1  0  0  0  0  0  0
  184.7860  178.2630  143.0010 C   0  0  0  0  0  0  0  0  0  0  0  0
  186.1790  178.4130  145.0110 C   0  0  0  0  0  0  0  0  0  0  0  0
  182.8620  177.0060  140.5980 O   0  0  0  0  0  0  0  0  0  0  0  0
  183.5870  177.9990  140.8710 C   0  0  0  0  0  0  0  0  0  0  0  0
  183.2850  179.2610  140.2900 N   0  0  0  0  0  1  0  0  0  0  0  0
  188.9290  178.2630  143.6620 C   0  0  0  0  0  2  0  0  0  0  0  0
  189.0110  177.3980  142.4230 C   0  0  0  0  0  2  0  0  0  0  0  0
  188.3060  178.2950  141.0140 S   0  0  0  0  0  0  0  0  0  0  0  0
  189.3110  177.3910  139.8310 C   0  0  0  0  0  0  0  0  0  0  0  0
  190.4020  176.7540  140.2470 C   0  0  0  0  0  2  0  0  0  0  0  0
  188.0330  178.9210  136.8370 C   0  0  0  0  0  2  0  0  0  0  0  0
  188.9810  177.4120  138.3710 C   0  0  1  0  0  3  0  0  0  0  0  0
  187.0120  177.9440  137.3660 C   0  0  2  0  0  0  0  0  0  0  0  0
  187.6570  176.9770  138.1600 O   0  0  0  0  0  0  0  0  0  0  0  0
  189.1620  178.8000  137.8030 C   0  0  0  0  0  2  0  0  0  0  0  0
  186.3120  177.2680  136.2060 C   0  0  0  0  0  1  0  0  0  0  0  0
  186.0720  178.6260  138.1390 O   0  0  0  0  0  1  0  0  0  0  0  0
  1  2  1  0  0  0  0
  2  5  1  0  0  0  0
  3  1  2  0  0  0  0
  4 15  1  6  0  0  0
  4  7  1  0  0  0  0
  6 19  1  6  0  0  0
  6  1  1  0  0  0  0
  6  4  1  0  0  0  0
  7  5  2  0  0  0  0
  8 10  1  0  0  0  0
  9  8  2  0  0  0  0
 10 13  1  0  0  0  0
 11 14  1  0  0  0  0
 12 15  1  0  0  0  0
 14  9  1  0  0  0  0
 14 12  2  0  0  0  0
 15 10  2  0  0  0  0
 16 17  2  0  0  0  0
 17 11  1  0  0  0  0
 18 17  1  0  0  0  0
 20 19  1  0  0  0  0
 21 20  1  0  0  0  0
 22 23  2  0  0  0  0
 22 21  1  0  0  0  0
 24 26  1  0  0  0  0
 24 28  1  0  0  0  0
 25 22  1  1  0  0  0
 26 29  1  6  0  0  0
 26 30  1  0  0  0  0
 26 27  1  0  0  0  0
 27 25  1  0  0  0  0
 28 25  1  0  0  0  0
M  END
>  <MODEL>
7

>  <REMARK>
 VINA RESULT:      -9.2      1.693      5.180
  Name = 
  7 active torsions:
  status: ('A' for Active; 'I' for Inactive)
    1  A    between atoms: C_1  and  S_4
    2  A    between atoms: C_1  and  C_5
    3  A    between atoms: S_4  and  C_27
    4  A    between atoms: C_5  and  C_22
    5  A    between atoms: C_8  and  C_27
    6  A    between atoms: C_15  and  N_16
    7  A    between atoms: C_19  and  C_29
                            x       y       z     vdW  Elec       q    Type
                         _______ _______ _______ _____ _____    ______ ____

>  <TORSDO>
F 7

$$$$
=
 OpenBabel10262421473D

 30 32  0  0  1  0  0  0  0  0999 V2000
  182.7620  178.9840  143.9710 C   0  0  0  0  0  0  0  0  0  0  0  0
  181.3380  179.0950  143.8990 N   0  0  0  0  0  2  0  0  0  0  0  0
  183.3430  179.1790  145.0720 O   0  0  0  0  0  0  0  0  0  0  0  0
  182.8090  178.9620  141.4630 C   0  0  2  0  0  3  0  0  0  0  0  0
  180.6470  178.8700  142.6670 C   0  0  0  0  0  3  0  0  0  0  0  0
  183.5350  178.5370  142.7540 C   0  0  1  0  0  3  0  0  0  0  0  0
  181.3170  178.7610  141.5210 C   0  0  0  0  0  3  0  0  0  0  0  0
  185.0840  178.2530  138.3470 C   0  0  0  0  0  3  0  0  0  0  0  0
  184.5930  177.0830  137.9380 C   0  0  0  0  0  3  0  0  0  0  0  0
  184.5190  179.0120  139.5210 C   0  0  0  0  0  0  0  0  0  0  0  0
  182.9370  175.3220  138.2670 N   0  0  0  0  0  2  0  0  0  0  0  0
  182.9030  177.1340  139.8160 C   0  0  0  0  0  3  0  0  0  0  0  0
  184.1010  180.2730  139.0940 O   0  0  0  0  0  1  0  0  0  0  0  0
  183.4570  176.4570  138.6380 C   0  0  0  0  0  0  0  0  0  0  0  0
  183.3870  178.3100  140.2390 C   0  0  0  0  0  0  0  0  0  0  0  0
  182.8170  174.6450  136.0150 O   0  0  0  0  0  0  0  0  0  0  0  0
  183.3290  174.5000  137.1560 C   0  0  0  0  0  0  0  0  0  0  0  0
  184.3170  173.4960  137.3520 N   0  0  0  0  0  1  0  0  0  0  0  0
  184.9490  179.1040  142.7560 C   0  0  0  0  0  2  0  0  0  0  0  0
  185.9550  177.9770  142.8560 C   0  0  0  0  0  2  0  0  0  0  0  0
  186.5110  177.8170  144.5740 S   0  0  0  0  0  0  0  0  0  0  0  0
  188.1970  177.4440  144.0790 C   0  0  0  0  0  0  0  0  0  0  0  0
  188.4180  176.7870  142.9440 C   0  0  0  0  0  2  0  0  0  0  0  0
  191.6800  178.0290  144.7570 C   0  0  0  0  0  2  0  0  0  0  0  0
  189.3500  177.7910  144.9670 C   0  0  1  0  0  3  0  0  0  0  0  0
  191.3000  176.6630  145.2710 C   0  0  2  0  0  0  0  0  0  0  0  0
  189.9150  176.6230  145.5190 O   0  0  0  0  0  0  0  0  0  0  0  0
  190.4020  178.5580  144.2000 C   0  0  0  0  0  2  0  0  0  0  0  0
  192.0560  176.3780  146.5530 C   0  0  0  0  0  1  0  0  0  0  0  0
  191.6280  175.6980  144.3180 O   0  0  0  0  0  1  0  0  0  0  0  0
  1  3  2  0  0  0  0
  2  1  1  0  0  0  0
  4 15  1  6  0  0  0
  4  7  1  0  0  0  0
  4  6  1  0  0  0  0
  5  2  1  0  0  0  0
  6 19  1  1  0  0  0
  6  1  1  0  0  0  0
  7  5  2  0  0  0  0
  8 10  1  0  0  0  0
  9  8  2  0  0  0  0
  9 14  1  0  0  0  0
 10 15  2  0  0  0  0
 11 14  1  0  0  0  0
 12 15  1  0  0  0  0
 13 10  1  0  0  0  0
 14 12  2  0  0  0  0
 16 17  2  0  0  0  0
 17 18  1  0  0  0  0
 17 11  1  0  0  0  0
 19 20  1  0  0  0  0
 20 21  1  0  0  0  0
 22 21  1  0  0  0  0
 23 22  2  0  0  0  0
 24 26  1  0  0  0  0
 25 22  1  6  0  0  0
 25 27  1  0  0  0  0
 26 27  1  0  0  0  0
 26 29  1  1  0  0  0
 28 24  1  0  0  0  0
 28 25  1  0  0  0  0
 30 26  1  0  0  0  0
M  END
>  <MODEL>
8

>  <REMARK>
 VINA RESULT:      -9.1      4.223      7.853
  Name = 
  7 active torsions:
  status: ('A' for Active; 'I' for Inactive)
    1  A    between atoms: C_1  and  S_4
    2  A    between atoms: C_1  and  C_5
    3  A    between atoms: S_4  and  C_27
    4  A    between atoms: C_5  and  C_22
    5  A    between atoms: C_8  and  C_27
    6  A    between atoms: C_15  and  N_16
    7  A    between atoms: C_19  and  C_29
                            x       y       z     vdW  Elec       q    Type
                         _______ _______ _______ _____ _____    ______ ____

>  <TORSDO>
F 7

$$$$
=
 OpenBabel10262421473D

 30 32  0  0  1  0  0  0  0  0999 V2000
  187.5230  177.3780  146.0360 C   0  0  0  0  0  0  0  0  0  0  0  0
  187.2790  178.1870  147.1900 N   0  0  0  0  0  2  0  0  0  0  0  0
  188.5130  176.5980  146.0240 O   0  0  0  0  0  0  0  0  0  0  0  0
  185.8350  178.7660  144.8040 C   0  0  2  0  0  3  0  0  0  0  0  0
  186.1590  179.0750  147.2400 C   0  0  0  0  0  3  0  0  0  0  0  0
  186.5360  177.3970  144.8940 C   0  0  1  0  0  3  0  0  0  0  0  0
  185.4420  179.3270  146.1460 C   0  0  0  0  0  3  0  0  0  0  0  0
  183.6910  178.5970  141.5230 C   0  0  0  0  0  3  0  0  0  0  0  0
  182.4580  178.6310  142.0270 C   0  0  0  0  0  3  0  0  0  0  0  0
  184.9280  178.6830  142.3820 C   0  0  0  0  0  0  0  0  0  0  0  0
  181.0540  178.7930  144.0150 N   0  0  0  0  0  2  0  0  0  0  0  0
  183.4130  178.7820  144.3610 C   0  0  0  0  0  3  0  0  0  0  0  0
  185.6850  179.7860  141.9860 O   0  0  0  0  0  1  0  0  0  0  0  0
  182.2410  178.7440  143.4800 C   0  0  0  0  0  0  0  0  0  0  0  0
  184.6600  178.7470  143.8690 C   0  0  0  0  0  0  0  0  0  0  0  0
  179.2910  177.6870  142.9150 O   0  0  0  0  0  0  0  0  0  0  0  0
  179.7860  178.7630  143.3420 C   0  0  0  0  0  0  0  0  0  0  0  0
  179.0740  179.9790  143.1520 N   0  0  0  0  0  1  0  0  0  0  0  0
  187.2170  177.0820  143.5670 C   0  0  0  0  0  2  0  0  0  0  0  0
  188.5770  177.7440  143.5180 C   0  0  0  0  0  2  0  0  0  0  0  0
  188.7950  178.5520  141.9090 S   0  0  0  0  0  0  0  0  0  0  0  0
  189.5950  177.1080  141.2010 C   0  0  0  0  0  0  0  0  0  0  0  0
  190.4830  176.4290  141.9220 C   0  0  0  0  0  2  0  0  0  0  0  0
  190.0750  177.3490  137.6440 C   0  0  0  0  0  2  0  0  0  0  0  0
  189.3360  176.7080  139.7820 C   0  0  1  0  0  3  0  0  0  0  0  0
  188.7760  178.0220  138.0140 C   0  0  2  0  0  0  0  0  0  0  0  0
  188.3040  177.4940  139.2300 O   0  0  0  0  0  0  0  0  0  0  0  0
  190.5890  176.8470  138.9510 C   0  0  0  0  0  2  0  0  0  0  0  0
  187.7550  177.7800  136.9220 C   0  0  0  0  0  1  0  0  0  0  0  0
  188.9860  179.3940  138.1540 O   0  0  0  0  0  1  0  0  0  0  0  0
  1  2  1  0  0  0  0
  2  5  1  0  0  0  0
  3  1  2  0  0  0  0
  4 15  1  6  0  0  0
  4  6  1  0  0  0  0
  4  7  1  0  0  0  0
  6 19  1  6  0  0  0
  6  1  1  0  0  0  0
  7  5  2  0  0  0  0
  8  9  2  0  0  0  0
  8 10  1  0  0  0  0
  9 14  1  0  0  0  0
 10 15  2  0  0  0  0
 13 10  1  0  0  0  0
 14 11  1  0  0  0  0
 14 12  2  0  0  0  0
 15 12  1  0  0  0  0
 16 17  2  0  0  0  0
 17 11  1  0  0  0  0
 18 17  1  0  0  0  0
 20 19  1  0  0  0  0
 21 20  1  0  0  0  0
 22 21  1  0  0  0  0
 22 23  2  0  0  0  0
 24 26  1  0  0  0  0
 24 28  1  0  0  0  0
 25 22  1  1  0  0  0
 26 29  1  6  0  0  0
 26 30  1  0  0  0  0
 26 27  1  0  0  0  0
 27 25  1  0  0  0  0
 28 25  1  0  0  0  0
M  END
>  <MODEL>
9

>  <REMARK>
 VINA RESULT:      -9.1      2.482      5.956
  Name = 
  7 active torsions:
  status: ('A' for Active; 'I' for Inactive)
    1  A    between atoms: C_1  and  S_4
    2  A    between atoms: C_1  and  C_5
    3  A    between atoms: S_4  and  C_27
    4  A    between atoms: C_5  and  C_22
    5  A    between atoms: C_8  and  C_27
    6  A    between atoms: C_15  and  N_16
    7  A    between atoms: C_19  and  C_29
                            x       y       z     vdW  Elec       q    Type
                         _______ _______ _______ _____ _____    ______ ____

>  <TORSDO>
F 7

$$$$
