=
 OpenBabel10262420543D

 28 30  0  0  1  0  0  0  0  0999 V2000
  191.0200  176.4270  139.2730 C   0  0  0  0  0  2  0  0  0  0  0  0
  186.0870  179.2520  141.7290 C   0  0  0  0  0  1  0  0  0  0  0  0
  188.9590  177.1190  138.0560 C   0  0  2  0  0  3  0  0  0  0  0  0
  189.2650  177.8060  140.4540 C   0  0  0  0  0  0  0  0  0  0  0  0
  190.8050  175.9640  136.7860 C   0  0  2  0  0  3  0  0  0  0  0  0
  189.9620  177.5220  139.1440 C   0  0  1  0  0  3  0  0  0  0  0  0
  187.2450  178.2930  139.2710 O   0  0  0  0  0  0  0  0  0  0  0  0
  189.6700  176.9920  136.7120 C   0  0  0  0  0  2  0  0  0  0  0  0
  187.9380  178.0970  142.9910 C   0  0  2  0  0  3  0  0  0  0  0  0
  190.0410  177.8540  141.7100 C   0  0  0  0  0  3  0  0  0  0  0  0
  187.8590  178.1640  137.9890 C   0  0  0  0  0  2  0  0  0  0  0  0
  187.3490  178.5280  141.7180 N   0  0  0  0  0  0  0  0  0  0  0  0
  190.2580  174.5490  136.8810 C   0  0  0  0  0  1  0  0  0  0  0  0
  191.7630  176.2650  137.9450 C   0  0  0  0  0  2  0  0  0  0  0  0
  187.9760  178.2000  140.4670 C   0  0  0  0  0  0  0  0  0  0  0  0
  189.4480  178.0600  142.8890 C   0  0  0  0  0  0  0  0  0  0  0  0
  187.3960  176.7170  143.3860 C   0  0  0  0  0  3  0  0  0  0  0  0
  187.1390  176.6690  144.7560 O   0  0  0  0  0  1  0  0  0  0  0  0
  188.3200  175.7230  143.0630 O   0  0  0  0  0  1  0  0  0  0  0  0
  190.2970  178.1310  144.1170 C   0  0  0  0  0  2  0  0  0  0  0  0
  191.1630  176.9130  144.2590 C   0  0  0  0  0  3  0  0  0  0  0  0
  191.5840  176.4270  145.4340 C   0  0  0  0  0  3  0  0  0  0  0  0
  191.2440  177.0350  146.7620 C   0  0  0  0  0  2  0  0  0  0  0  0
  189.7990  176.7470  147.1650 C   0  0  0  0  0  2  0  0  0  0  0  0
  189.0750  177.9690  147.7300 C   0  0  2  0  0  3  0  0  0  0  0  0
  189.7210  178.4460  148.8570 F   0  0  0  0  0  0  0  0  0  0  0  0
  186.7580  178.3990  147.6010 O   0  0  0  0  0  0  0  0  0  0  0  0
  187.6410  177.6800  148.0400 C   0  0  0  0  0  3  0  0  0  0  0  0
  3  8  1  6  0  0  0
  3  6  1  0  0  0  0
  4 15  2  0  0  0  0
  4 10  1  0  0  0  0
  5 13  1  1  0  0  0
  5 14  1  0  0  0  0
  6  1  1  1  0  0  0
  6  4  1  0  0  0  0
  7 15  1  0  0  0  0
  8  5  1  0  0  0  0
  9 17  1  6  0  0  0
 10 16  2  0  0  0  0
 11  3  1  0  0  0  0
 11  7  1  0  0  0  0
 12  2  1  0  0  0  0
 12  9  1  0  0  0  0
 14  1  1  0  0  0  0
 15 12  1  0  0  0  0
 16  9  1  0  0  0  0
 16 20  1  0  0  0  0
 17 18  1  0  0  0  0
 19 17  1  0  0  0  0
 20 21  1  0  0  0  0
 21 22  2  0  0  0  0
 22 23  1  0  0  0  0
 23 24  1  0  0  0  0
 24 25  1  0  0  0  0
 25 28  1  0  0  0  0
 25 26  1  1  0  0  0
 27 28  2  0  0  0  0
M  END
>  <MODEL>
1

>  <REMARK>
 VINA RESULT:      -7.9      0.000      0.000
  Name = 
  7 active torsions:
  status: ('A' for Active; 'I' for Inactive)
    1  A    between atoms: C_1  and  C_2
    2  A    between atoms: C_1  and  C_27
    3  A    between atoms: C_3  and  C_8
    4  A    between atoms: C_6  and  C_11
    5  A    between atoms: C_6  and  C_28
    6  A    between atoms: C_8  and  C_11
    7  A    between atoms: C_16  and  C_19
                            x       y       z     vdW  Elec       q    Type
                         _______ _______ _______ _____ _____    ______ ____

>  <TORSDO>
F 7

$$$$
=
 OpenBabel10262420543D

 28 30  0  0  1  0  0  0  0  0999 V2000
  187.6710  178.1440  139.6580 C   0  0  0  0  0  2  0  0  0  0  0  0
  191.6570  175.8670  143.8140 C   0  0  0  0  0  1  0  0  0  0  0  0
  190.0380  177.4960  139.2300 C   0  0  2  0  0  3  0  0  0  0  0  0
  189.0040  176.9880  141.4630 C   0  0  0  0  0  0  0  0  0  0  0  0
  188.6550  178.4160  137.3330 C   0  0  2  0  0  3  0  0  0  0  0  0
  188.7550  177.1160  139.9790 C   0  0  1  0  0  3  0  0  0  0  0  0
  191.3140  176.5430  141.0340 O   0  0  0  0  0  0  0  0  0  0  0  0
  189.7910  177.4650  137.7240 C   0  0  0  0  0  2  0  0  0  0  0  0
  189.4570  176.9940  144.3060 C   0  0  2  0  0  3  0  0  0  0  0  0
  187.8690  176.9900  142.4080 C   0  0  0  0  0  3  0  0  0  0  0  0
  191.1400  176.5250  139.6180 C   0  0  0  0  0  2  0  0  0  0  0  0
  190.4400  176.5010  143.3330 N   0  0  0  0  0  0  0  0  0  0  0  0
  189.0890  179.8680  137.4570 C   0  0  0  0  0  1  0  0  0  0  0  0
  187.3880  178.1470  138.1540 C   0  0  0  0  0  2  0  0  0  0  0  0
  190.2350  176.6830  141.9220 C   0  0  0  0  0  0  0  0  0  0  0  0
  188.0600  176.9210  143.7280 C   0  0  0  0  0  0  0  0  0  0  0  0
  189.7910  178.4350  144.7130 C   0  0  0  0  0  3  0  0  0  0  0  0
  190.9920  178.8390  144.1290 O   0  0  0  0  0  1  0  0  0  0  0  0
  189.9060  178.5330  146.1000 O   0  0  0  0  0  1  0  0  0  0  0  0
  186.8650  176.8920  144.6250 C   0  0  0  0  0  2  0  0  0  0  0  0
  186.4020  178.2780  144.9690 C   0  0  0  0  0  3  0  0  0  0  0  0
  185.3660  178.8900  144.3790 C   0  0  0  0  0  3  0  0  0  0  0  0
  184.5300  178.2680  143.3000 C   0  0  0  0  0  2  0  0  0  0  0  0
  184.7400  178.9550  141.9520 C   0  0  0  0  0  2  0  0  0  0  0  0
  183.7030  178.5550  140.9030 C   0  0  2  0  0  3  0  0  0  0  0  0
  183.4960  177.1870  140.9110 F   0  0  0  0  0  0  0  0  0  0  0  0
  184.4880  180.1500  139.3500 O   0  0  0  0  0  0  0  0  0  0  0  0
  184.0850  179.0120  139.5320 C   0  0  0  0  0  3  0  0  0  0  0  0
  3  8  1  6  0  0  0
  3 11  1  0  0  0  0
  3  6  1  0  0  0  0
  4 15  2  0  0  0  0
  4 10  1  0  0  0  0
  5 13  1  1  0  0  0
  5  8  1  0  0  0  0
  5 14  1  0  0  0  0
  6  1  1  1  0  0  0
  6  4  1  0  0  0  0
  7 15  1  0  0  0  0
  9 17  1  6  0  0  0
 10 16  2  0  0  0  0
 11  7  1  0  0  0  0
 12  2  1  0  0  0  0
 12  9  1  0  0  0  0
 14  1  1  0  0  0  0
 15 12  1  0  0  0  0
 16  9  1  0  0  0  0
 16 20  1  0  0  0  0
 17 19  1  0  0  0  0
 18 17  1  0  0  0  0
 20 21  1  0  0  0  0
 22 21  2  0  0  0  0
 23 22  1  0  0  0  0
 24 23  1  0  0  0  0
 25 26  1  6  0  0  0
 25 24  1  0  0  0  0
 27 28  2  0  0  0  0
 28 25  1  0  0  0  0
M  END
>  <MODEL>
2

>  <REMARK>
 VINA RESULT:      -7.3      2.943      5.364
  Name = 
  7 active torsions:
  status: ('A' for Active; 'I' for Inactive)
    1  A    between atoms: C_1  and  C_2
    2  A    between atoms: C_1  and  C_27
    3  A    between atoms: C_3  and  C_8
    4  A    between atoms: C_6  and  C_11
    5  A    between atoms: C_6  and  C_28
    6  A    between atoms: C_8  and  C_11
    7  A    between atoms: C_16  and  C_19
                            x       y       z     vdW  Elec       q    Type
                         _______ _______ _______ _____ _____    ______ ____

>  <TORSDO>
F 7

$$$$
=
 OpenBabel10262420543D

 28 30  0  0  1  0  0  0  0  0999 V2000
  183.3520  177.1410  139.3920 C   0  0  0  0  0  2  0  0  0  0  0  0
  179.1660  180.9080  141.9690 C   0  0  0  0  0  1  0  0  0  0  0  0
  181.4560  178.2570  138.2240 C   0  0  2  0  0  3  0  0  0  0  0  0
  181.9470  178.8440  140.6180 C   0  0  0  0  0  0  0  0  0  0  0  0
  182.9940  176.7560  136.9080 C   0  0  2  0  0  3  0  0  0  0  0  0
  182.5420  178.4330  139.2920 C   0  0  1  0  0  3  0  0  0  0  0  0
  180.0490  179.7510  139.4820 O   0  0  0  0  0  0  0  0  0  0  0  0
  182.0980  177.9980  136.8640 C   0  0  0  0  0  2  0  0  0  0  0  0
  180.7610  179.3820  143.1850 C   0  0  2  0  0  3  0  0  0  0  0  0
  182.7410  178.7170  141.8570 C   0  0  0  0  0  3  0  0  0  0  0  0
  180.5960  179.5090  138.1860 C   0  0  0  0  0  2  0  0  0  0  0  0
  180.2490  179.9370  141.9260 N   0  0  0  0  0  0  0  0  0  0  0  0
  182.1670  175.4850  137.0090 C   0  0  0  0  0  1  0  0  0  0  0  0
  184.0170  176.8400  138.0480 C   0  0  0  0  0  2  0  0  0  0  0  0
  180.7690  179.4980  140.6600 C   0  0  0  0  0  0  0  0  0  0  0  0
  182.2280  179.0320  143.0500 C   0  0  0  0  0  0  0  0  0  0  0  0
  179.9520  178.1410  143.5840 C   0  0  0  0  0  3  0  0  0  0  0  0
  179.3890  177.5440  142.4560 O   0  0  0  0  0  1  0  0  0  0  0  0
  178.9310  178.4910  144.4690 O   0  0  0  0  0  1  0  0  0  0  0  0
  183.0980  178.9140  144.2580 C   0  0  0  0  0  2  0  0  0  0  0  0
  184.5180  178.5990  143.8860 C   0  0  0  0  0  3  0  0  0  0  0  0
  185.4810  178.3190  144.7740 C   0  0  0  0  0  3  0  0  0  0  0  0
  185.2650  178.2790  146.2580 C   0  0  0  0  0  2  0  0  0  0  0  0
  186.5060  178.7320  147.0240 C   0  0  0  0  0  2  0  0  0  0  0  0
  187.4570  177.5840  147.3650 C   0  0  2  0  0  3  0  0  0  0  0  0
  187.7590  177.5790  148.7150 F   0  0  0  0  0  0  0  0  0  0  0  0
  188.7370  177.1720  145.4250 O   0  0  0  0  0  0  0  0  0  0  0  0
  188.7120  177.6340  146.5550 C   0  0  0  0  0  3  0  0  0  0  0  0
  3  8  1  6  0  0  0
  3  6  1  0  0  0  0
  4 15  2  0  0  0  0
  4 10  1  0  0  0  0
  5 13  1  1  0  0  0
  5 14  1  0  0  0  0
  6  1  1  1  0  0  0
  6  4  1  0  0  0  0
  7 15  1  0  0  0  0
  8  5  1  0  0  0  0
  9 17  1  6  0  0  0
 10 16  2  0  0  0  0
 11  3  1  0  0  0  0
 11  7  1  0  0  0  0
 12  2  1  0  0  0  0
 12  9  1  0  0  0  0
 14  1  1  0  0  0  0
 15 12  1  0  0  0  0
 16  9  1  0  0  0  0
 16 20  1  0  0  0  0
 17 19  1  0  0  0  0
 18 17  1  0  0  0  0
 21 20  1  0  0  0  0
 21 22  2  0  0  0  0
 22 23  1  0  0  0  0
 23 24  1  0  0  0  0
 24 25  1  0  0  0  0
 25 26  1  1  0  0  0
 27 28  2  0  0  0  0
 28 25  1  0  0  0  0
M  END
>  <MODEL>
3

>  <REMARK>
 VINA RESULT:      -7.1      5.103      6.906
  Name = 
  7 active torsions:
  status: ('A' for Active; 'I' for Inactive)
    1  A    between atoms: C_1  and  C_2
    2  A    between atoms: C_1  and  C_27
    3  A    between atoms: C_3  and  C_8
    4  A    between atoms: C_6  and  C_11
    5  A    between atoms: C_6  and  C_28
    6  A    between atoms: C_8  and  C_11
    7  A    between atoms: C_16  and  C_19
                            x       y       z     vdW  Elec       q    Type
                         _______ _______ _______ _____ _____    ______ ____

>  <TORSDO>
F 7

$$$$
=
 OpenBabel10262420543D

 28 30  0  0  1  0  0  0  0  0999 V2000
  190.4530  176.2110  137.5460 C   0  0  0  0  0  2  0  0  0  0  0  0
  186.7350  179.0720  141.5880 C   0  0  0  0  0  1  0  0  0  0  0  0
  188.1600  177.0700  137.0880 C   0  0  2  0  0  3  0  0  0  0  0  0
  189.2510  177.5810  139.2930 C   0  0  0  0  0  0  0  0  0  0  0  0
  189.4340  175.9260  135.2380 C   0  0  2  0  0  3  0  0  0  0  0  0
  189.4780  177.3560  137.8170 C   0  0  1  0  0  3  0  0  0  0  0  0
  186.9940  178.2320  138.8440 O   0  0  0  0  0  0  0  0  0  0  0  0
  188.4000  177.0040  135.5820 C   0  0  0  0  0  2  0  0  0  0  0  0
  188.8140  177.7570  142.1330 C   0  0  2  0  0  3  0  0  0  0  0  0
  190.3850  177.5110  140.2370 C   0  0  0  0  0  3  0  0  0  0  0  0
  187.1610  178.1630  137.4280 C   0  0  0  0  0  2  0  0  0  0  0  0
  187.8810  178.2970  141.1380 N   0  0  0  0  0  0  0  0  0  0  0  0
  188.8590  174.5320  135.4320 C   0  0  0  0  0  1  0  0  0  0  0  0
  190.7260  176.1070  136.0440 C   0  0  0  0  0  2  0  0  0  0  0  0
  188.0590  178.0280  139.7370 C   0  0  0  0  0  0  0  0  0  0  0  0
  190.2090  177.6620  141.5520 C   0  0  0  0  0  0  0  0  0  0  0  0
  188.3410  176.3780  142.6100 C   0  0  0  0  0  3  0  0  0  0  0  0
  187.5870  176.5000  143.7780 O   0  0  0  0  0  1  0  0  0  0  0  0
  189.4360  175.5500  142.8620 O   0  0  0  0  0  1  0  0  0  0  0  0
  191.4060  177.6150  142.4450 C   0  0  0  0  0  2  0  0  0  0  0  0
  191.4500  178.7960  143.3710 C   0  0  0  0  0  3  0  0  0  0  0  0
  191.0750  178.7550  144.6560 C   0  0  0  0  0  3  0  0  0  0  0  0
  190.5670  177.5200  145.3410 C   0  0  0  0  0  2  0  0  0  0  0  0
  191.7020  176.7050  145.9580 C   0  0  0  0  0  2  0  0  0  0  0  0
  191.3880  176.2050  147.3680 C   0  0  2  0  0  3  0  0  0  0  0  0
  190.7570  177.1870  148.1100 F   0  0  0  0  0  0  0  0  0  0  0  0
  193.2250  176.4720  148.8260 O   0  0  0  0  0  0  0  0  0  0  0  0
  192.6110  175.7250  148.0800 C   0  0  0  0  0  3  0  0  0  0  0  0
  3  8  1  6  0  0  0
  3 11  1  0  0  0  0
  3  6  1  0  0  0  0
  4 15  2  0  0  0  0
  4 10  1  0  0  0  0
  5 13  1  1  0  0  0
  5  8  1  0  0  0  0
  5 14  1  0  0  0  0
  6  1  1  1  0  0  0
  6  4  1  0  0  0  0
  7 15  1  0  0  0  0
  9 17  1  6  0  0  0
 10 16  2  0  0  0  0
 11  7  1  0  0  0  0
 12  2  1  0  0  0  0
 12  9  1  0  0  0  0
 14  1  1  0  0  0  0
 15 12  1  0  0  0  0
 16  9  1  0  0  0  0
 16 20  1  0  0  0  0
 17 19  1  0  0  0  0
 17 18  1  0  0  0  0
 20 21  1  0  0  0  0
 21 22  2  0  0  0  0
 22 23  1  0  0  0  0
 23 24  1  0  0  0  0
 24 25  1  0  0  0  0
 25 28  1  0  0  0  0
 25 26  1  1  0  0  0
 28 27  2  0  0  0  0
M  END
>  <MODEL>
4

>  <REMARK>
 VINA RESULT:      -7.0      1.778      2.298
  Name = 
  7 active torsions:
  status: ('A' for Active; 'I' for Inactive)
    1  A    between atoms: C_1  and  C_2
    2  A    between atoms: C_1  and  C_27
    3  A    between atoms: C_3  and  C_8
    4  A    between atoms: C_6  and  C_11
    5  A    between atoms: C_6  and  C_28
    6  A    between atoms: C_8  and  C_11
    7  A    between atoms: C_16  and  C_19
                            x       y       z     vdW  Elec       q    Type
                         _______ _______ _______ _____ _____    ______ ____

>  <TORSDO>
F 7

$$$$
=
 OpenBabel10262420543D

 28 30  0  0  1  0  0  0  0  0999 V2000
  187.6510  178.2260  139.6060 C   0  0  0  0  0  2  0  0  0  0  0  0
  191.6810  175.8600  143.6690 C   0  0  0  0  0  1  0  0  0  0  0  0
  189.9930  177.5270  139.1240 C   0  0  2  0  0  3  0  0  0  0  0  0
  189.0000  177.0400  141.3800 C   0  0  0  0  0  0  0  0  0  0  0  0
  188.5880  178.4780  137.2590 C   0  0  2  0  0  3  0  0  0  0  0  0
  188.7190  177.1750  139.9020 C   0  0  1  0  0  3  0  0  0  0  0  0
  191.2890  176.5450  140.8980 O   0  0  0  0  0  0  0  0  0  0  0  0
  189.7110  177.5020  137.6230 C   0  0  0  0  0  2  0  0  0  0  0  0
  189.5180  177.0350  144.2110 C   0  0  2  0  0  3  0  0  0  0  0  0
  187.8870  177.0670  142.3510 C   0  0  0  0  0  3  0  0  0  0  0  0
  191.0820  176.5320  139.4860 C   0  0  0  0  0  2  0  0  0  0  0  0
  190.4660  176.5210  143.2160 N   0  0  0  0  0  0  0  0  0  0  0  0
  189.0550  179.9200  137.3730 C   0  0  0  0  0  1  0  0  0  0  0  0
  187.3340  178.2360  138.1090 C   0  0  0  0  0  2  0  0  0  0  0  0
  190.2340  176.7080  141.8100 C   0  0  0  0  0  0  0  0  0  0  0  0
  188.1060  176.9930  143.6660 C   0  0  0  0  0  0  0  0  0  0  0  0
  189.8930  178.4670  144.6110 C   0  0  0  0  0  3  0  0  0  0  0  0
  190.6690  179.0620  143.6160 O   0  0  0  0  0  1  0  0  0  0  0  0
  190.6120  178.4660  145.8070 O   0  0  0  0  0  1  0  0  0  0  0  0
  186.9320  176.9900  144.5900 C   0  0  0  0  0  2  0  0  0  0  0  0
  186.1510  178.2680  144.4910 C   0  0  0  0  0  3  0  0  0  0  0  0
  185.6570  178.9280  145.5470 C   0  0  0  0  0  3  0  0  0  0  0  0
  185.8230  178.4770  146.9680 C   0  0  0  0  0  2  0  0  0  0  0  0
  186.9780  179.1970  147.6610 C   0  0  0  0  0  2  0  0  0  0  0  0
  187.9090  178.2530  148.4210 C   0  0  2  0  0  3  0  0  0  0  0  0
  189.1460  178.8390  148.6250 F   0  0  0  0  0  0  0  0  0  0  0  0
  189.1520  176.3780  147.7080 O   0  0  0  0  0  0  0  0  0  0  0  0
  188.0690  176.9390  147.7260 C   0  0  0  0  0  3  0  0  0  0  0  0
  3  8  1  6  0  0  0
  3 11  1  0  0  0  0
  3  6  1  0  0  0  0
  4 15  2  0  0  0  0
  4 10  1  0  0  0  0
  5 13  1  1  0  0  0
  5  8  1  0  0  0  0
  5 14  1  0  0  0  0
  6  1  1  1  0  0  0
  6  4  1  0  0  0  0
  7 15  1  0  0  0  0
  9 17  1  6  0  0  0
 10 16  2  0  0  0  0
 11  7  1  0  0  0  0
 12  2  1  0  0  0  0
 12  9  1  0  0  0  0
 14  1  1  0  0  0  0
 15 12  1  0  0  0  0
 16  9  1  0  0  0  0
 16 20  1  0  0  0  0
 17 19  1  0  0  0  0
 18 17  1  0  0  0  0
 21 20  1  0  0  0  0
 21 22  2  0  0  0  0
 22 23  1  0  0  0  0
 23 24  1  0  0  0  0
 24 25  1  0  0  0  0
 25 26  1  6  0  0  0
 27 28  2  0  0  0  0
 28 25  1  0  0  0  0
M  END
>  <MODEL>
5

>  <REMARK>
 VINA RESULT:      -7.0      2.160      3.787
  Name = 
  7 active torsions:
  status: ('A' for Active; 'I' for Inactive)
    1  A    between atoms: C_1  and  C_2
    2  A    between atoms: C_1  and  C_27
    3  A    between atoms: C_3  and  C_8
    4  A    between atoms: C_6  and  C_11
    5  A    between atoms: C_6  and  C_28
    6  A    between atoms: C_8  and  C_11
    7  A    between atoms: C_16  and  C_19
                            x       y       z     vdW  Elec       q    Type
                         _______ _______ _______ _____ _____    ______ ____

>  <TORSDO>
F 7

$$$$
=
 OpenBabel10262420543D

 28 30  0  0  1  0  0  0  0  0999 V2000
  188.2960  177.6410  141.7850 C   0  0  0  0  0  2  0  0  0  0  0  0
  188.0000  177.5850  135.6000 C   0  0  0  0  0  1  0  0  0  0  0  0
  190.1830  177.1880  140.2220 C   0  0  2  0  0  3  0  0  0  0  0  0
  187.9710  177.9450  139.3000 C   0  0  0  0  0  0  0  0  0  0  0  0
  190.6050  177.1240  142.7070 C   0  0  2  0  0  3  0  0  0  0  0  0
  188.9350  178.0480  140.4580 C   0  0  1  0  0  3  0  0  0  0  0  0
  189.7760  177.3360  137.8550 O   0  0  0  0  0  0  0  0  0  0  0  0
  191.2030  177.4350  141.3310 C   0  0  0  0  0  2  0  0  0  0  0  0
  186.0500  177.5320  137.1960 C   0  0  2  0  0  3  0  0  0  0  0  0
  186.5690  178.3840  139.4610 C   0  0  0  0  0  3  0  0  0  0  0  0
  190.7670  177.5310  138.8630 C   0  0  0  0  0  2  0  0  0  0  0  0
  187.4980  177.6010  136.9660 N   0  0  0  0  0  0  0  0  0  0  0  0
  190.4240  175.6270  142.9010 C   0  0  0  0  0  1  0  0  0  0  0  0
  189.2850  177.8730  142.9290 C   0  0  0  0  0  2  0  0  0  0  0  0
  188.4200  177.6310  138.0680 C   0  0  0  0  0  0  0  0  0  0  0  0
  185.6830  178.2650  138.4690 C   0  0  0  0  0  0  0  0  0  0  0  0
  185.5940  176.0700  137.2730 C   0  0  0  0  0  3  0  0  0  0  0  0
  186.6860  175.2120  137.1390 O   0  0  0  0  0  1  0  0  0  0  0  0
  184.6750  175.7940  136.2600 O   0  0  0  0  0  1  0  0  0  0  0  0
  184.2910  178.7610  138.6890 C   0  0  0  0  0  2  0  0  0  0  0  0
  183.4280  177.7140  139.3310 C   0  0  0  0  0  3  0  0  0  0  0  0
  183.1600  177.6660  140.6420 C   0  0  0  0  0  3  0  0  0  0  0  0
  183.6840  178.6540  141.6410 C   0  0  0  0  0  2  0  0  0  0  0  0
  184.7440  178.0350  142.5500 C   0  0  0  0  0  2  0  0  0  0  0  0
  185.0030  178.8490  143.8180 C   0  0  2  0  0  3  0  0  0  0  0  0
  185.9870  178.2580  144.5900 F   0  0  0  0  0  0  0  0  0  0  0  0
  183.8030  179.0060  145.8440 O   0  0  0  0  0  0  0  0  0  0  0  0
  183.7610  179.0460  144.6240 C   0  0  0  0  0  3  0  0  0  0  0  0
  1 14  1  0  0  0  0
  2 12  1  0  0  0  0
  3 11  1  6  0  0  0
  3  6  1  0  0  0  0
  3  8  1  0  0  0  0
  4 10  1  0  0  0  0
  4  6  1  0  0  0  0
  5 13  1  6  0  0  0
  5 14  1  0  0  0  0
  6  1  1  1  0  0  0
  7 15  1  0  0  0  0
  7 11  1  0  0  0  0
  8  5  1  0  0  0  0
  9 17  1  1  0  0  0
  9 16  1  0  0  0  0
 12  9  1  0  0  0  0
 12 15  1  0  0  0  0
 15  4  2  0  0  0  0
 16 20  1  0  0  0  0
 16 10  2  0  0  0  0
 18 17  1  0  0  0  0
 19 17  1  0  0  0  0
 20 21  1  0  0  0  0
 21 22  2  0  0  0  0
 22 23  1  0  0  0  0
 23 24  1  0  0  0  0
 24 25  1  0  0  0  0
 25 26  1  1  0  0  0
 25 28  1  0  0  0  0
 28 27  2  0  0  0  0
M  END
>  <MODEL>
6

>  <REMARK>
 VINA RESULT:      -6.9      3.101      5.938
  Name = 
  7 active torsions:
  status: ('A' for Active; 'I' for Inactive)
    1  A    between atoms: C_1  and  C_2
    2  A    between atoms: C_1  and  C_27
    3  A    between atoms: C_3  and  C_8
    4  A    between atoms: C_6  and  C_11
    5  A    between atoms: C_6  and  C_28
    6  A    between atoms: C_8  and  C_11
    7  A    between atoms: C_16  and  C_19
                            x       y       z     vdW  Elec       q    Type
                         _______ _______ _______ _____ _____    ______ ____

>  <TORSDO>
F 7

$$$$
=
 OpenBabel10262420543D

 28 30  0  0  1  0  0  0  0  0999 V2000
  188.1550  177.6330  142.2840 C   0  0  0  0  0  2  0  0  0  0  0  0
  187.1660  178.2390  136.2020 C   0  0  0  0  0  1  0  0  0  0  0  0
  189.8240  177.2550  140.4740 C   0  0  2  0  0  3  0  0  0  0  0  0
  187.5730  178.2110  139.8960 C   0  0  0  0  0  0  0  0  0  0  0  0
  190.5170  176.9110  142.8730 C   0  0  2  0  0  3  0  0  0  0  0  0
  188.6650  178.1450  140.9380 C   0  0  1  0  0  3  0  0  0  0  0  0
  189.1650  177.6690  138.1960 O   0  0  0  0  0  0  0  0  0  0  0  0
  190.9750  177.3340  141.4740 C   0  0  0  0  0  2  0  0  0  0  0  0
  185.4080  178.1140  138.0020 C   0  0  2  0  0  3  0  0  0  0  0  0
  186.2280  178.6980  140.2630 C   0  0  0  0  0  3  0  0  0  0  0  0
  190.2730  177.7100  139.0960 C   0  0  0  0  0  2  0  0  0  0  0  0
  186.8220  178.1360  137.6110 N   0  0  0  0  0  0  0  0  0  0  0  0
  190.2690  175.4120  142.9400 C   0  0  0  0  0  1  0  0  0  0  0  0
  189.2780  177.6960  143.3220 C   0  0  0  0  0  2  0  0  0  0  0  0
  187.8620  178.0070  138.5950 C   0  0  0  0  0  0  0  0  0  0  0  0
  185.2300  178.7270  139.3750 C   0  0  0  0  0  0  0  0  0  0  0  0
  184.8760  176.6760  137.9880 C   0  0  0  0  0  3  0  0  0  0  0  0
  185.7090  175.8570  137.2250 O   0  0  0  0  0  1  0  0  0  0  0  0
  183.5890  176.6400  137.4500 O   0  0  0  0  0  1  0  0  0  0  0  0
  183.9040  179.2650  139.8040 C   0  0  0  0  0  2  0  0  0  0  0  0
  183.1450  178.2670  140.6300 C   0  0  0  0  0  3  0  0  0  0  0  0
  183.1560  178.2400  141.9690 C   0  0  0  0  0  3  0  0  0  0  0  0
  183.9240  179.2080  142.8200 C   0  0  0  0  0  2  0  0  0  0  0  0
  184.0310  178.7310  144.2670 C   0  0  0  0  0  2  0  0  0  0  0  0
  185.4740  178.5950  144.7530 C   0  0  2  0  0  3  0  0  0  0  0  0
  185.9590  177.3240  144.5040 F   0  0  0  0  0  0  0  0  0  0  0  0
  184.7040  178.6820  146.9820 O   0  0  0  0  0  0  0  0  0  0  0  0
  185.6120  178.9260  146.2040 C   0  0  0  0  0  3  0  0  0  0  0  0
  1 14  1  0  0  0  0
  2 12  1  0  0  0  0
  3 11  1  6  0  0  0
  3  6  1  0  0  0  0
  3  8  1  0  0  0  0
  4 10  1  0  0  0  0
  4  6  1  0  0  0  0
  5 13  1  6  0  0  0
  5 14  1  0  0  0  0
  6  1  1  1  0  0  0
  7 15  1  0  0  0  0
  7 11  1  0  0  0  0
  8  5  1  0  0  0  0
  9 17  1  1  0  0  0
  9 16  1  0  0  0  0
 12  9  1  0  0  0  0
 12 15  1  0  0  0  0
 15  4  2  0  0  0  0
 16 20  1  0  0  0  0
 16 10  2  0  0  0  0
 18 17  1  0  0  0  0
 19 17  1  0  0  0  0
 20 21  1  0  0  0  0
 21 22  2  0  0  0  0
 22 23  1  0  0  0  0
 23 24  1  0  0  0  0
 24 25  1  0  0  0  0
 25 26  1  1  0  0  0
 25 28  1  0  0  0  0
 28 27  2  0  0  0  0
M  END
>  <MODEL>
7

>  <REMARK>
 VINA RESULT:      -6.9      2.816      5.613
  Name = 
  7 active torsions:
  status: ('A' for Active; 'I' for Inactive)
    1  A    between atoms: C_1  and  C_2
    2  A    between atoms: C_1  and  C_27
    3  A    between atoms: C_3  and  C_8
    4  A    between atoms: C_6  and  C_11
    5  A    between atoms: C_6  and  C_28
    6  A    between atoms: C_8  and  C_11
    7  A    between atoms: C_16  and  C_19
                            x       y       z     vdW  Elec       q    Type
                         _______ _______ _______ _____ _____    ______ ____

>  <TORSDO>
F 7

$$$$
=
 OpenBabel10262420543D

 28 30  0  0  1  0  0  0  0  0999 V2000
  191.0960  177.1940  141.6940 C   0  0  0  0  0  2  0  0  0  0  0  0
  185.8320  178.1990  138.5920 C   0  0  0  0  0  1  0  0  0  0  0  0
  189.0000  178.1690  142.6230 C   0  0  2  0  0  3  0  0  0  0  0  0
  189.0020  177.2490  140.2840 C   0  0  0  0  0  0  0  0  0  0  0  0
  190.9990  177.8950  144.1330 C   0  0  2  0  0  3  0  0  0  0  0  0
  189.5700  177.1060  141.6770 C   0  0  1  0  0  3  0  0  0  0  0  0
  187.0770  178.3450  141.1860 O   0  0  0  0  0  0  0  0  0  0  0  0
  189.4690  177.9030  144.0510 C   0  0  0  0  0  2  0  0  0  0  0  0
  188.0910  177.7020  137.5920 C   0  0  2  0  0  3  0  0  0  0  0  0
  189.6630  176.5850  139.1420 C   0  0  0  0  0  3  0  0  0  0  0  0
  187.4830  178.1410  142.5380 C   0  0  0  0  0  2  0  0  0  0  0  0
  187.2410  177.8890  138.7740 N   0  0  0  0  0  0  0  0  0  0  0  0
  191.5650  179.2970  143.9710 C   0  0  0  0  0  1  0  0  0  0  0  0
  191.6130  176.9310  143.1100 C   0  0  0  0  0  2  0  0  0  0  0  0
  187.7950  177.8200  140.0990 C   0  0  0  0  0  0  0  0  0  0  0  0
  189.2090  176.7270  137.8940 C   0  0  0  0  0  0  0  0  0  0  0  0
  188.6670  179.0480  137.1350 C   0  0  0  0  0  3  0  0  0  0  0  0
  189.1310  179.7760  138.2310 O   0  0  0  0  0  1  0  0  0  0  0  0
  187.6900  179.7960  136.4760 O   0  0  0  0  0  1  0  0  0  0  0  0
  189.9060  175.9990  136.7910 C   0  0  0  0  0  2  0  0  0  0  0  0
  189.8080  174.5110  136.9660 C   0  0  0  0  0  3  0  0  0  0  0  0
  190.8260  173.6650  136.7580 C   0  0  0  0  0  3  0  0  0  0  0  0
  192.1970  174.0940  136.3270 C   0  0  0  0  0  2  0  0  0  0  0  0
  193.1060  174.3740  137.5230 C   0  0  0  0  0  2  0  0  0  0  0  0
  193.7580  175.7560  137.4740 C   0  0  2  0  0  3  0  0  0  0  0  0
  192.8750  176.7330  137.8980 F   0  0  0  0  0  0  0  0  0  0  0  0
  194.8320  177.1520  135.9030 O   0  0  0  0  0  0  0  0  0  0  0  0
  194.2780  176.0850  136.1120 C   0  0  0  0  0  3  0  0  0  0  0  0
  1 14  1  0  0  0  0
  2 12  1  0  0  0  0
  3 11  1  1  0  0  0
  3  8  1  0  0  0  0
  4  6  1  0  0  0  0
  5 13  1  6  0  0  0
  6  1  1  6  0  0  0
  6  3  1  0  0  0  0
  7 11  1  0  0  0  0
  8  5  1  0  0  0  0
  9 17  1  1  0  0  0
  9 16  1  0  0  0  0
  9 12  1  0  0  0  0
 10  4  1  0  0  0  0
 12 15  1  0  0  0  0
 14  5  1  0  0  0  0
 15  4  2  0  0  0  0
 15  7  1  0  0  0  0
 16 10  2  0  0  0  0
 17 18  1  0  0  0  0
 19 17  1  0  0  0  0
 20 21  1  0  0  0  0
 20 16  1  0  0  0  0
 22 21  2  0  0  0  0
 23 22  1  0  0  0  0
 23 24  1  0  0  0  0
 25 24  1  0  0  0  0
 25 26  1  6  0  0  0
 27 28  2  0  0  0  0
 28 25  1  0  0  0  0
M  END
>  <MODEL>
8

>  <REMARK>
 VINA RESULT:      -6.6      3.224      7.583
  Name = 
  7 active torsions:
  status: ('A' for Active; 'I' for Inactive)
    1  A    between atoms: C_1  and  C_2
    2  A    between atoms: C_1  and  C_27
    3  A    between atoms: C_3  and  C_8
    4  A    between atoms: C_6  and  C_11
    5  A    between atoms: C_6  and  C_28
    6  A    between atoms: C_8  and  C_11
    7  A    between atoms: C_16  and  C_19
                            x       y       z     vdW  Elec       q    Type
                         _______ _______ _______ _____ _____    ______ ____

>  <TORSDO>
F 7

$$$$
=
 OpenBabel10262420543D

 28 30  0  0  1  0  0  0  0  0999 V2000
  188.0850  177.6120  140.6250 C   0  0  0  0  0  2  0  0  0  0  0  0
  193.2580  176.4340  137.4310 C   0  0  0  0  0  1  0  0  0  0  0  0
  190.3720  177.3270  141.5730 C   0  0  2  0  0  3  0  0  0  0  0  0
  190.0710  177.4060  139.0790 C   0  0  0  0  0  0  0  0  0  0  0  0
  188.4450  177.7840  143.1320 C   0  0  2  0  0  3  0  0  0  0  0  0
  189.5670  177.9170  140.4080 C   0  0  1  0  0  3  0  0  0  0  0  0
  192.2090  176.9740  140.0590 O   0  0  0  0  0  0  0  0  0  0  0  0
  189.9440  177.9790  142.8850 C   0  0  0  0  0  2  0  0  0  0  0  0
  190.8930  176.2250  136.5860 C   0  0  2  0  0  3  0  0  0  0  0  0
  189.2380  177.5450  137.8670 C   0  0  0  0  0  3  0  0  0  0  0  0
  191.8510  177.5530  141.3130 C   0  0  0  0  0  2  0  0  0  0  0  0
  191.8290  176.5720  137.6620 N   0  0  0  0  0  0  0  0  0  0  0  0
  188.1310  176.3400  143.4900 C   0  0  0  0  0  1  0  0  0  0  0  0
  187.6110  178.2490  141.9320 C   0  0  0  0  0  2  0  0  0  0  0  0
  191.3480  176.9940  138.9500 C   0  0  0  0  0  0  0  0  0  0  0  0
  189.6380  177.0650  136.6870 C   0  0  0  0  0  0  0  0  0  0  0  0
  190.5420  174.7330  136.6490 C   0  0  0  0  0  3  0  0  0  0  0  0
  190.9620  174.1850  137.8610 O   0  0  0  0  0  1  0  0  0  0  0  0
  191.1590  174.0450  135.6030 O   0  0  0  0  0  1  0  0  0  0  0  0
  188.7600  177.2710  135.4950 C   0  0  0  0  0  2  0  0  0  0  0  0
  187.6550  176.2560  135.4420 C   0  0  0  0  0  3  0  0  0  0  0  0
  186.3820  176.5180  135.7680 C   0  0  0  0  0  3  0  0  0  0  0  0
  185.8940  177.8610  136.2230 C   0  0  0  0  0  2  0  0  0  0  0  0
  185.8150  177.9500  137.7460 C   0  0  0  0  0  2  0  0  0  0  0  0
  184.3850  178.0820  138.2700 C   0  0  2  0  0  3  0  0  0  0  0  0
  183.4730  178.0230  137.2310 F   0  0  0  0  0  0  0  0  0  0  0  0
  184.9100  179.5850  140.0120 O   0  0  0  0  0  0  0  0  0  0  0  0
  184.1890  179.3350  139.0600 C   0  0  0  0  0  3  0  0  0  0  0  0
  1 14  1  0  0  0  0
  2 12  1  0  0  0  0
  3 11  1  6  0  0  0
  3  8  1  0  0  0  0
  4  6  1  0  0  0  0
  5 13  1  6  0  0  0
  6  1  1  1  0  0  0
  6  3  1  0  0  0  0
  7 11  1  0  0  0  0
  8  5  1  0  0  0  0
  9 17  1  1  0  0  0
  9 16  1  0  0  0  0
  9 12  1  0  0  0  0
 10  4  1  0  0  0  0
 12 15  1  0  0  0  0
 14  5  1  0  0  0  0
 15  4  2  0  0  0  0
 15  7  1  0  0  0  0
 16 10  2  0  0  0  0
 17 18  1  0  0  0  0
 19 17  1  0  0  0  0
 20 16  1  0  0  0  0
 21 20  1  0  0  0  0
 21 22  2  0  0  0  0
 22 23  1  0  0  0  0
 23 24  1  0  0  0  0
 24 25  1  0  0  0  0
 25 26  1  6  0  0  0
 25 28  1  0  0  0  0
 28 27  2  0  0  0  0
M  END
>  <MODEL>
9

>  <REMARK>
 VINA RESULT:      -6.4      4.024      7.737
  Name = 
  7 active torsions:
  status: ('A' for Active; 'I' for Inactive)
    1  A    between atoms: C_1  and  C_2
    2  A    between atoms: C_1  and  C_27
    3  A    between atoms: C_3  and  C_8
    4  A    between atoms: C_6  and  C_11
    5  A    between atoms: C_6  and  C_28
    6  A    between atoms: C_8  and  C_11
    7  A    between atoms: C_16  and  C_19
                            x       y       z     vdW  Elec       q    Type
                         _______ _______ _______ _____ _____    ______ ____

>  <TORSDO>
F 7

$$$$
