=
 OpenBabel10262419443D

 25 28  0  0  1  0  0  0  0  0999 V2000
  187.0200  178.1420  142.9900 N   0  0  0  0  0  0  0  0  0  0  0  0
  188.1920  177.5340  143.3250 C   0  0  0  0  0  0  0  0  0  0  0  0
  187.7630  178.5670  140.7740 C   0  0  0  0  0  3  0  0  0  0  0  0
  185.8940  178.3800  143.6830 C   0  0  0  0  0  0  0  0  0  0  0  0
  190.2630  176.8980  146.3900 N   0  0  0  0  0  2  0  0  0  0  0  0
  183.2130  178.7500  144.5430 C   0  0  0  0  0  2  0  0  0  0  0  0
  188.9440  177.9600  141.0850 N   0  0  0  0  0  0  0  0  0  0  0  0
  185.0060  179.0040  142.8370 C   0  0  0  0  0  0  0  0  0  0  0  0
  183.6540  179.4820  143.2660 C   0  0  0  0  0  2  0  0  0  0  0  0
  190.4740  176.7320  142.6480 C   0  0  1  0  0  3  0  0  0  0  0  0
  191.6430  177.2900  141.8540 C   0  0  0  0  0  1  0  0  0  0  0  0
  188.4170  176.9060  144.6710 C   0  0  0  0  0  2  0  0  0  0  0  0
  184.3370  178.7290  145.5900 C   0  0  0  0  0  2  0  0  0  0  0  0
  186.7890  178.6530  141.7650 C   0  0  0  0  0  0  0  0  0  0  0  0
  185.5630  179.2040  141.6210 N   0  0  0  0  0  0  0  0  0  0  0  0
  190.7860  176.8060  144.0780 N   0  0  0  0  0  0  0  0  0  0  0  0
  185.5580  177.9500  145.0790 C   0  0  0  0  0  2  0  0  0  0  0  0
  189.8800  176.8710  145.0130 C   0  0  0  0  0  0  0  0  0  0  0  0
  189.1900  177.4550  142.3350 C   0  0  0  0  0  0  0  0  0  0  0  0
  191.6540  176.8930  146.8260 C   0  0  1  0  0  3  0  0  0  0  0  0
  191.7810  177.6330  148.0040 O   0  0  0  0  0  1  0  0  0  0  0  0
  193.2670  175.4720  147.8420 F   0  0  0  0  0  0  0  0  0  0  0  0
  192.1300  175.4640  147.0530 C   0  0  0  0  0  0  0  0  0  0  0  0
  192.4190  174.8570  145.8440 F   0  0  0  0  0  0  0  0  0  0  0  0
  191.1420  174.7440  147.6990 F   0  0  0  0  0  0  0  0  0  0  0  0
  1  2  1  0  0  0  0
  1  4  1  0  0  0  0
  2 12  1  0  0  0  0
  3  7  2  0  0  0  0
  3 14  1  0  0  0  0
  4 17  1  0  0  0  0
  5 20  1  0  0  0  0
  6 13  1  0  0  0  0
  7 19  1  0  0  0  0
  8  9  1  0  0  0  0
  8  4  2  0  0  0  0
  9  6  1  0  0  0  0
 10 11  1  6  0  0  0
 10 16  1  0  0  0  0
 12 18  1  0  0  0  0
 14  1  1  0  0  0  0
 15 14  2  0  0  0  0
 15  8  1  0  0  0  0
 16 18  2  0  0  0  0
 17 13  1  0  0  0  0
 18  5  1  0  0  0  0
 19 10  1  0  0  0  0
 19  2  2  0  0  0  0
 20 23  1  0  0  0  0
 20 21  1  1  0  0  0
 23 25  1  0  0  0  0
 23 22  1  0  0  0  0
 24 23  1  0  0  0  0
M  END
>  <MODEL>
1

>  <REMARK>
 VINA RESULT:      -9.5      0.000      0.000
  Name = 
  2 active torsions:
  status: ('A' for Active; 'I' for Inactive)
    1  A    between atoms: N_6  and  C_15
    2  A    between atoms: C_7  and  C_15
                            x       y       z     vdW  Elec       q    Type
                         _______ _______ _______ _____ _____    ______ ____

>  <TORSDO>
F 2

$$$$
=
 OpenBabel10262419443D

 25 28  0  0  1  0  0  0  0  0999 V2000
  189.9630  177.2930  143.4470 N   0  0  0  0  0  0  0  0  0  0  0  0
  188.8540  177.2070  144.2330 C   0  0  0  0  0  0  0  0  0  0  0  0
  191.4080  177.3850  145.3310 C   0  0  0  0  0  3  0  0  0  0  0  0
  190.1290  177.3090  142.1140 C   0  0  0  0  0  0  0  0  0  0  0  0
  185.2020  178.0580  144.0590 N   0  0  0  0  0  2  0  0  0  0  0  0
  191.0410  176.9730  139.4460 C   0  0  0  0  0  2  0  0  0  0  0  0
  190.3120  177.2960  146.1380 N   0  0  0  0  0  0  0  0  0  0  0  0
  191.4800  177.3790  141.8610 C   0  0  0  0  0  0  0  0  0  0  0  0
  192.0580  177.4740  140.4840 C   0  0  0  0  0  2  0  0  0  0  0  0
  187.8450  177.0620  146.5280 C   0  0  1  0  0  3  0  0  0  0  0  0
  188.0450  177.7620  147.8620 C   0  0  0  0  0  1  0  0  0  0  0  0
  187.4740  177.0370  143.6630 C   0  0  0  0  0  2  0  0  0  0  0  0
  189.6510  177.5800  139.6900 C   0  0  0  0  0  2  0  0  0  0  0  0
  191.2090  177.3840  143.9540 C   0  0  0  0  0  0  0  0  0  0  0  0
  192.1800  177.4470  143.0160 N   0  0  0  0  0  0  0  0  0  0  0  0
  186.6320  177.5820  145.8910 N   0  0  0  0  0  0  0  0  0  0  0  0
  189.0850  177.1470  141.0500 C   0  0  0  0  0  2  0  0  0  0  0  0
  186.4320  177.5710  144.6030 C   0  0  0  0  0  0  0  0  0  0  0  0
  189.0420  177.2220  145.6280 C   0  0  0  0  0  0  0  0  0  0  0  0
  184.1380  178.6190  144.8820 C   0  0  1  0  0  3  0  0  0  0  0  0
  184.5950  179.7740  145.5210 O   0  0  0  0  0  1  0  0  0  0  0  0
  182.7330  180.3130  143.9830 F   0  0  0  0  0  0  0  0  0  0  0  0
  182.9220  178.9430  144.0230 C   0  0  0  0  0  0  0  0  0  0  0  0
  181.7910  178.3420  144.5460 F   0  0  0  0  0  0  0  0  0  0  0  0
  183.1300  178.4820  142.7360 F   0  0  0  0  0  0  0  0  0  0  0  0
  1 14  1  0  0  0  0
  1  2  1  0  0  0  0
  2 19  2  0  0  0  0
  3  7  2  0  0  0  0
  4  1  1  0  0  0  0
  5 18  1  0  0  0  0
  5 20  1  0  0  0  0
  6 13  1  0  0  0  0
  6  9  1  0  0  0  0
  8  4  2  0  0  0  0
  8 15  1  0  0  0  0
  9  8  1  0  0  0  0
 10 11  1  1  0  0  0
 12  2  1  0  0  0  0
 12 18  1  0  0  0  0
 13 17  1  0  0  0  0
 14  3  1  0  0  0  0
 15 14  2  0  0  0  0
 16 10  1  0  0  0  0
 17  4  1  0  0  0  0
 18 16  2  0  0  0  0
 19  7  1  0  0  0  0
 19 10  1  0  0  0  0
 20 21  1  6  0  0  0
 22 23  1  0  0  0  0
 23 24  1  0  0  0  0
 23 20  1  0  0  0  0
 25 23  1  0  0  0  0
M  END
>  <MODEL>
2

>  <REMARK>
 VINA RESULT:      -8.5      4.324      7.052
  Name = 
  2 active torsions:
  status: ('A' for Active; 'I' for Inactive)
    1  A    between atoms: N_6  and  C_15
    2  A    between atoms: C_7  and  C_15
                            x       y       z     vdW  Elec       q    Type
                         _______ _______ _______ _____ _____    ______ ____

>  <TORSDO>
F 2

$$$$
=
 OpenBabel10262419443D

 25 28  0  0  1  0  0  0  0  0999 V2000
  188.0290  177.6000  145.1320 N   0  0  0  0  0  0  0  0  0  0  0  0
  187.4450  177.6210  143.9010 C   0  0  0  0  0  0  0  0  0  0  0  0
  186.0620  178.4160  146.1850 C   0  0  0  0  0  3  0  0  0  0  0  0
  189.2540  177.2380  145.5460 C   0  0  0  0  0  0  0  0  0  0  0  0
  188.4640  177.9470  140.3030 N   0  0  0  0  0  2  0  0  0  0  0  0
  191.4990  176.2350  146.9670 C   0  0  0  0  0  2  0  0  0  0  0  0
  185.4550  178.4430  144.9630 N   0  0  0  0  0  0  0  0  0  0  0  0
  189.2950  177.3880  146.9140 C   0  0  0  0  0  0  0  0  0  0  0  0
  190.5200  177.1370  147.7350 C   0  0  0  0  0  2  0  0  0  0  0  0
  185.4140  178.0470  142.4870 C   0  0  1  0  0  3  0  0  0  0  0  0
  184.3530  179.1300  142.3860 C   0  0  0  0  0  1  0  0  0  0  0  0
  188.1480  177.1280  142.6680 C   0  0  0  0  0  2  0  0  0  0  0  0
  191.6850  176.7190  145.5210 C   0  0  0  0  0  2  0  0  0  0  0  0
  187.3820  177.9830  146.2510 C   0  0  0  0  0  0  0  0  0  0  0  0
  188.1230  177.8780  147.3770 N   0  0  0  0  0  0  0  0  0  0  0  0
  186.3690  178.2080  141.3860 N   0  0  0  0  0  0  0  0  0  0  0  0
  190.3680  176.6460  144.7350 C   0  0  0  0  0  2  0  0  0  0  0  0
  187.6040  177.7910  141.4350 C   0  0  0  0  0  0  0  0  0  0  0  0
  186.1140  178.0720  143.8210 C   0  0  0  0  0  0  0  0  0  0  0  0
  188.0410  178.5970  139.0690 C   0  0  1  0  0  3  0  0  0  0  0  0
  189.1040  179.3260  138.5320 O   0  0  0  0  0  1  0  0  0  0  0  0
  187.9510  177.9270  136.7900 F   0  0  0  0  0  0  0  0  0  0  0  0
  187.5590  177.5580  138.0640 C   0  0  0  0  0  0  0  0  0  0  0  0
  186.1800  177.4560  138.1060 F   0  0  0  0  0  0  0  0  0  0  0  0
  188.1160  176.3300  138.3660 F   0  0  0  0  0  0  0  0  0  0  0  0
  1  4  1  0  0  0  0
  1 14  1  0  0  0  0
  2  1  1  0  0  0  0
  3 14  1  0  0  0  0
  4  8  2  0  0  0  0
  5 18  1  0  0  0  0
  6  9  1  0  0  0  0
  7  3  2  0  0  0  0
  8 15  1  0  0  0  0
  8  9  1  0  0  0  0
 10 11  1  1  0  0  0
 10 19  1  0  0  0  0
 12  2  1  0  0  0  0
 13  6  1  0  0  0  0
 14 15  2  0  0  0  0
 16 18  2  0  0  0  0
 16 10  1  0  0  0  0
 17 13  1  0  0  0  0
 17  4  1  0  0  0  0
 18 12  1  0  0  0  0
 19  2  2  0  0  0  0
 19  7  1  0  0  0  0
 20 21  1  6  0  0  0
 20  5  1  0  0  0  0
 22 23  1  0  0  0  0
 23 24  1  0  0  0  0
 23 25  1  0  0  0  0
 23 20  1  0  0  0  0
M  END
>  <MODEL>
3

>  <REMARK>
 VINA RESULT:      -8.4      4.241      7.074
  Name = 
  2 active torsions:
  status: ('A' for Active; 'I' for Inactive)
    1  A    between atoms: N_6  and  C_15
    2  A    between atoms: C_7  and  C_15
                            x       y       z     vdW  Elec       q    Type
                         _______ _______ _______ _____ _____    ______ ____

>  <TORSDO>
F 2

$$$$
=
 OpenBabel10262419443D

 25 28  0  0  1  0  0  0  0  0999 V2000
  186.0240  178.2610  144.8500 N   0  0  0  0  0  0  0  0  0  0  0  0
  185.8800  178.0990  143.5050 C   0  0  0  0  0  0  0  0  0  0  0  0
  183.7860  179.0160  145.0960 C   0  0  0  0  0  3  0  0  0  0  0  0
  187.0590  178.0520  145.6800 C   0  0  0  0  0  0  0  0  0  0  0  0
  188.0140  178.1170  140.4170 N   0  0  0  0  0  2  0  0  0  0  0  0
  188.7510  177.4050  147.8670 C   0  0  0  0  0  2  0  0  0  0  0  0
  183.6160  178.8580  143.7520 N   0  0  0  0  0  0  0  0  0  0  0  0
  186.6400  178.3530  146.9560 C   0  0  0  0  0  0  0  0  0  0  0  0
  187.5350  178.2980  148.1540 C   0  0  0  0  0  2  0  0  0  0  0  0
  184.4130  178.1930  141.4690 C   0  0  1  0  0  3  0  0  0  0  0  0
  183.3970  179.1640  140.8910 C   0  0  0  0  0  1  0  0  0  0  0  0
  186.9720  177.5360  142.6400 C   0  0  0  0  0  2  0  0  0  0  0  0
  189.3830  177.7420  146.5070 C   0  0  0  0  0  2  0  0  0  0  0  0
  185.0280  178.7070  145.6400 C   0  0  0  0  0  0  0  0  0  0  0  0
  185.3600  178.7890  146.9490 N   0  0  0  0  0  0  0  0  0  0  0  0
  185.6690  178.3140  140.7240 N   0  0  0  0  0  0  0  0  0  0  0  0
  188.4030  177.4730  145.3560 C   0  0  0  0  0  2  0  0  0  0  0  0
  186.8360  178.0120  141.2220 C   0  0  0  0  0  0  0  0  0  0  0  0
  184.6310  178.4220  142.9420 C   0  0  0  0  0  0  0  0  0  0  0  0
  187.9930  178.5910  139.0390 C   0  0  1  0  0  3  0  0  0  0  0  0
  189.1520  179.3250  138.7760 O   0  0  0  0  0  1  0  0  0  0  0  0
  188.5350  176.3140  138.6200 F   0  0  0  0  0  0  0  0  0  0  0  0
  187.8920  177.4120  138.0780 C   0  0  0  0  0  0  0  0  0  0  0  0
  188.4770  177.7310  136.8650 F   0  0  0  0  0  0  0  0  0  0  0  0
  186.5610  177.0960  137.8720 F   0  0  0  0  0  0  0  0  0  0  0  0
  1 14  1  0  0  0  0
  1  4  1  0  0  0  0
  2  1  1  0  0  0  0
  3 14  1  0  0  0  0
  4  8  2  0  0  0  0
  5 18  1  0  0  0  0
  6  9  1  0  0  0  0
  7  3  2  0  0  0  0
  8  9  1  0  0  0  0
 10 11  1  6  0  0  0
 10 19  1  0  0  0  0
 12  2  1  0  0  0  0
 13  6  1  0  0  0  0
 14 15  2  0  0  0  0
 15  8  1  0  0  0  0
 16 18  2  0  0  0  0
 16 10  1  0  0  0  0
 17  4  1  0  0  0  0
 17 13  1  0  0  0  0
 18 12  1  0  0  0  0
 19  2  2  0  0  0  0
 19  7  1  0  0  0  0
 20 21  1  6  0  0  0
 20  5  1  0  0  0  0
 23 22  1  0  0  0  0
 23 20  1  0  0  0  0
 24 23  1  0  0  0  0
 25 23  1  0  0  0  0
M  END
>  <MODEL>
4

>  <REMARK>
 VINA RESULT:      -8.3      4.418      6.726
  Name = 
  2 active torsions:
  status: ('A' for Active; 'I' for Inactive)
    1  A    between atoms: N_6  and  C_15
    2  A    between atoms: C_7  and  C_15
                            x       y       z     vdW  Elec       q    Type
                         _______ _______ _______ _____ _____    ______ ____

>  <TORSDO>
F 2

$$$$
=
 OpenBabel10262419443D

 25 28  0  0  1  0  0  0  0  0999 V2000
  187.5190  177.9600  143.9300 N   0  0  0  0  0  0  0  0  0  0  0  0
  188.2310  178.0690  142.7750 C   0  0  0  0  0  0  0  0  0  0  0  0
  189.4040  177.1540  145.1290 C   0  0  0  0  0  3  0  0  0  0  0  0
  186.2370  178.2280  144.2320 C   0  0  0  0  0  0  0  0  0  0  0  0
  187.6240  177.9950  139.0710 N   0  0  0  0  0  2  0  0  0  0  0  0
  183.8000  179.0020  145.4670 C   0  0  0  0  0  2  0  0  0  0  0  0
  190.1390  177.2570  143.9850 N   0  0  0  0  0  0  0  0  0  0  0  0
  186.0580  177.9630  145.5710 C   0  0  0  0  0  0  0  0  0  0  0  0
  184.7400  178.0870  146.2680 C   0  0  0  0  0  2  0  0  0  0  0  0
  190.4230  177.8590  141.5670 C   0  0  1  0  0  3  0  0  0  0  0  0
  191.5480  176.8400  141.5020 C   0  0  0  0  0  1  0  0  0  0  0  0
  187.6380  178.6290  141.5130 C   0  0  0  0  0  2  0  0  0  0  0  0
  183.7980  178.6320  143.9760 C   0  0  0  0  0  2  0  0  0  0  0  0
  188.0620  177.5170  145.0810 C   0  0  0  0  0  0  0  0  0  0  0  0
  187.2000  177.4920  146.1220 N   0  0  0  0  0  0  0  0  0  0  0  0
  189.6020  177.7450  140.3580 N   0  0  0  0  0  0  0  0  0  0  0  0
  185.1860  178.8320  143.3500 C   0  0  0  0  0  2  0  0  0  0  0  0
  188.3480  178.0970  140.3000 C   0  0  0  0  0  0  0  0  0  0  0  0
  189.5870  177.6900  142.8080 C   0  0  0  0  0  0  0  0  0  0  0  0
  188.2140  177.4710  137.8450 C   0  0  1  0  0  3  0  0  0  0  0  0
  187.3780  176.4910  137.3030 O   0  0  0  0  0  1  0  0  0  0  0  0
  189.2010  178.1390  135.7890 F   0  0  0  0  0  0  0  0  0  0  0  0
  188.4240  178.5940  136.8380 C   0  0  0  0  0  0  0  0  0  0  0  0
  189.0560  179.6670  137.4420 F   0  0  0  0  0  0  0  0  0  0  0  0
  187.2000  179.0070  136.3430 F   0  0  0  0  0  0  0  0  0  0  0  0
  1  4  1  0  0  0  0
  1 14  1  0  0  0  0
  2 19  2  0  0  0  0
  2  1  1  0  0  0  0
  4  8  2  0  0  0  0
  5 18  1  0  0  0  0
  6  9  1  0  0  0  0
  7  3  2  0  0  0  0
  8 15  1  0  0  0  0
  8  9  1  0  0  0  0
 10 11  1  6  0  0  0
 10 19  1  0  0  0  0
 12  2  1  0  0  0  0
 13  6  1  0  0  0  0
 14  3  1  0  0  0  0
 14 15  2  0  0  0  0
 16 10  1  0  0  0  0
 17 13  1  0  0  0  0
 17  4  1  0  0  0  0
 18 16  2  0  0  0  0
 18 12  1  0  0  0  0
 19  7  1  0  0  0  0
 20 21  1  6  0  0  0
 20  5  1  0  0  0  0
 22 23  1  0  0  0  0
 23 24  1  0  0  0  0
 23 20  1  0  0  0  0
 25 23  1  0  0  0  0
M  END
>  <MODEL>
5

>  <REMARK>
 VINA RESULT:      -8.3      4.766      6.385
  Name = 
  2 active torsions:
  status: ('A' for Active; 'I' for Inactive)
    1  A    between atoms: N_6  and  C_15
    2  A    between atoms: C_7  and  C_15
                            x       y       z     vdW  Elec       q    Type
                         _______ _______ _______ _____ _____    ______ ____

>  <TORSDO>
F 2

$$$$
=
 OpenBabel10262419443D

 25 28  0  0  1  0  0  0  0  0999 V2000
  187.7980  177.6640  145.0680 N   0  0  0  0  0  0  0  0  0  0  0  0
  186.6140  177.7900  144.4080 C   0  0  0  0  0  0  0  0  0  0  0  0
  186.8130  178.2580  147.1470 C   0  0  0  0  0  3  0  0  0  0  0  0
  189.0310  177.3230  144.6580 C   0  0  0  0  0  0  0  0  0  0  0  0
  185.3820  178.5580  140.9460 N   0  0  0  0  0  2  0  0  0  0  0  0
  191.6630  176.2880  144.4030 C   0  0  0  0  0  2  0  0  0  0  0  0
  185.6140  178.3870  146.5080 N   0  0  0  0  0  0  0  0  0  0  0  0
  189.8550  177.3250  145.7610 C   0  0  0  0  0  0  0  0  0  0  0  0
  191.3240  177.0500  145.6940 C   0  0  0  0  0  2  0  0  0  0  0  0
  184.1480  178.2620  144.4770 C   0  0  1  0  0  3  0  0  0  0  0  0
  183.2450  179.2930  145.1330 C   0  0  0  0  0  1  0  0  0  0  0  0
  186.4680  177.4710  142.9470 C   0  0  0  0  0  2  0  0  0  0  0  0
  190.9930  176.9360  143.1810 C   0  0  0  0  0  2  0  0  0  0  0  0
  187.9220  177.8890  146.3910 C   0  0  0  0  0  0  0  0  0  0  0  0
  189.1730  177.7010  146.8670 N   0  0  0  0  0  0  0  0  0  0  0  0
  184.2980  178.5910  143.0570 N   0  0  0  0  0  0  0  0  0  0  0  0
  189.4620  176.8820  143.2920 C   0  0  0  0  0  2  0  0  0  0  0  0
  185.3270  178.2350  142.3380 C   0  0  0  0  0  0  0  0  0  0  0  0
  185.4880  178.1770  145.1600 C   0  0  0  0  0  0  0  0  0  0  0  0
  184.3390  179.3160  140.2660 C   0  0  1  0  0  3  0  0  0  0  0  0
  184.8520  179.8760  139.0940 O   0  0  0  0  0  1  0  0  0  0  0  0
  182.0700  178.7680  140.7190 F   0  0  0  0  0  0  0  0  0  0  0  0
  183.1570  178.4120  139.9400 C   0  0  0  0  0  0  0  0  0  0  0  0
  183.4830  177.0900  140.1880 F   0  0  0  0  0  0  0  0  0  0  0  0
  182.8190  178.5550  138.6070 F   0  0  0  0  0  0  0  0  0  0  0  0
  1 14  1  0  0  0  0
  2  1  1  0  0  0  0
  2 19  2  0  0  0  0
  4  1  1  0  0  0  0
  4  8  2  0  0  0  0
  5 18  1  0  0  0  0
  6  9  1  0  0  0  0
  7  3  2  0  0  0  0
  8 15  1  0  0  0  0
  9  8  1  0  0  0  0
 10 11  1  1  0  0  0
 10 19  1  0  0  0  0
 12  2  1  0  0  0  0
 13 17  1  0  0  0  0
 13  6  1  0  0  0  0
 14 15  2  0  0  0  0
 14  3  1  0  0  0  0
 16 10  1  0  0  0  0
 17  4  1  0  0  0  0
 18 12  1  0  0  0  0
 18 16  2  0  0  0  0
 19  7  1  0  0  0  0
 20 21  1  6  0  0  0
 20  5  1  0  0  0  0
 23 24  1  0  0  0  0
 23 20  1  0  0  0  0
 23 22  1  0  0  0  0
 25 23  1  0  0  0  0
M  END
>  <MODEL>
6

>  <REMARK>
 VINA RESULT:      -8.3      5.000      7.906
  Name = 
  2 active torsions:
  status: ('A' for Active; 'I' for Inactive)
    1  A    between atoms: N_6  and  C_15
    2  A    between atoms: C_7  and  C_15
                            x       y       z     vdW  Elec       q    Type
                         _______ _______ _______ _____ _____    ______ ____

>  <TORSDO>
F 2

$$$$
=
 OpenBabel10262419443D

 25 28  0  0  1  0  0  0  0  0999 V2000
  188.1670  177.7340  143.5120 N   0  0  0  0  0  0  0  0  0  0  0  0
  187.7650  178.1060  142.2650 C   0  0  0  0  0  0  0  0  0  0  0  0
  190.1920  176.8050  142.6880 C   0  0  0  0  0  3  0  0  0  0  0  0
  187.6010  177.8690  144.7230 C   0  0  0  0  0  0  0  0  0  0  0  0
  184.5680  178.7370  140.4020 N   0  0  0  0  0  2  0  0  0  0  0  0
  187.0550  178.2540  147.4820 C   0  0  0  0  0  2  0  0  0  0  0  0
  189.8130  177.1720  141.4290 N   0  0  0  0  0  0  0  0  0  0  0  0
  188.4650  177.3350  145.6510 C   0  0  0  0  0  0  0  0  0  0  0  0
  188.1560  177.2490  147.1130 C   0  0  0  0  0  2  0  0  0  0  0  0
  188.2410  178.2550  139.8030 C   0  0  1  0  0  3  0  0  0  0  0  0
  188.7960  177.3290  138.7340 C   0  0  0  0  0  1  0  0  0  0  0  0
  186.4960  178.8730  142.0230 C   0  0  0  0  0  2  0  0  0  0  0  0
  185.8830  178.1870  146.4910 C   0  0  0  0  0  2  0  0  0  0  0  0
  189.3340  177.1000  143.7420 C   0  0  0  0  0  0  0  0  0  0  0  0
  189.5610  176.8240  145.0460 N   0  0  0  0  0  0  0  0  0  0  0  0
  186.7850  178.3400  139.6550 N   0  0  0  0  0  0  0  0  0  0  0  0
  186.3280  178.5790  145.0750 C   0  0  0  0  0  2  0  0  0  0  0  0
  185.9750  178.6310  140.6350 C   0  0  0  0  0  0  0  0  0  0  0  0
  188.6200  177.8000  141.1880 C   0  0  0  0  0  0  0  0  0  0  0  0
  183.9600  178.4970  139.0990 C   0  0  1  0  0  3  0  0  0  0  0  0
  183.4080  177.2150  139.0660 O   0  0  0  0  0  1  0  0  0  0  0  0
  182.2350  179.2320  137.6370 F   0  0  0  0  0  0  0  0  0  0  0  0
  182.8820  179.5380  138.8210 C   0  0  0  0  0  0  0  0  0  0  0  0
  183.4460  180.7970  138.7210 F   0  0  0  0  0  0  0  0  0  0  0  0
  181.9590  179.5330  139.8510 F   0  0  0  0  0  0  0  0  0  0  0  0
  1 14  1  0  0  0  0
  1  4  1  0  0  0  0
  2  1  1  0  0  0  0
  3 14  1  0  0  0  0
  4 17  1  0  0  0  0
  4  8  2  0  0  0  0
  5 18  1  0  0  0  0
  7  3  2  0  0  0  0
  8  9  1  0  0  0  0
  9  6  1  0  0  0  0
 10 11  1  6  0  0  0
 10 19  1  0  0  0  0
 12  2  1  0  0  0  0
 13  6  1  0  0  0  0
 14 15  2  0  0  0  0
 15  8  1  0  0  0  0
 16 10  1  0  0  0  0
 16 18  2  0  0  0  0
 17 13  1  0  0  0  0
 18 12  1  0  0  0  0
 19  7  1  0  0  0  0
 19  2  2  0  0  0  0
 20 21  1  1  0  0  0
 20  5  1  0  0  0  0
 22 23  1  0  0  0  0
 23 20  1  0  0  0  0
 23 25  1  0  0  0  0
 24 23  1  0  0  0  0
M  END
>  <MODEL>
7

>  <REMARK>
 VINA RESULT:      -8.2      5.569      7.409
  Name = 
  2 active torsions:
  status: ('A' for Active; 'I' for Inactive)
    1  A    between atoms: N_6  and  C_15
    2  A    between atoms: C_7  and  C_15
                            x       y       z     vdW  Elec       q    Type
                         _______ _______ _______ _____ _____    ______ ____

>  <TORSDO>
F 2

$$$$
=
 OpenBabel10262419443D

 25 28  0  0  1  0  0  0  0  0999 V2000
  188.3600  177.5160  142.8160 N   0  0  0  0  0  0  0  0  0  0  0  0
  188.6810  177.6430  141.4980 C   0  0  0  0  0  0  0  0  0  0  0  0
  190.4990  176.6320  143.3500 C   0  0  0  0  0  3  0  0  0  0  0  0
  187.2450  177.8030  143.5070 C   0  0  0  0  0  0  0  0  0  0  0  0
  186.9510  177.6950  138.1670 N   0  0  0  0  0  2  0  0  0  0  0  0
  185.3370  178.5950  145.4560 C   0  0  0  0  0  2  0  0  0  0  0  0
  190.8440  176.7530  142.0360 N   0  0  0  0  0  0  0  0  0  0  0  0
  187.4820  177.5030  144.8290 C   0  0  0  0  0  0  0  0  0  0  0  0
  186.4500  177.6350  145.9050 C   0  0  0  0  0  2  0  0  0  0  0  0
  190.3810  177.4200  139.6640 C   0  0  1  0  0  3  0  0  0  0  0  0
  191.3980  176.3780  139.2300 C   0  0  0  0  0  1  0  0  0  0  0  0
  187.7420  178.2540  140.4960 C   0  0  0  0  0  2  0  0  0  0  0  0
  184.8600  178.2700  144.0330 C   0  0  0  0  0  2  0  0  0  0  0  0
  189.2200  177.0260  143.7310 C   0  0  0  0  0  0  0  0  0  0  0  0
  188.7240  176.9900  144.9880 N   0  0  0  0  0  0  0  0  0  0  0  0
  189.2220  177.3610  138.7680 N   0  0  0  0  0  0  0  0  0  0  0  0
  185.9900  178.4570  143.0100 C   0  0  0  0  0  2  0  0  0  0  0  0
  188.0240  177.7430  139.1120 C   0  0  0  0  0  0  0  0  0  0  0  0
  189.9670  177.2330  141.1000 C   0  0  0  0  0  0  0  0  0  0  0  0
  187.1140  177.1940  136.8080 C   0  0  1  0  0  3  0  0  0  0  0  0
  185.9090  176.6480  136.3600 O   0  0  0  0  0  1  0  0  0  0  0  0
  186.8690  178.2310  134.6830 F   0  0  0  0  0  0  0  0  0  0  0  0
  187.5550  178.3190  135.8810 C   0  0  0  0  0  0  0  0  0  0  0  0
  188.9140  178.2330  135.6350 F   0  0  0  0  0  0  0  0  0  0  0  0
  187.2750  179.5390  136.4680 F   0  0  0  0  0  0  0  0  0  0  0  0
  1  4  1  0  0  0  0
  1 14  1  0  0  0  0
  2  1  1  0  0  0  0
  3 14  1  0  0  0  0
  4  8  2  0  0  0  0
  5 18  1  0  0  0  0
  6  9  1  0  0  0  0
  7  3  2  0  0  0  0
  8 15  1  0  0  0  0
  8  9  1  0  0  0  0
 10 11  1  6  0  0  0
 10 19  1  0  0  0  0
 12  2  1  0  0  0  0
 13  6  1  0  0  0  0
 14 15  2  0  0  0  0
 16 18  2  0  0  0  0
 16 10  1  0  0  0  0
 17  4  1  0  0  0  0
 17 13  1  0  0  0  0
 18 12  1  0  0  0  0
 19  2  2  0  0  0  0
 19  7  1  0  0  0  0
 20 21  1  6  0  0  0
 20  5  1  0  0  0  0
 22 23  1  0  0  0  0
 23 25  1  0  0  0  0
 23 20  1  0  0  0  0
 24 23  1  0  0  0  0
M  END
>  <MODEL>
8

>  <REMARK>
 VINA RESULT:      -8.2      5.354      7.105
  Name = 
  2 active torsions:
  status: ('A' for Active; 'I' for Inactive)
    1  A    between atoms: N_6  and  C_15
    2  A    between atoms: C_7  and  C_15
                            x       y       z     vdW  Elec       q    Type
                         _______ _______ _______ _____ _____    ______ ____

>  <TORSDO>
F 2

$$$$
=
 OpenBabel10262419443D

 25 28  0  0  1  0  0  0  0  0999 V2000
  183.4320  178.7000  142.1160 N   0  0  0  0  0  0  0  0  0  0  0  0
  184.5320  178.6830  142.9200 C   0  0  0  0  0  0  0  0  0  0  0  0
  181.9620  178.9240  143.9680 C   0  0  0  0  0  3  0  0  0  0  0  0
  183.2850  178.6240  140.7830 C   0  0  0  0  0  0  0  0  0  0  0  0
  188.0340  177.3340  142.8810 N   0  0  0  0  0  2  0  0  0  0  0  0
  182.4660  178.9120  138.0800 C   0  0  0  0  0  2  0  0  0  0  0  0
  183.0480  178.9130  144.7940 N   0  0  0  0  0  0  0  0  0  0  0  0
  181.9410  178.7220  140.5040 C   0  0  0  0  0  0  0  0  0  0  0  0
  181.3750  178.6210  139.1220 C   0  0  0  0  0  2  0  0  0  0  0  0
  185.5180  178.8340  145.2250 C   0  0  1  0  0  3  0  0  0  0  0  0
  185.2050  178.2530  146.5930 C   0  0  0  0  0  1  0  0  0  0  0  0
  185.9300  178.6280  142.3720 C   0  0  0  0  0  2  0  0  0  0  0  0
  183.7560  178.1380  138.3910 C   0  0  0  0  0  2  0  0  0  0  0  0
  182.1790  178.8120  142.5990 C   0  0  0  0  0  0  0  0  0  0  0  0
  181.2220  178.8220  141.6440 N   0  0  0  0  0  0  0  0  0  0  0  0
  186.6570  178.1150  144.6480 N   0  0  0  0  0  0  0  0  0  0  0  0
  184.3560  178.5750  139.7350 C   0  0  0  0  0  2  0  0  0  0  0  0
  186.8760  178.0180  143.3660 C   0  0  0  0  0  0  0  0  0  0  0  0
  184.3230  178.7820  144.3090 C   0  0  0  0  0  0  0  0  0  0  0  0
  189.0000  176.6870  143.7600 C   0  0  1  0  0  3  0  0  0  0  0  0
  189.6140  175.6280  143.0880 O   0  0  0  0  0  1  0  0  0  0  0  0
  191.2680  177.0550  144.3690 F   0  0  0  0  0  0  0  0  0  0  0  0
  190.0490  177.6910  144.2210 C   0  0  0  0  0  0  0  0  0  0  0  0
  189.6770  178.2530  145.4300 F   0  0  0  0  0  0  0  0  0  0  0  0
  190.1780  178.6920  143.2750 F   0  0  0  0  0  0  0  0  0  0  0  0
  1 14  1  0  0  0  0
  1  2  1  0  0  0  0
  2 19  2  0  0  0  0
  3  7  2  0  0  0  0
  4  1  1  0  0  0  0
  5 18  1  0  0  0  0
  5 20  1  0  0  0  0
  6 13  1  0  0  0  0
  6  9  1  0  0  0  0
  8  4  2  0  0  0  0
  8 15  1  0  0  0  0
  9  8  1  0  0  0  0
 10 11  1  1  0  0  0
 12  2  1  0  0  0  0
 12 18  1  0  0  0  0
 13 17  1  0  0  0  0
 14  3  1  0  0  0  0
 15 14  2  0  0  0  0
 16 10  1  0  0  0  0
 17  4  1  0  0  0  0
 18 16  2  0  0  0  0
 19  7  1  0  0  0  0
 19 10  1  0  0  0  0
 20 21  1  6  0  0  0
 20 23  1  0  0  0  0
 23 22  1  0  0  0  0
 23 24  1  0  0  0  0
 25 23  1  0  0  0  0
M  END
>  <MODEL>
9

>  <REMARK>
 VINA RESULT:      -8.1      3.143      5.201
  Name = 
  2 active torsions:
  status: ('A' for Active; 'I' for Inactive)
    1  A    between atoms: N_6  and  C_15
    2  A    between atoms: C_7  and  C_15
                            x       y       z     vdW  Elec       q    Type
                         _______ _______ _______ _____ _____    ______ ____

>  <TORSDO>
F 2

$$$$
