=
 OpenBabel10262420063D

 27 31  0  0  1  0  0  0  0  0999 V2000
  187.4470  178.4960  142.0020 N   0  0  0  0  0  2  0  0  0  0  0  0
  187.8690  177.5680  144.1960 C   0  0  0  0  0  0  0  0  0  0  0  0
  189.5390  176.3980  142.7340 N   0  0  0  0  0  0  0  0  0  0  0  0
  190.4700  177.1650  147.4350 N   0  0  0  0  0  2  0  0  0  0  0  0
  192.4250  176.4300  148.3160 O   0  0  0  0  0  0  0  0  0  0  0  0
  187.5360  178.0780  145.4640 C   0  0  0  0  0  3  0  0  0  0  0  0
  191.2230  176.1410  144.9800 C   0  0  0  0  0  3  0  0  0  0  0  0
  190.1400  176.7200  139.2820 C   0  0  0  0  0  0  0  0  0  0  0  0
  192.0690  176.0140  146.0830 C   0  0  0  0  0  3  0  0  0  0  0  0
  190.7940  176.0040  138.2410 N   0  0  0  0  0  1  0  0  0  0  0  0
  189.9850  176.7870  145.1100 C   0  0  0  0  0  0  0  0  0  0  0  0
  186.8950  177.6660  143.0550 C   0  0  1  0  0  3  0  0  0  0  0  0
  191.6710  176.5380  147.3140 C   0  0  0  0  0  0  0  0  0  0  0  0
  189.6260  177.3020  146.3760 C   0  0  0  0  0  0  0  0  0  0  0  0
  188.5440  178.0580  141.2060 C   0  0  0  0  0  0  0  0  0  0  0  0
  189.1220  176.9390  144.0060 C   0  0  0  0  0  0  0  0  0  0  0  0
  189.9610  176.1510  140.4370 N   0  0  0  0  0  0  0  0  0  0  0  0
  188.4060  177.9500  146.5430 C   0  0  0  0  0  3  0  0  0  0  0  0
  189.8180  178.1780  139.0820 C   0  0  0  0  0  2  0  0  0  0  0  0
  188.7490  178.6490  140.0290 C   0  0  0  0  0  3  0  0  0  0  0  0
  189.3170  176.8290  141.5240 C   0  0  0  0  0  0  0  0  0  0  0  0
  182.9140  178.9310  144.0890 C   0  0  0  0  0  3  0  0  0  0  0  0
  185.5150  178.1240  143.4300 C   0  0  0  0  0  0  0  0  0  0  0  0
  184.5390  178.2370  142.4340 C   0  0  0  0  0  3  0  0  0  0  0  0
  183.2420  178.6420  142.7620 C   0  0  0  0  0  3  0  0  0  0  0  0
  183.8830  178.8150  145.0900 C   0  0  0  0  0  3  0  0  0  0  0  0
  185.1800  178.4100  144.7630 C   0  0  0  0  0  3  0  0  0  0  0  0
  1 12  1  0  0  0  0
  2  6  1  0  0  0  0
  3 16  1  0  0  0  0
  6 18  2  0  0  0  0
  7 11  1  0  0  0  0
  7  9  2  0  0  0  0
  8 17  2  0  0  0  0
  9 13  1  0  0  0  0
 10  8  1  0  0  0  0
 11 14  2  0  0  0  0
 12 23  1  1  0  0  0
 12  2  1  0  0  0  0
 13  4  1  0  0  0  0
 13  5  2  0  0  0  0
 14 18  1  0  0  0  0
 14  4  1  0  0  0  0
 15 21  1  0  0  0  0
 15  1  1  0  0  0  0
 16  2  2  0  0  0  0
 16 11  1  0  0  0  0
 17 21  1  0  0  0  0
 19  8  1  0  0  0  0
 19 20  1  0  0  0  0
 20 15  2  0  0  0  0
 21  3  2  0  0  0  0
 22 26  1  0  0  0  0
 23 27  1  0  0  0  0
 24 25  1  0  0  0  0
 24 23  2  0  0  0  0
 25 22  2  0  0  0  0
 27 26  2  0  0  0  0
M  END
>  <MODEL>
1

>  <REMARK>
 VINA RESULT:     -11.5      0.000      0.000
  Name = 
  1 active torsions:
  status: ('A' for Active; 'I' for Inactive)
    1  A    between atoms: C_9  and  C_15
                            x       y       z     vdW  Elec       q    Type
                         _______ _______ _______ _____ _____    ______ ____

>  <TORSDO>
F 1

$$$$
=
 OpenBabel10262420063D

 27 31  0  0  1  0  0  0  0  0999 V2000
  186.2850  178.7310  141.6820 N   0  0  0  0  0  2  0  0  0  0  0  0
  186.0260  178.1770  144.0230 C   0  0  0  0  0  0  0  0  0  0  0  0
  188.1470  177.0030  143.3730 N   0  0  0  0  0  0  0  0  0  0  0  0
  187.4540  178.5280  147.9280 N   0  0  0  0  0  2  0  0  0  0  0  0
  189.0580  178.1460  149.4840 O   0  0  0  0  0  0  0  0  0  0  0  0
  185.2700  178.8220  145.0180 C   0  0  0  0  0  3  0  0  0  0  0  0
  189.0220  177.2560  146.0410 C   0  0  0  0  0  3  0  0  0  0  0  0
  189.8140  176.8960  140.2770 C   0  0  0  0  0  0  0  0  0  0  0  0
  189.4710  177.3810  147.3570 C   0  0  0  0  0  3  0  0  0  0  0  0
  190.8120  176.1160  139.6290 N   0  0  0  0  0  1  0  0  0  0  0  0
  187.7740  177.7730  145.6680 C   0  0  0  0  0  0  0  0  0  0  0  0
  185.4720  178.0040  142.6360 C   0  0  1  0  0  3  0  0  0  0  0  0
  188.6650  178.0270  148.2950 C   0  0  0  0  0  0  0  0  0  0  0  0
  186.9930  178.4190  146.6520 C   0  0  0  0  0  0  0  0  0  0  0  0
  187.6040  178.3090  141.3530 C   0  0  0  0  0  0  0  0  0  0  0  0
  187.3080  177.6700  144.3410 C   0  0  0  0  0  0  0  0  0  0  0  0
  189.3050  176.4800  141.3990 N   0  0  0  0  0  0  0  0  0  0  0  0
  185.7490  178.9450  146.3190 C   0  0  0  0  0  3  0  0  0  0  0  0
  189.4890  178.2660  139.7420 C   0  0  0  0  0  2  0  0  0  0  0  0
  188.1450  178.7460  140.2150 C   0  0  0  0  0  3  0  0  0  0  0  0
  188.3040  177.2310  142.0990 C   0  0  0  0  0  0  0  0  0  0  0  0
  181.3030  178.9580  142.1480 C   0  0  0  0  0  3  0  0  0  0  0  0
  184.0190  178.3550  142.4800 C   0  0  0  0  0  0  0  0  0  0  0  0
  183.4350  178.2960  141.2100 C   0  0  0  0  0  3  0  0  0  0  0  0
  182.0810  178.5990  141.0430 C   0  0  0  0  0  3  0  0  0  0  0  0
  181.8790  179.0130  143.4200 C   0  0  0  0  0  3  0  0  0  0  0  0
  183.2330  178.7100  143.5880 C   0  0  0  0  0  3  0  0  0  0  0  0
  1 12  1  0  0  0  0
  2 16  2  0  0  0  0
  2  6  1  0  0  0  0
  3 16  1  0  0  0  0
  4 13  1  0  0  0  0
  6 18  2  0  0  0  0
  7  9  2  0  0  0  0
  8 17  2  0  0  0  0
  9 13  1  0  0  0  0
 10  8  1  0  0  0  0
 11  7  1  0  0  0  0
 11 14  2  0  0  0  0
 12 23  1  1  0  0  0
 12  2  1  0  0  0  0
 13  5  2  0  0  0  0
 14  4  1  0  0  0  0
 15  1  1  0  0  0  0
 15 21  1  0  0  0  0
 16 11  1  0  0  0  0
 17 21  1  0  0  0  0
 18 14  1  0  0  0  0
 19 20  1  0  0  0  0
 19  8  1  0  0  0  0
 20 15  2  0  0  0  0
 21  3  2  0  0  0  0
 22 26  1  0  0  0  0
 23 27  1  0  0  0  0
 24 23  2  0  0  0  0
 25 24  1  0  0  0  0
 25 22  2  0  0  0  0
 26 27  2  0  0  0  0
M  END
>  <MODEL>
2

>  <REMARK>
 VINA RESULT:     -10.7      1.668      2.243
  Name = 
  1 active torsions:
  status: ('A' for Active; 'I' for Inactive)
    1  A    between atoms: C_9  and  C_15
                            x       y       z     vdW  Elec       q    Type
                         _______ _______ _______ _____ _____    ______ ____

>  <TORSDO>
F 1

$$$$
=
 OpenBabel10262420063D

 27 31  0  0  1  0  0  0  0  0999 V2000
  189.5860  176.6800  142.3900 N   0  0  0  0  0  2  0  0  0  0  0  0
  187.8840  177.7240  143.7570 C   0  0  0  0  0  0  0  0  0  0  0  0
  187.5420  178.7640  141.4990 N   0  0  0  0  0  0  0  0  0  0  0  0
  183.8270  178.2530  144.5790 N   0  0  0  0  0  2  0  0  0  0  0  0
  181.7710  178.9900  143.9730 O   0  0  0  0  0  0  0  0  0  0  0  0
  187.3280  177.2990  144.9760 C   0  0  0  0  0  3  0  0  0  0  0  0
  184.8210  179.1110  142.1470 C   0  0  0  0  0  3  0  0  0  0  0  0
  189.2630  178.2240  138.4770 C   0  0  0  0  0  0  0  0  0  0  0  0
  183.4700  179.2820  142.4520 C   0  0  0  0  0  3  0  0  0  0  0  0
  189.4310  178.8610  137.2160 N   0  0  0  0  0  1  0  0  0  0  0  0
  185.6830  178.5050  143.0710 C   0  0  0  0  0  0  0  0  0  0  0  0
  189.3590  177.5840  143.5010 C   0  0  1  0  0  3  0  0  0  0  0  0
  182.9870  178.8420  143.6850 C   0  0  0  0  0  0  0  0  0  0  0  0
  185.1490  178.0750  144.3060 C   0  0  0  0  0  0  0  0  0  0  0  0
  189.2510  177.0430  141.0550 C   0  0  0  0  0  0  0  0  0  0  0  0
  187.0480  178.3100  142.7770 C   0  0  0  0  0  0  0  0  0  0  0  0
  188.6780  178.8650  139.4460 N   0  0  0  0  0  0  0  0  0  0  0  0
  185.9740  177.4690  145.2480 C   0  0  0  0  0  3  0  0  0  0  0  0
  189.6120  176.7660  138.6170 C   0  0  0  0  0  2  0  0  0  0  0  0
  189.8290  176.3780  140.0530 C   0  0  0  0  0  3  0  0  0  0  0  0
  188.4740  178.2680  140.7330 C   0  0  0  0  0  0  0  0  0  0  0  0
  191.6510  176.4220  146.9530 C   0  0  0  0  0  3  0  0  0  0  0  0
  190.1790  177.1830  144.6940 C   0  0  0  0  0  0  0  0  0  0  0  0
  189.7770  177.5970  145.9690 C   0  0  0  0  0  3  0  0  0  0  0  0
  190.5120  177.2200  147.0960 C   0  0  0  0  0  3  0  0  0  0  0  0
  192.0550  176.0010  145.6830 C   0  0  0  0  0  3  0  0  0  0  0  0
  191.3210  176.3780  144.5560 C   0  0  0  0  0  3  0  0  0  0  0  0
  1 12  1  0  0  0  0
  2  6  1  0  0  0  0
  3 16  1  0  0  0  0
  6 18  2  0  0  0  0
  7  9  2  0  0  0  0
  7 11  1  0  0  0  0
  8 19  1  0  0  0  0
  8 17  2  0  0  0  0
  9 13  1  0  0  0  0
 10  8  1  0  0  0  0
 11 14  2  0  0  0  0
 12  2  1  0  0  0  0
 12 23  1  1  0  0  0
 13  5  2  0  0  0  0
 13  4  1  0  0  0  0
 14  4  1  0  0  0  0
 14 18  1  0  0  0  0
 15  1  1  0  0  0  0
 16 11  1  0  0  0  0
 16  2  2  0  0  0  0
 17 21  1  0  0  0  0
 19 20  1  0  0  0  0
 20 15  2  0  0  0  0
 21 15  1  0  0  0  0
 21  3  2  0  0  0  0
 22 25  1  0  0  0  0
 23 24  1  0  0  0  0
 24 25  2  0  0  0  0
 26 22  2  0  0  0  0
 27 23  2  0  0  0  0
 27 26  1  0  0  0  0
M  END
>  <MODEL>
3

>  <REMARK>
 VINA RESULT:     -10.2      2.686      5.834
  Name = 
  1 active torsions:
  status: ('A' for Active; 'I' for Inactive)
    1  A    between atoms: C_9  and  C_15
                            x       y       z     vdW  Elec       q    Type
                         _______ _______ _______ _____ _____    ______ ____

>  <TORSDO>
F 1

$$$$
=
 OpenBabel10262420063D

 27 31  0  0  1  0  0  0  0  0999 V2000
  186.3850  178.7450  141.1530 N   0  0  0  0  0  2  0  0  0  0  0  0
  185.8750  178.2390  143.4630 C   0  0  0  0  0  0  0  0  0  0  0  0
  188.0290  177.0180  143.0580 N   0  0  0  0  0  0  0  0  0  0  0  0
  186.8970  178.6380  147.4890 N   0  0  0  0  0  2  0  0  0  0  0  0
  188.3230  178.2580  149.2100 O   0  0  0  0  0  0  0  0  0  0  0  0
  185.0320  178.9140  144.3640 C   0  0  0  0  0  3  0  0  0  0  0  0
  188.6290  177.3050  145.7970 C   0  0  0  0  0  3  0  0  0  0  0  0
  190.0070  176.8260  140.1540 C   0  0  0  0  0  0  0  0  0  0  0  0
  188.9400  177.4470  147.1500 C   0  0  0  0  0  3  0  0  0  0  0  0
  191.0520  176.0180  139.6260 N   0  0  0  0  0  1  0  0  0  0  0  0
  187.4350  177.8360  145.2880 C   0  0  0  0  0  0  0  0  0  0  0  0
  185.4640  178.0490  142.0300 C   0  0  1  0  0  3  0  0  0  0  0  0
  188.0540  178.1240  147.9890 C   0  0  0  0  0  0  0  0  0  0  0  0
  186.5690  178.5130  146.1750 C   0  0  0  0  0  0  0  0  0  0  0  0
  187.7240  178.2950  140.9700 C   0  0  0  0  0  0  0  0  0  0  0  0
  187.1080  177.7160  143.9210 C   0  0  0  0  0  0  0  0  0  0  0  0
  189.3760  176.4390  141.2230 N   0  0  0  0  0  0  0  0  0  0  0  0
  185.3760  179.0540  145.7050 C   0  0  0  0  0  3  0  0  0  0  0  0
  189.7640  178.1910  139.5650 C   0  0  0  0  0  2  0  0  0  0  0  0
  188.3880  178.7020  139.8880 C   0  0  0  0  0  3  0  0  0  0  0  0
  188.3220  177.2190  141.8030 C   0  0  0  0  0  0  0  0  0  0  0  0
  181.3930  179.1630  141.1870 C   0  0  0  0  0  3  0  0  0  0  0  0
  184.0420  178.4220  141.7180 C   0  0  0  0  0  0  0  0  0  0  0  0
  183.1440  178.6240  142.7710 C   0  0  0  0  0  3  0  0  0  0  0  0
  181.8210  178.9920  142.5070 C   0  0  0  0  0  3  0  0  0  0  0  0
  182.2880  178.9680  140.1310 C   0  0  0  0  0  3  0  0  0  0  0  0
  183.6100  178.6000  140.3940 C   0  0  0  0  0  3  0  0  0  0  0  0
  1 12  1  0  0  0  0
  2 16  2  0  0  0  0
  2  6  1  0  0  0  0
  3 16  1  0  0  0  0
  4 13  1  0  0  0  0
  6 18  2  0  0  0  0
  7  9  2  0  0  0  0
  8 17  2  0  0  0  0
  9 13  1  0  0  0  0
 10  8  1  0  0  0  0
 11  7  1  0  0  0  0
 11 14  2  0  0  0  0
 12 23  1  1  0  0  0
 12  2  1  0  0  0  0
 13  5  2  0  0  0  0
 14  4  1  0  0  0  0
 15  1  1  0  0  0  0
 15 21  1  0  0  0  0
 16 11  1  0  0  0  0
 17 21  1  0  0  0  0
 18 14  1  0  0  0  0
 19 20  1  0  0  0  0
 19  8  1  0  0  0  0
 20 15  2  0  0  0  0
 21  3  2  0  0  0  0
 22 25  1  0  0  0  0
 23 24  1  0  0  0  0
 25 24  2  0  0  0  0
 26 27  1  0  0  0  0
 26 22  2  0  0  0  0
 27 23  2  0  0  0  0
M  END
>  <MODEL>
4

>  <REMARK>
 VINA RESULT:     -10.0      1.838      2.751
  Name = 
  1 active torsions:
  status: ('A' for Active; 'I' for Inactive)
    1  A    between atoms: C_9  and  C_15
                            x       y       z     vdW  Elec       q    Type
                         _______ _______ _______ _____ _____    ______ ____

>  <TORSDO>
F 1

$$$$
=
 OpenBabel10262420063D

 27 31  0  0  1  0  0  0  0  0999 V2000
  189.7910  178.3760  141.4940 N   0  0  0  0  0  2  0  0  0  0  0  0
  187.3960  178.0370  141.4560 C   0  0  0  0  0  0  0  0  0  0  0  0
  188.0560  177.2930  143.7600 N   0  0  0  0  0  0  0  0  0  0  0  0
  183.6390  179.1150  142.9170 N   0  0  0  0  0  2  0  0  0  0  0  0
  182.1540  179.2660  144.6230 O   0  0  0  0  0  0  0  0  0  0  0  0
  186.4240  178.6040  140.6130 C   0  0  0  0  0  3  0  0  0  0  0  0
  185.4850  178.0200  144.6570 C   0  0  0  0  0  3  0  0  0  0  0  0
  191.2240  177.2180  145.2900 C   0  0  0  0  0  0  0  0  0  0  0  0
  184.2180  178.3830  145.1160 C   0  0  0  0  0  3  0  0  0  0  0  0
  191.8530  176.6100  146.4110 N   0  0  0  0  0  1  0  0  0  0  0  0
  185.8290  178.2070  143.3110 C   0  0  0  0  0  0  0  0  0  0  0  0
  188.7220  177.5960  140.9020 C   0  0  1  0  0  3  0  0  0  0  0  0
  183.2990  178.9350  144.2220 C   0  0  0  0  0  0  0  0  0  0  0  0
  184.8670  178.7690  142.4440 C   0  0  0  0  0  0  0  0  0  0  0  0
  190.1580  178.2200  142.8610 C   0  0  0  0  0  0  0  0  0  0  0  0
  187.1090  177.8600  142.8300 C   0  0  0  0  0  0  0  0  0  0  0  0
  190.0380  176.8250  144.9290 N   0  0  0  0  0  0  0  0  0  0  0  0
  185.1730  178.9710  141.1020 C   0  0  0  0  0  3  0  0  0  0  0  0
  191.8690  178.4170  144.6440 C   0  0  0  0  0  2  0  0  0  0  0  0
  191.3640  178.6390  143.2460 C   0  0  0  0  0  3  0  0  0  0  0  0
  189.3540  177.4090  143.8130 C   0  0  0  0  0  0  0  0  0  0  0  0
  189.0620  177.6530  136.6120 C   0  0  0  0  0  3  0  0  0  0  0  0
  188.8220  177.6010  139.4030 C   0  0  0  0  0  0  0  0  0  0  0  0
  189.0690  178.8090  138.7400 C   0  0  0  0  0  3  0  0  0  0  0  0
  189.1870  178.8360  137.3480 C   0  0  0  0  0  3  0  0  0  0  0  0
  188.8210  176.4430  137.2690 C   0  0  0  0  0  3  0  0  0  0  0  0
  188.7030  176.4150  138.6610 C   0  0  0  0  0  3  0  0  0  0  0  0
  1 15  1  0  0  0  0
  2 16  1  0  0  0  0
  3 21  2  0  0  0  0
  4 13  1  0  0  0  0
  6 18  1  0  0  0  0
  6  2  2  0  0  0  0
  7  9  2  0  0  0  0
  8 10  1  0  0  0  0
 11  7  1  0  0  0  0
 12 23  1  6  0  0  0
 12  2  1  0  0  0  0
 12  1  1  0  0  0  0
 13  5  2  0  0  0  0
 13  9  1  0  0  0  0
 14  4  1  0  0  0  0
 14 11  1  0  0  0  0
 15 20  2  0  0  0  0
 15 21  1  0  0  0  0
 16 11  2  0  0  0  0
 16  3  1  0  0  0  0
 17  8  2  0  0  0  0
 18 14  2  0  0  0  0
 19  8  1  0  0  0  0
 20 19  1  0  0  0  0
 21 17  1  0  0  0  0
 22 26  2  0  0  0  0
 22 25  1  0  0  0  0
 24 23  1  0  0  0  0
 25 24  2  0  0  0  0
 26 27  1  0  0  0  0
 27 23  2  0  0  0  0
M  END
>  <MODEL>
5

>  <REMARK>
 VINA RESULT:     -10.0      2.811      6.399
  Name = 
  1 active torsions:
  status: ('A' for Active; 'I' for Inactive)
    1  A    between atoms: C_9  and  C_15
                            x       y       z     vdW  Elec       q    Type
                         _______ _______ _______ _____ _____    ______ ____

>  <TORSDO>
F 1

$$$$
=
 OpenBabel10262420063D

 27 31  0  0  1  0  0  0  0  0999 V2000
  189.4800  176.8550  140.7320 N   0  0  0  0  0  2  0  0  0  0  0  0
  187.7230  178.0030  141.9360 C   0  0  0  0  0  0  0  0  0  0  0  0
  187.2980  178.6280  139.5440 N   0  0  0  0  0  0  0  0  0  0  0  0
  183.6460  178.4030  142.7300 N   0  0  0  0  0  2  0  0  0  0  0  0
  181.5410  178.8960  142.0470 O   0  0  0  0  0  0  0  0  0  0  0  0
  187.2040  177.7520  143.2190 C   0  0  0  0  0  3  0  0  0  0  0  0
  184.5650  178.9050  140.1720 C   0  0  0  0  0  3  0  0  0  0  0  0
  189.0300  177.7020  136.6240 C   0  0  0  0  0  0  0  0  0  0  0  0
  183.2070  179.0380  140.4690 C   0  0  0  0  0  3  0  0  0  0  0  0
  189.1470  178.1290  135.2720 N   0  0  0  0  0  1  0  0  0  0  0  0
  185.4710  178.5170  141.1700 C   0  0  0  0  0  0  0  0  0  0  0  0
  189.2020  177.9150  141.6810 C   0  0  1  0  0  3  0  0  0  0  0  0
  182.7620  178.7800  141.7670 C   0  0  0  0  0  0  0  0  0  0  0  0
  184.9740  178.2660  142.4680 C   0  0  0  0  0  0  0  0  0  0  0  0
  189.1130  176.9680  139.3610 C   0  0  0  0  0  0  0  0  0  0  0  0
  186.8440  178.3630  140.8870 C   0  0  0  0  0  0  0  0  0  0  0  0
  188.4110  178.4570  137.4830 N   0  0  0  0  0  0  0  0  0  0  0  0
  185.8430  177.8780  143.4830 C   0  0  0  0  0  3  0  0  0  0  0  0
  189.4740  176.3120  136.9970 C   0  0  0  0  0  2  0  0  0  0  0  0
  189.7260  176.1840  138.4740 C   0  0  0  0  0  3  0  0  0  0  0  0
  188.2560  178.0710  138.8550 C   0  0  0  0  0  0  0  0  0  0  0  0
  191.6800  177.4540  145.1690 C   0  0  0  0  0  3  0  0  0  0  0  0
  190.0550  177.7720  142.9100 C   0  0  0  0  0  0  0  0  0  0  0  0
  190.3900  176.4900  143.3610 C   0  0  0  0  0  3  0  0  0  0  0  0
  191.1990  176.3310  144.4900 C   0  0  0  0  0  3  0  0  0  0  0  0
  191.3540  178.7370  144.7190 C   0  0  0  0  0  3  0  0  0  0  0  0
  190.5460  178.8970  143.5910 C   0  0  0  0  0  3  0  0  0  0  0  0
  1 12  1  0  0  0  0
  2  6  1  0  0  0  0
  3 16  1  0  0  0  0
  6 18  2  0  0  0  0
  7  9  2  0  0  0  0
  7 11  1  0  0  0  0
  8 19  1  0  0  0  0
  8 17  2  0  0  0  0
  9 13  1  0  0  0  0
 10  8  1  0  0  0  0
 11 14  2  0  0  0  0
 12  2  1  0  0  0  0
 12 23  1  1  0  0  0
 13  5  2  0  0  0  0
 13  4  1  0  0  0  0
 14  4  1  0  0  0  0
 14 18  1  0  0  0  0
 15  1  1  0  0  0  0
 16 11  1  0  0  0  0
 16  2  2  0  0  0  0
 17 21  1  0  0  0  0
 19 20  1  0  0  0  0
 20 15  2  0  0  0  0
 21 15  1  0  0  0  0
 21  3  2  0  0  0  0
 23 24  2  0  0  0  0
 23 27  1  0  0  0  0
 24 25  1  0  0  0  0
 25 22  2  0  0  0  0
 26 22  1  0  0  0  0
 27 26  2  0  0  0  0
M  END
>  <MODEL>
6

>  <REMARK>
 VINA RESULT:      -9.6      3.285      6.298
  Name = 
  1 active torsions:
  status: ('A' for Active; 'I' for Inactive)
    1  A    between atoms: C_9  and  C_15
                            x       y       z     vdW  Elec       q    Type
                         _______ _______ _______ _____ _____    ______ ____

>  <TORSDO>
F 1

$$$$
=
 OpenBabel10262420063D

 27 31  0  0  1  0  0  0  0  0999 V2000
  188.9650  177.0320  140.8640 N   0  0  0  0  0  2  0  0  0  0  0  0
  187.4780  178.0960  142.4480 C   0  0  0  0  0  0  0  0  0  0  0  0
  186.5260  178.7510  140.2210 N   0  0  0  0  0  0  0  0  0  0  0  0
  183.6610  178.3410  144.1150 N   0  0  0  0  0  2  0  0  0  0  0  0
  181.4440  178.7750  143.9160 O   0  0  0  0  0  0  0  0  0  0  0  0
  187.2580  177.8040  143.8060 C   0  0  0  0  0  3  0  0  0  0  0  0
  183.9870  178.9220  141.4330 C   0  0  0  0  0  3  0  0  0  0  0  0
  187.6090  177.9410  136.9730 C   0  0  0  0  0  0  0  0  0  0  0  0
  182.7230  179.0030  142.0200 C   0  0  0  0  0  3  0  0  0  0  0  0
  187.4180  178.3960  135.6390 N   0  0  0  0  0  1  0  0  0  0  0  0
  185.0990  178.5480  142.2000 C   0  0  0  0  0  0  0  0  0  0  0  0
  188.8690  178.0640  141.8770 C   0  0  1  0  0  3  0  0  0  0  0  0
  182.5780  178.7060  143.3760 C   0  0  0  0  0  0  0  0  0  0  0  0
  184.9040  178.2550  143.5680 C   0  0  0  0  0  0  0  0  0  0  0  0
  188.3060  177.1580  139.6070 C   0  0  0  0  0  0  0  0  0  0  0  0
  186.3820  178.4450  141.6240 C   0  0  0  0  0  0  0  0  0  0  0  0
  187.1700  178.6570  137.9640 N   0  0  0  0  0  0  0  0  0  0  0  0
  185.9830  177.8780  144.3610 C   0  0  0  0  0  3  0  0  0  0  0  0
  188.1650  176.5600  137.2050 C   0  0  0  0  0  2  0  0  0  0  0  0
  188.7350  176.4120  138.5890 C   0  0  0  0  0  3  0  0  0  0  0  0
  187.3270  178.2410  139.3270 C   0  0  0  0  0  0  0  0  0  0  0  0
  192.0550  177.6210  144.7350 C   0  0  0  0  0  3  0  0  0  0  0  0
  189.9720  177.9270  142.8880 C   0  0  0  0  0  0  0  0  0  0  0  0
  190.3890  176.6480  143.2720 C   0  0  0  0  0  3  0  0  0  0  0  0
  191.4270  176.4950  144.1960 C   0  0  0  0  0  3  0  0  0  0  0  0
  191.6470  178.9010  144.3510 C   0  0  0  0  0  3  0  0  0  0  0  0
  190.6090  179.0550  143.4280 C   0  0  0  0  0  3  0  0  0  0  0  0
  1 12  1  0  0  0  0
  2  6  1  0  0  0  0
  3 16  1  0  0  0  0
  6 18  2  0  0  0  0
  7  9  2  0  0  0  0
  7 11  1  0  0  0  0
  8 19  1  0  0  0  0
  8 17  2  0  0  0  0
  9 13  1  0  0  0  0
 10  8  1  0  0  0  0
 11 14  2  0  0  0  0
 12  2  1  0  0  0  0
 12 23  1  1  0  0  0
 13  5  2  0  0  0  0
 13  4  1  0  0  0  0
 14  4  1  0  0  0  0
 14 18  1  0  0  0  0
 15  1  1  0  0  0  0
 16 11  1  0  0  0  0
 16  2  2  0  0  0  0
 17 21  1  0  0  0  0
 19 20  1  0  0  0  0
 20 15  2  0  0  0  0
 21 15  1  0  0  0  0
 21  3  2  0  0  0  0
 23 24  2  0  0  0  0
 23 27  1  0  0  0  0
 24 25  1  0  0  0  0
 25 22  2  0  0  0  0
 26 22  1  0  0  0  0
 27 26  2  0  0  0  0
M  END
>  <MODEL>
7

>  <REMARK>
 VINA RESULT:      -9.5      3.166      6.148
  Name = 
  1 active torsions:
  status: ('A' for Active; 'I' for Inactive)
    1  A    between atoms: C_9  and  C_15
                            x       y       z     vdW  Elec       q    Type
                         _______ _______ _______ _____ _____    ______ ____

>  <TORSDO>
F 1

$$$$
=
 OpenBabel10262420063D

 27 31  0  0  1  0  0  0  0  0999 V2000
  188.8530  176.9750  143.3800 N   0  0  0  0  0  2  0  0  0  0  0  0
  186.9020  178.0650  144.3080 C   0  0  0  0  0  0  0  0  0  0  0  0
  186.8780  178.7690  141.8990 N   0  0  0  0  0  0  0  0  0  0  0  0
  182.7450  178.4030  144.4150 N   0  0  0  0  0  2  0  0  0  0  0  0
  180.7780  178.9030  143.4030 O   0  0  0  0  0  0  0  0  0  0  0  0
  186.1790  177.7660  145.4750 C   0  0  0  0  0  3  0  0  0  0  0  0
  184.0740  179.0010  142.0670 C   0  0  0  0  0  3  0  0  0  0  0  0
  189.0890  177.9600  139.2840 C   0  0  0  0  0  0  0  0  0  0  0  0
  182.6840  179.1130  142.1350 C   0  0  0  0  0  3  0  0  0  0  0  0
  189.4250  178.4340  137.9860 N   0  0  0  0  0  1  0  0  0  0  0  0
  184.8040  178.5870  143.1890 C   0  0  0  0  0  0  0  0  0  0  0  0
  188.4040  177.9990  144.3030 C   0  0  1  0  0  3  0  0  0  0  0  0
  182.0310  178.8060  143.3290 C   0  0  0  0  0  0  0  0  0  0  0  0
  184.1000  178.2870  144.3760 C   0  0  0  0  0  0  0  0  0  0  0  0
  188.7200  177.1320  141.9710 C   0  0  0  0  0  0  0  0  0  0  0  0
  186.2070  178.4540  143.1380 C   0  0  0  0  0  0  0  0  0  0  0  0
  188.3240  178.6790  140.0510 N   0  0  0  0  0  0  0  0  0  0  0  0
  184.7910  177.8720  145.5100 C   0  0  0  0  0  3  0  0  0  0  0  0
  189.4840  176.5610  139.6820 C   0  0  0  0  0  2  0  0  0  0  0  0
  189.4850  176.3840  141.1750 C   0  0  0  0  0  3  0  0  0  0  0  0
  187.9450  178.2450  141.3640 C   0  0  0  0  0  0  0  0  0  0  0  0
  190.2870  177.5010  148.1400 C   0  0  0  0  0  3  0  0  0  0  0  0
  189.0400  177.8200  145.6520 C   0  0  0  0  0  0  0  0  0  0  0  0
  190.2510  177.1240  145.7490 C   0  0  0  0  0  3  0  0  0  0  0  0
  190.8720  176.9630  146.9900 C   0  0  0  0  0  3  0  0  0  0  0  0
  189.0810  178.2020  148.0500 C   0  0  0  0  0  3  0  0  0  0  0  0
  188.4600  178.3640  146.8090 C   0  0  0  0  0  3  0  0  0  0  0  0
  1 12  1  0  0  0  0
  2  6  1  0  0  0  0
  3 16  1  0  0  0  0
  6 18  2  0  0  0  0
  7  9  2  0  0  0  0
  7 11  1  0  0  0  0
  8 19  1  0  0  0  0
  8 17  2  0  0  0  0
  9 13  1  0  0  0  0
 10  8  1  0  0  0  0
 11 14  2  0  0  0  0
 12  2  1  0  0  0  0
 12 23  1  1  0  0  0
 13  5  2  0  0  0  0
 13  4  1  0  0  0  0
 14  4  1  0  0  0  0
 14 18  1  0  0  0  0
 15  1  1  0  0  0  0
 16 11  1  0  0  0  0
 16  2  2  0  0  0  0
 17 21  1  0  0  0  0
 19 20  1  0  0  0  0
 20 15  2  0  0  0  0
 21  3  2  0  0  0  0
 21 15  1  0  0  0  0
 23 24  2  0  0  0  0
 23 27  1  0  0  0  0
 24 25  1  0  0  0  0
 25 22  2  0  0  0  0
 26 22  1  0  0  0  0
 27 26  2  0  0  0  0
M  END
>  <MODEL>
8

>  <REMARK>
 VINA RESULT:      -9.1      2.918      5.942
  Name = 
  1 active torsions:
  status: ('A' for Active; 'I' for Inactive)
    1  A    between atoms: C_9  and  C_15
                            x       y       z     vdW  Elec       q    Type
                         _______ _______ _______ _____ _____    ______ ____

>  <TORSDO>
F 1

$$$$
=
 OpenBabel10262420063D

 27 31  0  0  1  0  0  0  0  0999 V2000
  184.4630  177.9900  140.9300 N   0  0  0  0  0  2  0  0  0  0  0  0
  186.2800  178.2940  142.4980 C   0  0  0  0  0  0  0  0  0  0  0  0
  184.3160  179.3240  143.6710 N   0  0  0  0  0  0  0  0  0  0  0  0
  187.9610  177.3600  146.2010 N   0  0  0  0  0  2  0  0  0  0  0  0
  187.8930  177.4040  148.4670 O   0  0  0  0  0  0  0  0  0  0  0  0
  187.5080  177.6160  142.5880 C   0  0  0  0  0  3  0  0  0  0  0  0
  185.5360  178.6830  146.1300 C   0  0  0  0  0  3  0  0  0  0  0  0
  180.9670  179.6250  142.6350 C   0  0  0  0  0  0  0  0  0  0  0  0
  186.1260  178.3650  147.3540 C   0  0  0  0  0  3  0  0  0  0  0  0
  179.8070  180.3740  142.9780 N   0  0  0  0  0  1  0  0  0  0  0  0
  186.1700  178.3360  144.9290 C   0  0  0  0  0  0  0  0  0  0  0  0
  185.7180  178.6790  141.1580 C   0  0  1  0  0  3  0  0  0  0  0  0
  187.3510  177.6960  147.3700 C   0  0  0  0  0  0  0  0  0  0  0  0
  187.4080  177.6600  144.9940 C   0  0  0  0  0  0  0  0  0  0  0  0
  183.2890  178.3180  141.6680 C   0  0  0  0  0  0  0  0  0  0  0  0
  185.5840  178.6350  143.6820 C   0  0  0  0  0  0  0  0  0  0  0  0
  182.1170  179.9570  143.1440 N   0  0  0  0  0  0  0  0  0  0  0  0
  188.0660  177.2980  143.8230 C   0  0  0  0  0  3  0  0  0  0  0  0
  180.8150  178.3630  141.8260 C   0  0  0  0  0  2  0  0  0  0  0  0
  182.1050  177.9650  141.1660 C   0  0  0  0  0  3  0  0  0  0  0  0
  183.3150  179.2310  142.8400 C   0  0  0  0  0  0  0  0  0  0  0  0
  188.4320  178.1000  137.8680 C   0  0  0  0  0  3  0  0  0  0  0  0
  186.6510  178.4900  139.9950 C   0  0  0  0  0  0  0  0  0  0  0  0
  188.0310  178.5880  140.2050 C   0  0  0  0  0  3  0  0  0  0  0  0
  188.9200  178.3960  139.1440 C   0  0  0  0  0  3  0  0  0  0  0  0
  187.0540  177.9940  137.6530 C   0  0  0  0  0  3  0  0  0  0  0  0
  186.1650  178.1860  138.7140 C   0  0  0  0  0  3  0  0  0  0  0  0
  1 12  1  0  0  0  0
  1 15  1  0  0  0  0
  2  6  2  0  0  0  0
  2 16  1  0  0  0  0
  3 16  1  0  0  0  0
  4 13  1  0  0  0  0
  6 18  1  0  0  0  0
  7  9  2  0  0  0  0
  8 10  1  0  0  0  0
  8 17  2  0  0  0  0
  9 13  1  0  0  0  0
 11 14  1  0  0  0  0
 11  7  1  0  0  0  0
 12 23  1  6  0  0  0
 12  2  1  0  0  0  0
 13  5  2  0  0  0  0
 14  4  1  0  0  0  0
 15 21  1  0  0  0  0
 16 11  2  0  0  0  0
 18 14  2  0  0  0  0
 19  8  1  0  0  0  0
 20 15  2  0  0  0  0
 20 19  1  0  0  0  0
 21 17  1  0  0  0  0
 21  3  2  0  0  0  0
 22 25  1  0  0  0  0
 23 24  1  0  0  0  0
 25 24  2  0  0  0  0
 26 22  2  0  0  0  0
 26 27  1  0  0  0  0
 27 23  2  0  0  0  0
M  END
>  <MODEL>
9

>  <REMARK>
 VINA RESULT:      -8.9      2.942      6.241
  Name = 
  1 active torsions:
  status: ('A' for Active; 'I' for Inactive)
    1  A    between atoms: C_9  and  C_15
                            x       y       z     vdW  Elec       q    Type
                         _______ _______ _______ _____ _____    ______ ____

>  <TORSDO>
F 1

$$$$
