=
 OpenBabel10262421593D

 30 34  0  0  1  0  0  0  0  0999 V2000
  188.0610  178.4430  141.9590 C   0  0  2  0  0  3  0  0  0  0  0  0
  191.0870  175.5830  143.3070 C   0  0  0  0  0  2  0  0  0  0  0  0
  187.5880  177.1740  142.6950 C   0  0  2  0  0  3  0  0  0  0  0  0
  186.9230  179.2520  141.3180 C   0  0  0  0  0  2  0  0  0  0  0  0
  185.6790  178.5720  145.8060 C   0  0  0  0  0  0  0  0  0  0  0  0
  185.2400  178.1650  142.8370 C   0  0  0  0  0  2  0  0  0  0  0  0
  187.9570  177.5690  145.5910 C   0  0  2  0  0  3  0  0  0  0  0  0
  190.2930  176.6440  145.4220 C   0  0  0  0  0  2  0  0  0  0  0  0
  185.5850  178.5200  141.3860 C   0  0  1  0  0  3  0  0  0  0  0  0
  186.3820  177.4680  143.6100 C   0  0  2  0  0  3  0  0  0  0  0  0
  188.3220  178.3540  146.8560 C   0  0  0  0  0  2  0  0  0  0  0  0
  185.7770  178.1070  147.2280 C   0  0  0  0  0  2  0  0  0  0  0  0
  189.9320  176.2170  142.5200 C   0  0  1  0  0  3  0  0  0  0  0  0
  189.1900  178.1270  140.9720 C   0  0  1  0  0  3  0  0  0  0  0  0
  188.7440  176.5160  143.4590 C   0  0  1  0  0  3  0  0  0  0  0  0
  191.4890  176.4460  144.4990 C   0  0  0  0  0  2  0  0  0  0  0  0
  189.1650  177.3590  144.6760 C   0  0  1  0  0  3  0  0  0  0  0  0
  187.1360  178.4930  147.8290 C   0  0  0  0  0  2  0  0  0  0  0  0
  184.7120  179.2270  145.4540 O   0  0  0  0  0  0  0  0  0  0  0  0
  190.3710  177.4630  141.7220 C   0  0  2  0  0  3  0  0  0  0  0  0
  186.8160  178.2880  144.8440 C   0  0  1  0  0  3  0  0  0  0  0  0
  184.7740  178.5240  138.6430 O   0  0  0  0  0  0  0  0  0  0  0  0
  184.5410  179.3590  140.8150 N   0  0  0  0  0  2  0  0  0  0  0  0
  183.0840  180.1710  138.9290 C   0  0  0  0  0  1  0  0  0  0  0  0
  184.1770  179.3010  139.4350 C   0  0  0  0  0  0  0  0  0  0  0  0
  188.6810  177.4180  139.6950 C   0  0  0  0  0  3  0  0  0  0  0  0
  189.5320  176.2450  139.2360 C   0  0  0  0  0  1  0  0  0  0  0  0
  188.4620  178.3950  138.5570 C   0  0  0  0  0  1  0  0  0  0  0  0
  192.7040  177.8090  141.0190 C   0  0  0  0  0  2  0  0  0  0  0  0
  191.5450  177.1830  140.8300 C   0  0  0  0  0  3  0  0  0  0  0  0
  1  4  1  6  0  0  0
  1  3  1  0  0  0  0
  2 16  1  0  0  0  0
  3 15  1  0  0  0  0
  3 10  1  0  0  0  0
  4  9  1  0  0  0  0
  5 12  1  0  0  0  0
  6 10  1  0  0  0  0
  7 11  1  0  0  0  0
  9  6  1  0  0  0  0
 10 21  1  0  0  0  0
 11 18  1  0  0  0  0
 12 18  1  0  0  0  0
 13  2  1  0  0  0  0
 13 15  1  0  0  0  0
 14 20  1  0  0  0  0
 14  1  1  0  0  0  0
 15 17  1  0  0  0  0
 16  8  1  0  0  0  0
 17  8  1  0  0  0  0
 17  7  1  0  0  0  0
 19  5  2  0  0  0  0
 20 13  1  0  0  0  0
 21  7  1  0  0  0  0
 21  5  1  0  0  0  0
 22 25  2  0  0  0  0
 23  9  1  0  0  0  0
 24 25  1  0  0  0  0
 25 23  1  0  0  0  0
 26 14  1  0  0  0  0
 27 26  1  0  0  0  0
 28 26  1  0  0  0  0
 30 29  2  0  0  0  0
 30 20  1  0  0  0  0
M  END
>  <MODEL>
1

>  <REMARK>
 VINA RESULT:      -9.3      0.000      0.000
  Name = 
  3 active torsions:
  status: ('A' for Active; 'I' for Inactive)
    1  A    between atoms: C_2  and  C_22
    2  A    between atoms: N_9  and  C_12
    3  A    between atoms: C_28  and  C_29
                            x       y       z     vdW  Elec       q    Type
                         _______ _______ _______ _____ _____    ______ ____

>  <TORSDO>
F 3

$$$$
=
 OpenBabel10262421593D

 30 34  0  0  1  0  0  0  0  0999 V2000
  189.1550  178.2680  143.3410 C   0  0  2  0  0  3  0  0  0  0  0  0
  188.6300  176.6210  147.3610 C   0  0  0  0  0  2  0  0  0  0  0  0
  188.0910  177.1720  143.5460 C   0  0  2  0  0  3  0  0  0  0  0  0
  189.4290  178.6010  141.8660 C   0  0  0  0  0  2  0  0  0  0  0  0
  184.7660  178.8970  142.4310 C   0  0  0  0  0  0  0  0  0  0  0  0
  187.2140  177.6190  141.1900 C   0  0  0  0  0  2  0  0  0  0  0  0
  185.6780  178.4040  144.7030 C   0  0  2  0  0  3  0  0  0  0  0  0
  186.5850  178.0090  147.0200 C   0  0  0  0  0  2  0  0  0  0  0  0
  188.7230  177.6370  140.9150 C   0  0  1  0  0  3  0  0  0  0  0  0
  186.8420  177.4270  142.6770 C   0  0  2  0  0  3  0  0  0  0  0  0
  184.8070  179.5620  145.2050 C   0  0  0  0  0  2  0  0  0  0  0  0
  183.4380  178.8670  143.1260 C   0  0  0  0  0  2  0  0  0  0  0  0
  189.0000  176.7460  145.8770 C   0  0  1  0  0  3  0  0  0  0  0  0
  190.4350  177.9560  144.1230 C   0  0  1  0  0  3  0  0  0  0  0  0
  187.7380  177.0170  145.0310 C   0  0  1  0  0  3  0  0  0  0  0  0
  187.8520  177.8400  147.8470 C   0  0  0  0  0  2  0  0  0  0  0  0
  186.9410  178.2290  145.5490 C   0  0  1  0  0  3  0  0  0  0  0  0
  183.4870  179.6920  144.4200 C   0  0  0  0  0  2  0  0  0  0  0  0
  184.8190  179.2030  141.2510 O   0  0  0  0  0  0  0  0  0  0  0  0
  190.1040  177.7970  145.6280 C   0  0  2  0  0  3  0  0  0  0  0  0
  186.0310  178.6240  143.2190 C   0  0  1  0  0  3  0  0  0  0  0  0
  190.1250  176.0850  138.9640 O   0  0  0  0  0  0  0  0  0  0  0  0
  188.9750  178.0380  139.5390 N   0  0  0  0  0  2  0  0  0  0  0  0
  189.8710  177.6730  137.2140 C   0  0  0  0  0  1  0  0  0  0  0  0
  189.6730  177.2070  138.6110 C   0  0  0  0  0  0  0  0  0  0  0  0
  191.2740  176.8330  143.4660 C   0  0  0  0  0  3  0  0  0  0  0  0
  192.0580  177.2620  142.2360 C   0  0  0  0  0  1  0  0  0  0  0  0
  190.4350  175.6070  143.1640 C   0  0  0  0  0  1  0  0  0  0  0  0
  191.7460  176.3140  146.7060 C   0  0  0  0  0  2  0  0  0  0  0  0
  191.3220  177.5540  146.4700 C   0  0  0  0  0  3  0  0  0  0  0  0
  1  4  1  6  0  0  0
  1  3  1  0  0  0  0
  1 14  1  0  0  0  0
  2 16  1  0  0  0  0
  3 15  1  0  0  0  0
  5 12  1  0  0  0  0
  5 21  1  0  0  0  0
  6 10  1  0  0  0  0
  7 11  1  0  0  0  0
  7 17  1  0  0  0  0
  8 16  1  0  0  0  0
  9  6  1  0  0  0  0
  9  4  1  0  0  0  0
 10 21  1  0  0  0  0
 10  3  1  0  0  0  0
 12 18  1  0  0  0  0
 13  2  1  0  0  0  0
 14 20  1  0  0  0  0
 15 17  1  0  0  0  0
 15 13  1  0  0  0  0
 17  8  1  0  0  0  0
 18 11  1  0  0  0  0
 19  5  2  0  0  0  0
 20 13  1  0  0  0  0
 20 30  1  0  0  0  0
 21  7  1  0  0  0  0
 23  9  1  0  0  0  0
 24 25  1  0  0  0  0
 25 22  2  0  0  0  0
 25 23  1  0  0  0  0
 26 14  1  0  0  0  0
 27 26  1  0  0  0  0
 28 26  1  0  0  0  0
 30 29  2  0  0  0  0
M  END
>  <MODEL>
2

>  <REMARK>
 VINA RESULT:      -9.1      1.981      4.242
  Name = 
  3 active torsions:
  status: ('A' for Active; 'I' for Inactive)
    1  A    between atoms: C_2  and  C_22
    2  A    between atoms: N_9  and  C_12
    3  A    between atoms: C_28  and  C_29
                            x       y       z     vdW  Elec       q    Type
                         _______ _______ _______ _____ _____    ______ ____

>  <TORSDO>
F 3

$$$$
=
 OpenBabel10262421593D

 30 34  0  0  1  0  0  0  0  0999 V2000
  187.2670  177.4430  143.6910 C   0  0  2  0  0  3  0  0  0  0  0  0
  191.4060  178.0270  144.9850 C   0  0  0  0  0  2  0  0  0  0  0  0
  188.0440  178.6480  143.1250 C   0  0  2  0  0  3  0  0  0  0  0  0
  185.7640  177.4650  143.3700 C   0  0  0  0  0  2  0  0  0  0  0  0
  187.9890  178.0460  139.2630 C   0  0  0  0  0  0  0  0  0  0  0  0
  186.1550  179.0480  141.4550 C   0  0  0  0  0  2  0  0  0  0  0  0
  189.7960  177.7040  140.9530 C   0  0  2  0  0  3  0  0  0  0  0  0
  191.6300  177.2580  142.6210 C   0  0  0  0  0  2  0  0  0  0  0  0
  185.3320  178.7770  142.7200 C   0  0  1  0  0  3  0  0  0  0  0  0
  187.6820  178.9110  141.6490 C   0  0  2  0  0  3  0  0  0  0  0  0
  190.3820  176.6710  139.9820 C   0  0  0  0  0  2  0  0  0  0  0  0
  189.1280  178.1760  138.2970 C   0  0  0  0  0  2  0  0  0  0  0  0
  189.8950  178.2260  144.8100 C   0  0  1  0  0  3  0  0  0  0  0  0
  187.5490  177.2490  145.1840 C   0  0  1  0  0  3  0  0  0  0  0  0
  189.5550  178.4720  143.3240 C   0  0  1  0  0  3  0  0  0  0  0  0
  191.9320  176.9210  144.0750 C   0  0  0  0  0  2  0  0  0  0  0  0
  190.1190  177.3680  142.4100 C   0  0  1  0  0  3  0  0  0  0  0  0
  190.1450  177.0450  138.5060 C   0  0  0  0  0  2  0  0  0  0  0  0
  186.8420  178.0640  138.8450 O   0  0  0  0  0  0  0  0  0  0  0  0
  189.0700  177.0670  145.4110 C   0  0  2  0  0  3  0  0  0  0  0  0
  188.2750  177.8180  140.7340 C   0  0  1  0  0  3  0  0  0  0  0  0
  183.1880  179.5140  144.4640 O   0  0  0  0  0  0  0  0  0  0  0  0
  183.9160  178.7150  142.3910 N   0  0  0  0  0  2  0  0  0  0  0  0
  181.4690  179.0430  142.8920 C   0  0  0  0  0  1  0  0  0  0  0  0
  182.8940  179.1110  143.3070 C   0  0  0  0  0  0  0  0  0  0  0  0
  186.8270  178.2960  146.0660 C   0  0  0  0  0  3  0  0  0  0  0  0
  187.5150  178.5980  147.3880 C   0  0  0  0  0  1  0  0  0  0  0  0
  185.3720  177.9360  146.2920 C   0  0  0  0  0  1  0  0  0  0  0  0
  190.4530  176.0290  147.1620 C   0  0  0  0  0  2  0  0  0  0  0  0
  189.4190  176.8060  146.8470 C   0  0  0  0  0  3  0  0  0  0  0  0
  1  4  1  1  0  0  0
  1 14  1  0  0  0  0
  3 15  1  0  0  0  0
  3  1  1  0  0  0  0
  5 21  1  0  0  0  0
  6 10  1  0  0  0  0
  6  9  1  0  0  0  0
  7 17  1  0  0  0  0
  8 16  1  0  0  0  0
  9  4  1  0  0  0  0
 10  3  1  0  0  0  0
 11  7  1  0  0  0  0
 12 18  1  0  0  0  0
 12  5  1  0  0  0  0
 13  2  1  0  0  0  0
 13 20  1  0  0  0  0
 14 20  1  0  0  0  0
 14 26  1  0  0  0  0
 15 13  1  0  0  0  0
 16  2  1  0  0  0  0
 17  8  1  0  0  0  0
 17 15  1  0  0  0  0
 18 11  1  0  0  0  0
 19  5  2  0  0  0  0
 20 30  1  0  0  0  0
 21  7  1  0  0  0  0
 21 10  1  0  0  0  0
 23  9  1  0  0  0  0
 23 25  1  0  0  0  0
 24 25  1  0  0  0  0
 25 22  2  0  0  0  0
 26 28  1  0  0  0  0
 26 27  1  0  0  0  0
 30 29  2  0  0  0  0
M  END
>  <MODEL>
3

>  <REMARK>
 VINA RESULT:      -8.8      1.485      5.306
  Name = 
  3 active torsions:
  status: ('A' for Active; 'I' for Inactive)
    1  A    between atoms: C_2  and  C_22
    2  A    between atoms: N_9  and  C_12
    3  A    between atoms: C_28  and  C_29
                            x       y       z     vdW  Elec       q    Type
                         _______ _______ _______ _____ _____    ______ ____

>  <TORSDO>
F 3

$$$$
=
 OpenBabel10262421593D

 30 34  0  0  1  0  0  0  0  0999 V2000
  187.5650  178.5320  141.3370 C   0  0  2  0  0  3  0  0  0  0  0  0
  190.9130  176.5230  139.3620 C   0  0  0  0  0  2  0  0  0  0  0  0
  187.9590  177.1240  141.8240 C   0  0  2  0  0  3  0  0  0  0  0  0
  186.2390  179.0440  141.9220 C   0  0  0  0  0  2  0  0  0  0  0  0
  188.8420  177.6660  145.5920 C   0  0  0  0  0  0  0  0  0  0  0  0
  186.3980  177.4070  143.8240 C   0  0  0  0  0  2  0  0  0  0  0  0
  190.3040  177.3580  143.5910 C   0  0  2  0  0  3  0  0  0  0  0  0
  191.8310  177.1370  141.6000 C   0  0  0  0  0  2  0  0  0  0  0  0
  185.5020  177.9660  142.7120 C   0  0  1  0  0  3  0  0  0  0  0  0
  187.8100  176.9920  143.3530 C   0  0  2  0  0  3  0  0  0  0  0  0
  191.3870  178.1030  144.3810 C   0  0  0  0  0  2  0  0  0  0  0  0
  190.0220  177.1280  146.3460 C   0  0  0  0  0  2  0  0  0  0  0  0
  189.4900  176.8750  139.8150 C   0  0  1  0  0  3  0  0  0  0  0  0
  187.6120  178.6280  139.8090 C   0  0  1  0  0  3  0  0  0  0  0  0
  189.3690  176.7500  141.3490 C   0  0  1  0  0  3  0  0  0  0  0  0
  191.9550  177.3590  140.0980 C   0  0  0  0  0  2  0  0  0  0  0  0
  190.4460  177.5710  142.0830 C   0  0  1  0  0  3  0  0  0  0  0  0
  191.3130  177.8240  145.8950 C   0  0  0  0  0  2  0  0  0  0  0  0
  187.8630  178.0540  146.2090 O   0  0  0  0  0  0  0  0  0  0  0  0
  189.0290  178.2570  139.3040 C   0  0  2  0  0  3  0  0  0  0  0  0
  188.9100  177.7920  144.0840 C   0  0  1  0  0  3  0  0  0  0  0  0
  183.0030  178.2500  141.3500 O   0  0  0  0  0  0  0  0  0  0  0  0
  184.2870  178.5270  143.2840 N   0  0  0  0  0  2  0  0  0  0  0  0
  181.8580  179.1890  143.2090 C   0  0  0  0  0  1  0  0  0  0  0  0
  183.0660  178.6280  142.5500 C   0  0  0  0  0  0  0  0  0  0  0  0
  186.4170  177.9160  139.1320 C   0  0  0  0  0  3  0  0  0  0  0  0
  186.7910  177.0110  137.9680 C   0  0  0  0  0  1  0  0  0  0  0  0
  185.3380  178.8970  138.7180 C   0  0  0  0  0  1  0  0  0  0  0  0
  189.0550  179.5810  137.2300 C   0  0  0  0  0  2  0  0  0  0  0  0
  189.1730  178.3920  137.8170 C   0  0  0  0  0  3  0  0  0  0  0  0
  1  3  1  0  0  0  0
  1  4  1  6  0  0  0
  2 13  1  0  0  0  0
  2 16  1  0  0  0  0
  3 10  1  0  0  0  0
  4  9  1  0  0  0  0
  5 19  2  0  0  0  0
  5 12  1  0  0  0  0
  7 21  1  0  0  0  0
  7 11  1  0  0  0  0
  8 17  1  0  0  0  0
  9 23  1  0  0  0  0
  9  6  1  0  0  0  0
 10  6  1  0  0  0  0
 10 21  1  0  0  0  0
 11 18  1  0  0  0  0
 13 15  1  0  0  0  0
 14  1  1  0  0  0  0
 15  3  1  0  0  0  0
 15 17  1  0  0  0  0
 16  8  1  0  0  0  0
 17  7  1  0  0  0  0
 18 12  1  0  0  0  0
 20 14  1  0  0  0  0
 20 13  1  0  0  0  0
 21  5  1  0  0  0  0
 22 25  2  0  0  0  0
 25 24  1  0  0  0  0
 25 23  1  0  0  0  0
 26 14  1  0  0  0  0
 27 26  1  0  0  0  0
 28 26  1  0  0  0  0
 29 30  2  0  0  0  0
 30 20  1  0  0  0  0
M  END
>  <MODEL>
4

>  <REMARK>
 VINA RESULT:      -8.0      1.747      3.235
  Name = 
  3 active torsions:
  status: ('A' for Active; 'I' for Inactive)
    1  A    between atoms: C_2  and  C_22
    2  A    between atoms: N_9  and  C_12
    3  A    between atoms: C_28  and  C_29
                            x       y       z     vdW  Elec       q    Type
                         _______ _______ _______ _____ _____    ______ ____

>  <TORSDO>
F 3

$$$$
=
 OpenBabel10262421593D

 30 34  0  0  1  0  0  0  0  0999 V2000
  188.1170  177.1880  142.1510 C   0  0  2  0  0  3  0  0  0  0  0  0
  192.2080  177.5030  140.6300 C   0  0  0  0  0  2  0  0  0  0  0  0
  188.4570  178.3640  141.2140 C   0  0  2  0  0  3  0  0  0  0  0  0
  186.7370  177.3040  142.8180 C   0  0  0  0  0  2  0  0  0  0  0  0
  186.0120  177.8780  138.2040 C   0  0  0  0  0  0  0  0  0  0  0  0
  185.9710  178.9170  141.0470 C   0  0  0  0  0  2  0  0  0  0  0  0
  188.4500  177.3870  138.4340 C   0  0  2  0  0  3  0  0  0  0  0  0
  190.8900  176.7910  138.6340 C   0  0  0  0  0  2  0  0  0  0  0  0
  186.0800  178.6570  142.5550 C   0  0  1  0  0  3  0  0  0  0  0  0
  187.2840  178.6890  140.2670 C   0  0  2  0  0  3  0  0  0  0  0  0
  188.2530  176.3520  137.3200 C   0  0  0  0  0  2  0  0  0  0  0  0
  186.3270  177.9720  136.7400 C   0  0  0  0  0  2  0  0  0  0  0  0
  190.9220  177.7910  141.4160 C   0  0  1  0  0  3  0  0  0  0  0  0
  189.2410  176.9360  143.1610 C   0  0  1  0  0  3  0  0  0  0  0  0
  189.7600  178.0990  140.4480 C   0  0  1  0  0  3  0  0  0  0  0  0
  191.9970  176.3960  139.6020 C   0  0  0  0  0  2  0  0  0  0  0  0
  189.5760  176.9920  139.3920 C   0  0  1  0  0  3  0  0  0  0  0  0
  187.1860  176.7810  136.2950 C   0  0  0  0  0  2  0  0  0  0  0  0
  184.8540  177.9720  138.5760 O   0  0  0  0  0  0  0  0  0  0  0  0
  190.5680  176.6630  142.4100 C   0  0  2  0  0  3  0  0  0  0  0  0
  187.1240  177.5920  139.1930 C   0  0  1  0  0  3  0  0  0  0  0  0
  185.5320  179.1910  145.3110 O   0  0  0  0  0  0  0  0  0  0  0  0
  184.7580  178.6820  143.1630 N   0  0  0  0  0  2  0  0  0  0  0  0
  183.1720  179.0030  145.0940 C   0  0  0  0  0  1  0  0  0  0  0  0
  184.5540  178.9690  144.5480 C   0  0  0  0  0  0  0  0  0  0  0  0
  189.2770  177.9960  144.2870 C   0  0  0  0  0  3  0  0  0  0  0  0
  190.5280  178.8610  144.3070 C   0  0  0  0  0  1  0  0  0  0  0  0
  189.0350  177.3780  145.6500 C   0  0  0  0  0  1  0  0  0  0  0  0
  191.6860  175.2350  144.0730 C   0  0  0  0  0  2  0  0  0  0  0  0
  191.7060  176.3410  143.3330 C   0  0  0  0  0  3  0  0  0  0  0  0
  1  4  1  1  0  0  0
  1 14  1  0  0  0  0
  2 13  1  0  0  0  0
  3  1  1  0  0  0  0
  5 19  2  0  0  0  0
  5 21  1  0  0  0  0
  6  9  1  0  0  0  0
  7 21  1  0  0  0  0
  7 17  1  0  0  0  0
  8 17  1  0  0  0  0
  8 16  1  0  0  0  0
  9  4  1  0  0  0  0
  9 23  1  0  0  0  0
 10  6  1  0  0  0  0
 10  3  1  0  0  0  0
 11  7  1  0  0  0  0
 12  5  1  0  0  0  0
 13 20  1  0  0  0  0
 14 26  1  0  0  0  0
 15  3  1  0  0  0  0
 15 13  1  0  0  0  0
 16  2  1  0  0  0  0
 17 15  1  0  0  0  0
 18 12  1  0  0  0  0
 18 11  1  0  0  0  0
 20 14  1  0  0  0  0
 20 30  1  0  0  0  0
 21 10  1  0  0  0  0
 23 25  1  0  0  0  0
 25 24  1  0  0  0  0
 25 22  2  0  0  0  0
 26 27  1  0  0  0  0
 26 28  1  0  0  0  0
 30 29  2  0  0  0  0
M  END
>  <MODEL>
5

>  <REMARK>
 VINA RESULT:      -8.0      1.574      5.621
  Name = 
  3 active torsions:
  status: ('A' for Active; 'I' for Inactive)
    1  A    between atoms: C_2  and  C_22
    2  A    between atoms: N_9  and  C_12
    3  A    between atoms: C_28  and  C_29
                            x       y       z     vdW  Elec       q    Type
                         _______ _______ _______ _____ _____    ______ ____

>  <TORSDO>
F 3

$$$$
=
 OpenBabel10262421593D

 30 34  0  0  1  0  0  0  0  0999 V2000
  189.8230  178.1260  143.6540 C   0  0  2  0  0  3  0  0  0  0  0  0
  186.8930  176.9190  146.6710 C   0  0  0  0  0  2  0  0  0  0  0  0
  188.8240  177.0080  143.2930 C   0  0  2  0  0  3  0  0  0  0  0  0
  190.9540  178.3040  142.6280 C   0  0  0  0  0  2  0  0  0  0  0  0
  186.9360  178.4300  140.1800 C   0  0  0  0  0  0  0  0  0  0  0  0
  189.5910  177.1430  140.8620 C   0  0  0  0  0  2  0  0  0  0  0  0
  186.2470  178.2420  142.5730 C   0  0  2  0  0  3  0  0  0  0  0  0
  185.5290  178.1560  144.9860 C   0  0  0  0  0  2  0  0  0  0  0  0
  190.9510  177.2050  141.5690 C   0  0  1  0  0  3  0  0  0  0  0  0
  188.3800  177.1020  141.8190 C   0  0  2  0  0  3  0  0  0  0  0  0
  185.2870  179.4040  142.2930 C   0  0  0  0  0  2  0  0  0  0  0  0
  185.4610  178.4120  139.9140 C   0  0  0  0  0  2  0  0  0  0  0  0
  188.0990  176.8950  145.7230 C   0  0  1  0  0  3  0  0  0  0  0  0
  190.3440  177.9680  145.0860 C   0  0  1  0  0  3  0  0  0  0  0  0
  187.6300  177.0040  144.2560 C   0  0  1  0  0  3  0  0  0  0  0  0
  186.0170  178.1450  146.4290 C   0  0  0  0  0  2  0  0  0  0  0  0
  186.7200  178.2260  144.0290 C   0  0  1  0  0  3  0  0  0  0  0  0
  184.7310  179.3780  140.8570 C   0  0  0  0  0  2  0  0  0  0  0  0
  187.7120  178.6020  139.2530 O   0  0  0  0  0  0  0  0  0  0  0  0
  189.1540  177.9640  146.0780 C   0  0  2  0  0  3  0  0  0  0  0  0
  187.4430  178.3100  141.6030 C   0  0  1  0  0  3  0  0  0  0  0  0
  191.2750  175.8480  139.0720 O   0  0  0  0  0  0  0  0  0  0  0  0
  192.0060  177.4600  140.6000 N   0  0  0  0  0  2  0  0  0  0  0  0
  193.1940  177.0860  138.4110 C   0  0  0  0  0  1  0  0  0  0  0  0
  192.1030  176.7530  139.3630 C   0  0  0  0  0  0  0  0  0  0  0  0
  191.3750  176.8220  145.2200 C   0  0  0  0  0  3  0  0  0  0  0  0
  191.0170  175.5530  144.4640 C   0  0  0  0  0  1  0  0  0  0  0  0
  191.6830  176.5100  146.6710 C   0  0  0  0  0  1  0  0  0  0  0  0
  189.0140  178.6370  148.4410 C   0  0  0  0  0  2  0  0  0  0  0  0
  189.5910  177.8790  147.5110 C   0  0  0  0  0  3  0  0  0  0  0  0
  1  4  1  6  0  0  0
  1 14  1  0  0  0  0
  3  1  1  0  0  0  0
  3 15  1  0  0  0  0
  5 21  1  0  0  0  0
  6  9  1  0  0  0  0
  6 10  1  0  0  0  0
  7 17  1  0  0  0  0
  8 16  1  0  0  0  0
  9  4  1  0  0  0  0
 10  3  1  0  0  0  0
 11  7  1  0  0  0  0
 12  5  1  0  0  0  0
 12 18  1  0  0  0  0
 13 20  1  0  0  0  0
 13  2  1  0  0  0  0
 14 26  1  0  0  0  0
 14 20  1  0  0  0  0
 15 13  1  0  0  0  0
 16  2  1  0  0  0  0
 17 15  1  0  0  0  0
 17  8  1  0  0  0  0
 18 11  1  0  0  0  0
 19  5  2  0  0  0  0
 20 30  1  0  0  0  0
 21 10  1  0  0  0  0
 21  7  1  0  0  0  0
 22 25  2  0  0  0  0
 23  9  1  0  0  0  0
 24 25  1  0  0  0  0
 25 23  1  0  0  0  0
 26 28  1  0  0  0  0
 27 26  1  0  0  0  0
 30 29  2  0  0  0  0
M  END
>  <MODEL>
6

>  <REMARK>
 VINA RESULT:      -8.0      2.353      5.901
  Name = 
  3 active torsions:
  status: ('A' for Active; 'I' for Inactive)
    1  A    between atoms: C_2  and  C_22
    2  A    between atoms: N_9  and  C_12
    3  A    between atoms: C_28  and  C_29
                            x       y       z     vdW  Elec       q    Type
                         _______ _______ _______ _____ _____    ______ ____

>  <TORSDO>
F 3

$$$$
=
 OpenBabel10262421593D

 30 34  0  0  1  0  0  0  0  0999 V2000
  187.1290  177.4850  143.4010 C   0  0  2  0  0  3  0  0  0  0  0  0
  191.0800  178.0340  145.2010 C   0  0  0  0  0  2  0  0  0  0  0  0
  188.0190  178.6270  142.8720 C   0  0  2  0  0  3  0  0  0  0  0  0
  185.6840  177.5290  142.8800 C   0  0  0  0  0  2  0  0  0  0  0  0
  188.4520  177.7730  139.0820 C   0  0  0  0  0  0  0  0  0  0  0  0
  186.3840  178.9700  140.9420 C   0  0  0  0  0  2  0  0  0  0  0  0
  190.0070  177.4910  141.0170 C   0  0  2  0  0  3  0  0  0  0  0  0
  191.5860  177.1050  142.9410 C   0  0  0  0  0  2  0  0  0  0  0  0
  185.3910  178.8070  142.0990 C   0  0  1  0  0  3  0  0  0  0  0  0
  187.8650  178.8020  141.3470 C   0  0  2  0  0  3  0  0  0  0  0  0
  190.6770  176.3810  140.1990 C   0  0  0  0  0  2  0  0  0  0  0  0
  189.7130  177.8070  138.2710 C   0  0  0  0  0  2  0  0  0  0  0  0
  189.6140  178.2640  144.8130 C   0  0  1  0  0  3  0  0  0  0  0  0
  187.2040  177.3820  144.9280 C   0  0  1  0  0  3  0  0  0  0  0  0
  189.4830  178.4220  143.2830 C   0  0  1  0  0  3  0  0  0  0  0  0
  191.6800  176.8560  144.4400 C   0  0  0  0  0  2  0  0  0  0  0  0
  190.1210  177.2440  142.5220 C   0  0  1  0  0  3  0  0  0  0  0  0
  190.6510  176.6630  138.6840 C   0  0  0  0  0  2  0  0  0  0  0  0
  187.3730  177.7970  138.5130 O   0  0  0  0  0  0  0  0  0  0  0  0
  188.6740  177.1720  145.3680 C   0  0  2  0  0  3  0  0  0  0  0  0
  188.5330  177.6340  140.5890 C   0  0  1  0  0  3  0  0  0  0  0  0
  184.5510  179.7530  139.5340 O   0  0  0  0  0  0  0  0  0  0  0  0
  184.0290  178.7640  141.5870 N   0  0  0  0  0  2  0  0  0  0  0  0
  182.2720  179.1430  139.8230 C   0  0  0  0  0  1  0  0  0  0  0  0
  183.6800  179.2430  140.2880 C   0  0  0  0  0  0  0  0  0  0  0  0
  186.4120  178.5060  145.6390 C   0  0  0  0  0  3  0  0  0  0  0  0
  186.8450  178.7830  147.0690 C   0  0  0  0  0  1  0  0  0  0  0  0
  184.9160  178.2700  145.5700 C   0  0  0  0  0  1  0  0  0  0  0  0
  189.8730  176.3580  147.3570 C   0  0  0  0  0  2  0  0  0  0  0  0
  188.8200  176.9960  146.8510 C   0  0  0  0  0  3  0  0  0  0  0  0
  1  4  1  1  0  0  0
  1 14  1  0  0  0  0
  3 15  1  0  0  0  0
  3  1  1  0  0  0  0
  5 21  1  0  0  0  0
  6 10  1  0  0  0  0
  6  9  1  0  0  0  0
  7 17  1  0  0  0  0
  8 16  1  0  0  0  0
  9  4  1  0  0  0  0
 10  3  1  0  0  0  0
 11  7  1  0  0  0  0
 12 18  1  0  0  0  0
 12  5  1  0  0  0  0
 13  2  1  0  0  0  0
 13 20  1  0  0  0  0
 14 20  1  0  0  0  0
 14 26  1  0  0  0  0
 15 13  1  0  0  0  0
 16  2  1  0  0  0  0
 17  8  1  0  0  0  0
 17 15  1  0  0  0  0
 18 11  1  0  0  0  0
 19  5  2  0  0  0  0
 20 30  1  0  0  0  0
 21  7  1  0  0  0  0
 21 10  1  0  0  0  0
 22 25  2  0  0  0  0
 23  9  1  0  0  0  0
 24 25  1  0  0  0  0
 25 23  1  0  0  0  0
 26 27  1  0  0  0  0
 28 26  1  0  0  0  0
 30 29  2  0  0  0  0
M  END
>  <MODEL>
7

>  <REMARK>
 VINA RESULT:      -7.9      1.581      5.125
  Name = 
  3 active torsions:
  status: ('A' for Active; 'I' for Inactive)
    1  A    between atoms: C_2  and  C_22
    2  A    between atoms: N_9  and  C_12
    3  A    between atoms: C_28  and  C_29
                            x       y       z     vdW  Elec       q    Type
                         _______ _______ _______ _____ _____    ______ ____

>  <TORSDO>
F 3

$$$$
=
 OpenBabel10262421593D

 30 34  0  0  1  0  0  0  0  0999 V2000
  186.6890  178.9030  142.5320 C   0  0  2  0  0  3  0  0  0  0  0  0
  190.2520  176.6600  141.3420 C   0  0  0  0  0  2  0  0  0  0  0  0
  186.8690  177.4750  143.0850 C   0  0  2  0  0  3  0  0  0  0  0  0
  185.3030  179.5070  142.8090 C   0  0  0  0  0  2  0  0  0  0  0  0
  186.9210  177.9880  146.9590 C   0  0  0  0  0  0  0  0  0  0  0  0
  184.9230  177.8780  144.6870 C   0  0  0  0  0  2  0  0  0  0  0  0
  188.7700  177.5670  145.3340 C   0  0  2  0  0  3  0  0  0  0  0  0
  190.6850  177.2290  143.7330 C   0  0  0  0  0  2  0  0  0  0  0  0
  184.3370  178.4870  143.4070 C   0  0  1  0  0  3  0  0  0  0  0  0
  186.3730  177.3660  144.5410 C   0  0  2  0  0  3  0  0  0  0  0  0
  189.6960  178.2450  146.3520 C   0  0  0  0  0  2  0  0  0  0  0  0
  187.8630  177.3790  147.9540 C   0  0  0  0  0  2  0  0  0  0  0  0
  188.7910  177.1090  141.4670 C   0  0  1  0  0  3  0  0  0  0  0  0
  187.0830  178.9830  141.0540 C   0  0  1  0  0  3  0  0  0  0  0  0
  188.3220  177.0050  142.9340 C   0  0  1  0  0  3  0  0  0  0  0  0
  191.1570  177.4300  142.2990 C   0  0  0  0  0  2  0  0  0  0  0  0
  189.2590  177.7590  143.8970 C   0  0  1  0  0  3  0  0  0  0  0  0
  189.2670  177.9830  147.8080 C   0  0  0  0  0  2  0  0  0  0  0  0
  185.8560  178.4450  147.3430 O   0  0  0  0  0  0  0  0  0  0  0  0
  188.5490  178.5150  140.8770 C   0  0  2  0  0  3  0  0  0  0  0  0
  187.3330  178.0970  145.5050 C   0  0  1  0  0  3  0  0  0  0  0  0
  181.9900  178.3330  141.7790 O   0  0  0  0  0  0  0  0  0  0  0  0
  183.0650  179.1310  143.6960 N   0  0  0  0  0  2  0  0  0  0  0  0
  180.6520  179.6700  143.2190 C   0  0  0  0  0  1  0  0  0  0  0  0
  181.9260  179.0030  142.8450 C   0  0  0  0  0  0  0  0  0  0  0  0
  186.0250  178.3470  140.1210 C   0  0  0  0  0  3  0  0  0  0  0  0
  186.5540  177.9100  138.7640 C   0  0  0  0  0  1  0  0  0  0  0  0
  184.8100  179.2380  139.9590 C   0  0  0  0  0  1  0  0  0  0  0  0
  189.8070  177.6840  138.9320 C   0  0  0  0  0  2  0  0  0  0  0  0
  189.0310  178.6280  139.4600 C   0  0  0  0  0  3  0  0  0  0  0  0
  1  4  1  6  0  0  0
  1  3  1  0  0  0  0
  2 13  1  0  0  0  0
  2 16  1  0  0  0  0
  3 10  1  0  0  0  0
  4  9  1  0  0  0  0
  5 19  2  0  0  0  0
  5 12  1  0  0  0  0
  7 21  1  0  0  0  0
  7 11  1  0  0  0  0
  8 17  1  0  0  0  0
  9 23  1  0  0  0  0
  9  6  1  0  0  0  0
 10  6  1  0  0  0  0
 10 21  1  0  0  0  0
 11 18  1  0  0  0  0
 13 15  1  0  0  0  0
 14  1  1  0  0  0  0
 15  3  1  0  0  0  0
 15 17  1  0  0  0  0
 16  8  1  0  0  0  0
 17  7  1  0  0  0  0
 18 12  1  0  0  0  0
 20 14  1  0  0  0  0
 20 13  1  0  0  0  0
 21  5  1  0  0  0  0
 22 25  2  0  0  0  0
 25 24  1  0  0  0  0
 25 23  1  0  0  0  0
 26 14  1  0  0  0  0
 27 26  1  0  0  0  0
 28 26  1  0  0  0  0
 29 30  2  0  0  0  0
 30 20  1  0  0  0  0
M  END
>  <MODEL>
8

>  <REMARK>
 VINA RESULT:      -7.8      1.845      2.577
  Name = 
  3 active torsions:
  status: ('A' for Active; 'I' for Inactive)
    1  A    between atoms: C_2  and  C_22
    2  A    between atoms: N_9  and  C_12
    3  A    between atoms: C_28  and  C_29
                            x       y       z     vdW  Elec       q    Type
                         _______ _______ _______ _____ _____    ______ ____

>  <TORSDO>
F 3

$$$$
=
 OpenBabel10262421593D

 30 34  0  0  1  0  0  0  0  0999 V2000
  188.4990  178.2520  144.7410 C   0  0  2  0  0  3  0  0  0  0  0  0
  184.5700  177.9790  142.8350 C   0  0  0  0  0  2  0  0  0  0  0  0
  188.1910  177.0100  143.8810 C   0  0  2  0  0  3  0  0  0  0  0  0
  189.7970  178.1380  145.5560 C   0  0  0  0  0  2  0  0  0  0  0  0
  190.9470  177.1000  141.1120 C   0  0  0  0  0  0  0  0  0  0  0  0
  190.6480  176.3320  144.0260 C   0  0  0  0  0  2  0  0  0  0  0  0
  188.5290  177.7190  141.0420 C   0  0  2  0  0  3  0  0  0  0  0  0
  186.1180  178.4400  140.9320 C   0  0  0  0  0  2  0  0  0  0  0  0
  190.4030  176.7380  145.4850 C   0  0  1  0  0  3  0  0  0  0  0  0
  189.4340  176.5440  143.0950 C   0  0  2  0  0  3  0  0  0  0  0  0
  188.8920  178.6350  139.8660 C   0  0  0  0  0  2  0  0  0  0  0  0
  190.7760  176.8820  139.6380 C   0  0  0  0  0  2  0  0  0  0  0  0
  185.7540  177.7090  143.7730 C   0  0  1  0  0  3  0  0  0  0  0  0
  187.2950  178.6480  145.6010 C   0  0  1  0  0  3  0  0  0  0  0  0
  186.9880  177.2600  142.9630 C   0  0  1  0  0  3  0  0  0  0  0  0
  184.9420  178.9740  141.7390 C   0  0  0  0  0  2  0  0  0  0  0  0
  187.3360  178.2530  141.8380 C   0  0  1  0  0  3  0  0  0  0  0  0
  190.0320  178.0640  139.0020 C   0  0  0  0  0  2  0  0  0  0  0  0
  192.0570  176.9890  141.6100 O   0  0  0  0  0  0  0  0  0  0  0  0
  186.0660  178.9090  144.6930 C   0  0  2  0  0  3  0  0  0  0  0  0
  189.7600  177.5280  141.9500 C   0  0  1  0  0  3  0  0  0  0  0  0
  190.9530  175.0770  147.7460 O   0  0  0  0  0  0  0  0  0  0  0  0
  191.6540  176.7110  146.2280 N   0  0  0  0  0  2  0  0  0  0  0  0
  193.1800  175.8540  148.0390 C   0  0  0  0  0  1  0  0  0  0  0  0
  191.8670  175.8450  147.3430 C   0  0  0  0  0  0  0  0  0  0  0  0
  187.0890  177.7020  146.8070 C   0  0  0  0  0  3  0  0  0  0  0  0
  185.6390  177.5030  147.2200 C   0  0  0  0  0  1  0  0  0  0  0  0
  187.9300  178.1170  147.9980 C   0  0  0  0  0  1  0  0  0  0  0  0
  183.6380  179.0030  145.0820 C   0  0  0  0  0  2  0  0  0  0  0  0
  184.8610  179.3670  145.4610 C   0  0  0  0  0  3  0  0  0  0  0  0
  1  4  1  1  0  0  0
  1 14  1  0  0  0  0
  2 13  1  0  0  0  0
  3  1  1  0  0  0  0
  5 19  2  0  0  0  0
  5 21  1  0  0  0  0
  6  9  1  0  0  0  0
  7 17  1  0  0  0  0
  7 21  1  0  0  0  0
  8 16  1  0  0  0  0
  8 17  1  0  0  0  0
  9  4  1  0  0  0  0
  9 23  1  0  0  0  0
 10  3  1  0  0  0  0
 10  6  1  0  0  0  0
 11  7  1  0  0  0  0
 12  5  1  0  0  0  0
 13 20  1  0  0  0  0
 14 26  1  0  0  0  0
 15 13  1  0  0  0  0
 15  3  1  0  0  0  0
 16  2  1  0  0  0  0
 17 15  1  0  0  0  0
 18 12  1  0  0  0  0
 18 11  1  0  0  0  0
 20 30  1  0  0  0  0
 20 14  1  0  0  0  0
 21 10  1  0  0  0  0
 23 25  1  0  0  0  0
 25 22  2  0  0  0  0
 25 24  1  0  0  0  0
 26 27  1  0  0  0  0
 26 28  1  0  0  0  0
 29 30  2  0  0  0  0
M  END
>  <MODEL>
9

>  <REMARK>
 VINA RESULT:      -7.6      2.958      7.524
  Name = 
  3 active torsions:
  status: ('A' for Active; 'I' for Inactive)
    1  A    between atoms: C_2  and  C_22
    2  A    between atoms: N_9  and  C_12
    3  A    between atoms: C_28  and  C_29
                            x       y       z     vdW  Elec       q    Type
                         _______ _______ _______ _____ _____    ______ ____

>  <TORSDO>
F 3

$$$$
