=
 OpenBabel10262419213D

 31 37  0  0  1  0  0  0  0  0999 V2000
  186.0900  178.9010  140.7640 C   0  0  0  0  0  0  0  0  0  0  0  0
  189.2420  176.7810  141.0370 C   0  0  1  0  0  3  0  0  0  0  0  0
  189.2380  176.8910  142.5470 C   0  0  0  0  0  0  0  0  0  0  0  0
  187.2970  176.9100  144.0770 C   0  0  0  0  0  3  0  0  0  0  0  0
  188.2960  177.7630  140.3630 C   0  0  2  0  0  0  0  0  0  0  0  0
  185.5700  178.3130  139.4970 C   0  0  0  0  0  2  0  0  0  0  0  0
  188.2250  176.0650  143.2720 C   0  0  0  0  0  2  0  0  0  0  0  0
  190.4900  178.0080  139.2670 C   0  0  1  0  0  3  0  0  0  0  0  0
  185.2980  179.5520  141.5490 N   0  0  0  0  0  2  0  0  0  0  0  0
  191.2980  178.2640  142.4580 C   0  0  0  0  0  2  0  0  0  0  0  0
  187.7110  177.6650  145.0910 C   0  0  0  0  0  3  0  0  0  0  0  0
  189.0220  178.5040  139.2670 C   0  0  1  0  0  3  0  0  0  0  0  0
  190.6250  177.0200  140.4180 C   0  0  2  0  0  0  0  0  0  0  0  0
  190.9460  176.5540  139.0100 C   0  0  1  0  0  3  0  0  0  0  0  0
  187.4300  178.6230  141.1690 N   0  0  0  0  0  2  0  0  0  0  0  0
  189.1210  177.8330  145.4910 C   0  0  0  0  0  3  0  0  0  0  0  0
  187.9070  177.5180  138.9060 C   0  0  2  0  0  3  0  0  0  0  0  0
  186.6810  178.3160  138.4530 C   0  0  0  0  0  2  0  0  0  0  0  0
  191.7950  177.3740  141.3240 C   0  0  0  0  0  2  0  0  0  0  0  0
  190.1780  177.6030  143.2110 C   0  0  0  0  0  0  0  0  0  0  0  0
  190.1840  177.7970  144.6770 C   0  0  0  0  0  3  0  0  0  0  0  0
  189.9200  175.5940  138.4160 C   0  0  0  0  0  2  0  0  0  0  0  0
  191.8480  175.1720  136.8630 C   0  0  0  0  0  2  0  0  0  0  0  0
  191.0960  173.1820  135.5850 C   0  0  0  0  0  1  0  0  0  0  0  0
  191.1330  173.8320  136.9580 C   0  0  2  0  0  3  0  0  0  0  0  0
  190.3460  175.1390  137.0260 C   0  0  1  0  0  0  0  0  0  0  0  0
  189.6140  175.6750  135.7910 C   0  0  2  0  0  3  0  0  0  0  0  0
  189.9710  177.0040  135.5590 O   0  0  0  0  0  1  0  0  0  0  0  0
  188.1080  175.5630  135.9640 C   0  0  0  0  0  2  0  0  0  0  0  0
  187.7360  174.2210  136.0350 O   0  0  0  0  0  0  0  0  0  0  0  0
  186.7190  174.1900  136.9870 C   0  0  0  0  0  1  0  0  0  0  0  0
  1 15  1  0  0  0  0
  1  9  2  0  0  0  0
  2  3  1  1  0  0  0
  3 20  2  0  0  0  0
  3  7  1  0  0  0  0
  4 11  2  0  0  0  0
  5  2  1  0  0  0  0
  5 15  1  1  0  0  0
  6  1  1  0  0  0  0
  7  4  1  0  0  0  0
  8 12  1  0  0  0  0
  8 13  1  0  0  0  0
 10 20  1  0  0  0  0
 11 16  1  0  0  0  0
 12  5  1  0  0  0  0
 13  2  1  0  0  0  0
 13 19  1  0  0  0  0
 14  8  1  0  0  0  0
 14 13  1  0  0  0  0
 17 12  1  0  0  0  0
 17  5  1  0  0  0  0
 18 17  1  0  0  0  0
 18  6  1  0  0  0  0
 19 10  1  0  0  0  0
 20 21  1  0  0  0  0
 21 16  2  0  0  0  0
 22 14  1  0  0  0  0
 23 25  1  0  0  0  0
 23 26  1  0  0  0  0
 24 25  1  0  0  0  0
 25 26  1  0  0  0  0
 26 22  1  0  0  0  0
 27 29  1  0  0  0  0
 27 26  1  0  0  0  0
 28 27  1  0  0  0  0
 29 30  1  0  0  0  0
 30 31  1  0  0  0  0
M  END
>  <MODEL>
1

>  <REMARK>
 VINA RESULT:      -7.4      0.000      0.000
  Name = 
  5 active torsions:
  status: ('A' for Active; 'I' for Inactive)
    1  A    between atoms: O_1  and  C_8
    2  A    between atoms: C_8  and  C_19
    3  A    between atoms: C_9  and  C_22
    4  A    between atoms: C_9  and  C_23
    5  A    between atoms: C_19  and  C_22
                            x       y       z     vdW  Elec       q    Type
                         _______ _______ _______ _____ _____    ______ ____

>  <TORSDO>
F 5

$$$$
=
 OpenBabel10262419213D

 31 37  0  0  1  0  0  0  0  0999 V2000
  186.0800  178.9830  141.0060 C   0  0  0  0  0  0  0  0  0  0  0  0
  189.2000  176.8000  141.0360 C   0  0  1  0  0  3  0  0  0  0  0  0
  189.2740  176.8480  142.5470 C   0  0  0  0  0  0  0  0  0  0  0  0
  187.4120  176.8390  144.1720 C   0  0  0  0  0  3  0  0  0  0  0  0
  188.2410  177.8250  140.4490 C   0  0  2  0  0  0  0  0  0  0  0  0
  185.4870  178.4560  139.7440 C   0  0  0  0  0  2  0  0  0  0  0  0
  188.2820  176.0120  143.2890 C   0  0  0  0  0  2  0  0  0  0  0  0
  190.3820  178.0760  139.2550 C   0  0  1  0  0  3  0  0  0  0  0  0
  185.3410  179.6150  141.8550 N   0  0  0  0  0  2  0  0  0  0  0  0
  191.3530  178.1890  142.4080 C   0  0  0  0  0  2  0  0  0  0  0  0
  187.8900  177.5450  145.1930 C   0  0  0  0  0  3  0  0  0  0  0  0
  188.9250  178.5970  139.3480 C   0  0  1  0  0  3  0  0  0  0  0  0
  190.5550  177.0400  140.3580 C   0  0  2  0  0  0  0  0  0  0  0  0
  190.7970  176.6260  138.9170 C   0  0  1  0  0  3  0  0  0  0  0  0
  187.4320  178.6660  141.3310 N   0  0  0  0  0  2  0  0  0  0  0  0
  189.3210  177.6730  145.5280 C   0  0  0  0  0  3  0  0  0  0  0  0
  187.7750  177.6450  139.0050 C   0  0  2  0  0  3  0  0  0  0  0  0
  186.5440  178.4820  138.6460 C   0  0  0  0  0  2  0  0  0  0  0  0
  191.7750  177.3370  141.2170 C   0  0  0  0  0  2  0  0  0  0  0  0
  190.2590  177.5170  143.1900 C   0  0  0  0  0  0  0  0  0  0  0  0
  190.3420  177.6510  144.6610 C   0  0  0  0  0  3  0  0  0  0  0  0
  189.7240  175.7080  138.3380 C   0  0  0  0  0  2  0  0  0  0  0  0
  188.6480  175.5740  136.0730 C   0  0  0  0  0  2  0  0  0  0  0  0
  190.3590  176.5960  134.5940 C   0  0  0  0  0  1  0  0  0  0  0  0
  189.6710  176.6940  135.9450 C   0  0  2  0  0  3  0  0  0  0  0  0
  189.9440  175.4920  136.8470 C   0  0  1  0  0  0  0  0  0  0  0  0
  190.8370  174.3430  136.3670 C   0  0  2  0  0  3  0  0  0  0  0  0
  190.1220  173.1430  136.3710 O   0  0  0  0  0  1  0  0  0  0  0  0
  192.0710  174.2150  137.2440 C   0  0  0  0  0  2  0  0  0  0  0  0
  193.1690  174.7920  136.6060 O   0  0  0  0  0  0  0  0  0  0  0  0
  194.0250  175.1560  137.6440 C   0  0  0  0  0  1  0  0  0  0  0  0
  1 15  1  0  0  0  0
  1  9  2  0  0  0  0
  2  3  1  1  0  0  0
  3 20  2  0  0  0  0
  3  7  1  0  0  0  0
  4 11  2  0  0  0  0
  5  2  1  0  0  0  0
  5 15  1  1  0  0  0
  6  1  1  0  0  0  0
  7  4  1  0  0  0  0
  8 12  1  0  0  0  0
  8 13  1  0  0  0  0
 10 20  1  0  0  0  0
 11 16  1  0  0  0  0
 12  5  1  0  0  0  0
 13  2  1  0  0  0  0
 13 19  1  0  0  0  0
 14  8  1  0  0  0  0
 14 13  1  0  0  0  0
 17 12  1  0  0  0  0
 17  5  1  0  0  0  0
 18 17  1  0  0  0  0
 18  6  1  0  0  0  0
 19 10  1  0  0  0  0
 20 21  1  0  0  0  0
 21 16  2  0  0  0  0
 22 14  1  0  0  0  0
 23 26  1  0  0  0  0
 24 25  1  0  0  0  0
 25 23  1  0  0  0  0
 25 26  1  0  0  0  0
 26 22  1  0  0  0  0
 27 28  1  0  0  0  0
 27 26  1  0  0  0  0
 27 29  1  0  0  0  0
 30 29  1  0  0  0  0
 30 31  1  0  0  0  0
M  END
>  <MODEL>
2

>  <REMARK>
 VINA RESULT:      -7.0      1.073      2.271
  Name = 
  5 active torsions:
  status: ('A' for Active; 'I' for Inactive)
    1  A    between atoms: O_1  and  C_8
    2  A    between atoms: C_8  and  C_19
    3  A    between atoms: C_9  and  C_22
    4  A    between atoms: C_9  and  C_23
    5  A    between atoms: C_19  and  C_22
                            x       y       z     vdW  Elec       q    Type
                         _______ _______ _______ _____ _____    ______ ____

>  <TORSDO>
F 5

$$$$
=
 OpenBabel10262419213D

 31 37  0  0  1  0  0  0  0  0999 V2000
  185.5200  178.9790  146.1400 C   0  0  0  0  0  0  0  0  0  0  0  0
  186.2450  177.6810  142.6340 C   0  0  1  0  0  3  0  0  0  0  0  0
  187.6940  177.4170  142.9830 C   0  0  0  0  0  0  0  0  0  0  0  0
  188.6290  176.5950  145.1180 C   0  0  0  0  0  3  0  0  0  0  0  0
  185.5270  178.5400  143.6640 C   0  0  2  0  0  0  0  0  0  0  0  0
  184.0770  178.6090  146.1890 C   0  0  0  0  0  2  0  0  0  0  0  0
  187.9650  176.2210  143.8370 C   0  0  0  0  0  2  0  0  0  0  0  0
  185.1170  179.5650  141.4610 C   0  0  1  0  0  3  0  0  0  0  0  0
  186.1670  179.2090  147.2330 N   0  0  0  0  0  2  0  0  0  0  0  0
  188.4010  179.2260  141.4450 C   0  0  0  0  0  2  0  0  0  0  0  0
  189.8340  177.1580  145.1640 C   0  0  0  0  0  3  0  0  0  0  0  0
  184.8130  179.6770  142.9770 C   0  0  1  0  0  3  0  0  0  0  0  0
  186.0690  178.3900  141.2850 C   0  0  2  0  0  0  0  0  0  0  0  0
  184.7380  178.3720  140.5550 C   0  0  1  0  0  3  0  0  0  0  0  0
  186.2110  178.9430  144.8930 N   0  0  0  0  0  2  0  0  0  0  0  0
  190.6180  177.5590  143.9810 C   0  0  0  0  0  3  0  0  0  0  0  0
  184.0000  178.5690  143.6530 C   0  0  2  0  0  3  0  0  0  0  0  0
  183.3840  179.1330  144.9360 C   0  0  0  0  0  2  0  0  0  0  0  0
  187.3020  178.7850  140.4850 C   0  0  0  0  0  2  0  0  0  0  0  0
  188.6990  178.1520  142.4530 C   0  0  0  0  0  0  0  0  0  0  0  0
  190.1240  177.9790  142.8090 C   0  0  0  0  0  3  0  0  0  0  0  0
  183.7320  177.3660  141.1080 C   0  0  0  0  0  2  0  0  0  0  0  0
  182.9890  176.9400  138.7470 C   0  0  0  0  0  2  0  0  0  0  0  0
  180.9230  175.5990  139.0590 C   0  0  0  0  0  1  0  0  0  0  0  0
  182.3400  175.8290  139.5600 C   0  0  2  0  0  3  0  0  0  0  0  0
  182.5450  177.2150  140.1660 C   0  0  1  0  0  0  0  0  0  0  0  0
  181.3890  178.2190  140.2290 C   0  0  2  0  0  3  0  0  0  0  0  0
  181.6550  179.3140  139.4050 O   0  0  0  0  0  1  0  0  0  0  0  0
  181.1580  178.6870  141.6560 C   0  0  0  0  0  2  0  0  0  0  0  0
  179.9910  178.1140  142.1620 O   0  0  0  0  0  0  0  0  0  0  0  0
  180.0510  178.3520  143.5340 C   0  0  0  0  0  1  0  0  0  0  0  0
  1  6  1  0  0  0  0
  1  9  2  0  0  0  0
  2  3  1  1  0  0  0
  2  5  1  0  0  0  0
  3  7  1  0  0  0  0
  4 11  2  0  0  0  0
  5 15  1  1  0  0  0
  7  4  1  0  0  0  0
  8 12  1  0  0  0  0
 10 20  1  0  0  0  0
 12 17  1  0  0  0  0
 12  5  1  0  0  0  0
 13  8  1  0  0  0  0
 13  2  1  0  0  0  0
 14 22  1  0  0  0  0
 14 13  1  0  0  0  0
 14  8  1  0  0  0  0
 15  1  1  0  0  0  0
 16 11  1  0  0  0  0
 17  5  1  0  0  0  0
 17 18  1  0  0  0  0
 18  6  1  0  0  0  0
 19 13  1  0  0  0  0
 19 10  1  0  0  0  0
 20 21  1  0  0  0  0
 20  3  2  0  0  0  0
 21 16  2  0  0  0  0
 23 25  1  0  0  0  0
 23 26  1  0  0  0  0
 24 25  1  0  0  0  0
 25 26  1  0  0  0  0
 26 27  1  0  0  0  0
 26 22  1  0  0  0  0
 27 29  1  0  0  0  0
 28 27  1  0  0  0  0
 29 30  1  0  0  0  0
 30 31  1  0  0  0  0
M  END
>  <MODEL>
3

>  <REMARK>
 VINA RESULT:      -6.5      4.323      6.600
  Name = 
  5 active torsions:
  status: ('A' for Active; 'I' for Inactive)
    1  A    between atoms: O_1  and  C_8
    2  A    between atoms: C_8  and  C_19
    3  A    between atoms: C_9  and  C_22
    4  A    between atoms: C_9  and  C_23
    5  A    between atoms: C_19  and  C_22
                            x       y       z     vdW  Elec       q    Type
                         _______ _______ _______ _____ _____    ______ ____

>  <TORSDO>
F 5

$$$$
=
 OpenBabel10262419213D

 31 37  0  0  1  0  0  0  0  0999 V2000
  191.1600  174.6450  136.0680 C   0  0  0  0  0  0  0  0  0  0  0  0
  188.3220  176.1400  138.1200 C   0  0  1  0  0  3  0  0  0  0  0  0
  187.2890  175.6600  137.1230 C   0  0  0  0  0  0  0  0  0  0  0  0
  187.2680  173.5520  135.8340 C   0  0  0  0  0  3  0  0  0  0  0  0
  189.7470  176.0580  137.5930 C   0  0  2  0  0  0  0  0  0  0  0  0
  192.1020  174.3930  137.1950 C   0  0  0  0  0  2  0  0  0  0  0  0
  186.9730  174.1990  137.1440 C   0  0  0  0  0  2  0  0  0  0  0  0
  189.4300  178.3430  138.4610 C   0  0  1  0  0  3  0  0  0  0  0  0
  191.3120  174.0250  134.9450 N   0  0  0  0  0  2  0  0  0  0  0  0
  186.8090  178.0050  136.4830 C   0  0  0  0  0  2  0  0  0  0  0  0
  186.6370  173.8840  134.7100 C   0  0  0  0  0  3  0  0  0  0  0  0
  190.4510  177.3750  137.8100 C   0  0  1  0  0  3  0  0  0  0  0  0
  188.1070  177.5940  138.5580 C   0  0  2  0  0  0  0  0  0  0  0  0
  188.7410  178.1340  139.8280 C   0  0  1  0  0  3  0  0  0  0  0  0
  190.0140  175.4670  136.2820 N   0  0  0  0  0  2  0  0  0  0  0  0
  185.6470  174.9700  134.5940 C   0  0  0  0  0  3  0  0  0  0  0  0
  190.9000  176.1370  138.5920 C   0  0  2  0  0  3  0  0  0  0  0  0
  192.2410  175.6650  138.0240 C   0  0  0  0  0  2  0  0  0  0  0  0
  186.9660  178.3950  137.9490 C   0  0  0  0  0  2  0  0  0  0  0  0
  186.6010  176.5230  136.3400 C   0  0  0  0  0  0  0  0  0  0  0  0
  185.6300  176.1050  135.3060 C   0  0  0  0  0  3  0  0  0  0  0  0
  189.3190  177.0620  140.7470 C   0  0  0  0  0  2  0  0  0  0  0  0
  187.8750  178.3370  142.3570 C   0  0  0  0  0  2  0  0  0  0  0  0
  187.7330  176.7990  144.3000 C   0  0  0  0  0  1  0  0  0  0  0  0
  187.7300  176.8830  142.7820 C   0  0  2  0  0  3  0  0  0  0  0  0
  189.0490  177.3970  142.2070 C   0  0  1  0  0  0  0  0  0  0  0  0
  190.2120  177.7670  143.1320 C   0  0  2  0  0  3  0  0  0  0  0  0
  190.4700  179.1380  143.0580 O   0  0  0  0  0  1  0  0  0  0  0  0
  191.4630  176.9830  142.7690 C   0  0  0  0  0  2  0  0  0  0  0  0
  191.5800  175.8660  143.5950 O   0  0  0  0  0  0  0  0  0  0  0  0
  191.5660  176.3850  144.8890 C   0  0  0  0  0  1  0  0  0  0  0  0
  1 15  1  0  0  0  0
  1  6  1  0  0  0  0
  2  3  1  6  0  0  0
  2 13  1  0  0  0  0
  3  7  1  0  0  0  0
  4  7  1  0  0  0  0
  5 15  1  6  0  0  0
  5 12  1  0  0  0  0
  5  2  1  0  0  0  0
  5 17  1  0  0  0  0
  6 18  1  0  0  0  0
  8 13  1  0  0  0  0
  8 14  1  0  0  0  0
  9  1  2  0  0  0  0
 10 19  1  0  0  0  0
 11  4  2  0  0  0  0
 12  8  1  0  0  0  0
 12 17  1  0  0  0  0
 13 14  1  0  0  0  0
 14 22  1  0  0  0  0
 16 11  1  0  0  0  0
 16 21  2  0  0  0  0
 18 17  1  0  0  0  0
 19 13  1  0  0  0  0
 20 10  1  0  0  0  0
 20  3  2  0  0  0  0
 21 20  1  0  0  0  0
 22 26  1  0  0  0  0
 23 25  1  0  0  0  0
 25 24  1  0  0  0  0
 26 23  1  0  0  0  0
 26 25  1  0  0  0  0
 26 27  1  0  0  0  0
 28 27  1  0  0  0  0
 29 27  1  0  0  0  0
 29 30  1  0  0  0  0
 30 31  1  0  0  0  0
M  END
>  <MODEL>
4

>  <REMARK>
 VINA RESULT:      -6.3      3.110      7.312
  Name = 
  5 active torsions:
  status: ('A' for Active; 'I' for Inactive)
    1  A    between atoms: O_1  and  C_8
    2  A    between atoms: C_8  and  C_19
    3  A    between atoms: C_9  and  C_22
    4  A    between atoms: C_9  and  C_23
    5  A    between atoms: C_19  and  C_22
                            x       y       z     vdW  Elec       q    Type
                         _______ _______ _______ _____ _____    ______ ____

>  <TORSDO>
F 5

$$$$
=
 OpenBabel10262419213D

 31 37  0  0  1  0  0  0  0  0999 V2000
  190.8370  177.3590  139.9830 C   0  0  0  0  0  0  0  0  0  0  0  0
  188.3870  176.4140  137.2250 C   0  0  1  0  0  3  0  0  0  0  0  0
  189.4450  175.6110  136.4980 C   0  0  0  0  0  0  0  0  0  0  0  0
  191.2390  174.2130  137.4650 C   0  0  0  0  0  3  0  0  0  0  0  0
  188.9570  177.3100  138.3140 C   0  0  2  0  0  0  0  0  0  0  0  0
  189.8420  177.5140  141.0810 C   0  0  0  0  0  2  0  0  0  0  0  0
  189.7980  174.2850  137.0910 C   0  0  0  0  0  2  0  0  0  0  0  0
  187.5130  178.7230  136.9010 C   0  0  1  0  0  3  0  0  0  0  0  0
  192.0860  177.1860  140.2590 N   0  0  0  0  0  2  0  0  0  0  0  0
  189.4370  177.2620  134.6510 C   0  0  0  0  0  2  0  0  0  0  0  0
  192.2190  174.3060  136.5700 C   0  0  0  0  0  3  0  0  0  0  0  0
  188.4240  178.7120  138.1560 C   0  0  1  0  0  3  0  0  0  0  0  0
  187.5780  177.3270  136.2950 C   0  0  2  0  0  0  0  0  0  0  0  0
  186.2300  177.8820  136.7170 C   0  0  1  0  0  3  0  0  0  0  0  0
  190.3840  177.2640  138.6330 N   0  0  0  0  0  2  0  0  0  0  0  0
  192.0200  174.5740  135.1340 C   0  0  0  0  0  3  0  0  0  0  0  0
  188.0050  177.8730  139.3680 C   0  0  2  0  0  3  0  0  0  0  0  0
  188.7140  178.4240  140.6080 C   0  0  0  0  0  2  0  0  0  0  0  0
  187.9260  177.3770  134.8140 C   0  0  0  0  0  2  0  0  0  0  0  0
  189.9560  176.0160  135.3130 C   0  0  0  0  0  0  0  0  0  0  0  0
  191.0360  175.3060  134.5940 C   0  0  0  0  0  3  0  0  0  0  0  0
  185.6400  177.2240  137.9600 C   0  0  0  0  0  2  0  0  0  0  0  0
  183.4540  177.8810  136.9130 C   0  0  0  0  0  2  0  0  0  0  0  0
  181.7890  177.0360  138.5480 C   0  0  0  0  0  1  0  0  0  0  0  0
  183.1020  176.7310  137.8450 C   0  0  2  0  0  3  0  0  0  0  0  0
  184.2180  177.7090  138.2060 C   0  0  1  0  0  0  0  0  0  0  0  0
  183.9630  178.8560  139.1890 C   0  0  2  0  0  3  0  0  0  0  0  0
  184.5560  180.0310  138.7230 O   0  0  0  0  0  1  0  0  0  0  0  0
  184.5010  178.5150  140.5690 C   0  0  0  0  0  2  0  0  0  0  0  0
  185.3600  179.5230  141.0070 O   0  0  0  0  0  0  0  0  0  0  0  0
  185.3920  179.3780  142.3920 C   0  0  0  0  0  1  0  0  0  0  0  0
  1  9  2  0  0  0  0
  1  6  1  0  0  0  0
  2  3  1  6  0  0  0
  2  5  1  0  0  0  0
  3  7  1  0  0  0  0
  5 15  1  1  0  0  0
  5 17  1  0  0  0  0
  7  4  1  0  0  0  0
  8 12  1  0  0  0  0
 10 19  1  0  0  0  0
 10 20  1  0  0  0  0
 11  4  2  0  0  0  0
 12  5  1  0  0  0  0
 12 17  1  0  0  0  0
 13 14  1  0  0  0  0
 13  8  1  0  0  0  0
 13  2  1  0  0  0  0
 14  8  1  0  0  0  0
 14 22  1  0  0  0  0
 15  1  1  0  0  0  0
 16 11  1  0  0  0  0
 17 18  1  0  0  0  0
 18  6  1  0  0  0  0
 19 13  1  0  0  0  0
 20  3  2  0  0  0  0
 21 16  2  0  0  0  0
 21 20  1  0  0  0  0
 22 26  1  0  0  0  0
 23 25  1  0  0  0  0
 23 26  1  0  0  0  0
 25 26  1  0  0  0  0
 25 24  1  0  0  0  0
 26 27  1  0  0  0  0
 27 29  1  0  0  0  0
 28 27  1  0  0  0  0
 29 30  1  0  0  0  0
 30 31  1  0  0  0  0
M  END
>  <MODEL>
5

>  <REMARK>
 VINA RESULT:      -6.0      2.979      6.919
  Name = 
  5 active torsions:
  status: ('A' for Active; 'I' for Inactive)
    1  A    between atoms: O_1  and  C_8
    2  A    between atoms: C_8  and  C_19
    3  A    between atoms: C_9  and  C_22
    4  A    between atoms: C_9  and  C_23
    5  A    between atoms: C_19  and  C_22
                            x       y       z     vdW  Elec       q    Type
                         _______ _______ _______ _____ _____    ______ ____

>  <TORSDO>
F 5

$$$$
=
 OpenBabel10262419213D

 31 37  0  0  1  0  0  0  0  0999 V2000
  185.3760  179.0100  145.9570 C   0  0  0  0  0  0  0  0  0  0  0  0
  186.2010  177.6690  142.4890 C   0  0  1  0  0  3  0  0  0  0  0  0
  187.6340  177.3900  142.8900 C   0  0  0  0  0  0  0  0  0  0  0  0
  188.4860  176.5770  145.0630 C   0  0  0  0  0  3  0  0  0  0  0  0
  185.4610  178.5470  143.4870 C   0  0  2  0  0  0  0  0  0  0  0  0
  183.9270  178.6590  145.9610 C   0  0  0  0  0  2  0  0  0  0  0  0
  187.8610  176.1980  143.7640 C   0  0  0  0  0  2  0  0  0  0  0  0
  185.1380  179.5560  141.2620 C   0  0  1  0  0  3  0  0  0  0  0  0
  185.9890  179.2420  147.0690 N   0  0  0  0  0  2  0  0  0  0  0  0
  188.4160  179.1750  141.3610 C   0  0  0  0  0  2  0  0  0  0  0  0
  189.6960  177.1250  145.1440 C   0  0  0  0  0  3  0  0  0  0  0  0
  184.7850  179.6860  142.7650 C   0  0  1  0  0  3  0  0  0  0  0  0
  186.0810  178.3660  141.1290 C   0  0  2  0  0  0  0  0  0  0  0  0
  184.7750  178.3590  140.3550 C   0  0  1  0  0  3  0  0  0  0  0  0
  186.1090  178.9530  144.7340 N   0  0  0  0  0  2  0  0  0  0  0  0
  190.5250  177.5040  143.9850 C   0  0  0  0  0  3  0  0  0  0  0  0
  183.9350  178.5950  143.4240 C   0  0  2  0  0  3  0  0  0  0  0  0
  183.2840  179.1800  144.6800 C   0  0  0  0  0  2  0  0  0  0  0  0
  187.3450  178.7380  140.3680 C   0  0  0  0  0  2  0  0  0  0  0  0
  188.6660  178.1060  142.3870 C   0  0  0  0  0  0  0  0  0  0  0  0
  190.0760  177.9200  142.7930 C   0  0  0  0  0  3  0  0  0  0  0  0
  183.7380  177.3710  140.8820 C   0  0  0  0  0  2  0  0  0  0  0  0
  181.2800  177.8800  140.9730 C   0  0  0  0  0  2  0  0  0  0  0  0
  180.8740  179.0070  138.8000 C   0  0  0  0  0  1  0  0  0  0  0  0
  181.8400  178.8740  139.9660 C   0  0  2  0  0  3  0  0  0  0  0  0
  182.4400  177.4760  140.0920 C   0  0  1  0  0  0  0  0  0  0  0  0
  182.0600  176.3710  139.1010 C   0  0  2  0  0  3  0  0  0  0  0  0
  181.4770  175.2970  139.7770 O   0  0  0  0  0  1  0  0  0  0  0  0
  183.2790  175.8970  138.3270 C   0  0  0  0  0  2  0  0  0  0  0  0
  183.6640  176.8700  137.4050 O   0  0  0  0  0  0  0  0  0  0  0  0
  184.8870  176.4200  136.9110 C   0  0  0  0  0  1  0  0  0  0  0  0
  1  6  1  0  0  0  0
  1  9  2  0  0  0  0
  2  3  1  1  0  0  0
  2  5  1  0  0  0  0
  3  7  1  0  0  0  0
  4 11  2  0  0  0  0
  5 15  1  1  0  0  0
  7  4  1  0  0  0  0
  8 12  1  0  0  0  0
 10 20  1  0  0  0  0
 12 17  1  0  0  0  0
 12  5  1  0  0  0  0
 13  8  1  0  0  0  0
 13  2  1  0  0  0  0
 14 22  1  0  0  0  0
 14 13  1  0  0  0  0
 14  8  1  0  0  0  0
 15  1  1  0  0  0  0
 16 11  1  0  0  0  0
 17  5  1  0  0  0  0
 17 18  1  0  0  0  0
 18  6  1  0  0  0  0
 19 13  1  0  0  0  0
 19 10  1  0  0  0  0
 20 21  1  0  0  0  0
 20  3  2  0  0  0  0
 21 16  2  0  0  0  0
 24 25  1  0  0  0  0
 25 26  1  0  0  0  0
 25 23  1  0  0  0  0
 26 22  1  0  0  0  0
 26 23  1  0  0  0  0
 27 28  1  0  0  0  0
 27 26  1  0  0  0  0
 29 27  1  0  0  0  0
 30 29  1  0  0  0  0
 31 30  1  0  0  0  0
M  END
>  <MODEL>
6

>  <REMARK>
 VINA RESULT:      -5.9      3.592      6.164
  Name = 
  5 active torsions:
  status: ('A' for Active; 'I' for Inactive)
    1  A    between atoms: O_1  and  C_8
    2  A    between atoms: C_8  and  C_19
    3  A    between atoms: C_9  and  C_22
    4  A    between atoms: C_9  and  C_23
    5  A    between atoms: C_19  and  C_22
                            x       y       z     vdW  Elec       q    Type
                         _______ _______ _______ _____ _____    ______ ____

>  <TORSDO>
F 5

$$$$
=
 OpenBabel10262419213D

 31 37  0  0  1  0  0  0  0  0999 V2000
  191.0310  174.7280  135.9640 C   0  0  0  0  0  0  0  0  0  0  0  0
  188.2870  176.1710  138.1760 C   0  0  1  0  0  3  0  0  0  0  0  0
  187.2230  175.8320  137.1540 C   0  0  0  0  0  0  0  0  0  0  0  0
  187.0870  173.8510  135.6820 C   0  0  0  0  0  3  0  0  0  0  0  0
  189.7010  176.0670  137.6260 C   0  0  2  0  0  0  0  0  0  0  0  0
  191.9680  174.3310  137.0520 C   0  0  0  0  0  2  0  0  0  0  0  0
  186.8350  174.3930  137.0480 C   0  0  0  0  0  2  0  0  0  0  0  0
  189.5060  178.2780  138.6990 C   0  0  1  0  0  3  0  0  0  0  0  0
  191.1420  174.2050  134.7890 N   0  0  0  0  0  2  0  0  0  0  0  0
  186.8550  178.2460  136.7310 C   0  0  0  0  0  2  0  0  0  0  0  0
  186.4650  174.3130  134.6000 C   0  0  0  0  0  3  0  0  0  0  0  0
  190.4710  177.3230  137.9510 C   0  0  1  0  0  3  0  0  0  0  0  0
  188.1480  177.5880  138.7450 C   0  0  2  0  0  0  0  0  0  0  0  0
  188.8180  177.9800  140.0500 C   0  0  1  0  0  3  0  0  0  0  0  0
  189.9280  175.5830  136.2640 N   0  0  0  0  0  2  0  0  0  0  0  0
  185.5290  175.4530  134.5940 C   0  0  0  0  0  3  0  0  0  0  0  0
  190.8650  175.9990  138.6140 C   0  0  2  0  0  3  0  0  0  0  0  0
  192.1760  175.5150  137.9890 C   0  0  0  0  0  2  0  0  0  0  0  0
  187.0430  178.4950  138.2230 C   0  0  0  0  0  2  0  0  0  0  0  0
  186.5730  176.7950  136.4590 C   0  0  0  0  0  0  0  0  0  0  0  0
  185.5740  176.5190  135.4040 C   0  0  0  0  0  3  0  0  0  0  0  0
  189.3500  176.8030  140.8620 C   0  0  0  0  0  2  0  0  0  0  0  0
  190.8700  176.3980  142.8190 C   0  0  0  0  0  2  0  0  0  0  0  0
  191.3210  178.6940  143.6450 C   0  0  0  0  0  1  0  0  0  0  0  0
  191.1560  177.8340  142.4030 C   0  0  2  0  0  3  0  0  0  0  0  0
  189.7520  177.2490  142.2610 C   0  0  1  0  0  0  0  0  0  0  0  0
  188.6720  177.5470  143.3060 C   0  0  2  0  0  3  0  0  0  0  0  0
  188.7110  176.5940  144.3260 O   0  0  0  0  0  1  0  0  0  0  0  0
  187.2930  177.5680  142.6670 C   0  0  0  0  0  2  0  0  0  0  0  0
  186.3730  178.1460  143.5420 O   0  0  0  0  0  0  0  0  0  0  0  0
  185.2130  178.2900  142.7830 C   0  0  0  0  0  1  0  0  0  0  0  0
  1 15  1  0  0  0  0
  1  6  1  0  0  0  0
  2  3  1  6  0  0  0
  2 13  1  0  0  0  0
  4  7  1  0  0  0  0
  5 15  1  6  0  0  0
  5 12  1  0  0  0  0
  5  2  1  0  0  0  0
  5 17  1  0  0  0  0
  6 18  1  0  0  0  0
  7  3  1  0  0  0  0
  8 13  1  0  0  0  0
  8 14  1  0  0  0  0
  9  1  2  0  0  0  0
 10 19  1  0  0  0  0
 11  4  2  0  0  0  0
 12 17  1  0  0  0  0
 12  8  1  0  0  0  0
 13 14  1  0  0  0  0
 14 22  1  0  0  0  0
 16 11  1  0  0  0  0
 16 21  2  0  0  0  0
 18 17  1  0  0  0  0
 19 13  1  0  0  0  0
 20 10  1  0  0  0  0
 20  3  2  0  0  0  0
 21 20  1  0  0  0  0
 22 26  1  0  0  0  0
 25 23  1  0  0  0  0
 25 24  1  0  0  0  0
 26 25  1  0  0  0  0
 26 23  1  0  0  0  0
 26 27  1  0  0  0  0
 27 28  1  0  0  0  0
 29 27  1  0  0  0  0
 29 30  1  0  0  0  0
 31 30  1  0  0  0  0
M  END
>  <MODEL>
7

>  <REMARK>
 VINA RESULT:      -5.8      3.214      7.131
  Name = 
  5 active torsions:
  status: ('A' for Active; 'I' for Inactive)
    1  A    between atoms: O_1  and  C_8
    2  A    between atoms: C_8  and  C_19
    3  A    between atoms: C_9  and  C_22
    4  A    between atoms: C_9  and  C_23
    5  A    between atoms: C_19  and  C_22
                            x       y       z     vdW  Elec       q    Type
                         _______ _______ _______ _____ _____    ______ ____

>  <TORSDO>
F 5

$$$$
=
 OpenBabel10262419213D

 31 37  0  0  1  0  0  0  0  0999 V2000
  190.7830  177.5050  140.0180 C   0  0  0  0  0  0  0  0  0  0  0  0
  188.6810  176.2910  137.0840 C   0  0  1  0  0  3  0  0  0  0  0  0
  189.8770  175.6160  136.4490 C   0  0  0  0  0  0  0  0  0  0  0  0
  191.7370  174.4300  137.5630 C   0  0  0  0  0  3  0  0  0  0  0  0
  189.0580  177.2440  138.2080 C   0  0  2  0  0  0  0  0  0  0  0  0
  189.6930  177.5440  141.0340 C   0  0  0  0  0  2  0  0  0  0  0  0
  190.3310  174.3380  137.0770 C   0  0  0  0  0  2  0  0  0  0  0  0
  187.5780  178.4860  136.6760 C   0  0  1  0  0  3  0  0  0  0  0  0
  192.0180  177.4760  140.3930 N   0  0  0  0  0  2  0  0  0  0  0  0
  189.8260  177.2570  134.5940 C   0  0  0  0  0  2  0  0  0  0  0  0
  192.7670  174.6350  136.7460 C   0  0  0  0  0  3  0  0  0  0  0  0
  188.3820  178.5770  137.9990 C   0  0  1  0  0  3  0  0  0  0  0  0
  187.8490  177.1070  136.0870 C   0  0  2  0  0  0  0  0  0  0  0  0
  186.4170  177.5050  136.3980 C   0  0  1  0  0  3  0  0  0  0  0  0
  190.4510  177.3620  138.6380 N   0  0  0  0  0  2  0  0  0  0  0  0
  192.6520  174.8810  135.2970 C   0  0  0  0  0  3  0  0  0  0  0  0
  187.9680  177.6940  139.1800 C   0  0  2  0  0  3  0  0  0  0  0  0
  188.5100  178.3200  140.4670 C   0  0  0  0  0  2  0  0  0  0  0  0
  188.3030  177.2000  134.6380 C   0  0  0  0  0  2  0  0  0  0  0  0
  190.4300  176.0790  135.3040 C   0  0  0  0  0  0  0  0  0  0  0  0
  191.6380  175.4980  134.6760 C   0  0  0  0  0  3  0  0  0  0  0  0
  185.8100  176.7810  137.5960 C   0  0  0  0  0  2  0  0  0  0  0  0
  185.2210  175.1520  135.7770 C   0  0  0  0  0  2  0  0  0  0  0  0
  184.3840  173.1930  137.0490 C   0  0  0  0  0  1  0  0  0  0  0  0
  185.4370  174.2870  137.0110 C   0  0  2  0  0  3  0  0  0  0  0  0
  184.8490  175.6910  137.1400 C   0  0  1  0  0  0  0  0  0  0  0  0
  183.3390  175.8940  137.2930 C   0  0  2  0  0  3  0  0  0  0  0  0
  182.8060  176.4440  136.1250 O   0  0  0  0  0  1  0  0  0  0  0  0
  183.0310  176.7940  138.4780 C   0  0  0  0  0  2  0  0  0  0  0  0
  182.6460  176.0210  139.5740 O   0  0  0  0  0  0  0  0  0  0  0  0
  181.3420  175.6240  139.2800 C   0  0  0  0  0  1  0  0  0  0  0  0
  1  9  2  0  0  0  0
  1  6  1  0  0  0  0
  2  3  1  6  0  0  0
  2  5  1  0  0  0  0
  3  7  1  0  0  0  0
  5 15  1  1  0  0  0
  5 17  1  0  0  0  0
  7  4  1  0  0  0  0
  8 12  1  0  0  0  0
 10 19  1  0  0  0  0
 10 20  1  0  0  0  0
 11  4  2  0  0  0  0
 12  5  1  0  0  0  0
 12 17  1  0  0  0  0
 13 14  1  0  0  0  0
 13  8  1  0  0  0  0
 13  2  1  0  0  0  0
 14  8  1  0  0  0  0
 14 22  1  0  0  0  0
 15  1  1  0  0  0  0
 16 11  1  0  0  0  0
 17 18  1  0  0  0  0
 18  6  1  0  0  0  0
 19 13  1  0  0  0  0
 20  3  2  0  0  0  0
 21 16  2  0  0  0  0
 21 20  1  0  0  0  0
 23 25  1  0  0  0  0
 23 26  1  0  0  0  0
 25 24  1  0  0  0  0
 25 26  1  0  0  0  0
 26 27  1  0  0  0  0
 26 22  1  0  0  0  0
 27 29  1  0  0  0  0
 28 27  1  0  0  0  0
 29 30  1  0  0  0  0
 31 30  1  0  0  0  0
M  END
>  <MODEL>
8

>  <REMARK>
 VINA RESULT:      -5.4      2.944      6.402
  Name = 
  5 active torsions:
  status: ('A' for Active; 'I' for Inactive)
    1  A    between atoms: O_1  and  C_8
    2  A    between atoms: C_8  and  C_19
    3  A    between atoms: C_9  and  C_22
    4  A    between atoms: C_9  and  C_23
    5  A    between atoms: C_19  and  C_22
                            x       y       z     vdW  Elec       q    Type
                         _______ _______ _______ _____ _____    ______ ____

>  <TORSDO>
F 5

$$$$
=
 OpenBabel10262419213D

 31 37  0  0  1  0  0  0  0  0999 V2000
  188.1750  176.3470  136.1820 C   0  0  0  0  0  0  0  0  0  0  0  0
  184.7800  175.0180  137.2830 C   0  0  1  0  0  3  0  0  0  0  0  0
  185.1060  173.6320  136.7690 C   0  0  0  0  0  0  0  0  0  0  0  0
  187.2770  172.4510  136.8210 C   0  0  0  0  0  3  0  0  0  0  0  0
  185.7510  176.0830  136.7940 C   0  0  2  0  0  0  0  0  0  0  0  0
  188.3030  177.4240  137.2050 C   0  0  0  0  0  2  0  0  0  0  0  0
  186.0570  172.8240  137.5920 C   0  0  0  0  0  2  0  0  0  0  0  0
  183.4770  176.9060  136.3150 C   0  0  1  0  0  3  0  0  0  0  0  0
  189.2220  175.9150  135.5620 N   0  0  0  0  0  2  0  0  0  0  0  0
  183.3890  173.8780  135.0010 C   0  0  0  0  0  2  0  0  0  0  0  0
  187.2330  171.6790  135.7380 C   0  0  0  0  0  3  0  0  0  0  0  0
  184.9860  177.2510  136.2230 C   0  0  1  0  0  3  0  0  0  0  0  0
  183.3790  175.4960  136.8830 C   0  0  2  0  0  0  0  0  0  0  0  0
  182.6960  176.6340  137.6200 C   0  0  1  0  0  3  0  0  0  0  0  0
  186.9150  175.7050  135.9930 N   0  0  0  0  0  2  0  0  0  0  0  0
  185.9950  171.1720  135.1190 C   0  0  0  0  0  3  0  0  0  0  0  0
  185.7850  177.4270  137.5180 C   0  0  2  0  0  3  0  0  0  0  0  0
  187.0300  178.2630  137.2090 C   0  0  0  0  0  2  0  0  0  0  0  0
  182.5080  174.6020  136.0130 C   0  0  0  0  0  2  0  0  0  0  0  0
  184.4800  173.1080  135.6900 C   0  0  0  0  0  0  0  0  0  0  0  0
  184.8050  171.7880  135.1070 C   0  0  0  0  0  3  0  0  0  0  0  0
  183.3690  177.0270  138.9320 C   0  0  0  0  0  2  0  0  0  0  0  0
  181.5920  178.7790  138.6540 C   0  0  0  0  0  2  0  0  0  0  0  0
  180.7960  179.1230  140.9800 C   0  0  0  0  0  1  0  0  0  0  0  0
  181.2450  178.0850  139.9640 C   0  0  2  0  0  3  0  0  0  0  0  0
  182.7010  178.2540  139.5370 C   0  0  1  0  0  0  0  0  0  0  0  0
  183.5610  179.3800  140.1210 C   0  0  2  0  0  3  0  0  0  0  0  0
  184.1800  180.0960  139.0940 O   0  0  0  0  0  1  0  0  0  0  0  0
  184.6090  178.8230  141.0710 C   0  0  0  0  0  2  0  0  0  0  0  0
  185.7880  179.5590  140.9620 O   0  0  0  0  0  0  0  0  0  0  0  0
  186.8020  178.6280  141.1790 C   0  0  0  0  0  1  0  0  0  0  0  0
  1  6  1  0  0  0  0
  2  3  1  6  0  0  0
  3  7  1  0  0  0  0
  4  7  1  0  0  0  0
  5 15  1  6  0  0  0
  5  2  1  0  0  0  0
  5 17  1  0  0  0  0
  6 18  1  0  0  0  0
  8 13  1  0  0  0  0
  8 14  1  0  0  0  0
  9  1  2  0  0  0  0
 10 20  1  0  0  0  0
 10 19  1  0  0  0  0
 11  4  2  0  0  0  0
 12  8  1  0  0  0  0
 12  5  1  0  0  0  0
 12 17  1  0  0  0  0
 13  2  1  0  0  0  0
 13 14  1  0  0  0  0
 14 22  1  0  0  0  0
 15  1  1  0  0  0  0
 16 11  1  0  0  0  0
 18 17  1  0  0  0  0
 19 13  1  0  0  0  0
 20  3  2  0  0  0  0
 21 16  2  0  0  0  0
 21 20  1  0  0  0  0
 22 26  1  0  0  0  0
 23 26  1  0  0  0  0
 23 25  1  0  0  0  0
 25 24  1  0  0  0  0
 26 25  1  0  0  0  0
 26 27  1  0  0  0  0
 27 29  1  0  0  0  0
 28 27  1  0  0  0  0
 30 29  1  0  0  0  0
 30 31  1  0  0  0  0
M  END
>  <MODEL>
9

>  <REMARK>
 VINA RESULT:      -5.3      3.985      8.485
  Name = 
  5 active torsions:
  status: ('A' for Active; 'I' for Inactive)
    1  A    between atoms: O_1  and  C_8
    2  A    between atoms: C_8  and  C_19
    3  A    between atoms: C_9  and  C_22
    4  A    between atoms: C_9  and  C_23
    5  A    between atoms: C_19  and  C_22
                            x       y       z     vdW  Elec       q    Type
                         _______ _______ _______ _____ _____    ______ ____

>  <TORSDO>
F 5

$$$$
