=
 OpenBabel10262423283D

 34 37  0  0  1  0  0  0  0  0999 V2000
  183.0140  178.6450  139.4420 C   0  0  1  0  0  3  0  0  0  0  0  0
  180.3730  179.1950  138.1600 C   0  0  0  0  0  2  0  0  0  0  0  0
  181.9890  176.2700  139.7970 C   0  0  0  0  0  2  0  0  0  0  0  0
  180.5660  175.7420  139.6200 C   0  0  0  0  0  2  0  0  0  0  0  0
  180.5900  178.1030  139.1920 C   0  0  2  0  0  3  0  0  0  0  0  0
  181.9890  177.5790  139.0480 C   0  0  1  0  0  3  0  0  0  0  0  0
  179.7370  176.8740  139.0120 C   0  0  0  0  0  2  0  0  0  0  0  0
  181.3580  180.3440  138.4390 C   0  0  1  0  0  3  0  0  0  0  0  0
  183.6900  180.8810  138.8190 O   0  0  0  0  0  1  0  0  0  0  0  0
  182.8190  179.8400  138.4850 C   0  0  1  0  0  3  0  0  0  0  0  0
  181.2100  181.4210  137.3740 C   0  0  0  0  0  2  0  0  0  0  0  0
  180.6640  182.7140  137.9710 C   0  0  2  0  0  3  0  0  0  0  0  0
  179.2660  182.6810  137.9680 O   0  0  0  0  0  1  0  0  0  0  0  0
  181.1670  183.9340  137.1970 C   0  0  2  0  0  0  0  0  0  0  0  0
  182.4400  184.2890  137.6480 O   0  0  0  0  0  1  0  0  0  0  0  0
  180.2310  185.1080  137.4180 C   0  0  0  0  0  1  0  0  0  0  0  0
  181.2260  183.6520  135.8430 F   0  0  0  0  0  0  0  0  0  0  0  0
  182.8850  179.0850  140.9070 C   0  0  0  0  0  2  0  0  0  0  0  0
  184.1800  178.9450  141.6340 C   0  0  0  0  0  0  0  0  0  0  0  0
  185.3450  179.3990  141.0270 O   0  0  0  0  0  1  0  0  0  0  0  0
  184.1900  178.3860  142.8500 C   0  0  0  0  0  3  0  0  0  0  0  0
  186.3380  178.3070  145.9360 C   0  0  0  0  0  3  0  0  0  0  0  0
  186.5870  177.6790  143.2170 C   0  0  0  0  0  3  0  0  0  0  0  0
  189.8530  177.1410  145.8100 C   0  0  0  0  0  0  0  0  0  0  0  0
  188.6370  177.6340  146.3030 C   0  0  0  0  0  3  0  0  0  0  0  0
  187.5490  177.8150  145.4460 C   0  0  0  0  0  0  0  0  0  0  0  0
  188.8860  177.0070  143.5830 C   0  0  0  0  0  3  0  0  0  0  0  0
  187.6750  177.4980  144.0750 C   0  0  0  0  0  0  0  0  0  0  0  0
  189.9690  176.8290  144.4470 C   0  0  0  0  0  3  0  0  0  0  0  0
  185.3690  178.1730  143.7100 C   0  0  0  0  0  0  0  0  0  0  0  0
  185.2540  178.4850  145.0710 C   0  0  0  0  0  3  0  0  0  0  0  0
  191.0010  176.9480  146.7100 C   0  0  0  0  0  0  0  0  0  0  0  0
  190.8880  177.2440  148.0630 O   0  0  0  0  0  1  0  0  0  0  0  0
  192.0960  176.5120  146.2650 O   0  0  0  0  0  0  0  0  0  0  0  0
  1 18  1  1  0  0  0
  2  8  1  0  0  0  0
  4  3  1  0  0  0  0
  5  2  1  6  0  0  0
  6  5  1  0  0  0  0
  6  1  1  0  0  0  0
  6  3  1  1  0  0  0
  7  5  1  0  0  0  0
  7  4  1  0  0  0  0
  8 11  1  6  0  0  0
  8 10  1  0  0  0  0
 10  9  1  1  0  0  0
 10  1  1  0  0  0  0
 11 12  1  0  0  0  0
 12 13  1  6  0  0  0
 14 16  1  1  0  0  0
 14 15  1  0  0  0  0
 14 12  1  0  0  0  0
 17 14  1  0  0  0  0
 18 19  1  0  0  0  0
 19 21  2  0  0  0  0
 20 19  1  0  0  0  0
 21 30  1  0  0  0  0
 23 30  2  0  0  0  0
 23 28  1  0  0  0  0
 24 25  1  0  0  0  0
 24 32  1  0  0  0  0
 26 22  1  0  0  0  0
 26 25  2  0  0  0  0
 27 28  2  0  0  0  0
 27 29  1  0  0  0  0
 28 26  1  0  0  0  0
 29 24  2  0  0  0  0
 30 31  1  0  0  0  0
 31 22  2  0  0  0  0
 32 33  1  0  0  0  0
 34 32  2  0  0  0  0
M  END
>  <MODEL>
1

>  <REMARK>
 VINA RESULT:      -9.5      0.000      0.000
  Name = 
  7 active torsions:
  status: ('A' for Active; 'I' for Inactive)
    1  A    between atoms: C_1  and  C_9
    2  A    between atoms: C_2  and  C_23
    3  A    between atoms: C_2  and  C_32
    4  A    between atoms: C_3  and  C_23
    5  A    between atoms: C_7  and  C_11
    6  A    between atoms: C_8  and  C_9
    7  A    between atoms: C_18  and  C_30
                            x       y       z     vdW  Elec       q    Type
                         _______ _______ _______ _____ _____    ______ ____

>  <TORSDO>
F 7

$$$$
=
 OpenBabel10262423283D

 34 37  0  0  1  0  0  0  0  0999 V2000
  182.3690  178.3730  141.9820 C   0  0  1  0  0  3  0  0  0  0  0  0
  179.9000  179.4060  140.6540 C   0  0  0  0  0  2  0  0  0  0  0  0
  180.8290  178.3170  144.0890 C   0  0  0  0  0  2  0  0  0  0  0  0
  179.4340  178.8890  144.3430 C   0  0  0  0  0  2  0  0  0  0  0  0
  180.1590  179.5240  142.1450 C   0  0  2  0  0  3  0  0  0  0  0  0
  180.9640  178.3360  142.5860 C   0  0  1  0  0  3  0  0  0  0  0  0
  178.9310  179.4560  143.0150 C   0  0  0  0  0  2  0  0  0  0  0  0
  181.2500  179.4260  139.9140 C   0  0  1  0  0  3  0  0  0  0  0  0
  183.4520  178.4180  139.8210 O   0  0  0  0  0  1  0  0  0  0  0  0
  182.2050  178.3330  140.4470 C   0  0  1  0  0  3  0  0  0  0  0  0
  181.0220  179.2360  138.4210 C   0  0  0  0  0  2  0  0  0  0  0  0
  181.5600  180.4220  137.6270 C   0  0  2  0  0  3  0  0  0  0  0  0
  182.1290  181.3550  138.5000 O   0  0  0  0  0  1  0  0  0  0  0  0
  180.4560  181.0770  136.7970 C   0  0  2  0  0  0  0  0  0  0  0  0
  179.2100  180.5800  137.1880 O   0  0  0  0  0  1  0  0  0  0  0  0
  180.6600  180.7630  135.3260 C   0  0  0  0  0  1  0  0  0  0  0  0
  180.4740  182.4500  136.9720 F   0  0  0  0  0  0  0  0  0  0  0  0
  183.1750  179.6050  142.4180 C   0  0  0  0  0  2  0  0  0  0  0  0
  184.5820  179.2440  142.7550 C   0  0  0  0  0  0  0  0  0  0  0  0
  185.6080  179.6930  141.9320 O   0  0  0  0  0  1  0  0  0  0  0  0
  184.8230  178.4980  143.8390 C   0  0  0  0  0  3  0  0  0  0  0  0
  188.2790  177.0140  143.8030 C   0  0  0  0  0  3  0  0  0  0  0  0
  186.5470  178.1960  145.6610 C   0  0  0  0  0  3  0  0  0  0  0  0
  190.3440  176.8590  146.8760 C   0  0  0  0  0  0  0  0  0  0  0  0
  189.9420  176.7150  145.5400 C   0  0  0  0  0  3  0  0  0  0  0  0
  188.6810  177.1580  145.1320 C   0  0  0  0  0  0  0  0  0  0  0  0
  188.2090  177.8980  147.3990 C   0  0  0  0  0  3  0  0  0  0  0  0
  187.8080  177.7540  146.0690 C   0  0  0  0  0  0  0  0  0  0  0  0
  189.4710  177.4530  147.7990 C   0  0  0  0  0  3  0  0  0  0  0  0
  186.1430  178.0530  144.3240 C   0  0  0  0  0  0  0  0  0  0  0  0
  187.0160  177.4590  143.4020 C   0  0  0  0  0  3  0  0  0  0  0  0
  191.6720  176.3950  147.3090 C   0  0  0  0  0  0  0  0  0  0  0  0
  192.3250  177.0250  148.3620 O   0  0  0  0  0  1  0  0  0  0  0  0
  192.2270  175.4210  146.7340 O   0  0  0  0  0  0  0  0  0  0  0  0
  1 18  1  6  0  0  0
  1  6  1  0  0  0  0
  3  4  1  0  0  0  0
  5  2  1  6  0  0  0
  5  6  1  0  0  0  0
  5  7  1  0  0  0  0
  6  3  1  1  0  0  0
  7  4  1  0  0  0  0
  8 11  1  6  0  0  0
  8 10  1  0  0  0  0
  8  2  1  0  0  0  0
 10  9  1  6  0  0  0
 10  1  1  0  0  0  0
 12 11  1  0  0  0  0
 12 13  1  1  0  0  0
 14 16  1  6  0  0  0
 14 17  1  0  0  0  0
 14 15  1  0  0  0  0
 14 12  1  0  0  0  0
 18 19  1  0  0  0  0
 19 21  2  0  0  0  0
 20 19  1  0  0  0  0
 21 30  1  0  0  0  0
 22 26  1  0  0  0  0
 23 28  1  0  0  0  0
 24 32  1  0  0  0  0
 24 29  1  0  0  0  0
 25 24  2  0  0  0  0
 26 25  1  0  0  0  0
 26 28  2  0  0  0  0
 27 29  2  0  0  0  0
 28 27  1  0  0  0  0
 30 23  2  0  0  0  0
 31 22  2  0  0  0  0
 31 30  1  0  0  0  0
 32 33  1  0  0  0  0
 34 32  2  0  0  0  0
M  END
>  <MODEL>
2

>  <REMARK>
 VINA RESULT:      -9.1      1.914      2.929
  Name = 
  7 active torsions:
  status: ('A' for Active; 'I' for Inactive)
    1  A    between atoms: C_1  and  C_9
    2  A    between atoms: C_2  and  C_23
    3  A    between atoms: C_2  and  C_32
    4  A    between atoms: C_3  and  C_23
    5  A    between atoms: C_7  and  C_11
    6  A    between atoms: C_8  and  C_9
    7  A    between atoms: C_18  and  C_30
                            x       y       z     vdW  Elec       q    Type
                         _______ _______ _______ _____ _____    ______ ____

>  <TORSDO>
F 7

$$$$
=
 OpenBabel10262423283D

 34 37  0  0  1  0  0  0  0  0999 V2000
  182.6380  178.0180  141.1920 C   0  0  1  0  0  3  0  0  0  0  0  0
  180.1850  178.6330  139.6010 C   0  0  0  0  0  2  0  0  0  0  0  0
  181.3370  179.2610  143.0840 C   0  0  0  0  0  2  0  0  0  0  0  0
  180.0580  180.0970  143.0560 C   0  0  0  0  0  2  0  0  0  0  0  0
  180.6150  179.4330  140.8190 C   0  0  2  0  0  3  0  0  0  0  0  0
  181.3110  178.5100  141.7760 C   0  0  1  0  0  3  0  0  0  0  0  0
  179.4870  180.0010  141.6410 C   0  0  0  0  0  2  0  0  0  0  0  0
  181.4390  178.0670  138.9120 C   0  0  1  0  0  3  0  0  0  0  0  0
  183.4800  176.8110  139.2750 O   0  0  0  0  0  1  0  0  0  0  0  0
  182.3070  177.2480  139.8960 C   0  0  1  0  0  3  0  0  0  0  0  0
  181.0310  177.2000  137.7300 C   0  0  0  0  0  2  0  0  0  0  0  0
  180.0270  177.9240  136.8380 C   0  0  2  0  0  3  0  0  0  0  0  0
  179.1820  176.9920  136.2280 O   0  0  0  0  0  1  0  0  0  0  0  0
  180.7380  178.7670  135.7780 C   0  0  2  0  0  0  0  0  0  0  0  0
  179.8590  179.0550  134.7320 O   0  0  0  0  0  1  0  0  0  0  0  0
  181.9220  178.0000  135.2170 C   0  0  0  0  0  1  0  0  0  0  0  0
  181.1910  179.9520  136.3330 F   0  0  0  0  0  0  0  0  0  0  0  0
  183.6290  179.1580  140.9190 C   0  0  0  0  0  2  0  0  0  0  0  0
  184.8820  178.9920  141.7110 C   0  0  0  0  0  0  0  0  0  0  0  0
  186.0370  179.6380  141.2860 O   0  0  0  0  0  1  0  0  0  0  0  0
  184.8650  178.2270  142.8080 C   0  0  0  0  0  3  0  0  0  0  0  0
  186.8520  177.9160  145.9860 C   0  0  0  0  0  3  0  0  0  0  0  0
  187.2500  177.5170  143.2420 C   0  0  0  0  0  3  0  0  0  0  0  0
  190.3860  176.8020  145.9500 C   0  0  0  0  0  0  0  0  0  0  0  0
  189.1390  177.2400  146.4180 C   0  0  0  0  0  3  0  0  0  0  0  0
  188.0940  177.4790  145.5210 C   0  0  0  0  0  0  0  0  0  0  0  0
  189.5370  176.8420  143.6710 C   0  0  0  0  0  3  0  0  0  0  0  0
  188.2950  177.2780  144.1380 C   0  0  0  0  0  0  0  0  0  0  0  0
  190.5770  176.6050  144.5740 C   0  0  0  0  0  3  0  0  0  0  0  0
  186.0010  177.9560  143.7080 C   0  0  0  0  0  0  0  0  0  0  0  0
  185.8120  178.1530  145.0830 C   0  0  0  0  0  3  0  0  0  0  0  0
  191.4890  176.5490  146.8910 C   0  0  0  0  0  0  0  0  0  0  0  0
  191.6400  177.3390  148.0230 O   0  0  0  0  0  1  0  0  0  0  0  0
  192.3050  175.6120  146.6810 O   0  0  0  0  0  0  0  0  0  0  0  0
  1 18  1  6  0  0  0
  1  6  1  0  0  0  0
  4  3  1  0  0  0  0
  5  2  1  6  0  0  0
  5  7  1  0  0  0  0
  5  6  1  0  0  0  0
  6  3  1  1  0  0  0
  7  4  1  0  0  0  0
  8 11  1  6  0  0  0
  8  2  1  0  0  0  0
  8 10  1  0  0  0  0
 10  9  1  6  0  0  0
 10  1  1  0  0  0  0
 12 13  1  6  0  0  0
 12 11  1  0  0  0  0
 14 16  1  6  0  0  0
 14 17  1  0  0  0  0
 14 12  1  0  0  0  0
 15 14  1  0  0  0  0
 18 19  1  0  0  0  0
 19 21  2  0  0  0  0
 20 19  1  0  0  0  0
 21 30  1  0  0  0  0
 23 30  2  0  0  0  0
 23 28  1  0  0  0  0
 24 25  1  0  0  0  0
 24 32  1  0  0  0  0
 26 22  1  0  0  0  0
 26 25  2  0  0  0  0
 27 28  2  0  0  0  0
 27 29  1  0  0  0  0
 28 26  1  0  0  0  0
 29 24  2  0  0  0  0
 30 31  1  0  0  0  0
 31 22  2  0  0  0  0
 32 33  1  0  0  0  0
 34 32  2  0  0  0  0
M  END
>  <MODEL>
3

>  <REMARK>
 VINA RESULT:      -8.9      2.599      3.202
  Name = 
  7 active torsions:
  status: ('A' for Active; 'I' for Inactive)
    1  A    between atoms: C_1  and  C_9
    2  A    between atoms: C_2  and  C_23
    3  A    between atoms: C_2  and  C_32
    4  A    between atoms: C_3  and  C_23
    5  A    between atoms: C_7  and  C_11
    6  A    between atoms: C_8  and  C_9
    7  A    between atoms: C_18  and  C_30
                            x       y       z     vdW  Elec       q    Type
                         _______ _______ _______ _____ _____    ______ ____

>  <TORSDO>
F 7

$$$$
=
 OpenBabel10262423283D

 34 37  0  0  1  0  0  0  0  0999 V2000
  181.8600  178.7580  139.3890 C   0  0  1  0  0  3  0  0  0  0  0  0
  180.4620  178.5420  136.7580 C   0  0  0  0  0  2  0  0  0  0  0  0
  181.4900  181.3160  139.0170 C   0  0  0  0  0  2  0  0  0  0  0  0
  181.0240  182.1070  137.7950 C   0  0  0  0  0  2  0  0  0  0  0  0
  181.2060  179.7860  137.2100 C   0  0  2  0  0  3  0  0  0  0  0  0
  181.0970  179.8930  138.7030 C   0  0  1  0  0  3  0  0  0  0  0  0
  180.6270  181.0890  136.7240 C   0  0  0  0  0  2  0  0  0  0  0  0
  181.1310  177.3080  137.3890 C   0  0  1  0  0  3  0  0  0  0  0  0
  181.8990  176.3430  139.4750 O   0  0  0  0  0  1  0  0  0  0  0  0
  181.2170  177.4330  138.9280 C   0  0  1  0  0  3  0  0  0  0  0  0
  180.3590  176.0520  137.0100 C   0  0  0  0  0  2  0  0  0  0  0  0
  181.2240  175.1020  136.1870 C   0  0  2  0  0  3  0  0  0  0  0  0
  180.6070  174.8480  134.9590 O   0  0  0  0  0  1  0  0  0  0  0  0
  181.4720  173.7930  136.9380 C   0  0  2  0  0  0  0  0  0  0  0  0
  181.5260  172.7300  136.0330 O   0  0  0  0  0  1  0  0  0  0  0  0
  180.3410  173.5370  137.9170 C   0  0  0  0  0  1  0  0  0  0  0  0
  182.6660  173.8590  137.6350 F   0  0  0  0  0  0  0  0  0  0  0  0
  183.3640  178.7780  139.0820 C   0  0  0  0  0  2  0  0  0  0  0  0
  184.1740  178.9060  140.3270 C   0  0  0  0  0  0  0  0  0  0  0  0
  185.3350  179.6700  140.2990 O   0  0  0  0  0  1  0  0  0  0  0  0
  183.7660  178.2840  141.4390 C   0  0  0  0  0  3  0  0  0  0  0  0
  184.3200  178.9000  145.1080 C   0  0  0  0  0  3  0  0  0  0  0  0
  185.7310  177.8010  142.9510 C   0  0  0  0  0  3  0  0  0  0  0  0
  187.4920  177.9440  146.7660 C   0  0  0  0  0  0  0  0  0  0  0  0
  186.1980  178.4460  146.5700 C   0  0  0  0  0  3  0  0  0  0  0  0
  185.6080  178.4000  145.3040 C   0  0  0  0  0  0  0  0  0  0  0  0
  187.6090  177.3460  144.4120 C   0  0  0  0  0  3  0  0  0  0  0  0
  186.3200  177.8460  144.2170 C   0  0  0  0  0  0  0  0  0  0  0  0
  188.1920  177.3950  145.6810 C   0  0  0  0  0  3  0  0  0  0  0  0
  184.4350  178.3030  142.7530 C   0  0  0  0  0  0  0  0  0  0  0  0
  183.7370  178.8510  143.8380 C   0  0  0  0  0  3  0  0  0  0  0  0
  188.1160  177.9890  148.0980 C   0  0  0  0  0  0  0  0  0  0  0  0
  189.3700  178.5650  148.2660 O   0  0  0  0  0  0  0  0  0  0  0  0
  187.5200  177.5100  149.1000 O   0  0  0  0  0  1  0  0  0  0  0  0
  1 18  1  6  0  0  0
  2  5  1  0  0  0  0
  2  8  1  0  0  0  0
  4  3  1  0  0  0  0
  5  7  1  6  0  0  0
  5  6  1  0  0  0  0
  6  3  1  1  0  0  0
  6  1  1  0  0  0  0
  7  4  1  0  0  0  0
  8 11  1  1  0  0  0
  8 10  1  0  0  0  0
 10  1  1  0  0  0  0
 10  9  1  6  0  0  0
 12 13  1  6  0  0  0
 12 14  1  0  0  0  0
 12 11  1  0  0  0  0
 14 17  1  0  0  0  0
 14 16  1  1  0  0  0
 15 14  1  0  0  0  0
 18 19  1  0  0  0  0
 19 21  2  0  0  0  0
 20 19  1  0  0  0  0
 21 30  1  0  0  0  0
 22 26  1  0  0  0  0
 23 28  1  0  0  0  0
 24 32  1  0  0  0  0
 25 24  1  0  0  0  0
 26 25  2  0  0  0  0
 27 29  1  0  0  0  0
 28 27  2  0  0  0  0
 28 26  1  0  0  0  0
 29 24  2  0  0  0  0
 30 23  2  0  0  0  0
 30 31  1  0  0  0  0
 31 22  2  0  0  0  0
 32 33  2  0  0  0  0
 32 34  1  0  0  0  0
M  END
>  <MODEL>
4

>  <REMARK>
 VINA RESULT:      -8.7      3.188      5.104
  Name = 
  7 active torsions:
  status: ('A' for Active; 'I' for Inactive)
    1  A    between atoms: C_1  and  C_9
    2  A    between atoms: C_2  and  C_23
    3  A    between atoms: C_2  and  C_32
    4  A    between atoms: C_3  and  C_23
    5  A    between atoms: C_7  and  C_11
    6  A    between atoms: C_8  and  C_9
    7  A    between atoms: C_18  and  C_30
                            x       y       z     vdW  Elec       q    Type
                         _______ _______ _______ _____ _____    ______ ____

>  <TORSDO>
F 7

$$$$
=
 OpenBabel10262423283D

 34 37  0  0  1  0  0  0  0  0999 V2000
  183.0460  177.8870  140.8550 C   0  0  1  0  0  3  0  0  0  0  0  0
  180.6690  178.6860  139.2320 C   0  0  0  0  0  2  0  0  0  0  0  0
  181.6610  178.9210  142.8120 C   0  0  0  0  0  2  0  0  0  0  0  0
  180.3840  179.7620  142.8180 C   0  0  0  0  0  2  0  0  0  0  0  0
  181.0430  179.3450  140.5480 C   0  0  2  0  0  3  0  0  0  0  0  0
  181.6950  178.3190  141.4290 C   0  0  1  0  0  3  0  0  0  0  0  0
  179.8790  179.8260  141.3760 C   0  0  0  0  0  2  0  0  0  0  0  0
  181.9540  178.1940  138.5420 C   0  0  1  0  0  3  0  0  0  0  0  0
  183.9750  176.8940  138.8570 O   0  0  0  0  0  1  0  0  0  0  0  0
  182.7750  177.2660  139.4690 C   0  0  1  0  0  3  0  0  0  0  0  0
  181.6000  177.4640  137.2540 C   0  0  0  0  0  2  0  0  0  0  0  0
  181.2160  176.0140  137.5310 C   0  0  2  0  0  3  0  0  0  0  0  0
  182.0110  175.1610  136.7600 O   0  0  0  0  0  1  0  0  0  0  0  0
  179.7350  175.7710  137.2340 C   0  0  2  0  0  0  0  0  0  0  0  0
  179.1110  175.2200  138.3550 O   0  0  0  0  0  1  0  0  0  0  0  0
  179.5930  174.8000  136.0760 C   0  0  0  0  0  1  0  0  0  0  0  0
  179.1100  176.9610  136.9040 F   0  0  0  0  0  0  0  0  0  0  0  0
  184.0500  179.0450  140.7540 C   0  0  0  0  0  2  0  0  0  0  0  0
  185.2780  178.7740  141.5570 C   0  0  0  0  0  0  0  0  0  0  0  0
  186.5220  179.0130  140.9860 O   0  0  0  0  0  1  0  0  0  0  0  0
  185.1520  178.3070  142.8040 C   0  0  0  0  0  3  0  0  0  0  0  0
  186.9860  177.7820  146.0460 C   0  0  0  0  0  3  0  0  0  0  0  0
  187.5310  177.6170  143.3030 C   0  0  0  0  0  3  0  0  0  0  0  0
  190.5460  176.7530  146.1040 C   0  0  0  0  0  0  0  0  0  0  0  0
  189.2660  177.1240  146.5400 C   0  0  0  0  0  3  0  0  0  0  0  0
  188.2610  177.4120  145.6130 C   0  0  0  0  0  0  0  0  0  0  0  0
  189.8110  176.9600  143.7950 C   0  0  0  0  0  3  0  0  0  0  0  0
  188.5360  177.3290  144.2300 C   0  0  0  0  0  0  0  0  0  0  0  0
  190.8100  176.6730  144.7280 C   0  0  0  0  0  3  0  0  0  0  0  0
  186.2490  177.9880  143.7380 C   0  0  0  0  0  0  0  0  0  0  0  0
  185.9860  178.0680  145.1120 C   0  0  0  0  0  3  0  0  0  0  0  0
  191.6070  176.4480  147.0770 C   0  0  0  0  0  0  0  0  0  0  0  0
  192.4500  175.3620  146.8780 O   0  0  0  0  0  0  0  0  0  0  0  0
  191.7630  177.1690  148.0990 O   0  0  0  0  0  1  0  0  0  0  0  0
  1 18  1  6  0  0  0
  1  6  1  0  0  0  0
  3  4  1  0  0  0  0
  5  2  1  6  0  0  0
  5  7  1  0  0  0  0
  5  6  1  0  0  0  0
  6  3  1  1  0  0  0
  7  4  1  0  0  0  0
  8 11  1  6  0  0  0
  8  2  1  0  0  0  0
  8 10  1  0  0  0  0
 10  9  1  6  0  0  0
 10  1  1  0  0  0  0
 11 12  1  0  0  0  0
 12 13  1  6  0  0  0
 14 16  1  6  0  0  0
 14 12  1  0  0  0  0
 14 15  1  0  0  0  0
 17 14  1  0  0  0  0
 18 19  1  0  0  0  0
 19 21  2  0  0  0  0
 20 19  1  0  0  0  0
 21 30  1  0  0  0  0
 23 30  2  0  0  0  0
 23 28  1  0  0  0  0
 24 25  1  0  0  0  0
 24 32  1  0  0  0  0
 26 22  1  0  0  0  0
 26 25  2  0  0  0  0
 27 28  2  0  0  0  0
 27 29  1  0  0  0  0
 28 26  1  0  0  0  0
 29 24  2  0  0  0  0
 30 31  1  0  0  0  0
 31 22  2  0  0  0  0
 32 34  1  0  0  0  0
 33 32  2  0  0  0  0
M  END
>  <MODEL>
5

>  <REMARK>
 VINA RESULT:      -8.7      3.065      4.103
  Name = 
  7 active torsions:
  status: ('A' for Active; 'I' for Inactive)
    1  A    between atoms: C_1  and  C_9
    2  A    between atoms: C_2  and  C_23
    3  A    between atoms: C_2  and  C_32
    4  A    between atoms: C_3  and  C_23
    5  A    between atoms: C_7  and  C_11
    6  A    between atoms: C_8  and  C_9
    7  A    between atoms: C_18  and  C_30
                            x       y       z     vdW  Elec       q    Type
                         _______ _______ _______ _____ _____    ______ ____

>  <TORSDO>
F 7

$$$$
=
 OpenBabel10262423283D

 34 37  0  0  1  0  0  0  0  0999 V2000
  191.4970  175.7220  138.0750 C   0  0  1  0  0  3  0  0  0  0  0  0
  192.6090  175.0290  135.3910 C   0  0  0  0  0  2  0  0  0  0  0  0
  189.4190  174.4040  137.2030 C   0  0  0  0  0  2  0  0  0  0  0  0
  189.0600  173.8790  135.8130 C   0  0  0  0  0  2  0  0  0  0  0  0
  191.1210  175.1020  135.6870 C   0  0  2  0  0  3  0  0  0  0  0  0
  190.8970  174.6950  137.1140 C   0  0  1  0  0  3  0  0  0  0  0  0
  190.2670  174.1340  134.9090 C   0  0  0  0  0  2  0  0  0  0  0  0
  193.3450  176.0240  136.3060 C   0  0  1  0  0  3  0  0  0  0  0  0
  193.6260  176.7370  138.6060 O   0  0  0  0  0  1  0  0  0  0  0  0
  193.0140  175.7760  137.7970 C   0  0  1  0  0  3  0  0  0  0  0  0
  194.8460  175.9190  136.0810 C   0  0  0  0  0  2  0  0  0  0  0  0
  195.4060  174.6380  136.6920 C   0  0  2  0  0  3  0  0  0  0  0  0
  196.2550  174.9560  137.7560 O   0  0  0  0  0  1  0  0  0  0  0  0
  196.1530  173.8090  135.6450 C   0  0  2  0  0  0  0  0  0  0  0  0
  196.7430  172.6980  136.2530 O   0  0  0  0  0  1  0  0  0  0  0  0
  197.2460  174.6470  135.0070 C   0  0  0  0  0  1  0  0  0  0  0  0
  195.2800  173.3810  134.6600 F   0  0  0  0  0  0  0  0  0  0  0  0
  190.8610  177.1130  137.9360 C   0  0  0  0  0  2  0  0  0  0  0  0
  190.2290  177.5540  139.2130 C   0  0  0  0  0  0  0  0  0  0  0  0
  189.4660  178.7150  139.2200 O   0  0  0  0  0  1  0  0  0  0  0  0
  190.4120  176.8240  140.3190 C   0  0  0  0  0  3  0  0  0  0  0  0
  190.3070  177.5420  144.0100 C   0  0  0  0  0  3  0  0  0  0  0  0
  188.4850  177.1980  141.9090 C   0  0  0  0  0  3  0  0  0  0  0  0
  187.0920  177.9940  145.7960 C   0  0  0  0  0  0  0  0  0  0  0  0
  188.4690  177.9010  145.5470 C   0  0  0  0  0  3  0  0  0  0  0  0
  188.9370  177.6360  144.2570 C   0  0  0  0  0  0  0  0  0  0  0  0
  186.6460  177.5560  143.4460 C   0  0  0  0  0  3  0  0  0  0  0  0
  188.0180  177.4630  143.1990 C   0  0  0  0  0  0  0  0  0  0  0  0
  186.1870  177.8210  144.7380 C   0  0  0  0  0  3  0  0  0  0  0  0
  189.8640  177.1040  141.6590 C   0  0  0  0  0  0  0  0  0  0  0  0
  190.7670  177.2770  142.7160 C   0  0  0  0  0  3  0  0  0  0  0  0
  186.5960  178.2730  147.1530 C   0  0  0  0  0  0  0  0  0  0  0  0
  187.4720  178.2850  148.2310 O   0  0  0  0  0  1  0  0  0  0  0  0
  185.3730  178.5070  147.3500 O   0  0  0  0  0  0  0  0  0  0  0  0
  1 18  1  6  0  0  0
  2  5  1  0  0  0  0
  2  8  1  0  0  0  0
  4  3  1  0  0  0  0
  5  7  1  6  0  0  0
  5  6  1  0  0  0  0
  6  3  1  1  0  0  0
  6  1  1  0  0  0  0
  7  4  1  0  0  0  0
  8 11  1  1  0  0  0
  8 10  1  0  0  0  0
 10  1  1  0  0  0  0
 10  9  1  1  0  0  0
 11 12  1  0  0  0  0
 12 13  1  1  0  0  0
 14 16  1  6  0  0  0
 14 15  1  0  0  0  0
 14 12  1  0  0  0  0
 17 14  1  0  0  0  0
 18 19  1  0  0  0  0
 19 20  1  0  0  0  0
 19 21  2  0  0  0  0
 21 30  1  0  0  0  0
 22 26  1  0  0  0  0
 23 28  1  0  0  0  0
 24 32  1  0  0  0  0
 25 24  1  0  0  0  0
 26 25  2  0  0  0  0
 27 29  1  0  0  0  0
 28 27  2  0  0  0  0
 28 26  1  0  0  0  0
 29 24  2  0  0  0  0
 30 23  2  0  0  0  0
 30 31  1  0  0  0  0
 31 22  2  0  0  0  0
 32 34  2  0  0  0  0
 32 33  1  0  0  0  0
M  END
>  <MODEL>
6

>  <REMARK>
 VINA RESULT:      -8.5      7.240     10.574
  Name = 
  7 active torsions:
  status: ('A' for Active; 'I' for Inactive)
    1  A    between atoms: C_1  and  C_9
    2  A    between atoms: C_2  and  C_23
    3  A    between atoms: C_2  and  C_32
    4  A    between atoms: C_3  and  C_23
    5  A    between atoms: C_7  and  C_11
    6  A    between atoms: C_8  and  C_9
    7  A    between atoms: C_18  and  C_30
                            x       y       z     vdW  Elec       q    Type
                         _______ _______ _______ _____ _____    ______ ____

>  <TORSDO>
F 7

$$$$
=
 OpenBabel10262423283D

 34 37  0  0  1  0  0  0  0  0999 V2000
  185.2180  177.8770  142.7860 C   0  0  1  0  0  3  0  0  0  0  0  0
  183.3350  179.0090  144.8100 C   0  0  0  0  0  2  0  0  0  0  0  0
  186.8590  177.8120  144.8150 C   0  0  0  0  0  2  0  0  0  0  0  0
  186.7660  178.4160  146.2160 C   0  0  0  0  0  2  0  0  0  0  0  0
  184.8460  179.0840  144.9400 C   0  0  2  0  0  3  0  0  0  0  0  0
  185.4420  177.8640  144.2990 C   0  0  1  0  0  3  0  0  0  0  0  0
  185.3710  179.0280  146.3510 C   0  0  0  0  0  2  0  0  0  0  0  0
  182.9650  179.0090  143.3160 C   0  0  1  0  0  3  0  0  0  0  0  0
  183.4080  177.9430  141.1850 O   0  0  0  0  0  1  0  0  0  0  0  0
  183.6920  177.8780  142.5520 C   0  0  1  0  0  3  0  0  0  0  0  0
  181.4590  178.8610  143.1580 C   0  0  0  0  0  2  0  0  0  0  0  0
  180.9060  179.8880  142.1750 C   0  0  2  0  0  3  0  0  0  0  0  0
  180.0550  180.7720  142.8460 O   0  0  0  0  0  1  0  0  0  0  0  0
  180.1620  179.2050  141.0260 C   0  0  2  0  0  0  0  0  0  0  0  0
  178.9710  179.8850  140.7610 O   0  0  0  0  0  1  0  0  0  0  0  0
  179.8270  177.7740  141.4050 C   0  0  0  0  0  1  0  0  0  0  0  0
  180.9460  179.1980  139.8850 F   0  0  0  0  0  0  0  0  0  0  0  0
  185.8830  179.0750  142.0940 C   0  0  0  0  0  2  0  0  0  0  0  0
  186.9110  178.6340  141.1080 C   0  0  0  0  0  0  0  0  0  0  0  0
  186.6010  178.6640  139.7530 O   0  0  0  0  0  1  0  0  0  0  0  0
  188.1040  178.2180  141.5490 C   0  0  0  0  0  3  0  0  0  0  0  0
  191.5820  177.1280  140.6210 C   0  0  0  0  0  3  0  0  0  0  0  0
  189.1140  177.5020  139.3470 C   0  0  0  0  0  3  0  0  0  0  0  0
  192.4440  176.1900  137.1410 C   0  0  0  0  0  0  0  0  0  0  0  0
  192.5650  176.4410  138.5150 C   0  0  0  0  0  3  0  0  0  0  0  0
  191.4610  176.8770  139.2520 C   0  0  0  0  0  0  0  0  0  0  0  0
  190.0960  176.8160  137.2420 C   0  0  0  0  0  3  0  0  0  0  0  0
  190.2180  177.0650  138.6100 C   0  0  0  0  0  0  0  0  0  0  0  0
  191.2050  176.3800  136.5110 C   0  0  0  0  0  3  0  0  0  0  0  0
  189.2340  177.7530  140.7230 C   0  0  0  0  0  0  0  0  0  0  0  0
  190.4720  177.5640  141.3510 C   0  0  0  0  0  3  0  0  0  0  0  0
  193.6040  175.7300  136.3610 C   0  0  0  0  0  0  0  0  0  0  0  0
  193.5190  174.5750  135.5930 O   0  0  0  0  0  0  0  0  0  0  0  0
  194.6840  176.3790  136.3790 O   0  0  0  0  0  1  0  0  0  0  0  0
  1 18  1  1  0  0  0
  1  6  1  0  0  0  0
  3  4  1  0  0  0  0
  4  7  1  0  0  0  0
  5  2  1  1  0  0  0
  5  7  1  0  0  0  0
  6  3  1  6  0  0  0
  6  5  1  0  0  0  0
  8 11  1  1  0  0  0
  8  2  1  0  0  0  0
 10  9  1  6  0  0  0
 10  1  1  0  0  0  0
 10  8  1  0  0  0  0
 12 13  1  1  0  0  0
 12 11  1  0  0  0  0
 14 16  1  1  0  0  0
 14 12  1  0  0  0  0
 15 14  1  0  0  0  0
 17 14  1  0  0  0  0
 19 21  2  0  0  0  0
 19 18  1  0  0  0  0
 20 19  1  0  0  0  0
 22 31  1  0  0  0  0
 23 30  1  0  0  0  0
 24 25  2  0  0  0  0
 25 26  1  0  0  0  0
 26 22  2  0  0  0  0
 27 28  1  0  0  0  0
 28 26  1  0  0  0  0
 28 23  2  0  0  0  0
 29 24  1  0  0  0  0
 29 27  2  0  0  0  0
 30 31  2  0  0  0  0
 30 21  1  0  0  0  0
 32 34  1  0  0  0  0
 32 24  1  0  0  0  0
 33 32  2  0  0  0  0
M  END
>  <MODEL>
7

>  <REMARK>
 VINA RESULT:      -8.5      4.645      6.999
  Name = 
  7 active torsions:
  status: ('A' for Active; 'I' for Inactive)
    1  A    between atoms: C_1  and  C_9
    2  A    between atoms: C_2  and  C_23
    3  A    between atoms: C_2  and  C_32
    4  A    between atoms: C_3  and  C_23
    5  A    between atoms: C_7  and  C_11
    6  A    between atoms: C_8  and  C_9
    7  A    between atoms: C_18  and  C_30
                            x       y       z     vdW  Elec       q    Type
                         _______ _______ _______ _____ _____    ______ ____

>  <TORSDO>
F 7

$$$$
=
 OpenBabel10262423283D

 34 37  0  0  1  0  0  0  0  0999 V2000
  188.3130  176.9530  145.3330 C   0  0  1  0  0  3  0  0  0  0  0  0
  186.1670  178.6070  146.5920 C   0  0  0  0  0  2  0  0  0  0  0  0
  189.4240  177.1750  147.6850 C   0  0  0  0  0  2  0  0  0  0  0  0
  189.0850  178.0530  148.8880 C   0  0  0  0  0  2  0  0  0  0  0  0
  187.6060  178.5930  147.0770 C   0  0  2  0  0  3  0  0  0  0  0  0
  188.1810  177.2280  146.8320 C   0  0  1  0  0  3  0  0  0  0  0  0
  187.7820  178.7830  148.5620 C   0  0  0  0  0  2  0  0  0  0  0  0
  186.1530  178.3340  145.0770 C   0  0  1  0  0  3  0  0  0  0  0  0
  186.9400  176.8310  143.3460 O   0  0  0  0  0  1  0  0  0  0  0  0
  186.8940  177.0210  144.7300 C   0  0  1  0  0  3  0  0  0  0  0  0
  184.7170  178.2710  144.5780 C   0  0  0  0  0  2  0  0  0  0  0  0
  184.4470  179.3570  143.5410 C   0  0  2  0  0  3  0  0  0  0  0  0
  183.3480  180.1240  143.9370 O   0  0  0  0  0  1  0  0  0  0  0  0
  184.1990  178.7490  142.1590 C   0  0  2  0  0  0  0  0  0  0  0  0
  184.7690  179.5590  141.1750 O   0  0  0  0  0  1  0  0  0  0  0  0
  182.7070  178.6520  141.8980 C   0  0  0  0  0  1  0  0  0  0  0  0
  184.7530  177.4830  142.0850 F   0  0  0  0  0  0  0  0  0  0  0  0
  189.2600  177.9340  144.6260 C   0  0  0  0  0  2  0  0  0  0  0  0
  189.8330  177.3400  143.3840 C   0  0  0  0  0  0  0  0  0  0  0  0
  190.5960  176.1820  143.4820 O   0  0  0  0  0  1  0  0  0  0  0  0
  189.6010  177.9350  142.2090 C   0  0  0  0  0  3  0  0  0  0  0  0
  189.5210  176.7730  138.6320 C   0  0  0  0  0  3  0  0  0  0  0  0
  191.4460  177.3400  140.5880 C   0  0  0  0  0  3  0  0  0  0  0  0
  192.6410  176.0460  136.7700 C   0  0  0  0  0  0  0  0  0  0  0  0
  191.2790  176.1960  137.0680 C   0  0  0  0  0  3  0  0  0  0  0  0
  190.8770  176.6250  138.3350 C   0  0  0  0  0  0  0  0  0  0  0  0
  193.2040  176.7620  139.0250 C   0  0  0  0  0  3  0  0  0  0  0  0
  191.8480  176.9110  139.3210 C   0  0  0  0  0  0  0  0  0  0  0  0
  193.5980  176.3330  137.7550 C   0  0  0  0  0  3  0  0  0  0  0  0
  190.0820  177.4890  140.8880 C   0  0  0  0  0  0  0  0  0  0  0  0
  189.1270  177.2030  139.9030 C   0  0  0  0  0  3  0  0  0  0  0  0
  193.0690  175.5950  135.4360 C   0  0  0  0  0  0  0  0  0  0  0  0
  192.7960  174.3000  135.0140 O   0  0  0  0  0  1  0  0  0  0  0  0
  193.6840  176.3780  134.6640 O   0  0  0  0  0  0  0  0  0  0  0  0
  1 18  1  6  0  0  0
  1  6  1  0  0  0  0
  3  4  1  0  0  0  0
  5  2  1  1  0  0  0
  5  7  1  0  0  0  0
  6  5  1  0  0  0  0
  6  3  1  1  0  0  0
  7  4  1  0  0  0  0
  8 11  1  1  0  0  0
  8  2  1  0  0  0  0
 10  9  1  6  0  0  0
 10  8  1  0  0  0  0
 10  1  1  0  0  0  0
 12 13  1  1  0  0  0
 12 11  1  0  0  0  0
 14 16  1  6  0  0  0
 14 12  1  0  0  0  0
 15 14  1  0  0  0  0
 17 14  1  0  0  0  0
 19 20  1  0  0  0  0
 19 18  1  0  0  0  0
 21 19  2  0  0  0  0
 22 31  1  0  0  0  0
 23 30  1  0  0  0  0
 24 25  2  0  0  0  0
 24 29  1  0  0  0  0
 25 26  1  0  0  0  0
 26 22  2  0  0  0  0
 26 28  1  0  0  0  0
 27 28  1  0  0  0  0
 28 23  2  0  0  0  0
 29 27  2  0  0  0  0
 30 21  1  0  0  0  0
 31 30  2  0  0  0  0
 32 24  1  0  0  0  0
 33 32  1  0  0  0  0
 34 32  2  0  0  0  0
M  END
>  <MODEL>
8

>  <REMARK>
 VINA RESULT:      -8.3      4.887      8.794
  Name = 
  7 active torsions:
  status: ('A' for Active; 'I' for Inactive)
    1  A    between atoms: C_1  and  C_9
    2  A    between atoms: C_2  and  C_23
    3  A    between atoms: C_2  and  C_32
    4  A    between atoms: C_3  and  C_23
    5  A    between atoms: C_7  and  C_11
    6  A    between atoms: C_8  and  C_9
    7  A    between atoms: C_18  and  C_30
                            x       y       z     vdW  Elec       q    Type
                         _______ _______ _______ _____ _____    ______ ____

>  <TORSDO>
F 7

$$$$
=
 OpenBabel10262423283D

 34 37  0  0  1  0  0  0  0  0999 V2000
  183.0310  177.8800  141.3030 C   0  0  1  0  0  3  0  0  0  0  0  0
  180.4150  178.5240  140.0120 C   0  0  0  0  0  2  0  0  0  0  0  0
  181.9120  178.9830  143.3880 C   0  0  0  0  0  2  0  0  0  0  0  0
  180.6220  179.7880  143.5410 C   0  0  0  0  0  2  0  0  0  0  0  0
  180.9540  179.2640  141.2230 C   0  0  2  0  0  3  0  0  0  0  0  0
  181.7640  178.3070  142.0480 C   0  0  1  0  0  3  0  0  0  0  0  0
  179.9090  179.7580  142.1890 C   0  0  0  0  0  2  0  0  0  0  0  0
  181.6010  178.0290  139.1650 C   0  0  1  0  0  3  0  0  0  0  0  0
  183.6910  176.8040  139.2420 O   0  0  0  0  0  1  0  0  0  0  0  0
  182.5810  177.1770  140.0050 C   0  0  1  0  0  3  0  0  0  0  0  0
  181.0880  177.2200  137.9820 C   0  0  0  0  0  2  0  0  0  0  0  0
  180.6820  178.1310  136.8280 C   0  0  2  0  0  3  0  0  0  0  0  0
  179.2970  178.3230  136.8420 O   0  0  0  0  0  1  0  0  0  0  0  0
  181.1230  177.5470  135.4840 C   0  0  2  0  0  0  0  0  0  0  0  0
  180.0450  177.5350  134.5960 O   0  0  0  0  0  1  0  0  0  0  0  0
  181.6080  176.1220  135.6750 C   0  0  0  0  0  1  0  0  0  0  0  0
  182.1490  178.3040  134.9460 F   0  0  0  0  0  0  0  0  0  0  0  0
  183.9680  179.0570  140.9960 C   0  0  0  0  0  2  0  0  0  0  0  0
  185.2790  178.9060  141.6900 C   0  0  0  0  0  0  0  0  0  0  0  0
  186.3250  179.7530  141.3450 O   0  0  0  0  0  1  0  0  0  0  0  0
  185.4170  177.9600  142.6270 C   0  0  0  0  0  3  0  0  0  0  0  0
  188.9300  176.8800  143.4250 C   0  0  0  0  0  3  0  0  0  0  0  0
  186.7000  177.8720  144.8010 C   0  0  0  0  0  3  0  0  0  0  0  0
  190.2400  176.9880  146.8900 C   0  0  0  0  0  0  0  0  0  0  0  0
  190.1720  176.7880  145.5040 C   0  0  0  0  0  3  0  0  0  0  0  0
  188.9980  177.0800  144.8050 C   0  0  0  0  0  0  0  0  0  0  0  0
  187.9410  177.7790  146.8800 C   0  0  0  0  0  3  0  0  0  0  0  0
  187.8740  177.5800  145.4990 C   0  0  0  0  0  0  0  0  0  0  0  0
  189.1190  177.4850  147.5710 C   0  0  0  0  0  3  0  0  0  0  0  0
  186.6310  177.6730  143.4130 C   0  0  0  0  0  0  0  0  0  0  0  0
  187.7510  177.1750  142.7340 C   0  0  0  0  0  3  0  0  0  0  0  0
  191.4750  176.6810  147.6290 C   0  0  0  0  0  0  0  0  0  0  0  0
  192.1470  175.4850  147.4070 O   0  0  0  0  0  0  0  0  0  0  0  0
  191.9370  177.5000  148.4680 O   0  0  0  0  0  1  0  0  0  0  0  0
  1 18  1  6  0  0  0
  1  6  1  0  0  0  0
  3  4  1  0  0  0  0
  5  2  1  6  0  0  0
  5  6  1  0  0  0  0
  5  7  1  0  0  0  0
  6  3  1  1  0  0  0
  7  4  1  0  0  0  0
  8 11  1  6  0  0  0
  8 10  1  0  0  0  0
  8  2  1  0  0  0  0
 10  9  1  6  0  0  0
 10  1  1  0  0  0  0
 12 13  1  6  0  0  0
 12 11  1  0  0  0  0
 14 16  1  1  0  0  0
 14 12  1  0  0  0  0
 15 14  1  0  0  0  0
 17 14  1  0  0  0  0
 18 19  1  0  0  0  0
 19 21  2  0  0  0  0
 20 19  1  0  0  0  0
 21 30  1  0  0  0  0
 22 26  1  0  0  0  0
 23 28  1  0  0  0  0
 24 29  1  0  0  0  0
 24 32  1  0  0  0  0
 25 24  2  0  0  0  0
 26 28  2  0  0  0  0
 26 25  1  0  0  0  0
 27 29  2  0  0  0  0
 28 27  1  0  0  0  0
 30 23  2  0  0  0  0
 31 30  1  0  0  0  0
 31 22  2  0  0  0  0
 32 34  1  0  0  0  0
 33 32  2  0  0  0  0
M  END
>  <MODEL>
9

>  <REMARK>
 VINA RESULT:      -8.2      2.835      3.798
  Name = 
  7 active torsions:
  status: ('A' for Active; 'I' for Inactive)
    1  A    between atoms: C_1  and  C_9
    2  A    between atoms: C_2  and  C_23
    3  A    between atoms: C_2  and  C_32
    4  A    between atoms: C_3  and  C_23
    5  A    between atoms: C_7  and  C_11
    6  A    between atoms: C_8  and  C_9
    7  A    between atoms: C_18  and  C_30
                            x       y       z     vdW  Elec       q    Type
                         _______ _______ _______ _____ _____    ______ ____

>  <TORSDO>
F 7

$$$$
