=
 OpenBabel10262422443D

 43 47  0  0  1  0  0  0  0  0999 V2000
  183.8330  178.9410  139.6370 C   0  0  0  0  0  0  0  0  0  0  0  0
  180.4170  175.0750  138.1960 C   0  0  1  0  0  0  0  0  0  0  0  0
  182.4860  178.1500  137.7480 C   0  0  2  0  0  3  0  0  0  0  0  0
  183.0530  178.0910  140.6050 C   0  0  0  0  0  2  0  0  0  0  0  0
  184.9320  179.3630  139.9520 O   0  0  0  0  0  0  0  0  0  0  0  0
  181.4370  177.5570  138.6910 C   0  0  2  0  0  0  0  0  0  0  0  0
  183.2240  179.3510  138.3280 C   0  0  0  0  0  2  0  0  0  0  0  0
  182.2470  176.9990  139.8790 C   0  0  0  0  0  2  0  0  0  0  0  0
  179.4810  176.1310  138.1670 O   0  0  0  0  0  0  0  0  0  0  0  0
  180.8000  176.4720  137.7850 C   0  0  2  0  0  0  0  0  0  0  0  0
  180.8740  176.9060  136.0080 S   0  0  0  0  0  0  0  0  0  0  0  0
  181.8910  178.3720  136.3740 C   0  0  0  0  0  2  0  0  0  0  0  0
  179.3730  174.5970  140.4290 C   0  0  0  0  0  1  0  0  0  0  0  0
  180.6580  174.5880  139.6200 C   0  0  0  0  0  2  0  0  0  0  0  0
  180.1440  173.9960  137.1340 C   0  0  1  0  0  3  0  0  0  0  0  0
  180.5610  174.3810  135.8560 O   0  0  0  0  0  1  0  0  0  0  0  0
  180.7740  172.6650  137.5330 C   0  0  0  0  0  2  0  0  0  0  0  0
  181.0340  170.9910  135.6500 C   0  0  0  0  0  1  0  0  0  0  0  0
  181.7050  172.0900  136.4650 C   0  0  2  0  0  3  0  0  0  0  0  0
  183.0700  171.6800  137.0480 C   0  0  1  0  0  3  0  0  0  0  0  0
  183.4500  170.4030  136.6220 O   0  0  0  0  0  1  0  0  0  0  0  0
  184.2150  172.6800  136.8230 C   0  0  0  0  0  3  0  0  0  0  0  0
  183.9470  174.8060  136.7730 C   0  0  0  0  0  2  0  0  0  0  0  0
  184.2240  173.7870  137.8620 C   0  0  0  0  0  2  0  0  0  0  0  0
  183.9280  173.6990  135.7360 C   0  0  0  0  0  2  0  0  0  0  0  0
  180.4280  178.6690  139.1460 C   0  0  2  0  0  3  0  0  0  0  0  0
  179.7350  178.5080  140.5080 C   0  0  0  0  0  2  0  0  0  0  0  0
  180.7340  180.5450  141.1680 O   0  0  0  0  0  0  0  0  0  0  0  0
  180.0610  179.5800  141.4980 C   0  0  0  0  0  0  0  0  0  0  0  0
  179.5840  179.4380  142.9080 C   0  0  0  0  0  2  0  0  0  0  0  0
  180.4870  178.5160  143.7120 C   0  0  0  0  0  2  0  0  0  0  0  0
  182.7120  178.7320  144.6930 C   0  0  0  0  0  3  0  0  0  0  0  0
  181.8900  179.0190  143.6930 C   0  0  0  0  0  3  0  0  0  0  0  0
  184.5780  179.7510  143.6830 O   0  0  0  0  0  0  0  0  0  0  0  0
  184.0980  179.2100  144.7120 C   0  0  0  0  0  0  0  0  0  0  0  0
  184.9060  179.0680  145.8770 N   0  0  0  0  0  1  0  0  0  0  0  0
  179.5210  179.2540  138.0600 C   0  0  0  0  0  2  0  0  0  0  0  0
  179.6880  180.7310  137.9700 C   0  0  0  0  0  0  0  0  0  0  0  0
  180.0310  183.5050  137.8340 C   0  0  0  0  0  3  0  0  0  0  0  0
  179.1010  182.9580  138.7240 C   0  0  0  0  0  3  0  0  0  0  0  0
  180.7930  182.6660  137.0140 C   0  0  0  0  0  3  0  0  0  0  0  0
  178.9310  181.5720  138.7930 C   0  0  0  0  0  3  0  0  0  0  0  0
  180.6230  181.2800  137.0840 C   0  0  0  0  0  3  0  0  0  0  0  0
  1  5  2  0  0  0  0
  1  4  1  0  0  0  0
  2 14  1  1  0  0  0
  3 12  1  6  0  0  0
  3  7  1  0  0  0  0
  3  6  1  0  0  0  0
  6 26  1  1  0  0  0
  6  8  1  0  0  0  0
  7  1  1  0  0  0  0
  8  4  1  0  0  0  0
  9  2  1  0  0  0  0
 10 11  1  6  0  0  0
 10  9  1  0  0  0  0
 10  2  1  0  0  0  0
 10  6  1  0  0  0  0
 11 12  1  0  0  0  0
 14 13  1  0  0  0  0
 15 16  1  6  0  0  0
 15 17  1  0  0  0  0
 15  2  1  0  0  0  0
 19 18  1  1  0  0  0
 19 20  1  0  0  0  0
 19 17  1  0  0  0  0
 20 21  1  6  0  0  0
 22 20  1  0  0  0  0
 22 24  1  0  0  0  0
 23 24  1  0  0  0  0
 25 23  1  0  0  0  0
 25 22  1  0  0  0  0
 26 37  1  6  0  0  0
 26 27  1  0  0  0  0
 27 29  1  0  0  0  0
 28 29  2  0  0  0  0
 29 30  1  0  0  0  0
 30 31  1  0  0  0  0
 32 35  1  0  0  0  0
 33 31  1  0  0  0  0
 33 32  2  0  0  0  0
 34 35  2  0  0  0  0
 35 36  1  0  0  0  0
 38 37  1  0  0  0  0
 38 42  1  0  0  0  0
 39 40  1  0  0  0  0
 40 42  2  0  0  0  0
 41 43  1  0  0  0  0
 41 39  2  0  0  0  0
 43 38  2  0  0  0  0
M  END
>  <MODEL>
1

>  <REMARK>
 VINA RESULT:      -5.3      0.000      0.000
  Name = 
  15 active torsions:
  status: ('A' for Active; 'I' for Inactive)
    1  A    between atoms: C_1  and  C_34
    2  A    between atoms: C_1  and  C_35
    3  A    between atoms: C_3  and  C_12
    4  A    between atoms: C_4  and  C_15
    5  A    between atoms: C_8  and  C_13
    6  A    between atoms: C_8  and  C_34
    7  A    between atoms: C_9  and  C_19
    8  A    between atoms: C_9  and  C_35
    9  A    between atoms: C_10  and  C_41
   10  A    between atoms: C_10  and  C_42
   11  A    between atoms: C_11  and  C_14
   12  A    between atoms: C_14  and  C_41
   13  A    between atoms: C_15  and  C_22
   14  A    between atoms: C_21  and  C_41
   15  A    between atoms: C_22  and  C_42
                            x       y       z     vdW  Elec       q    Type
                         _______ _______ _______ _____ _____    ______ ____

>  <TORSDO>
F 15

$$$$
=
 OpenBabel10262422443D

 43 47  0  0  1  0  0  0  0  0999 V2000
  191.7140  179.1630  143.9140 C   0  0  0  0  0  0  0  0  0  0  0  0
  189.7610  177.0150  139.4130 C   0  0  1  0  0  0  0  0  0  0  0  0
  189.6470  178.9260  142.6180 C   0  0  2  0  0  3  0  0  0  0  0  0
  192.3730  178.0450  143.1490 C   0  0  0  0  0  2  0  0  0  0  0  0
  192.3990  179.9560  144.5350 O   0  0  0  0  0  0  0  0  0  0  0  0
  190.1030  177.5750  142.0610 C   0  0  2  0  0  0  0  0  0  0  0  0
  190.2180  179.2460  143.9950 C   0  0  0  0  0  2  0  0  0  0  0  0
  191.6210  177.7310  141.8430 C   0  0  0  0  0  2  0  0  0  0  0  0
  189.0660  176.1710  140.3040 O   0  0  0  0  0  0  0  0  0  0  0  0
  189.2730  177.4960  140.7540 C   0  0  2  0  0  0  0  0  0  0  0  0
  187.6870  178.4020  140.8700 S   0  0  0  0  0  0  0  0  0  0  0  0
  188.1440  179.0600  142.5050 C   0  0  0  0  0  2  0  0  0  0  0  0
  191.2820  175.3540  138.3030 C   0  0  0  0  0  1  0  0  0  0  0  0
  191.2030  176.5570  139.2260 C   0  0  0  0  0  2  0  0  0  0  0  0
  188.9650  177.3300  138.1340 C   0  0  1  0  0  3  0  0  0  0  0  0
  189.7750  177.8050  137.0980 O   0  0  0  0  0  1  0  0  0  0  0  0
  188.1570  176.1170  137.6810 C   0  0  0  0  0  2  0  0  0  0  0  0
  186.0470  177.5000  137.4600 C   0  0  0  0  0  1  0  0  0  0  0  0
  186.9640  176.4800  136.7970 C   0  0  2  0  0  3  0  0  0  0  0  0
  186.2250  175.2310  136.2800 C   0  0  1  0  0  3  0  0  0  0  0  0
  186.7460  174.7920  135.0580 O   0  0  0  0  0  1  0  0  0  0  0  0
  186.1290  174.0600  137.2700 C   0  0  0  0  0  3  0  0  0  0  0  0
  184.8310  172.3750  137.0030 C   0  0  0  0  0  2  0  0  0  0  0  0
  186.2490  172.7120  136.5810 C   0  0  0  0  0  2  0  0  0  0  0  0
  184.7070  173.7260  137.6820 C   0  0  0  0  0  2  0  0  0  0  0  0
  189.7760  176.4310  143.0840 C   0  0  2  0  0  3  0  0  0  0  0  0
  190.6700  175.1800  143.0840 C   0  0  0  0  0  2  0  0  0  0  0  0
  192.4860  174.2420  144.2710 O   0  0  0  0  0  0  0  0  0  0  0  0
  191.6050  175.0890  144.2480 C   0  0  0  0  0  0  0  0  0  0  0  0
  191.4240  176.0240  145.4010 C   0  0  0  0  0  2  0  0  0  0  0  0
  191.7060  175.3340  146.7270 C   0  0  0  0  0  2  0  0  0  0  0  0
  193.1090  176.0330  148.5980 C   0  0  0  0  0  3  0  0  0  0  0  0
  192.1360  176.3300  147.7480 C   0  0  0  0  0  3  0  0  0  0  0  0
  194.5780  176.7170  150.3060 O   0  0  0  0  0  0  0  0  0  0  0  0
  193.5600  176.9850  149.6170 C   0  0  0  0  0  0  0  0  0  0  0  0
  192.8600  178.2060  149.8410 N   0  0  0  0  0  1  0  0  0  0  0  0
  188.2940  176.1270  143.3190 C   0  0  0  0  0  2  0  0  0  0  0  0
  187.8030  176.8100  144.5480 C   0  0  0  0  0  0  0  0  0  0  0  0
  186.8660  178.0570  146.8710 C   0  0  0  0  0  3  0  0  0  0  0  0
  186.0140  177.8890  145.7760 C   0  0  0  0  0  3  0  0  0  0  0  0
  188.1870  177.6000  146.8080 C   0  0  0  0  0  3  0  0  0  0  0  0
  186.4810  177.2640  144.6150 C   0  0  0  0  0  3  0  0  0  0  0  0
  188.6540  176.9750  145.6470 C   0  0  0  0  0  3  0  0  0  0  0  0
  1  7  1  0  0  0  0
  1  5  2  0  0  0  0
  2 14  1  6  0  0  0
  2  9  1  0  0  0  0
  2 10  1  0  0  0  0
  3 12  1  1  0  0  0
  3  7  1  0  0  0  0
  4  1  1  0  0  0  0
  6  3  1  0  0  0  0
  6 26  1  1  0  0  0
  8  6  1  0  0  0  0
  8  4  1  0  0  0  0
 10  9  1  1  0  0  0
 10 11  1  0  0  0  0
 10  6  1  0  0  0  0
 11 12  1  0  0  0  0
 13 14  1  0  0  0  0
 15 16  1  6  0  0  0
 15  2  1  0  0  0  0
 17 15  1  0  0  0  0
 19 18  1  1  0  0  0
 19 17  1  0  0  0  0
 20 21  1  6  0  0  0
 20 19  1  0  0  0  0
 20 22  1  0  0  0  0
 22 25  1  0  0  0  0
 23 25  1  0  0  0  0
 24 23  1  0  0  0  0
 24 22  1  0  0  0  0
 26 27  1  6  0  0  0
 26 37  1  0  0  0  0
 27 29  1  0  0  0  0
 29 28  2  0  0  0  0
 29 30  1  0  0  0  0
 30 31  1  0  0  0  0
 31 33  1  0  0  0  0
 32 35  1  0  0  0  0
 33 32  2  0  0  0  0
 35 36  1  0  0  0  0
 35 34  2  0  0  0  0
 37 38  1  0  0  0  0
 38 42  2  0  0  0  0
 38 43  1  0  0  0  0
 40 39  2  0  0  0  0
 41 39  1  0  0  0  0
 42 40  1  0  0  0  0
 43 41  2  0  0  0  0
M  END
>  <MODEL>
2

>  <REMARK>
 VINA RESULT:      -5.0      6.682      9.871
  Name = 
  15 active torsions:
  status: ('A' for Active; 'I' for Inactive)
    1  A    between atoms: C_1  and  C_34
    2  A    between atoms: C_1  and  C_35
    3  A    between atoms: C_3  and  C_12
    4  A    between atoms: C_4  and  C_15
    5  A    between atoms: C_8  and  C_13
    6  A    between atoms: C_8  and  C_34
    7  A    between atoms: C_9  and  C_19
    8  A    between atoms: C_9  and  C_35
    9  A    between atoms: C_10  and  C_41
   10  A    between atoms: C_10  and  C_42
   11  A    between atoms: C_11  and  C_14
   12  A    between atoms: C_14  and  C_41
   13  A    between atoms: C_15  and  C_22
   14  A    between atoms: C_21  and  C_41
   15  A    between atoms: C_22  and  C_42
                            x       y       z     vdW  Elec       q    Type
                         _______ _______ _______ _____ _____    ______ ____

>  <TORSDO>
F 15

$$$$
=
 OpenBabel10262422443D

 43 47  0  0  1  0  0  0  0  0999 V2000
  180.4880  175.5790  139.5830 C   0  0  0  0  0  0  0  0  0  0  0  0
  183.9100  178.6800  142.2970 C   0  0  1  0  0  0  0  0  0  0  0  0
  180.5730  177.3700  141.2540 C   0  0  2  0  0  3  0  0  0  0  0  0
  181.9130  175.8380  139.1700 C   0  0  0  0  0  2  0  0  0  0  0  0
  179.9640  174.5130  139.3100 O   0  0  0  0  0  0  0  0  0  0  0  0
  181.8670  177.9250  140.6540 C   0  0  2  0  0  0  0  0  0  0  0  0
  179.6820  176.6600  140.2410 C   0  0  0  0  0  2  0  0  0  0  0  0
  182.6640  176.6780  140.2170 C   0  0  0  0  0  2  0  0  0  0  0  0
  183.3560  179.7100  141.5090 O   0  0  0  0  0  0  0  0  0  0  0  0
  182.4650  178.6720  141.8730 C   0  0  2  0  0  0  0  0  0  0  0  0
  181.1790  179.2880  143.0210 S   0  0  0  0  0  0  0  0  0  0  0  0
  179.8790  178.4330  142.0770 C   0  0  0  0  0  2  0  0  0  0  0  0
  186.0680  178.7900  141.0190 C   0  0  0  0  0  1  0  0  0  0  0  0
  184.9540  177.8880  141.5200 C   0  0  0  0  0  2  0  0  0  0  0  0
  184.3060  179.1460  143.7090 C   0  0  1  0  0  3  0  0  0  0  0  0
  183.2410  179.7320  144.4010 O   0  0  0  0  0  1  0  0  0  0  0  0
  184.9120  177.9990  144.5130 C   0  0  0  0  0  2  0  0  0  0  0  0
  187.2660  177.0890  144.3010 C   0  0  0  0  0  1  0  0  0  0  0  0
  186.3900  178.2090  144.8470 C   0  0  2  0  0  3  0  0  0  0  0  0
  186.6100  178.4890  146.3460 C   0  0  1  0  0  3  0  0  0  0  0  0
  185.3970  178.5870  147.0360 O   0  0  0  0  0  1  0  0  0  0  0  0
  187.5590  177.5210  147.0690 C   0  0  0  0  0  3  0  0  0  0  0  0
  189.1160  178.1510  148.4010 C   0  0  0  0  0  2  0  0  0  0  0  0
  187.6470  177.8070  148.5580 C   0  0  0  0  0  2  0  0  0  0  0  0
  189.0260  177.8750  146.9120 C   0  0  0  0  0  2  0  0  0  0  0  0
  181.5410  178.8610  139.4380 C   0  0  2  0  0  3  0  0  0  0  0  0
  180.3670  178.4800  138.5230 C   0  0  0  0  0  2  0  0  0  0  0  0
  178.9310  180.2190  139.2270 O   0  0  0  0  0  0  0  0  0  0  0  0
  179.3830  179.5820  138.2880 C   0  0  0  0  0  0  0  0  0  0  0  0
  178.9310  179.8680  136.8920 C   0  0  0  0  0  2  0  0  0  0  0  0
  180.1100  180.0670  135.9530 C   0  0  0  0  0  2  0  0  0  0  0  0
  179.8880  182.3820  136.6950 C   0  0  0  0  0  3  0  0  0  0  0  0
  180.5260  181.4980  135.9400 C   0  0  0  0  0  3  0  0  0  0  0  0
  179.8200  184.5480  137.6150 O   0  0  0  0  0  0  0  0  0  0  0  0
  180.2660  183.7990  136.7080 C   0  0  0  0  0  0  0  0  0  0  0  0
  181.1280  184.3370  135.7090 N   0  0  0  0  0  1  0  0  0  0  0  0
  182.7390  179.4500  138.6880 C   0  0  0  0  0  2  0  0  0  0  0  0
  183.3040  178.4570  137.7330 C   0  0  0  0  0  0  0  0  0  0  0  0
  184.3560  176.5590  135.9660 C   0  0  0  0  0  3  0  0  0  0  0  0
  185.1500  177.0710  136.9960 C   0  0  0  0  0  3  0  0  0  0  0  0
  183.0340  176.9930  135.8190 C   0  0  0  0  0  3  0  0  0  0  0  0
  184.6250  178.0180  137.8800 C   0  0  0  0  0  3  0  0  0  0  0  0
  182.5080  177.9400  136.7040 C   0  0  0  0  0  3  0  0  0  0  0  0
  1  7  1  0  0  0  0
  2 14  1  6  0  0  0
  2 15  1  0  0  0  0
  3  7  1  6  0  0  0
  3 12  1  0  0  0  0
  4  1  1  0  0  0  0
  4  8  1  0  0  0  0
  5  1  2  0  0  0  0
  6 26  1  6  0  0  0
  6  3  1  0  0  0  0
  6 10  1  0  0  0  0
  8  6  1  0  0  0  0
  9  2  1  0  0  0  0
 10  9  1  6  0  0  0
 10  2  1  0  0  0  0
 10 11  1  0  0  0  0
 12 11  1  0  0  0  0
 13 14  1  0  0  0  0
 15 16  1  1  0  0  0
 15 17  1  0  0  0  0
 17 19  1  0  0  0  0
 19 18  1  1  0  0  0
 19 20  1  0  0  0  0
 20 21  1  1  0  0  0
 20 22  1  0  0  0  0
 22 24  1  0  0  0  0
 23 24  1  0  0  0  0
 25 22  1  0  0  0  0
 25 23  1  0  0  0  0
 26 27  1  6  0  0  0
 29 27  1  0  0  0  0
 29 28  2  0  0  0  0
 30 29  1  0  0  0  0
 31 30  1  0  0  0  0
 32 35  1  0  0  0  0
 33 31  1  0  0  0  0
 33 32  2  0  0  0  0
 35 34  2  0  0  0  0
 36 35  1  0  0  0  0
 37 26  1  0  0  0  0
 38 42  1  0  0  0  0
 38 37  1  0  0  0  0
 39 40  1  0  0  0  0
 40 42  2  0  0  0  0
 41 39  2  0  0  0  0
 41 43  1  0  0  0  0
 43 38  2  0  0  0  0
M  END
>  <MODEL>
3

>  <REMARK>
 VINA RESULT:      -4.8      3.330      8.088
  Name = 
  15 active torsions:
  status: ('A' for Active; 'I' for Inactive)
    1  A    between atoms: C_1  and  C_34
    2  A    between atoms: C_1  and  C_35
    3  A    between atoms: C_3  and  C_12
    4  A    between atoms: C_4  and  C_15
    5  A    between atoms: C_8  and  C_13
    6  A    between atoms: C_8  and  C_34
    7  A    between atoms: C_9  and  C_19
    8  A    between atoms: C_9  and  C_35
    9  A    between atoms: C_10  and  C_41
   10  A    between atoms: C_10  and  C_42
   11  A    between atoms: C_11  and  C_14
   12  A    between atoms: C_14  and  C_41
   13  A    between atoms: C_15  and  C_22
   14  A    between atoms: C_21  and  C_41
   15  A    between atoms: C_22  and  C_42
                            x       y       z     vdW  Elec       q    Type
                         _______ _______ _______ _____ _____    ______ ____

>  <TORSDO>
F 15

$$$$
=
 OpenBabel10262422443D

 43 47  0  0  1  0  0  0  0  0999 V2000
  191.6520  176.0810  137.6120 C   0  0  0  0  0  0  0  0  0  0  0  0
  186.3490  175.9180  136.8720 C   0  0  1  0  0  0  0  0  0  0  0  0
  189.7240  177.5000  137.0860 C   0  0  2  0  0  3  0  0  0  0  0  0
  190.7570  174.9750  138.1080 C   0  0  0  0  0  2  0  0  0  0  0  0
  192.8040  175.8330  137.3010 O   0  0  0  0  0  0  0  0  0  0  0  0
  188.7870  176.5970  137.8920 C   0  0  2  0  0  0  0  0  0  0  0  0
  191.1620  177.4990  137.5910 C   0  0  0  0  0  2  0  0  0  0  0  0
  189.3050  175.1670  137.6380 C   0  0  0  0  0  2  0  0  0  0  0  0
  186.3180  176.6590  138.0720 O   0  0  0  0  0  0  0  0  0  0  0  0
  187.4230  176.9120  137.2260 C   0  0  2  0  0  0  0  0  0  0  0  0
  187.3480  178.6090  136.5430 S   0  0  0  0  0  0  0  0  0  0  0  0
  189.1110  178.8720  136.9140 C   0  0  0  0  0  2  0  0  0  0  0  0
  186.9580  173.6910  135.8850 C   0  0  0  0  0  1  0  0  0  0  0  0
  186.5440  174.4310  137.1450 C   0  0  0  0  0  2  0  0  0  0  0  0
  185.2230  176.3000  135.8970 C   0  0  1  0  0  3  0  0  0  0  0  0
  184.9870  175.3130  134.9340 O   0  0  0  0  0  1  0  0  0  0  0  0
  183.9410  176.6430  136.6500 C   0  0  0  0  0  2  0  0  0  0  0  0
  181.7560  175.8790  135.6210 C   0  0  0  0  0  1  0  0  0  0  0  0
  182.8860  175.5370  136.5840 C   0  0  2  0  0  3  0  0  0  0  0  0
  182.3980  175.1190  137.9840 C   0  0  1  0  0  3  0  0  0  0  0  0
  183.1740  175.6960  138.9950 O   0  0  0  0  0  1  0  0  0  0  0  0
  180.9040  175.3480  138.2610 C   0  0  0  0  0  3  0  0  0  0  0  0
  179.8250  174.3910  139.8470 C   0  0  0  0  0  2  0  0  0  0  0  0
  180.6320  175.6690  139.7210 C   0  0  0  0  0  2  0  0  0  0  0  0
  180.1050  174.0650  138.3920 C   0  0  0  0  0  2  0  0  0  0  0  0
  188.8480  176.9760  139.4130 C   0  0  2  0  0  3  0  0  0  0  0  0
  188.5110  178.4210  139.8140 C   0  0  0  0  0  2  0  0  0  0  0  0
  186.1820  178.8170  139.7450 O   0  0  0  0  0  0  0  0  0  0  0  0
  187.1620  178.5910  140.4390 C   0  0  0  0  0  0  0  0  0  0  0  0
  187.0350  178.5160  141.9270 C   0  0  0  0  0  2  0  0  0  0  0  0
  185.6050  178.2190  142.3500 C   0  0  0  0  0  2  0  0  0  0  0  0
  186.0910  177.9180  144.7230 C   0  0  0  0  0  3  0  0  0  0  0  0
  185.4080  178.5620  143.7860 C   0  0  0  0  0  3  0  0  0  0  0  0
  186.9340  178.2450  146.8960 O   0  0  0  0  0  0  0  0  0  0  0  0
  185.9240  178.2250  146.1470 C   0  0  0  0  0  0  0  0  0  0  0  0
  184.6360  178.4980  146.6920 N   0  0  0  0  0  1  0  0  0  0  0  0
  189.9930  176.3640  140.2250 C   0  0  0  0  0  2  0  0  0  0  0  0
  189.9200  176.7960  141.6480 C   0  0  0  0  0  0  0  0  0  0  0  0
  189.8150  177.5790  144.3330 C   0  0  0  0  0  3  0  0  0  0  0  0
  189.0980  176.4590  143.9030 C   0  0  0  0  0  3  0  0  0  0  0  0
  190.5880  178.3070  143.4220 C   0  0  0  0  0  3  0  0  0  0  0  0
  189.1510  176.0660  142.5620 C   0  0  0  0  0  3  0  0  0  0  0  0
  190.6430  177.9140  142.0810 C   0  0  0  0  0  3  0  0  0  0  0  0
  1  4  1  0  0  0  0
  2 14  1  1  0  0  0
  2 10  1  0  0  0  0
  2  9  1  0  0  0  0
  3 12  1  1  0  0  0
  3  7  1  0  0  0  0
  3  6  1  0  0  0  0
  5  1  2  0  0  0  0
  6 26  1  1  0  0  0
  7  1  1  0  0  0  0
  8  6  1  0  0  0  0
  8  4  1  0  0  0  0
 10 11  1  6  0  0  0
 10  6  1  0  0  0  0
 10  9  1  0  0  0  0
 11 12  1  0  0  0  0
 13 14  1  0  0  0  0
 15 16  1  6  0  0  0
 15 17  1  0  0  0  0
 15  2  1  0  0  0  0
 19 18  1  6  0  0  0
 19 17  1  0  0  0  0
 19 20  1  0  0  0  0
 20 22  1  0  0  0  0
 20 21  1  1  0  0  0
 22 25  1  0  0  0  0
 22 24  1  0  0  0  0
 24 23  1  0  0  0  0
 25 23  1  0  0  0  0
 26 27  1  6  0  0  0
 26 37  1  0  0  0  0
 27 29  1  0  0  0  0
 28 29  2  0  0  0  0
 29 30  1  0  0  0  0
 30 31  1  0  0  0  0
 31 33  1  0  0  0  0
 32 35  1  0  0  0  0
 33 32  2  0  0  0  0
 35 36  1  0  0  0  0
 35 34  2  0  0  0  0
 37 38  1  0  0  0  0
 38 43  2  0  0  0  0
 38 42  1  0  0  0  0
 40 39  1  0  0  0  0
 41 39  2  0  0  0  0
 42 40  2  0  0  0  0
 43 41  1  0  0  0  0
M  END
>  <MODEL>
4

>  <REMARK>
 VINA RESULT:      -4.8      4.707      7.593
  Name = 
  15 active torsions:
  status: ('A' for Active; 'I' for Inactive)
    1  A    between atoms: C_1  and  C_34
    2  A    between atoms: C_1  and  C_35
    3  A    between atoms: C_3  and  C_12
    4  A    between atoms: C_4  and  C_15
    5  A    between atoms: C_8  and  C_13
    6  A    between atoms: C_8  and  C_34
    7  A    between atoms: C_9  and  C_19
    8  A    between atoms: C_9  and  C_35
    9  A    between atoms: C_10  and  C_41
   10  A    between atoms: C_10  and  C_42
   11  A    between atoms: C_11  and  C_14
   12  A    between atoms: C_14  and  C_41
   13  A    between atoms: C_15  and  C_22
   14  A    between atoms: C_21  and  C_41
   15  A    between atoms: C_22  and  C_42
                            x       y       z     vdW  Elec       q    Type
                         _______ _______ _______ _____ _____    ______ ____

>  <TORSDO>
F 15

$$$$
=
 OpenBabel10262422443D

 43 47  0  0  1  0  0  0  0  0999 V2000
  187.6170  179.0240  136.8120 C   0  0  0  0  0  0  0  0  0  0  0  0
  189.1580  177.0320  141.5390 C   0  0  1  0  0  0  0  0  0  0  0  0
  189.5950  178.2550  138.0390 C   0  0  2  0  0  3  0  0  0  0  0  0
  186.6930  178.3530  137.7940 C   0  0  0  0  0  2  0  0  0  0  0  0
  187.1910  179.9070  136.0880 O   0  0  0  0  0  0  0  0  0  0  0  0
  188.7560  177.2640  138.8510 C   0  0  2  0  0  0  0  0  0  0  0  0
  189.0300  178.5460  136.6530 C   0  0  0  0  0  2  0  0  0  0  0  0
  187.4210  177.9930  139.1010 C   0  0  0  0  0  2  0  0  0  0  0  0
  189.4150  175.8670  140.7860 O   0  0  0  0  0  0  0  0  0  0  0  0
  189.6390  177.0920  140.1130 C   0  0  2  0  0  0  0  0  0  0  0  0
  191.4200  177.3310  139.7660 S   0  0  0  0  0  0  0  0  0  0  0  0
  191.0520  177.8510  138.0610 C   0  0  0  0  0  2  0  0  0  0  0  0
  187.2880  178.6140  142.0910 C   0  0  0  0  0  1  0  0  0  0  0  0
  187.6750  177.1630  141.8670 C   0  0  0  0  0  2  0  0  0  0  0  0
  190.1440  177.2280  142.7040 C   0  0  1  0  0  3  0  0  0  0  0  0
  190.3320  178.5760  143.0290 O   0  0  0  0  0  1  0  0  0  0  0  0
  189.7080  176.4290  143.9290 C   0  0  0  0  0  2  0  0  0  0  0  0
  191.2940  176.6950  145.8850 C   0  0  0  0  0  1  0  0  0  0  0  0
  189.9850  177.1470  145.2500 C   0  0  2  0  0  3  0  0  0  0  0  0
  188.7800  177.0820  146.2070 C   0  0  1  0  0  3  0  0  0  0  0  0
  189.1830  177.1030  147.5460 O   0  0  0  0  0  1  0  0  0  0  0  0
  187.6820  178.1290  145.9630 C   0  0  0  0  0  3  0  0  0  0  0  0
  185.6460  177.8900  146.5900 C   0  0  0  0  0  2  0  0  0  0  0  0
  186.9030  178.4510  147.2270 C   0  0  0  0  0  2  0  0  0  0  0  0
  186.4260  177.5580  145.3320 C   0  0  0  0  0  2  0  0  0  0  0  0
  188.5530  175.9380  138.0380 C   0  0  2  0  0  3  0  0  0  0  0  0
  189.4100  175.7170  136.7820 C   0  0  0  0  0  2  0  0  0  0  0  0
  190.7550  174.2540  138.0600 O   0  0  0  0  0  0  0  0  0  0  0  0
  190.5670  174.7900  136.9780 C   0  0  0  0  0  0  0  0  0  0  0  0
  191.5130  174.5560  135.8440 C   0  0  0  0  0  2  0  0  0  0  0  0
  192.7280  175.4650  135.9350 C   0  0  0  0  0  2  0  0  0  0  0  0
  194.2520  174.4540  137.5520 C   0  0  0  0  0  3  0  0  0  0  0  0
  193.9420  174.6740  136.2810 C   0  0  0  0  0  3  0  0  0  0  0  0
  195.5380  173.2420  139.1080 O   0  0  0  0  0  0  0  0  0  0  0  0
  195.4380  173.6820  137.9330 C   0  0  0  0  0  0  0  0  0  0  0  0
  196.4800  173.4260  136.9940 N   0  0  0  0  0  1  0  0  0  0  0  0
  187.1120  175.4390  137.8950 C   0  0  0  0  0  2  0  0  0  0  0  0
  187.0260  174.3600  136.8710 C   0  0  0  0  0  0  0  0  0  0  0  0
  186.9050  172.3430  134.9350 C   0  0  0  0  0  3  0  0  0  0  0  0
  186.5480  173.6530  134.6030 C   0  0  0  0  0  3  0  0  0  0  0  0
  187.3260  172.0400  136.2350 C   0  0  0  0  0  3  0  0  0  0  0  0
  186.6100  174.6610  135.5700 C   0  0  0  0  0  3  0  0  0  0  0  0
  187.3890  173.0490  137.2010 C   0  0  0  0  0  3  0  0  0  0  0  0
  1  4  1  0  0  0  0
  2 14  1  1  0  0  0
  2 15  1  0  0  0  0
  3  7  1  6  0  0  0
  3 12  1  0  0  0  0
  3  6  1  0  0  0  0
  4  8  1  0  0  0  0
  5  1  2  0  0  0  0
  6 26  1  6  0  0  0
  6  8  1  0  0  0  0
  6 10  1  0  0  0  0
  7  1  1  0  0  0  0
  9  2  1  0  0  0  0
 10 11  1  6  0  0  0
 10  9  1  0  0  0  0
 10  2  1  0  0  0  0
 12 11  1  0  0  0  0
 14 13  1  0  0  0  0
 15 16  1  1  0  0  0
 15 17  1  0  0  0  0
 17 19  1  0  0  0  0
 19 18  1  1  0  0  0
 19 20  1  0  0  0  0
 20 21  1  1  0  0  0
 22 20  1  0  0  0  0
 22 24  1  0  0  0  0
 23 24  1  0  0  0  0
 25 22  1  0  0  0  0
 25 23  1  0  0  0  0
 26 27  1  6  0  0  0
 27 29  1  0  0  0  0
 29 28  2  0  0  0  0
 30 31  1  0  0  0  0
 30 29  1  0  0  0  0
 31 33  1  0  0  0  0
 32 35  1  0  0  0  0
 33 32  2  0  0  0  0
 35 34  2  0  0  0  0
 36 35  1  0  0  0  0
 37 26  1  0  0  0  0
 38 43  1  0  0  0  0
 38 37  1  0  0  0  0
 39 41  1  0  0  0  0
 40 39  2  0  0  0  0
 40 42  1  0  0  0  0
 41 43  2  0  0  0  0
 42 38  2  0  0  0  0
M  END
>  <MODEL>
5

>  <REMARK>
 VINA RESULT:      -4.6      6.778     11.216
  Name = 
  15 active torsions:
  status: ('A' for Active; 'I' for Inactive)
    1  A    between atoms: C_1  and  C_34
    2  A    between atoms: C_1  and  C_35
    3  A    between atoms: C_3  and  C_12
    4  A    between atoms: C_4  and  C_15
    5  A    between atoms: C_8  and  C_13
    6  A    between atoms: C_8  and  C_34
    7  A    between atoms: C_9  and  C_19
    8  A    between atoms: C_9  and  C_35
    9  A    between atoms: C_10  and  C_41
   10  A    between atoms: C_10  and  C_42
   11  A    between atoms: C_11  and  C_14
   12  A    between atoms: C_14  and  C_41
   13  A    between atoms: C_15  and  C_22
   14  A    between atoms: C_21  and  C_41
   15  A    between atoms: C_22  and  C_42
                            x       y       z     vdW  Elec       q    Type
                         _______ _______ _______ _____ _____    ______ ____

>  <TORSDO>
F 15

$$$$
=
 OpenBabel10262422443D

 43 47  0  0  1  0  0  0  0  0999 V2000
  190.6380  174.0830  135.2060 C   0  0  0  0  0  0  0  0  0  0  0  0
  185.5370  174.9590  136.5880 C   0  0  1  0  0  0  0  0  0  0  0  0
  188.8240  175.7170  134.9880 C   0  0  2  0  0  3  0  0  0  0  0  0
  189.9310  173.3870  136.3400 C   0  0  0  0  0  2  0  0  0  0  0  0
  191.5170  173.5020  134.5940 O   0  0  0  0  0  0  0  0  0  0  0  0
  188.2320  175.3020  136.3370 C   0  0  2  0  0  0  0  0  0  0  0  0
  190.3320  175.5180  134.8920 C   0  0  0  0  0  2  0  0  0  0  0  0
  188.4450  173.7760  136.4070 C   0  0  0  0  0  2  0  0  0  0  0  0
  186.0940  175.9780  137.3880 O   0  0  0  0  0  0  0  0  0  0  0  0
  186.7540  175.7350  136.1610 C   0  0  2  0  0  0  0  0  0  0  0  0
  186.5680  177.1600  135.0260 S   0  0  0  0  0  0  0  0  0  0  0  0
  188.3380  177.0980  134.6040 C   0  0  0  0  0  2  0  0  0  0  0  0
  185.2700  172.4780  136.3070 C   0  0  0  0  0  1  0  0  0  0  0  0
  185.6770  173.5940  137.2520 C   0  0  0  0  0  2  0  0  0  0  0  0
  184.1480  175.3170  136.0330 C   0  0  1  0  0  3  0  0  0  0  0  0
  183.8160  174.5780  134.8930 O   0  0  0  0  0  1  0  0  0  0  0  0
  183.0750  175.1690  137.1080 C   0  0  0  0  0  2  0  0  0  0  0  0
  183.2310  177.6840  137.3630 C   0  0  0  0  0  1  0  0  0  0  0  0
  182.3160  176.4670  137.3890 C   0  0  2  0  0  3  0  0  0  0  0  0
  181.4540  176.3690  138.6620 C   0  0  1  0  0  3  0  0  0  0  0  0
  182.1500  176.8150  139.7910 O   0  0  0  0  0  1  0  0  0  0  0  0
  180.0760  177.0440  138.5830 C   0  0  0  0  0  3  0  0  0  0  0  0
  179.6570  178.7610  137.3700 C   0  0  0  0  0  2  0  0  0  0  0  0
  179.6220  177.2600  137.1500 C   0  0  0  0  0  2  0  0  0  0  0  0
  180.1200  178.5460  138.7980 C   0  0  0  0  0  2  0  0  0  0  0  0
  188.9720  176.0470  137.5030 C   0  0  2  0  0  3  0  0  0  0  0  0
  189.4670  177.4800  137.2500 C   0  0  0  0  0  2  0  0  0  0  0  0
  189.0470  179.7090  137.9130 O   0  0  0  0  0  0  0  0  0  0  0  0
  188.7400  178.5310  138.0260 C   0  0  0  0  0  0  0  0  0  0  0  0
  187.6580  178.1190  138.9720 C   0  0  0  0  0  2  0  0  0  0  0  0
  187.8180  178.7880  140.3280 C   0  0  0  0  0  2  0  0  0  0  0  0
  187.4140  177.9650  142.5910 C   0  0  0  0  0  3  0  0  0  0  0  0
  187.9600  177.7620  141.3990 C   0  0  0  0  0  3  0  0  0  0  0  0
  188.3390  176.0220  143.5460 O   0  0  0  0  0  0  0  0  0  0  0  0
  187.5330  176.9800  143.6700 C   0  0  0  0  0  0  0  0  0  0  0  0
  186.7470  177.0900  144.8540 N   0  0  0  0  0  1  0  0  0  0  0  0
  189.9300  175.2070  138.3510 C   0  0  0  0  0  2  0  0  0  0  0  0
  191.0460  176.0440  138.8730 C   0  0  0  0  0  0  0  0  0  0  0  0
  193.1550  177.5850  139.8770 C   0  0  0  0  0  3  0  0  0  0  0  0
  191.9320  177.5480  140.5530 C   0  0  0  0  0  3  0  0  0  0  0  0
  193.3270  176.8490  138.6990 C   0  0  0  0  0  3  0  0  0  0  0  0
  190.8790  176.7770  140.0520 C   0  0  0  0  0  3  0  0  0  0  0  0
  192.2730  176.0770  138.1990 C   0  0  0  0  0  3  0  0  0  0  0  0
  1  4  1  0  0  0  0
  2 14  1  1  0  0  0
  2  9  1  0  0  0  0
  3 12  1  1  0  0  0
  3  6  1  0  0  0  0
  4  8  1  0  0  0  0
  5  1  2  0  0  0  0
  6  8  1  0  0  0  0
  6 26  1  1  0  0  0
  7  3  1  0  0  0  0
  7  1  1  0  0  0  0
 10 11  1  6  0  0  0
 10  6  1  0  0  0  0
 10  2  1  0  0  0  0
 10  9  1  0  0  0  0
 12 11  1  0  0  0  0
 13 14  1  0  0  0  0
 15 16  1  6  0  0  0
 15  2  1  0  0  0  0
 15 17  1  0  0  0  0
 17 19  1  0  0  0  0
 19 18  1  1  0  0  0
 19 20  1  0  0  0  0
 20 21  1  1  0  0  0
 22 20  1  0  0  0  0
 22 25  1  0  0  0  0
 23 25  1  0  0  0  0
 24 23  1  0  0  0  0
 24 22  1  0  0  0  0
 26 27  1  6  0  0  0
 26 37  1  0  0  0  0
 27 29  1  0  0  0  0
 28 29  2  0  0  0  0
 29 30  1  0  0  0  0
 30 31  1  0  0  0  0
 31 33  1  0  0  0  0
 32 35  1  0  0  0  0
 33 32  2  0  0  0  0
 34 35  2  0  0  0  0
 35 36  1  0  0  0  0
 37 38  1  0  0  0  0
 38 42  1  0  0  0  0
 39 40  1  0  0  0  0
 41 39  2  0  0  0  0
 42 40  2  0  0  0  0
 43 41  1  0  0  0  0
 43 38  2  0  0  0  0
M  END
>  <MODEL>
6

>  <REMARK>
 VINA RESULT:      -4.3      5.057      8.356
  Name = 
  15 active torsions:
  status: ('A' for Active; 'I' for Inactive)
    1  A    between atoms: C_1  and  C_34
    2  A    between atoms: C_1  and  C_35
    3  A    between atoms: C_3  and  C_12
    4  A    between atoms: C_4  and  C_15
    5  A    between atoms: C_8  and  C_13
    6  A    between atoms: C_8  and  C_34
    7  A    between atoms: C_9  and  C_19
    8  A    between atoms: C_9  and  C_35
    9  A    between atoms: C_10  and  C_41
   10  A    between atoms: C_10  and  C_42
   11  A    between atoms: C_11  and  C_14
   12  A    between atoms: C_14  and  C_41
   13  A    between atoms: C_15  and  C_22
   14  A    between atoms: C_21  and  C_41
   15  A    between atoms: C_22  and  C_42
                            x       y       z     vdW  Elec       q    Type
                         _______ _______ _______ _____ _____    ______ ____

>  <TORSDO>
F 15

$$$$
=
 OpenBabel10262422443D

 43 47  0  0  1  0  0  0  0  0999 V2000
  191.4000  175.1110  135.6280 C   0  0  0  0  0  0  0  0  0  0  0  0
  186.1470  174.8130  136.6310 C   0  0  1  0  0  0  0  0  0  0  0  0
  189.2680  176.2200  135.1430 C   0  0  2  0  0  3  0  0  0  0  0  0
  190.7960  174.3630  136.7870 C   0  0  0  0  0  2  0  0  0  0  0  0
  192.4380  174.7160  135.1280 O   0  0  0  0  0  0  0  0  0  0  0  0
  188.6900  175.7900  136.4940 C   0  0  2  0  0  0  0  0  0  0  0  0
  190.7830  176.3930  135.1510 C   0  0  0  0  0  2  0  0  0  0  0  0
  189.2590  174.3760  136.7320 C   0  0  0  0  0  2  0  0  0  0  0  0
  186.3770  176.0030  137.3520 O   0  0  0  0  0  0  0  0  0  0  0  0
  187.1700  175.8270  136.1930 C   0  0  2  0  0  0  0  0  0  0  0  0
  186.7350  177.0570  134.9100 S   0  0  0  0  0  0  0  0  0  0  0  0
  188.4960  177.3990  134.5940 C   0  0  0  0  0  2  0  0  0  0  0  0
  186.8740  172.4110  136.5330 C   0  0  0  0  0  1  0  0  0  0  0  0
  186.5600  173.5880  137.4390 C   0  0  0  0  0  2  0  0  0  0  0  0
  184.7600  174.7670  135.9670 C   0  0  1  0  0  3  0  0  0  0  0  0
  184.7220  173.9170  134.8570 O   0  0  0  0  0  1  0  0  0  0  0  0
  183.6820  174.3880  136.9790 C   0  0  0  0  0  2  0  0  0  0  0  0
  183.0630  176.8380  136.8120 C   0  0  0  0  0  1  0  0  0  0  0  0
  182.5640  175.4260  137.0900 C   0  0  2  0  0  3  0  0  0  0  0  0
  181.7830  175.2960  138.4120 C   0  0  1  0  0  3  0  0  0  0  0  0
  181.9520  176.4230  139.2230 O   0  0  0  0  0  1  0  0  0  0  0  0
  180.2910  174.9580  138.2690 C   0  0  0  0  0  3  0  0  0  0  0  0
  178.9710  174.6670  139.9330 C   0  0  0  0  0  2  0  0  0  0  0  0
  179.4130  175.8650  139.1140 C   0  0  0  0  0  2  0  0  0  0  0  0
  179.8560  173.7630  139.0960 C   0  0  0  0  0  2  0  0  0  0  0  0
  189.1350  176.7930  137.6160 C   0  0  2  0  0  3  0  0  0  0  0  0
  189.4020  176.2360  139.0230 C   0  0  0  0  0  2  0  0  0  0  0  0
  190.9060  176.6690  140.7930 O   0  0  0  0  0  0  0  0  0  0  0  0
  190.7420  176.5920  139.5850 C   0  0  0  0  0  0  0  0  0  0  0  0
  191.8680  176.8900  138.6480 C   0  0  0  0  0  2  0  0  0  0  0  0
  193.1920  176.3690  139.1830 C   0  0  0  0  0  2  0  0  0  0  0  0
  194.9650  174.9050  138.3620 C   0  0  0  0  0  3  0  0  0  0  0  0
  193.6810  175.2380  138.3450 C   0  0  0  0  0  3  0  0  0  0  0  0
  195.5760  173.9390  136.3040 O   0  0  0  0  0  0  0  0  0  0  0  0
  195.4840  173.8000  137.5510 C   0  0  0  0  0  0  0  0  0  0  0  0
  195.8830  172.5710  138.1540 N   0  0  0  0  0  1  0  0  0  0  0  0
  188.4530  178.1640  137.6170 C   0  0  0  0  0  2  0  0  0  0  0  0
  187.6130  178.3350  138.8350 C   0  0  0  0  0  0  0  0  0  0  0  0
  186.0390  178.6980  141.1200 C   0  0  0  0  0  3  0  0  0  0  0  0
  187.4310  178.6330  141.2320 C   0  0  0  0  0  3  0  0  0  0  0  0
  185.4320  178.5840  139.8640 C   0  0  0  0  0  3  0  0  0  0  0  0
  188.2180  178.4530  140.0910 C   0  0  0  0  0  3  0  0  0  0  0  0
  186.2190  178.4050  138.7220 C   0  0  0  0  0  3  0  0  0  0  0  0
  1  4  1  0  0  0  0
  2  9  1  0  0  0  0
  2 14  1  1  0  0  0
  3 12  1  1  0  0  0
  3  7  1  0  0  0  0
  3  6  1  0  0  0  0
  5  1  2  0  0  0  0
  6  8  1  0  0  0  0
  6 26  1  1  0  0  0
  7  1  1  0  0  0  0
  8  4  1  0  0  0  0
 10 11  1  6  0  0  0
 10  6  1  0  0  0  0
 10  2  1  0  0  0  0
 10  9  1  0  0  0  0
 12 11  1  0  0  0  0
 13 14  1  0  0  0  0
 15 16  1  6  0  0  0
 15  2  1  0  0  0  0
 15 17  1  0  0  0  0
 17 19  1  0  0  0  0
 19 18  1  1  0  0  0
 19 20  1  0  0  0  0
 20 21  1  6  0  0  0
 22 20  1  0  0  0  0
 22 25  1  0  0  0  0
 22 24  1  0  0  0  0
 24 23  1  0  0  0  0
 25 23  1  0  0  0  0
 26 37  1  1  0  0  0
 26 27  1  0  0  0  0
 27 29  1  0  0  0  0
 29 28  2  0  0  0  0
 30 31  1  0  0  0  0
 30 29  1  0  0  0  0
 33 32  2  0  0  0  0
 33 31  1  0  0  0  0
 34 35  2  0  0  0  0
 35 36  1  0  0  0  0
 35 32  1  0  0  0  0
 37 38  1  0  0  0  0
 38 42  1  0  0  0  0
 39 40  1  0  0  0  0
 41 39  2  0  0  0  0
 42 40  2  0  0  0  0
 43 38  2  0  0  0  0
 43 41  1  0  0  0  0
M  END
>  <MODEL>
7

>  <REMARK>
 VINA RESULT:      -3.5      6.139      8.977
  Name = 
  15 active torsions:
  status: ('A' for Active; 'I' for Inactive)
    1  A    between atoms: C_1  and  C_34
    2  A    between atoms: C_1  and  C_35
    3  A    between atoms: C_3  and  C_12
    4  A    between atoms: C_4  and  C_15
    5  A    between atoms: C_8  and  C_13
    6  A    between atoms: C_8  and  C_34
    7  A    between atoms: C_9  and  C_19
    8  A    between atoms: C_9  and  C_35
    9  A    between atoms: C_10  and  C_41
   10  A    between atoms: C_10  and  C_42
   11  A    between atoms: C_11  and  C_14
   12  A    between atoms: C_14  and  C_41
   13  A    between atoms: C_15  and  C_22
   14  A    between atoms: C_21  and  C_41
   15  A    between atoms: C_22  and  C_42
                            x       y       z     vdW  Elec       q    Type
                         _______ _______ _______ _____ _____    ______ ____

>  <TORSDO>
F 15

$$$$
=
 OpenBabel10262422443D

 43 47  0  0  1  0  0  0  0  0999 V2000
  193.8210  176.3480  135.2910 C   0  0  0  0  0  0  0  0  0  0  0  0
  189.0830  177.2140  137.6340 C   0  0  1  0  0  0  0  0  0  0  0  0
  192.7550  176.5550  137.4880 C   0  0  2  0  0  3  0  0  0  0  0  0
  192.4890  176.1520  134.6150 C   0  0  0  0  0  2  0  0  0  0  0  0
  194.7890  176.6850  134.6320 O   0  0  0  0  0  0  0  0  0  0  0  0
  191.4320  176.0110  136.9430 C   0  0  2  0  0  0  0  0  0  0  0  0
  193.9830  176.0360  136.7490 C   0  0  0  0  0  2  0  0  0  0  0  0
  191.3250  176.5920  135.5190 C   0  0  0  0  0  2  0  0  0  0  0  0
  189.2190  175.8710  138.0450 O   0  0  0  0  0  0  0  0  0  0  0  0
  190.4240  176.6080  137.9570 C   0  0  2  0  0  0  0  0  0  0  0  0
  191.1570  176.8620  139.6150 S   0  0  0  0  0  0  0  0  0  0  0  0
  192.8060  176.4030  138.9920 C   0  0  0  0  0  2  0  0  0  0  0  0
  187.5010  176.2900  135.9170 C   0  0  0  0  0  1  0  0  0  0  0  0
  188.5960  177.3050  136.1930 C   0  0  0  0  0  2  0  0  0  0  0  0
  188.3550  178.0910  138.6660 C   0  0  1  0  0  3  0  0  0  0  0  0
  187.1430  178.5960  138.1840 O   0  0  0  0  0  1  0  0  0  0  0  0
  188.1470  177.3350  139.9760 C   0  0  0  0  0  2  0  0  0  0  0  0
  188.8230  179.4160  141.2520 C   0  0  0  0  0  1  0  0  0  0  0  0
  187.8440  178.2520  141.1630 C   0  0  2  0  0  3  0  0  0  0  0  0
  187.6990  177.4650  142.4790 C   0  0  1  0  0  3  0  0  0  0  0  0
  188.8820  176.7980  142.8140 O   0  0  0  0  0  1  0  0  0  0  0  0
  187.1830  178.2720  143.6800 C   0  0  0  0  0  3  0  0  0  0  0  0
  186.4240  177.3820  145.4770 C   0  0  0  0  0  2  0  0  0  0  0  0
  187.7950  177.8090  144.9900 C   0  0  0  0  0  2  0  0  0  0  0  0
  185.8120  177.8340  144.1640 C   0  0  0  0  0  2  0  0  0  0  0  0
  191.4580  174.4420  136.9310 C   0  0  2  0  0  3  0  0  0  0  0  0
  190.1170  173.6930  136.9720 C   0  0  0  0  0  2  0  0  0  0  0  0
  189.8740  173.8040  134.6240 O   0  0  0  0  0  0  0  0  0  0  0  0
  189.6590  173.1710  135.6470 C   0  0  0  0  0  0  0  0  0  0  0  0
  188.9010  171.8830  135.5950 C   0  0  0  0  0  2  0  0  0  0  0  0
  187.7220  171.9690  134.6400 C   0  0  0  0  0  2  0  0  0  0  0  0
  185.3470  172.3580  135.0550 C   0  0  0  0  0  3  0  0  0  0  0  0
  186.6030  172.7300  135.2640 C   0  0  0  0  0  3  0  0  0  0  0  0
  183.7700  174.1050  135.0740 O   0  0  0  0  0  0  0  0  0  0  0  0
  184.2200  173.0810  135.6500 C   0  0  0  0  0  0  0  0  0  0  0  0
  183.6300  172.6430  136.8710 N   0  0  0  0  0  1  0  0  0  0  0  0
  192.5620  173.7700  137.7530 C   0  0  0  0  0  2  0  0  0  0  0  0
  193.5390  173.0830  136.8630 C   0  0  0  0  0  0  0  0  0  0  0  0
  195.3870  171.8290  135.1770 C   0  0  0  0  0  3  0  0  0  0  0  0
  194.1180  172.1650  134.6970 C   0  0  0  0  0  3  0  0  0  0  0  0
  195.7350  172.1220  136.5000 C   0  0  0  0  0  3  0  0  0  0  0  0
  193.1950  172.7930  135.5380 C   0  0  0  0  0  3  0  0  0  0  0  0
  194.8120  172.7510  137.3420 C   0  0  0  0  0  3  0  0  0  0  0  0
  1  7  1  0  0  0  0
  2 14  1  6  0  0  0
  2 10  1  0  0  0  0
  2  9  1  0  0  0  0
  2 15  1  0  0  0  0
  3  7  1  6  0  0  0
  3 12  1  0  0  0  0
  4  1  1  0  0  0  0
  4  8  1  0  0  0  0
  5  1  2  0  0  0  0
  6 26  1  6  0  0  0
  6  3  1  0  0  0  0
  6 10  1  0  0  0  0
  8  6  1  0  0  0  0
 10  9  1  1  0  0  0
 10 11  1  0  0  0  0
 12 11  1  0  0  0  0
 13 14  1  0  0  0  0
 15 16  1  6  0  0  0
 15 17  1  0  0  0  0
 17 19  1  0  0  0  0
 19 18  1  1  0  0  0
 19 20  1  0  0  0  0
 20 21  1  1  0  0  0
 20 22  1  0  0  0  0
 22 25  1  0  0  0  0
 22 24  1  0  0  0  0
 24 23  1  0  0  0  0
 25 23  1  0  0  0  0
 26 27  1  1  0  0  0
 26 37  1  0  0  0  0
 28 29  2  0  0  0  0
 29 27  1  0  0  0  0
 30 29  1  0  0  0  0
 31 33  1  0  0  0  0
 31 30  1  0  0  0  0
 32 33  2  0  0  0  0
 32 35  1  0  0  0  0
 34 35  2  0  0  0  0
 35 36  1  0  0  0  0
 38 43  1  0  0  0  0
 38 37  1  0  0  0  0
 39 41  1  0  0  0  0
 40 39  2  0  0  0  0
 40 42  1  0  0  0  0
 41 43  2  0  0  0  0
 42 38  2  0  0  0  0
M  END
>  <MODEL>
8

>  <REMARK>
 VINA RESULT:      -3.2      7.222     12.075
  Name = 
  15 active torsions:
  status: ('A' for Active; 'I' for Inactive)
    1  A    between atoms: C_1  and  C_34
    2  A    between atoms: C_1  and  C_35
    3  A    between atoms: C_3  and  C_12
    4  A    between atoms: C_4  and  C_15
    5  A    between atoms: C_8  and  C_13
    6  A    between atoms: C_8  and  C_34
    7  A    between atoms: C_9  and  C_19
    8  A    between atoms: C_9  and  C_35
    9  A    between atoms: C_10  and  C_41
   10  A    between atoms: C_10  and  C_42
   11  A    between atoms: C_11  and  C_14
   12  A    between atoms: C_14  and  C_41
   13  A    between atoms: C_15  and  C_22
   14  A    between atoms: C_21  and  C_41
   15  A    between atoms: C_22  and  C_42
                            x       y       z     vdW  Elec       q    Type
                         _______ _______ _______ _____ _____    ______ ____

>  <TORSDO>
F 15

$$$$
=
 OpenBabel10262422443D

 43 47  0  0  1  0  0  0  0  0999 V2000
  193.6490  176.2720  135.6020 C   0  0  0  0  0  0  0  0  0  0  0  0
  188.4700  177.0110  136.7560 C   0  0  1  0  0  0  0  0  0  0  0  0
  192.1070  176.5830  137.4830 C   0  0  2  0  0  3  0  0  0  0  0  0
  192.5130  175.9370  134.6710 C   0  0  0  0  0  2  0  0  0  0  0  0
  194.7240  176.6190  135.1450 O   0  0  0  0  0  0  0  0  0  0  0  0
  190.9670  175.9120  136.7120 C   0  0  2  0  0  0  0  0  0  0  0  0
  193.4920  176.0880  137.0830 C   0  0  0  0  0  2  0  0  0  0  0  0
  191.1560  176.3710  135.2520 C   0  0  0  0  0  2  0  0  0  0  0  0
  188.5710  175.7170  137.3080 O   0  0  0  0  0  0  0  0  0  0  0  0
  189.7300  176.5210  137.4200 C   0  0  2  0  0  0  0  0  0  0  0  0
  190.0590  176.9530  139.1680 S   0  0  0  0  0  0  0  0  0  0  0  0
  191.8250  176.5540  138.9690 C   0  0  0  0  0  2  0  0  0  0  0  0
  188.7600  178.2560  134.5950 C   0  0  0  0  0  1  0  0  0  0  0  0
  188.3170  176.9560  135.2400 C   0  0  0  0  0  2  0  0  0  0  0  0
  187.4880  177.9180  137.5170 C   0  0  1  0  0  3  0  0  0  0  0  0
  187.4020  179.2010  136.9670 O   0  0  0  0  0  1  0  0  0  0  0  0
  186.1080  177.2720  137.6100 C   0  0  0  0  0  2  0  0  0  0  0  0
  185.4440  178.6130  139.6540 C   0  0  0  0  0  1  0  0  0  0  0  0
  185.0560  178.1820  138.2450 C   0  0  2  0  0  3  0  0  0  0  0  0
  183.6400  177.5810  138.1520 C   0  0  1  0  0  3  0  0  0  0  0  0
  183.3490  176.7740  139.2570 O   0  0  0  0  0  1  0  0  0  0  0  0
  182.5060  178.5910  137.9150 C   0  0  0  0  0  3  0  0  0  0  0  0
  180.5020  178.0320  137.3970 C   0  0  0  0  0  2  0  0  0  0  0  0
  181.2530  178.2420  138.6980 C   0  0  0  0  0  2  0  0  0  0  0  0
  181.7570  178.3700  136.6140 C   0  0  0  0  0  2  0  0  0  0  0  0
  191.0670  174.3530  136.8500 C   0  0  2  0  0  3  0  0  0  0  0  0
  189.7770  173.5640  137.1310 C   0  0  0  0  0  2  0  0  0  0  0  0
  189.1870  173.5020  134.8440 O   0  0  0  0  0  0  0  0  0  0  0  0
  189.1660  172.9290  135.9230 C   0  0  0  0  0  0  0  0  0  0  0  0
  188.4950  171.6000  136.0600 C   0  0  0  0  0  2  0  0  0  0  0  0
  187.0700  171.6370  135.5320 C   0  0  0  0  0  2  0  0  0  0  0  0
  185.1020  173.0360  135.8910 C   0  0  0  0  0  3  0  0  0  0  0  0
  186.2270  172.5300  136.3770 C   0  0  0  0  0  3  0  0  0  0  0  0
  184.4000  173.9630  137.9380 O   0  0  0  0  0  0  0  0  0  0  0  0
  184.2470  173.9200  136.6900 C   0  0  0  0  0  0  0  0  0  0  0  0
  183.2460  174.7260  136.0740 N   0  0  0  0  0  1  0  0  0  0  0  0
  192.2930  173.8090  137.5900 C   0  0  0  0  0  2  0  0  0  0  0  0
  193.0770  172.8950  136.7120 C   0  0  0  0  0  0  0  0  0  0  0  0
  194.5620  171.2130  135.0410 C   0  0  0  0  0  3  0  0  0  0  0  0
  193.2430  171.5390  134.7120 C   0  0  0  0  0  3  0  0  0  0  0  0
  195.1410  171.7300  136.2050 C   0  0  0  0  0  3  0  0  0  0  0  0
  192.5010  172.3810  135.5460 C   0  0  0  0  0  3  0  0  0  0  0  0
  194.3990  172.5720  137.0390 C   0  0  0  0  0  3  0  0  0  0  0  0
  1  7  1  0  0  0  0
  2 14  1  6  0  0  0
  2  9  1  0  0  0  0
  2 10  1  0  0  0  0
  2 15  1  0  0  0  0
  3  7  1  1  0  0  0
  3 12  1  0  0  0  0
  4  8  1  0  0  0  0
  4  1  1  0  0  0  0
  5  1  2  0  0  0  0
  6 26  1  1  0  0  0
  6 10  1  0  0  0  0
  6  3  1  0  0  0  0
  8  6  1  0  0  0  0
 10  9  1  1  0  0  0
 10 11  1  0  0  0  0
 12 11  1  0  0  0  0
 13 14  1  0  0  0  0
 15 16  1  6  0  0  0
 15 17  1  0  0  0  0
 17 19  1  0  0  0  0
 19 18  1  1  0  0  0
 20 19  1  0  0  0  0
 20 21  1  1  0  0  0
 22 20  1  0  0  0  0
 22 24  1  0  0  0  0
 23 24  1  0  0  0  0
 25 23  1  0  0  0  0
 25 22  1  0  0  0  0
 26 27  1  1  0  0  0
 26 37  1  0  0  0  0
 28 29  2  0  0  0  0
 29 30  1  0  0  0  0
 29 27  1  0  0  0  0
 31 30  1  0  0  0  0
 31 33  1  0  0  0  0
 32 33  2  0  0  0  0
 32 35  1  0  0  0  0
 35 34  2  0  0  0  0
 36 35  1  0  0  0  0
 38 43  1  0  0  0  0
 38 37  1  0  0  0  0
 39 41  1  0  0  0  0
 40 39  2  0  0  0  0
 40 42  1  0  0  0  0
 41 43  2  0  0  0  0
 42 38  2  0  0  0  0
M  END
>  <MODEL>
9

>  <REMARK>
 VINA RESULT:      -3.1      6.685     11.257
  Name = 
  15 active torsions:
  status: ('A' for Active; 'I' for Inactive)
    1  A    between atoms: C_1  and  C_34
    2  A    between atoms: C_1  and  C_35
    3  A    between atoms: C_3  and  C_12
    4  A    between atoms: C_4  and  C_15
    5  A    between atoms: C_8  and  C_13
    6  A    between atoms: C_8  and  C_34
    7  A    between atoms: C_9  and  C_19
    8  A    between atoms: C_9  and  C_35
    9  A    between atoms: C_10  and  C_41
   10  A    between atoms: C_10  and  C_42
   11  A    between atoms: C_11  and  C_14
   12  A    between atoms: C_14  and  C_41
   13  A    between atoms: C_15  and  C_22
   14  A    between atoms: C_21  and  C_41
   15  A    between atoms: C_22  and  C_42
                            x       y       z     vdW  Elec       q    Type
                         _______ _______ _______ _____ _____    ______ ____

>  <TORSDO>
F 15

$$$$
