=
 OpenBabel10262423363D

 34 38  0  0  1  0  0  0  0  0999 V2000
  182.1020  177.2820  139.1440 C   0  0  1  0  0  3  0  0  0  0  0  0
  181.4190  178.6520  142.5690 C   0  0  0  0  0  3  0  0  0  0  0  0
  180.0800  179.1090  140.6240 C   0  0  0  0  0  2  0  0  0  0  0  0
  180.8740  175.8780  140.3360 O   0  0  0  0  0  0  0  0  0  0  0  0
  179.6180  175.9410  139.7140 C   0  0  0  0  0  2  0  0  0  0  0  0
  179.6250  178.3280  139.5500 O   0  0  0  0  0  0  0  0  0  0  0  0
  181.7790  175.9210  139.3680 O   0  0  0  0  0  0  0  0  0  0  0  0
  178.9310  177.2450  140.1030 C   0  0  0  0  0  2  0  0  0  0  0  0
  182.5680  178.1470  143.3740 C   0  0  0  0  0  2  0  0  0  0  0  0
  183.8070  178.9260  143.0760 C   0  0  0  0  0  0  0  0  0  0  0  0
  184.3610  178.8890  141.8610 C   0  0  0  0  0  3  0  0  0  0  0  0
  181.3620  178.5970  141.2370 C   0  0  0  0  0  0  0  0  0  0  0  0
  183.7810  178.2130  140.6840 C   0  0  0  0  0  3  0  0  0  0  0  0
  182.4770  178.0490  140.3940 C   0  0  0  0  0  0  0  0  0  0  0  0
  184.1860  176.4530  137.9070 C   0  0  1  0  0  3  0  0  0  0  0  0
  183.2640  175.8020  135.0840 C   0  0  0  0  0  2  0  0  0  0  0  0
  184.6950  172.7380  137.9690 C   0  0  0  0  0  2  0  0  0  0  0  0
  182.1930  177.6150  136.6430 C   0  0  1  0  0  3  0  0  0  0  0  0
  183.0260  177.4750  137.9340 C   0  0  1  0  0  3  0  0  0  0  0  0
  183.9500  172.7490  135.5120 C   0  0  2  0  0  3  0  0  0  0  0  0
  185.0820  174.1110  137.4390 C   0  0  2  0  0  3  0  0  0  0  0  0
  183.7300  171.4070  135.1970 O   0  0  0  0  0  1  0  0  0  0  0  0
  183.8310  175.0110  137.4650 C   0  0  2  0  0  3  0  0  0  0  0  0
  181.5610  178.9970  136.5590 C   0  0  0  0  0  1  0  0  0  0  0  0
  183.3140  178.1030  134.5980 O   0  0  0  0  0  0  0  0  0  0  0  0
  185.1060  172.8850  136.5190 C   0  0  1  0  0  3  0  0  0  0  0  0
  182.6360  173.4680  135.8250 C   0  0  2  0  0  3  0  0  0  0  0  0
  182.8810  174.9020  136.2570 C   0  0  2  0  0  3  0  0  0  0  0  0
  181.7850  172.7300  136.8510 C   0  0  0  0  0  1  0  0  0  0  0  0
  182.9340  177.2410  135.3760 C   0  0  0  0  0  0  0  0  0  0  0  0
  185.4040  177.0320  137.1960 C   0  0  0  0  0  1  0  0  0  0  0  0
  184.4670  179.6670  144.1650 C   0  0  0  0  0  0  0  0  0  0  0  0
  184.1640  179.3730  145.4900 O   0  0  0  0  0  1  0  0  0  0  0  0
  185.3060  180.5720  143.9110 O   0  0  0  0  0  0  0  0  0  0  0  0
  1  7  1  1  0  0  0
  1 14  1  0  0  0  0
  2  9  1  0  0  0  0
  3 12  1  0  0  0  0
  5  8  1  0  0  0  0
  5  4  1  0  0  0  0
  6  8  1  0  0  0  0
  6  3  1  0  0  0  0
  7  4  1  0  0  0  0
 10  9  1  0  0  0  0
 10 32  1  0  0  0  0
 11 10  2  0  0  0  0
 12  2  2  0  0  0  0
 13 11  1  0  0  0  0
 14 13  2  0  0  0  0
 14 12  1  0  0  0  0
 15 31  1  6  0  0  0
 15 19  1  0  0  0  0
 16 30  1  0  0  0  0
 16 28  1  0  0  0  0
 18 24  1  6  0  0  0
 18 19  1  0  0  0  0
 19  1  1  1  0  0  0
 20 22  1  1  0  0  0
 20 27  1  0  0  0  0
 20 26  1  0  0  0  0
 21 23  1  0  0  0  0
 21 17  1  1  0  0  0
 23 15  1  0  0  0  0
 25 30  2  0  0  0  0
 26 21  1  0  0  0  0
 26 17  1  0  0  0  0
 27 28  1  0  0  0  0
 27 29  1  0  0  0  0
 28 23  1  0  0  0  0
 30 18  1  0  0  0  0
 32 33  1  0  0  0  0
 34 32  2  0  0  0  0
M  END
>  <MODEL>
1

>  <REMARK>
 VINA RESULT:      -5.3      0.000      0.000
  Name = 
  2 active torsions:
  status: ('A' for Active; 'I' for Inactive)
    1  A    between atoms: C_1  and  C_9
    2  A    between atoms: C_3  and  C_25
                            x       y       z     vdW  Elec       q    Type
                         _______ _______ _______ _____ _____    ______ ____

>  <TORSDO>
F 2

$$$$
=
 OpenBabel10262423363D

 34 38  0  0  1  0  0  0  0  0999 V2000
  182.5280  176.1990  137.9300 C   0  0  1  0  0  3  0  0  0  0  0  0
  185.7800  175.6860  136.1300 C   0  0  0  0  0  3  0  0  0  0  0  0
  184.4930  173.9290  137.1540 C   0  0  0  0  0  2  0  0  0  0  0  0
  182.2040  175.9200  135.7580 O   0  0  0  0  0  0  0  0  0  0  0  0
  181.5980  174.6570  135.6830 C   0  0  0  0  0  2  0  0  0  0  0  0
  183.1210  173.6420  137.2230 O   0  0  0  0  0  0  0  0  0  0  0  0
  181.6990  176.5200  136.8280 O   0  0  0  0  0  0  0  0  0  0  0  0
  182.6530  173.5800  135.9040 C   0  0  0  0  0  2  0  0  0  0  0  0
  186.1940  177.0720  135.7710 C   0  0  0  0  0  2  0  0  0  0  0  0
  186.7240  177.7930  136.9680 C   0  0  0  0  0  0  0  0  0  0  0  0
  185.9300  178.0650  138.0080 C   0  0  0  0  0  3  0  0  0  0  0  0
  184.7890  175.4000  136.9780 C   0  0  0  0  0  0  0  0  0  0  0  0
  184.5360  177.6030  138.1560 C   0  0  0  0  0  3  0  0  0  0  0  0
  184.0020  176.4560  137.6990 C   0  0  0  0  0  0  0  0  0  0  0  0
  182.3200  178.1850  139.5340 C   0  0  1  0  0  3  0  0  0  0  0  0
  179.3370  178.6220  139.9210 C   0  0  0  0  0  2  0  0  0  0  0  0
  182.0030  181.5350  137.8800 C   0  0  0  0  0  2  0  0  0  0  0  0
  180.4690  176.3210  139.3860 C   0  0  1  0  0  3  0  0  0  0  0  0
  181.9570  176.7060  139.2610 C   0  0  1  0  0  3  0  0  0  0  0  0
  179.5290  181.4680  138.5640 C   0  0  2  0  0  3  0  0  0  0  0  0
  181.9580  180.6780  139.1360 C   0  0  2  0  0  3  0  0  0  0  0  0
  178.9310  182.5070  137.8500 O   0  0  0  0  0  1  0  0  0  0  0  0
  181.5310  179.2520  138.7360 C   0  0  2  0  0  3  0  0  0  0  0  0
  180.3230  174.8450  139.7250 C   0  0  0  0  0  1  0  0  0  0  0  0
  179.3220  176.8080  141.4170 O   0  0  0  0  0  0  0  0  0  0  0  0
  180.9730  181.8380  138.9480 C   0  0  1  0  0  3  0  0  0  0  0  0
  179.2900  180.1180  137.8830 C   0  0  2  0  0  3  0  0  0  0  0  0
  180.0170  178.9990  138.6070 C   0  0  2  0  0  3  0  0  0  0  0  0
  179.6460  180.1280  136.4020 C   0  0  0  0  0  1  0  0  0  0  0  0
  179.6680  177.2090  140.3160 C   0  0  0  0  0  0  0  0  0  0  0  0
  182.3850  178.4600  141.0320 C   0  0  0  0  0  1  0  0  0  0  0  0
  188.1130  178.2820  136.9520 C   0  0  0  0  0  0  0  0  0  0  0  0
  188.4180  179.5280  137.4890 O   0  0  0  0  0  1  0  0  0  0  0  0
  189.0350  177.5850  136.4520 O   0  0  0  0  0  0  0  0  0  0  0  0
  1  7  1  6  0  0  0
  2 12  2  0  0  0  0
  3  6  1  0  0  0  0
  4  7  1  0  0  0  0
  5  4  1  0  0  0  0
  5  8  1  0  0  0  0
  8  6  1  0  0  0  0
  9  2  1  0  0  0  0
  9 10  1  0  0  0  0
 10 11  2  0  0  0  0
 11 13  1  0  0  0  0
 12  3  1  0  0  0  0
 12 14  1  0  0  0  0
 14  1  1  0  0  0  0
 14 13  2  0  0  0  0
 15 31  1  1  0  0  0
 16 30  1  0  0  0  0
 17 26  1  0  0  0  0
 18 24  1  1  0  0  0
 18 30  1  0  0  0  0
 19  1  1  6  0  0  0
 19 18  1  0  0  0  0
 19 15  1  0  0  0  0
 20 22  1  6  0  0  0
 20 26  1  0  0  0  0
 21 17  1  6  0  0  0
 23 21  1  0  0  0  0
 23 15  1  0  0  0  0
 26 21  1  0  0  0  0
 27 20  1  0  0  0  0
 27 28  1  0  0  0  0
 28 23  1  0  0  0  0
 28 16  1  0  0  0  0
 29 27  1  0  0  0  0
 30 25  2  0  0  0  0
 32 10  1  0  0  0  0
 32 33  1  0  0  0  0
 34 32  2  0  0  0  0
M  END
>  <MODEL>
2

>  <REMARK>
 VINA RESULT:      -5.1      2.507      6.844
  Name = 
  2 active torsions:
  status: ('A' for Active; 'I' for Inactive)
    1  A    between atoms: C_1  and  C_9
    2  A    between atoms: C_3  and  C_25
                            x       y       z     vdW  Elec       q    Type
                         _______ _______ _______ _____ _____    ______ ____

>  <TORSDO>
F 2

$$$$
=
 OpenBabel10262423363D

 34 38  0  0  1  0  0  0  0  0999 V2000
  187.7420  175.3890  136.8260 C   0  0  1  0  0  3  0  0  0  0  0  0
  191.2160  176.7520  136.4390 C   0  0  0  0  0  3  0  0  0  0  0  0
  189.4230  177.1220  134.8790 C   0  0  0  0  0  2  0  0  0  0  0  0
  187.9610  177.3260  137.8750 O   0  0  0  0  0  0  0  0  0  0  0  0
  187.1890  178.2010  137.0980 C   0  0  0  0  0  2  0  0  0  0  0  0
  188.0530  177.3950  135.0180 O   0  0  0  0  0  0  0  0  0  0  0  0
  187.3020  176.1750  137.9180 O   0  0  0  0  0  0  0  0  0  0  0  0
  187.9470  178.5390  135.8190 C   0  0  0  0  0  2  0  0  0  0  0  0
  191.9420  176.1730  137.6050 C   0  0  0  0  0  2  0  0  0  0  0  0
  192.2520  174.7300  137.3710 C   0  0  0  0  0  0  0  0  0  0  0  0
  191.2710  173.8300  137.2570 C   0  0  0  0  0  3  0  0  0  0  0  0
  190.0020  176.3590  136.0470 C   0  0  0  0  0  0  0  0  0  0  0  0
  189.8290  174.1470  137.2210 C   0  0  0  0  0  3  0  0  0  0  0  0
  189.2460  175.2510  136.7200 C   0  0  0  0  0  0  0  0  0  0  0  0
  185.6630  174.0810  137.5530 C   0  0  1  0  0  3  0  0  0  0  0  0
  184.1570  173.4380  134.9930 C   0  0  0  0  0  2  0  0  0  0  0  0
  182.6020  176.1640  138.1390 C   0  0  0  0  0  2  0  0  0  0  0  0
  186.7510  173.7500  135.1810 C   0  0  1  0  0  3  0  0  0  0  0  0
  186.9350  174.0920  136.6730 C   0  0  1  0  0  3  0  0  0  0  0  0
  181.7160  175.2110  135.9260 C   0  0  2  0  0  3  0  0  0  0  0  0
  183.2570  174.7980  138.0010 C   0  0  2  0  0  3  0  0  0  0  0  0
  180.6070  176.0000  135.6130 O   0  0  0  0  0  1  0  0  0  0  0  0
  184.4700  174.9360  137.0600 C   0  0  2  0  0  3  0  0  0  0  0  0
  188.0380  173.1840  134.5970 C   0  0  0  0  0  1  0  0  0  0  0  0
  185.6890  171.6990  134.5940 O   0  0  0  0  0  0  0  0  0  0  0  0
  181.8480  175.0450  137.4510 C   0  0  1  0  0  3  0  0  0  0  0  0
  182.9520  175.6560  135.1420 C   0  0  2  0  0  3  0  0  0  0  0  0
  184.1790  174.8590  135.5480 C   0  0  2  0  0  3  0  0  0  0  0  0
  183.2170  177.1520  135.2480 C   0  0  0  0  0  1  0  0  0  0  0  0
  185.5490  172.8780  134.8820 C   0  0  0  0  0  0  0  0  0  0  0  0
  185.2820  172.6550  137.9370 C   0  0  0  0  0  1  0  0  0  0  0  0
  193.6580  174.2930  137.3580 C   0  0  0  0  0  0  0  0  0  0  0  0
  194.6700  175.1920  137.6750 O   0  0  0  0  0  1  0  0  0  0  0  0
  193.9610  173.1070  137.0570 O   0  0  0  0  0  0  0  0  0  0  0  0
  1 14  1  1  0  0  0
  1  7  1  0  0  0  0
  2  9  1  0  0  0  0
  3  6  1  0  0  0  0
  3 12  1  0  0  0  0
  4  7  1  0  0  0  0
  5  4  1  0  0  0  0
  6  8  1  0  0  0  0
  8  5  1  0  0  0  0
 10  9  1  0  0  0  0
 11 10  2  0  0  0  0
 12  2  2  0  0  0  0
 12 14  1  0  0  0  0
 13 11  1  0  0  0  0
 14 13  2  0  0  0  0
 15 31  1  6  0  0  0
 16 28  1  0  0  0  0
 18 24  1  1  0  0  0
 18 19  1  0  0  0  0
 19  1  1  6  0  0  0
 19 15  1  0  0  0  0
 20 22  1  1  0  0  0
 20 26  1  0  0  0  0
 21 17  1  1  0  0  0
 23 15  1  0  0  0  0
 23 21  1  0  0  0  0
 25 30  2  0  0  0  0
 26 21  1  0  0  0  0
 26 17  1  0  0  0  0
 27 29  1  0  0  0  0
 27 28  1  0  0  0  0
 27 20  1  0  0  0  0
 28 23  1  0  0  0  0
 30 16  1  0  0  0  0
 30 18  1  0  0  0  0
 32 10  1  0  0  0  0
 32 33  1  0  0  0  0
 34 32  2  0  0  0  0
M  END
>  <MODEL>
3

>  <REMARK>
 VINA RESULT:      -4.8      4.668      7.907
  Name = 
  2 active torsions:
  status: ('A' for Active; 'I' for Inactive)
    1  A    between atoms: C_1  and  C_9
    2  A    between atoms: C_3  and  C_25
                            x       y       z     vdW  Elec       q    Type
                         _______ _______ _______ _____ _____    ______ ____

>  <TORSDO>
F 2

$$$$
=
 OpenBabel10262423363D

 34 38  0  0  1  0  0  0  0  0999 V2000
  181.4390  177.3650  138.0750 C   0  0  1  0  0  3  0  0  0  0  0  0
  181.2270  180.9880  139.0270 C   0  0  0  0  0  3  0  0  0  0  0  0
  180.7260  179.1570  140.5040 C   0  0  0  0  0  2  0  0  0  0  0  0
  183.3950  178.1210  138.7850 O   0  0  0  0  0  0  0  0  0  0  0  0
  183.5590  177.4780  140.0200 C   0  0  0  0  0  2  0  0  0  0  0  0
  181.3170  177.9050  140.7370 O   0  0  0  0  0  0  0  0  0  0  0  0
  182.8450  177.2340  137.9660 O   0  0  0  0  0  0  0  0  0  0  0  0
  182.6600  178.1430  141.0550 C   0  0  0  0  0  2  0  0  0  0  0  0
  181.5480  181.6950  137.7550 C   0  0  0  0  0  2  0  0  0  0  0  0
  180.3850  181.6530  136.8180 C   0  0  0  0  0  0  0  0  0  0  0  0
  179.9530  180.4910  136.3180 C   0  0  0  0  0  3  0  0  0  0  0  0
  180.9660  179.6810  139.1080 C   0  0  0  0  0  0  0  0  0  0  0  0
  180.4590  179.1600  136.7050 C   0  0  0  0  0  3  0  0  0  0  0  0
  180.9290  178.7810  137.9080 C   0  0  0  0  0  0  0  0  0  0  0  0
  181.4100  175.8860  135.9840 C   0  0  1  0  0  3  0  0  0  0  0  0
  181.2290  173.0270  137.0000 C   0  0  0  0  0  2  0  0  0  0  0  0
  184.7700  174.6550  134.8650 C   0  0  0  0  0  2  0  0  0  0  0  0
  180.2730  175.1320  138.2330 C   0  0  1  0  0  3  0  0  0  0  0  0
  180.6850  176.2820  137.2920 C   0  0  1  0  0  3  0  0  0  0  0  0
  184.0690  172.3650  135.7870 C   0  0  2  0  0  3  0  0  0  0  0  0
  183.2530  174.6260  134.7510 C   0  0  2  0  0  3  0  0  0  0  0  0
  185.2430  171.6100  135.8060 O   0  0  0  0  0  1  0  0  0  0  0  0
  182.6580  174.9800  136.1280 C   0  0  2  0  0  3  0  0  0  0  0  0
  179.0830  175.5390  139.0890 C   0  0  0  0  0  1  0  0  0  0  0  0
  178.9310  173.3630  137.3680 O   0  0  0  0  0  0  0  0  0  0  0  0
  184.0720  173.3390  134.5960 C   0  0  1  0  0  3  0  0  0  0  0  0
  183.7490  172.9270  137.1740 C   0  0  2  0  0  3  0  0  0  0  0  0
  182.5240  173.8230  137.1370 C   0  0  2  0  0  3  0  0  0  0  0  0
  184.9300  173.6480  137.8100 C   0  0  0  0  0  1  0  0  0  0  0  0
  180.0580  173.8020  137.5400 C   0  0  0  0  0  0  0  0  0  0  0  0
  180.4140  175.4000  134.9370 C   0  0  0  0  0  1  0  0  0  0  0  0
  179.7740  182.9180  136.3770 C   0  0  0  0  0  0  0  0  0  0  0  0
  179.8710  183.3110  135.0460 O   0  0  0  0  0  0  0  0  0  0  0  0
  179.1640  183.6570  137.1940 O   0  0  0  0  0  1  0  0  0  0  0  0
  1 14  1  6  0  0  0
  2 12  2  0  0  0  0
  3  6  1  0  0  0  0
  4  5  1  0  0  0  0
  5  8  1  0  0  0  0
  6  8  1  0  0  0  0
  7  1  1  0  0  0  0
  7  4  1  0  0  0  0
  9  2  1  0  0  0  0
 10  9  1  0  0  0  0
 11 13  1  0  0  0  0
 11 10  2  0  0  0  0
 12  3  1  0  0  0  0
 13 14  2  0  0  0  0
 14 12  1  0  0  0  0
 15 31  1  6  0  0  0
 15 23  1  0  0  0  0
 15 19  1  0  0  0  0
 16 28  1  0  0  0  0
 16 30  1  0  0  0  0
 18 24  1  6  0  0  0
 19  1  1  1  0  0  0
 19 18  1  0  0  0  0
 20 22  1  1  0  0  0
 20 27  1  0  0  0  0
 21 17  1  1  0  0  0
 21 23  1  0  0  0  0
 23 28  1  0  0  0  0
 25 30  2  0  0  0  0
 26 21  1  0  0  0  0
 26 17  1  0  0  0  0
 26 20  1  0  0  0  0
 27 29  1  0  0  0  0
 28 27  1  0  0  0  0
 30 18  1  0  0  0  0
 32 10  1  0  0  0  0
 32 34  1  0  0  0  0
 33 32  2  0  0  0  0
M  END
>  <MODEL>
4

>  <REMARK>
 VINA RESULT:      -4.7      2.459      4.955
  Name = 
  2 active torsions:
  status: ('A' for Active; 'I' for Inactive)
    1  A    between atoms: C_1  and  C_9
    2  A    between atoms: C_3  and  C_25
                            x       y       z     vdW  Elec       q    Type
                         _______ _______ _______ _____ _____    ______ ____

>  <TORSDO>
F 2

$$$$
=
 OpenBabel10262423363D

 34 38  0  0  1  0  0  0  0  0999 V2000
  184.4800  176.0450  136.9530 C   0  0  1  0  0  3  0  0  0  0  0  0
  187.6160  174.6060  135.4810 C   0  0  0  0  0  3  0  0  0  0  0  0
  186.4390  176.5070  134.5940 C   0  0  0  0  0  2  0  0  0  0  0  0
  186.2800  176.9120  137.9050 O   0  0  0  0  0  0  0  0  0  0  0  0
  186.2870  178.2340  137.4350 C   0  0  0  0  0  2  0  0  0  0  0  0
  185.8050  177.6170  135.1750 O   0  0  0  0  0  0  0  0  0  0  0  0
  185.0120  176.6010  138.1420 O   0  0  0  0  0  0  0  0  0  0  0  0
  186.7570  178.2480  135.9850 C   0  0  0  0  0  2  0  0  0  0  0  0
  187.8810  173.4150  136.3380 C   0  0  0  0  0  2  0  0  0  0  0  0
  186.9510  172.2980  135.9930 C   0  0  0  0  0  0  0  0  0  0  0  0
  185.6350  172.4190  136.1900 C   0  0  0  0  0  3  0  0  0  0  0  0
  186.4740  175.2970  135.4980 C   0  0  0  0  0  0  0  0  0  0  0  0
  184.9530  173.6520  136.6300 C   0  0  0  0  0  3  0  0  0  0  0  0
  185.3060  174.9220  136.3630 C   0  0  0  0  0  0  0  0  0  0  0  0
  182.4280  175.9880  138.4850 C   0  0  1  0  0  3  0  0  0  0  0  0
  180.4100  177.8840  137.2320 C   0  0  0  0  0  2  0  0  0  0  0  0
  182.3660  178.6200  141.1550 C   0  0  0  0  0  2  0  0  0  0  0  0
  182.2280  176.5300  135.9190 C   0  0  1  0  0  3  0  0  0  0  0  0
  182.9690  175.7890  137.0510 C   0  0  1  0  0  3  0  0  0  0  0  0
  180.5630  179.7870  139.7490 C   0  0  2  0  0  3  0  0  0  0  0  0
  181.6700  177.5030  140.3920 C   0  0  2  0  0  3  0  0  0  0  0  0
  180.4380  181.0590  140.3100 O   0  0  0  0  0  1  0  0  0  0  0  0
  182.2580  177.4500  138.9680 C   0  0  2  0  0  3  0  0  0  0  0  0
  182.4080  175.8040  134.5940 C   0  0  0  0  0  1  0  0  0  0  0  0
  179.8800  176.2030  135.6760 O   0  0  0  0  0  0  0  0  0  0  0  0
  180.8910  178.7470  140.8360 C   0  0  1  0  0  3  0  0  0  0  0  0
  181.4410  179.8170  138.4960 C   0  0  2  0  0  3  0  0  0  0  0  0
  181.6530  178.4220  137.9370 C   0  0  2  0  0  3  0  0  0  0  0  0
  182.7720  180.5220  138.7190 C   0  0  0  0  0  1  0  0  0  0  0  0
  180.7750  176.8350  136.2180 C   0  0  0  0  0  0  0  0  0  0  0  0
  181.2030  175.1130  138.7290 C   0  0  0  0  0  1  0  0  0  0  0  0
  187.5110  171.0220  135.5170 C   0  0  0  0  0  0  0  0  0  0  0  0
  186.6690  169.9460  135.2560 O   0  0  0  0  0  0  0  0  0  0  0  0
  188.7520  170.8870  135.3450 O   0  0  0  0  0  1  0  0  0  0  0  0
  1 14  1  1  0  0  0
  1  7  1  0  0  0  0
  2 12  2  0  0  0  0
  2  9  1  0  0  0  0
  3  6  1  0  0  0  0
  3 12  1  0  0  0  0
  4  7  1  0  0  0  0
  5  4  1  0  0  0  0
  6  8  1  0  0  0  0
  8  5  1  0  0  0  0
 10 11  2  0  0  0  0
 10  9  1  0  0  0  0
 11 13  1  0  0  0  0
 12 14  1  0  0  0  0
 14 13  2  0  0  0  0
 15 31  1  6  0  0  0
 15 23  1  0  0  0  0
 16 28  1  0  0  0  0
 18 24  1  6  0  0  0
 18 30  1  0  0  0  0
 18 19  1  0  0  0  0
 19  1  1  1  0  0  0
 19 15  1  0  0  0  0
 20 22  1  1  0  0  0
 20 26  1  0  0  0  0
 21 26  1  0  0  0  0
 21 17  1  1  0  0  0
 23 21  1  0  0  0  0
 25 30  2  0  0  0  0
 26 17  1  0  0  0  0
 27 29  1  0  0  0  0
 27 20  1  0  0  0  0
 28 27  1  0  0  0  0
 28 23  1  0  0  0  0
 30 16  1  0  0  0  0
 32 10  1  0  0  0  0
 33 32  2  0  0  0  0
 34 32  1  0  0  0  0
M  END
>  <MODEL>
5

>  <REMARK>
 VINA RESULT:      -4.6      2.583      7.653
  Name = 
  2 active torsions:
  status: ('A' for Active; 'I' for Inactive)
    1  A    between atoms: C_1  and  C_9
    2  A    between atoms: C_3  and  C_25
                            x       y       z     vdW  Elec       q    Type
                         _______ _______ _______ _____ _____    ______ ____

>  <TORSDO>
F 2

$$$$
=
 OpenBabel10262423363D

 34 38  0  0  1  0  0  0  0  0999 V2000
  181.7040  178.1610  140.0610 C   0  0  1  0  0  3  0  0  0  0  0  0
  182.1890  178.8610  143.7150 C   0  0  0  0  0  3  0  0  0  0  0  0
  180.6020  179.9940  142.3070 C   0  0  0  0  0  2  0  0  0  0  0  0
  180.4650  176.8110  141.3040 O   0  0  0  0  0  0  0  0  0  0  0  0
  179.1590  177.2640  141.0660 C   0  0  0  0  0  2  0  0  0  0  0  0
  179.7320  179.5750  141.2870 O   0  0  0  0  0  0  0  0  0  0  0  0
  181.1070  176.8790  140.1450 O   0  0  0  0  0  0  0  0  0  0  0  0
  178.9310  178.5630  141.8290 C   0  0  0  0  0  2  0  0  0  0  0  0
  183.3240  177.9690  144.0860 C   0  0  0  0  0  2  0  0  0  0  0  0
  184.6180  178.5250  143.5890 C   0  0  0  0  0  0  0  0  0  0  0  0
  184.8530  178.6420  142.2790 C   0  0  0  0  0  3  0  0  0  0  0  0
  181.8170  179.1100  142.4570 C   0  0  0  0  0  0  0  0  0  0  0  0
  183.8680  178.3710  141.2130 C   0  0  0  0  0  3  0  0  0  0  0  0
  182.5360  178.5440  141.2670 C   0  0  0  0  0  0  0  0  0  0  0  0
  183.4380  177.3830  138.3440 C   0  0  1  0  0  3  0  0  0  0  0  0
  181.9000  176.9460  135.7590 C   0  0  0  0  0  2  0  0  0  0  0  0
  183.8270  173.6650  138.0560 C   0  0  0  0  0  2  0  0  0  0  0  0
  181.2550  178.6650  137.6280 C   0  0  1  0  0  3  0  0  0  0  0  0
  182.3460  178.4210  138.6910 C   0  0  1  0  0  3  0  0  0  0  0  0
  182.5630  173.8590  135.8300 C   0  0  2  0  0  3  0  0  0  0  0  0
  184.1340  175.0630  137.5420 C   0  0  2  0  0  3  0  0  0  0  0  0
  182.2360  172.5450  135.4870 O   0  0  0  0  0  1  0  0  0  0  0  0
  182.9490  175.9810  137.9010 C   0  0  2  0  0  3  0  0  0  0  0  0
  180.6660  180.0600  137.7740 C   0  0  0  0  0  1  0  0  0  0  0  0
  181.9170  179.2730  135.4210 O   0  0  0  0  0  0  0  0  0  0  0  0
  183.9160  173.9040  136.5630 C   0  0  1  0  0  3  0  0  0  0  0  0
  181.3740  174.5770  136.4710 C   0  0  2  0  0  3  0  0  0  0  0  0
  181.7540  175.9730  136.9270 C   0  0  2  0  0  3  0  0  0  0  0  0
  180.7450  173.7850  137.6100 C   0  0  0  0  0  1  0  0  0  0  0  0
  181.6880  178.3660  136.2070 C   0  0  0  0  0  0  0  0  0  0  0  0
  184.4890  177.9890  137.4200 C   0  0  0  0  0  1  0  0  0  0  0  0
  185.6740  178.8590  144.5600 C   0  0  0  0  0  0  0  0  0  0  0  0
  186.9640  178.3720  144.3810 O   0  0  0  0  0  0  0  0  0  0  0  0
  185.4220  179.5830  145.5600 O   0  0  0  0  0  1  0  0  0  0  0  0
  1  7  1  1  0  0  0
  1 14  1  0  0  0  0
  2  9  1  0  0  0  0
  3 12  1  0  0  0  0
  5  4  1  0  0  0  0
  5  8  1  0  0  0  0
  6  8  1  0  0  0  0
  6  3  1  0  0  0  0
  7  4  1  0  0  0  0
 10  9  1  0  0  0  0
 10 32  1  0  0  0  0
 11 10  2  0  0  0  0
 12  2  2  0  0  0  0
 13 14  2  0  0  0  0
 13 11  1  0  0  0  0
 14 12  1  0  0  0  0
 15 31  1  6  0  0  0
 15 19  1  0  0  0  0
 16 30  1  0  0  0  0
 16 28  1  0  0  0  0
 18 24  1  6  0  0  0
 18 19  1  0  0  0  0
 19  1  1  1  0  0  0
 20 22  1  1  0  0  0
 20 27  1  0  0  0  0
 20 26  1  0  0  0  0
 21 23  1  0  0  0  0
 21 17  1  1  0  0  0
 23 15  1  0  0  0  0
 25 30  2  0  0  0  0
 26 21  1  0  0  0  0
 26 17  1  0  0  0  0
 27 28  1  0  0  0  0
 27 29  1  0  0  0  0
 28 23  1  0  0  0  0
 30 18  1  0  0  0  0
 32 34  1  0  0  0  0
 33 32  2  0  0  0  0
M  END
>  <MODEL>
6

>  <REMARK>
 VINA RESULT:      -4.6      1.366      1.654
  Name = 
  2 active torsions:
  status: ('A' for Active; 'I' for Inactive)
    1  A    between atoms: C_1  and  C_9
    2  A    between atoms: C_3  and  C_25
                            x       y       z     vdW  Elec       q    Type
                         _______ _______ _______ _____ _____    ______ ____

>  <TORSDO>
F 2

$$$$
=
 OpenBabel10262423363D

 34 38  0  0  1  0  0  0  0  0999 V2000
  182.8040  177.3050  138.0130 C   0  0  1  0  0  3  0  0  0  0  0  0
  185.7710  178.9460  139.6200 C   0  0  0  0  0  3  0  0  0  0  0  0
  183.5500  179.8700  139.5890 C   0  0  0  0  0  2  0  0  0  0  0  0
  183.0760  176.6030  140.0950 O   0  0  0  0  0  0  0  0  0  0  0  0
  181.9910  177.1780  140.7720 C   0  0  0  0  0  2  0  0  0  0  0  0
  182.2670  179.3240  139.7530 O   0  0  0  0  0  0  0  0  0  0  0  0
  182.6230  176.2220  138.9070 O   0  0  0  0  0  0  0  0  0  0  0  0
  182.2630  178.6620  140.9870 C   0  0  0  0  0  2  0  0  0  0  0  0
  186.8940  178.0230  139.2870 C   0  0  0  0  0  2  0  0  0  0  0  0
  187.3070  178.1860  137.8600 C   0  0  0  0  0  0  0  0  0  0  0  0
  186.4690  177.8760  136.8670 C   0  0  0  0  0  3  0  0  0  0  0  0
  184.5600  178.8770  139.0630 C   0  0  0  0  0  0  0  0  0  0  0  0
  185.0580  177.4760  137.0400 C   0  0  0  0  0  3  0  0  0  0  0  0
  184.2060  177.8780  138.0000 C   0  0  0  0  0  0  0  0  0  0  0  0
  182.4600  175.6170  136.1180 C   0  0  1  0  0  3  0  0  0  0  0  0
  179.4500  175.3660  135.7750 C   0  0  0  0  0  2  0  0  0  0  0  0
  182.0410  172.0570  137.2210 C   0  0  0  0  0  2  0  0  0  0  0  0
  180.7000  177.5030  136.6330 C   0  0  1  0  0  3  0  0  0  0  0  0
  182.1720  177.0440  136.6390 C   0  0  1  0  0  3  0  0  0  0  0  0
  179.5540  172.3330  136.6480 C   0  0  2  0  0  3  0  0  0  0  0  0
  181.9980  173.1080  136.1210 C   0  0  2  0  0  3  0  0  0  0  0  0
  178.9310  171.2150  137.2060 O   0  0  0  0  0  1  0  0  0  0  0  0
  181.6480  174.4650  136.7620 C   0  0  2  0  0  3  0  0  0  0  0  0
  180.6100  179.0200  136.5420 C   0  0  0  0  0  1  0  0  0  0  0  0
  179.4720  177.3990  134.5940 O   0  0  0  0  0  0  0  0  0  0  0  0
  180.9680  171.9740  136.1560 C   0  0  1  0  0  3  0  0  0  0  0  0
  179.3960  173.5620  137.5460 C   0  0  2  0  0  3  0  0  0  0  0  0
  180.1500  174.7540  136.9860 C   0  0  2  0  0  3  0  0  0  0  0  0
  179.7960  173.2970  138.9910 C   0  0  0  0  0  1  0  0  0  0  0  0
  179.8320  176.8110  135.6020 C   0  0  0  0  0  0  0  0  0  0  0  0
  182.4670  175.5870  134.5940 C   0  0  0  0  0  1  0  0  0  0  0  0
  188.6850  178.6070  137.5570 C   0  0  0  0  0  0  0  0  0  0  0  0
  189.6470  177.6580  137.2290 O   0  0  0  0  0  0  0  0  0  0  0  0
  189.0100  179.8240  137.5950 O   0  0  0  0  0  1  0  0  0  0  0  0
  1 14  1  6  0  0  0
  1  7  1  0  0  0  0
  3  6  1  0  0  0  0
  4  5  1  0  0  0  0
  5  8  1  0  0  0  0
  6  8  1  0  0  0  0
  7  4  1  0  0  0  0
  9  2  1  0  0  0  0
 10  9  1  0  0  0  0
 11 13  1  0  0  0  0
 11 10  2  0  0  0  0
 12  3  1  0  0  0  0
 12  2  2  0  0  0  0
 13 14  2  0  0  0  0
 14 12  1  0  0  0  0
 15 31  1  6  0  0  0
 15 19  1  0  0  0  0
 15 23  1  0  0  0  0
 16 28  1  0  0  0  0
 18 24  1  6  0  0  0
 18 19  1  0  0  0  0
 19  1  1  1  0  0  0
 20 22  1  1  0  0  0
 20 27  1  0  0  0  0
 21 26  1  0  0  0  0
 21 23  1  0  0  0  0
 21 17  1  1  0  0  0
 23 28  1  0  0  0  0
 25 30  2  0  0  0  0
 26 20  1  0  0  0  0
 26 17  1  0  0  0  0
 27 29  1  0  0  0  0
 28 27  1  0  0  0  0
 30 16  1  0  0  0  0
 30 18  1  0  0  0  0
 32 34  1  0  0  0  0
 32 10  1  0  0  0  0
 33 32  2  0  0  0  0
M  END
>  <MODEL>
7

>  <REMARK>
 VINA RESULT:      -4.6      2.696      4.323
  Name = 
  2 active torsions:
  status: ('A' for Active; 'I' for Inactive)
    1  A    between atoms: C_1  and  C_9
    2  A    between atoms: C_3  and  C_25
                            x       y       z     vdW  Elec       q    Type
                         _______ _______ _______ _____ _____    ______ ____

>  <TORSDO>
F 2

$$$$
=
 OpenBabel10262423363D

 34 38  0  0  1  0  0  0  0  0999 V2000
  184.6050  175.4140  137.0740 C   0  0  1  0  0  3  0  0  0  0  0  0
  181.1270  174.3770  138.0250 C   0  0  0  0  0  3  0  0  0  0  0  0
  182.0220  174.2710  135.7950 C   0  0  0  0  0  2  0  0  0  0  0  0
  184.5560  173.3050  137.7450 O   0  0  0  0  0  0  0  0  0  0  0  0
  184.7890  172.5870  136.5630 C   0  0  0  0  0  2  0  0  0  0  0  0
  183.2650  173.8940  135.2620 O   0  0  0  0  0  0  0  0  0  0  0  0
  185.3380  174.3750  137.6980 O   0  0  0  0  0  0  0  0  0  0  0  0
  183.5230  172.5940  135.7140 C   0  0  0  0  0  2  0  0  0  0  0  0
  181.0540  174.7160  139.4740 C   0  0  0  0  0  2  0  0  0  0  0  0
  180.8960  176.1900  139.6660 C   0  0  0  0  0  0  0  0  0  0  0  0
  181.8630  177.0340  139.2930 C   0  0  0  0  0  3  0  0  0  0  0  0
  182.1090  174.7790  137.2150 C   0  0  0  0  0  0  0  0  0  0  0  0
  183.0910  176.6510  138.5680 C   0  0  0  0  0  3  0  0  0  0  0  0
  183.2360  175.6590  137.6720 C   0  0  0  0  0  0  0  0  0  0  0  0
  186.8580  176.5670  137.4710 C   0  0  1  0  0  3  0  0  0  0  0  0
  187.9580  177.1990  134.7090 C   0  0  0  0  0  2  0  0  0  0  0  0
  189.8290  174.2800  137.4900 C   0  0  0  0  0  2  0  0  0  0  0  0
  185.4160  177.0420  135.3230 C   0  0  1  0  0  3  0  0  0  0  0  0
  185.4600  176.6630  136.8180 C   0  0  1  0  0  3  0  0  0  0  0  0
  190.3970  175.2490  135.1810 C   0  0  2  0  0  3  0  0  0  0  0  0
  189.2520  175.6880  137.4940 C   0  0  2  0  0  3  0  0  0  0  0  0
  191.3830  174.4030  134.6690 O   0  0  0  0  0  1  0  0  0  0  0  0
  187.8940  175.6560  136.7660 C   0  0  2  0  0  3  0  0  0  0  0  0
  184.0910  177.7050  134.9760 C   0  0  0  0  0  1  0  0  0  0  0  0
  186.4990  179.0410  134.6110 O   0  0  0  0  0  0  0  0  0  0  0  0
  190.5310  175.3720  136.7090 C   0  0  1  0  0  3  0  0  0  0  0  0
  189.0210  174.9070  134.6060 C   0  0  2  0  0  3  0  0  0  0  0  0
  187.9340  175.7640  135.2300 C   0  0  2  0  0  3  0  0  0  0  0  0
  188.6790  173.4270  134.7220 C   0  0  0  0  0  1  0  0  0  0  0  0
  186.6070  177.8470  134.8460 C   0  0  0  0  0  0  0  0  0  0  0  0
  187.3920  177.9530  137.8180 C   0  0  0  0  0  1  0  0  0  0  0  0
  179.6990  176.6990  140.3550 C   0  0  0  0  0  0  0  0  0  0  0  0
  179.0690  175.9230  141.3220 O   0  0  0  0  0  1  0  0  0  0  0  0
  179.2290  177.8340  140.0760 O   0  0  0  0  0  0  0  0  0  0  0  0
  1 14  1  1  0  0  0
  1  7  1  0  0  0  0
  2  9  1  0  0  0  0
  3 12  1  0  0  0  0
  5  4  1  0  0  0  0
  6  8  1  0  0  0  0
  6  3  1  0  0  0  0
  7  4  1  0  0  0  0
  8  5  1  0  0  0  0
  9 10  1  0  0  0  0
 10 32  1  0  0  0  0
 11 10  2  0  0  0  0
 12 14  1  0  0  0  0
 12  2  2  0  0  0  0
 13 11  1  0  0  0  0
 14 13  2  0  0  0  0
 15 31  1  6  0  0  0
 16 30  1  0  0  0  0
 16 28  1  0  0  0  0
 18 24  1  1  0  0  0
 18 19  1  0  0  0  0
 19  1  1  6  0  0  0
 19 15  1  0  0  0  0
 20 22  1  1  0  0  0
 20 26  1  0  0  0  0
 21 17  1  1  0  0  0
 23 15  1  0  0  0  0
 23 21  1  0  0  0  0
 25 30  2  0  0  0  0
 26 17  1  0  0  0  0
 26 21  1  0  0  0  0
 27 29  1  0  0  0  0
 27 20  1  0  0  0  0
 27 28  1  0  0  0  0
 28 23  1  0  0  0  0
 30 18  1  0  0  0  0
 32 33  1  0  0  0  0
 34 32  2  0  0  0  0
M  END
>  <MODEL>
8

>  <REMARK>
 VINA RESULT:      -4.5      3.111      5.504
  Name = 
  2 active torsions:
  status: ('A' for Active; 'I' for Inactive)
    1  A    between atoms: C_1  and  C_9
    2  A    between atoms: C_3  and  C_25
                            x       y       z     vdW  Elec       q    Type
                         _______ _______ _______ _____ _____    ______ ____

>  <TORSDO>
F 2

$$$$
=
 OpenBabel10262423363D

 34 38  0  0  1  0  0  0  0  0999 V2000
  185.7680  174.6040  136.6360 C   0  0  1  0  0  3  0  0  0  0  0  0
  182.7030  172.4630  136.3140 C   0  0  0  0  0  3  0  0  0  0  0  0
  184.3630  172.7390  134.5950 C   0  0  0  0  0  2  0  0  0  0  0  0
  186.1300  172.5670  137.4240 O   0  0  0  0  0  0  0  0  0  0  0  0
  187.0060  172.0090  136.4810 C   0  0  0  0  0  2  0  0  0  0  0  0
  185.7650  172.8050  134.5970 O   0  0  0  0  0  0  0  0  0  0  0  0
  186.4940  173.8330  137.5770 O   0  0  0  0  0  0  0  0  0  0  0  0
  186.2250  171.6410  135.2260 C   0  0  0  0  0  2  0  0  0  0  0  0
  181.9830  172.7040  137.5970 C   0  0  0  0  0  2  0  0  0  0  0  0
  181.3120  174.0390  137.5850 C   0  0  0  0  0  0  0  0  0  0  0  0
  182.0310  175.1630  137.5250 C   0  0  0  0  0  3  0  0  0  0  0  0
  183.7400  173.1920  135.8940 C   0  0  0  0  0  0  0  0  0  0  0  0
  183.4950  175.2260  137.3450 C   0  0  0  0  0  3  0  0  0  0  0  0
  184.2720  174.3700  136.6580 C   0  0  0  0  0  0  0  0  0  0  0  0
  187.4500  176.3290  137.5050 C   0  0  1  0  0  3  0  0  0  0  0  0
  188.7320  177.5470  135.0320 C   0  0  0  0  0  2  0  0  0  0  0  0
  190.9430  175.0450  137.9670 C   0  0  0  0  0  2  0  0  0  0  0  0
  186.3030  176.5730  135.1500 C   0  0  1  0  0  3  0  0  0  0  0  0
  186.2190  176.0710  136.6060 C   0  0  1  0  0  3  0  0  0  0  0  0
  191.5470  176.3760  135.8560 C   0  0  2  0  0  3  0  0  0  0  0  0
  189.9620  176.2080  137.9320 C   0  0  2  0  0  3  0  0  0  0  0  0
  192.8180  175.9220  135.4970 O   0  0  0  0  0  1  0  0  0  0  0  0
  188.8200  175.8480  136.9620 C   0  0  2  0  0  3  0  0  0  0  0  0
  184.9120  176.8430  134.5940 C   0  0  0  0  0  1  0  0  0  0  0  0
  186.8070  178.8680  134.7540 O   0  0  0  0  0  0  0  0  0  0  0  0
  191.3850  176.3730  137.3870 C   0  0  1  0  0  3  0  0  0  0  0  0
  190.4600  175.7010  135.0170 C   0  0  2  0  0  3  0  0  0  0  0  0
  189.0740  176.1240  135.4670 C   0  0  2  0  0  3  0  0  0  0  0  0
  190.5840  174.1830  134.9930 C   0  0  0  0  0  1  0  0  0  0  0  0
  187.2430  177.7430  134.9450 C   0  0  0  0  0  0  0  0  0  0  0  0
  187.4600  177.7660  138.0130 C   0  0  0  0  0  1  0  0  0  0  0  0
  179.8480  174.1060  137.7320 C   0  0  0  0  0  0  0  0  0  0  0  0
  179.1980  175.3340  137.6690 O   0  0  0  0  0  0  0  0  0  0  0  0
  179.1710  173.0600  137.9180 O   0  0  0  0  0  1  0  0  0  0  0  0
  1 14  1  1  0  0  0
  1  7  1  0  0  0  0
  2  9  1  0  0  0  0
  3  6  1  0  0  0  0
  3 12  1  0  0  0  0
  4  7  1  0  0  0  0
  5  4  1  0  0  0  0
  6  8  1  0  0  0  0
  8  5  1  0  0  0  0
 10  9  1  0  0  0  0
 10 32  1  0  0  0  0
 11 10  2  0  0  0  0
 12  2  2  0  0  0  0
 12 14  1  0  0  0  0
 13 11  1  0  0  0  0
 14 13  2  0  0  0  0
 15 31  1  6  0  0  0
 16 28  1  0  0  0  0
 18 24  1  1  0  0  0
 18 19  1  0  0  0  0
 19  1  1  6  0  0  0
 19 15  1  0  0  0  0
 20 22  1  1  0  0  0
 20 26  1  0  0  0  0
 21 17  1  1  0  0  0
 23 15  1  0  0  0  0
 23 21  1  0  0  0  0
 25 30  2  0  0  0  0
 26 21  1  0  0  0  0
 26 17  1  0  0  0  0
 27 28  1  0  0  0  0
 27 20  1  0  0  0  0
 28 23  1  0  0  0  0
 29 27  1  0  0  0  0
 30 16  1  0  0  0  0
 30 18  1  0  0  0  0
 32 34  1  0  0  0  0
 33 32  2  0  0  0  0
M  END
>  <MODEL>
9

>  <REMARK>
 VINA RESULT:      -4.5      4.242      7.300
  Name = 
  2 active torsions:
  status: ('A' for Active; 'I' for Inactive)
    1  A    between atoms: C_1  and  C_9
    2  A    between atoms: C_3  and  C_25
                            x       y       z     vdW  Elec       q    Type
                         _______ _______ _______ _____ _____    ______ ____

>  <TORSDO>
F 2

$$$$
