=
 OpenBabel10262420443D

 28 30  0  0  1  0  0  0  0  0999 V2000
  183.9750  178.4220  142.2660 C   0  0  1  0  0  3  0  0  0  0  0  0
  185.2750  178.3880  146.9580 O   0  0  0  0  0  1  0  0  0  0  0  0
  187.2010  177.1930  143.9710 C   0  0  2  0  0  3  0  0  0  0  0  0
  188.0730  178.2030  144.6890 C   0  0  1  0  0  3  0  0  0  0  0  0
  184.7590  178.7090  144.6570 C   0  0  0  0  0  0  0  0  0  0  0  0
  186.3250  177.9090  142.9490 C   0  0  0  0  0  2  0  0  0  0  0  0
  182.6970  179.6620  143.9040 O   0  0  0  0  0  0  0  0  0  0  0  0
  185.8390  178.6290  145.7040 C   0  0  2  0  0  3  0  0  0  0  0  0
  183.7230  179.5350  144.8490 C   0  0  0  0  0  3  0  0  0  0  0  0
  186.9180  177.5640  145.4370 C   0  0  1  0  0  3  0  0  0  0  0  0
  182.5830  178.7850  142.7860 C   0  0  0  0  0  2  0  0  0  0  0  0
  184.8750  177.8910  143.3950 C   0  0  2  0  0  3  0  0  0  0  0  0
  183.9410  177.5840  141.1240 O   0  0  0  0  0  0  0  0  0  0  0  0
  183.5380  178.3310  139.9970 C   0  0  2  0  0  3  0  0  0  0  0  0
  182.6650  176.1570  139.2440 C   0  0  0  0  0  2  0  0  0  0  0  0
  183.0110  177.4070  138.9420 C   0  0  0  0  0  3  0  0  0  0  0  0
  184.2720  180.3970  139.0000 O   0  0  0  0  0  1  0  0  0  0  0  0
  184.7100  179.1480  139.4460 C   0  0  2  0  0  3  0  0  0  0  0  0
  185.4100  178.4190  138.3120 C   0  0  0  0  0  2  0  0  0  0  0  0
  186.8410  178.3750  138.5590 N   0  0  0  0  0  1  0  0  0  0  0  0
  189.3790  177.5460  145.1080 C   0  0  1  0  0  3  0  0  0  0  0  0
  190.9730  179.2910  144.3370 C   0  0  0  0  0  1  0  0  0  0  0  0
  191.0860  177.0370  143.2610 C   0  0  0  0  0  0  0  0  0  0  0  0
  190.4790  177.9290  144.2180 N   0  0  0  0  0  0  0  0  0  0  0  0
  192.0310  177.4450  142.5330 O   0  0  0  0  0  0  0  0  0  0  0  0
  190.5420  175.3370  143.0650 S   0  0  0  0  0  1  0  0  0  0  0  0
  189.7010  177.8500  146.5660 C   0  0  0  0  0  2  0  0  0  0  0  0
  190.5370  176.7340  147.1640 C   0  0  0  0  0  1  0  0  0  0  0  0
  1 13  1  6  0  0  0
  1 11  1  0  0  0  0
  1 12  1  0  0  0  0
  3  6  1  6  0  0  0
  3  4  1  0  0  0  0
  3 10  1  0  0  0  0
  4 21  1  1  0  0  0
  4 10  1  0  0  0  0
  5  9  2  0  0  0  0
  5  8  1  0  0  0  0
  6 12  1  0  0  0  0
  7  9  1  0  0  0  0
  8  2  1  1  0  0  0
 10  8  1  0  0  0  0
 11  7  1  0  0  0  0
 12  5  1  0  0  0  0
 14 13  1  0  0  0  0
 16 15  2  0  0  0  0
 16 14  1  0  0  0  0
 17 18  1  0  0  0  0
 18 14  1  0  0  0  0
 19 20  1  0  0  0  0
 19 18  1  0  0  0  0
 21 27  1  0  0  0  0
 23 24  1  0  0  0  0
 24 22  1  0  0  0  0
 24 21  1  0  0  0  0
 25 23  2  0  0  0  0
 26 23  1  0  0  0  0
 27 28  1  0  0  0  0
M  END
>  <MODEL>
1

>  <REMARK>
 VINA RESULT:      -7.4      0.000      0.000
  Name = 
  8 active torsions:
  status: ('A' for Active; 'I' for Inactive)
    1  A    between atoms: C_1  and  O_2
    2  A    between atoms: O_2  and  C_3
    3  A    between atoms: C_3  and  C_11
    4  A    between atoms: C_3  and  C_22
    5  A    between atoms: C_4  and  C_13
    6  A    between atoms: C_4  and  C_14
    7  A    between atoms: C_4  and  N_15
    8  A    between atoms: C_7  and  C_11
                            x       y       z     vdW  Elec       q    Type
                         _______ _______ _______ _____ _____    ______ ____

>  <TORSDO>
F 8

$$$$
=
 OpenBabel10262420443D

 28 30  0  0  1  0  0  0  0  0999 V2000
  187.8690  177.1860  145.5840 C   0  0  1  0  0  3  0  0  0  0  0  0
  184.2490  180.3520  144.8200 O   0  0  0  0  0  1  0  0  0  0  0  0
  185.9630  178.0950  142.3650 C   0  0  2  0  0  3  0  0  0  0  0  0
  184.4800  177.7920  142.2890 C   0  0  1  0  0  3  0  0  0  0  0  0
  185.7840  178.5900  145.2720 C   0  0  0  0  0  0  0  0  0  0  0  0
  186.6120  177.2100  143.4230 C   0  0  0  0  0  2  0  0  0  0  0  0
  186.6860  178.1720  147.4500 O   0  0  0  0  0  0  0  0  0  0  0  0
  184.6410  179.0740  144.4180 C   0  0  2  0  0  3  0  0  0  0  0  0
  185.6630  178.6230  146.6050 C   0  0  0  0  0  3  0  0  0  0  0  0
  184.9340  179.1010  142.9070 C   0  0  1  0  0  3  0  0  0  0  0  0
  187.9840  177.8450  146.9600 C   0  0  0  0  0  2  0  0  0  0  0  0
  187.0290  178.0430  144.6210 C   0  0  2  0  0  3  0  0  0  0  0  0
  189.1200  176.7910  145.0500 O   0  0  0  0  0  0  0  0  0  0  0  0
  190.0950  177.7670  145.3450 C   0  0  2  0  0  3  0  0  0  0  0  0
  191.4260  179.3780  144.0460 C   0  0  0  0  0  2  0  0  0  0  0  0
  190.3340  178.6220  144.1380 C   0  0  0  0  0  3  0  0  0  0  0  0
  191.7250  176.0390  144.9450 O   0  0  0  0  0  1  0  0  0  0  0  0
  191.4020  177.1040  145.7900 C   0  0  2  0  0  3  0  0  0  0  0  0
  191.3120  176.6070  147.2230 C   0  0  0  0  0  2  0  0  0  0  0  0
  192.5560  175.9600  147.6030 N   0  0  0  0  0  1  0  0  0  0  0  0
  183.9780  178.0420  140.8750 C   0  0  1  0  0  3  0  0  0  0  0  0
  181.7450  178.8360  141.6250 C   0  0  0  0  0  1  0  0  0  0  0  0
  181.8320  176.9800  139.9520 C   0  0  0  0  0  0  0  0  0  0  0  0
  182.5200  177.9250  140.7980 N   0  0  0  0  0  0  0  0  0  0  0  0
  180.5720  176.9450  139.9430 O   0  0  0  0  0  0  0  0  0  0  0  0
  182.7170  175.8330  138.8920 S   0  0  0  0  0  1  0  0  0  0  0  0
  184.4660  179.3870  140.3510 C   0  0  0  0  0  2  0  0  0  0  0  0
  184.2170  179.4920  138.8580 C   0  0  0  0  0  1  0  0  0  0  0  0
  1 13  1  6  0  0  0
  1 11  1  0  0  0  0
  3 10  1  0  0  0  0
  3  6  1  1  0  0  0
  4 21  1  6  0  0  0
  4  3  1  0  0  0  0
  4 10  1  0  0  0  0
  5  9  2  0  0  0  0
  6 12  1  0  0  0  0
  8  2  1  1  0  0  0
  8  5  1  0  0  0  0
  9  7  1  0  0  0  0
 10  8  1  0  0  0  0
 11  7  1  0  0  0  0
 12  5  1  0  0  0  0
 12  1  1  0  0  0  0
 13 14  1  0  0  0  0
 14 18  1  0  0  0  0
 15 16  2  0  0  0  0
 16 14  1  0  0  0  0
 17 18  1  0  0  0  0
 18 19  1  0  0  0  0
 19 20  1  0  0  0  0
 23 24  1  0  0  0  0
 24 21  1  0  0  0  0
 24 22  1  0  0  0  0
 25 23  2  0  0  0  0
 26 23  1  0  0  0  0
 27 21  1  0  0  0  0
 28 27  1  0  0  0  0
M  END
>  <MODEL>
2

>  <REMARK>
 VINA RESULT:      -7.1      2.679      7.627
  Name = 
  8 active torsions:
  status: ('A' for Active; 'I' for Inactive)
    1  A    between atoms: C_1  and  O_2
    2  A    between atoms: O_2  and  C_3
    3  A    between atoms: C_3  and  C_11
    4  A    between atoms: C_3  and  C_22
    5  A    between atoms: C_4  and  C_13
    6  A    between atoms: C_4  and  C_14
    7  A    between atoms: C_4  and  N_15
    8  A    between atoms: C_7  and  C_11
                            x       y       z     vdW  Elec       q    Type
                         _______ _______ _______ _____ _____    ______ ____

>  <TORSDO>
F 8

$$$$
=
 OpenBabel10262420443D

 28 30  0  0  1  0  0  0  0  0999 V2000
  187.5740  177.6820  144.8700 C   0  0  1  0  0  3  0  0  0  0  0  0
  191.9640  175.8470  143.8330 O   0  0  0  0  0  1  0  0  0  0  0  0
  189.0960  176.5490  141.5200 C   0  0  2  0  0  3  0  0  0  0  0  0
  190.2990  177.2960  140.9800 C   0  0  1  0  0  3  0  0  0  0  0  0
  189.9570  177.0380  144.3040 C   0  0  0  0  0  0  0  0  0  0  0  0
  188.3430  177.4370  142.5030 C   0  0  0  0  0  2  0  0  0  0  0  0
  189.3550  177.7590  146.5060 O   0  0  0  0  0  0  0  0  0  0  0  0
  191.0320  176.7350  143.2920 C   0  0  2  0  0  3  0  0  0  0  0  0
  190.3100  177.4490  145.5290 C   0  0  0  0  0  3  0  0  0  0  0  0
  190.5180  176.1600  141.9610 C   0  0  1  0  0  3  0  0  0  0  0  0
  187.9710  177.4680  146.3320 C   0  0  0  0  0  2  0  0  0  0  0  0
  188.5050  176.9120  143.9180 C   0  0  2  0  0  3  0  0  0  0  0  0
  186.1970  177.4540  144.6280 O   0  0  0  0  0  0  0  0  0  0  0  0
  185.5540  178.6770  144.3430 C   0  0  2  0  0  3  0  0  0  0  0  0
  184.5850  178.3710  146.5840 C   0  0  0  0  0  2  0  0  0  0  0  0
  184.5240  178.9620  145.3930 C   0  0  0  0  0  3  0  0  0  0  0  0
  185.4260  179.6260  142.1330 O   0  0  0  0  0  1  0  0  0  0  0  0
  184.9000  178.6300  142.9590 C   0  0  2  0  0  3  0  0  0  0  0  0
  183.3930  178.7900  143.0520 C   0  0  0  0  0  2  0  0  0  0  0  0
  182.7960  178.6400  141.7360 N   0  0  0  0  0  1  0  0  0  0  0  0
  190.6060  176.8190  139.5680 C   0  0  1  0  0  3  0  0  0  0  0  0
  189.2010  178.6970  138.7460 C   0  0  0  0  0  1  0  0  0  0  0  0
  189.0410  176.5020  137.5600 C   0  0  0  0  0  0  0  0  0  0  0  0
  189.6110  177.3090  138.6110 N   0  0  0  0  0  0  0  0  0  0  0  0
  188.1900  177.0020  136.7750 O   0  0  0  0  0  0  0  0  0  0  0  0
  189.5070  174.7860  137.3190 S   0  0  0  0  0  1  0  0  0  0  0  0
  192.0230  177.2030  139.1570 C   0  0  0  0  0  2  0  0  0  0  0  0
  192.6310  176.1200  138.2870 C   0  0  0  0  0  1  0  0  0  0  0  0
  1 13  1  1  0  0  0
  1 11  1  0  0  0  0
  3 10  1  0  0  0  0
  3  6  1  1  0  0  0
  4 21  1  6  0  0  0
  4  3  1  0  0  0  0
  4 10  1  0  0  0  0
  5  9  2  0  0  0  0
  6 12  1  0  0  0  0
  8  2  1  1  0  0  0
  8  5  1  0  0  0  0
  9  7  1  0  0  0  0
 10  8  1  0  0  0  0
 11  7  1  0  0  0  0
 12  5  1  0  0  0  0
 12  1  1  0  0  0  0
 14 13  1  0  0  0  0
 14 16  1  0  0  0  0
 16 15  2  0  0  0  0
 17 18  1  0  0  0  0
 18 19  1  0  0  0  0
 18 14  1  0  0  0  0
 20 19  1  0  0  0  0
 23 24  1  0  0  0  0
 24 22  1  0  0  0  0
 24 21  1  0  0  0  0
 25 23  2  0  0  0  0
 26 23  1  0  0  0  0
 27 21  1  0  0  0  0
 28 27  1  0  0  0  0
M  END
>  <MODEL>
3

>  <REMARK>
 VINA RESULT:      -6.8      3.051      5.855
  Name = 
  8 active torsions:
  status: ('A' for Active; 'I' for Inactive)
    1  A    between atoms: C_1  and  O_2
    2  A    between atoms: O_2  and  C_3
    3  A    between atoms: C_3  and  C_11
    4  A    between atoms: C_3  and  C_22
    5  A    between atoms: C_4  and  C_13
    6  A    between atoms: C_4  and  C_14
    7  A    between atoms: C_4  and  N_15
    8  A    between atoms: C_7  and  C_11
                            x       y       z     vdW  Elec       q    Type
                         _______ _______ _______ _____ _____    ______ ____

>  <TORSDO>
F 8

$$$$
=
 OpenBabel10262420443D

 28 30  0  0  1  0  0  0  0  0999 V2000
  187.6860  177.7490  144.8470 C   0  0  1  0  0  3  0  0  0  0  0  0
  183.1460  179.5020  145.0180 O   0  0  0  0  0  1  0  0  0  0  0  0
  185.2600  178.7230  142.0200 C   0  0  2  0  0  3  0  0  0  0  0  0
  183.9690  177.9430  141.8710 C   0  0  1  0  0  3  0  0  0  0  0  0
  185.2270  178.3490  144.9510 C   0  0  0  0  0  0  0  0  0  0  0  0
  186.2770  177.8840  142.7850 C   0  0  0  0  0  2  0  0  0  0  0  0
  186.4390  177.7290  146.9200 O   0  0  0  0  0  0  0  0  0  0  0  0
  183.9050  178.5980  144.2720 C   0  0  2  0  0  3  0  0  0  0  0  0
  185.2420  177.9890  146.2400 C   0  0  0  0  0  3  0  0  0  0  0  0
  184.0120  179.1200  142.8280 C   0  0  1  0  0  3  0  0  0  0  0  0
  187.7120  178.0230  146.3510 C   0  0  0  0  0  2  0  0  0  0  0  0
  186.5090  178.4690  144.1660 C   0  0  2  0  0  3  0  0  0  0  0  0
  188.9340  177.9770  144.2170 O   0  0  0  0  0  0  0  0  0  0  0  0
  189.7150  176.8030  144.2670 C   0  0  2  0  0  3  0  0  0  0  0  0
  191.5690  176.7490  145.8830 C   0  0  0  0  0  2  0  0  0  0  0  0
  191.1090  177.1430  144.6980 C   0  0  0  0  0  3  0  0  0  0  0  0
  190.5290  174.9640  142.9400 O   0  0  0  0  0  1  0  0  0  0  0  0
  189.7370  176.1150  142.8990 C   0  0  2  0  0  3  0  0  0  0  0  0
  190.2530  177.0480  141.8170 C   0  0  0  0  0  2  0  0  0  0  0  0
  189.2330  177.2400  140.8000 N   0  0  0  0  0  1  0  0  0  0  0  0
  183.2670  178.3560  140.5850 C   0  0  1  0  0  3  0  0  0  0  0  0
  182.2110  176.2440  139.8080 C   0  0  0  0  0  1  0  0  0  0  0  0
  184.1470  177.1400  138.5040 C   0  0  0  0  0  0  0  0  0  0  0  0
  183.2370  177.2570  139.6170 N   0  0  0  0  0  0  0  0  0  0  0  0
  184.0510  176.1620  137.7140 O   0  0  0  0  0  0  0  0  0  0  0  0
  185.4300  178.3560  138.1920 S   0  0  0  0  0  1  0  0  0  0  0  0
  181.8710  178.8950  140.8730 C   0  0  0  0  0  2  0  0  0  0  0  0
  181.3750  179.7230  139.7030 C   0  0  0  0  0  1  0  0  0  0  0  0
  1 13  1  6  0  0  0
  1 11  1  0  0  0  0
  3  6  1  1  0  0  0
  3 10  1  0  0  0  0
  4 21  1  6  0  0  0
  4  3  1  0  0  0  0
  4 10  1  0  0  0  0
  5  9  2  0  0  0  0
  6 12  1  0  0  0  0
  8  5  1  0  0  0  0
  8  2  1  1  0  0  0
  9  7  1  0  0  0  0
 10  8  1  0  0  0  0
 11  7  1  0  0  0  0
 12  1  1  0  0  0  0
 12  5  1  0  0  0  0
 13 14  1  0  0  0  0
 14 16  1  0  0  0  0
 16 15  2  0  0  0  0
 18 17  1  0  0  0  0
 18 14  1  0  0  0  0
 19 18  1  0  0  0  0
 20 19  1  0  0  0  0
 21 27  1  0  0  0  0
 23 24  1  0  0  0  0
 24 22  1  0  0  0  0
 24 21  1  0  0  0  0
 25 23  2  0  0  0  0
 26 23  1  0  0  0  0
 28 27  1  0  0  0  0
M  END
>  <MODEL>
4

>  <REMARK>
 VINA RESULT:      -6.8      2.426      6.976
  Name = 
  8 active torsions:
  status: ('A' for Active; 'I' for Inactive)
    1  A    between atoms: C_1  and  O_2
    2  A    between atoms: O_2  and  C_3
    3  A    between atoms: C_3  and  C_11
    4  A    between atoms: C_3  and  C_22
    5  A    between atoms: C_4  and  C_13
    6  A    between atoms: C_4  and  C_14
    7  A    between atoms: C_4  and  N_15
    8  A    between atoms: C_7  and  C_11
                            x       y       z     vdW  Elec       q    Type
                         _______ _______ _______ _____ _____    ______ ____

>  <TORSDO>
F 8

$$$$
=
 OpenBabel10262420443D

 28 30  0  0  1  0  0  0  0  0999 V2000
  187.9510  177.7800  143.7140 C   0  0  1  0  0  3  0  0  0  0  0  0
  183.7200  179.2910  145.5920 O   0  0  0  0  0  1  0  0  0  0  0  0
  184.7180  178.9670  141.9920 C   0  0  2  0  0  3  0  0  0  0  0  0
  183.4540  178.1520  142.1800 C   0  0  1  0  0  3  0  0  0  0  0  0
  185.6650  178.2500  144.6970 C   0  0  0  0  0  0  0  0  0  0  0  0
  185.9350  178.0920  142.2660 C   0  0  0  0  0  2  0  0  0  0  0  0
  187.4660  177.4600  146.0620 O   0  0  0  0  0  0  0  0  0  0  0  0
  184.1920  178.5170  144.5300 C   0  0  2  0  0  3  0  0  0  0  0  0
  186.1090  177.7430  145.8540 C   0  0  0  0  0  3  0  0  0  0  0  0
  183.8090  179.2090  143.2090 C   0  0  1  0  0  3  0  0  0  0  0  0
  188.4760  177.8770  145.1470 C   0  0  0  0  0  2  0  0  0  0  0  0
  186.6120  178.5210  143.5560 C   0  0  2  0  0  3  0  0  0  0  0  0
  188.9170  178.1380  142.7420 O   0  0  0  0  0  0  0  0  0  0  0  0
  189.4860  176.9740  142.1840 C   0  0  2  0  0  3  0  0  0  0  0  0
  191.2770  176.0340  143.5860 C   0  0  0  0  0  2  0  0  0  0  0  0
  190.9200  176.8610  142.6050 C   0  0  0  0  0  3  0  0  0  0  0  0
  190.6200  176.7040  140.0760 O   0  0  0  0  0  1  0  0  0  0  0  0
  189.3850  177.0060  140.6560 C   0  0  2  0  0  3  0  0  0  0  0  0
  188.9070  178.3590  140.1600 C   0  0  0  0  0  2  0  0  0  0  0  0
  187.9300  178.1810  139.1000 N   0  0  0  0  0  1  0  0  0  0  0  0
  182.3630  178.6800  141.2600 C   0  0  1  0  0  3  0  0  0  0  0  0
  182.7070  176.6660  139.8450 C   0  0  0  0  0  1  0  0  0  0  0  0
  182.3330  178.8570  138.7010 C   0  0  0  0  0  0  0  0  0  0  0  0
  182.4660  178.0980  139.9200 N   0  0  0  0  0  0  0  0  0  0  0  0
  182.4330  178.2770  137.5850 O   0  0  0  0  0  0  0  0  0  0  0  0
  182.0200  180.6240  138.7100 S   0  0  0  0  0  1  0  0  0  0  0  0
  180.9830  178.4600  141.8670 C   0  0  0  0  0  2  0  0  0  0  0  0
  180.3610  179.7880  142.2580 C   0  0  0  0  0  1  0  0  0  0  0  0
  1 13  1  6  0  0  0
  1 11  1  0  0  0  0
  3  4  1  0  0  0  0
  3  6  1  1  0  0  0
  3 10  1  0  0  0  0
  4 21  1  6  0  0  0
  4 10  1  0  0  0  0
  5  9  2  0  0  0  0
  6 12  1  0  0  0  0
  8  5  1  0  0  0  0
  8  2  1  1  0  0  0
  9  7  1  0  0  0  0
 10  8  1  0  0  0  0
 11  7  1  0  0  0  0
 12  1  1  0  0  0  0
 12  5  1  0  0  0  0
 14 16  1  0  0  0  0
 14 13  1  0  0  0  0
 16 15  2  0  0  0  0
 17 18  1  0  0  0  0
 18 14  1  0  0  0  0
 19 18  1  0  0  0  0
 20 19  1  0  0  0  0
 21 27  1  0  0  0  0
 22 24  1  0  0  0  0
 23 26  1  0  0  0  0
 23 24  1  0  0  0  0
 24 21  1  0  0  0  0
 25 23  2  0  0  0  0
 27 28  1  0  0  0  0
M  END
>  <MODEL>
5

>  <REMARK>
 VINA RESULT:      -6.6      2.994      6.891
  Name = 
  8 active torsions:
  status: ('A' for Active; 'I' for Inactive)
    1  A    between atoms: C_1  and  O_2
    2  A    between atoms: O_2  and  C_3
    3  A    between atoms: C_3  and  C_11
    4  A    between atoms: C_3  and  C_22
    5  A    between atoms: C_4  and  C_13
    6  A    between atoms: C_4  and  C_14
    7  A    between atoms: C_4  and  N_15
    8  A    between atoms: C_7  and  C_11
                            x       y       z     vdW  Elec       q    Type
                         _______ _______ _______ _____ _____    ______ ____

>  <TORSDO>
F 8

$$$$
=
 OpenBabel10262420443D

 28 30  0  0  1  0  0  0  0  0999 V2000
  188.0510  177.8020  144.9550 C   0  0  1  0  0  3  0  0  0  0  0  0
  185.5260  179.2330  141.0440 O   0  0  0  0  0  1  0  0  0  0  0  0
  189.1430  178.2760  141.2930 C   0  0  2  0  0  3  0  0  0  0  0  0
  188.5200  177.3930  140.2300 C   0  0  1  0  0  3  0  0  0  0  0  0
  186.6550  178.2320  142.8860 C   0  0  0  0  0  0  0  0  0  0  0  0
  189.0130  177.6030  142.6550 C   0  0  0  0  0  2  0  0  0  0  0  0
  185.6360  177.9260  145.0300 O   0  0  0  0  0  0  0  0  0  0  0  0
  186.5140  178.3080  141.3870 C   0  0  2  0  0  3  0  0  0  0  0  0
  185.5650  178.0210  143.6340 C   0  0  0  0  0  3  0  0  0  0  0  0
  187.8080  178.6700  140.6370 C   0  0  1  0  0  3  0  0  0  0  0  0
  186.8230  178.2450  145.7510 C   0  0  0  0  0  2  0  0  0  0  0  0
  188.0170  178.3550  143.5190 C   0  0  2  0  0  3  0  0  0  0  0  0
  189.2720  178.0470  145.6310 O   0  0  0  0  0  0  0  0  0  0  0  0
  189.6850  176.8800  146.3070 C   0  0  2  0  0  3  0  0  0  0  0  0
  189.1590  178.0500  148.4070 C   0  0  0  0  0  2  0  0  0  0  0  0
  189.1830  176.9110  147.7190 C   0  0  0  0  0  3  0  0  0  0  0  0
  191.6750  176.5640  144.9890 O   0  0  0  0  0  1  0  0  0  0  0  0
  191.2110  176.7630  146.2920 C   0  0  2  0  0  3  0  0  0  0  0  0
  191.6890  175.6280  147.1810 C   0  0  0  0  0  2  0  0  0  0  0  0
  192.7100  176.1110  148.0950 N   0  0  0  0  0  1  0  0  0  0  0  0
  189.2340  177.6070  138.9040 C   0  0  1  0  0  3  0  0  0  0  0  0
  189.0490  175.4590  137.6680 C   0  0  0  0  0  1  0  0  0  0  0  0
  191.2550  176.0410  138.6890 C   0  0  0  0  0  0  0  0  0  0  0  0
  189.8750  176.3750  138.4370 N   0  0  0  0  0  0  0  0  0  0  0  0
  191.7300  174.9580  138.2500 O   0  0  0  0  0  0  0  0  0  0  0  0
  192.3430  177.1260  139.6180 S   0  0  0  0  0  1  0  0  0  0  0  0
  188.2860  178.1820  137.8580 C   0  0  0  0  0  2  0  0  0  0  0  0
  189.0560  179.0130  136.8490 C   0  0  0  0  0  1  0  0  0  0  0  0
  1 13  1  1  0  0  0
  1 11  1  0  0  0  0
  3  6  1  1  0  0  0
  4 21  1  6  0  0  0
  4 10  1  0  0  0  0
  4  3  1  0  0  0  0
  5 12  1  0  0  0  0
  5  9  2  0  0  0  0
  6 12  1  0  0  0  0
  7 11  1  0  0  0  0
  8  2  1  1  0  0  0
  8  5  1  0  0  0  0
  9  7  1  0  0  0  0
 10  3  1  0  0  0  0
 10  8  1  0  0  0  0
 12  1  1  0  0  0  0
 13 14  1  0  0  0  0
 14 16  1  0  0  0  0
 16 15  2  0  0  0  0
 17 18  1  0  0  0  0
 18 14  1  0  0  0  0
 18 19  1  0  0  0  0
 19 20  1  0  0  0  0
 22 24  1  0  0  0  0
 23 26  1  0  0  0  0
 24 23  1  0  0  0  0
 24 21  1  0  0  0  0
 25 23  2  0  0  0  0
 27 21  1  0  0  0  0
 28 27  1  0  0  0  0
M  END
>  <MODEL>
6

>  <REMARK>
 VINA RESULT:      -6.6      2.980      7.154
  Name = 
  8 active torsions:
  status: ('A' for Active; 'I' for Inactive)
    1  A    between atoms: C_1  and  O_2
    2  A    between atoms: O_2  and  C_3
    3  A    between atoms: C_3  and  C_11
    4  A    between atoms: C_3  and  C_22
    5  A    between atoms: C_4  and  C_13
    6  A    between atoms: C_4  and  C_14
    7  A    between atoms: C_4  and  N_15
    8  A    between atoms: C_7  and  C_11
                            x       y       z     vdW  Elec       q    Type
                         _______ _______ _______ _____ _____    ______ ____

>  <TORSDO>
F 8

$$$$
=
 OpenBabel10262420443D

 28 30  0  0  1  0  0  0  0  0999 V2000
  186.1690  178.2810  144.8630 C   0  0  1  0  0  3  0  0  0  0  0  0
  181.7670  179.7550  143.3920 O   0  0  0  0  0  1  0  0  0  0  0  0
  184.6390  178.4960  141.3360 C   0  0  2  0  0  3  0  0  0  0  0  0
  183.4420  177.6260  141.0100 C   0  0  1  0  0  3  0  0  0  0  0  0
  183.7820  178.7400  144.1530 C   0  0  0  0  0  0  0  0  0  0  0  0
  185.3990  177.8980  142.5140 C   0  0  0  0  0  2  0  0  0  0  0  0
  184.3880  178.6190  146.4650 O   0  0  0  0  0  0  0  0  0  0  0  0
  182.7050  178.7630  143.0990 C   0  0  2  0  0  3  0  0  0  0  0  0
  183.4320  178.6590  145.4420 C   0  0  0  0  0  3  0  0  0  0  0  0
  183.2150  178.9770  141.6620 C   0  0  1  0  0  3  0  0  0  0  0  0
  185.7710  178.8640  146.2190 C   0  0  0  0  0  2  0  0  0  0  0  0
  185.2330  178.7710  143.7440 C   0  0  2  0  0  3  0  0  0  0  0  0
  187.5450  178.4470  144.5670 O   0  0  0  0  0  0  0  0  0  0  0  0
  188.2340  177.2400  144.8110 C   0  0  2  0  0  3  0  0  0  0  0  0
  188.9580  177.1220  147.1590 C   0  0  0  0  0  2  0  0  0  0  0  0
  189.2420  177.4470  145.9000 C   0  0  0  0  0  3  0  0  0  0  0  0
  190.1670  176.1830  143.8370 O   0  0  0  0  0  1  0  0  0  0  0  0
  188.9260  176.7500  143.5360 C   0  0  2  0  0  3  0  0  0  0  0  0
  189.1120  177.8790  142.5370 C   0  0  0  0  0  2  0  0  0  0  0  0
  188.7640  177.4210  141.2020 N   0  0  0  0  0  1  0  0  0  0  0  0
  183.1320  177.7190  139.5230 C   0  0  1  0  0  3  0  0  0  0  0  0
  181.7930  175.6250  139.4630 C   0  0  0  0  0  1  0  0  0  0  0  0
  183.7250  175.8310  137.8900 C   0  0  0  0  0  0  0  0  0  0  0  0
  182.9120  176.3930  138.9400 N   0  0  0  0  0  0  0  0  0  0  0  0
  183.4660  174.6810  137.4410 O   0  0  0  0  0  0  0  0  0  0  0  0
  185.1130  176.7210  137.1820 S   0  0  0  0  0  1  0  0  0  0  0  0
  181.9540  178.6510  139.2670 C   0  0  0  0  0  2  0  0  0  0  0  0
  181.9280  179.0800  137.8120 C   0  0  0  0  0  1  0  0  0  0  0  0
  1 13  1  6  0  0  0
  1 11  1  0  0  0  0
  3 10  1  0  0  0  0
  3  6  1  1  0  0  0
  4 21  1  6  0  0  0
  4  3  1  0  0  0  0
  4 10  1  0  0  0  0
  5  9  2  0  0  0  0
  6 12  1  0  0  0  0
  8  2  1  1  0  0  0
  8  5  1  0  0  0  0
  9  7  1  0  0  0  0
 10  8  1  0  0  0  0
 11  7  1  0  0  0  0
 12  5  1  0  0  0  0
 12  1  1  0  0  0  0
 13 14  1  0  0  0  0
 14 16  1  0  0  0  0
 16 15  2  0  0  0  0
 18 17  1  0  0  0  0
 18 14  1  0  0  0  0
 19 18  1  0  0  0  0
 20 19  1  0  0  0  0
 23 24  1  0  0  0  0
 24 22  1  0  0  0  0
 24 21  1  0  0  0  0
 25 23  2  0  0  0  0
 26 23  1  0  0  0  0
 27 21  1  0  0  0  0
 28 27  1  0  0  0  0
M  END
>  <MODEL>
7

>  <REMARK>
 VINA RESULT:      -6.6      2.540      7.102
  Name = 
  8 active torsions:
  status: ('A' for Active; 'I' for Inactive)
    1  A    between atoms: C_1  and  O_2
    2  A    between atoms: O_2  and  C_3
    3  A    between atoms: C_3  and  C_11
    4  A    between atoms: C_3  and  C_22
    5  A    between atoms: C_4  and  C_13
    6  A    between atoms: C_4  and  C_14
    7  A    between atoms: C_4  and  N_15
    8  A    between atoms: C_7  and  C_11
                            x       y       z     vdW  Elec       q    Type
                         _______ _______ _______ _____ _____    ______ ____

>  <TORSDO>
F 8

$$$$
=
 OpenBabel10262420443D

 28 30  0  0  1  0  0  0  0  0999 V2000
  186.2190  178.3090  145.0830 C   0  0  1  0  0  3  0  0  0  0  0  0
  181.9730  179.8340  143.2510 O   0  0  0  0  0  1  0  0  0  0  0  0
  185.0170  178.6070  141.4370 C   0  0  2  0  0  3  0  0  0  0  0  0
  183.8520  177.7500  140.9850 C   0  0  1  0  0  3  0  0  0  0  0  0
  183.9070  178.7950  144.1700 C   0  0  0  0  0  0  0  0  0  0  0  0
  185.6640  177.9810  142.6670 C   0  0  0  0  0  2  0  0  0  0  0  0
  184.3010  178.6210  146.5240 O   0  0  0  0  0  0  0  0  0  0  0  0
  182.9310  178.8450  143.0230 C   0  0  2  0  0  3  0  0  0  0  0  0
  183.4410  178.6870  145.4200 C   0  0  0  0  0  3  0  0  0  0  0  0
  183.5700  179.0870  141.6440 C   0  0  1  0  0  3  0  0  0  0  0  0
  185.7000  178.8660  146.4100 C   0  0  0  0  0  2  0  0  0  0  0  0
  185.3890  178.8280  143.8960 C   0  0  2  0  0  3  0  0  0  0  0  0
  187.6160  178.4760  144.9180 O   0  0  0  0  0  0  0  0  0  0  0  0
  188.2810  177.2750  145.2420 C   0  0  2  0  0  3  0  0  0  0  0  0
  188.6400  176.9840  147.6580 C   0  0  0  0  0  2  0  0  0  0  0  0
  189.0780  177.4620  146.4960 C   0  0  0  0  0  3  0  0  0  0  0  0
  190.4350  176.4190  144.5840 O   0  0  0  0  0  1  0  0  0  0  0  0
  189.1970  176.8420  144.0930 C   0  0  2  0  0  3  0  0  0  0  0  0
  189.4030  177.9670  143.0940 C   0  0  0  0  0  2  0  0  0  0  0  0
  190.6730  178.6270  143.3460 N   0  0  0  0  0  1  0  0  0  0  0  0
  183.6780  177.8750  139.4790 C   0  0  1  0  0  3  0  0  0  0  0  0
  182.3090  179.8200  138.7580 C   0  0  0  0  0  1  0  0  0  0  0  0
  181.1450  177.6410  139.1460 C   0  0  0  0  0  0  0  0  0  0  0  0
  182.3610  178.4170  139.1360 N   0  0  0  0  0  0  0  0  0  0  0  0
  180.0500  178.1850  138.8350 O   0  0  0  0  0  0  0  0  0  0  0  0
  181.1300  175.9020  139.5870 S   0  0  0  0  0  1  0  0  0  0  0  0
  184.8050  178.6990  138.8650 C   0  0  0  0  0  2  0  0  0  0  0  0
  185.4840  177.9190  137.7560 C   0  0  0  0  0  1  0  0  0  0  0  0
  1 13  1  6  0  0  0
  1 11  1  0  0  0  0
  3 10  1  0  0  0  0
  3  6  1  1  0  0  0
  4 21  1  6  0  0  0
  4  3  1  0  0  0  0
  4 10  1  0  0  0  0
  5  9  2  0  0  0  0
  6 12  1  0  0  0  0
  8  2  1  1  0  0  0
  8  5  1  0  0  0  0
  9  7  1  0  0  0  0
 10  8  1  0  0  0  0
 11  7  1  0  0  0  0
 12  5  1  0  0  0  0
 12  1  1  0  0  0  0
 13 14  1  0  0  0  0
 14 16  1  0  0  0  0
 16 15  2  0  0  0  0
 18 17  1  0  0  0  0
 18 14  1  0  0  0  0
 19 20  1  0  0  0  0
 19 18  1  0  0  0  0
 22 24  1  0  0  0  0
 23 26  1  0  0  0  0
 24 23  1  0  0  0  0
 24 21  1  0  0  0  0
 25 23  2  0  0  0  0
 27 21  1  0  0  0  0
 28 27  1  0  0  0  0
M  END
>  <MODEL>
8

>  <REMARK>
 VINA RESULT:      -6.5      2.676      7.301
  Name = 
  8 active torsions:
  status: ('A' for Active; 'I' for Inactive)
    1  A    between atoms: C_1  and  O_2
    2  A    between atoms: O_2  and  C_3
    3  A    between atoms: C_3  and  C_11
    4  A    between atoms: C_3  and  C_22
    5  A    between atoms: C_4  and  C_13
    6  A    between atoms: C_4  and  C_14
    7  A    between atoms: C_4  and  N_15
    8  A    between atoms: C_7  and  C_11
                            x       y       z     vdW  Elec       q    Type
                         _______ _______ _______ _____ _____    ______ ____

>  <TORSDO>
F 8

$$$$
=
 OpenBabel10262420443D

 28 30  0  0  1  0  0  0  0  0999 V2000
  190.5900  176.6790  138.8640 C   0  0  1  0  0  3  0  0  0  0  0  0
  186.7510  178.7860  140.9940 O   0  0  0  0  0  1  0  0  0  0  0  0
  189.2540  176.4130  142.4660 C   0  0  2  0  0  3  0  0  0  0  0  0
  189.2540  177.6560  143.3330 C   0  0  1  0  0  3  0  0  0  0  0  0
  188.7930  178.0260  140.0340 C   0  0  0  0  0  0  0  0  0  0  0  0
  190.2720  176.5750  141.3430 C   0  0  0  0  0  2  0  0  0  0  0  0
  189.4250  178.4980  137.7730 O   0  0  0  0  0  0  0  0  0  0  0  0
  188.0730  178.4480  141.2890 C   0  0  2  0  0  3  0  0  0  0  0  0
  188.7630  178.8300  138.9630 C   0  0  0  0  0  3  0  0  0  0  0  0
  188.0740  177.3990  142.4140 C   0  0  1  0  0  3  0  0  0  0  0  0
  189.9950  177.2090  137.5580 C   0  0  0  0  0  2  0  0  0  0  0  0
  189.5640  176.7310  140.0090 C   0  0  2  0  0  3  0  0  0  0  0  0
  191.2160  175.4160  138.7190 O   0  0  0  0  0  0  0  0  0  0  0  0
  192.0720  175.4350  137.5970 C   0  0  2  0  0  3  0  0  0  0  0  0
  191.1500  173.6630  136.1590 C   0  0  0  0  0  2  0  0  0  0  0  0
  192.1190  174.0720  136.9760 C   0  0  0  0  0  3  0  0  0  0  0  0
  193.9320  176.9040  137.1670 O   0  0  0  0  0  1  0  0  0  0  0  0
  193.4800  175.8800  138.0030 C   0  0  2  0  0  3  0  0  0  0  0  0
  194.4610  174.7210  137.9640 C   0  0  0  0  0  2  0  0  0  0  0  0
  195.6060  175.0680  137.1400 N   0  0  0  0  0  1  0  0  0  0  0  0
  188.8810  177.2840  144.7600 C   0  0  1  0  0  3  0  0  0  0  0  0
  191.3440  177.5090  145.0040 C   0  0  0  0  0  1  0  0  0  0  0  0
  189.9900  177.1060  147.0670 C   0  0  0  0  0  0  0  0  0  0  0  0
  190.0540  177.2910  145.6380 N   0  0  0  0  0  0  0  0  0  0  0  0
  191.0490  177.1280  147.7510 O   0  0  0  0  0  0  0  0  0  0  0  0
  188.4350  176.8460  147.9240 S   0  0  0  0  0  1  0  0  0  0  0  0
  187.7740  178.1880  145.2900 C   0  0  0  0  0  2  0  0  0  0  0  0
  186.4270  177.5040  145.1590 C   0  0  0  0  0  1  0  0  0  0  0  0
  1 13  1  6  0  0  0
  1 12  1  0  0  0  0
  3  6  1  6  0  0  0
  3  4  1  0  0  0  0
  4 21  1  1  0  0  0
  5  8  1  0  0  0  0
  7  9  1  0  0  0  0
  8  2  1  6  0  0  0
  8 10  1  0  0  0  0
  9  5  2  0  0  0  0
 10  3  1  0  0  0  0
 10  4  1  0  0  0  0
 11  7  1  0  0  0  0
 11  1  1  0  0  0  0
 12  5  1  0  0  0  0
 12  6  1  0  0  0  0
 14 18  1  0  0  0  0
 14 13  1  0  0  0  0
 15 16  2  0  0  0  0
 16 14  1  0  0  0  0
 17 18  1  0  0  0  0
 19 18  1  0  0  0  0
 20 19  1  0  0  0  0
 21 27  1  0  0  0  0
 21 24  1  0  0  0  0
 22 24  1  0  0  0  0
 23 25  2  0  0  0  0
 23 26  1  0  0  0  0
 24 23  1  0  0  0  0
 28 27  1  0  0  0  0
M  END
>  <MODEL>
9

>  <REMARK>
 VINA RESULT:      -6.3      4.516      6.794
  Name = 
  8 active torsions:
  status: ('A' for Active; 'I' for Inactive)
    1  A    between atoms: C_1  and  O_2
    2  A    between atoms: O_2  and  C_3
    3  A    between atoms: C_3  and  C_11
    4  A    between atoms: C_3  and  C_22
    5  A    between atoms: C_4  and  C_13
    6  A    between atoms: C_4  and  C_14
    7  A    between atoms: C_4  and  N_15
    8  A    between atoms: C_7  and  C_11
                            x       y       z     vdW  Elec       q    Type
                         _______ _______ _______ _____ _____    ______ ____

>  <TORSDO>
F 8

$$$$
