=
 OpenBabel10262419123D

 34 39  0  0  1  0  0  0  0  0999 V2000
  187.4330  178.2650  147.3010 C   0  0  0  0  0  0  0  0  0  0  0  0
  189.4900  177.1300  146.6220 C   0  0  0  0  0  0  0  0  0  0  0  0
  187.6970  177.8470  144.8930 C   0  0  0  0  0  0  0  0  0  0  0  0
  187.8580  177.5770  142.4730 C   0  0  0  0  0  0  0  0  0  0  0  0
  189.4380  178.0830  148.8020 C   0  0  0  0  0  3  0  0  0  0  0  0
  190.1110  177.5100  147.8520 N   0  0  0  0  0  0  0  0  0  0  0  0
  189.9650  177.7200  143.7530 C   0  0  0  0  0  3  0  0  0  0  0  0
  188.2100  177.7760  146.2300 C   0  0  0  0  0  0  0  0  0  0  0  0
  190.6890  177.6660  142.6390 C   0  0  0  0  0  3  0  0  0  0  0  0
  188.6300  177.2460  141.2260 C   0  0  0  0  0  3  0  0  0  0  0  0
  187.9480  178.2750  148.7150 C   0  0  0  0  0  2  0  0  0  0  0  0
  186.3200  178.1780  144.7150 C   0  0  1  0  0  3  0  0  0  0  0  0
  186.1080  178.6300  147.0930 C   0  0  0  0  0  3  0  0  0  0  0  0
  189.9790  176.1800  145.9560 O   0  0  0  0  0  0  0  0  0  0  0  0
  186.5240  177.7810  142.3670 N   0  0  0  0  0  0  0  0  0  0  0  0
  185.7400  178.1140  143.4230 C   0  0  0  0  0  0  0  0  0  0  0  0
  190.0590  177.5250  141.3610 N   0  0  0  0  0  0  0  0  0  0  0  0
  188.4890  177.6570  143.7270 C   0  0  0  0  0  0  0  0  0  0  0  0
  185.5550  178.5610  145.8240 C   0  0  0  0  0  3  0  0  0  0  0  0
  182.5060  178.6300  141.5210 C   0  0  0  0  0  0  0  0  0  0  0  0
  181.6150  178.9560  142.5450 C   0  0  0  0  0  3  0  0  0  0  0  0
  184.3020  178.3800  143.1460 C   0  0  0  0  0  0  0  0  0  0  0  0
  182.0620  179.0060  143.8670 C   0  0  0  0  0  3  0  0  0  0  0  0
  183.8420  178.3500  141.8190 C   0  0  0  0  0  3  0  0  0  0  0  0
  183.3980  178.7240  144.1640 C   0  0  0  0  0  3  0  0  0  0  0  0
  182.0760  178.5890  140.2360 F   0  0  0  0  0  0  0  0  0  0  0  0
  190.8690  177.5790  140.1560 C   0  0  0  0  0  2  0  0  0  0  0  0
  190.3320  176.3020  138.9760 S   0  0  0  0  0  0  0  0  0  0  0  0
  188.8940  179.3610  137.9540 N   0  0  0  0  0  1  0  0  0  0  0  0
  188.9240  177.9630  137.5640 C   0  0  2  0  0  3  0  0  0  0  0  0
  189.2600  176.6770  135.6020 C   0  0  0  0  0  2  0  0  0  0  0  0
  190.5360  176.7030  136.4150 C   0  0  0  0  0  2  0  0  0  0  0  0
  190.2900  177.4580  137.6410 N   0  0  0  0  0  0  0  0  0  0  0  0
  188.4520  177.8220  136.1380 C   0  0  0  0  0  2  0  0  0  0  0  0
  1 11  1  0  0  0  0
  2  6  1  0  0  0  0
  3  8  1  0  0  0  0
  4 18  1  0  0  0  0
  6  5  2  0  0  0  0
  8  2  1  0  0  0  0
  8  1  2  0  0  0  0
  9  7  2  0  0  0  0
 10 17  1  0  0  0  0
 10  4  2  0  0  0  0
 11  5  1  0  0  0  0
 12  3  1  0  0  0  0
 12 19  1  1  0  0  0
 13  1  1  0  0  0  0
 14  2  2  0  0  0  0
 15  4  1  0  0  0  0
 15 16  2  0  0  0  0
 16 12  1  0  0  0  0
 17  9  1  0  0  0  0
 18  7  1  0  0  0  0
 18  3  2  0  0  0  0
 19 13  2  0  0  0  0
 20 24  2  0  0  0  0
 20 21  1  0  0  0  0
 21 23  2  0  0  0  0
 22 16  1  0  0  0  0
 22 25  2  0  0  0  0
 23 25  1  0  0  0  0
 24 22  1  0  0  0  0
 26 20  1  0  0  0  0
 27 17  1  0  0  0  0
 28 27  1  0  0  0  0
 30 33  1  0  0  0  0
 30 29  1  6  0  0  0
 31 34  1  0  0  0  0
 31 32  1  0  0  0  0
 32 33  1  0  0  0  0
 33 28  1  0  0  0  0
 34 30  1  0  0  0  0
M  END
>  <MODEL>
1

>  <REMARK>
 VINA RESULT:     -11.2      0.000      0.000
  Name = 
  4 active torsions:
  status: ('A' for Active; 'I' for Inactive)
    1  A    between atoms: C_3  and  S_13
    2  A    between atoms: C_3  and  N_29
    3  A    between atoms: C_12  and  C_28
    4  A    between atoms: S_13  and  N_33
                            x       y       z     vdW  Elec       q    Type
                         _______ _______ _______ _____ _____    ______ ____

>  <TORSDO>
F 4

$$$$
=
 OpenBabel10262419123D

 34 39  0  0  1  0  0  0  0  0999 V2000
  189.4050  177.2770  146.5490 C   0  0  0  0  0  0  0  0  0  0  0  0
  191.0890  176.2210  145.1250 C   0  0  0  0  0  0  0  0  0  0  0  0
  188.9570  177.3100  144.1320 C   0  0  0  0  0  0  0  0  0  0  0  0
  188.4200  177.4930  141.7590 C   0  0  0  0  0  0  0  0  0  0  0  0
  191.7230  176.7490  147.3580 C   0  0  0  0  0  3  0  0  0  0  0  0
  192.0560  176.3420  146.1710 N   0  0  0  0  0  0  0  0  0  0  0  0
  190.8020  177.3220  142.3850 C   0  0  0  0  0  3  0  0  0  0  0  0
  189.8110  176.9720  145.2330 C   0  0  0  0  0  0  0  0  0  0  0  0
  191.1840  177.4530  141.1180 C   0  0  0  0  0  3  0  0  0  0  0  0
  188.7870  177.3760  140.3050 C   0  0  0  0  0  3  0  0  0  0  0  0
  190.2890  177.0040  147.7360 C   0  0  0  0  0  2  0  0  0  0  0  0
  187.6180  177.7140  144.4160 C   0  0  1  0  0  3  0  0  0  0  0  0
  188.1100  177.7180  146.7960 C   0  0  0  0  0  3  0  0  0  0  0  0
  191.2920  175.3960  144.1960 O   0  0  0  0  0  0  0  0  0  0  0  0
  187.1310  177.7580  142.0760 N   0  0  0  0  0  0  0  0  0  0  0  0
  186.7000  177.9130  143.3530 C   0  0  0  0  0  0  0  0  0  0  0  0
  190.2160  177.5770  140.0700 N   0  0  0  0  0  0  0  0  0  0  0  0
  189.3770  177.3150  142.7740 C   0  0  0  0  0  0  0  0  0  0  0  0
  187.2250  177.9080  145.7460 C   0  0  0  0  0  3  0  0  0  0  0  0
  183.0670  178.6570  142.5860 C   0  0  0  0  0  0  0  0  0  0  0  0
  182.5760  179.0300  143.8380 C   0  0  0  0  0  3  0  0  0  0  0  0
  185.2700  178.2750  143.5500 C   0  0  0  0  0  0  0  0  0  0  0  0
  183.4260  179.0380  144.9460 C   0  0  0  0  0  3  0  0  0  0  0  0
  184.4070  178.2880  142.4420 C   0  0  0  0  0  3  0  0  0  0  0  0
  184.7660  178.6670  144.8010 C   0  0  0  0  0  3  0  0  0  0  0  0
  182.2460  178.6570  141.5080 F   0  0  0  0  0  0  0  0  0  0  0  0
  190.6630  177.8290  138.7100 C   0  0  0  0  0  2  0  0  0  0  0  0
  190.0520  176.5300  137.5930 S   0  0  0  0  0  0  0  0  0  0  0  0
  187.9450  179.3340  137.1790 N   0  0  0  0  0  1  0  0  0  0  0  0
  188.1030  177.9800  136.6790 C   0  0  2  0  0  3  0  0  0  0  0  0
  188.1620  176.8550  134.5940 C   0  0  0  0  0  2  0  0  0  0  0  0
  189.5730  177.0680  135.0940 C   0  0  0  0  0  2  0  0  0  0  0  0
  189.5100  177.7160  136.4020 N   0  0  0  0  0  0  0  0  0  0  0  0
  187.3340  177.8190  135.3910 C   0  0  0  0  0  2  0  0  0  0  0  0
  1 13  1  0  0  0  0
  1 11  1  0  0  0  0
  2  8  1  0  0  0  0
  2  6  1  0  0  0  0
  3 12  1  0  0  0  0
  3  8  1  0  0  0  0
  4 15  1  0  0  0  0
  4 18  1  0  0  0  0
  5 11  1  0  0  0  0
  6  5  2  0  0  0  0
  7 18  1  0  0  0  0
  8  1  2  0  0  0  0
  9  7  2  0  0  0  0
 10  4  2  0  0  0  0
 12 19  1  1  0  0  0
 14  2  2  0  0  0  0
 15 16  2  0  0  0  0
 16 22  1  0  0  0  0
 16 12  1  0  0  0  0
 17 10  1  0  0  0  0
 17  9  1  0  0  0  0
 18  3  2  0  0  0  0
 19 13  2  0  0  0  0
 20 21  1  0  0  0  0
 21 23  2  0  0  0  0
 22 25  2  0  0  0  0
 24 20  2  0  0  0  0
 24 22  1  0  0  0  0
 25 23  1  0  0  0  0
 26 20  1  0  0  0  0
 27 17  1  0  0  0  0
 28 27  1  0  0  0  0
 30 29  1  6  0  0  0
 31 32  1  0  0  0  0
 31 34  1  0  0  0  0
 32 33  1  0  0  0  0
 33 30  1  0  0  0  0
 33 28  1  0  0  0  0
 34 30  1  0  0  0  0
M  END
>  <MODEL>
2

>  <REMARK>
 VINA RESULT:     -11.0      1.294      1.711
  Name = 
  4 active torsions:
  status: ('A' for Active; 'I' for Inactive)
    1  A    between atoms: C_3  and  S_13
    2  A    between atoms: C_3  and  N_29
    3  A    between atoms: C_12  and  C_28
    4  A    between atoms: S_13  and  N_33
                            x       y       z     vdW  Elec       q    Type
                         _______ _______ _______ _____ _____    ______ ____

>  <TORSDO>
F 4

$$$$
=
 OpenBabel10262419123D

 34 39  0  0  1  0  0  0  0  0999 V2000
  189.4140  177.2900  146.5000 C   0  0  0  0  0  0  0  0  0  0  0  0
  191.1160  176.2420  145.0920 C   0  0  0  0  0  0  0  0  0  0  0  0
  188.9880  177.3200  144.0800 C   0  0  0  0  0  0  0  0  0  0  0  0
  188.4710  177.5000  141.7010 C   0  0  0  0  0  0  0  0  0  0  0  0
  191.7270  176.7740  147.3300 C   0  0  0  0  0  3  0  0  0  0  0  0
  192.0730  176.3690  146.1470 N   0  0  0  0  0  0  0  0  0  0  0  0
  190.8490  177.3410  142.3490 C   0  0  0  0  0  3  0  0  0  0  0  0
  189.8340  176.9870  145.1880 C   0  0  0  0  0  0  0  0  0  0  0  0
  191.2410  177.4740  141.0850 C   0  0  0  0  0  3  0  0  0  0  0  0
  188.8520  177.3840  140.2510 C   0  0  0  0  0  3  0  0  0  0  0  0
  190.2890  177.0220  147.6960 C   0  0  0  0  0  2  0  0  0  0  0  0
  187.6440  177.7180  144.3510 C   0  0  1  0  0  3  0  0  0  0  0  0
  188.1150  177.7250  146.7350 C   0  0  0  0  0  3  0  0  0  0  0  0
  191.3320  175.4180  144.1650 O   0  0  0  0  0  0  0  0  0  0  0  0
  187.1790  177.7580  142.0060 N   0  0  0  0  0  0  0  0  0  0  0  0
  186.7350  177.9120  143.2800 C   0  0  0  0  0  0  0  0  0  0  0  0
  190.2820  177.5920  140.0280 N   0  0  0  0  0  0  0  0  0  0  0  0
  189.4210  177.3270  142.7250 C   0  0  0  0  0  0  0  0  0  0  0  0
  187.2380  177.9100  145.6770 C   0  0  0  0  0  3  0  0  0  0  0  0
  183.1070  178.6420  142.4790 C   0  0  0  0  0  0  0  0  0  0  0  0
  182.6010  179.0080  143.7280 C   0  0  0  0  0  3  0  0  0  0  0  0
  185.3020  178.2660  143.4640 C   0  0  0  0  0  0  0  0  0  0  0  0
  183.4400  179.0140  144.8440 C   0  0  0  0  0  3  0  0  0  0  0  0
  184.4500  178.2800  142.3470 C   0  0  0  0  0  3  0  0  0  0  0  0
  184.7830  178.6500  144.7110 C   0  0  0  0  0  3  0  0  0  0  0  0
  182.2960  178.6430  141.3930 F   0  0  0  0  0  0  0  0  0  0  0  0
  190.7410  177.8460  138.6730 C   0  0  0  0  0  2  0  0  0  0  0  0
  190.2270  176.4940  137.5690 S   0  0  0  0  0  0  0  0  0  0  0  0
  193.6470  176.7360  138.4130 N   0  0  0  0  0  1  0  0  0  0  0  0
  192.7960  176.1770  137.3780 C   0  0  2  0  0  3  0  0  0  0  0  0
  192.5200  174.1250  136.2270 C   0  0  0  0  0  2  0  0  0  0  0  0
  191.4860  174.2320  137.3250 C   0  0  0  0  0  2  0  0  0  0  0  0
  191.6420  175.5250  137.9870 N   0  0  0  0  0  0  0  0  0  0  0  0
  193.5610  175.1410  136.5940 C   0  0  0  0  0  2  0  0  0  0  0  0
  1 13  1  0  0  0  0
  1 11  1  0  0  0  0
  2  8  1  0  0  0  0
  2  6  1  0  0  0  0
  3 12  1  0  0  0  0
  3  8  1  0  0  0  0
  4 15  1  0  0  0  0
  4 18  1  0  0  0  0
  5 11  1  0  0  0  0
  6  5  2  0  0  0  0
  7 18  1  0  0  0  0
  8  1  2  0  0  0  0
  9  7  2  0  0  0  0
 10  4  2  0  0  0  0
 12 19  1  1  0  0  0
 14  2  2  0  0  0  0
 15 16  2  0  0  0  0
 16 22  1  0  0  0  0
 16 12  1  0  0  0  0
 17 10  1  0  0  0  0
 17  9  1  0  0  0  0
 18  3  2  0  0  0  0
 19 13  2  0  0  0  0
 20 21  1  0  0  0  0
 21 23  2  0  0  0  0
 22 25  2  0  0  0  0
 24 20  2  0  0  0  0
 24 22  1  0  0  0  0
 25 23  1  0  0  0  0
 26 20  1  0  0  0  0
 27 17  1  0  0  0  0
 28 33  1  0  0  0  0
 28 27  1  0  0  0  0
 30 33  1  0  0  0  0
 30 29  1  1  0  0  0
 31 34  1  0  0  0  0
 31 32  1  0  0  0  0
 32 33  1  0  0  0  0
 34 30  1  0  0  0  0
M  END
>  <MODEL>
3

>  <REMARK>
 VINA RESULT:     -10.9      1.739      2.433
  Name = 
  4 active torsions:
  status: ('A' for Active; 'I' for Inactive)
    1  A    between atoms: C_3  and  S_13
    2  A    between atoms: C_3  and  N_29
    3  A    between atoms: C_12  and  C_28
    4  A    between atoms: S_13  and  N_33
                            x       y       z     vdW  Elec       q    Type
                         _______ _______ _______ _____ _____    ______ ____

>  <TORSDO>
F 4

$$$$
=
 OpenBabel10262419123D

 34 39  0  0  1  0  0  0  0  0999 V2000
  185.3680  178.1170  143.8000 C   0  0  0  0  0  0  0  0  0  0  0  0
  185.4930  179.0070  141.5260 C   0  0  0  0  0  0  0  0  0  0  0  0
  187.5440  177.9190  142.6750 C   0  0  0  0  0  0  0  0  0  0  0  0
  189.7370  177.5760  141.6590 C   0  0  0  0  0  0  0  0  0  0  0  0
  183.3250  178.6260  142.4310 C   0  0  0  0  0  3  0  0  0  0  0  0
  184.0700  178.9320  141.4140 N   0  0  0  0  0  0  0  0  0  0  0  0
  187.7840  177.7140  140.1540 C   0  0  0  0  0  3  0  0  0  0  0  0
  186.1650  178.3090  142.6520 C   0  0  1  0  0  3  0  0  0  0  0  0
  188.5420  177.4770  139.0870 C   0  0  0  0  0  3  0  0  0  0  0  0
  190.6600  177.5730  140.4720 C   0  0  0  0  0  3  0  0  0  0  0  0
  183.8990  178.4480  143.8110 C   0  0  0  0  0  2  0  0  0  0  0  0
  188.1300  177.5810  143.9330 C   0  0  0  0  0  0  0  0  0  0  0  0
  185.9530  177.7380  145.0020 C   0  0  0  0  0  3  0  0  0  0  0  0
  186.1310  179.7530  140.7380 O   0  0  0  0  0  0  0  0  0  0  0  0
  190.2700  177.3790  142.8870 N   0  0  0  0  0  0  0  0  0  0  0  0
  189.5230  177.3330  144.0200 C   0  0  0  0  0  0  0  0  0  0  0  0
  189.9580  177.3080  139.2170 N   0  0  0  0  0  0  0  0  0  0  0  0
  188.3550  177.7980  141.5130 C   0  0  0  0  0  0  0  0  0  0  0  0
  187.3170  177.5000  145.0710 C   0  0  0  0  0  3  0  0  0  0  0  0
  190.4480  177.3910  147.6920 C   0  0  0  0  0  0  0  0  0  0  0  0
  191.5840  176.5800  147.7180 C   0  0  0  0  0  3  0  0  0  0  0  0
  190.2350  177.0350  145.2920 C   0  0  0  0  0  0  0  0  0  0  0  0
  192.0550  176.0030  146.5370 C   0  0  0  0  0  3  0  0  0  0  0  0
  189.7820  177.6220  146.4860 C   0  0  0  0  0  3  0  0  0  0  0  0
  191.3870  176.2340  145.3320 C   0  0  0  0  0  3  0  0  0  0  0  0
  189.9930  177.9590  148.8350 F   0  0  0  0  0  0  0  0  0  0  0  0
  190.7430  176.9400  138.0510 C   0  0  0  0  0  2  0  0  0  0  0  0
  190.4220  175.2090  137.5930 S   0  0  0  0  0  0  0  0  0  0  0  0
  192.3400  173.0230  135.5910 N   0  0  0  0  0  1  0  0  0  0  0  0
  192.4330  173.7510  136.8430 C   0  0  2  0  0  3  0  0  0  0  0  0
  193.9630  175.1800  137.9540 C   0  0  0  0  0  2  0  0  0  0  0  0
  192.8790  176.0080  137.3020 C   0  0  0  0  0  2  0  0  0  0  0  0
  191.9220  175.1050  136.6670 N   0  0  0  0  0  0  0  0  0  0  0  0
  193.8770  173.8470  137.2710 C   0  0  0  0  0  2  0  0  0  0  0  0
  1 11  1  0  0  0  0
  1 13  2  0  0  0  0
  3 12  1  0  0  0  0
  4 15  1  0  0  0  0
  5 11  1  0  0  0  0
  6  2  1  0  0  0  0
  6  5  2  0  0  0  0
  7 18  1  0  0  0  0
  8  2  1  1  0  0  0
  8  3  1  0  0  0  0
  8  1  1  0  0  0  0
  9 17  1  0  0  0  0
  9  7  2  0  0  0  0
 10  4  2  0  0  0  0
 12 16  1  0  0  0  0
 12 19  2  0  0  0  0
 13 19  1  0  0  0  0
 14  2  2  0  0  0  0
 15 16  2  0  0  0  0
 16 22  1  0  0  0  0
 17 10  1  0  0  0  0
 18  4  1  0  0  0  0
 18  3  2  0  0  0  0
 20 21  1  0  0  0  0
 20 26  1  0  0  0  0
 22 25  2  0  0  0  0
 22 24  1  0  0  0  0
 23 21  2  0  0  0  0
 24 20  2  0  0  0  0
 25 23  1  0  0  0  0
 27 17  1  0  0  0  0
 28 27  1  0  0  0  0
 30 29  1  6  0  0  0
 30 34  1  0  0  0  0
 32 31  1  0  0  0  0
 33 30  1  0  0  0  0
 33 32  1  0  0  0  0
 33 28  1  0  0  0  0
 34 31  1  0  0  0  0
M  END
>  <MODEL>
4

>  <REMARK>
 VINA RESULT:     -10.4      3.174      6.140
  Name = 
  4 active torsions:
  status: ('A' for Active; 'I' for Inactive)
    1  A    between atoms: C_3  and  S_13
    2  A    between atoms: C_3  and  N_29
    3  A    between atoms: C_12  and  C_28
    4  A    between atoms: S_13  and  N_33
                            x       y       z     vdW  Elec       q    Type
                         _______ _______ _______ _____ _____    ______ ____

>  <TORSDO>
F 4

$$$$
=
 OpenBabel10262419123D

 34 39  0  0  1  0  0  0  0  0999 V2000
  183.5850  178.6390  142.1890 C   0  0  0  0  0  0  0  0  0  0  0  0
  183.7810  179.4710  139.8980 C   0  0  0  0  0  0  0  0  0  0  0  0
  185.8230  178.5210  141.1800 C   0  0  0  0  0  0  0  0  0  0  0  0
  188.0790  178.2640  140.2830 C   0  0  0  0  0  0  0  0  0  0  0  0
  181.5910  179.0040  140.7070 C   0  0  0  0  0  3  0  0  0  0  0  0
  182.3710  179.3190  139.7180 N   0  0  0  0  0  0  0  0  0  0  0  0
  186.2000  178.2590  138.6800 C   0  0  0  0  0  3  0  0  0  0  0  0
  184.4290  178.8400  141.0770 C   0  0  1  0  0  3  0  0  0  0  0  0
  187.0220  178.0300  137.6600 C   0  0  0  0  0  3  0  0  0  0  0  0
  189.0600  178.2740  139.1440 C   0  0  0  0  0  3  0  0  0  0  0  0
  182.1040  178.8940  142.1180 C   0  0  0  0  0  2  0  0  0  0  0  0
  186.3610  178.2500  142.4750 C   0  0  0  0  0  0  0  0  0  0  0  0
  184.1280  178.3250  143.4300 C   0  0  0  0  0  3  0  0  0  0  0  0
  184.4200  180.2250  139.1200 O   0  0  0  0  0  0  0  0  0  0  0  0
  188.5580  178.1280  141.5410 N   0  0  0  0  0  0  0  0  0  0  0  0
  187.7590  178.0770  142.6370 C   0  0  0  0  0  0  0  0  0  0  0  0
  188.4370  177.9380  137.8640 N   0  0  0  0  0  0  0  0  0  0  0  0
  186.6970  178.4100  140.0630 C   0  0  0  0  0  0  0  0  0  0  0  0
  185.4970  178.1590  143.5730 C   0  0  0  0  0  3  0  0  0  0  0  0
  190.4720  177.5780  145.2310 C   0  0  0  0  0  0  0  0  0  0  0  0
  189.7280  177.3470  146.3890 C   0  0  0  0  0  3  0  0  0  0  0  0
  188.4190  177.8510  143.9510 C   0  0  0  0  0  0  0  0  0  0  0  0
  188.3330  177.3560  146.3340 C   0  0  0  0  0  3  0  0  0  0  0  0
  189.8220  177.8230  144.0190 C   0  0  0  0  0  3  0  0  0  0  0  0
  187.6830  177.6030  145.1210 C   0  0  0  0  0  3  0  0  0  0  0  0
  191.8260  177.5610  145.2810 F   0  0  0  0  0  0  0  0  0  0  0  0
  189.2970  177.5790  136.7500 C   0  0  0  0  0  2  0  0  0  0  0  0
  188.4920  176.3210  135.7110 S   0  0  0  0  0  0  0  0  0  0  0  0
  190.5120  174.1560  137.6340 N   0  0  0  0  0  1  0  0  0  0  0  0
  189.3870  174.1030  136.7180 C   0  0  2  0  0  3  0  0  0  0  0  0
  187.2390  173.1110  136.6030 C   0  0  0  0  0  2  0  0  0  0  0  0
  187.1060  174.5570  137.0260 C   0  0  0  0  0  2  0  0  0  0  0  0
  188.4370  175.1610  137.0410 N   0  0  0  0  0  0  0  0  0  0  0  0
  188.6800  172.7780  136.8550 C   0  0  0  0  0  2  0  0  0  0  0  0
  1 13  2  0  0  0  0
  3 12  1  0  0  0  0
  4 15  1  0  0  0  0
  5 11  1  0  0  0  0
  6  2  1  0  0  0  0
  6  5  2  0  0  0  0
  7 18  1  0  0  0  0
  8  2  1  1  0  0  0
  8  3  1  0  0  0  0
  8  1  1  0  0  0  0
  9 17  1  0  0  0  0
  9  7  2  0  0  0  0
 10  4  2  0  0  0  0
 11  1  1  0  0  0  0
 12 16  1  0  0  0  0
 12 19  2  0  0  0  0
 13 19  1  0  0  0  0
 14  2  2  0  0  0  0
 15 16  2  0  0  0  0
 16 22  1  0  0  0  0
 17 10  1  0  0  0  0
 18  4  1  0  0  0  0
 18  3  2  0  0  0  0
 20 26  1  0  0  0  0
 20 21  1  0  0  0  0
 22 24  1  0  0  0  0
 22 25  2  0  0  0  0
 23 21  2  0  0  0  0
 24 20  2  0  0  0  0
 25 23  1  0  0  0  0
 27 17  1  0  0  0  0
 28 27  1  0  0  0  0
 28 33  1  0  0  0  0
 30 34  1  0  0  0  0
 30 33  1  0  0  0  0
 30 29  1  1  0  0  0
 31 34  1  0  0  0  0
 31 32  1  0  0  0  0
 32 33  1  0  0  0  0
M  END
>  <MODEL>
5

>  <REMARK>
 VINA RESULT:     -10.3      3.332      6.246
  Name = 
  4 active torsions:
  status: ('A' for Active; 'I' for Inactive)
    1  A    between atoms: C_3  and  S_13
    2  A    between atoms: C_3  and  N_29
    3  A    between atoms: C_12  and  C_28
    4  A    between atoms: S_13  and  N_33
                            x       y       z     vdW  Elec       q    Type
                         _______ _______ _______ _____ _____    ______ ____

>  <TORSDO>
F 4

$$$$
=
 OpenBabel10262419123D

 34 39  0  0  1  0  0  0  0  0999 V2000
  188.6090  177.4930  146.0970 C   0  0  0  0  0  0  0  0  0  0  0  0
  186.6420  178.6930  146.9140 C   0  0  0  0  0  0  0  0  0  0  0  0
  186.9780  178.1890  144.3950 C   0  0  0  0  0  0  0  0  0  0  0  0
  185.4120  178.7400  142.6060 C   0  0  0  0  0  0  0  0  0  0  0  0
  187.9300  177.4910  148.5150 C   0  0  0  0  0  3  0  0  0  0  0  0
  186.8620  178.1690  148.2260 N   0  0  0  0  0  0  0  0  0  0  0  0
  184.4960  178.4410  144.8800 C   0  0  0  0  0  3  0  0  0  0  0  0
  187.3800  178.1010  145.7690 C   0  0  0  0  0  0  0  0  0  0  0  0
  183.2530  178.6230  144.4450 C   0  0  0  0  0  3  0  0  0  0  0  0
  184.0690  179.2130  142.1210 C   0  0  0  0  0  3  0  0  0  0  0  0
  189.0500  177.3150  147.5250 C   0  0  0  0  0  2  0  0  0  0  0  0
  187.9440  177.8860  143.3880 C   0  0  1  0  0  3  0  0  0  0  0  0
  189.5130  177.1600  145.0950 C   0  0  0  0  0  3  0  0  0  0  0  0
  185.9170  179.7130  146.7760 O   0  0  0  0  0  0  0  0  0  0  0  0
  186.3940  178.5550  141.6950 N   0  0  0  0  0  0  0  0  0  0  0  0
  187.6320  178.1030  142.0220 C   0  0  0  0  0  0  0  0  0  0  0  0
  182.9950  178.9150  143.0670 N   0  0  0  0  0  0  0  0  0  0  0  0
  185.6590  178.5120  143.9720 C   0  0  0  0  0  0  0  0  0  0  0  0
  189.1940  177.3780  143.7640 C   0  0  0  0  0  3  0  0  0  0  0  0
  189.2500  178.3190  138.6050 C   0  0  0  0  0  0  0  0  0  0  0  0
  190.3170  177.4270  138.7320 C   0  0  0  0  0  3  0  0  0  0  0  0
  188.5910  177.8760  140.9070 C   0  0  0  0  0  0  0  0  0  0  0  0
  190.5210  176.7520  139.9370 C   0  0  0  0  0  3  0  0  0  0  0  0
  188.3890  178.5370  139.6830 C   0  0  0  0  0  3  0  0  0  0  0  0
  189.6590  176.9720  141.0150 C   0  0  0  0  0  3  0  0  0  0  0  0
  189.0460  178.9690  137.4340 F   0  0  0  0  0  0  0  0  0  0  0  0
  181.6210  179.0000  142.6010 C   0  0  0  0  0  2  0  0  0  0  0  0
  181.5710  179.0160  140.7820 S   0  0  0  0  0  0  0  0  0  0  0  0
  182.6410  175.9880  139.3130 N   0  0  0  0  0  1  0  0  0  0  0  0
  181.4800  176.8590  139.3410 C   0  0  2  0  0  3  0  0  0  0  0  0
  179.1370  176.6810  139.6440 C   0  0  0  0  0  2  0  0  0  0  0  0
  179.7810  177.1360  140.9340 C   0  0  0  0  0  2  0  0  0  0  0  0
  181.2160  177.2870  140.7100 N   0  0  0  0  0  0  0  0  0  0  0  0
  180.2690  176.1110  138.8420 C   0  0  0  0  0  2  0  0  0  0  0  0
  1 11  1  0  0  0  0
  2  6  1  0  0  0  0
  3  8  1  0  0  0  0
  4 18  1  0  0  0  0
  6  5  2  0  0  0  0
  8  1  2  0  0  0  0
  8  2  1  0  0  0  0
  9  7  2  0  0  0  0
 10  4  2  0  0  0  0
 10 17  1  0  0  0  0
 11  5  1  0  0  0  0
 12 19  1  1  0  0  0
 12  3  1  0  0  0  0
 13  1  1  0  0  0  0
 14  2  2  0  0  0  0
 15 16  2  0  0  0  0
 15  4  1  0  0  0  0
 16 12  1  0  0  0  0
 17  9  1  0  0  0  0
 18  3  2  0  0  0  0
 18  7  1  0  0  0  0
 19 13  2  0  0  0  0
 20 21  2  0  0  0  0
 20 24  1  0  0  0  0
 21 23  1  0  0  0  0
 22 25  1  0  0  0  0
 22 16  1  0  0  0  0
 23 25  2  0  0  0  0
 24 22  2  0  0  0  0
 26 20  1  0  0  0  0
 27 17  1  0  0  0  0
 28 27  1  0  0  0  0
 30 29  1  1  0  0  0
 30 33  1  0  0  0  0
 31 32  1  0  0  0  0
 33 28  1  0  0  0  0
 33 32  1  0  0  0  0
 34 30  1  0  0  0  0
 34 31  1  0  0  0  0
M  END
>  <MODEL>
6

>  <REMARK>
 VINA RESULT:     -10.1      3.147      6.444
  Name = 
  4 active torsions:
  status: ('A' for Active; 'I' for Inactive)
    1  A    between atoms: C_3  and  S_13
    2  A    between atoms: C_3  and  N_29
    3  A    between atoms: C_12  and  C_28
    4  A    between atoms: S_13  and  N_33
                            x       y       z     vdW  Elec       q    Type
                         _______ _______ _______ _____ _____    ______ ____

>  <TORSDO>
F 4

$$$$
=
 OpenBabel10262419123D

 34 39  0  0  1  0  0  0  0  0999 V2000
  186.0500  177.8990  137.0990 C   0  0  0  0  0  0  0  0  0  0  0  0
  188.4640  178.2790  137.0130 C   0  0  0  0  0  0  0  0  0  0  0  0
  187.1910  178.1240  139.2650 C   0  0  0  0  0  0  0  0  0  0  0  0
  188.1960  178.2430  141.4860 C   0  0  0  0  0  0  0  0  0  0  0  0
  187.4150  177.4700  135.0350 C   0  0  0  0  0  3  0  0  0  0  0  0
  188.5020  177.7600  135.6820 N   0  0  0  0  0  0  0  0  0  0  0  0
  189.6190  177.4670  139.6230 C   0  0  0  0  0  3  0  0  0  0  0  0
  187.2420  178.0700  137.8330 C   0  0  1  0  0  3  0  0  0  0  0  0
  190.6400  177.2440  140.4450 C   0  0  0  0  0  3  0  0  0  0  0  0
  189.3900  178.2610  142.3990 C   0  0  0  0  0  3  0  0  0  0  0  0
  186.0520  177.7710  135.6000 C   0  0  0  0  0  2  0  0  0  0  0  0
  185.9140  178.2530  139.8900 C   0  0  0  0  0  0  0  0  0  0  0  0
  184.8190  177.9770  137.7390 C   0  0  0  0  0  3  0  0  0  0  0  0
  189.4160  178.9950  137.4200 O   0  0  0  0  0  0  0  0  0  0  0  0
  186.9760  178.4800  142.0200 N   0  0  0  0  0  0  0  0  0  0  0  0
  185.8310  178.4570  141.2910 C   0  0  0  0  0  0  0  0  0  0  0  0
  190.5330  177.5380  141.8430 N   0  0  0  0  0  0  0  0  0  0  0  0
  188.3320  178.0060  140.1060 C   0  0  0  0  0  0  0  0  0  0  0  0
  184.7540  178.1780  139.1090 C   0  0  0  0  0  3  0  0  0  0  0  0
  183.3970  178.9920  144.1420 C   0  0  0  0  0  0  0  0  0  0  0  0
  182.1670  178.9740  143.4810 C   0  0  0  0  0  3  0  0  0  0  0  0
  184.5530  178.6640  142.0250 C   0  0  0  0  0  0  0  0  0  0  0  0
  182.1220  178.7930  142.0970 C   0  0  0  0  0  3  0  0  0  0  0  0
  184.5810  178.8310  143.4190 C   0  0  0  0  0  3  0  0  0  0  0  0
  183.3080  178.6340  141.3750 C   0  0  0  0  0  3  0  0  0  0  0  0
  183.4420  179.1600  145.4860 F   0  0  0  0  0  0  0  0  0  0  0  0
  191.6250  177.1810  142.7330 C   0  0  0  0  0  2  0  0  0  0  0  0
  191.5610  178.1890  144.2460 S   0  0  0  0  0  0  0  0  0  0  0  0
  188.3950  177.1930  145.4510 N   0  0  0  0  0  1  0  0  0  0  0  0
  189.7090  177.5560  145.9500 C   0  0  2  0  0  3  0  0  0  0  0  0
  191.3160  176.7250  147.4810 C   0  0  0  0  0  2  0  0  0  0  0  0
  191.7150  176.3460  146.0730 C   0  0  0  0  0  2  0  0  0  0  0  0
  190.7390  176.9110  145.1440 N   0  0  0  0  0  0  0  0  0  0  0  0
  189.8630  177.0820  147.3740 C   0  0  0  0  0  2  0  0  0  0  0  0
  1 13  2  0  0  0  0
  1  8  1  0  0  0  0
  2 14  2  0  0  0  0
  3 12  1  0  0  0  0
  3 18  2  0  0  0  0
  4 15  1  0  0  0  0
  4 10  2  0  0  0  0
  5 11  1  0  0  0  0
  5  6  2  0  0  0  0
  6  2  1  0  0  0  0
  7 18  1  0  0  0  0
  7  9  2  0  0  0  0
  8  2  1  6  0  0  0
  8  3  1  0  0  0  0
  9 17  1  0  0  0  0
 11  1  1  0  0  0  0
 12 16  1  0  0  0  0
 13 19  1  0  0  0  0
 16 15  2  0  0  0  0
 16 22  1  0  0  0  0
 17 10  1  0  0  0  0
 17 27  1  0  0  0  0
 18  4  1  0  0  0  0
 19 12  2  0  0  0  0
 20 26  1  0  0  0  0
 21 20  1  0  0  0  0
 22 24  1  0  0  0  0
 23 21  2  0  0  0  0
 24 20  2  0  0  0  0
 25 22  2  0  0  0  0
 25 23  1  0  0  0  0
 27 28  1  0  0  0  0
 28 33  1  0  0  0  0
 30 29  1  6  0  0  0
 30 34  1  0  0  0  0
 32 31  1  0  0  0  0
 33 30  1  0  0  0  0
 33 32  1  0  0  0  0
 34 31  1  0  0  0  0
M  END
>  <MODEL>
7

>  <REMARK>
 VINA RESULT:     -10.1      2.723      7.202
  Name = 
  4 active torsions:
  status: ('A' for Active; 'I' for Inactive)
    1  A    between atoms: C_3  and  S_13
    2  A    between atoms: C_3  and  N_29
    3  A    between atoms: C_12  and  C_28
    4  A    between atoms: S_13  and  N_33
                            x       y       z     vdW  Elec       q    Type
                         _______ _______ _______ _____ _____    ______ ____

>  <TORSDO>
F 4

$$$$
=
 OpenBabel10262419123D

 34 39  0  0  1  0  0  0  0  0999 V2000
  183.6760  178.6520  142.1970 C   0  0  0  0  0  0  0  0  0  0  0  0
  183.9570  179.4060  139.8880 C   0  0  0  0  0  0  0  0  0  0  0  0
  185.9450  178.4790  141.2670 C   0  0  0  0  0  0  0  0  0  0  0  0
  188.2260  178.1700  140.4560 C   0  0  0  0  0  0  0  0  0  0  0  0
  181.7360  178.9870  140.6380 C   0  0  0  0  0  3  0  0  0  0  0  0
  182.5520  179.2620  139.6660 N   0  0  0  0  0  0  0  0  0  0  0  0
  186.4010  178.1310  138.7920 C   0  0  0  0  0  3  0  0  0  0  0  0
  184.5580  178.8070  141.1080 C   0  0  1  0  0  3  0  0  0  0  0  0
  187.2540  177.8610  137.8080 C   0  0  0  0  0  3  0  0  0  0  0  0
  189.2440  178.1340  139.3500 C   0  0  0  0  0  3  0  0  0  0  0  0
  182.2000  178.9190  142.0680 C   0  0  0  0  0  2  0  0  0  0  0  0
  186.4360  178.2450  142.5880 C   0  0  0  0  0  0  0  0  0  0  0  0
  184.1730  178.3730  143.4650 C   0  0  0  0  0  3  0  0  0  0  0  0
  184.6290  180.1280  139.1070 O   0  0  0  0  0  0  0  0  0  0  0  0
  188.6620  178.0720  141.7330 N   0  0  0  0  0  0  0  0  0  0  0  0
  187.8260  178.0640  142.8020 C   0  0  0  0  0  0  0  0  0  0  0  0
  188.6600  177.7620  138.0620 N   0  0  0  0  0  0  0  0  0  0  0  0
  186.8540  178.3230  140.1850 C   0  0  0  0  0  0  0  0  0  0  0  0
  185.5350  178.1990  143.6590 C   0  0  0  0  0  3  0  0  0  0  0  0
  190.4360  177.5070  145.4890 C   0  0  0  0  0  0  0  0  0  0  0  0
  189.6540  177.4320  146.6430 C   0  0  0  0  0  3  0  0  0  0  0  0
  188.4390  177.8750  144.1450 C   0  0  0  0  0  0  0  0  0  0  0  0
  188.2670  177.5670  146.5540 C   0  0  0  0  0  3  0  0  0  0  0  0
  189.8320  177.7210  144.2470 C   0  0  0  0  0  3  0  0  0  0  0  0
  187.6640  177.7830  145.3120 C   0  0  0  0  0  3  0  0  0  0  0  0
  191.7810  177.3670  145.5710 F   0  0  0  0  0  0  0  0  0  0  0  0
  189.5530  177.3580  136.9890 C   0  0  0  0  0  2  0  0  0  0  0  0
  190.3420  175.7690  137.3900 S   0  0  0  0  0  0  0  0  0  0  0  0
  192.4840  176.0250  134.5940 N   0  0  0  0  0  1  0  0  0  0  0  0
  192.4390  175.4030  135.9050 C   0  0  2  0  0  3  0  0  0  0  0  0
  193.8280  175.1850  137.8120 C   0  0  0  0  0  2  0  0  0  0  0  0
  192.8050  176.2730  138.0530 C   0  0  0  0  0  2  0  0  0  0  0  0
  191.9300  176.3540  136.8860 N   0  0  0  0  0  0  0  0  0  0  0  0
  193.8300  174.9960  136.3240 C   0  0  0  0  0  2  0  0  0  0  0  0
  1 13  2  0  0  0  0
  3 12  1  0  0  0  0
  4 15  1  0  0  0  0
  5 11  1  0  0  0  0
  6  2  1  0  0  0  0
  6  5  2  0  0  0  0
  7 18  1  0  0  0  0
  8  2  1  1  0  0  0
  8  3  1  0  0  0  0
  8  1  1  0  0  0  0
  9 17  1  0  0  0  0
  9  7  2  0  0  0  0
 10  4  2  0  0  0  0
 11  1  1  0  0  0  0
 12 16  1  0  0  0  0
 12 19  2  0  0  0  0
 13 19  1  0  0  0  0
 14  2  2  0  0  0  0
 15 16  2  0  0  0  0
 16 22  1  0  0  0  0
 17 10  1  0  0  0  0
 18  4  1  0  0  0  0
 18  3  2  0  0  0  0
 20 26  1  0  0  0  0
 20 21  1  0  0  0  0
 22 24  1  0  0  0  0
 22 25  2  0  0  0  0
 23 21  2  0  0  0  0
 24 20  2  0  0  0  0
 25 23  1  0  0  0  0
 27 28  1  0  0  0  0
 27 17  1  0  0  0  0
 30 29  1  6  0  0  0
 30 34  1  0  0  0  0
 30 33  1  0  0  0  0
 31 32  1  0  0  0  0
 33 28  1  0  0  0  0
 33 32  1  0  0  0  0
 34 31  1  0  0  0  0
M  END
>  <MODEL>
8

>  <REMARK>
 VINA RESULT:     -10.1      3.216      6.216
  Name = 
  4 active torsions:
  status: ('A' for Active; 'I' for Inactive)
    1  A    between atoms: C_3  and  S_13
    2  A    between atoms: C_3  and  N_29
    3  A    between atoms: C_12  and  C_28
    4  A    between atoms: S_13  and  N_33
                            x       y       z     vdW  Elec       q    Type
                         _______ _______ _______ _____ _____    ______ ____

>  <TORSDO>
F 4

$$$$
=
 OpenBabel10262419123D

 34 39  0  0  1  0  0  0  0  0999 V2000
  186.6100  177.8640  145.0250 C   0  0  0  0  0  0  0  0  0  0  0  0
  184.5700  179.1960  144.8170 C   0  0  0  0  0  0  0  0  0  0  0  0
  185.8970  178.4070  142.7360 C   0  0  0  0  0  0  0  0  0  0  0  0
  185.2690  178.7940  140.4100 C   0  0  0  0  0  0  0  0  0  0  0  0
  184.9800  178.1480  146.9150 C   0  0  0  0  0  3  0  0  0  0  0  0
  184.1820  178.8160  146.1390 N   0  0  0  0  0  0  0  0  0  0  0  0
  183.4650  178.7730  142.0960 C   0  0  0  0  0  3  0  0  0  0  0  0
  185.6770  178.4620  144.1520 C   0  0  0  0  0  0  0  0  0  0  0  0
  182.5360  178.9360  141.1590 C   0  0  0  0  0  3  0  0  0  0  0  0
  184.2910  179.2430  139.3600 C   0  0  0  0  0  3  0  0  0  0  0  0
  186.3970  177.8360  146.5150 C   0  0  0  0  0  2  0  0  0  0  0  0
  187.1730  177.9700  142.2670 C   0  0  1  0  0  3  0  0  0  0  0  0
  187.8250  177.3990  144.5370 C   0  0  0  0  0  3  0  0  0  0  0  0
  184.0430  180.2120  144.2920 O   0  0  0  0  0  0  0  0  0  0  0  0
  186.5280  178.4840  140.0230 N   0  0  0  0  0  0  0  0  0  0  0  0
  187.4790  178.0410  140.8840 C   0  0  0  0  0  0  0  0  0  0  0  0
  182.9010  179.0790  139.7810 N   0  0  0  0  0  0  0  0  0  0  0  0
  184.9030  178.7130  141.7660 C   0  0  0  0  0  0  0  0  0  0  0  0
  188.1100  177.4760  143.1830 C   0  0  0  0  0  3  0  0  0  0  0  0
  191.1950  177.3640  140.6160 C   0  0  0  0  0  0  0  0  0  0  0  0
  191.3370  177.0550  139.2620 C   0  0  0  0  0  3  0  0  0  0  0  0
  188.7990  177.6680  140.3080 C   0  0  0  0  0  0  0  0  0  0  0  0
  190.2190  177.0600  138.4250 C   0  0  0  0  0  3  0  0  0  0  0  0
  189.9360  177.6750  141.1340 C   0  0  0  0  0  3  0  0  0  0  0  0
  188.9590  177.3700  138.9450 C   0  0  0  0  0  3  0  0  0  0  0  0
  192.2800  177.3680  141.4280 F   0  0  0  0  0  0  0  0  0  0  0  0
  181.8590  179.1450  138.7700 C   0  0  0  0  0  2  0  0  0  0  0  0
  180.8040  180.6010  139.0450 S   0  0  0  0  0  0  0  0  0  0  0  0
  181.5170  183.7220  137.5560 N   0  0  0  0  0  1  0  0  0  0  0  0
  180.5990  182.6070  137.4110 C   0  0  2  0  0  3  0  0  0  0  0  0
  179.7730  181.2020  135.6910 C   0  0  0  0  0  2  0  0  0  0  0  0
  180.8690  180.4850  136.4480 C   0  0  0  0  0  2  0  0  0  0  0  0
  181.3270  181.3490  137.5330 N   0  0  0  0  0  0  0  0  0  0  0  0
  179.9590  182.6480  136.0460 C   0  0  0  0  0  2  0  0  0  0  0  0
  1 11  1  0  0  0  0
  2  6  1  0  0  0  0
  3  8  1  0  0  0  0
  4 18  1  0  0  0  0
  6  5  2  0  0  0  0
  8  2  1  0  0  0  0
  8  1  2  0  0  0  0
  9  7  2  0  0  0  0
 10 17  1  0  0  0  0
 10  4  2  0  0  0  0
 11  5  1  0  0  0  0
 12  3  1  0  0  0  0
 12 19  1  1  0  0  0
 13  1  1  0  0  0  0
 14  2  2  0  0  0  0
 15  4  1  0  0  0  0
 15 16  2  0  0  0  0
 16 12  1  0  0  0  0
 17  9  1  0  0  0  0
 18  7  1  0  0  0  0
 18  3  2  0  0  0  0
 19 13  2  0  0  0  0
 20 24  1  0  0  0  0
 20 26  1  0  0  0  0
 21 20  2  0  0  0  0
 22 16  1  0  0  0  0
 22 24  2  0  0  0  0
 23 25  2  0  0  0  0
 23 21  1  0  0  0  0
 25 22  1  0  0  0  0
 27 28  1  0  0  0  0
 27 17  1  0  0  0  0
 30 33  1  0  0  0  0
 30 29  1  6  0  0  0
 31 34  1  0  0  0  0
 31 32  1  0  0  0  0
 32 33  1  0  0  0  0
 33 28  1  0  0  0  0
 34 30  1  0  0  0  0
M  END
>  <MODEL>
9

>  <REMARK>
 VINA RESULT:      -9.9      4.419      7.171
  Name = 
  4 active torsions:
  status: ('A' for Active; 'I' for Inactive)
    1  A    between atoms: C_3  and  S_13
    2  A    between atoms: C_3  and  N_29
    3  A    between atoms: C_12  and  C_28
    4  A    between atoms: S_13  and  N_33
                            x       y       z     vdW  Elec       q    Type
                         _______ _______ _______ _____ _____    ______ ____

>  <TORSDO>
F 4

$$$$
