=
 OpenBabel10262421533D

 30 32  0  0  1  0  0  0  0  0999 V2000
  186.4500  177.5070  145.1570 C   0  0  2  0  0  3  0  0  0  0  0  0
  186.4820  178.2320  143.8860 N   0  0  0  0  0  2  0  0  0  0  0  0
  184.1200  178.8230  144.2940 C   0  0  0  0  0  3  0  0  0  0  0  0
  185.6700  178.3410  146.1800 C   0  0  0  0  0  2  0  0  0  0  0  0
  185.1210  178.2280  143.3310 C   0  0  1  0  0  3  0  0  0  0  0  0
  184.3620  178.8290  145.6120 C   0  0  0  0  0  3  0  0  0  0  0  0
  185.0500  178.8920  142.0210 N   0  0  0  0  0  0  0  0  0  0  0  0
  186.3670  178.9370  141.3950 C   0  0  0  0  0  1  0  0  0  0  0  0
  184.1810  178.1130  141.1500 C   0  0  0  0  0  2  0  0  0  0  0  0
  181.2880  178.4770  137.9580 C   0  0  1  0  0  3  0  0  0  0  0  0
  180.3930  179.0260  139.0730 C   0  0  0  0  0  2  0  0  0  0  0  0
  181.1960  179.3870  136.7500 C   0  0  0  0  0  1  0  0  0  0  0  0
  182.9780  178.9410  140.7200 C   0  0  2  0  0  3  0  0  0  0  0  0
  180.5510  178.2440  140.3420 C   0  0  0  0  0  3  0  0  0  0  0  0
  182.7510  178.3330  138.3870 C   0  0  0  0  0  2  0  0  0  0  0  0
  181.6930  178.2020  141.0480 C   0  0  0  0  0  3  0  0  0  0  0  0
  183.1170  179.3920  139.3260 N   0  0  0  0  0  2  0  0  0  0  0  0
  188.0930  177.9200  146.8560 O   0  0  0  0  0  1  0  0  0  0  0  0
  187.8710  177.2230  145.6630 C   0  0  2  0  0  3  0  0  0  0  0  0
  190.9250  179.7370  143.9120 O   0  0  0  0  0  1  0  0  0  0  0  0
  188.9950  176.7170  143.4150 C   0  0  0  0  0  2  0  0  0  0  0  0
  190.3390  177.8300  145.2530 C   0  0  1  0  0  3  0  0  0  0  0  0
  191.3710  177.5890  142.9350 C   0  0  0  0  0  2  0  0  0  0  0  0
  191.3010  178.4280  144.2170 C   0  0  1  0  0  3  0  0  0  0  0  0
  188.9350  177.6430  144.6350 C   0  0  2  0  0  3  0  0  0  0  0  0
  189.8310  177.0060  141.1870 N   0  0  0  0  0  2  0  0  0  0  0  0
  190.0000  177.2380  142.4350 C   0  0  0  0  0  0  0  0  0  0  0  0
  190.9230  176.5320  145.8170 C   0  0  0  0  0  2  0  0  0  0  0  0
  192.4280  175.7230  147.6340 C   0  0  0  0  0  1  0  0  0  0  0  0
  191.3000  176.6760  147.2820 C   0  0  0  0  0  2  0  0  0  0  0  0
  1 19  1  1  0  0  0
  1  4  1  0  0  0  0
  2  1  1  0  0  0  0
  3  6  2  0  0  0  0
  5  7  1  6  0  0  0
  5  2  1  0  0  0  0
  5  3  1  0  0  0  0
  6  4  1  0  0  0  0
  8  7  1  0  0  0  0
  9  7  1  0  0  0  0
 10 12  1  6  0  0  0
 10 15  1  0  0  0  0
 10 11  1  0  0  0  0
 11 14  1  0  0  0  0
 13 16  1  0  0  0  0
 13  9  1  6  0  0  0
 14 16  2  0  0  0  0
 15 17  1  0  0  0  0
 17 13  1  0  0  0  0
 19 18  1  1  0  0  0
 21 25  1  0  0  0  0
 22 28  1  6  0  0  0
 23 24  1  0  0  0  0
 24 20  1  6  0  0  0
 24 22  1  0  0  0  0
 25 22  1  0  0  0  0
 25 19  1  1  0  0  0
 26 27  2  0  0  0  0
 27 23  1  0  0  0  0
 27 21  1  0  0  0  0
 28 30  1  0  0  0  0
 30 29  1  0  0  0  0
M  END
>  <MODEL>
1

>  <REMARK>
 VINA RESULT:      -8.7      0.000      0.000
  Name = 
  7 active torsions:
  status: ('A' for Active; 'I' for Inactive)
    1  A    between atoms: C_3  and  N_11
    2  A    between atoms: C_3  and  C_19
    3  A    between atoms: C_4  and  C_8
    4  A    between atoms: C_4  and  C_23
    5  A    between atoms: C_7  and  C_30
    6  A    between atoms: N_11  and  C_25
    7  A    between atoms: C_13  and  C_30
                            x       y       z     vdW  Elec       q    Type
                         _______ _______ _______ _____ _____    ______ ____

>  <TORSDO>
F 7

$$$$
=
 OpenBabel10262421533D

 30 32  0  0  1  0  0  0  0  0999 V2000
  186.0110  177.7470  144.5610 C   0  0  2  0  0  3  0  0  0  0  0  0
  186.3820  178.0350  143.1740 N   0  0  0  0  0  2  0  0  0  0  0  0
  184.1350  179.0170  142.8980 C   0  0  0  0  0  3  0  0  0  0  0  0
  185.2430  178.9470  145.1240 C   0  0  0  0  0  2  0  0  0  0  0  0
  185.1520  178.0330  142.3700 C   0  0  1  0  0  3  0  0  0  0  0  0
  184.1560  179.3980  144.1830 C   0  0  0  0  0  3  0  0  0  0  0  0
  185.4180  178.2650  140.9420 N   0  0  0  0  0  0  0  0  0  0  0  0
  184.5140  179.2770  140.4080 C   0  0  0  0  0  1  0  0  0  0  0  0
  186.7750  178.7730  140.7970 C   0  0  0  0  0  2  0  0  0  0  0  0
  187.7780  178.5090  136.6000 C   0  0  1  0  0  3  0  0  0  0  0  0
  189.0440  177.8290  137.1300 C   0  0  0  0  0  2  0  0  0  0  0  0
  187.2140  177.6930  135.4560 C   0  0  0  0  0  1  0  0  0  0  0  0
  187.5600  177.9190  139.8110 C   0  0  2  0  0  3  0  0  0  0  0  0
  189.5690  178.5160  138.3540 C   0  0  0  0  0  3  0  0  0  0  0  0
  186.7090  178.6950  137.6800 C   0  0  0  0  0  2  0  0  0  0  0  0
  188.9030  178.5630  139.5190 C   0  0  0  0  0  3  0  0  0  0  0  0
  186.7430  177.5870  138.6320 N   0  0  0  0  0  2  0  0  0  0  0  0
  187.3110  178.3490  146.4850 O   0  0  0  0  0  1  0  0  0  0  0  0
  187.2550  177.4540  145.4110 C   0  0  2  0  0  3  0  0  0  0  0  0
  190.8360  179.3630  143.9120 O   0  0  0  0  0  1  0  0  0  0  0  0
  188.7810  176.3970  143.6430 C   0  0  0  0  0  2  0  0  0  0  0  0
  189.8000  177.8420  145.4590 C   0  0  1  0  0  3  0  0  0  0  0  0
  191.2760  177.0310  143.5450 C   0  0  0  0  0  2  0  0  0  0  0  0
  191.0120  178.1440  144.5680 C   0  0  1  0  0  3  0  0  0  0  0  0
  188.5490  177.5800  144.5890 C   0  0  2  0  0  3  0  0  0  0  0  0
  190.0970  176.1310  141.6560 N   0  0  0  0  0  2  0  0  0  0  0  0
  190.0160  176.6340  142.8310 C   0  0  0  0  0  0  0  0  0  0  0  0
  190.1240  176.6840  146.4060 C   0  0  0  0  0  2  0  0  0  0  0  0
  192.2490  175.6420  147.1920 C   0  0  0  0  0  1  0  0  0  0  0  0
  191.4270  176.9160  147.1530 C   0  0  0  0  0  2  0  0  0  0  0  0
  1  4  1  0  0  0  0
  1 19  1  1  0  0  0
  2  1  1  0  0  0  0
  3  6  2  0  0  0  0
  5  7  1  6  0  0  0
  5  3  1  0  0  0  0
  5  2  1  0  0  0  0
  6  4  1  0  0  0  0
  8  7  1  0  0  0  0
  9  7  1  0  0  0  0
 10 12  1  6  0  0  0
 10 11  1  0  0  0  0
 10 15  1  0  0  0  0
 11 14  1  0  0  0  0
 13  9  1  1  0  0  0
 14 16  2  0  0  0  0
 15 17  1  0  0  0  0
 16 13  1  0  0  0  0
 17 13  1  0  0  0  0
 19 18  1  1  0  0  0
 21 25  1  0  0  0  0
 22 28  1  6  0  0  0
 23 24  1  0  0  0  0
 24 20  1  6  0  0  0
 24 22  1  0  0  0  0
 25 19  1  1  0  0  0
 25 22  1  0  0  0  0
 26 27  2  0  0  0  0
 27 23  1  0  0  0  0
 27 21  1  0  0  0  0
 28 30  1  0  0  0  0
 30 29  1  0  0  0  0
M  END
>  <MODEL>
2

>  <REMARK>
 VINA RESULT:      -8.2      2.309      3.598
  Name = 
  7 active torsions:
  status: ('A' for Active; 'I' for Inactive)
    1  A    between atoms: C_3  and  N_11
    2  A    between atoms: C_3  and  C_19
    3  A    between atoms: C_4  and  C_8
    4  A    between atoms: C_4  and  C_23
    5  A    between atoms: C_7  and  C_30
    6  A    between atoms: N_11  and  C_25
    7  A    between atoms: C_13  and  C_30
                            x       y       z     vdW  Elec       q    Type
                         _______ _______ _______ _____ _____    ______ ____

>  <TORSDO>
F 7

$$$$
=
 OpenBabel10262421533D

 30 32  0  0  1  0  0  0  0  0999 V2000
  185.8220  177.7590  143.2810 C   0  0  2  0  0  3  0  0  0  0  0  0
  186.5870  178.3750  142.1950 N   0  0  0  0  0  2  0  0  0  0  0  0
  184.4310  178.7950  141.0690 C   0  0  0  0  0  3  0  0  0  0  0  0
  184.5730  178.6070  143.5460 C   0  0  0  0  0  2  0  0  0  0  0  0
  185.8180  178.2090  140.9530 C   0  0  1  0  0  3  0  0  0  0  0  0
  183.8450  178.9320  142.2670 C   0  0  0  0  0  3  0  0  0  0  0  0
  186.5230  178.7510  139.7830 N   0  0  0  0  0  0  0  0  0  0  0  0
  187.9240  178.3450  139.7930 C   0  0  0  0  0  1  0  0  0  0  0  0
  185.9190  178.2010  138.5770 C   0  0  0  0  0  2  0  0  0  0  0  0
  186.4010  175.6900  135.0910 C   0  0  1  0  0  3  0  0  0  0  0  0
  187.6490  176.5490  134.8670 C   0  0  0  0  0  2  0  0  0  0  0  0
  186.7600  174.2290  134.9160 C   0  0  0  0  0  1  0  0  0  0  0  0
  186.9900  177.6280  137.6600 C   0  0  2  0  0  3  0  0  0  0  0  0
  187.3860  177.9930  135.1640 C   0  0  0  0  0  3  0  0  0  0  0  0
  185.7710  175.9070  136.4700 C   0  0  0  0  0  2  0  0  0  0  0  0
  187.0840  178.4530  136.3890 C   0  0  0  0  0  3  0  0  0  0  0  0
  186.8040  176.1810  137.4670 N   0  0  0  0  0  2  0  0  0  0  0  0
  186.4070  178.7210  145.4000 O   0  0  0  0  0  1  0  0  0  0  0  0
  186.6750  177.6400  144.5530 C   0  0  2  0  0  3  0  0  0  0  0  0
  190.6750  179.2400  144.1730 O   0  0  0  0  0  1  0  0  0  0  0  0
  188.6400  176.3060  143.5900 C   0  0  0  0  0  2  0  0  0  0  0  0
  189.0660  177.9830  145.4410 C   0  0  1  0  0  3  0  0  0  0  0  0
  191.0520  176.8710  144.2940 C   0  0  0  0  0  2  0  0  0  0  0  0
  190.5300  178.1280  145.0030 C   0  0  1  0  0  3  0  0  0  0  0  0
  188.1780  177.6190  144.2300 C   0  0  2  0  0  3  0  0  0  0  0  0
  190.5400  175.7250  142.2470 N   0  0  0  0  0  2  0  0  0  0  0  0
  190.0930  176.3980  143.2410 C   0  0  0  0  0  0  0  0  0  0  0  0
  188.9620  176.9710  146.5850 C   0  0  0  0  0  2  0  0  0  0  0  0
  188.1260  178.3070  148.5180 C   0  0  0  0  0  1  0  0  0  0  0  0
  189.3260  177.5950  147.9220 C   0  0  0  0  0  2  0  0  0  0  0  0
  1  4  1  0  0  0  0
  1 19  1  1  0  0  0
  2  1  1  0  0  0  0
  3  6  2  0  0  0  0
  5  7  1  6  0  0  0
  5  3  1  0  0  0  0
  5  2  1  0  0  0  0
  6  4  1  0  0  0  0
  7  8  1  0  0  0  0
  9  7  1  0  0  0  0
 10 12  1  1  0  0  0
 10 15  1  0  0  0  0
 11 10  1  0  0  0  0
 11 14  1  0  0  0  0
 13  9  1  1  0  0  0
 14 16  2  0  0  0  0
 15 17  1  0  0  0  0
 16 13  1  0  0  0  0
 17 13  1  0  0  0  0
 19 18  1  1  0  0  0
 21 25  1  0  0  0  0
 22 28  1  1  0  0  0
 23 24  1  0  0  0  0
 24 20  1  6  0  0  0
 24 22  1  0  0  0  0
 25 19  1  1  0  0  0
 25 22  1  0  0  0  0
 26 27  2  0  0  0  0
 27 21  1  0  0  0  0
 27 23  1  0  0  0  0
 28 30  1  0  0  0  0
 30 29  1  0  0  0  0
M  END
>  <MODEL>
3

>  <REMARK>
 VINA RESULT:      -7.9      3.107      4.075
  Name = 
  7 active torsions:
  status: ('A' for Active; 'I' for Inactive)
    1  A    between atoms: C_3  and  N_11
    2  A    between atoms: C_3  and  C_19
    3  A    between atoms: C_4  and  C_8
    4  A    between atoms: C_4  and  C_23
    5  A    between atoms: C_7  and  C_30
    6  A    between atoms: N_11  and  C_25
    7  A    between atoms: C_13  and  C_30
                            x       y       z     vdW  Elec       q    Type
                         _______ _______ _______ _____ _____    ______ ____

>  <TORSDO>
F 7

$$$$
=
 OpenBabel10262421533D

 30 32  0  0  1  0  0  0  0  0999 V2000
  184.4740  178.9780  142.5520 C   0  0  2  0  0  3  0  0  0  0  0  0
  185.5410  178.2200  143.2080 N   0  0  0  0  0  2  0  0  0  0  0  0
  184.5630  178.9280  145.3610 C   0  0  0  0  0  3  0  0  0  0  0  0
  183.1640  178.7420  143.3110 C   0  0  0  0  0  2  0  0  0  0  0  0
  185.8070  178.8520  144.5090 C   0  0  1  0  0  3  0  0  0  0  0  0
  183.3470  178.9230  144.7970 C   0  0  0  0  0  3  0  0  0  0  0  0
  186.9040  178.1960  145.2340 N   0  0  0  0  0  0  0  0  0  0  0  0
  186.5300  177.9500  146.6220 C   0  0  0  0  0  1  0  0  0  0  0  0
  187.1620  176.9010  144.6180 C   0  0  0  0  0  2  0  0  0  0  0  0
  190.1070  177.6900  141.5530 C   0  0  1  0  0  3  0  0  0  0  0  0
  191.0640  177.7780  142.7460 C   0  0  0  0  0  2  0  0  0  0  0  0
  190.7290  176.8260  140.4760 C   0  0  0  0  0  1  0  0  0  0  0  0
  188.6470  176.7400  144.3210 C   0  0  2  0  0  3  0  0  0  0  0  0
  190.4420  178.5050  143.8990 C   0  0  0  0  0  3  0  0  0  0  0  0
  188.7330  177.1340  141.9330 C   0  0  0  0  0  2  0  0  0  0  0  0
  189.3740  178.0480  144.5730 C   0  0  0  0  0  3  0  0  0  0  0  0
  188.8590  176.1370  142.9950 N   0  0  0  0  0  2  0  0  0  0  0  0
  184.6830  179.6300  140.2530 O   0  0  0  0  0  1  0  0  0  0  0  0
  184.3290  178.5600  141.0820 C   0  0  2  0  0  3  0  0  0  0  0  0
  180.0110  178.6190  141.3320 O   0  0  0  0  0  1  0  0  0  0  0  0
  182.8230  176.8990  139.8400 C   0  0  0  0  0  2  0  0  0  0  0  0
  182.0230  179.2770  140.1920 C   0  0  1  0  0  3  0  0  0  0  0  0
  180.4130  177.5590  139.2150 C   0  0  0  0  0  2  0  0  0  0  0  0
  180.5610  178.8270  140.0660 C   0  0  1  0  0  3  0  0  0  0  0  0
  182.8910  178.1280  140.7530 C   0  0  2  0  0  3  0  0  0  0  0  0
  181.1130  175.2710  139.4190 N   0  0  0  0  0  2  0  0  0  0  0  0
  181.3940  176.5020  139.6310 C   0  0  0  0  0  0  0  0  0  0  0  0
  182.5230  179.8030  138.8450 C   0  0  0  0  0  2  0  0  0  0  0  0
  181.0520  180.9340  137.1790 C   0  0  0  0  0  1  0  0  0  0  0  0
  181.8420  181.1070  138.4620 C   0  0  0  0  0  2  0  0  0  0  0  0
  1 19  1  6  0  0  0
  1  2  1  0  0  0  0
  1  4  1  0  0  0  0
  2  5  1  0  0  0  0
  4  6  1  0  0  0  0
  5  7  1  1  0  0  0
  5  3  1  0  0  0  0
  6  3  2  0  0  0  0
  7  8  1  0  0  0  0
  9  7  1  0  0  0  0
 10 12  1  6  0  0  0
 10 15  1  0  0  0  0
 10 11  1  0  0  0  0
 11 14  1  0  0  0  0
 13 16  1  0  0  0  0
 13  9  1  6  0  0  0
 14 16  2  0  0  0  0
 15 17  1  0  0  0  0
 17 13  1  0  0  0  0
 19 18  1  6  0  0  0
 21 25  1  0  0  0  0
 22 28  1  6  0  0  0
 22 25  1  0  0  0  0
 23 27  1  0  0  0  0
 23 24  1  0  0  0  0
 24 22  1  0  0  0  0
 24 20  1  1  0  0  0
 25 19  1  6  0  0  0
 26 27  2  0  0  0  0
 27 21  1  0  0  0  0
 29 30  1  0  0  0  0
 30 28  1  0  0  0  0
M  END
>  <MODEL>
4

>  <REMARK>
 VINA RESULT:      -7.7      2.713      8.570
  Name = 
  7 active torsions:
  status: ('A' for Active; 'I' for Inactive)
    1  A    between atoms: C_3  and  N_11
    2  A    between atoms: C_3  and  C_19
    3  A    between atoms: C_4  and  C_8
    4  A    between atoms: C_4  and  C_23
    5  A    between atoms: C_7  and  C_30
    6  A    between atoms: N_11  and  C_25
    7  A    between atoms: C_13  and  C_30
                            x       y       z     vdW  Elec       q    Type
                         _______ _______ _______ _____ _____    ______ ____

>  <TORSDO>
F 7

$$$$
=
 OpenBabel10262421533D

 30 32  0  0  1  0  0  0  0  0999 V2000
  186.8060  177.8620  137.7570 C   0  0  2  0  0  3  0  0  0  0  0  0
  187.4520  177.8350  139.0710 N   0  0  0  0  0  2  0  0  0  0  0  0
  189.6140  177.8180  137.8800 C   0  0  0  0  0  3  0  0  0  0  0  0
  187.5830  178.8180  136.8460 C   0  0  0  0  0  2  0  0  0  0  0  0
  188.7460  177.1530  138.9220 C   0  0  1  0  0  3  0  0  0  0  0  0
  189.0650  178.5470  136.8970 C   0  0  0  0  0  3  0  0  0  0  0  0
  189.4600  177.0260  140.2000 N   0  0  0  0  0  0  0  0  0  0  0  0
  190.8550  177.4280  140.0530 C   0  0  0  0  0  1  0  0  0  0  0  0
  188.8480  177.9270  141.1680 C   0  0  0  0  0  2  0  0  0  0  0  0
  188.6910  177.8900  145.4880 C   0  0  1  0  0  3  0  0  0  0  0  0
  187.3390  177.2110  145.2540 C   0  0  0  0  0  2  0  0  0  0  0  0
  189.4630  177.1200  146.5400 C   0  0  0  0  0  1  0  0  0  0  0  0
  188.2650  177.1390  142.3330 C   0  0  2  0  0  3  0  0  0  0  0  0
  186.5900  177.8480  144.1240 C   0  0  0  0  0  3  0  0  0  0  0  0
  189.5280  178.0020  144.2110 C   0  0  0  0  0  2  0  0  0  0  0  0
  187.0120  177.8230  142.8490 C   0  0  0  0  0  3  0  0  0  0  0  0
  189.2960  176.8480  143.3430 N   0  0  0  0  0  2  0  0  0  0  0  0
  185.2040  179.1970  138.9420 O   0  0  0  0  0  1  0  0  0  0  0  0
  185.3390  178.3010  137.8760 C   0  0  2  0  0  3  0  0  0  0  0  0
  182.3190  175.9590  139.9020 O   0  0  0  0  0  1  0  0  0  0  0  0
  184.6380  175.9530  137.1250 C   0  0  0  0  0  2  0  0  0  0  0  0
  182.9100  177.4970  138.1510 C   0  0  1  0  0  3  0  0  0  0  0  0
  182.2790  175.0740  137.6700 C   0  0  0  0  0  2  0  0  0  0  0  0
  182.0550  176.2940  138.5730 C   0  0  1  0  0  3  0  0  0  0  0  0
  184.4040  177.1030  138.1100 C   0  0  2  0  0  3  0  0  0  0  0  0
  184.1240  173.6120  137.1970 N   0  0  0  0  0  2  0  0  0  0  0  0
  183.7410  174.8040  137.4670 C   0  0  0  0  0  0  0  0  0  0  0  0
  182.4010  178.0560  136.8200 C   0  0  0  0  0  2  0  0  0  0  0  0
  181.7960  180.0980  138.1170 C   0  0  0  0  0  1  0  0  0  0  0  0
  181.3550  179.1390  137.0280 C   0  0  0  0  0  2  0  0  0  0  0  0
  1 19  1  1  0  0  0
  1  2  1  0  0  0  0
  3  5  1  0  0  0  0
  4  6  1  0  0  0  0
  4  1  1  0  0  0  0
  5  2  1  0  0  0  0
  5  7  1  1  0  0  0
  6  3  2  0  0  0  0
  7  9  1  0  0  0  0
  8  7  1  0  0  0  0
 10 12  1  1  0  0  0
 11 10  1  0  0  0  0
 13  9  1  6  0  0  0
 13 16  1  0  0  0  0
 13 17  1  0  0  0  0
 14 11  1  0  0  0  0
 15 10  1  0  0  0  0
 16 14  2  0  0  0  0
 17 15  1  0  0  0  0
 19 18  1  1  0  0  0
 21 27  1  0  0  0  0
 21 25  1  0  0  0  0
 22 28  1  6  0  0  0
 22 24  1  0  0  0  0
 23 24  1  0  0  0  0
 24 20  1  1  0  0  0
 25 19  1  6  0  0  0
 25 22  1  0  0  0  0
 26 27  2  0  0  0  0
 27 23  1  0  0  0  0
 28 30  1  0  0  0  0
 30 29  1  0  0  0  0
M  END
>  <MODEL>
5

>  <REMARK>
 VINA RESULT:      -7.6      3.554      9.139
  Name = 
  7 active torsions:
  status: ('A' for Active; 'I' for Inactive)
    1  A    between atoms: C_3  and  N_11
    2  A    between atoms: C_3  and  C_19
    3  A    between atoms: C_4  and  C_8
    4  A    between atoms: C_4  and  C_23
    5  A    between atoms: C_7  and  C_30
    6  A    between atoms: N_11  and  C_25
    7  A    between atoms: C_13  and  C_30
                            x       y       z     vdW  Elec       q    Type
                         _______ _______ _______ _____ _____    ______ ____

>  <TORSDO>
F 7

$$$$
=
 OpenBabel10262421533D

 30 32  0  0  1  0  0  0  0  0999 V2000
  184.6120  179.0830  142.6930 C   0  0  2  0  0  3  0  0  0  0  0  0
  185.5630  178.4910  143.6350 N   0  0  0  0  0  2  0  0  0  0  0  0
  183.9640  179.0550  145.4290 C   0  0  0  0  0  3  0  0  0  0  0  0
  183.1940  178.6610  143.0950 C   0  0  0  0  0  2  0  0  0  0  0  0
  185.3870  179.1590  144.9330 C   0  0  1  0  0  3  0  0  0  0  0  0
  182.9520  178.8720  144.5680 C   0  0  0  0  0  3  0  0  0  0  0  0
  186.3350  178.6710  145.9450 N   0  0  0  0  0  0  0  0  0  0  0  0
  185.6230  178.1290  147.0970 C   0  0  0  0  0  1  0  0  0  0  0  0
  187.1170  177.5870  145.3670 C   0  0  0  0  0  2  0  0  0  0  0  0
  190.9880  176.3200  146.8180 C   0  0  1  0  0  3  0  0  0  0  0  0
  191.4870  176.9810  145.5290 C   0  0  0  0  0  2  0  0  0  0  0  0
  191.8510  176.7710  147.9780 C   0  0  0  0  0  1  0  0  0  0  0  0
  188.5910  177.9640  145.3160 C   0  0  2  0  0  3  0  0  0  0  0  0
  190.5860  176.6820  144.3710 C   0  0  0  0  0  3  0  0  0  0  0  0
  189.5180  176.6320  147.1130 C   0  0  0  0  0  2  0  0  0  0  0  0
  189.3140  177.1050  144.2940 C   0  0  0  0  0  3  0  0  0  0  0  0
  189.1800  177.9820  146.6650 N   0  0  0  0  0  2  0  0  0  0  0  0
  185.9080  179.4720  140.7120 O   0  0  0  0  0  1  0  0  0  0  0  0
  184.9190  178.6440  141.2550 C   0  0  2  0  0  3  0  0  0  0  0  0
  182.1240  180.4000  138.4590 O   0  0  0  0  0  1  0  0  0  0  0  0
  182.7460  177.4960  140.5250 C   0  0  0  0  0  2  0  0  0  0  0  0
  183.9980  178.9510  138.8710 C   0  0  1  0  0  3  0  0  0  0  0  0
  181.7000  178.0470  138.2370 C   0  0  0  0  0  2  0  0  0  0  0  0
  182.7080  179.1920  138.0740 C   0  0  1  0  0  3  0  0  0  0  0  0
  183.6690  178.7080  140.3610 C   0  0  2  0  0  3  0  0  0  0  0  0
  180.4220  177.1390  140.0560 N   0  0  0  0  0  2  0  0  0  0  0  0
  181.5230  177.6740  139.6800 C   0  0  0  0  0  0  0  0  0  0  0  0
  184.7940  177.8070  138.2390 C   0  0  0  0  0  2  0  0  0  0  0  0
  187.2780  177.7270  138.0300 C   0  0  0  0  0  1  0  0  0  0  0  0
  185.9990  178.3190  137.4680 C   0  0  0  0  0  2  0  0  0  0  0  0
  1 19  1  6  0  0  0
  1  4  1  0  0  0  0
  1  2  1  0  0  0  0
  2  5  1  0  0  0  0
  4  6  1  0  0  0  0
  5  3  1  0  0  0  0
  5  7  1  1  0  0  0
  6  3  2  0  0  0  0
  7  8  1  0  0  0  0
  9  7  1  0  0  0  0
 10 15  1  0  0  0  0
 10 12  1  1  0  0  0
 11 10  1  0  0  0  0
 13  9  1  1  0  0  0
 13 17  1  0  0  0  0
 14 11  1  0  0  0  0
 16 14  2  0  0  0  0
 16 13  1  0  0  0  0
 17 15  1  0  0  0  0
 19 18  1  6  0  0  0
 22 28  1  6  0  0  0
 22 25  1  0  0  0  0
 23 27  1  0  0  0  0
 24 23  1  0  0  0  0
 24 20  1  1  0  0  0
 24 22  1  0  0  0  0
 25 21  1  0  0  0  0
 25 19  1  1  0  0  0
 27 26  2  0  0  0  0
 27 21  1  0  0  0  0
 30 29  1  0  0  0  0
 30 28  1  0  0  0  0
M  END
>  <MODEL>
6

>  <REMARK>
 VINA RESULT:      -7.6      2.777      8.701
  Name = 
  7 active torsions:
  status: ('A' for Active; 'I' for Inactive)
    1  A    between atoms: C_3  and  N_11
    2  A    between atoms: C_3  and  C_19
    3  A    between atoms: C_4  and  C_8
    4  A    between atoms: C_4  and  C_23
    5  A    between atoms: C_7  and  C_30
    6  A    between atoms: N_11  and  C_25
    7  A    between atoms: C_13  and  C_30
                            x       y       z     vdW  Elec       q    Type
                         _______ _______ _______ _____ _____    ______ ____

>  <TORSDO>
F 7

$$$$
=
 OpenBabel10262421533D

 30 32  0  0  1  0  0  0  0  0999 V2000
  185.7120  177.7980  143.4930 C   0  0  2  0  0  3  0  0  0  0  0  0
  186.3470  178.4920  142.3710 N   0  0  0  0  0  2  0  0  0  0  0  0
  184.0760  178.9250  141.5040 C   0  0  0  0  0  3  0  0  0  0  0  0
  184.4830  178.6000  143.9370 C   0  0  0  0  0  2  0  0  0  0  0  0
  185.4530  178.3790  141.2090 C   0  0  1  0  0  3  0  0  0  0  0  0
  183.6180  178.9800  142.7620 C   0  0  0  0  0  3  0  0  0  0  0  0
  186.0220  179.0030  140.0060 N   0  0  0  0  0  0  0  0  0  0  0  0
  187.1830  178.2550  139.5370 C   0  0  0  0  0  1  0  0  0  0  0  0
  185.0240  178.9660  138.9450 C   0  0  0  0  0  2  0  0  0  0  0  0
  182.7750  176.5640  136.1410 C   0  0  1  0  0  3  0  0  0  0  0  0
  184.1570  176.0140  135.7800 C   0  0  0  0  0  2  0  0  0  0  0  0
  181.8070  175.4120  136.3170 C   0  0  0  0  0  1  0  0  0  0  0  0
  185.0620  177.6250  138.2260 C   0  0  2  0  0  3  0  0  0  0  0  0
  185.1880  177.0990  135.7310 C   0  0  0  0  0  3  0  0  0  0  0  0
  182.7910  177.4240  137.4080 C   0  0  0  0  0  2  0  0  0  0  0  0
  185.5670  177.8090  136.8060 C   0  0  0  0  0  3  0  0  0  0  0  0
  183.7780  176.9170  138.3590 N   0  0  0  0  0  2  0  0  0  0  0  0
  186.4840  178.6380  145.6040 O   0  0  0  0  0  1  0  0  0  0  0  0
  186.6950  177.6270  144.6600 C   0  0  2  0  0  3  0  0  0  0  0  0
  190.5760  179.4080  143.9690 O   0  0  0  0  0  1  0  0  0  0  0  0
  188.5960  176.4300  143.4240 C   0  0  0  0  0  2  0  0  0  0  0  0
  189.1530  178.0180  145.3190 C   0  0  1  0  0  3  0  0  0  0  0  0
  191.0470  177.0540  143.9110 C   0  0  0  0  0  2  0  0  0  0  0  0
  190.5570  178.2470  144.7420 C   0  0  1  0  0  3  0  0  0  0  0  0
  188.1570  177.6860  144.1840 C   0  0  2  0  0  3  0  0  0  0  0  0
  190.3640  176.0020  141.8630 N   0  0  0  0  0  2  0  0  0  0  0  0
  190.0000  176.6000  142.9350 C   0  0  0  0  0  0  0  0  0  0  0  0
  189.2040  176.9410  146.4050 C   0  0  0  0  0  2  0  0  0  0  0  0
  188.0520  177.5850  148.5210 C   0  0  0  0  0  1  0  0  0  0  0  0
  189.3790  177.5460  147.7880 C   0  0  0  0  0  2  0  0  0  0  0  0
  1  4  1  0  0  0  0
  1 19  1  1  0  0  0
  2  1  1  0  0  0  0
  3  6  2  0  0  0  0
  5  7  1  6  0  0  0
  5  3  1  0  0  0  0
  5  2  1  0  0  0  0
  6  4  1  0  0  0  0
  8  7  1  0  0  0  0
  9  7  1  0  0  0  0
 10 12  1  1  0  0  0
 10 15  1  0  0  0  0
 11 10  1  0  0  0  0
 13 17  1  0  0  0  0
 13  9  1  6  0  0  0
 14 11  1  0  0  0  0
 14 16  2  0  0  0  0
 15 17  1  0  0  0  0
 16 13  1  0  0  0  0
 19 18  1  1  0  0  0
 21 25  1  0  0  0  0
 22 28  1  1  0  0  0
 23 24  1  0  0  0  0
 24 20  1  6  0  0  0
 24 22  1  0  0  0  0
 25 19  1  1  0  0  0
 25 22  1  0  0  0  0
 26 27  2  0  0  0  0
 27 21  1  0  0  0  0
 27 23  1  0  0  0  0
 28 30  1  0  0  0  0
 30 29  1  0  0  0  0
M  END
>  <MODEL>
7

>  <REMARK>
 VINA RESULT:      -7.5      2.038      2.909
  Name = 
  7 active torsions:
  status: ('A' for Active; 'I' for Inactive)
    1  A    between atoms: C_3  and  N_11
    2  A    between atoms: C_3  and  C_19
    3  A    between atoms: C_4  and  C_8
    4  A    between atoms: C_4  and  C_23
    5  A    between atoms: C_7  and  C_30
    6  A    between atoms: N_11  and  C_25
    7  A    between atoms: C_13  and  C_30
                            x       y       z     vdW  Elec       q    Type
                         _______ _______ _______ _____ _____    ______ ____

>  <TORSDO>
F 7

$$$$
=
 OpenBabel10262421533D

 30 32  0  0  1  0  0  0  0  0999 V2000
  183.0290  178.9120  141.7890 C   0  0  2  0  0  3  0  0  0  0  0  0
  184.1800  178.0440  142.0430 N   0  0  0  0  0  2  0  0  0  0  0  0
  184.0820  178.7930  144.3930 C   0  0  0  0  0  3  0  0  0  0  0  0
  182.0480  178.7830  142.9600 C   0  0  0  0  0  2  0  0  0  0  0  0
  184.9400  178.6200  143.1620 C   0  0  1  0  0  3  0  0  0  0  0  0
  182.7510  178.9140  144.2870 C   0  0  0  0  0  3  0  0  0  0  0  0
  186.1530  177.8490  143.4680 N   0  0  0  0  0  0  0  0  0  0  0  0
  187.1250  177.9670  142.3870 C   0  0  0  0  0  1  0  0  0  0  0  0
  186.7670  178.4020  144.6670 C   0  0  0  0  0  2  0  0  0  0  0  0
  190.5560  177.3420  146.4610 C   0  0  1  0  0  3  0  0  0  0  0  0
  189.6700  176.5800  147.4510 C   0  0  0  0  0  2  0  0  0  0  0  0
  191.6920  176.4460  146.0140 C   0  0  0  0  0  1  0  0  0  0  0  0
  187.4350  177.3010  145.4790 C   0  0  2  0  0  3  0  0  0  0  0  0
  188.4500  177.3680  147.8210 C   0  0  0  0  0  3  0  0  0  0  0  0
  189.7830  177.8470  145.2400 C   0  0  0  0  0  2  0  0  0  0  0  0
  187.4850  177.6910  146.9450 C   0  0  0  0  0  3  0  0  0  0  0  0
  188.7220  176.9080  144.8810 N   0  0  0  0  0  2  0  0  0  0  0  0
  181.3200  177.6180  140.7110 O   0  0  0  0  0  1  0  0  0  0  0  0
  182.3430  178.5420  140.4670 C   0  0  2  0  0  3  0  0  0  0  0  0
  184.0440  175.4820  137.9250 O   0  0  0  0  0  1  0  0  0  0  0  0
  184.5160  178.8560  139.1430 C   0  0  0  0  0  2  0  0  0  0  0  0
  182.6610  177.4340  138.1650 C   0  0  1  0  0  3  0  0  0  0  0  0
  184.9180  177.5110  136.9840 C   0  0  0  0  0  2  0  0  0  0  0  0
  183.6730  176.6720  137.2980 C   0  0  1  0  0  3  0  0  0  0  0  0
  183.3360  177.9320  139.4630 C   0  0  2  0  0  3  0  0  0  0  0  0
  186.7130  178.4550  138.2710 N   0  0  0  0  0  2  0  0  0  0  0  0
  185.4680  178.1600  138.2210 C   0  0  0  0  0  0  0  0  0  0  0  0
  182.0220  178.5620  137.3510 C   0  0  0  0  0  2  0  0  0  0  0  0
  180.4470  179.1160  135.4980 C   0  0  0  0  0  1  0  0  0  0  0  0
  181.3070  178.0310  136.1190 C   0  0  0  0  0  2  0  0  0  0  0  0
  1 19  1  6  0  0  0
  1  2  1  0  0  0  0
  1  4  1  0  0  0  0
  2  5  1  0  0  0  0
  4  6  1  0  0  0  0
  5  7  1  1  0  0  0
  5  3  1  0  0  0  0
  6  3  2  0  0  0  0
  7  9  1  0  0  0  0
  8  7  1  0  0  0  0
 10 12  1  6  0  0  0
 10 11  1  0  0  0  0
 11 14  1  0  0  0  0
 13  9  1  6  0  0  0
 13 16  1  0  0  0  0
 15 10  1  0  0  0  0
 16 14  2  0  0  0  0
 17 15  1  0  0  0  0
 17 13  1  0  0  0  0
 19 18  1  1  0  0  0
 21 25  1  0  0  0  0
 22 28  1  6  0  0  0
 22 25  1  0  0  0  0
 23 24  1  0  0  0  0
 23 27  1  0  0  0  0
 24 20  1  1  0  0  0
 24 22  1  0  0  0  0
 25 19  1  1  0  0  0
 27 26  2  0  0  0  0
 27 21  1  0  0  0  0
 29 30  1  0  0  0  0
 30 28  1  0  0  0  0
M  END
>  <MODEL>
8

>  <REMARK>
 VINA RESULT:      -7.5      3.002      8.938
  Name = 
  7 active torsions:
  status: ('A' for Active; 'I' for Inactive)
    1  A    between atoms: C_3  and  N_11
    2  A    between atoms: C_3  and  C_19
    3  A    between atoms: C_4  and  C_8
    4  A    between atoms: C_4  and  C_23
    5  A    between atoms: C_7  and  C_30
    6  A    between atoms: N_11  and  C_25
    7  A    between atoms: C_13  and  C_30
                            x       y       z     vdW  Elec       q    Type
                         _______ _______ _______ _____ _____    ______ ____

>  <TORSDO>
F 7

$$$$
=
 OpenBabel10262421533D

 30 32  0  0  1  0  0  0  0  0999 V2000
  189.0500  177.4910  138.1910 C   0  0  2  0  0  3  0  0  0  0  0  0
  188.8960  178.2350  139.4430 N   0  0  0  0  0  2  0  0  0  0  0  0
  190.5920  176.7260  140.4140 C   0  0  0  0  0  3  0  0  0  0  0  0
  190.5380  177.1990  137.9710 C   0  0  0  0  0  2  0  0  0  0  0  0
  189.2100  177.3200  140.5510 C   0  0  1  0  0  3  0  0  0  0  0  0
  191.1780  176.6310  139.2120 C   0  0  0  0  0  3  0  0  0  0  0  0
  189.0380  177.9560  141.8650 N   0  0  0  0  0  0  0  0  0  0  0  0
  187.6760  178.4550  142.0210 C   0  0  0  0  0  1  0  0  0  0  0  0
  189.2560  176.9550  142.9000 C   0  0  0  0  0  2  0  0  0  0  0  0
  189.6500  176.9480  147.2050 C   0  0  1  0  0  3  0  0  0  0  0  0
  191.1320  177.1730  146.8900 C   0  0  0  0  0  2  0  0  0  0  0  0
  189.2140  177.9220  148.2810 C   0  0  0  0  0  1  0  0  0  0  0  0
  190.1160  177.5240  144.0190 C   0  0  2  0  0  3  0  0  0  0  0  0
  191.5840  176.3330  145.7350 C   0  0  0  0  0  3  0  0  0  0  0  0
  188.7520  177.1000  145.9740 C   0  0  0  0  0  2  0  0  0  0  0  0
  191.1220  176.4860  144.4830 C   0  0  0  0  0  3  0  0  0  0  0  0
  189.2840  178.1230  145.0750 N   0  0  0  0  0  2  0  0  0  0  0  0
  188.5350  179.6530  137.2880 O   0  0  0  0  0  1  0  0  0  0  0  0
  188.4740  178.2830  137.0090 C   0  0  2  0  0  3  0  0  0  0  0  0
  185.0630  177.1640  134.5950 O   0  0  0  0  0  1  0  0  0  0  0  0
  186.1100  177.9930  137.9580 C   0  0  0  0  0  2  0  0  0  0  0  0
  186.8700  176.5170  136.0430 C   0  0  1  0  0  3  0  0  0  0  0  0
  184.4350  176.4230  136.7920 C   0  0  0  0  0  2  0  0  0  0  0  0
  185.4140  176.2820  135.6190 C   0  0  1  0  0  3  0  0  0  0  0  0
  187.0130  177.8980  136.7230 C   0  0  2  0  0  3  0  0  0  0  0  0
  183.7390  178.2140  138.2320 N   0  0  0  0  0  2  0  0  0  0  0  0
  184.6980  177.6750  137.5780 C   0  0  0  0  0  0  0  0  0  0  0  0
  187.3470  175.3620  136.9260 C   0  0  0  0  0  2  0  0  0  0  0  0
  189.3160  173.8300  136.9330 C   0  0  0  0  0  1  0  0  0  0  0  0
  188.1300  174.3310  136.1300 C   0  0  0  0  0  2  0  0  0  0  0  0
  1 19  1  6  0  0  0
  1  2  1  0  0  0  0
  2  5  1  0  0  0  0
  3  5  1  0  0  0  0
  4  1  1  0  0  0  0
  4  6  1  0  0  0  0
  5  7  1  1  0  0  0
  6  3  2  0  0  0  0
  7  8  1  0  0  0  0
  7  9  1  0  0  0  0
 10 12  1  1  0  0  0
 11 10  1  0  0  0  0
 13  9  1  6  0  0  0
 13 16  1  0  0  0  0
 13 17  1  0  0  0  0
 14 11  1  0  0  0  0
 15 10  1  0  0  0  0
 16 14  2  0  0  0  0
 17 15  1  0  0  0  0
 19 18  1  1  0  0  0
 22 25  1  0  0  0  0
 22 28  1  1  0  0  0
 23 27  1  0  0  0  0
 24 20  1  6  0  0  0
 24 22  1  0  0  0  0
 24 23  1  0  0  0  0
 25 19  1  1  0  0  0
 25 21  1  0  0  0  0
 27 21  1  0  0  0  0
 27 26  2  0  0  0  0
 30 28  1  0  0  0  0
 30 29  1  0  0  0  0
M  END
>  <MODEL>
9

>  <REMARK>
 VINA RESULT:      -7.4      4.143      9.296
  Name = 
  7 active torsions:
  status: ('A' for Active; 'I' for Inactive)
    1  A    between atoms: C_3  and  N_11
    2  A    between atoms: C_3  and  C_19
    3  A    between atoms: C_4  and  C_8
    4  A    between atoms: C_4  and  C_23
    5  A    between atoms: C_7  and  C_30
    6  A    between atoms: N_11  and  C_25
    7  A    between atoms: C_13  and  C_30
                            x       y       z     vdW  Elec       q    Type
                         _______ _______ _______ _____ _____    ______ ____

>  <TORSDO>
F 7

$$$$
