=
 OpenBabel10262419533D

 25 28  0  0  1  0  0  0  0  0999 V2000
  186.9480  177.7670  145.4180 C   0  0  0  0  0  0  0  0  0  0  0  0
  188.2440  177.4150  145.0360 C   0  0  0  0  0  0  0  0  0  0  0  0
  187.5930  177.8770  147.7280 C   0  0  0  0  0  3  0  0  0  0  0  0
  185.6960  177.8700  144.6240 C   0  0  1  0  0  3  0  0  0  0  0  0
  190.4490  176.7660  142.1220 C   0  0  0  0  0  0  0  0  0  0  0  0
  183.4350  179.6050  144.2080 C   0  0  0  0  0  3  0  0  0  0  0  0
  188.8660  177.5510  147.3630 N   0  0  0  0  0  0  0  0  0  0  0  0
  184.7420  178.2770  145.7180 C   0  0  0  0  0  0  0  0  0  0  0  0
  183.4880  178.9510  145.3760 C   0  0  0  0  0  3  0  0  0  0  0  0
  190.6150  176.9680  145.7230 C   0  0  0  0  0  0  0  0  0  0  0  0
  191.6400  176.8270  146.7940 C   0  0  0  0  0  1  0  0  0  0  0  0
  190.8640  176.6140  140.8950 C   0  0  0  0  0  3  0  0  0  0  0  0
  188.5610  177.1070  143.5980 C   0  0  0  0  0  2  0  0  0  0  0  0
  184.6280  179.6830  143.3220 C   0  0  0  0  0  3  0  0  0  0  0  0
  186.6250  177.9680  146.7350 C   0  0  0  0  0  0  0  0  0  0  0  0
  185.2640  178.3240  146.9050 N   0  0  0  0  0  0  0  0  0  0  0  0
  190.9880  176.7920  144.4550 C   0  0  0  0  0  3  0  0  0  0  0  0
  185.7130  178.9240  143.5470 C   0  0  0  0  0  3  0  0  0  0  0  0
  190.0300  176.9170  143.3460 C   0  0  0  0  0  0  0  0  0  0  0  0
  189.2180  177.3160  146.0590 C   0  0  0  0  0  0  0  0  0  0  0  0
  190.1270  177.2440  139.7610 C   0  0  2  0  0  3  0  0  0  0  0  0
  188.7550  177.2520  140.0200 O   0  0  0  0  0  1  0  0  0  0  0  0
  190.4030  176.5030  138.4950 C   0  0  0  0  0  0  0  0  0  0  0  0
  190.9170  175.2140  138.5520 O   0  0  0  0  0  1  0  0  0  0  0  0
  190.1560  177.0280  137.3770 O   0  0  0  0  0  0  0  0  0  0  0  0
  1 15  1  0  0  0  0
  2  1  2  0  0  0  0
  2 20  1  0  0  0  0
  4 18  1  6  0  0  0
  4  1  1  0  0  0  0
  4  8  1  0  0  0  0
  5 19  2  0  0  0  0
  6  9  2  0  0  0  0
  7  3  1  0  0  0  0
  8 16  2  0  0  0  0
  9  8  1  0  0  0  0
 10 20  1  0  0  0  0
 10 11  1  0  0  0  0
 12  5  2  0  0  0  0
 13  2  1  0  0  0  0
 14 18  2  0  0  0  0
 14  6  1  0  0  0  0
 15 16  1  0  0  0  0
 15  3  2  0  0  0  0
 17 10  2  0  0  0  0
 19 13  1  0  0  0  0
 19 17  1  0  0  0  0
 20  7  2  0  0  0  0
 21 22  1  1  0  0  0
 21 12  1  0  0  0  0
 23 24  1  0  0  0  0
 23 21  1  0  0  0  0
 25 23  2  0  0  0  0
M  END
>  <MODEL>
1

>  <REMARK>
 VINA RESULT:     -10.1      0.000      0.000
  Name = 
  2 active torsions:
  status: ('A' for Active; 'I' for Inactive)
    1  A    between atoms: C_2  and  C_21
    2  A    between atoms: C_15  and  C_21
                            x       y       z     vdW  Elec       q    Type
                         _______ _______ _______ _____ _____    ______ ____

>  <TORSDO>
F 2

$$$$
=
 OpenBabel10262419533D

 25 28  0  0  1  0  0  0  0  0999 V2000
  185.5050  178.1310  144.3600 C   0  0  0  0  0  0  0  0  0  0  0  0
  186.6380  177.9320  145.1500 C   0  0  0  0  0  0  0  0  0  0  0  0
  184.2250  178.8360  146.2640 C   0  0  0  0  0  3  0  0  0  0  0  0
  185.2640  177.8480  142.9210 C   0  0  1  0  0  3  0  0  0  0  0  0
  190.2470  177.0650  145.0720 C   0  0  0  0  0  0  0  0  0  0  0  0
  184.1420  179.0460  140.5530 C   0  0  0  0  0  3  0  0  0  0  0  0
  185.3310  178.6610  147.0430 N   0  0  0  0  0  0  0  0  0  0  0  0
  183.8330  178.3100  142.8150 C   0  0  0  0  0  0  0  0  0  0  0  0
  183.2800  178.6720  141.5080 C   0  0  0  0  0  3  0  0  0  0  0  0
  187.6910  178.0510  147.4240 C   0  0  0  0  0  0  0  0  0  0  0  0
  187.5730  178.3170  148.8850 C   0  0  0  0  0  1  0  0  0  0  0  0
  191.4290  176.7300  144.6340 C   0  0  0  0  0  3  0  0  0  0  0  0
  187.9060  177.3850  144.5500 C   0  0  0  0  0  2  0  0  0  0  0  0
  185.6000  179.1360  140.8340 C   0  0  0  0  0  3  0  0  0  0  0  0
  184.3210  178.5490  144.9080 C   0  0  0  0  0  0  0  0  0  0  0  0
  183.3020  178.6960  143.9340 N   0  0  0  0  0  0  0  0  0  0  0  0
  188.8750  177.6770  146.9370 C   0  0  0  0  0  3  0  0  0  0  0  0
  186.1240  178.6370  141.9670 C   0  0  0  0  0  3  0  0  0  0  0  0
  189.0640  177.3990  145.5050 C   0  0  0  0  0  0  0  0  0  0  0  0
  186.5250  178.2190  146.5320 C   0  0  0  0  0  0  0  0  0  0  0  0
  191.8080  176.9700  143.2120 C   0  0  2  0  0  3  0  0  0  0  0  0
  191.9970  178.3360  142.9840 O   0  0  0  0  0  1  0  0  0  0  0  0
  190.7500  176.4430  142.3020 C   0  0  0  0  0  0  0  0  0  0  0  0
  190.3220  177.2120  141.2280 O   0  0  0  0  0  0  0  0  0  0  0  0
  190.2570  175.2990  142.4870 O   0  0  0  0  0  1  0  0  0  0  0  0
  1 15  2  0  0  0  0
  1  2  1  0  0  0  0
  2 20  2  0  0  0  0
  3  7  2  0  0  0  0
  4 18  1  6  0  0  0
  4  1  1  0  0  0  0
  5 19  2  0  0  0  0
  6 14  1  0  0  0  0
  6  9  2  0  0  0  0
  8  4  1  0  0  0  0
  8 16  2  0  0  0  0
  9  8  1  0  0  0  0
 10 11  1  0  0  0  0
 12  5  2  0  0  0  0
 13  2  1  0  0  0  0
 13 19  1  0  0  0  0
 14 18  2  0  0  0  0
 15  3  1  0  0  0  0
 16 15  1  0  0  0  0
 17 10  2  0  0  0  0
 19 17  1  0  0  0  0
 20  7  1  0  0  0  0
 20 10  1  0  0  0  0
 21 22  1  1  0  0  0
 21 12  1  0  0  0  0
 23 25  1  0  0  0  0
 23 21  1  0  0  0  0
 24 23  2  0  0  0  0
M  END
>  <MODEL>
2

>  <REMARK>
 VINA RESULT:     -10.0      1.871      3.373
  Name = 
  2 active torsions:
  status: ('A' for Active; 'I' for Inactive)
    1  A    between atoms: C_2  and  C_21
    2  A    between atoms: C_15  and  C_21
                            x       y       z     vdW  Elec       q    Type
                         _______ _______ _______ _____ _____    ______ ____

>  <TORSDO>
F 2

$$$$
=
 OpenBabel10262419533D

 25 28  0  0  1  0  0  0  0  0999 V2000
  188.6370  177.6350  145.5850 C   0  0  0  0  0  0  0  0  0  0  0  0
  187.7550  177.9170  144.5400 C   0  0  0  0  0  0  0  0  0  0  0  0
  186.8510  177.6840  147.1880 C   0  0  0  0  0  3  0  0  0  0  0  0
  190.1180  177.5110  145.5980 C   0  0  1  0  0  3  0  0  0  0  0  0
  187.4720  178.2720  140.8570 C   0  0  0  0  0  0  0  0  0  0  0  0
  192.2210  175.8180  146.6040 C   0  0  0  0  0  3  0  0  0  0  0  0
  185.9780  177.9420  146.1720 N   0  0  0  0  0  0  0  0  0  0  0  0
  190.3290  177.2180  147.0620 C   0  0  0  0  0  0  0  0  0  0  0  0
  191.5600  176.5590  147.5030 C   0  0  0  0  0  3  0  0  0  0  0  0
  185.3940  178.3430  143.8080 C   0  0  0  0  0  0  0  0  0  0  0  0
  183.9560  178.5340  144.1460 C   0  0  0  0  0  1  0  0  0  0  0  0
  187.7830  178.3150  139.5910 C   0  0  0  0  0  3  0  0  0  0  0  0
  188.2650  178.1030  143.1360 C   0  0  0  0  0  2  0  0  0  0  0  0
  191.6900  175.6360  145.2260 C   0  0  0  0  0  3  0  0  0  0  0  0
  188.1990  177.5470  146.8810 C   0  0  0  0  0  0  0  0  0  0  0  0
  189.2500  177.2460  147.7830 N   0  0  0  0  0  0  0  0  0  0  0  0
  185.7630  178.4090  142.5290 C   0  0  0  0  0  3  0  0  0  0  0  0
  190.6660  176.3770  144.7700 C   0  0  0  0  0  3  0  0  0  0  0  0
  187.1650  178.2280  142.1220 C   0  0  0  0  0  0  0  0  0  0  0  0
  186.3860  178.0650  144.8680 C   0  0  0  0  0  0  0  0  0  0  0  0
  189.0040  177.6230  139.0850 C   0  0  2  0  0  3  0  0  0  0  0  0
  190.0620  177.7880  139.9820 O   0  0  0  0  0  1  0  0  0  0  0  0
  189.3820  178.1620  137.7450 C   0  0  0  0  0  0  0  0  0  0  0  0
  189.0340  179.4630  137.4060 O   0  0  0  0  0  1  0  0  0  0  0  0
  190.0300  177.4550  136.9290 O   0  0  0  0  0  0  0  0  0  0  0  0
  1  4  1  0  0  0  0
  1 15  1  0  0  0  0
  2 20  1  0  0  0  0
  2  1  2  0  0  0  0
  4 18  1  6  0  0  0
  4  8  1  0  0  0  0
  5 19  2  0  0  0  0
  6  9  2  0  0  0  0
  7  3  1  0  0  0  0
  8  9  1  0  0  0  0
  8 16  2  0  0  0  0
 10 11  1  0  0  0  0
 10 20  1  0  0  0  0
 12  5  2  0  0  0  0
 13  2  1  0  0  0  0
 14  6  1  0  0  0  0
 15  3  2  0  0  0  0
 15 16  1  0  0  0  0
 17 10  2  0  0  0  0
 18 14  2  0  0  0  0
 19 17  1  0  0  0  0
 19 13  1  0  0  0  0
 20  7  2  0  0  0  0
 21 12  1  0  0  0  0
 21 22  1  1  0  0  0
 23 21  1  0  0  0  0
 24 23  1  0  0  0  0
 25 23  2  0  0  0  0
M  END
>  <MODEL>
3

>  <REMARK>
 VINA RESULT:      -9.8      1.458      4.822
  Name = 
  2 active torsions:
  status: ('A' for Active; 'I' for Inactive)
    1  A    between atoms: C_2  and  C_21
    2  A    between atoms: C_15  and  C_21
                            x       y       z     vdW  Elec       q    Type
                         _______ _______ _______ _____ _____    ______ ____

>  <TORSDO>
F 2

$$$$
=
 OpenBabel10262419533D

 25 28  0  0  1  0  0  0  0  0999 V2000
  189.6240  177.7900  144.1510 C   0  0  0  0  0  0  0  0  0  0  0  0
  188.5480  177.9310  145.0300 C   0  0  0  0  0  0  0  0  0  0  0  0
  191.0850  177.1520  145.9460 C   0  0  0  0  0  3  0  0  0  0  0  0
  189.7350  178.0840  142.6990 C   0  0  1  0  0  3  0  0  0  0  0  0
  184.9060  178.6140  145.2410 C   0  0  0  0  0  0  0  0  0  0  0  0
  190.7250  176.9450  140.2460 C   0  0  0  0  0  3  0  0  0  0  0  0
  190.0360  177.2700  146.8100 N   0  0  0  0  0  0  0  0  0  0  0  0
  191.1750  177.6960  142.4780 C   0  0  0  0  0  0  0  0  0  0  0  0
  191.6400  177.3620  141.1300 C   0  0  0  0  0  3  0  0  0  0  0  0
  187.6860  177.7600  147.3800 C   0  0  0  0  0  0  0  0  0  0  0  0
  187.9330  177.5010  148.8260 C   0  0  0  0  0  1  0  0  0  0  0  0
  183.6770  178.8880  144.8990 C   0  0  0  0  0  3  0  0  0  0  0  0
  187.2110  178.4130  144.5340 C   0  0  0  0  0  2  0  0  0  0  0  0
  189.3010  176.7800  140.6410 C   0  0  0  0  0  3  0  0  0  0  0  0
  190.8670  177.4340  144.6030 C   0  0  0  0  0  0  0  0  0  0  0  0
  191.8120  177.3380  143.5510 N   0  0  0  0  0  0  0  0  0  0  0  0
  186.4500  178.0730  146.9890 C   0  0  0  0  0  3  0  0  0  0  0  0
  188.8440  177.2520  141.8130 C   0  0  0  0  0  3  0  0  0  0  0  0
  186.1340  178.3410  145.5780 C   0  0  0  0  0  0  0  0  0  0  0  0
  188.7850  177.6510  146.3980 C   0  0  0  0  0  0  0  0  0  0  0  0
  183.1990  178.6290  143.5100 C   0  0  2  0  0  3  0  0  0  0  0  0
  183.9680  179.3460  142.5910 O   0  0  0  0  0  1  0  0  0  0  0  0
  181.7620  179.0110  143.3820 C   0  0  0  0  0  0  0  0  0  0  0  0
  181.3360  179.7150  142.2640 O   0  0  0  0  0  0  0  0  0  0  0  0
  180.9300  178.6830  144.2690 O   0  0  0  0  0  1  0  0  0  0  0  0
  1 15  2  0  0  0  0
  1  2  1  0  0  0  0
  2 20  2  0  0  0  0
  3  7  2  0  0  0  0
  4 18  1  6  0  0  0
  4  1  1  0  0  0  0
  5 19  2  0  0  0  0
  6 14  1  0  0  0  0
  6  9  2  0  0  0  0
  8  4  1  0  0  0  0
  8 16  2  0  0  0  0
  9  8  1  0  0  0  0
 10 11  1  0  0  0  0
 12  5  2  0  0  0  0
 13  2  1  0  0  0  0
 13 19  1  0  0  0  0
 14 18  2  0  0  0  0
 15  3  1  0  0  0  0
 16 15  1  0  0  0  0
 17 10  2  0  0  0  0
 19 17  1  0  0  0  0
 20  7  1  0  0  0  0
 20 10  1  0  0  0  0
 21 22  1  6  0  0  0
 21 12  1  0  0  0  0
 23 21  1  0  0  0  0
 23 25  1  0  0  0  0
 24 23  2  0  0  0  0
M  END
>  <MODEL>
4

>  <REMARK>
 VINA RESULT:      -9.6      3.068      6.510
  Name = 
  2 active torsions:
  status: ('A' for Active; 'I' for Inactive)
    1  A    between atoms: C_2  and  C_21
    2  A    between atoms: C_15  and  C_21
                            x       y       z     vdW  Elec       q    Type
                         _______ _______ _______ _____ _____    ______ ____

>  <TORSDO>
F 2

$$$$
=
 OpenBabel10262419533D

 25 28  0  0  1  0  0  0  0  0999 V2000
  187.9310  177.7900  144.4370 C   0  0  0  0  0  0  0  0  0  0  0  0
  186.7350  178.1360  143.8070 C   0  0  0  0  0  0  0  0  0  0  0  0
  186.8750  177.8190  146.5930 C   0  0  0  0  0  3  0  0  0  0  0  0
  189.3040  177.6280  143.8920 C   0  0  1  0  0  3  0  0  0  0  0  0
  185.1110  178.6480  140.5080 C   0  0  0  0  0  0  0  0  0  0  0  0
  191.5640  175.8440  143.9890 C   0  0  0  0  0  3  0  0  0  0  0  0
  185.6960  178.1400  145.9850 N   0  0  0  0  0  0  0  0  0  0  0  0
  190.0340  177.2710  145.1620 C   0  0  0  0  0  0  0  0  0  0  0  0
  191.3140  176.5640  145.0910 C   0  0  0  0  0  3  0  0  0  0  0  0
  184.2890  178.6510  144.0240 C   0  0  0  0  0  0  0  0  0  0  0  0
  183.0890  178.8640  144.8810 C   0  0  0  0  0  1  0  0  0  0  0  0
  184.9300  178.7350  139.2190 C   0  0  0  0  0  3  0  0  0  0  0  0
  186.6910  178.3670  142.3200 C   0  0  0  0  0  2  0  0  0  0  0  0
  190.5500  175.7310  142.9050 C   0  0  0  0  0  3  0  0  0  0  0  0
  188.0040  177.6600  145.8000 C   0  0  0  0  0  0  0  0  0  0  0  0
  189.3040  177.2970  146.2340 N   0  0  0  0  0  0  0  0  0  0  0  0
  184.1560  178.7590  142.7010 C   0  0  0  0  0  3  0  0  0  0  0  0
  189.4590  176.5160  142.8870 C   0  0  0  0  0  3  0  0  0  0  0  0
  185.2970  178.5610  141.7950 C   0  0  0  0  0  0  0  0  0  0  0  0
  185.5930  178.3050  144.6280 C   0  0  0  0  0  0  0  0  0  0  0  0
  185.8460  178.0340  138.2740 C   0  0  2  0  0  3  0  0  0  0  0  0
  186.6520  178.9580  137.6050 O   0  0  0  0  0  1  0  0  0  0  0  0
  185.0570  177.2380  137.2890 C   0  0  0  0  0  0  0  0  0  0  0  0
  185.3930  177.2840  135.9420 O   0  0  0  0  0  0  0  0  0  0  0  0
  184.1020  176.5100  137.6700 O   0  0  0  0  0  1  0  0  0  0  0  0
  1 15  1  0  0  0  0
  2  1  2  0  0  0  0
  2 20  1  0  0  0  0
  4 18  1  6  0  0  0
  4  1  1  0  0  0  0
  4  8  1  0  0  0  0
  5 19  2  0  0  0  0
  6  9  2  0  0  0  0
  7  3  1  0  0  0  0
  8 16  2  0  0  0  0
  9  8  1  0  0  0  0
 10 20  1  0  0  0  0
 10 11  1  0  0  0  0
 12  5  2  0  0  0  0
 13  2  1  0  0  0  0
 14  6  1  0  0  0  0
 15 16  1  0  0  0  0
 15  3  2  0  0  0  0
 17 10  2  0  0  0  0
 18 14  2  0  0  0  0
 19 13  1  0  0  0  0
 19 17  1  0  0  0  0
 20  7  2  0  0  0  0
 21 22  1  6  0  0  0
 21 12  1  0  0  0  0
 23 25  1  0  0  0  0
 23 21  1  0  0  0  0
 24 23  2  0  0  0  0
M  END
>  <MODEL>
5

>  <REMARK>
 VINA RESULT:      -9.6      2.578      5.491
  Name = 
  2 active torsions:
  status: ('A' for Active; 'I' for Inactive)
    1  A    between atoms: C_2  and  C_21
    2  A    between atoms: C_15  and  C_21
                            x       y       z     vdW  Elec       q    Type
                         _______ _______ _______ _____ _____    ______ ____

>  <TORSDO>
F 2

$$$$
=
 OpenBabel10262419533D

 25 28  0  0  1  0  0  0  0  0999 V2000
  188.2370  177.6020  144.5870 C   0  0  0  0  0  0  0  0  0  0  0  0
  187.5120  177.8610  143.4220 C   0  0  0  0  0  0  0  0  0  0  0  0
  190.3140  177.6950  143.3880 C   0  0  0  0  0  3  0  0  0  0  0  0
  187.7790  177.2740  145.9620 C   0  0  1  0  0  3  0  0  0  0  0  0
  184.1160  178.5210  142.0770 C   0  0  0  0  0  0  0  0  0  0  0  0
  188.2660  177.9640  148.7160 C   0  0  0  0  0  3  0  0  0  0  0  0
  189.6160  177.9660  142.2470 N   0  0  0  0  0  0  0  0  0  0  0  0
  189.1180  177.1230  146.6390 C   0  0  0  0  0  0  0  0  0  0  0  0
  189.2180  177.2570  148.0940 C   0  0  0  0  0  3  0  0  0  0  0  0
  187.5450  178.3490  140.9620 C   0  0  0  0  0  0  0  0  0  0  0  0
  188.3070  178.5170  139.6930 C   0  0  0  0  0  1  0  0  0  0  0  0
  182.8250  178.6980  142.0100 C   0  0  0  0  0  3  0  0  0  0  0  0
  186.0070  177.8820  143.4450 C   0  0  0  0  0  2  0  0  0  0  0  0
  187.1800  178.6290  147.9450 C   0  0  0  0  0  3  0  0  0  0  0  0
  189.6030  177.4970  144.5640 C   0  0  0  0  0  0  0  0  0  0  0  0
  190.1420  177.2400  145.8500 N   0  0  0  0  0  0  0  0  0  0  0  0
  186.2200  178.4920  140.9340 C   0  0  0  0  0  3  0  0  0  0  0  0
  186.9870  178.3610  146.6430 C   0  0  0  0  0  3  0  0  0  0  0  0
  185.4040  178.3420  142.1490 C   0  0  0  0  0  0  0  0  0  0  0  0
  188.2480  178.0510  142.2280 C   0  0  0  0  0  0  0  0  0  0  0  0
  182.0490  179.0980  143.2190 C   0  0  2  0  0  3  0  0  0  0  0  0
  182.6770  178.6280  144.3750 O   0  0  0  0  0  1  0  0  0  0  0  0
  180.6590  178.5610  143.1390 C   0  0  0  0  0  0  0  0  0  0  0  0
  179.9130  178.4110  144.3000 O   0  0  0  0  0  1  0  0  0  0  0  0
  180.1510  178.2610  142.0260 O   0  0  0  0  0  0  0  0  0  0  0  0
  1  4  1  0  0  0  0
  2 13  1  0  0  0  0
  2  1  2  0  0  0  0
  3 15  2  0  0  0  0
  4  8  1  0  0  0  0
  4 18  1  1  0  0  0
  5 19  2  0  0  0  0
  7  3  1  0  0  0  0
  8  9  1  0  0  0  0
  9  6  2  0  0  0  0
 10 20  1  0  0  0  0
 11 10  1  0  0  0  0
 12  5  2  0  0  0  0
 12 21  1  0  0  0  0
 14  6  1  0  0  0  0
 15  1  1  0  0  0  0
 15 16  1  0  0  0  0
 16  8  2  0  0  0  0
 17 10  2  0  0  0  0
 17 19  1  0  0  0  0
 18 14  2  0  0  0  0
 19 13  1  0  0  0  0
 20  7  2  0  0  0  0
 20  2  1  0  0  0  0
 21 22  1  1  0  0  0
 23 21  1  0  0  0  0
 23 24  1  0  0  0  0
 25 23  2  0  0  0  0
M  END
>  <MODEL>
6

>  <REMARK>
 VINA RESULT:      -9.6      3.857      6.637
  Name = 
  2 active torsions:
  status: ('A' for Active; 'I' for Inactive)
    1  A    between atoms: C_2  and  C_21
    2  A    between atoms: C_15  and  C_21
                            x       y       z     vdW  Elec       q    Type
                         _______ _______ _______ _____ _____    ______ ____

>  <TORSDO>
F 2

$$$$
=
 OpenBabel10262419533D

 25 28  0  0  1  0  0  0  0  0999 V2000
  184.1140  178.8220  143.3620 C   0  0  0  0  0  0  0  0  0  0  0  0
  183.8450  178.7580  141.9930 C   0  0  0  0  0  0  0  0  0  0  0  0
  181.7710  178.8280  143.8830 C   0  0  0  0  0  3  0  0  0  0  0  0
  185.4000  178.9650  144.0930 C   0  0  1  0  0  3  0  0  0  0  0  0
  185.3930  178.4190  138.6370 C   0  0  0  0  0  0  0  0  0  0  0  0
  186.8460  177.8710  146.3300 C   0  0  0  0  0  3  0  0  0  0  0  0
  181.4980  178.7490  142.5490 N   0  0  0  0  0  0  0  0  0  0  0  0
  184.8800  178.9710  145.5080 C   0  0  0  0  0  0  0  0  0  0  0  0
  185.7770  178.6260  146.6140 C   0  0  0  0  0  3  0  0  0  0  0  0
  182.1300  178.6270  140.1670 C   0  0  0  0  0  0  0  0  0  0  0  0
  180.7030  178.6160  139.7400 C   0  0  0  0  0  1  0  0  0  0  0  0
  186.2850  178.2980  137.6920 C   0  0  0  0  0  3  0  0  0  0  0  0
  184.9670  178.7880  140.9900 C   0  0  0  0  0  2  0  0  0  0  0  0
  187.0790  177.3630  144.9520 C   0  0  0  0  0  3  0  0  0  0  0  0
  183.1010  178.8810  144.2820 C   0  0  0  0  0  0  0  0  0  0  0  0
  183.5870  178.9310  145.6130 N   0  0  0  0  0  0  0  0  0  0  0  0
  183.0770  178.5360  139.2330 C   0  0  0  0  0  3  0  0  0  0  0  0
  186.3640  177.8210  143.9100 C   0  0  0  0  0  3  0  0  0  0  0  0
  184.5060  178.5400  139.5830 C   0  0  0  0  0  0  0  0  0  0  0  0
  182.4860  178.7160  141.5990 C   0  0  0  0  0  0  0  0  0  0  0  0
  187.6420  177.7570  137.9940 C   0  0  2  0  0  3  0  0  0  0  0  0
  187.9280  177.8960  139.3540 O   0  0  0  0  0  1  0  0  0  0  0  0
  188.6710  178.4680  137.1800 C   0  0  0  0  0  0  0  0  0  0  0  0
  189.2770  177.8150  136.1160 O   0  0  0  0  0  0  0  0  0  0  0  0
  188.9800  179.6610  137.4390 O   0  0  0  0  0  1  0  0  0  0  0  0
  1  4  1  0  0  0  0
  1 15  1  0  0  0  0
  2  1  2  0  0  0  0
  3 15  2  0  0  0  0
  4 18  1  1  0  0  0
  4  8  1  0  0  0  0
  5 19  2  0  0  0  0
  6  9  2  0  0  0  0
  7  3  1  0  0  0  0
  8 16  2  0  0  0  0
  8  9  1  0  0  0  0
 10 20  1  0  0  0  0
 11 10  1  0  0  0  0
 12 21  1  0  0  0  0
 12  5  2  0  0  0  0
 13  2  1  0  0  0  0
 14  6  1  0  0  0  0
 15 16  1  0  0  0  0
 17 19  1  0  0  0  0
 17 10  2  0  0  0  0
 18 14  2  0  0  0  0
 19 13  1  0  0  0  0
 20  2  1  0  0  0  0
 20  7  2  0  0  0  0
 21 22  1  1  0  0  0
 23 25  1  0  0  0  0
 23 21  1  0  0  0  0
 24 23  2  0  0  0  0
M  END
>  <MODEL>
7

>  <REMARK>
 VINA RESULT:      -9.5      2.978      5.887
  Name = 
  2 active torsions:
  status: ('A' for Active; 'I' for Inactive)
    1  A    between atoms: C_2  and  C_21
    2  A    between atoms: C_15  and  C_21
                            x       y       z     vdW  Elec       q    Type
                         _______ _______ _______ _____ _____    ______ ____

>  <TORSDO>
F 2

$$$$
=
 OpenBabel10262419533D

 25 28  0  0  1  0  0  0  0  0999 V2000
  189.0070  177.4980  145.4840 C   0  0  0  0  0  0  0  0  0  0  0  0
  188.2530  177.7940  144.3480 C   0  0  0  0  0  0  0  0  0  0  0  0
  187.0520  177.5660  146.8750 C   0  0  0  0  0  3  0  0  0  0  0  0
  190.4760  177.3540  145.6650 C   0  0  1  0  0  3  0  0  0  0  0  0
  188.3940  178.1630  140.6570 C   0  0  0  0  0  0  0  0  0  0  0  0
  192.4290  175.6310  146.8950 C   0  0  0  0  0  3  0  0  0  0  0  0
  186.3030  177.8380  145.7670 N   0  0  0  0  0  0  0  0  0  0  0  0
  190.5150  177.0550  147.1420 C   0  0  0  0  0  0  0  0  0  0  0  0
  191.6800  176.3780  147.7160 C   0  0  0  0  0  3  0  0  0  0  0  0
  185.9960  178.2530  143.3540 C   0  0  0  0  0  0  0  0  0  0  0  0
  184.5310  178.4620  143.5280 C   0  0  0  0  0  1  0  0  0  0  0  0
  188.8470  178.2060  139.4350 C   0  0  0  0  0  3  0  0  0  0  0  0
  188.9210  177.9770  143.0110 C   0  0  0  0  0  2  0  0  0  0  0  0
  192.0560  175.4590  145.4650 C   0  0  0  0  0  3  0  0  0  0  0  0
  188.4240  177.4110  146.7210 C   0  0  0  0  0  0  0  0  0  0  0  0
  189.3620  177.0950  147.7360 N   0  0  0  0  0  0  0  0  0  0  0  0
  186.5080  178.3170  142.1250 C   0  0  0  0  0  3  0  0  0  0  0  0
  191.0990  176.2150  144.8990 C   0  0  0  0  0  3  0  0  0  0  0  0
  187.9450  178.1200  141.8790 C   0  0  0  0  0  0  0  0  0  0  0  0
  186.8570  177.9590  144.5190 C   0  0  0  0  0  0  0  0  0  0  0  0
  190.1090  177.4990  139.0670 C   0  0  2  0  0  3  0  0  0  0  0  0
  189.8220  176.3420  138.3400 O   0  0  0  0  0  1  0  0  0  0  0  0
  190.8790  177.1510  140.2970 C   0  0  0  0  0  0  0  0  0  0  0  0
  190.5560  176.0030  141.0080 O   0  0  0  0  0  1  0  0  0  0  0  0
  191.8320  177.8780  140.6840 O   0  0  0  0  0  0  0  0  0  0  0  0
  1  4  1  0  0  0  0
  1 15  1  0  0  0  0
  2 20  1  0  0  0  0
  2  1  2  0  0  0  0
  4 18  1  6  0  0  0
  4  8  1  0  0  0  0
  5 19  2  0  0  0  0
  6  9  2  0  0  0  0
  7  3  1  0  0  0  0
  8  9  1  0  0  0  0
  8 16  2  0  0  0  0
 10 11  1  0  0  0  0
 10 20  1  0  0  0  0
 12  5  2  0  0  0  0
 13  2  1  0  0  0  0
 14  6  1  0  0  0  0
 15  3  2  0  0  0  0
 15 16  1  0  0  0  0
 17 10  2  0  0  0  0
 18 14  2  0  0  0  0
 19 17  1  0  0  0  0
 19 13  1  0  0  0  0
 20  7  2  0  0  0  0
 21 22  1  1  0  0  0
 21 12  1  0  0  0  0
 21 23  1  0  0  0  0
 23 25  2  0  0  0  0
 23 24  1  0  0  0  0
M  END
>  <MODEL>
8

>  <REMARK>
 VINA RESULT:      -9.4      1.448      4.829
  Name = 
  2 active torsions:
  status: ('A' for Active; 'I' for Inactive)
    1  A    between atoms: C_2  and  C_21
    2  A    between atoms: C_15  and  C_21
                            x       y       z     vdW  Elec       q    Type
                         _______ _______ _______ _____ _____    ______ ____

>  <TORSDO>
F 2

$$$$
=
 OpenBabel10262419533D

 25 28  0  0  1  0  0  0  0  0999 V2000
  186.9500  177.6610  144.7800 C   0  0  0  0  0  0  0  0  0  0  0  0
  188.2080  177.3260  144.2760 C   0  0  0  0  0  0  0  0  0  0  0  0
  187.7460  177.5100  147.0390 C   0  0  0  0  0  3  0  0  0  0  0  0
  185.6520  177.8730  144.0870 C   0  0  1  0  0  3  0  0  0  0  0  0
  190.2010  176.9470  141.1680 C   0  0  0  0  0  0  0  0  0  0  0  0
  183.4170  179.6880  144.0090 C   0  0  0  0  0  3  0  0  0  0  0  0
  188.9840  177.2000  146.5570 N   0  0  0  0  0  0  0  0  0  0  0  0
  184.7820  178.1800  145.2790 C   0  0  0  0  0  0  0  0  0  0  0  0
  183.5270  178.9120  145.0950 C   0  0  0  0  0  3  0  0  0  0  0  0
  190.6060  176.7610  144.7510 C   0  0  0  0  0  0  0  0  0  0  0  0
  191.6940  176.4860  145.7300 C   0  0  0  0  0  1  0  0  0  0  0  0
  190.5310  176.9200  139.9060 C   0  0  0  0  0  3  0  0  0  0  0  0
  188.4230  177.1670  142.7950 C   0  0  0  0  0  2  0  0  0  0  0  0
  184.5510  179.8360  143.0580 C   0  0  0  0  0  3  0  0  0  0  0  0
  186.7190  177.7270  146.1290 C   0  0  0  0  0  0  0  0  0  0  0  0
  185.3810  178.0900  146.4270 N   0  0  0  0  0  0  0  0  0  0  0  0
  190.8910  176.7140  143.4490 C   0  0  0  0  0  3  0  0  0  0  0  0
  185.6280  179.0350  143.1280 C   0  0  0  0  0  3  0  0  0  0  0  0
  189.8660  176.9760  142.4270 C   0  0  0  0  0  0  0  0  0  0  0  0
  189.2440  177.0990  145.2150 C   0  0  0  0  0  0  0  0  0  0  0  0
  189.7400  177.6810  138.8970 C   0  0  2  0  0  3  0  0  0  0  0  0
  189.2050  178.8360  139.4720 O   0  0  0  0  0  1  0  0  0  0  0  0
  188.6440  176.8270  138.3530 C   0  0  0  0  0  0  0  0  0  0  0  0
  187.3590  177.3440  138.2470 O   0  0  0  0  0  1  0  0  0  0  0  0
  188.8780  175.6500  137.9700 O   0  0  0  0  0  0  0  0  0  0  0  0
  1 15  1  0  0  0  0
  2  1  2  0  0  0  0
  2 20  1  0  0  0  0
  4 18  1  6  0  0  0
  4  1  1  0  0  0  0
  4  8  1  0  0  0  0
  5 19  2  0  0  0  0
  6  9  2  0  0  0  0
  7  3  1  0  0  0  0
  8 16  2  0  0  0  0
  9  8  1  0  0  0  0
 10 20  1  0  0  0  0
 10 11  1  0  0  0  0
 12  5  2  0  0  0  0
 13  2  1  0  0  0  0
 14 18  2  0  0  0  0
 14  6  1  0  0  0  0
 15 16  1  0  0  0  0
 15  3  2  0  0  0  0
 17 10  2  0  0  0  0
 19 13  1  0  0  0  0
 19 17  1  0  0  0  0
 20  7  2  0  0  0  0
 21 22  1  1  0  0  0
 21 12  1  0  0  0  0
 23 21  1  0  0  0  0
 24 23  1  0  0  0  0
 25 23  2  0  0  0  0
M  END
>  <MODEL>
9

>  <REMARK>
 VINA RESULT:      -9.2      1.009      1.270
  Name = 
  2 active torsions:
  status: ('A' for Active; 'I' for Inactive)
    1  A    between atoms: C_2  and  C_21
    2  A    between atoms: C_15  and  C_21
                            x       y       z     vdW  Elec       q    Type
                         _______ _______ _______ _____ _____    ______ ____

>  <TORSDO>
F 2

$$$$
