=
 OpenBabel10262421333D

 32 36  0  0  1  0  0  0  0  0999 V2000
  188.3230  177.6570  137.4440 C   0  0  1  0  0  3  0  0  0  0  0  0
  188.9110  177.3640  142.5290 C   0  0  0  0  0  0  0  0  0  0  0  0
  184.5760  178.6280  144.3040 C   0  0  0  0  0  3  0  0  0  0  0  0
  185.0330  178.3540  145.5930 C   0  0  0  0  0  3  0  0  0  0  0  0
  189.3290  177.4420  140.1500 C   0  0  0  0  0  0  0  0  0  0  0  0
  187.1890  178.0750  141.0240 N   0  0  0  0  0  0  0  0  0  0  0  0
  187.4940  178.2520  138.5850 C   0  0  0  0  0  2  0  0  0  0  0  0
  185.4250  178.4570  143.2070 C   0  0  0  0  0  3  0  0  0  0  0  0
  187.6000  177.8250  142.2990 C   0  0  0  0  0  0  0  0  0  0  0  0
  186.7420  178.0100  143.3930 C   0  0  0  0  0  0  0  0  0  0  0  0
  188.5380  177.2940  144.8810 C   0  0  0  0  0  0  0  0  0  0  0  0
  189.8160  177.8450  137.7130 C   0  0  0  0  0  2  0  0  0  0  0  0
  188.0040  177.8850  139.9520 C   0  0  0  0  0  0  0  0  0  0  0  0
  190.2470  177.1440  139.0010 C   0  0  0  0  0  2  0  0  0  0  0  0
  186.3430  177.9100  145.7920 C   0  0  0  0  0  3  0  0  0  0  0  0
  187.2100  177.7370  144.7010 C   0  0  0  0  0  0  0  0  0  0  0  0
  189.7670  177.1690  141.4470 C   0  0  0  0  0  3  0  0  0  0  0  0
  189.3360  177.1080  143.7930 N   0  0  0  0  0  0  0  0  0  0  0  0
  189.4620  178.2330  146.9810 C   0  0  2  0  0  3  0  0  0  0  0  0
  189.0730  176.9590  146.2470 C   0  0  2  0  0  3  0  0  0  0  0  0
  190.5410  177.3380  146.3650 C   0  0  2  0  0  3  0  0  0  0  0  0
  189.2400  178.0440  148.4760 C   0  0  0  0  0  2  0  0  0  0  0  0
  187.7610  177.8780  148.7520 C   0  0  0  0  0  1  0  0  0  0  0  0
  192.0820  177.1280  148.1870 O   0  0  0  0  0  1  0  0  0  0  0  0
  191.2460  176.3960  147.3410 C   0  0  2  0  0  3  0  0  0  0  0  0
  192.0550  175.3440  146.5920 C   0  0  0  0  0  2  0  0  0  0  0  0
  192.0550  175.6050  145.2200 O   0  0  0  0  0  1  0  0  0  0  0  0
  186.7550  175.8230  137.2170 N   0  0  0  0  0  0  0  0  0  0  0  0
  187.9870  176.2190  137.2090 C   0  0  0  0  0  3  0  0  0  0  0  0
  186.3920  174.4580  137.0010 C   0  0  0  0  0  0  0  0  0  0  0  0
  187.2140  173.6170  136.0930 C   0  0  0  0  0  1  0  0  0  0  0  0
  185.3840  173.9570  137.5700 O   0  0  0  0  0  0  0  0  0  0  0  0
  1 29  1  1  0  0  0
  1 12  1  0  0  0  0
  1  7  1  0  0  0  0
  2 18  1  0  0  0  0
  3  4  1  0  0  0  0
  4 15  2  0  0  0  0
  5 17  1  0  0  0  0
  6  9  2  0  0  0  0
  7 13  1  0  0  0  0
  8 10  1  0  0  0  0
  8  3  2  0  0  0  0
  9  2  1  0  0  0  0
  9 10  1  0  0  0  0
 10 16  2  0  0  0  0
 12 14  1  0  0  0  0
 13  5  2  0  0  0  0
 13  6  1  0  0  0  0
 14  5  1  0  0  0  0
 16 11  1  0  0  0  0
 16 15  1  0  0  0  0
 17  2  2  0  0  0  0
 18 11  2  0  0  0  0
 19 22  1  1  0  0  0
 20 11  1  6  0  0  0
 20 21  1  0  0  0  0
 20 19  1  0  0  0  0
 21 19  1  0  0  0  0
 21 25  1  1  0  0  0
 22 23  1  0  0  0  0
 25 24  1  1  0  0  0
 26 25  1  0  0  0  0
 27 26  1  0  0  0  0
 29 28  2  0  0  0  0
 30 28  1  0  0  0  0
 30 32  2  0  0  0  0
 31 30  1  0  0  0  0
M  END
>  <MODEL>
1

>  <REMARK>
 VINA RESULT:      -9.5      0.000      0.000
  Name = 
  6 active torsions:
  status: ('A' for Active; 'I' for Inactive)
    1  A    between atoms: C_1  and  N_10
    2  A    between atoms: C_2  and  C_24
    3  A    between atoms: C_6  and  C_7
    4  A    between atoms: C_11  and  C_22
    5  A    between atoms: C_16  and  C_27
    6  A    between atoms: C_22  and  C_32
                            x       y       z     vdW  Elec       q    Type
                         _______ _______ _______ _____ _____    ______ ____

>  <TORSDO>
F 6

$$$$
=
 OpenBabel10262421333D

 32 36  0  0  1  0  0  0  0  0999 V2000
  180.4800  178.9560  141.8860 C   0  0  1  0  0  3  0  0  0  0  0  0
  185.4600  178.2190  142.8600 C   0  0  0  0  0  0  0  0  0  0  0  0
  185.7860  178.5240  147.6910 C   0  0  0  0  0  3  0  0  0  0  0  0
  187.1390  178.1950  147.6120 C   0  0  0  0  0  3  0  0  0  0  0  0
  183.3530  178.6250  141.7480 C   0  0  0  0  0  0  0  0  0  0  0  0
  183.5120  178.7840  144.1350 N   0  0  0  0  0  0  0  0  0  0  0  0
  181.3170  179.2740  143.1280 C   0  0  0  0  0  2  0  0  0  0  0  0
  185.0190  178.6210  146.5280 C   0  0  0  0  0  3  0  0  0  0  0  0
  184.8380  178.4720  144.0980 C   0  0  0  0  0  0  0  0  0  0  0  0
  185.6010  178.3890  145.2730 C   0  0  0  0  0  0  0  0  0  0  0  0
  187.5570  177.8330  143.9230 C   0  0  0  0  0  0  0  0  0  0  0  0
  181.2280  179.3670  140.6180 C   0  0  0  0  0  2  0  0  0  0  0  0
  182.7560  178.8530  143.0060 C   0  0  0  0  0  0  0  0  0  0  0  0
  182.5520  178.6140  140.4790 C   0  0  0  0  0  2  0  0  0  0  0  0
  187.7330  177.9630  146.3690 C   0  0  0  0  0  3  0  0  0  0  0  0
  186.9760  178.0600  145.1890 C   0  0  0  0  0  0  0  0  0  0  0  0
  184.7070  178.2920  141.6900 C   0  0  0  0  0  3  0  0  0  0  0  0
  186.7800  177.9050  142.8070 N   0  0  0  0  0  0  0  0  0  0  0  0
  189.8420  178.6790  143.4690 C   0  0  2  0  0  3  0  0  0  0  0  0
  189.0050  177.4500  143.7850 C   0  0  2  0  0  3  0  0  0  0  0  0
  189.4950  177.6790  142.3630 C   0  0  2  0  0  3  0  0  0  0  0  0
  191.2290  178.5160  144.0770 C   0  0  0  0  0  2  0  0  0  0  0  0
  191.1080  177.9270  145.4670 C   0  0  0  0  0  1  0  0  0  0  0  0
  190.5560  176.3730  140.6580 O   0  0  0  0  0  1  0  0  0  0  0  0
  190.5940  176.6730  142.0210 C   0  0  2  0  0  3  0  0  0  0  0  0
  190.4360  175.3970  142.8390 C   0  0  0  0  0  2  0  0  0  0  0  0
  191.5890  175.1430  143.5850 O   0  0  0  0  0  1  0  0  0  0  0  0
  179.6040  176.9990  140.7570 N   0  0  0  0  0  0  0  0  0  0  0  0
  180.0810  177.5150  141.8430 C   0  0  0  0  0  3  0  0  0  0  0  0
  179.2080  175.6280  140.6760 C   0  0  0  0  0  0  0  0  0  0  0  0
  179.0250  174.9960  139.3430 C   0  0  0  0  0  1  0  0  0  0  0  0
  179.0110  174.9460  141.7190 O   0  0  0  0  0  0  0  0  0  0  0  0
  1 29  1  6  0  0  0
  1  7  1  0  0  0  0
  2  9  1  0  0  0  0
  4  3  1  0  0  0  0
  5 13  1  0  0  0  0
  8  3  2  0  0  0  0
  9  6  1  0  0  0  0
  9 10  2  0  0  0  0
 10  8  1  0  0  0  0
 11 16  2  0  0  0  0
 12  1  1  0  0  0  0
 13  7  1  0  0  0  0
 13  6  2  0  0  0  0
 14 12  1  0  0  0  0
 14  5  1  0  0  0  0
 15  4  2  0  0  0  0
 16 10  1  0  0  0  0
 16 15  1  0  0  0  0
 17  5  2  0  0  0  0
 17  2  1  0  0  0  0
 18  2  2  0  0  0  0
 18 11  1  0  0  0  0
 19 20  1  0  0  0  0
 19 22  1  1  0  0  0
 20 11  1  6  0  0  0
 21 25  1  1  0  0  0
 21 19  1  0  0  0  0
 21 20  1  0  0  0  0
 22 23  1  0  0  0  0
 25 24  1  6  0  0  0
 25 26  1  0  0  0  0
 26 27  1  0  0  0  0
 28 29  2  0  0  0  0
 30 28  1  0  0  0  0
 30 32  2  0  0  0  0
 31 30  1  0  0  0  0
M  END
>  <MODEL>
2

>  <REMARK>
 VINA RESULT:      -9.1      3.675      5.698
  Name = 
  6 active torsions:
  status: ('A' for Active; 'I' for Inactive)
    1  A    between atoms: C_1  and  N_10
    2  A    between atoms: C_2  and  C_24
    3  A    between atoms: C_6  and  C_7
    4  A    between atoms: C_11  and  C_22
    5  A    between atoms: C_16  and  C_27
    6  A    between atoms: C_22  and  C_32
                            x       y       z     vdW  Elec       q    Type
                         _______ _______ _______ _____ _____    ______ ____

>  <TORSDO>
F 6

$$$$
=
 OpenBabel10262421333D

 32 36  0  0  1  0  0  0  0  0999 V2000
  181.8570  178.7190  140.0730 C   0  0  1  0  0  3  0  0  0  0  0  0
  186.6550  178.3500  141.8440 C   0  0  0  0  0  0  0  0  0  0  0  0
  186.1150  177.7190  146.6240 C   0  0  0  0  0  3  0  0  0  0  0  0
  187.4960  177.5610  146.7500 C   0  0  0  0  0  3  0  0  0  0  0  0
  184.7300  178.7370  140.4360 C   0  0  0  0  0  0  0  0  0  0  0  0
  184.4600  178.4340  142.7980 N   0  0  0  0  0  0  0  0  0  0  0  0
  182.4180  178.8720  141.4900 C   0  0  0  0  0  2  0  0  0  0  0  0
  185.5490  177.9610  145.3700 C   0  0  0  0  0  3  0  0  0  0  0  0
  185.8040  178.2810  142.9640 C   0  0  0  0  0  0  0  0  0  0  0  0
  186.3620  178.0490  144.2300 C   0  0  0  0  0  0  0  0  0  0  0  0
  188.5770  177.9890  143.2060 C   0  0  0  0  0  0  0  0  0  0  0  0
  182.7420  179.4540  139.0660 C   0  0  0  0  0  2  0  0  0  0  0  0
  183.9030  178.6440  141.5750 C   0  0  0  0  0  0  0  0  0  0  0  0
  184.1640  178.8930  139.0550 C   0  0  0  0  0  2  0  0  0  0  0  0
  188.3170  177.6480  145.6230 C   0  0  0  0  0  3  0  0  0  0  0  0
  187.7640  177.8950  144.3560 C   0  0  0  0  0  0  0  0  0  0  0  0
  186.1080  178.5720  140.5820 C   0  0  0  0  0  3  0  0  0  0  0  0
  187.9960  178.1980  141.9910 N   0  0  0  0  0  0  0  0  0  0  0  0
  190.5590  177.0280  142.0700 C   0  0  2  0  0  3  0  0  0  0  0  0
  190.0670  177.8010  143.2840 C   0  0  2  0  0  3  0  0  0  0  0  0
  190.4230  176.3290  143.4260 C   0  0  2  0  0  3  0  0  0  0  0  0
  191.9680  177.4860  141.7160 C   0  0  0  0  0  2  0  0  0  0  0  0
  192.1490  177.4560  140.2130 C   0  0  0  0  0  1  0  0  0  0  0  0
  192.0910  174.8350  144.2780 O   0  0  0  0  0  1  0  0  0  0  0  0
  191.7210  176.1810  144.2190 C   0  0  2  0  0  3  0  0  0  0  0  0
  191.5640  176.7390  145.6280 C   0  0  0  0  0  2  0  0  0  0  0  0
  192.0710  175.8450  146.5730 O   0  0  0  0  0  1  0  0  0  0  0  0
  180.6370  176.6260  140.0920 N   0  0  0  0  0  0  0  0  0  0  0  0
  181.6820  177.2820  139.7010 C   0  0  0  0  0  3  0  0  0  0  0  0
  180.4340  175.2510  139.7610 C   0  0  0  0  0  0  0  0  0  0  0  0
  179.6540  174.3830  140.6820 C   0  0  0  0  0  1  0  0  0  0  0  0
  180.9060  174.7620  138.6980 O   0  0  0  0  0  0  0  0  0  0  0  0
  1 29  1  6  0  0  0
  1  7  1  0  0  0  0
  2 18  2  0  0  0  0
  2  9  1  0  0  0  0
  3  4  1  0  0  0  0
  5 17  2  0  0  0  0
  5 13  1  0  0  0  0
  6  9  1  0  0  0  0
  7 13  1  0  0  0  0
  8  3  2  0  0  0  0
  9 10  2  0  0  0  0
 10 16  1  0  0  0  0
 10  8  1  0  0  0  0
 11 16  2  0  0  0  0
 12  1  1  0  0  0  0
 13  6  2  0  0  0  0
 14 12  1  0  0  0  0
 14  5  1  0  0  0  0
 15  4  2  0  0  0  0
 16 15  1  0  0  0  0
 17  2  1  0  0  0  0
 18 11  1  0  0  0  0
 19 22  1  1  0  0  0
 19 20  1  0  0  0  0
 19 21  1  0  0  0  0
 20 11  1  6  0  0  0
 20 21  1  0  0  0  0
 21 25  1  1  0  0  0
 23 22  1  0  0  0  0
 25 24  1  1  0  0  0
 25 26  1  0  0  0  0
 26 27  1  0  0  0  0
 29 28  2  0  0  0  0
 30 28  1  0  0  0  0
 30 31  1  0  0  0  0
 32 30  2  0  0  0  0
M  END
>  <MODEL>
3

>  <REMARK>
 VINA RESULT:      -9.1      3.225      4.879
  Name = 
  6 active torsions:
  status: ('A' for Active; 'I' for Inactive)
    1  A    between atoms: C_1  and  N_10
    2  A    between atoms: C_2  and  C_24
    3  A    between atoms: C_6  and  C_7
    4  A    between atoms: C_11  and  C_22
    5  A    between atoms: C_16  and  C_27
    6  A    between atoms: C_22  and  C_32
                            x       y       z     vdW  Elec       q    Type
                         _______ _______ _______ _____ _____    ______ ____

>  <TORSDO>
F 6

$$$$
=
 OpenBabel10262421333D

 32 36  0  0  1  0  0  0  0  0999 V2000
  179.6710  178.9710  140.0940 C   0  0  1  0  0  3  0  0  0  0  0  0
  184.6220  178.6420  141.3850 C   0  0  0  0  0  0  0  0  0  0  0  0
  184.5810  178.4980  146.2340 C   0  0  0  0  0  3  0  0  0  0  0  0
  185.9650  178.3140  146.2320 C   0  0  0  0  0  3  0  0  0  0  0  0
  182.5650  178.9440  140.1530 C   0  0  0  0  0  0  0  0  0  0  0  0
  182.5420  178.8810  142.5490 N   0  0  0  0  0  0  0  0  0  0  0  0
  180.3810  179.2460  141.4220 C   0  0  0  0  0  2  0  0  0  0  0  0
  183.8900  178.6320  145.0280 C   0  0  0  0  0  3  0  0  0  0  0  0
  183.8940  178.7070  142.5880 C   0  0  0  0  0  0  0  0  0  0  0  0
  184.5780  178.5850  143.8060 C   0  0  0  0  0  0  0  0  0  0  0  0
  186.6700  178.3630  142.5690 C   0  0  0  0  0  0  0  0  0  0  0  0
  180.4560  179.5780  138.9320 C   0  0  0  0  0  2  0  0  0  0  0  0
  181.8620  178.9860  141.3760 C   0  0  0  0  0  0  0  0  0  0  0  0
  181.8590  178.9790  138.8290 C   0  0  0  0  0  2  0  0  0  0  0  0
  186.6630  178.2670  145.0220 C   0  0  0  0  0  3  0  0  0  0  0  0
  185.9830  178.4040  143.8010 C   0  0  0  0  0  0  0  0  0  0  0  0
  183.9480  178.7550  140.1710 C   0  0  0  0  0  3  0  0  0  0  0  0
  185.9680  178.4680  141.4070 N   0  0  0  0  0  0  0  0  0  0  0  0
  188.5350  177.4880  141.1900 C   0  0  2  0  0  3  0  0  0  0  0  0
  188.1570  178.1410  142.5100 C   0  0  2  0  0  3  0  0  0  0  0  0
  188.4850  176.6560  142.4750 C   0  0  2  0  0  3  0  0  0  0  0  0
  189.9240  177.9540  140.7740 C   0  0  0  0  0  2  0  0  0  0  0  0
  190.3240  177.2710  139.4840 C   0  0  0  0  0  1  0  0  0  0  0  0
  190.2350  175.0840  142.9270 O   0  0  0  0  0  1  0  0  0  0  0  0
  189.8360  176.4050  143.1450 C   0  0  2  0  0  3  0  0  0  0  0  0
  189.7620  176.6860  144.6400 C   0  0  0  0  0  2  0  0  0  0  0  0
  190.2220  177.9740  144.9240 O   0  0  0  0  0  1  0  0  0  0  0  0
  179.6970  176.6630  140.8300 N   0  0  0  0  0  0  0  0  0  0  0  0
  179.4310  177.5100  139.8890 C   0  0  0  0  0  3  0  0  0  0  0  0
  179.4860  175.2580  140.6720 C   0  0  0  0  0  0  0  0  0  0  0  0
  179.9280  174.5870  139.4220 C   0  0  0  0  0  1  0  0  0  0  0  0
  178.9310  174.5790  141.5790 O   0  0  0  0  0  0  0  0  0  0  0  0
  1 29  1  6  0  0  0
  1  7  1  0  0  0  0
  2 18  2  0  0  0  0
  2  9  1  0  0  0  0
  4  3  1  0  0  0  0
  5 17  2  0  0  0  0
  5 13  1  0  0  0  0
  6  9  1  0  0  0  0
  8  3  2  0  0  0  0
  9 10  2  0  0  0  0
 10  8  1  0  0  0  0
 11 16  2  0  0  0  0
 12  1  1  0  0  0  0
 13  7  1  0  0  0  0
 13  6  2  0  0  0  0
 14 12  1  0  0  0  0
 14  5  1  0  0  0  0
 15  4  2  0  0  0  0
 16 10  1  0  0  0  0
 16 15  1  0  0  0  0
 17  2  1  0  0  0  0
 18 11  1  0  0  0  0
 19 22  1  1  0  0  0
 19 21  1  0  0  0  0
 19 20  1  0  0  0  0
 20 11  1  6  0  0  0
 21 20  1  0  0  0  0
 21 25  1  1  0  0  0
 23 22  1  0  0  0  0
 25 24  1  1  0  0  0
 25 26  1  0  0  0  0
 26 27  1  0  0  0  0
 29 28  2  0  0  0  0
 30 28  1  0  0  0  0
 30 32  2  0  0  0  0
 31 30  1  0  0  0  0
M  END
>  <MODEL>
4

>  <REMARK>
 VINA RESULT:      -8.5      4.012      6.057
  Name = 
  6 active torsions:
  status: ('A' for Active; 'I' for Inactive)
    1  A    between atoms: C_1  and  N_10
    2  A    between atoms: C_2  and  C_24
    3  A    between atoms: C_6  and  C_7
    4  A    between atoms: C_11  and  C_22
    5  A    between atoms: C_16  and  C_27
    6  A    between atoms: C_22  and  C_32
                            x       y       z     vdW  Elec       q    Type
                         _______ _______ _______ _____ _____    ______ ____

>  <TORSDO>
F 6

$$$$
=
 OpenBabel10262421333D

 32 36  0  0  1  0  0  0  0  0999 V2000
  187.6230  177.6980  136.4450 C   0  0  1  0  0  3  0  0  0  0  0  0
  188.5430  178.0220  141.4790 C   0  0  0  0  0  0  0  0  0  0  0  0
  184.1530  178.6280  143.4550 C   0  0  0  0  0  3  0  0  0  0  0  0
  184.7270  178.5720  144.7260 C   0  0  0  0  0  3  0  0  0  0  0  0
  188.8030  177.9420  139.0780 C   0  0  0  0  0  0  0  0  0  0  0  0
  186.6340  178.2490  140.0510 N   0  0  0  0  0  0  0  0  0  0  0  0
  186.7610  178.2380  137.5900 C   0  0  0  0  0  2  0  0  0  0  0  0
  184.9560  178.5100  142.3180 C   0  0  0  0  0  3  0  0  0  0  0  0
  187.1570  178.2070  141.3080 C   0  0  0  0  0  0  0  0  0  0  0  0
  186.3420  178.3370  142.4430 C   0  0  0  0  0  0  0  0  0  0  0  0
  188.3240  178.1160  143.8500 C   0  0  0  0  0  0  0  0  0  0  0  0
  189.0640  178.1850  136.5850 C   0  0  0  0  0  2  0  0  0  0  0  0
  187.4080  178.1090  138.9420 C   0  0  0  0  0  0  0  0  0  0  0  0
  189.6940  177.7070  137.8940 C   0  0  0  0  0  2  0  0  0  0  0  0
  186.1070  178.4020  144.8650 C   0  0  0  0  0  3  0  0  0  0  0  0
  186.9280  178.2860  143.7310 C   0  0  0  0  0  0  0  0  0  0  0  0
  189.3570  177.8840  140.3570 C   0  0  0  0  0  3  0  0  0  0  0  0
  189.0800  177.9760  142.7250 N   0  0  0  0  0  0  0  0  0  0  0  0
  189.9170  176.8200  145.2380 C   0  0  2  0  0  3  0  0  0  0  0  0
  188.9890  178.0240  145.1960 C   0  0  2  0  0  3  0  0  0  0  0  0
  188.5540  176.7660  145.9330 C   0  0  2  0  0  3  0  0  0  0  0  0
  191.0980  177.1230  146.1510 C   0  0  0  0  0  2  0  0  0  0  0  0
  192.0520  175.9470  146.1540 C   0  0  0  0  0  1  0  0  0  0  0  0
  188.4400  175.7990  148.1220 O   0  0  0  0  0  1  0  0  0  0  0  0
  188.5780  177.0110  147.4420 C   0  0  2  0  0  3  0  0  0  0  0  0
  187.4680  177.9690  147.8550 C   0  0  0  0  0  2  0  0  0  0  0  0
  187.9810  179.0180  148.6210 O   0  0  0  0  0  1  0  0  0  0  0  0
  186.5200  175.5700  136.8040 N   0  0  0  0  0  0  0  0  0  0  0  0
  187.5560  176.2060  136.3610 C   0  0  0  0  0  3  0  0  0  0  0  0
  186.4180  174.1460  136.7450 C   0  0  0  0  0  0  0  0  0  0  0  0
  185.4140  173.4470  137.5900 C   0  0  0  0  0  1  0  0  0  0  0  0
  187.1680  173.4720  135.9860 O   0  0  0  0  0  0  0  0  0  0  0  0
  1 29  1  1  0  0  0
  1 12  1  0  0  0  0
  1  7  1  0  0  0  0
  2 18  1  0  0  0  0
  3  4  1  0  0  0  0
  4 15  2  0  0  0  0
  5 17  1  0  0  0  0
  6  9  2  0  0  0  0
  7 13  1  0  0  0  0
  8 10  1  0  0  0  0
  8  3  2  0  0  0  0
  9  2  1  0  0  0  0
  9 10  1  0  0  0  0
 10 16  2  0  0  0  0
 12 14  1  0  0  0  0
 13  5  2  0  0  0  0
 13  6  1  0  0  0  0
 14  5  1  0  0  0  0
 16 11  1  0  0  0  0
 16 15  1  0  0  0  0
 17  2  2  0  0  0  0
 18 11  2  0  0  0  0
 19 21  1  0  0  0  0
 19 22  1  1  0  0  0
 20 11  1  6  0  0  0
 20 19  1  0  0  0  0
 20 21  1  0  0  0  0
 21 25  1  1  0  0  0
 22 23  1  0  0  0  0
 25 26  1  0  0  0  0
 25 24  1  1  0  0  0
 26 27  1  0  0  0  0
 29 28  2  0  0  0  0
 30 28  1  0  0  0  0
 30 31  1  0  0  0  0
 32 30  2  0  0  0  0
M  END
>  <MODEL>
5

>  <REMARK>
 VINA RESULT:      -7.9      1.515      2.382
  Name = 
  6 active torsions:
  status: ('A' for Active; 'I' for Inactive)
    1  A    between atoms: C_1  and  N_10
    2  A    between atoms: C_2  and  C_24
    3  A    between atoms: C_6  and  C_7
    4  A    between atoms: C_11  and  C_22
    5  A    between atoms: C_16  and  C_27
    6  A    between atoms: C_22  and  C_32
                            x       y       z     vdW  Elec       q    Type
                         _______ _______ _______ _____ _____    ______ ____

>  <TORSDO>
F 6

$$$$
=
 OpenBabel10262421333D

 32 36  0  0  1  0  0  0  0  0999 V2000
  181.4710  179.1480  139.6140 C   0  0  1  0  0  3  0  0  0  0  0  0
  185.8150  178.1770  142.1590 C   0  0  0  0  0  0  0  0  0  0  0  0
  184.5600  178.5260  146.8320 C   0  0  0  0  0  3  0  0  0  0  0  0
  185.8470  178.1290  147.1990 C   0  0  0  0  0  3  0  0  0  0  0  0
  184.2100  178.6730  140.4210 C   0  0  0  0  0  0  0  0  0  0  0  0
  183.5890  178.8540  142.7290 N   0  0  0  0  0  0  0  0  0  0  0  0
  181.8700  179.4390  141.0630 C   0  0  0  0  0  2  0  0  0  0  0  0
  184.2210  178.6460  145.4820 C   0  0  0  0  0  3  0  0  0  0  0  0
  184.8370  178.4760  143.1270 C   0  0  0  0  0  0  0  0  0  0  0  0
  185.1680  178.3690  144.4860 C   0  0  0  0  0  0  0  0  0  0  0  0
  187.4270  177.7000  143.8470 C   0  0  0  0  0  0  0  0  0  0  0  0
  182.6120  179.5050  138.6620 C   0  0  0  0  0  2  0  0  0  0  0  0
  183.2480  178.9470  141.4160 C   0  0  0  0  0  0  0  0  0  0  0  0
  183.8680  178.6870  138.9600 C   0  0  0  0  0  2  0  0  0  0  0  0
  186.8010  177.8520  146.2160 C   0  0  0  0  0  3  0  0  0  0  0  0
  186.4760  177.9720  144.8550 C   0  0  0  0  0  0  0  0  0  0  0  0
  185.4900  178.2730  140.8070 C   0  0  0  0  0  3  0  0  0  0  0  0
  187.0620  177.7970  142.5380 N   0  0  0  0  0  0  0  0  0  0  0  0
  189.3390  178.0090  145.3940 C   0  0  2  0  0  3  0  0  0  0  0  0
  188.8190  177.2440  144.1870 C   0  0  2  0  0  3  0  0  0  0  0  0
  189.8250  178.3680  143.9870 C   0  0  2  0  0  3  0  0  0  0  0  0
  190.2770  177.1150  146.1950 C   0  0  0  0  0  2  0  0  0  0  0  0
  189.9040  177.1720  147.6610 C   0  0  0  0  0  1  0  0  0  0  0  0
  192.1970  178.6940  143.9180 O   0  0  0  0  0  1  0  0  0  0  0  0
  191.1840  177.7880  143.5970 C   0  0  2  0  0  3  0  0  0  0  0  0
  191.2290  177.4630  142.1090 C   0  0  0  0  0  2  0  0  0  0  0  0
  190.6600  176.2120  141.8580 O   0  0  0  0  0  1  0  0  0  0  0  0
  180.7310  177.2770  138.2620 N   0  0  0  0  0  0  0  0  0  0  0  0
  181.0340  177.7280  139.4360 C   0  0  0  0  0  3  0  0  0  0  0  0
  180.3070  175.9290  138.0510 C   0  0  0  0  0  0  0  0  0  0  0  0
  180.4610  174.9330  139.1430 C   0  0  0  0  0  1  0  0  0  0  0  0
  179.8020  175.5730  136.9510 O   0  0  0  0  0  0  0  0  0  0  0  0
  1 29  1  1  0  0  0
  1  7  1  0  0  0  0
  2 18  2  0  0  0  0
  2  9  1  0  0  0  0
  3  4  1  0  0  0  0
  5 17  2  0  0  0  0
  5 13  1  0  0  0  0
  6  9  1  0  0  0  0
  7 13  1  0  0  0  0
  8  3  2  0  0  0  0
  9 10  2  0  0  0  0
 10 16  1  0  0  0  0
 10  8  1  0  0  0  0
 11 16  2  0  0  0  0
 12 14  1  0  0  0  0
 12  1  1  0  0  0  0
 13  6  2  0  0  0  0
 14  5  1  0  0  0  0
 15  4  2  0  0  0  0
 16 15  1  0  0  0  0
 17  2  1  0  0  0  0
 18 11  1  0  0  0  0
 19 22  1  1  0  0  0
 20 11  1  6  0  0  0
 20 19  1  0  0  0  0
 21 25  1  1  0  0  0
 21 20  1  0  0  0  0
 21 19  1  0  0  0  0
 22 23  1  0  0  0  0
 25 24  1  6  0  0  0
 26 25  1  0  0  0  0
 27 26  1  0  0  0  0
 28 29  2  0  0  0  0
 30 28  1  0  0  0  0
 30 31  1  0  0  0  0
 32 30  2  0  0  0  0
M  END
>  <MODEL>
6

>  <REMARK>
 VINA RESULT:      -7.8      3.384      4.545
  Name = 
  6 active torsions:
  status: ('A' for Active; 'I' for Inactive)
    1  A    between atoms: C_1  and  N_10
    2  A    between atoms: C_2  and  C_24
    3  A    between atoms: C_6  and  C_7
    4  A    between atoms: C_11  and  C_22
    5  A    between atoms: C_16  and  C_27
    6  A    between atoms: C_22  and  C_32
                            x       y       z     vdW  Elec       q    Type
                         _______ _______ _______ _____ _____    ______ ____

>  <TORSDO>
F 6

$$$$
=
 OpenBabel10262421333D

 32 36  0  0  1  0  0  0  0  0999 V2000
  180.5360  179.2780  137.6080 C   0  0  1  0  0  3  0  0  0  0  0  0
  184.2830  178.5980  141.0420 C   0  0  0  0  0  0  0  0  0  0  0  0
  188.3060  178.2280  138.3560 C   0  0  0  0  0  3  0  0  0  0  0  0
  189.0690  178.1660  139.5230 C   0  0  0  0  0  3  0  0  0  0  0  0
  182.1190  178.7930  139.9830 C   0  0  0  0  0  0  0  0  0  0  0  0
  184.1040  178.6030  138.6530 N   0  0  0  0  0  0  0  0  0  0  0  0
  181.9610  178.7430  137.4440 C   0  0  0  0  0  2  0  0  0  0  0  0
  186.9160  178.3470  138.4330 C   0  0  0  0  0  3  0  0  0  0  0  0
  184.8830  178.5330  139.7700 C   0  0  0  0  0  0  0  0  0  0  0  0
  186.2770  178.4030  139.6800 C   0  0  0  0  0  0  0  0  0  0  0  0
  186.3980  178.3870  142.1180 C   0  0  0  0  0  0  0  0  0  0  0  0
  179.8760  178.6710  138.8460 C   0  0  0  0  0  2  0  0  0  0  0  0
  182.7530  178.7450  138.7240 C   0  0  0  0  0  0  0  0  0  0  0  0
  180.6430  179.0240  140.1210 C   0  0  0  0  0  2  0  0  0  0  0  0
  188.4450  178.2200  140.7720 C   0  0  0  0  0  3  0  0  0  0  0  0
  187.0480  178.3350  140.8660 C   0  0  0  0  0  0  0  0  0  0  0  0
  182.9000  178.7350  141.1390 C   0  0  0  0  0  3  0  0  0  0  0  0
  185.0440  178.5310  142.1640 N   0  0  0  0  0  0  0  0  0  0  0  0
  187.5630  176.9180  143.7400 C   0  0  2  0  0  3  0  0  0  0  0  0
  187.1750  178.3500  143.4050 C   0  0  2  0  0  3  0  0  0  0  0  0
  186.4090  177.5970  144.4830 C   0  0  2  0  0  3  0  0  0  0  0  0
  188.8950  176.9150  144.4790 C   0  0  0  0  0  2  0  0  0  0  0  0
  189.8320  177.9190  143.8400 C   0  0  0  0  0  1  0  0  0  0  0  0
  186.7600  177.1330  146.8070 O   0  0  0  0  0  1  0  0  0  0  0  0
  186.7590  178.1600  145.8600 C   0  0  2  0  0  3  0  0  0  0  0  0
  185.7710  179.2450  146.2710 C   0  0  0  0  0  2  0  0  0  0  0  0
  184.5350  178.6870  146.6050 O   0  0  0  0  0  1  0  0  0  0  0  0
  180.7780  181.4650  136.5920 N   0  0  0  0  0  0  0  0  0  0  0  0
  180.5090  180.7730  137.6510 C   0  0  0  0  0  3  0  0  0  0  0  0
  180.7670  182.8940  136.5920 C   0  0  0  0  0  0  0  0  0  0  0  0
  180.7140  183.6260  135.3000 C   0  0  0  0  0  1  0  0  0  0  0  0
  180.8000  183.5430  137.6740 O   0  0  0  0  0  0  0  0  0  0  0  0
  1 29  1  1  0  0  0
  1 12  1  0  0  0  0
  2 17  2  0  0  0  0
  2 18  1  0  0  0  0
  3  8  2  0  0  0  0
  3  4  1  0  0  0  0
  4 15  2  0  0  0  0
  5 14  1  0  0  0  0
  5 17  1  0  0  0  0
  6 13  1  0  0  0  0
  6  9  2  0  0  0  0
  7  1  1  0  0  0  0
  7 13  1  0  0  0  0
  8 10  1  0  0  0  0
  9  2  1  0  0  0  0
 10  9  1  0  0  0  0
 10 16  2  0  0  0  0
 11 18  2  0  0  0  0
 12 14  1  0  0  0  0
 13  5  2  0  0  0  0
 15 16  1  0  0  0  0
 16 11  1  0  0  0  0
 19 22  1  1  0  0  0
 19 21  1  0  0  0  0
 20 11  1  6  0  0  0
 20 19  1  0  0  0  0
 20 21  1  0  0  0  0
 21 25  1  1  0  0  0
 23 22  1  0  0  0  0
 25 26  1  0  0  0  0
 25 24  1  1  0  0  0
 26 27  1  0  0  0  0
 28 30  1  0  0  0  0
 28 29  2  0  0  0  0
 30 32  2  0  0  0  0
 31 30  1  0  0  0  0
M  END
>  <MODEL>
7

>  <REMARK>
 VINA RESULT:      -7.5      4.870      6.807
  Name = 
  6 active torsions:
  status: ('A' for Active; 'I' for Inactive)
    1  A    between atoms: C_1  and  N_10
    2  A    between atoms: C_2  and  C_24
    3  A    between atoms: C_6  and  C_7
    4  A    between atoms: C_11  and  C_22
    5  A    between atoms: C_16  and  C_27
    6  A    between atoms: C_22  and  C_32
                            x       y       z     vdW  Elec       q    Type
                         _______ _______ _______ _____ _____    ______ ____

>  <TORSDO>
F 6

$$$$
=
 OpenBabel10262421333D

 32 36  0  0  1  0  0  0  0  0999 V2000
  182.0220  179.0000  138.9440 C   0  0  1  0  0  3  0  0  0  0  0  0
  185.9330  178.3170  142.1880 C   0  0  0  0  0  0  0  0  0  0  0  0
  189.8100  177.8830  139.3030 C   0  0  0  0  0  3  0  0  0  0  0  0
  190.6310  177.8250  140.4300 C   0  0  0  0  0  3  0  0  0  0  0  0
  183.7200  178.5230  141.2400 C   0  0  0  0  0  0  0  0  0  0  0  0
  185.6330  178.3010  139.8120 N   0  0  0  0  0  0  0  0  0  0  0  0
  183.4320  178.4500  138.7130 C   0  0  0  0  0  2  0  0  0  0  0  0
  188.4270  178.0150  139.4500 C   0  0  0  0  0  3  0  0  0  0  0  0
  186.4670  178.2340  140.8870 C   0  0  0  0  0  0  0  0  0  0  0  0
  187.8530  178.0900  140.7280 C   0  0  0  0  0  0  0  0  0  0  0  0
  188.0990  178.0950  143.1560 C   0  0  0  0  0  0  0  0  0  0  0  0
  181.4200  178.4110  140.2190 C   0  0  0  0  0  2  0  0  0  0  0  0
  184.2890  178.4560  139.9500 C   0  0  0  0  0  0  0  0  0  0  0  0
  182.2550  178.7680  141.4500 C   0  0  0  0  0  2  0  0  0  0  0  0
  190.0720  177.8960  141.7090 C   0  0  0  0  0  3  0  0  0  0  0  0
  188.6840  178.0250  141.8730 C   0  0  0  0  0  0  0  0  0  0  0  0
  184.5580  178.4680  142.3540 C   0  0  0  0  0  3  0  0  0  0  0  0
  186.7510  178.2530  143.2700 N   0  0  0  0  0  0  0  0  0  0  0  0
  189.6250  176.7120  144.5350 C   0  0  2  0  0  3  0  0  0  0  0  0
  188.9410  178.0630  144.4020 C   0  0  2  0  0  3  0  0  0  0  0  0
  188.4030  177.0460  145.3970 C   0  0  2  0  0  3  0  0  0  0  0  0
  190.9710  176.8920  145.2240 C   0  0  0  0  0  2  0  0  0  0  0  0
  191.6810  178.0970  144.6440 C   0  0  0  0  0  1  0  0  0  0  0  0
  189.0210  176.3900  147.6160 O   0  0  0  0  0  1  0  0  0  0  0  0
  188.7130  177.4980  146.8240 C   0  0  2  0  0  3  0  0  0  0  0  0
  187.5330  178.2530  147.4220 C   0  0  0  0  0  2  0  0  0  0  0  0
  186.3490  177.9280  146.7570 O   0  0  0  0  0  1  0  0  0  0  0  0
  181.5770  181.1690  137.9570 N   0  0  0  0  0  0  0  0  0  0  0  0
  182.0110  180.4960  138.9730 C   0  0  0  0  0  3  0  0  0  0  0  0
  181.5530  182.5970  137.9440 C   0  0  0  0  0  0  0  0  0  0  0  0
  180.2930  183.3060  137.5990 C   0  0  0  0  0  1  0  0  0  0  0  0
  182.5860  183.2660  138.2230 O   0  0  0  0  0  0  0  0  0  0  0  0
  1 29  1  1  0  0  0
  1 12  1  0  0  0  0
  2 17  2  0  0  0  0
  2 18  1  0  0  0  0
  3  8  2  0  0  0  0
  3  4  1  0  0  0  0
  4 15  2  0  0  0  0
  5 14  1  0  0  0  0
  5 17  1  0  0  0  0
  6 13  1  0  0  0  0
  6  9  2  0  0  0  0
  7  1  1  0  0  0  0
  7 13  1  0  0  0  0
  8 10  1  0  0  0  0
  9  2  1  0  0  0  0
 10  9  1  0  0  0  0
 10 16  2  0  0  0  0
 11 18  2  0  0  0  0
 12 14  1  0  0  0  0
 13  5  2  0  0  0  0
 15 16  1  0  0  0  0
 16 11  1  0  0  0  0
 19 22  1  1  0  0  0
 19 21  1  0  0  0  0
 20 11  1  6  0  0  0
 20 19  1  0  0  0  0
 20 21  1  0  0  0  0
 21 25  1  1  0  0  0
 23 22  1  0  0  0  0
 25 26  1  0  0  0  0
 25 24  1  1  0  0  0
 27 26  1  0  0  0  0
 28 29  2  0  0  0  0
 30 28  1  0  0  0  0
 30 32  2  0  0  0  0
 31 30  1  0  0  0  0
M  END
>  <MODEL>
8

>  <REMARK>
 VINA RESULT:      -7.1      3.935      5.855
  Name = 
  6 active torsions:
  status: ('A' for Active; 'I' for Inactive)
    1  A    between atoms: C_1  and  N_10
    2  A    between atoms: C_2  and  C_24
    3  A    between atoms: C_6  and  C_7
    4  A    between atoms: C_11  and  C_22
    5  A    between atoms: C_16  and  C_27
    6  A    between atoms: C_22  and  C_32
                            x       y       z     vdW  Elec       q    Type
                         _______ _______ _______ _____ _____    ______ ____

>  <TORSDO>
F 6

$$$$
=
 OpenBabel10262421333D

 32 36  0  0  1  0  0  0  0  0999 V2000
  191.4310  178.3590  144.3250 C   0  0  1  0  0  3  0  0  0  0  0  0
  189.5760  176.7820  139.8130 C   0  0  0  0  0  0  0  0  0  0  0  0
  193.5030  176.3570  136.9950 C   0  0  0  0  0  3  0  0  0  0  0  0
  192.7030  175.8490  135.9710 C   0  0  0  0  0  3  0  0  0  0  0  0
  189.7730  177.6390  142.0640 C   0  0  0  0  0  0  0  0  0  0  0  0
  191.7140  177.4380  140.6710 N   0  0  0  0  0  0  0  0  0  0  0  0
  192.0510  178.3750  142.9250 C   0  0  0  0  0  2  0  0  0  0  0  0
  192.9310  176.7250  138.2150 C   0  0  0  0  0  3  0  0  0  0  0  0
  190.9650  176.9450  139.6450 C   0  0  0  0  0  0  0  0  0  0  0  0
  191.5500  176.5890  138.4210 C   0  0  0  0  0  0  0  0  0  0  0  0
  189.3450  175.9510  137.5920 C   0  0  0  0  0  0  0  0  0  0  0  0
  189.9780  178.8310  144.2730 C   0  0  0  0  0  2  0  0  0  0  0  0
  191.1640  177.7730  141.8690 C   0  0  0  0  0  0  0  0  0  0  0  0
  189.1250  177.9220  143.3870 C   0  0  0  0  0  2  0  0  0  0  0  0
  191.3260  175.7110  136.1610 C   0  0  0  0  0  3  0  0  0  0  0  0
  190.7340  176.0800  137.3810 C   0  0  0  0  0  0  0  0  0  0  0  0
  188.9900  177.1250  141.0290 C   0  0  0  0  0  3  0  0  0  0  0  0
  188.8170  176.2900  138.8010 N   0  0  0  0  0  0  0  0  0  0  0  0
  187.2230  176.2780  136.3520 C   0  0  2  0  0  3  0  0  0  0  0  0
  188.4410  175.3850  136.5300 C   0  0  2  0  0  3  0  0  0  0  0  0
  187.1060  174.9590  137.1220 C   0  0  2  0  0  3  0  0  0  0  0  0
  186.7640  176.2230  134.9010 C   0  0  0  0  0  2  0  0  0  0  0  0
  185.9070  177.4340  134.5940 C   0  0  0  0  0  1  0  0  0  0  0  0
  185.3920  173.2940  136.9620 O   0  0  0  0  0  1  0  0  0  0  0  0
  186.5340  173.7860  136.3270 C   0  0  2  0  0  3  0  0  0  0  0  0
  187.5660  172.6750  136.1790 C   0  0  0  0  0  2  0  0  0  0  0  0
  187.9570  172.1930  137.4300 O   0  0  0  0  0  1  0  0  0  0  0  0
  192.0630  176.8860  146.1430 N   0  0  0  0  0  0  0  0  0  0  0  0
  191.5460  177.0120  144.9640 C   0  0  0  0  0  3  0  0  0  0  0  0
  192.1940  175.6170  146.7860 C   0  0  0  0  0  0  0  0  0  0  0  0
  192.4300  175.5600  148.2530 C   0  0  0  0  0  1  0  0  0  0  0  0
  192.1130  174.5440  146.1280 O   0  0  0  0  0  0  0  0  0  0  0  0
  1 29  1  6  0  0  0
  2 17  1  0  0  0  0
  3  8  1  0  0  0  0
  4 15  1  0  0  0  0
  4  3  2  0  0  0  0
  5 14  1  0  0  0  0
  6 13  2  0  0  0  0
  7  1  1  0  0  0  0
  8 10  2  0  0  0  0
  9  2  2  0  0  0  0
  9  6  1  0  0  0  0
 10  9  1  0  0  0  0
 11 18  2  0  0  0  0
 12  1  1  0  0  0  0
 13  5  1  0  0  0  0
 13  7  1  0  0  0  0
 14 12  1  0  0  0  0
 15 16  2  0  0  0  0
 16 11  1  0  0  0  0
 16 10  1  0  0  0  0
 17  5  2  0  0  0  0
 18  2  1  0  0  0  0
 19 22  1  6  0  0  0
 19 20  1  0  0  0  0
 19 21  1  0  0  0  0
 20 21  1  0  0  0  0
 20 11  1  1  0  0  0
 21 25  1  6  0  0  0
 23 22  1  0  0  0  0
 25 24  1  1  0  0  0
 26 25  1  0  0  0  0
 26 27  1  0  0  0  0
 28 30  1  0  0  0  0
 29 28  2  0  0  0  0
 30 31  1  0  0  0  0
 32 30  2  0  0  0  0
M  END
>  <MODEL>
9

>  <REMARK>
 VINA RESULT:      -6.7      2.627      9.392
  Name = 
  6 active torsions:
  status: ('A' for Active; 'I' for Inactive)
    1  A    between atoms: C_1  and  N_10
    2  A    between atoms: C_2  and  C_24
    3  A    between atoms: C_6  and  C_7
    4  A    between atoms: C_11  and  C_22
    5  A    between atoms: C_16  and  C_27
    6  A    between atoms: C_22  and  C_32
                            x       y       z     vdW  Elec       q    Type
                         _______ _______ _______ _____ _____    ______ ____

>  <TORSDO>
F 6

$$$$
