=
 OpenBabel10262421123D

 32 36  0  0  1  0  0  0  0  0999 V2000
  182.7740  178.3270  139.9450 C   0  0  2  0  0  3  0  0  0  0  0  0
  184.7170  177.1510  139.1470 O   0  0  0  0  0  0  0  0  0  0  0  0
  181.8950  177.6920  141.0250 C   0  0  0  0  0  2  0  0  0  0  0  0
  183.3450  177.3040  138.9360 C   0  0  1  0  0  3  0  0  0  0  0  0
  184.7950  177.3270  136.0310 C   0  0  0  0  0  2  0  0  0  0  0  0
  189.0180  178.2470  139.1040 C   0  0  0  0  0  3  0  0  0  0  0  0
  185.2560  178.3490  138.6620 C   0  0  1  0  0  3  0  0  0  0  0  0
  188.5100  177.4660  136.8750 C   0  0  0  0  0  3  0  0  0  0  0  0
  187.1410  177.6500  137.0940 C   0  0  0  0  0  0  0  0  0  0  0  0
  184.2320  175.9210  135.8970 C   0  0  2  0  0  3  0  0  0  0  0  0
  182.6400  175.9610  138.8640 C   0  0  0  0  0  0  0  0  0  0  0  0
  186.2530  177.2880  136.0220 N   0  0  0  0  0  2  0  0  0  0  0  0
  183.1360  174.8280  137.9980 C   0  0  0  0  0  2  0  0  0  0  0  0
  181.5040  175.7460  139.5440 C   0  0  0  0  0  3  0  0  0  0  0  0
  185.0070  179.4820  139.5760 N   0  0  0  0  0  2  0  0  0  0  0  0
  182.8040  175.9630  135.3720 C   0  0  0  0  0  1  0  0  0  0  0  0
  183.8950  179.2410  140.5180 C   0  0  2  0  0  3  0  0  0  0  0  0
  186.7080  178.1700  138.3440 C   0  0  0  0  0  0  0  0  0  0  0  0
  184.4100  175.1000  137.1860 C   0  0  0  0  0  2  0  0  0  0  0  0
  180.8450  176.8140  140.3670 C   0  0  0  0  0  2  0  0  0  0  0  0
  189.4440  177.7630  137.8690 C   0  0  0  0  0  3  0  0  0  0  0  0
  187.6580  178.4420  139.3420 C   0  0  0  0  0  3  0  0  0  0  0  0
  184.2160  178.7730  144.2880 C   0  0  0  0  0  0  0  0  0  0  0  0
  183.5180  179.0880  145.4470 O   0  0  0  0  0  1  0  0  0  0  0  0
  184.4290  178.8300  141.8670 C   0  0  0  0  0  0  0  0  0  0  0  0
  185.4250  178.0790  144.3780 C   0  0  0  0  0  3  0  0  0  0  0  0
  185.6400  178.1300  141.9710 C   0  0  0  0  0  3  0  0  0  0  0  0
  183.7150  179.1500  143.0340 C   0  0  0  0  0  0  0  0  0  0  0  0
  182.5100  179.8420  142.9520 O   0  0  0  0  0  1  0  0  0  0  0  0
  186.1360  177.7510  143.2210 C   0  0  0  0  0  0  0  0  0  0  0  0
  188.0390  177.2270  144.6970 C   0  0  0  0  0  1  0  0  0  0  0  0
  187.4340  177.0300  143.3200 C   0  0  0  0  0  2  0  0  0  0  0  0
  1 17  1  0  0  0  0
  1  3  1  1  0  0  0
  4 11  1  1  0  0  0
  4  2  1  0  0  0  0
  4  1  1  0  0  0  0
  6 22  1  0  0  0  0
  7 18  1  1  0  0  0
  7  2  1  0  0  0  0
  7 15  1  0  0  0  0
  8  9  2  0  0  0  0
  8 21  1  0  0  0  0
  9 18  1  0  0  0  0
 10 16  1  1  0  0  0
 10  5  1  0  0  0  0
 10 19  1  0  0  0  0
 11 14  2  0  0  0  0
 12  5  1  0  0  0  0
 12  9  1  0  0  0  0
 13 11  1  0  0  0  0
 14 20  1  0  0  0  0
 15 17  1  0  0  0  0
 17 25  1  1  0  0  0
 18 22  2  0  0  0  0
 19 13  1  0  0  0  0
 20  3  1  0  0  0  0
 21  6  2  0  0  0  0
 23 26  1  0  0  0  0
 23 24  1  0  0  0  0
 25 27  2  0  0  0  0
 25 28  1  0  0  0  0
 27 30  1  0  0  0  0
 28 23  2  0  0  0  0
 29 28  1  0  0  0  0
 30 32  1  0  0  0  0
 30 26  2  0  0  0  0
 32 31  1  0  0  0  0
M  END
>  <MODEL>
1

>  <REMARK>
 VINA RESULT:      -7.8      0.000      0.000
  Name = 
  2 active torsions:
  status: ('A' for Active; 'I' for Inactive)
    1  A    between atoms: C_15  and  C_26
    2  A    between atoms: C_16  and  C_27
                            x       y       z     vdW  Elec       q    Type
                         _______ _______ _______ _____ _____    ______ ____

>  <TORSDO>
F 2

$$$$
=
 OpenBabel10262421123D

 32 36  0  0  1  0  0  0  0  0999 V2000
  186.8100  177.8260  136.6380 C   0  0  2  0  0  3  0  0  0  0  0  0
  187.9340  176.5210  138.3200 O   0  0  0  0  0  0  0  0  0  0  0  0
  185.6890  177.1900  135.8110 C   0  0  0  0  0  2  0  0  0  0  0  0
  187.9640  176.8490  136.9630 C   0  0  1  0  0  3  0  0  0  0  0  0
  191.0100  176.9950  138.0750 C   0  0  0  0  0  2  0  0  0  0  0  0
  188.4050  177.1200  142.6930 C   0  0  0  0  0  3  0  0  0  0  0  0
  188.3770  177.6920  138.9470 C   0  0  1  0  0  3  0  0  0  0  0  0
  190.6140  176.6270  141.8500 C   0  0  0  0  0  3  0  0  0  0  0  0
  190.2150  176.9430  140.5460 C   0  0  0  0  0  0  0  0  0  0  0  0
  191.1950  175.6820  137.3300 C   0  0  2  0  0  3  0  0  0  0  0  0
  188.0640  175.6090  136.0920 C   0  0  0  0  0  0  0  0  0  0  0  0
  191.2000  176.7920  139.5070 N   0  0  0  0  0  2  0  0  0  0  0  0
  189.0770  174.5190  136.3450 C   0  0  0  0  0  2  0  0  0  0  0  0
  187.2720  175.4580  135.0210 C   0  0  0  0  0  3  0  0  0  0  0  0
  187.3460  178.7500  138.9430 N   0  0  0  0  0  2  0  0  0  0  0  0
  191.5380  175.9390  135.8700 C   0  0  0  0  0  1  0  0  0  0  0  0
  186.3010  178.5450  137.9200 C   0  0  2  0  0  3  0  0  0  0  0  0
  188.8830  177.3820  140.3210 C   0  0  0  0  0  0  0  0  0  0  0  0
  190.0110  174.7230  137.5460 C   0  0  0  0  0  2  0  0  0  0  0  0
  186.2870  176.5070  134.5940 C   0  0  0  0  0  2  0  0  0  0  0  0
  189.7190  176.7160  142.9170 C   0  0  0  0  0  3  0  0  0  0  0  0
  187.9880  177.4440  141.4020 C   0  0  0  0  0  3  0  0  0  0  0  0
  183.3260  177.9980  140.2410 C   0  0  0  0  0  0  0  0  0  0  0  0
  182.7310  178.6000  141.3420 O   0  0  0  0  0  1  0  0  0  0  0  0
  185.0660  177.9430  138.5450 C   0  0  0  0  0  0  0  0  0  0  0  0
  182.7800  176.8230  139.7190 C   0  0  0  0  0  3  0  0  0  0  0  0
  184.5070  176.7660  138.0280 C   0  0  0  0  0  3  0  0  0  0  0  0
  184.4690  178.5610  139.6570 C   0  0  0  0  0  0  0  0  0  0  0  0
  185.0080  179.7310  140.1840 O   0  0  0  0  0  1  0  0  0  0  0  0
  183.3660  176.2080  138.6080 C   0  0  0  0  0  0  0  0  0  0  0  0
  183.8850  174.1180  137.4110 C   0  0  0  0  0  1  0  0  0  0  0  0
  182.7950  174.9450  138.0650 C   0  0  0  0  0  2  0  0  0  0  0  0
  1  3  1  1  0  0  0
  1  4  1  0  0  0  0
  1 17  1  0  0  0  0
  4 11  1  6  0  0  0
  4  2  1  0  0  0  0
  5 12  1  0  0  0  0
  6 21  1  0  0  0  0
  7  2  1  1  0  0  0
  7 18  1  0  0  0  0
  8 21  2  0  0  0  0
  9  8  1  0  0  0  0
 10 16  1  6  0  0  0
 10 19  1  0  0  0  0
 10  5  1  0  0  0  0
 11 13  1  0  0  0  0
 12  9  1  0  0  0  0
 13 19  1  0  0  0  0
 14 11  2  0  0  0  0
 15  7  1  0  0  0  0
 17 25  1  1  0  0  0
 17 15  1  0  0  0  0
 18  9  2  0  0  0  0
 18 22  1  0  0  0  0
 20 14  1  0  0  0  0
 20  3  1  0  0  0  0
 22  6  2  0  0  0  0
 23 24  1  0  0  0  0
 25 28  1  0  0  0  0
 26 23  1  0  0  0  0
 27 25  2  0  0  0  0
 27 30  1  0  0  0  0
 28 29  1  0  0  0  0
 28 23  2  0  0  0  0
 30 26  2  0  0  0  0
 31 32  1  0  0  0  0
 32 30  1  0  0  0  0
M  END
>  <MODEL>
2

>  <REMARK>
 VINA RESULT:      -7.3      2.294      5.483
  Name = 
  2 active torsions:
  status: ('A' for Active; 'I' for Inactive)
    1  A    between atoms: C_15  and  C_26
    2  A    between atoms: C_16  and  C_27
                            x       y       z     vdW  Elec       q    Type
                         _______ _______ _______ _____ _____    ______ ____

>  <TORSDO>
F 2

$$$$
=
 OpenBabel10262421123D

 32 36  0  0  1  0  0  0  0  0999 V2000
  187.1060  178.7690  140.9930 C   0  0  2  0  0  3  0  0  0  0  0  0
  185.3260  177.8650  142.3390 O   0  0  0  0  0  0  0  0  0  0  0  0
  188.0380  177.8200  140.2350 C   0  0  0  0  0  2  0  0  0  0  0  0
  186.6730  178.2310  142.3770 C   0  0  1  0  0  3  0  0  0  0  0  0
  185.2720  179.3620  145.0770 C   0  0  0  0  0  2  0  0  0  0  0  0
  180.9270  178.4350  142.1810 C   0  0  0  0  0  3  0  0  0  0  0  0
  184.6570  179.0940  142.2970 C   0  0  1  0  0  3  0  0  0  0  0  0
  181.5540  178.7500  144.4920 C   0  0  0  0  0  3  0  0  0  0  0  0
  182.8890  178.9570  144.1290 C   0  0  0  0  0  0  0  0  0  0  0  0
  185.9980  178.2160  145.7650 C   0  0  2  0  0  3  0  0  0  0  0  0
  187.5330  177.1290  142.9710 C   0  0  0  0  0  0  0  0  0  0  0  0
  183.8290  179.1850  145.1950 N   0  0  0  0  0  2  0  0  0  0  0  0
  187.1850  176.4390  144.2680 C   0  0  0  0  0  2  0  0  0  0  0  0
  188.6760  176.7560  142.3780 C   0  0  0  0  0  3  0  0  0  0  0  0
  184.7580  179.7390  140.9720 N   0  0  0  0  0  2  0  0  0  0  0  0
  187.4170  178.6250  146.1290 C   0  0  0  0  0  1  0  0  0  0  0  0
  185.8780  179.2280  140.1560 C   0  0  2  0  0  3  0  0  0  0  0  0
  183.2410  178.9260  142.7520 C   0  0  0  0  0  0  0  0  0  0  0  0
  185.8990  176.9060  144.9640 C   0  0  0  0  0  2  0  0  0  0  0  0
  189.1940  177.4230  141.1370 C   0  0  0  0  0  2  0  0  0  0  0  0
  180.5780  178.4930  143.5280 C   0  0  0  0  0  3  0  0  0  0  0  0
  182.2520  178.6440  141.7970 C   0  0  0  0  0  3  0  0  0  0  0  0
  185.4990  177.2140  136.9410 C   0  0  0  0  0  0  0  0  0  0  0  0
  186.0780  177.1320  135.6810 O   0  0  0  0  0  1  0  0  0  0  0  0
  185.3760  178.2220  139.1490 C   0  0  0  0  0  0  0  0  0  0  0  0
  184.4400  176.3640  137.2700 C   0  0  0  0  0  3  0  0  0  0  0  0
  184.3160  177.3620  139.4690 C   0  0  0  0  0  3  0  0  0  0  0  0
  185.9700  178.1440  137.8780 C   0  0  0  0  0  0  0  0  0  0  0  0
  187.0250  178.9880  137.5430 O   0  0  0  0  0  1  0  0  0  0  0  0
  183.8500  176.4330  138.5350 C   0  0  0  0  0  0  0  0  0  0  0  0
  181.4340  176.3520  139.0100 C   0  0  0  0  0  1  0  0  0  0  0  0
  182.7090  175.5410  138.8770 C   0  0  0  0  0  2  0  0  0  0  0  0
  1  3  1  6  0  0  0
  1  4  1  0  0  0  0
  3 20  1  0  0  0  0
  4  2  1  6  0  0  0
  4 11  1  0  0  0  0
  5 12  1  0  0  0  0
  5 10  1  0  0  0  0
  6 21  1  0  0  0  0
  7 15  1  6  0  0  0
  7  2  1  0  0  0  0
  7 18  1  0  0  0  0
  9  8  1  0  0  0  0
  9 12  1  0  0  0  0
 10 16  1  6  0  0  0
 11 13  1  0  0  0  0
 13 19  1  0  0  0  0
 14 11  2  0  0  0  0
 17 25  1  1  0  0  0
 17 15  1  0  0  0  0
 17  1  1  0  0  0  0
 18  9  2  0  0  0  0
 19 10  1  0  0  0  0
 20 14  1  0  0  0  0
 21  8  2  0  0  0  0
 22  6  2  0  0  0  0
 22 18  1  0  0  0  0
 23 26  2  0  0  0  0
 23 28  1  0  0  0  0
 24 23  1  0  0  0  0
 25 27  1  0  0  0  0
 26 30  1  0  0  0  0
 28 25  2  0  0  0  0
 29 28  1  0  0  0  0
 30 32  1  0  0  0  0
 30 27  2  0  0  0  0
 32 31  1  0  0  0  0
M  END
>  <MODEL>
3

>  <REMARK>
 VINA RESULT:      -7.1      2.015      7.374
  Name = 
  2 active torsions:
  status: ('A' for Active; 'I' for Inactive)
    1  A    between atoms: C_15  and  C_26
    2  A    between atoms: C_16  and  C_27
                            x       y       z     vdW  Elec       q    Type
                         _______ _______ _______ _____ _____    ______ ____

>  <TORSDO>
F 2

$$$$
=
 OpenBabel10262421123D

 32 36  0  0  1  0  0  0  0  0999 V2000
  183.1250  176.0420  136.2400 C   0  0  2  0  0  3  0  0  0  0  0  0
  185.1060  175.5470  137.5160 O   0  0  0  0  0  0  0  0  0  0  0  0
  181.7470  175.7340  136.8320 C   0  0  0  0  0  2  0  0  0  0  0  0
  184.2010  174.9940  136.6080 C   0  0  1  0  0  3  0  0  0  0  0  0
  187.1880  174.1600  135.6490 C   0  0  0  0  0  2  0  0  0  0  0  0
  188.4220  178.1330  138.9380 C   0  0  0  0  0  3  0  0  0  0  0  0
  185.8460  176.4410  136.7320 C   0  0  1  0  0  3  0  0  0  0  0  0
  189.4710  176.2180  137.9070 C   0  0  0  0  0  3  0  0  0  0  0  0
  188.2880  175.9030  137.2270 C   0  0  0  0  0  0  0  0  0  0  0  0
  186.8290  172.7880  136.1990 C   0  0  2  0  0  3  0  0  0  0  0  0
  183.6930  173.6430  137.0810 C   0  0  0  0  0  0  0  0  0  0  0  0
  188.3030  174.7260  136.4000 N   0  0  0  0  0  2  0  0  0  0  0  0
  184.6170  172.5520  137.5640 C   0  0  0  0  0  2  0  0  0  0  0  0
  182.3850  173.3510  137.0420 C   0  0  0  0  0  3  0  0  0  0  0  0
  185.0780  177.6590  136.4010 N   0  0  0  0  0  2  0  0  0  0  0  0
  186.0840  171.9710  135.1540 C   0  0  0  0  0  1  0  0  0  0  0  0
  183.6180  177.4870  136.5400 C   0  0  2  0  0  3  0  0  0  0  0  0
  187.1550  176.7440  137.3930 C   0  0  0  0  0  0  0  0  0  0  0  0
  186.1170  172.8790  137.5600 C   0  0  0  0  0  2  0  0  0  0  0  0
  181.3630  174.3040  136.4940 C   0  0  0  0  0  2  0  0  0  0  0  0
  189.5410  177.3240  138.7550 C   0  0  0  0  0  3  0  0  0  0  0  0
  187.2340  177.8400  138.2670 C   0  0  0  0  0  3  0  0  0  0  0  0
  181.5710  179.4320  139.1010 C   0  0  0  0  0  0  0  0  0  0  0  0
  180.4480  180.2480  139.1440 O   0  0  0  0  0  1  0  0  0  0  0  0
  183.1450  178.0660  137.8500 C   0  0  0  0  0  0  0  0  0  0  0  0
  182.2670  179.1560  140.2800 C   0  0  0  0  0  3  0  0  0  0  0  0
  183.8340  177.7930  139.0400 C   0  0  0  0  0  3  0  0  0  0  0  0
  182.0060  178.8880  137.8840 C   0  0  0  0  0  0  0  0  0  0  0  0
  181.3070  179.1690  136.7140 O   0  0  0  0  0  1  0  0  0  0  0  0
  183.3970  178.3320  140.2530 C   0  0  0  0  0  0  0  0  0  0  0  0
  185.4370  178.8580  141.5310 C   0  0  0  0  0  1  0  0  0  0  0  0
  184.1510  178.0560  141.5060 C   0  0  0  0  0  2  0  0  0  0  0  0
  1 17  1  0  0  0  0
  1  4  1  0  0  0  0
  1  3  1  1  0  0  0
  4 11  1  1  0  0  0
  4  2  1  0  0  0  0
  5 10  1  0  0  0  0
  5 12  1  0  0  0  0
  7 15  1  1  0  0  0
  7 18  1  0  0  0  0
  7  2  1  0  0  0  0
  8 21  2  0  0  0  0
  9 18  2  0  0  0  0
  9  8  1  0  0  0  0
 10 16  1  6  0  0  0
 10 19  1  0  0  0  0
 11 13  1  0  0  0  0
 12  9  1  0  0  0  0
 14 11  2  0  0  0  0
 15 17  1  0  0  0  0
 17 25  1  1  0  0  0
 18 22  1  0  0  0  0
 19 13  1  0  0  0  0
 20  3  1  0  0  0  0
 20 14  1  0  0  0  0
 21  6  1  0  0  0  0
 22  6  2  0  0  0  0
 23 24  1  0  0  0  0
 23 26  1  0  0  0  0
 25 28  1  0  0  0  0
 25 27  2  0  0  0  0
 27 30  1  0  0  0  0
 28 23  2  0  0  0  0
 29 28  1  0  0  0  0
 30 26  2  0  0  0  0
 30 32  1  0  0  0  0
 32 31  1  0  0  0  0
M  END
>  <MODEL>
4

>  <REMARK>
 VINA RESULT:      -6.8      2.416      3.977
  Name = 
  2 active torsions:
  status: ('A' for Active; 'I' for Inactive)
    1  A    between atoms: C_15  and  C_26
    2  A    between atoms: C_16  and  C_27
                            x       y       z     vdW  Elec       q    Type
                         _______ _______ _______ _____ _____    ______ ____

>  <TORSDO>
F 2

$$$$
=
 OpenBabel10262421123D

 32 36  0  0  1  0  0  0  0  0999 V2000
  182.2510  178.5650  137.3240 C   0  0  2  0  0  3  0  0  0  0  0  0
  184.0300  177.5520  138.5910 O   0  0  0  0  0  0  0  0  0  0  0  0
  181.1010  177.6970  136.8050 C   0  0  0  0  0  2  0  0  0  0  0  0
  183.6240  177.8530  137.2890 C   0  0  1  0  0  3  0  0  0  0  0  0
  186.7620  178.6420  137.5460 C   0  0  0  0  0  2  0  0  0  0  0  0
  185.5350  178.3190  142.6960 C   0  0  0  0  0  3  0  0  0  0  0  0
  184.3780  178.8010  139.1190 C   0  0  1  0  0  3  0  0  0  0  0  0
  187.4860  178.2740  141.2710 C   0  0  0  0  0  3  0  0  0  0  0  0
  186.6940  178.4760  140.1360 C   0  0  0  0  0  0  0  0  0  0  0  0
  187.0000  177.3810  136.7300 C   0  0  2  0  0  3  0  0  0  0  0  0
  183.7330  176.6430  136.3780 C   0  0  0  0  0  0  0  0  0  0  0  0
  187.3690  178.5100  138.8650 N   0  0  0  0  0  2  0  0  0  0  0  0
  184.9760  175.7890  136.3080 C   0  0  0  0  0  2  0  0  0  0  0  0
  182.7280  176.3120  135.5540 C   0  0  0  0  0  3  0  0  0  0  0  0
  183.1930  179.6240  139.4320 N   0  0  0  0  0  2  0  0  0  0  0  0
  186.8750  177.6740  135.2420 C   0  0  0  0  0  1  0  0  0  0  0  0
  181.9740  179.1890  138.7210 C   0  0  2  0  0  3  0  0  0  0  0  0
  185.2900  178.6280  140.2940 C   0  0  0  0  0  0  0  0  0  0  0  0
  186.1390  176.2040  137.2200 C   0  0  0  0  0  2  0  0  0  0  0  0
  181.4730  177.1280  135.4470 C   0  0  0  0  0  2  0  0  0  0  0  0
  186.9150  178.1980  142.5430 C   0  0  0  0  0  3  0  0  0  0  0  0
  184.7280  178.5260  141.5770 C   0  0  0  0  0  3  0  0  0  0  0  0
  179.6140  178.1960  141.5460 C   0  0  0  0  0  0  0  0  0  0  0  0
  178.9340  178.7900  142.6010 O   0  0  0  0  0  1  0  0  0  0  0  0
  181.1030  178.3600  139.6320 C   0  0  0  0  0  0  0  0  0  0  0  0
  179.4940  176.8200  141.3360 C   0  0  0  0  0  3  0  0  0  0  0  0
  180.9730  176.9780  139.4290 C   0  0  0  0  0  3  0  0  0  0  0  0
  180.4170  178.9700  140.6960 C   0  0  0  0  0  0  0  0  0  0  0  0
  180.5310  180.3400  140.9120 O   0  0  0  0  0  1  0  0  0  0  0  0
  180.1690  176.2100  140.2750 C   0  0  0  0  0  0  0  0  0  0  0  0
  180.4250  174.3870  138.6360 C   0  0  0  0  0  1  0  0  0  0  0  0
  180.0580  174.7400  140.0650 C   0  0  0  0  0  2  0  0  0  0  0  0
  1  3  1  1  0  0  0
  1 17  1  0  0  0  0
  4 11  1  6  0  0  0
  4  1  1  0  0  0  0
  4  2  1  0  0  0  0
  5 12  1  0  0  0  0
  7  2  1  1  0  0  0
  7 15  1  0  0  0  0
  7 18  1  0  0  0  0
  8 21  2  0  0  0  0
  9 18  2  0  0  0  0
  9  8  1  0  0  0  0
 10 16  1  6  0  0  0
 10 19  1  0  0  0  0
 10  5  1  0  0  0  0
 12  9  1  0  0  0  0
 13 11  1  0  0  0  0
 13 19  1  0  0  0  0
 14 11  2  0  0  0  0
 17 15  1  0  0  0  0
 17 25  1  1  0  0  0
 18 22  1  0  0  0  0
 20 14  1  0  0  0  0
 20  3  1  0  0  0  0
 21  6  1  0  0  0  0
 22  6  2  0  0  0  0
 23 24  1  0  0  0  0
 25 28  1  0  0  0  0
 26 23  1  0  0  0  0
 27 25  2  0  0  0  0
 27 30  1  0  0  0  0
 28 29  1  0  0  0  0
 28 23  2  0  0  0  0
 30 26  2  0  0  0  0
 31 32  1  0  0  0  0
 32 30  1  0  0  0  0
M  END
>  <MODEL>
5

>  <REMARK>
 VINA RESULT:      -6.7      1.961      4.508
  Name = 
  2 active torsions:
  status: ('A' for Active; 'I' for Inactive)
    1  A    between atoms: C_15  and  C_26
    2  A    between atoms: C_16  and  C_27
                            x       y       z     vdW  Elec       q    Type
                         _______ _______ _______ _____ _____    ______ ____

>  <TORSDO>
F 2

$$$$
=
 OpenBabel10262421123D

 32 36  0  0  1  0  0  0  0  0999 V2000
  190.4170  177.9000  141.1540 C   0  0  2  0  0  3  0  0  0  0  0  0
  188.1410  177.2380  140.7370 O   0  0  0  0  0  0  0  0  0  0  0  0
  191.4400  176.8530  141.6030 C   0  0  0  0  0  2  0  0  0  0  0  0
  189.0050  177.6730  141.7430 C   0  0  1  0  0  3  0  0  0  0  0  0
  186.2260  179.3210  142.0560 C   0  0  0  0  0  2  0  0  0  0  0  0
  185.6030  177.5240  137.1060 C   0  0  0  0  0  3  0  0  0  0  0  0
  187.9380  178.3880  139.9640 C   0  0  1  0  0  3  0  0  0  0  0  0
  184.2670  178.3960  138.9190 C   0  0  0  0  0  3  0  0  0  0  0  0
  185.4090  178.5840  139.7050 C   0  0  0  0  0  0  0  0  0  0  0  0
  185.9810  178.4050  143.2450 C   0  0  2  0  0  3  0  0  0  0  0  0
  188.9220  176.7850  142.9720 C   0  0  0  0  0  0  0  0  0  0  0  0
  185.2100  179.1000  141.0340 N   0  0  0  0  0  2  0  0  0  0  0  0
  187.6070  176.3950  143.6030 C   0  0  0  0  0  2  0  0  0  0  0  0
  190.0350  176.3460  143.5780 C   0  0  0  0  0  3  0  0  0  0  0  0
  189.1130  178.7140  139.1320 N   0  0  0  0  0  2  0  0  0  0  0  0
  186.6470  178.9600  144.4950 C   0  0  0  0  0  1  0  0  0  0  0  0
  190.3620  178.0880  139.6110 C   0  0  2  0  0  3  0  0  0  0  0  0
  186.6800  178.2550  139.1620 C   0  0  0  0  0  0  0  0  0  0  0  0
  186.3400  176.9420  142.9310 C   0  0  0  0  0  2  0  0  0  0  0  0
  191.4080  176.7360  143.1170 C   0  0  0  0  0  2  0  0  0  0  0  0
  184.3600  177.8730  137.6280 C   0  0  0  0  0  3  0  0  0  0  0  0
  186.7550  177.7080  137.8710 C   0  0  0  0  0  3  0  0  0  0  0  0
  192.2960  175.3530  137.7910 C   0  0  0  0  0  0  0  0  0  0  0  0
  193.6130  174.9960  137.5310 O   0  0  0  0  0  1  0  0  0  0  0  0
  190.6730  176.8530  138.8030 C   0  0  0  0  0  0  0  0  0  0  0  0
  191.2570  174.5650  137.2910 C   0  0  0  0  0  3  0  0  0  0  0  0
  189.6380  176.0520  138.2990 C   0  0  0  0  0  3  0  0  0  0  0  0
  192.0090  176.4980  138.5480 C   0  0  0  0  0  0  0  0  0  0  0  0
  193.0500  177.2780  139.0420 O   0  0  0  0  0  1  0  0  0  0  0  0
  189.9270  174.9100  137.5480 C   0  0  0  0  0  0  0  0  0  0  0  0
  188.0990  174.8360  135.8970 C   0  0  0  0  0  1  0  0  0  0  0  0
  188.8200  174.0810  136.9980 C   0  0  0  0  0  2  0  0  0  0  0  0
  1  3  1  6  0  0  0
  1  4  1  0  0  0  0
  3 20  1  0  0  0  0
  4  2  1  6  0  0  0
  4 11  1  0  0  0  0
  5 10  1  0  0  0  0
  6 21  2  0  0  0  0
  6 22  1  0  0  0  0
  7 15  1  6  0  0  0
  7  2  1  0  0  0  0
  8  9  2  0  0  0  0
  9 12  1  0  0  0  0
 10 16  1  1  0  0  0
 11 14  2  0  0  0  0
 11 13  1  0  0  0  0
 12  5  1  0  0  0  0
 15 17  1  0  0  0  0
 17 25  1  6  0  0  0
 17  1  1  0  0  0  0
 18  9  1  0  0  0  0
 18  7  1  0  0  0  0
 19 10  1  0  0  0  0
 19 13  1  0  0  0  0
 20 14  1  0  0  0  0
 21  8  1  0  0  0  0
 22 18  2  0  0  0  0
 23 28  1  0  0  0  0
 24 23  1  0  0  0  0
 26 30  1  0  0  0  0
 26 23  2  0  0  0  0
 27 25  1  0  0  0  0
 28 25  2  0  0  0  0
 28 29  1  0  0  0  0
 30 27  2  0  0  0  0
 31 32  1  0  0  0  0
 32 30  1  0  0  0  0
M  END
>  <MODEL>
6

>  <REMARK>
 VINA RESULT:      -6.3      3.186      7.622
  Name = 
  2 active torsions:
  status: ('A' for Active; 'I' for Inactive)
    1  A    between atoms: C_15  and  C_26
    2  A    between atoms: C_16  and  C_27
                            x       y       z     vdW  Elec       q    Type
                         _______ _______ _______ _____ _____    ______ ____

>  <TORSDO>
F 2

$$$$
=
 OpenBabel10262421123D

 32 36  0  0  1  0  0  0  0  0999 V2000
  183.6130  179.0280  139.9120 C   0  0  2  0  0  3  0  0  0  0  0  0
  184.1030  176.8960  138.9070 O   0  0  0  0  0  0  0  0  0  0  0  0
  183.2470  179.0990  141.3970 C   0  0  0  0  0  2  0  0  0  0  0  0
  183.0570  177.7720  139.2000 C   0  0  1  0  0  3  0  0  0  0  0  0
  182.6260  176.7100  136.1640 C   0  0  0  0  0  2  0  0  0  0  0  0
  187.7170  175.3780  136.8240 C   0  0  0  0  0  3  0  0  0  0  0  0
  184.7770  177.5340  137.8590 C   0  0  1  0  0  3  0  0  0  0  0  0
  185.8470  174.8160  135.4020 C   0  0  0  0  0  3  0  0  0  0  0  0
  185.0380  175.7570  136.0500 C   0  0  0  0  0  0  0  0  0  0  0  0
  181.5220  175.8570  136.7690 C   0  0  2  0  0  3  0  0  0  0  0  0
  181.9090  177.0580  139.8920 C   0  0  0  0  0  0  0  0  0  0  0  0
  183.6720  175.8580  135.6090 N   0  0  0  0  0  2  0  0  0  0  0  0
  181.3230  175.7680  139.3700 C   0  0  0  0  0  2  0  0  0  0  0  0
  181.3340  177.5820  140.9840 C   0  0  0  0  0  3  0  0  0  0  0  0
  185.5690  178.6900  138.3270 N   0  0  0  0  0  2  0  0  0  0  0  0
  180.2240  176.6450  136.8560 C   0  0  0  0  0  1  0  0  0  0  0  0
  185.1340  179.2030  139.6420 C   0  0  2  0  0  3  0  0  0  0  0  0
  185.5970  176.5420  137.0940 C   0  0  0  0  0  0  0  0  0  0  0  0
  181.9570  175.2010  138.0910 C   0  0  0  0  0  2  0  0  0  0  0  0
  181.7480  178.9060  141.5550 C   0  0  0  0  0  2  0  0  0  0  0  0
  187.1770  174.6270  135.7820 C   0  0  0  0  0  3  0  0  0  0  0  0
  186.9290  176.3250  137.4800 C   0  0  0  0  0  3  0  0  0  0  0  0
  188.2430  177.9710  141.4730 C   0  0  0  0  0  0  0  0  0  0  0  0
  189.5870  177.7360  141.2150 O   0  0  0  0  0  1  0  0  0  0  0  0
  186.0420  178.6890  140.7310 C   0  0  0  0  0  0  0  0  0  0  0  0
  187.7310  177.7200  142.7490 C   0  0  0  0  0  3  0  0  0  0  0  0
  185.5410  178.4360  142.0160 C   0  0  0  0  0  3  0  0  0  0  0  0
  187.4020  178.4560  140.4620 C   0  0  0  0  0  0  0  0  0  0  0  0
  187.9190  178.7030  139.1930 O   0  0  0  0  0  1  0  0  0  0  0  0
  186.3820  177.9570  143.0240 C   0  0  0  0  0  0  0  0  0  0  0  0
  184.8400  178.7430  144.7780 C   0  0  0  0  0  1  0  0  0  0  0  0
  185.8330  177.6690  144.3770 C   0  0  0  0  0  2  0  0  0  0  0  0
  1  3  1  1  0  0  0
  3 20  1  0  0  0  0
  4  2  1  1  0  0  0
  4 11  1  0  0  0  0
  4  1  1  0  0  0  0
  5 10  1  0  0  0  0
  6 22  1  0  0  0  0
  7 18  1  1  0  0  0
  7 15  1  0  0  0  0
  7  2  1  0  0  0  0
  8 21  1  0  0  0  0
  8  9  2  0  0  0  0
  9 18  1  0  0  0  0
 10 16  1  1  0  0  0
 10 19  1  0  0  0  0
 11 14  2  0  0  0  0
 12  9  1  0  0  0  0
 12  5  1  0  0  0  0
 13 11  1  0  0  0  0
 14 20  1  0  0  0  0
 15 17  1  0  0  0  0
 17  1  1  0  0  0  0
 17 25  1  1  0  0  0
 18 22  2  0  0  0  0
 19 13  1  0  0  0  0
 21  6  2  0  0  0  0
 23 26  1  0  0  0  0
 24 23  1  0  0  0  0
 25 27  2  0  0  0  0
 26 30  2  0  0  0  0
 27 30  1  0  0  0  0
 28 25  1  0  0  0  0
 28 23  2  0  0  0  0
 29 28  1  0  0  0  0
 30 32  1  0  0  0  0
 32 31  1  0  0  0  0
M  END
>  <MODEL>
7

>  <REMARK>
 VINA RESULT:      -6.2      2.062      3.167
  Name = 
  2 active torsions:
  status: ('A' for Active; 'I' for Inactive)
    1  A    between atoms: C_15  and  C_26
    2  A    between atoms: C_16  and  C_27
                            x       y       z     vdW  Elec       q    Type
                         _______ _______ _______ _____ _____    ______ ____

>  <TORSDO>
F 2

$$$$
=
 OpenBabel10262421123D

 32 36  0  0  1  0  0  0  0  0999 V2000
  186.2400  179.1200  140.6460 C   0  0  2  0  0  3  0  0  0  0  0  0
  184.4750  178.0350  141.8730 O   0  0  0  0  0  0  0  0  0  0  0  0
  187.4370  178.3000  140.1570 C   0  0  0  0  0  2  0  0  0  0  0  0
  185.7090  178.6710  142.0280 C   0  0  1  0  0  3  0  0  0  0  0  0
  183.7270  179.7990  144.3370 C   0  0  0  0  0  2  0  0  0  0  0  0
  180.1230  177.6710  141.0810 C   0  0  0  0  0  3  0  0  0  0  0  0
  183.6030  179.0880  141.5700 C   0  0  1  0  0  3  0  0  0  0  0  0
  180.3210  178.3760  143.3830 C   0  0  0  0  0  3  0  0  0  0  0  0
  181.6340  178.8080  143.1640 C   0  0  0  0  0  0  0  0  0  0  0  0
  184.5400  178.9150  145.2690 C   0  0  2  0  0  3  0  0  0  0  0  0
  186.6580  177.8460  142.8790 C   0  0  0  0  0  0  0  0  0  0  0  0
  182.3410  179.3460  144.2960 N   0  0  0  0  0  2  0  0  0  0  0  0
  186.2520  177.2550  144.2080 C   0  0  0  0  0  2  0  0  0  0  0  0
  187.9280  177.6480  142.4950 C   0  0  0  0  0  3  0  0  0  0  0  0
  183.7830  179.5800  140.1890 N   0  0  0  0  0  2  0  0  0  0  0  0
  185.7870  179.6450  145.7470 C   0  0  0  0  0  1  0  0  0  0  0  0
  185.0890  179.2170  139.6030 C   0  0  2  0  0  3  0  0  0  0  0  0
  182.1910  178.6880  141.8630 C   0  0  0  0  0  0  0  0  0  0  0  0
  184.8110  177.5280  144.6610 C   0  0  0  0  0  2  0  0  0  0  0  0
  188.4950  178.2570  141.2460 C   0  0  0  0  0  2  0  0  0  0  0  0
  179.5680  177.8130  142.3510 C   0  0  0  0  0  3  0  0  0  0  0  0
  181.4290  178.0990  140.8410 C   0  0  0  0  0  3  0  0  0  0  0  0
  185.6780  176.7380  136.7670 C   0  0  0  0  0  0  0  0  0  0  0  0
  186.5370  176.5620  135.6900 O   0  0  0  0  0  1  0  0  0  0  0  0
  184.9430  178.0190  138.6980 C   0  0  0  0  0  0  0  0  0  0  0  0
  184.6680  175.8020  137.0040 C   0  0  0  0  0  3  0  0  0  0  0  0
  183.9350  177.0720  138.9270 C   0  0  0  0  0  3  0  0  0  0  0  0
  185.8190  177.8480  137.6120 C   0  0  0  0  0  0  0  0  0  0  0  0
  186.8270  178.7760  137.3700 O   0  0  0  0  0  1  0  0  0  0  0  0
  183.7980  175.9640  138.0860 C   0  0  0  0  0  0  0  0  0  0  0  0
  181.3600  175.6080  138.0390 C   0  0  0  0  0  1  0  0  0  0  0  0
  182.7100  174.9780  138.3250 C   0  0  0  0  0  2  0  0  0  0  0  0
  1  3  1  6  0  0  0
  1  4  1  0  0  0  0
  3 20  1  0  0  0  0
  4  2  1  6  0  0  0
  4 11  1  0  0  0  0
  5 10  1  0  0  0  0
  6 21  1  0  0  0  0
  7 15  1  6  0  0  0
  7 18  1  0  0  0  0
  7  2  1  0  0  0  0
  9  8  1  0  0  0  0
  9 12  1  0  0  0  0
 10 16  1  6  0  0  0
 11 13  1  0  0  0  0
 12  5  1  0  0  0  0
 13 19  1  0  0  0  0
 14 11  2  0  0  0  0
 17 25  1  1  0  0  0
 17 15  1  0  0  0  0
 17  1  1  0  0  0  0
 18  9  2  0  0  0  0
 19 10  1  0  0  0  0
 20 14  1  0  0  0  0
 21  8  2  0  0  0  0
 22  6  2  0  0  0  0
 22 18  1  0  0  0  0
 23 26  2  0  0  0  0
 23 28  1  0  0  0  0
 24 23  1  0  0  0  0
 25 27  1  0  0  0  0
 26 30  1  0  0  0  0
 28 25  2  0  0  0  0
 29 28  1  0  0  0  0
 30 32  1  0  0  0  0
 30 27  2  0  0  0  0
 31 32  1  0  0  0  0
M  END
>  <MODEL>
8

>  <REMARK>
 VINA RESULT:      -6.1      1.929      7.333
  Name = 
  2 active torsions:
  status: ('A' for Active; 'I' for Inactive)
    1  A    between atoms: C_15  and  C_26
    2  A    between atoms: C_16  and  C_27
                            x       y       z     vdW  Elec       q    Type
                         _______ _______ _______ _____ _____    ______ ____

>  <TORSDO>
F 2

$$$$
=
 OpenBabel10262421123D

 32 36  0  0  1  0  0  0  0  0999 V2000
  185.8010  178.2730  137.6920 C   0  0  2  0  0  3  0  0  0  0  0  0
  185.9170  175.8700  137.5940 O   0  0  0  0  0  0  0  0  0  0  0  0
  185.4650  178.9610  139.0190 C   0  0  0  0  0  2  0  0  0  0  0  0
  185.0360  176.9460  137.4760 C   0  0  1  0  0  3  0  0  0  0  0  0
  184.4060  174.8910  135.0440 C   0  0  0  0  0  2  0  0  0  0  0  0
  189.2060  173.1210  136.4400 C   0  0  0  0  0  3  0  0  0  0  0  0
  186.6790  175.9460  136.4210 C   0  0  1  0  0  3  0  0  0  0  0  0
  187.2550  172.3650  135.2330 C   0  0  0  0  0  3  0  0  0  0  0  0
  186.6220  173.5960  135.4330 C   0  0  0  0  0  0  0  0  0  0  0  0
  183.1790  174.5200  135.8630 C   0  0  2  0  0  3  0  0  0  0  0  0
  183.7900  176.7410  138.3200 C   0  0  0  0  0  0  0  0  0  0  0  0
  185.2890  173.7380  134.9100 N   0  0  0  0  0  2  0  0  0  0  0  0
  182.9920  175.4600  138.2910 C   0  0  0  0  0  2  0  0  0  0  0  0
  183.3210  177.7250  139.1010 C   0  0  0  0  0  3  0  0  0  0  0  0
  187.6580  177.0510  136.4630 N   0  0  0  0  0  2  0  0  0  0  0  0
  182.0330  175.4780  135.5740 C   0  0  0  0  0  1  0  0  0  0  0  0
  187.3280  178.0880  137.4620 C   0  0  2  0  0  3  0  0  0  0  0  0
  187.3140  174.6210  136.1330 C   0  0  0  0  0  0  0  0  0  0  0  0
  183.5100  174.3570  137.3570 C   0  0  0  0  0  2  0  0  0  0  0  0
  183.9570  179.0830  139.1540 C   0  0  0  0  0  2  0  0  0  0  0  0
  188.5380  172.1260  135.7300 C   0  0  0  0  0  3  0  0  0  0  0  0
  188.5940  174.3580  136.6470 C   0  0  0  0  0  3  0  0  0  0  0  0
  190.2770  177.4130  139.7820 C   0  0  0  0  0  0  0  0  0  0  0  0
  191.6330  177.1280  139.6970 O   0  0  0  0  0  1  0  0  0  0  0  0
  188.1460  177.8900  138.7130 C   0  0  0  0  0  0  0  0  0  0  0  0
  189.6690  177.5080  141.0360 C   0  0  0  0  0  3  0  0  0  0  0  0
  187.5480  177.9850  139.9780 C   0  0  0  0  0  3  0  0  0  0  0  0
  189.5190  177.6040  138.6180 C   0  0  0  0  0  0  0  0  0  0  0  0
  190.1320  177.5080  137.3720 O   0  0  0  0  0  1  0  0  0  0  0  0
  188.3060  177.7980  141.1370 C   0  0  0  0  0  0  0  0  0  0  0  0
  187.9450  176.6210  143.2720 C   0  0  0  0  0  1  0  0  0  0  0  0
  187.6550  177.8780  142.4730 C   0  0  0  0  0  2  0  0  0  0  0  0
  1  3  1  1  0  0  0
  3 20  1  0  0  0  0
  4  2  1  1  0  0  0
  4  1  1  0  0  0  0
  4 11  1  0  0  0  0
  5 10  1  0  0  0  0
  6 22  1  0  0  0  0
  7 18  1  1  0  0  0
  7 15  1  0  0  0  0
  7  2  1  0  0  0  0
  8  9  2  0  0  0  0
  8 21  1  0  0  0  0
  9 18  1  0  0  0  0
 10 16  1  1  0  0  0
 10 19  1  0  0  0  0
 11 14  2  0  0  0  0
 12  5  1  0  0  0  0
 12  9  1  0  0  0  0
 13 11  1  0  0  0  0
 14 20  1  0  0  0  0
 15 17  1  0  0  0  0
 17  1  1  0  0  0  0
 17 25  1  1  0  0  0
 18 22  2  0  0  0  0
 19 13  1  0  0  0  0
 21  6  2  0  0  0  0
 23 26  1  0  0  0  0
 24 23  1  0  0  0  0
 25 27  2  0  0  0  0
 26 30  2  0  0  0  0
 27 30  1  0  0  0  0
 28 25  1  0  0  0  0
 28 23  2  0  0  0  0
 29 28  1  0  0  0  0
 30 32  1  0  0  0  0
 32 31  1  0  0  0  0
M  END
>  <MODEL>
9

>  <REMARK>
 VINA RESULT:      -5.9      2.835      4.692
  Name = 
  2 active torsions:
  status: ('A' for Active; 'I' for Inactive)
    1  A    between atoms: C_15  and  C_26
    2  A    between atoms: C_16  and  C_27
                            x       y       z     vdW  Elec       q    Type
                         _______ _______ _______ _____ _____    ______ ____

>  <TORSDO>
F 2

$$$$
