=
 OpenBabel10262419513D

 25 28  0  0  1  0  0  0  0  0999 V2000
  187.2450  178.2000  146.0040 C   0  0  0  0  0  0  0  0  0  0  0  0
  188.5140  177.6640  145.7750 C   0  0  0  0  0  0  0  0  0  0  0  0
  187.6420  178.3730  148.3800 C   0  0  0  0  0  3  0  0  0  0  0  0
  186.0310  178.2870  145.1520 C   0  0  1  0  0  3  0  0  0  0  0  0
  183.5440  178.5840  144.0770 C   0  0  0  0  0  2  0  0  0  0  0  0
  188.9450  177.8840  148.1800 C   0  0  0  0  0  3  0  0  0  0  0  0
  185.1110  179.1470  145.9000 N   0  0  1  0  0  0  0  0  0  0  0  0
  183.7610  178.6800  145.6120 C   0  0  0  0  0  2  0  0  0  0  0  0
  190.6790  177.0050  146.6860 C   0  0  0  0  0  0  0  0  0  0  0  0
  191.5620  176.8610  147.7510 O   0  0  0  0  0  1  0  0  0  0  0  0
  188.9290  177.2690  144.5010 C   0  0  0  0  0  3  0  0  0  0  0  0
  184.7030  179.2060  143.2470 C   0  0  0  0  0  2  0  0  0  0  0  0
  186.8190  178.5120  147.2650 C   0  0  0  0  0  0  0  0  0  0  0  0
  185.4710  178.9450  147.2450 N   0  0  0  0  0  2  0  0  0  0  0  0
  191.0840  176.6230  145.4030 C   0  0  0  0  0  3  0  0  0  0  0  0
  186.1170  178.7840  143.7200 C   0  0  0  0  0  2  0  0  0  0  0  0
  190.2140  176.7530  144.3160 C   0  0  0  0  0  0  0  0  0  0  0  0
  189.3900  177.5250  146.8870 C   0  0  0  0  0  0  0  0  0  0  0  0
  190.7430  176.2460  142.6850 S   0  0  0  0  0  0  0  0  0  0  0  0
  189.1270  176.6450  141.9500 C   0  0  0  0  0  2  0  0  0  0  0  0
  189.2960  177.6250  140.8000 C   0  0  0  0  0  2  0  0  0  0  0  0
  188.0050  178.3810  140.5310 C   0  0  0  0  0  2  0  0  0  0  0  0
  187.7910  178.5120  139.1000 N   0  0  0  0  0  2  0  0  0  0  0  0
  189.1040  178.5990  138.4880 C   0  0  0  0  0  2  0  0  0  0  0  0
  188.9550  178.9640  137.0260 C   0  0  0  0  0  1  0  0  0  0  0  0
  1 13  1  0  0  0  0
  2  1  2  0  0  0  0
  2 18  1  0  0  0  0
  4 16  1  6  0  0  0
  4  7  1  0  0  0  0
  4  1  1  0  0  0  0
  5  8  1  0  0  0  0
  6  3  1  0  0  0  0
  7  8  1  1  0  0  0
  7 14  1  0  0  0  0
  9 18  1  0  0  0  0
  9 10  1  0  0  0  0
 11  2  1  0  0  0  0
 12 16  1  0  0  0  0
 12  5  1  0  0  0  0
 13  3  2  0  0  0  0
 14 13  1  0  0  0  0
 15  9  2  0  0  0  0
 17 11  2  0  0  0  0
 17 15  1  0  0  0  0
 18  6  2  0  0  0  0
 19 17  1  0  0  0  0
 20 19  1  0  0  0  0
 21 20  1  0  0  0  0
 22 21  1  0  0  0  0
 23 22  1  0  0  0  0
 24 23  1  0  0  0  0
 25 24  1  0  0  0  0
M  END
>  <MODEL>
1

>  <REMARK>
 VINA RESULT:      -9.1      0.000      0.000
  Name = 
  6 active torsions:
  status: ('A' for Active; 'I' for Inactive)
    1  A    between atoms: C_2  and  N_12
    2  A    between atoms: S_6  and  C_15
    3  A    between atoms: S_6  and  C_23
    4  A    between atoms: N_12  and  C_25
    5  A    between atoms: C_15  and  C_21
    6  A    between atoms: C_21  and  C_25
                            x       y       z     vdW  Elec       q    Type
                         _______ _______ _______ _____ _____    ______ ____

>  <TORSDO>
F 6

$$$$
=
 OpenBabel10262419513D

 25 28  0  0  1  0  0  0  0  0999 V2000
  185.9050  178.3220  144.7970 C   0  0  0  0  0  0  0  0  0  0  0  0
  185.8450  178.4600  143.4090 C   0  0  0  0  0  0  0  0  0  0  0  0
  183.5650  178.8650  145.0470 C   0  0  0  0  0  3  0  0  0  0  0  0
  187.0480  178.2250  145.7410 C   0  0  1  0  0  3  0  0  0  0  0  0
  188.7480  178.1420  147.8700 C   0  0  0  0  0  2  0  0  0  0  0  0
  183.4560  178.9630  143.6490 C   0  0  0  0  0  3  0  0  0  0  0  0
  186.4410  177.8870  147.0300 N   0  0  1  0  0  0  0  0  0  0  0  0
  187.2540  178.5160  148.0630 C   0  0  0  0  0  2  0  0  0  0  0  0
  184.4900  178.8920  141.4270 C   0  0  0  0  0  0  0  0  0  0  0  0
  183.2730  179.1840  140.8220 O   0  0  0  0  0  1  0  0  0  0  0  0
  186.9760  178.3080  142.6030 C   0  0  0  0  0  3  0  0  0  0  0  0
  188.9780  177.0420  146.7950 C   0  0  0  0  0  2  0  0  0  0  0  0
  184.8100  178.5480  145.5840 C   0  0  0  0  0  0  0  0  0  0  0  0
  185.1490  178.4400  146.9560 N   0  0  0  0  0  2  0  0  0  0  0  0
  185.6290  178.7280  140.6330 C   0  0  0  0  0  3  0  0  0  0  0  0
  188.2020  177.2750  145.4740 C   0  0  0  0  0  2  0  0  0  0  0  0
  186.8670  178.4380  141.2160 C   0  0  0  0  0  0  0  0  0  0  0  0
  184.5860  178.7640  142.8220 C   0  0  0  0  0  0  0  0  0  0  0  0
  188.3150  178.2450  140.1870 S   0  0  0  0  0  0  0  0  0  0  0  0
  189.1100  177.1230  141.3780 C   0  0  0  0  0  2  0  0  0  0  0  0
  190.5520  176.8580  140.9730 C   0  0  0  0  0  2  0  0  0  0  0  0
  191.5210  177.4470  141.9860 C   0  0  0  0  0  2  0  0  0  0  0  0
  191.2670  176.8880  143.3040 N   0  0  0  0  0  2  0  0  0  0  0  0
  191.6680  177.8940  144.2690 C   0  0  0  0  0  2  0  0  0  0  0  0
  190.9760  179.2020  143.9500 C   0  0  0  0  0  1  0  0  0  0  0  0
  1 13  1  0  0  0  0
  1  4  1  0  0  0  0
  2  1  2  0  0  0  0
  3 13  2  0  0  0  0
  4 16  1  6  0  0  0
  4  7  1  0  0  0  0
  5  8  1  0  0  0  0
  6  3  1  0  0  0  0
  7  8  1  1  0  0  0
  9 18  1  0  0  0  0
 10  9  1  0  0  0  0
 11  2  1  0  0  0  0
 12  5  1  0  0  0  0
 13 14  1  0  0  0  0
 14  7  1  0  0  0  0
 15 17  1  0  0  0  0
 15  9  2  0  0  0  0
 16 12  1  0  0  0  0
 17 11  2  0  0  0  0
 18  2  1  0  0  0  0
 18  6  2  0  0  0  0
 19 17  1  0  0  0  0
 19 20  1  0  0  0  0
 21 20  1  0  0  0  0
 21 22  1  0  0  0  0
 22 23  1  0  0  0  0
 23 24  1  0  0  0  0
 25 24  1  0  0  0  0
M  END
>  <MODEL>
2

>  <REMARK>
 VINA RESULT:      -8.9      2.987      5.276
  Name = 
  6 active torsions:
  status: ('A' for Active; 'I' for Inactive)
    1  A    between atoms: C_2  and  N_12
    2  A    between atoms: S_6  and  C_15
    3  A    between atoms: S_6  and  C_23
    4  A    between atoms: N_12  and  C_25
    5  A    between atoms: C_15  and  C_21
    6  A    between atoms: C_21  and  C_25
                            x       y       z     vdW  Elec       q    Type
                         _______ _______ _______ _____ _____    ______ ____

>  <TORSDO>
F 6

$$$$
=
 OpenBabel10262419513D

 25 28  0  0  1  0  0  0  0  0999 V2000
  185.9700  178.3450  144.7280 C   0  0  0  0  0  0  0  0  0  0  0  0
  187.2350  177.7960  144.9440 C   0  0  0  0  0  0  0  0  0  0  0  0
  185.6570  178.7920  147.0800 C   0  0  0  0  0  3  0  0  0  0  0  0
  185.0620  178.3240  143.5520 C   0  0  1  0  0  3  0  0  0  0  0  0
  183.0090  178.4760  141.7660 C   0  0  0  0  0  2  0  0  0  0  0  0
  186.9480  178.2930  147.3290 C   0  0  0  0  0  3  0  0  0  0  0  0
  183.9860  179.2570  143.8950 N   0  0  1  0  0  0  0  0  0  0  0  0
  182.7680  178.7490  143.2760 C   0  0  0  0  0  2  0  0  0  0  0  0
  189.0200  177.2630  146.5190 C   0  0  0  0  0  0  0  0  0  0  0  0
  189.5470  177.2480  147.8060 O   0  0  0  0  0  1  0  0  0  0  0  0
  187.9960  177.2610  143.9010 C   0  0  0  0  0  3  0  0  0  0  0  0
  184.3760  179.0080  141.2500 C   0  0  0  0  0  2  0  0  0  0  0  0
  185.2010  178.7960  145.7640 C   0  0  0  0  0  0  0  0  0  0  0  0
  183.9300  179.2140  145.2990 N   0  0  0  0  0  2  0  0  0  0  0  0
  189.7730  176.7390  145.4640 C   0  0  0  0  0  3  0  0  0  0  0  0
  185.5770  178.6540  142.1620 C   0  0  0  0  0  2  0  0  0  0  0  0
  189.2640  176.7360  144.1610 C   0  0  0  0  0  0  0  0  0  0  0  0
  187.7430  177.7920  146.2720 C   0  0  0  0  0  0  0  0  0  0  0  0
  190.2350  176.0510  142.8260 S   0  0  0  0  0  0  0  0  0  0  0  0
  190.1180  177.5810  141.8480 C   0  0  0  0  0  2  0  0  0  0  0  0
  189.6520  177.2710  140.4340 C   0  0  0  0  0  2  0  0  0  0  0  0
  188.5300  178.2060  140.0120 C   0  0  0  0  0  2  0  0  0  0  0  0
  188.8910  178.8990  138.7870 N   0  0  0  0  0  2  0  0  0  0  0  0
  188.1540  178.2590  137.7130 C   0  0  0  0  0  2  0  0  0  0  0  0
  186.7270  178.0170  138.1550 C   0  0  0  0  0  1  0  0  0  0  0  0
  1  2  2  0  0  0  0
  1 13  1  0  0  0  0
  2 18  1  0  0  0  0
  3  6  1  0  0  0  0
  4 16  1  6  0  0  0
  4  7  1  0  0  0  0
  4  1  1  0  0  0  0
  5  8  1  0  0  0  0
  7  8  1  6  0  0  0
  7 14  1  0  0  0  0
  9 10  1  0  0  0  0
 11 17  2  0  0  0  0
 11  2  1  0  0  0  0
 12  5  1  0  0  0  0
 12 16  1  0  0  0  0
 13  3  2  0  0  0  0
 14 13  1  0  0  0  0
 15  9  2  0  0  0  0
 17 15  1  0  0  0  0
 18  9  1  0  0  0  0
 18  6  2  0  0  0  0
 19 17  1  0  0  0  0
 20 19  1  0  0  0  0
 21 20  1  0  0  0  0
 22 21  1  0  0  0  0
 23 22  1  0  0  0  0
 24 25  1  0  0  0  0
 24 23  1  0  0  0  0
M  END
>  <MODEL>
3

>  <REMARK>
 VINA RESULT:      -8.9      1.359      1.819
  Name = 
  6 active torsions:
  status: ('A' for Active; 'I' for Inactive)
    1  A    between atoms: C_2  and  N_12
    2  A    between atoms: S_6  and  C_15
    3  A    between atoms: S_6  and  C_23
    4  A    between atoms: N_12  and  C_25
    5  A    between atoms: C_15  and  C_21
    6  A    between atoms: C_21  and  C_25
                            x       y       z     vdW  Elec       q    Type
                         _______ _______ _______ _____ _____    ______ ____

>  <TORSDO>
F 6

$$$$
=
 OpenBabel10262419513D

 25 28  0  0  1  0  0  0  0  0999 V2000
  189.6220  177.2180  144.5890 C   0  0  0  0  0  0  0  0  0  0  0  0
  188.5800  177.5740  145.4470 C   0  0  0  0  0  0  0  0  0  0  0  0
  191.1170  176.7730  146.4330 C   0  0  0  0  0  3  0  0  0  0  0  0
  189.8120  177.3940  143.1260 C   0  0  1  0  0  3  0  0  0  0  0  0
  190.7020  177.5780  140.5570 C   0  0  0  0  0  2  0  0  0  0  0  0
  190.0750  177.0750  147.3270 C   0  0  0  0  0  3  0  0  0  0  0  0
  191.0150  176.6210  142.8110 N   0  0  1  0  0  0  0  0  0  0  0  0
  191.6940  177.3120  141.7210 C   0  0  0  0  0  2  0  0  0  0  0  0
  187.7720  177.8110  147.7370 C   0  0  0  0  0  0  0  0  0  0  0  0
  187.9600  177.7220  149.1120 O   0  0  0  0  0  1  0  0  0  0  0  0
  187.3440  178.0150  144.9660 C   0  0  0  0  0  3  0  0  0  0  0  0
  189.3320  176.8650  140.7340 C   0  0  0  0  0  2  0  0  0  0  0  0
  190.8520  176.8620  145.0690 C   0  0  0  0  0  0  0  0  0  0  0  0
  191.7600  176.6430  144.0040 N   0  0  0  0  0  2  0  0  0  0  0  0
  186.5380  178.2420  147.2400 C   0  0  0  0  0  3  0  0  0  0  0  0
  188.7140  177.0220  142.1460 C   0  0  0  0  0  2  0  0  0  0  0  0
  186.3250  178.3450  145.8620 C   0  0  0  0  0  0  0  0  0  0  0  0
  188.8070  177.4770  146.8480 C   0  0  0  0  0  0  0  0  0  0  0  0
  184.7460  178.9100  145.2440 S   0  0  0  0  0  0  0  0  0  0  0  0
  185.0730  178.2560  143.5780 C   0  0  0  0  0  2  0  0  0  0  0  0
  185.0720  179.3830  142.5570 C   0  0  0  0  0  2  0  0  0  0  0  0
  185.6250  178.9120  141.2220 C   0  0  0  0  0  2  0  0  0  0  0  0
  184.8530  179.4850  140.1310 N   0  0  0  0  0  2  0  0  0  0  0  0
  185.1090  178.6640  138.9620 C   0  0  0  0  0  2  0  0  0  0  0  0
  183.7940  178.1750  138.3940 C   0  0  0  0  0  1  0  0  0  0  0  0
  1 13  2  0  0  0  0
  1  2  1  0  0  0  0
  2 18  1  0  0  0  0
  3  6  2  0  0  0  0
  4 16  1  6  0  0  0
  4  1  1  0  0  0  0
  5 12  1  0  0  0  0
  5  8  1  0  0  0  0
  7  8  1  6  0  0  0
  7  4  1  0  0  0  0
  7 14  1  0  0  0  0
  9 10  1  0  0  0  0
 11  2  2  0  0  0  0
 11 17  1  0  0  0  0
 12 16  1  0  0  0  0
 13  3  1  0  0  0  0
 14 13  1  0  0  0  0
 15  9  1  0  0  0  0
 17 15  2  0  0  0  0
 18  6  1  0  0  0  0
 18  9  2  0  0  0  0
 19 17  1  0  0  0  0
 20 19  1  0  0  0  0
 21 20  1  0  0  0  0
 22 21  1  0  0  0  0
 23 22  1  0  0  0  0
 24 23  1  0  0  0  0
 25 24  1  0  0  0  0
M  END
>  <MODEL>
4

>  <REMARK>
 VINA RESULT:      -8.6      2.883      4.911
  Name = 
  6 active torsions:
  status: ('A' for Active; 'I' for Inactive)
    1  A    between atoms: C_2  and  N_12
    2  A    between atoms: S_6  and  C_15
    3  A    between atoms: S_6  and  C_23
    4  A    between atoms: N_12  and  C_25
    5  A    between atoms: C_15  and  C_21
    6  A    between atoms: C_21  and  C_25
                            x       y       z     vdW  Elec       q    Type
                         _______ _______ _______ _____ _____    ______ ____

>  <TORSDO>
F 6

$$$$
=
 OpenBabel10262419513D

 25 28  0  0  1  0  0  0  0  0999 V2000
  188.4240  177.5500  144.3140 C   0  0  0  0  0  0  0  0  0  0  0  0
  187.0700  177.8770  144.4180 C   0  0  0  0  0  0  0  0  0  0  0  0
  188.7180  177.6020  146.7110 C   0  0  0  0  0  3  0  0  0  0  0  0
  189.3580  177.5320  143.1610 C   0  0  1  0  0  3  0  0  0  0  0  0
  191.4760  177.4560  141.4450 C   0  0  0  0  0  2  0  0  0  0  0  0
  187.3470  177.8820  146.8550 C   0  0  0  0  0  3  0  0  0  0  0  0
  190.5750  176.9000  143.6760 N   0  0  1  0  0  0  0  0  0  0  0  0
  191.7010  177.5110  142.9810 C   0  0  0  0  0  2  0  0  0  0  0  0
  185.1540  178.3330  145.8580 C   0  0  0  0  0  0  0  0  0  0  0  0
  184.5810  178.4780  147.1160 O   0  0  0  0  0  1  0  0  0  0  0  0
  186.2660  178.0590  143.2900 C   0  0  0  0  0  3  0  0  0  0  0  0
  190.2540  176.5880  141.0280 C   0  0  0  0  0  2  0  0  0  0  0  0
  189.2200  177.4490  145.4210 C   0  0  0  0  0  0  0  0  0  0  0  0
  190.5650  177.2050  145.0490 N   0  0  0  0  0  2  0  0  0  0  0  0
  184.3600  178.5050  144.7190 C   0  0  0  0  0  3  0  0  0  0  0  0
  188.9710  176.8640  141.8520 C   0  0  0  0  0  2  0  0  0  0  0  0
  184.9120  178.3690  143.4410 C   0  0  0  0  0  0  0  0  0  0  0  0
  186.5170  178.0220  145.7200 C   0  0  0  0  0  0  0  0  0  0  0  0
  183.8860  178.6050  141.9970 S   0  0  0  0  0  0  0  0  0  0  0  0
  185.3220  178.9410  140.9320 C   0  0  0  0  0  2  0  0  0  0  0  0
  184.8960  179.0130  139.4740 C   0  0  0  0  0  2  0  0  0  0  0  0
  185.8650  178.2540  138.5830 C   0  0  0  0  0  2  0  0  0  0  0  0
  187.2250  178.4190  139.0700 N   0  0  0  0  0  2  0  0  0  0  0  0
  188.1060  178.1260  137.9550 C   0  0  0  0  0  2  0  0  0  0  0  0
  187.5120  178.6890  136.6820 C   0  0  0  0  0  1  0  0  0  0  0  0
  1  2  2  0  0  0  0
  1 13  1  0  0  0  0
  2 18  1  0  0  0  0
  3  6  1  0  0  0  0
  4 16  1  6  0  0  0
  4  7  1  0  0  0  0
  4  1  1  0  0  0  0
  5  8  1  0  0  0  0
  7  8  1  6  0  0  0
  7 14  1  0  0  0  0
  9 10  1  0  0  0  0
 11 17  2  0  0  0  0
 11  2  1  0  0  0  0
 12  5  1  0  0  0  0
 12 16  1  0  0  0  0
 13  3  2  0  0  0  0
 14 13  1  0  0  0  0
 15  9  2  0  0  0  0
 17 15  1  0  0  0  0
 18  9  1  0  0  0  0
 18  6  2  0  0  0  0
 19 17  1  0  0  0  0
 20 19  1  0  0  0  0
 21 20  1  0  0  0  0
 22 23  1  0  0  0  0
 22 21  1  0  0  0  0
 24 23  1  0  0  0  0
 25 24  1  0  0  0  0
M  END
>  <MODEL>
5

>  <REMARK>
 VINA RESULT:      -8.5      2.980      4.945
  Name = 
  6 active torsions:
  status: ('A' for Active; 'I' for Inactive)
    1  A    between atoms: C_2  and  N_12
    2  A    between atoms: S_6  and  C_15
    3  A    between atoms: S_6  and  C_23
    4  A    between atoms: N_12  and  C_25
    5  A    between atoms: C_15  and  C_21
    6  A    between atoms: C_21  and  C_25
                            x       y       z     vdW  Elec       q    Type
                         _______ _______ _______ _____ _____    ______ ____

>  <TORSDO>
F 6

$$$$
=
 OpenBabel10262419513D

 25 28  0  0  1  0  0  0  0  0999 V2000
  188.4820  177.5360  144.7510 C   0  0  0  0  0  0  0  0  0  0  0  0
  187.1250  177.8590  144.8100 C   0  0  0  0  0  0  0  0  0  0  0  0
  188.7110  177.6500  147.1520 C   0  0  0  0  0  3  0  0  0  0  0  0
  189.4480  177.4920  143.6240 C   0  0  1  0  0  3  0  0  0  0  0  0
  191.6110  177.3820  141.9690 C   0  0  0  0  0  2  0  0  0  0  0  0
  187.3360  177.9270  147.2520 C   0  0  0  0  0  3  0  0  0  0  0  0
  190.6520  176.8780  144.1870 N   0  0  1  0  0  0  0  0  0  0  0  0
  191.7950  177.4770  143.5080 C   0  0  0  0  0  2  0  0  0  0  0  0
  185.1690  178.3440  146.1840 C   0  0  0  0  0  0  0  0  0  0  0  0
  184.5620  178.5190  147.4230 O   0  0  0  0  0  1  0  0  0  0  0  0
  186.3510  178.0100  143.6550 C   0  0  0  0  0  3  0  0  0  0  0  0
  190.4050  176.4990  141.5410 C   0  0  0  0  0  2  0  0  0  0  0  0
  189.2480  177.4660  145.8810 C   0  0  0  0  0  0  0  0  0  0  0  0
  190.6040  177.2180  145.5510 N   0  0  0  0  0  2  0  0  0  0  0  0
  184.4060  178.4840  145.0210 C   0  0  0  0  0  3  0  0  0  0  0  0
  189.0990  176.7900  142.3230 C   0  0  0  0  0  2  0  0  0  0  0  0
  184.9930  178.3180  143.7620 C   0  0  0  0  0  0  0  0  0  0  0  0
  186.5360  178.0360  146.0920 C   0  0  0  0  0  0  0  0  0  0  0  0
  184.0060  178.5130  142.2850 S   0  0  0  0  0  0  0  0  0  0  0  0
  185.3480  179.3690  141.4040 C   0  0  0  0  0  2  0  0  0  0  0  0
  185.7370  178.5970  140.1530 C   0  0  0  0  0  2  0  0  0  0  0  0
  184.6710  178.7250  139.0780 C   0  0  0  0  0  2  0  0  0  0  0  0
  184.1470  180.0800  139.0530 N   0  0  0  0  0  2  0  0  0  0  0  0
  182.7200  179.9720  138.8100 C   0  0  0  0  0  2  0  0  0  0  0  0
  182.1360  181.3560  138.6210 C   0  0  0  0  0  1  0  0  0  0  0  0
  1  2  2  0  0  0  0
  1 13  1  0  0  0  0
  2 18  1  0  0  0  0
  3  6  1  0  0  0  0
  4 16  1  6  0  0  0
  4  7  1  0  0  0  0
  4  1  1  0  0  0  0
  5  8  1  0  0  0  0
  7  8  1  6  0  0  0
  7 14  1  0  0  0  0
  9 10  1  0  0  0  0
 11 17  2  0  0  0  0
 11  2  1  0  0  0  0
 12  5  1  0  0  0  0
 12 16  1  0  0  0  0
 13  3  2  0  0  0  0
 14 13  1  0  0  0  0
 15  9  2  0  0  0  0
 17 15  1  0  0  0  0
 18  9  1  0  0  0  0
 18  6  2  0  0  0  0
 19 17  1  0  0  0  0
 20 19  1  0  0  0  0
 21 20  1  0  0  0  0
 22 21  1  0  0  0  0
 23 22  1  0  0  0  0
 24 23  1  0  0  0  0
 25 24  1  0  0  0  0
M  END
>  <MODEL>
6

>  <REMARK>
 VINA RESULT:      -8.3      3.397      5.289
  Name = 
  6 active torsions:
  status: ('A' for Active; 'I' for Inactive)
    1  A    between atoms: C_2  and  N_12
    2  A    between atoms: S_6  and  C_15
    3  A    between atoms: S_6  and  C_23
    4  A    between atoms: N_12  and  C_25
    5  A    between atoms: C_15  and  C_21
    6  A    between atoms: C_21  and  C_25
                            x       y       z     vdW  Elec       q    Type
                         _______ _______ _______ _____ _____    ______ ____

>  <TORSDO>
F 6

$$$$
=
 OpenBabel10262419513D

 25 28  0  0  1  0  0  0  0  0999 V2000
  189.5860  177.2460  144.5180 C   0  0  0  0  0  0  0  0  0  0  0  0
  188.5520  177.6130  145.3820 C   0  0  0  0  0  0  0  0  0  0  0  0
  191.0850  176.7860  146.3550 C   0  0  0  0  0  3  0  0  0  0  0  0
  189.7710  177.4200  143.0550 C   0  0  1  0  0  3  0  0  0  0  0  0
  190.6490  177.5930  140.4800 C   0  0  0  0  0  2  0  0  0  0  0  0
  190.0510  177.0990  147.2540 C   0  0  0  0  0  3  0  0  0  0  0  0
  190.9640  176.6340  142.7330 N   0  0  1  0  0  0  0  0  0  0  0  0
  191.6440  177.3180  141.6400 C   0  0  0  0  0  2  0  0  0  0  0  0
  187.7580  177.8580  147.6760 C   0  0  0  0  0  0  0  0  0  0  0  0
  187.9520  177.7690  149.0500 O   0  0  0  0  0  1  0  0  0  0  0  0
  187.3180  178.0660  144.9060 C   0  0  0  0  0  3  0  0  0  0  0  0
  189.2720  176.8940  140.6650 C   0  0  0  0  0  2  0  0  0  0  0  0
  190.8150  176.8780  144.9920 C   0  0  0  0  0  0  0  0  0  0  0  0
  191.7150  176.6490  143.9220 N   0  0  0  0  0  2  0  0  0  0  0  0
  186.5260  178.3020  147.1850 C   0  0  0  0  0  3  0  0  0  0  0  0
  188.6640  177.0580  142.0800 C   0  0  0  0  0  2  0  0  0  0  0  0
  186.3070  178.4060  145.8070 C   0  0  0  0  0  0  0  0  0  0  0  0
  188.7850  177.5140  146.7810 C   0  0  0  0  0  0  0  0  0  0  0  0
  184.7300  178.9870  145.1970 S   0  0  0  0  0  0  0  0  0  0  0  0
  184.9730  178.1930  143.5780 C   0  0  0  0  0  2  0  0  0  0  0  0
  183.9110  178.6590  142.5950 C   0  0  0  0  0  2  0  0  0  0  0  0
  182.5740  178.8610  143.2900 C   0  0  0  0  0  2  0  0  0  0  0  0
  181.5480  179.1830  142.3130 N   0  0  0  0  0  2  0  0  0  0  0  0
  180.3330  179.4570  143.0580 C   0  0  0  0  0  2  0  0  0  0  0  0
  180.0650  178.3190  144.0200 C   0  0  0  0  0  1  0  0  0  0  0  0
  1 13  2  0  0  0  0
  1  2  1  0  0  0  0
  2 18  1  0  0  0  0
  3  6  2  0  0  0  0
  4 16  1  6  0  0  0
  4  1  1  0  0  0  0
  5 12  1  0  0  0  0
  5  8  1  0  0  0  0
  7  8  1  6  0  0  0
  7  4  1  0  0  0  0
  7 14  1  0  0  0  0
  9 10  1  0  0  0  0
 11  2  2  0  0  0  0
 11 17  1  0  0  0  0
 12 16  1  0  0  0  0
 13  3  1  0  0  0  0
 14 13  1  0  0  0  0
 15  9  1  0  0  0  0
 17 15  2  0  0  0  0
 18  6  1  0  0  0  0
 18  9  2  0  0  0  0
 19 17  1  0  0  0  0
 20 19  1  0  0  0  0
 21 22  1  0  0  0  0
 21 20  1  0  0  0  0
 23 24  1  0  0  0  0
 23 22  1  0  0  0  0
 24 25  1  0  0  0  0
M  END
>  <MODEL>
7

>  <REMARK>
 VINA RESULT:      -8.3      2.863      5.879
  Name = 
  6 active torsions:
  status: ('A' for Active; 'I' for Inactive)
    1  A    between atoms: C_2  and  N_12
    2  A    between atoms: S_6  and  C_15
    3  A    between atoms: S_6  and  C_23
    4  A    between atoms: N_12  and  C_25
    5  A    between atoms: C_15  and  C_21
    6  A    between atoms: C_21  and  C_25
                            x       y       z     vdW  Elec       q    Type
                         _______ _______ _______ _____ _____    ______ ____

>  <TORSDO>
F 6

$$$$
=
 OpenBabel10262419513D

 25 28  0  0  1  0  0  0  0  0999 V2000
  185.7700  178.3820  144.8200 C   0  0  0  0  0  0  0  0  0  0  0  0
  185.7150  178.4980  143.4300 C   0  0  0  0  0  0  0  0  0  0  0  0
  183.4300  178.9310  145.0530 C   0  0  0  0  0  3  0  0  0  0  0  0
  186.9090  178.2990  145.7690 C   0  0  1  0  0  3  0  0  0  0  0  0
  188.6020  178.2480  147.9050 C   0  0  0  0  0  2  0  0  0  0  0  0
  183.3260  179.0060  143.6530 C   0  0  0  0  0  3  0  0  0  0  0  0
  186.2970  177.9820  147.0610 N   0  0  1  0  0  0  0  0  0  0  0  0
  187.1070  178.6270  148.0880 C   0  0  0  0  0  2  0  0  0  0  0  0
  184.3680  178.8990  141.4360 C   0  0  0  0  0  0  0  0  0  0  0  0
  183.1530  179.1840  140.8220 O   0  0  0  0  0  1  0  0  0  0  0  0
  186.8490  178.3320  142.6300 C   0  0  0  0  0  3  0  0  0  0  0  0
  188.8350  177.1310  146.8490 C   0  0  0  0  0  2  0  0  0  0  0  0
  184.6730  178.6220  145.6000 C   0  0  0  0  0  0  0  0  0  0  0  0
  185.0070  178.5340  146.9740 N   0  0  0  0  0  2  0  0  0  0  0  0
  185.5090  178.7220  140.6490 C   0  0  0  0  0  3  0  0  0  0  0  0
  188.0640  177.3440  145.5220 C   0  0  0  0  0  2  0  0  0  0  0  0
  186.7450  178.4410  141.2410 C   0  0  0  0  0  0  0  0  0  0  0  0
  184.4590  178.7940  142.8340 C   0  0  0  0  0  0  0  0  0  0  0  0
  188.1960  178.2300  140.2200 S   0  0  0  0  0  0  0  0  0  0  0  0
  189.2310  177.7730  141.6450 C   0  0  0  0  0  2  0  0  0  0  0  0
  190.2760  176.7490  141.2340 C   0  0  0  0  0  2  0  0  0  0  0  0
  190.9180  177.1250  139.9080 C   0  0  0  0  0  2  0  0  0  0  0  0
  190.9210  175.9800  139.0120 N   0  0  0  0  0  2  0  0  0  0  0  0
  191.6230  176.3920  137.8110 C   0  0  0  0  0  2  0  0  0  0  0  0
  193.1160  176.3380  138.0560 C   0  0  0  0  0  1  0  0  0  0  0  0
  1 13  1  0  0  0  0
  1  4  1  0  0  0  0
  2  1  2  0  0  0  0
  3 13  2  0  0  0  0
  4 16  1  6  0  0  0
  4  7  1  0  0  0  0
  5  8  1  0  0  0  0
  6  3  1  0  0  0  0
  7  8  1  1  0  0  0
  9 18  1  0  0  0  0
 10  9  1  0  0  0  0
 11  2  1  0  0  0  0
 12  5  1  0  0  0  0
 13 14  1  0  0  0  0
 14  7  1  0  0  0  0
 15 17  1  0  0  0  0
 15  9  2  0  0  0  0
 16 12  1  0  0  0  0
 17 11  2  0  0  0  0
 18  2  1  0  0  0  0
 18  6  2  0  0  0  0
 19 17  1  0  0  0  0
 19 20  1  0  0  0  0
 21 20  1  0  0  0  0
 22 21  1  0  0  0  0
 23 22  1  0  0  0  0
 24 25  1  0  0  0  0
 24 23  1  0  0  0  0
M  END
>  <MODEL>
8

>  <REMARK>
 VINA RESULT:      -8.2      2.943      5.006
  Name = 
  6 active torsions:
  status: ('A' for Active; 'I' for Inactive)
    1  A    between atoms: C_2  and  N_12
    2  A    between atoms: S_6  and  C_15
    3  A    between atoms: S_6  and  C_23
    4  A    between atoms: N_12  and  C_25
    5  A    between atoms: C_15  and  C_21
    6  A    between atoms: C_21  and  C_25
                            x       y       z     vdW  Elec       q    Type
                         _______ _______ _______ _____ _____    ______ ____

>  <TORSDO>
F 6

$$$$
=
 OpenBabel10262419513D

 25 28  0  0  1  0  0  0  0  0999 V2000
  187.8260  177.6750  144.4730 C   0  0  0  0  0  0  0  0  0  0  0  0
  186.5280  178.0650  144.1370 C   0  0  0  0  0  0  0  0  0  0  0  0
  187.3870  177.9120  146.8360 C   0  0  0  0  0  3  0  0  0  0  0  0
  189.0620  177.5220  143.6640 C   0  0  1  0  0  3  0  0  0  0  0  0
  191.5880  177.2170  142.6860 C   0  0  0  0  0  2  0  0  0  0  0  0
  186.0580  178.2600  146.5370 C   0  0  0  0  0  3  0  0  0  0  0  0
  190.0230  176.8850  144.5660 N   0  0  1  0  0  0  0  0  0  0  0  0
  191.3430  177.3890  144.2100 C   0  0  0  0  0  2  0  0  0  0  0  0
  184.3020  178.7190  144.8900 C   0  0  0  0  0  0  0  0  0  0  0  0
  183.3870  178.9910  145.9010 O   0  0  0  0  0  1  0  0  0  0  0  0
  186.1150  178.1880  142.8080 C   0  0  0  0  0  3  0  0  0  0  0  0
  190.4950  176.3700  141.9740 C   0  0  0  0  0  2  0  0  0  0  0  0
  188.2440  177.6320  145.7740 C   0  0  0  0  0  0  0  0  0  0  0  0
  189.6190  177.3030  145.8470 N   0  0  0  0  0  2  0  0  0  0  0  0
  183.9000  178.8290  143.5550 C   0  0  0  0  0  3  0  0  0  0  0  0
  189.0440  176.7660  142.3470 C   0  0  0  0  0  2  0  0  0  0  0  0
  184.8020  178.5660  142.5180 C   0  0  0  0  0  0  0  0  0  0  0  0
  185.6190  178.3410  145.1950 C   0  0  0  0  0  0  0  0  0  0  0  0
  184.2760  178.7240  140.8170 S   0  0  0  0  0  0  0  0  0  0  0  0
  182.5260  178.4760  141.2510 C   0  0  0  0  0  2  0  0  0  0  0  0
  181.6350  179.3340  140.3680 C   0  0  0  0  0  2  0  0  0  0  0  0
  180.2770  179.5570  141.0140 C   0  0  0  0  0  2  0  0  0  0  0  0
  180.4350  180.2400  142.2860 N   0  0  0  0  0  2  0  0  0  0  0  0
  179.4580  179.6660  143.1930 C   0  0  0  0  0  2  0  0  0  0  0  0
  180.0970  178.5340  143.9690 C   0  0  0  0  0  1  0  0  0  0  0  0
  1 13  1  0  0  0  0
  2  1  2  0  0  0  0
  2 18  1  0  0  0  0
  4 16  1  6  0  0  0
  4  1  1  0  0  0  0
  4  7  1  0  0  0  0
  5  8  1  0  0  0  0
  6  3  1  0  0  0  0
  7  8  1  6  0  0  0
  7 14  1  0  0  0  0
  9 18  1  0  0  0  0
  9 10  1  0  0  0  0
 11  2  1  0  0  0  0
 12 16  1  0  0  0  0
 12  5  1  0  0  0  0
 13 14  1  0  0  0  0
 13  3  2  0  0  0  0
 15  9  2  0  0  0  0
 17 11  2  0  0  0  0
 17 15  1  0  0  0  0
 18  6  2  0  0  0  0
 19 20  1  0  0  0  0
 19 17  1  0  0  0  0
 21 22  1  0  0  0  0
 21 20  1  0  0  0  0
 22 23  1  0  0  0  0
 23 24  1  0  0  0  0
 24 25  1  0  0  0  0
M  END
>  <MODEL>
9

>  <REMARK>
 VINA RESULT:      -8.2      3.526      6.512
  Name = 
  6 active torsions:
  status: ('A' for Active; 'I' for Inactive)
    1  A    between atoms: C_2  and  N_12
    2  A    between atoms: S_6  and  C_15
    3  A    between atoms: S_6  and  C_23
    4  A    between atoms: N_12  and  C_25
    5  A    between atoms: C_15  and  C_21
    6  A    between atoms: C_21  and  C_25
                            x       y       z     vdW  Elec       q    Type
                         _______ _______ _______ _____ _____    ______ ____

>  <TORSDO>
F 6

$$$$
