=
 OpenBabel10262422483D

 37 42  0  0  1  0  0  0  0  0999 V2000
  188.8670  179.4490  138.0950 O   0  0  0  0  0  1  0  0  0  0  0  0
  186.4210  178.3890  138.2580 N   0  0  1  0  0  0  0  0  0  0  0  0
  183.8170  178.2280  140.8720 O   0  0  0  0  0  0  0  0  0  0  0  0
  188.7920  177.0980  138.4460 C   0  0  0  0  0  2  0  0  0  0  0  0
  185.8320  178.0480  139.5840 C   0  0  2  0  0  3  0  0  0  0  0  0
  187.4780  177.4840  137.8020 C   0  0  1  0  0  0  0  0  0  0  0  0
  184.5070  178.8180  139.8090 C   0  0  1  0  0  3  0  0  0  0  0  0
  187.2110  177.2670  135.2690 C   0  0  0  0  0  1  0  0  0  0  0  0
  184.4150  176.9320  137.5050 C   0  0  0  0  0  2  0  0  0  0  0  0
  186.7460  176.8430  136.6570 C   0  0  2  0  0  3  0  0  0  0  0  0
  184.4480  178.6960  142.0360 C   0  0  1  0  0  3  0  0  0  0  0  0
  185.6370  177.7880  137.1170 C   0  0  2  0  0  3  0  0  0  0  0  0
  186.6770  178.4730  140.8150 C   0  0  1  0  0  3  0  0  0  0  0  0
  188.7710  178.2240  137.4300 C   0  0  1  0  0  3  0  0  0  0  0  0
  183.6040  179.0560  138.5920 C   0  0  1  0  0  3  0  0  0  0  0  0
  183.6380  178.2490  143.2390 C   0  0  0  0  0  1  0  0  0  0  0  0
  185.9020  178.1820  142.1250 C   0  0  1  0  0  3  0  0  0  0  0  0
  183.2020  177.7860  137.8530 C   0  0  0  0  0  2  0  0  0  0  0  0
  182.3170  181.2180  138.3280 C   0  0  0  0  0  3  0  0  0  0  0  0
  182.4360  179.9410  138.8960 C   0  0  0  0  0  0  0  0  0  0  0  0
  181.4300  179.4650  139.7450 C   0  0  0  0  0  3  0  0  0  0  0  0
  179.0630  179.6590  141.0960 Cl  0  0  0  0  0  0  0  0  0  0  0  0
  180.2040  181.5360  139.4670 C   0  0  0  0  0  3  0  0  0  0  0  0
  180.3180  180.2620  140.0320 C   0  0  0  0  0  0  0  0  0  0  0  0
  181.2050  182.0140  138.6140 C   0  0  0  0  0  3  0  0  0  0  0  0
  186.6090  178.8370  143.3060 C   0  0  0  0  0  2  0  0  0  0  0  0
  187.0990  177.7690  144.2900 C   0  0  1  0  0  3  0  0  0  0  0  0
  188.9140  177.0680  145.9240 C   0  0  0  0  0  1  0  0  0  0  0  0
  188.5770  177.8750  144.6810 C   0  0  0  0  0  2  0  0  0  0  0  0
  186.2290  177.5050  145.3740 O   0  0  0  0  0  0  0  0  0  0  0  0
  186.0670  178.9100  147.2920 C   0  0  0  0  0  2  0  0  0  0  0  0
  185.6820  178.7120  145.8400 C   0  0  0  0  0  3  0  0  0  0  0  0
  184.6840  178.4080  146.9400 C   0  0  0  0  0  2  0  0  0  0  0  0
  187.9090  177.8220  140.8740 O   0  0  0  0  0  0  0  0  0  0  0  0
  188.8140  178.8120  141.2710 C   0  0  0  0  0  2  0  0  0  0  0  0
  190.1060  178.1710  141.7310 C   0  0  0  0  0  2  0  0  0  0  0  0
  189.9620  176.6670  141.6910 C   0  0  0  0  0  1  0  0  0  0  0  0
  2  5  1  0  0  0  0
  3 11  1  0  0  0  0
  5  7  1  0  0  0  0
  5 13  1  0  0  0  0
  6  2  1  0  0  0  0
  6  4  1  0  0  0  0
  7  3  1  0  0  0  0
  8 10  1  0  0  0  0
  9 18  1  0  0  0  0
 10 12  1  0  0  0  0
 10  6  1  0  0  0  0
 11 17  1  0  0  0  0
 11 16  1  0  0  0  0
 12  9  1  0  0  0  0
 12  2  1  0  0  0  0
 13 34  1  0  0  0  0
 13 17  1  0  0  0  0
 14  6  1  0  0  0  0
 14  1  1  0  0  0  0
 14  4  1  0  0  0  0
 15 20  1  0  0  0  0
 15  7  1  0  0  0  0
 17 26  1  0  0  0  0
 18 15  1  0  0  0  0
 19 25  2  0  0  0  0
 19 20  1  0  0  0  0
 20 21  2  0  0  0  0
 21 24  1  0  0  0  0
 23 24  2  0  0  0  0
 24 22  1  0  0  0  0
 25 23  1  0  0  0  0
 26 27  1  0  0  0  0
 27 29  1  0  0  0  0
 27 30  1  0  0  0  0
 29 28  1  0  0  0  0
 30 32  1  0  0  0  0
 32 33  1  0  0  0  0
 32 31  1  0  0  0  0
 33 31  1  0  0  0  0
 34 35  1  0  0  0  0
 35 36  1  0  0  0  0
 37 36  1  0  0  0  0
M  END
>  <MODEL>
1

>  <REMARK>
 VINA RESULT:      -6.7      0.000      0.000
  Name = 
  9 active torsions:
  status: ('A' for Active; 'I' for Inactive)
    1  A    between atoms: C_1  and  C_5
    2  A    between atoms: C_1  and  C_36
    3  A    between atoms: C_5  and  O_17
    4  A    between atoms: C_5  and  C_23
    5  A    between atoms: C_6  and  C_31
    6  A    between atoms: O_17  and  C_26
    7  A    between atoms: O_20  and  C_25
    8  A    between atoms: O_20  and  C_29
    9  A    between atoms: C_21  and  C_25
                            x       y       z     vdW  Elec       q    Type
                         _______ _______ _______ _____ _____    ______ ____

>  <TORSDO>
F 9

$$$$
=
 OpenBabel10262422483D

 37 42  0  0  1  0  0  0  0  0999 V2000
  188.0930  179.1650  137.3610 O   0  0  0  0  0  1  0  0  0  0  0  0
  185.6460  178.2100  137.8450 N   0  0  1  0  0  0  0  0  0  0  0  0
  183.3450  178.2750  140.7330 O   0  0  0  0  0  0  0  0  0  0  0  0
  187.9790  176.8380  137.8400 C   0  0  0  0  0  2  0  0  0  0  0  0
  185.1970  177.9560  139.2430 C   0  0  2  0  0  3  0  0  0  0  0  0
  186.6150  177.2440  137.3240 C   0  0  1  0  0  0  0  0  0  0  0  0
  183.9320  178.7860  139.5720 C   0  0  1  0  0  3  0  0  0  0  0  0
  186.0610  176.9170  134.8500 C   0  0  0  0  0  1  0  0  0  0  0  0
  183.5220  176.7980  137.3930 C   0  0  0  0  0  2  0  0  0  0  0  0
  185.7400  176.5780  136.3010 C   0  0  2  0  0  3  0  0  0  0  0  0
  184.1170  178.7730  141.7960 C   0  0  1  0  0  3  0  0  0  0  0  0
  184.7210  177.5860  136.8290 C   0  0  2  0  0  3  0  0  0  0  0  0
  186.1870  178.4060  140.3510 C   0  0  1  0  0  3  0  0  0  0  0  0
  187.8830  177.9140  136.7750 C   0  0  1  0  0  3  0  0  0  0  0  0
  182.9080  179.0010  138.4510 C   0  0  1  0  0  3  0  0  0  0  0  0
  183.4310  178.4150  143.1010 C   0  0  0  0  0  1  0  0  0  0  0  0
  185.5530  178.2070  141.7520 C   0  0  1  0  0  3  0  0  0  0  0  0
  182.3840  177.7140  137.8260 C   0  0  0  0  0  2  0  0  0  0  0  0
  180.9190  179.6450  139.8760 C   0  0  0  0  0  3  0  0  0  0  0  0
  181.8110  179.9440  138.8340 C   0  0  0  0  0  0  0  0  0  0  0  0
  181.6960  181.1620  138.1530 C   0  0  0  0  0  3  0  0  0  0  0  0
  180.5580  183.5920  137.6450 Cl  0  0  0  0  0  0  0  0  0  0  0  0
  179.8040  181.7690  139.5380 C   0  0  0  0  0  3  0  0  0  0  0  0
  180.6940  182.0700  138.5020 C   0  0  0  0  0  0  0  0  0  0  0  0
  179.9170  180.5550  140.2250 C   0  0  0  0  0  3  0  0  0  0  0  0
  186.4090  178.8900  142.8130 C   0  0  0  0  0  2  0  0  0  0  0  0
  186.9870  177.8490  143.7770 C   0  0  1  0  0  3  0  0  0  0  0  0
  189.0220  176.9010  144.9670 C   0  0  0  0  0  1  0  0  0  0  0  0
  188.4670  178.0400  144.1290 C   0  0  0  0  0  2  0  0  0  0  0  0
  186.1640  177.5310  144.8840 O   0  0  0  0  0  0  0  0  0  0  0  0
  186.2740  178.4550  147.0770 C   0  0  0  0  0  2  0  0  0  0  0  0
  185.9080  178.6950  145.6270 C   0  0  0  0  0  3  0  0  0  0  0  0
  184.8250  178.4000  146.6460 C   0  0  0  0  0  2  0  0  0  0  0  0
  187.3960  177.7110  140.3090 O   0  0  0  0  0  0  0  0  0  0  0  0
  188.3710  178.6800  140.5650 C   0  0  0  0  0  2  0  0  0  0  0  0
  189.7500  178.0760  140.4030 C   0  0  0  0  0  2  0  0  0  0  0  0
  189.8330  176.7960  141.2040 C   0  0  0  0  0  1  0  0  0  0  0  0
  2  5  1  0  0  0  0
  3 11  1  0  0  0  0
  5  7  1  0  0  0  0
  5 13  1  0  0  0  0
  6  4  1  0  0  0  0
  6  2  1  0  0  0  0
  7  3  1  0  0  0  0
  8 10  1  0  0  0  0
  9 18  1  0  0  0  0
 10 12  1  0  0  0  0
 10  6  1  0  0  0  0
 11 16  1  0  0  0  0
 12  9  1  0  0  0  0
 12  2  1  0  0  0  0
 13 17  1  0  0  0  0
 14  6  1  0  0  0  0
 14  1  1  0  0  0  0
 14  4  1  0  0  0  0
 15 20  1  0  0  0  0
 15  7  1  0  0  0  0
 17 11  1  0  0  0  0
 17 26  1  0  0  0  0
 18 15  1  0  0  0  0
 19 25  1  0  0  0  0
 20 19  2  0  0  0  0
 21 24  2  0  0  0  0
 21 20  1  0  0  0  0
 22 24  1  0  0  0  0
 23 25  2  0  0  0  0
 24 23  1  0  0  0  0
 26 27  1  0  0  0  0
 27 29  1  0  0  0  0
 27 30  1  0  0  0  0
 29 28  1  0  0  0  0
 30 32  1  0  0  0  0
 32 33  1  0  0  0  0
 32 31  1  0  0  0  0
 33 31  1  0  0  0  0
 34 13  1  0  0  0  0
 34 35  1  0  0  0  0
 36 35  1  0  0  0  0
 36 37  1  0  0  0  0
M  END
>  <MODEL>
2

>  <REMARK>
 VINA RESULT:      -6.5      1.165      1.416
  Name = 
  9 active torsions:
  status: ('A' for Active; 'I' for Inactive)
    1  A    between atoms: C_1  and  C_5
    2  A    between atoms: C_1  and  C_36
    3  A    between atoms: C_5  and  O_17
    4  A    between atoms: C_5  and  C_23
    5  A    between atoms: C_6  and  C_31
    6  A    between atoms: O_17  and  C_26
    7  A    between atoms: O_20  and  C_25
    8  A    between atoms: O_20  and  C_29
    9  A    between atoms: C_21  and  C_25
                            x       y       z     vdW  Elec       q    Type
                         _______ _______ _______ _____ _____    ______ ____

>  <TORSDO>
F 9

$$$$
=
 OpenBabel10262422483D

 37 42  0  0  1  0  0  0  0  0999 V2000
  185.5150  175.0850  136.3460 O   0  0  0  0  0  1  0  0  0  0  0  0
  186.9620  177.0310  137.4650 N   0  0  1  0  0  0  0  0  0  0  0  0
  186.7700  178.9380  140.6230 O   0  0  0  0  0  0  0  0  0  0  0  0
  185.1410  177.2680  135.4780 C   0  0  0  0  0  2  0  0  0  0  0  0
  186.3560  177.9330  138.4850 C   0  0  2  0  0  3  0  0  0  0  0  0
  186.5260  177.2740  136.0900 C   0  0  1  0  0  0  0  0  0  0  0  0
  187.1330  177.8510  139.8220 C   0  0  1  0  0  3  0  0  0  0  0  0
  188.5590  176.8620  134.5950 C   0  0  0  0  0  1  0  0  0  0  0  0
  188.7620  178.8920  137.5560 C   0  0  0  0  0  2  0  0  0  0  0  0
  187.8170  177.8060  135.5350 C   0  0  2  0  0  3  0  0  0  0  0  0
  185.5210  178.6030  141.1680 C   0  0  1  0  0  3  0  0  0  0  0  0
  188.2880  177.5500  136.9650 C   0  0  2  0  0  3  0  0  0  0  0  0
  184.9100  177.5690  138.9180 C   0  0  1  0  0  3  0  0  0  0  0  0
  185.9850  176.0080  135.4080 C   0  0  1  0  0  3  0  0  0  0  0  0
  188.6530  177.6630  139.7530 C   0  0  1  0  0  3  0  0  0  0  0  0
  185.1460  179.6520  142.1990 C   0  0  0  0  0  1  0  0  0  0  0  0
  184.4430  178.4980  140.0670 C   0  0  1  0  0  3  0  0  0  0  0  0
  189.3800  178.7260  138.9380 C   0  0  0  0  0  2  0  0  0  0  0  0
  190.6690  177.3860  141.2580 C   0  0  0  0  0  3  0  0  0  0  0  0
  189.2760  177.4400  141.0960 C   0  0  0  0  0  0  0  0  0  0  0  0
  188.4430  177.3100  142.2140 C   0  0  0  0  0  3  0  0  0  0  0  0
  187.9480  176.9590  144.8770 Cl  0  0  0  0  0  0  0  0  0  0  0  0
  190.3850  177.0630  143.6410 C   0  0  0  0  0  3  0  0  0  0  0  0
  188.9960  177.1190  143.4830 C   0  0  0  0  0  0  0  0  0  0  0  0
  191.2210  177.1960  142.5270 C   0  0  0  0  0  3  0  0  0  0  0  0
  183.1430  177.9740  140.6660 C   0  0  0  0  0  2  0  0  0  0  0  0
  181.9830  178.9140  140.3210 C   0  0  1  0  0  3  0  0  0  0  0  0
  181.6470  178.8180  142.8380 C   0  0  0  0  0  1  0  0  0  0  0  0
  181.1410  179.3730  141.5170 C   0  0  0  0  0  2  0  0  0  0  0  0
  182.2960  179.9440  139.4020 O   0  0  0  0  0  0  0  0  0  0  0  0
  181.1460  180.5090  137.3930 C   0  0  0  0  0  2  0  0  0  0  0  0
  181.1090  180.5080  138.9070 C   0  0  0  0  0  3  0  0  0  0  0  0
  181.4440  181.7800  138.1560 C   0  0  0  0  0  2  0  0  0  0  0  0
  183.9930  177.6640  137.8700 O   0  0  0  0  0  0  0  0  0  0  0  0
  183.1990  176.5190  137.9900 C   0  0  0  0  0  2  0  0  0  0  0  0
  181.8420  176.7680  137.3670 C   0  0  0  0  0  2  0  0  0  0  0  0
  180.7810  176.0510  138.1720 C   0  0  0  0  0  1  0  0  0  0  0  0
  2  5  1  0  0  0  0
  3 11  1  0  0  0  0
  4  6  1  0  0  0  0
  5 13  1  0  0  0  0
  5  7  1  0  0  0  0
  6  2  1  0  0  0  0
  7  3  1  0  0  0  0
  8 10  1  0  0  0  0
  9 18  1  0  0  0  0
 10  6  1  0  0  0  0
 10 12  1  0  0  0  0
 11 16  1  0  0  0  0
 12  2  1  0  0  0  0
 12  9  1  0  0  0  0
 13 17  1  0  0  0  0
 14  4  1  0  0  0  0
 14  6  1  0  0  0  0
 14  1  1  0  0  0  0
 15  7  1  0  0  0  0
 15 20  1  0  0  0  0
 17 26  1  0  0  0  0
 17 11  1  0  0  0  0
 18 15  1  0  0  0  0
 19 25  1  0  0  0  0
 20 19  2  0  0  0  0
 20 21  1  0  0  0  0
 21 24  2  0  0  0  0
 24 23  1  0  0  0  0
 24 22  1  0  0  0  0
 25 23  2  0  0  0  0
 27 26  1  0  0  0  0
 27 29  1  0  0  0  0
 29 28  1  0  0  0  0
 30 27  1  0  0  0  0
 31 33  1  0  0  0  0
 31 32  1  0  0  0  0
 32 30  1  0  0  0  0
 33 32  1  0  0  0  0
 34 35  1  0  0  0  0
 34 13  1  0  0  0  0
 36 35  1  0  0  0  0
 36 37  1  0  0  0  0
M  END
>  <MODEL>
3

>  <REMARK>
 VINA RESULT:      -6.0      2.693      6.816
  Name = 
  9 active torsions:
  status: ('A' for Active; 'I' for Inactive)
    1  A    between atoms: C_1  and  C_5
    2  A    between atoms: C_1  and  C_36
    3  A    between atoms: C_5  and  O_17
    4  A    between atoms: C_5  and  C_23
    5  A    between atoms: C_6  and  C_31
    6  A    between atoms: O_17  and  C_26
    7  A    between atoms: O_20  and  C_25
    8  A    between atoms: O_20  and  C_29
    9  A    between atoms: C_21  and  C_25
                            x       y       z     vdW  Elec       q    Type
                         _______ _______ _______ _____ _____    ______ ____

>  <TORSDO>
F 9

$$$$
=
 OpenBabel10262422483D

 37 42  0  0  1  0  0  0  0  0999 V2000
  186.0170  175.0870  135.9530 O   0  0  0  0  0  1  0  0  0  0  0  0
  187.4120  176.9470  137.2680 N   0  0  1  0  0  0  0  0  0  0  0  0
  186.9360  178.8260  140.4130 O   0  0  0  0  0  0  0  0  0  0  0  0
  185.8540  177.2950  135.0840 C   0  0  0  0  0  2  0  0  0  0  0  0
  186.7320  177.8670  138.2240 C   0  0  2  0  0  3  0  0  0  0  0  0
  187.1550  177.2260  135.8550 C   0  0  1  0  0  0  0  0  0  0  0  0
  187.3400  177.7310  139.6420 C   0  0  1  0  0  3  0  0  0  0  0  0
  189.3290  176.7310  134.6050 C   0  0  0  0  0  1  0  0  0  0  0  0
  189.2750  178.7160  137.6030 C   0  0  0  0  0  2  0  0  0  0  0  0
  188.5260  177.7000  135.4660 C   0  0  2  0  0  3  0  0  0  0  0  0
  185.6160  178.5470  140.8010 C   0  0  1  0  0  3  0  0  0  0  0  0
  188.8110  177.4050  136.9370 C   0  0  2  0  0  3  0  0  0  0  0  0
  185.2290  177.5700  138.4760 C   0  0  1  0  0  3  0  0  0  0  0  0
  186.6390  175.9970  135.0930 C   0  0  1  0  0  3  0  0  0  0  0  0
  188.8470  177.4700  139.7500 C   0  0  1  0  0  3  0  0  0  0  0  0
  185.1720  179.6010  141.7970 C   0  0  0  0  0  1  0  0  0  0  0  0
  184.6740  178.5080  139.5780 C   0  0  1  0  0  3  0  0  0  0  0  0
  189.7150  178.5040  139.0460 C   0  0  0  0  0  2  0  0  0  0  0  0
  190.6460  176.9880  141.4640 C   0  0  0  0  0  3  0  0  0  0  0  0
  189.2930  177.2010  141.1540 C   0  0  0  0  0  0  0  0  0  0  0  0
  188.3390  177.1910  142.1770 C   0  0  0  0  0  3  0  0  0  0  0  0
  187.5270  176.9510  144.7750 Cl  0  0  0  0  0  0  0  0  0  0  0  0
  190.0760  176.7460  143.8060 C   0  0  0  0  0  3  0  0  0  0  0  0
  188.7290  176.9610  143.4990 C   0  0  0  0  0  0  0  0  0  0  0  0
  191.0350  176.7590  142.7860 C   0  0  0  0  0  3  0  0  0  0  0  0
  183.2880  178.0410  140.0100 C   0  0  0  0  0  2  0  0  0  0  0  0
  182.2780  179.1850  139.8740 C   0  0  1  0  0  3  0  0  0  0  0  0
  181.4320  180.2980  137.7520 C   0  0  0  0  0  1  0  0  0  0  0  0
  182.5730  180.1840  138.7500 C   0  0  0  0  0  2  0  0  0  0  0  0
  180.9180  178.8010  139.9670 O   0  0  0  0  0  0  0  0  0  0  0  0
  179.9650  176.7030  140.5710 C   0  0  0  0  0  2  0  0  0  0  0  0
  180.7560  177.9070  141.0370 C   0  0  0  0  0  3  0  0  0  0  0  0
  179.2810  177.7920  141.3650 C   0  0  0  0  0  2  0  0  0  0  0  0
  184.4490  177.7210  137.3300 O   0  0  0  0  0  0  0  0  0  0  0  0
  183.5190  176.6790  137.3930 C   0  0  0  0  0  2  0  0  0  0  0  0
  182.4090  176.9190  136.3920 C   0  0  0  0  0  2  0  0  0  0  0  0
  181.0750  176.6370  137.0450 C   0  0  0  0  0  1  0  0  0  0  0  0
  2  5  1  0  0  0  0
  3 11  1  0  0  0  0
  4 14  1  0  0  0  0
  4  6  1  0  0  0  0
  5 13  1  0  0  0  0
  5  7  1  0  0  0  0
  6  2  1  0  0  0  0
  7 15  1  0  0  0  0
  7  3  1  0  0  0  0
  8 10  1  0  0  0  0
  9 18  1  0  0  0  0
 10  6  1  0  0  0  0
 10 12  1  0  0  0  0
 11 16  1  0  0  0  0
 12  2  1  0  0  0  0
 12  9  1  0  0  0  0
 13 17  1  0  0  0  0
 14  6  1  0  0  0  0
 14  1  1  0  0  0  0
 15 20  1  0  0  0  0
 17 26  1  0  0  0  0
 17 11  1  0  0  0  0
 18 15  1  0  0  0  0
 19 25  1  0  0  0  0
 20 19  2  0  0  0  0
 20 21  1  0  0  0  0
 21 24  2  0  0  0  0
 24 23  1  0  0  0  0
 24 22  1  0  0  0  0
 25 23  2  0  0  0  0
 27 30  1  0  0  0  0
 27 26  1  0  0  0  0
 28 29  1  0  0  0  0
 29 27  1  0  0  0  0
 30 32  1  0  0  0  0
 31 32  1  0  0  0  0
 31 33  1  0  0  0  0
 32 33  1  0  0  0  0
 34 35  1  0  0  0  0
 34 13  1  0  0  0  0
 36 37  1  0  0  0  0
 36 35  1  0  0  0  0
M  END
>  <MODEL>
4

>  <REMARK>
 VINA RESULT:      -6.0      2.744      6.823
  Name = 
  9 active torsions:
  status: ('A' for Active; 'I' for Inactive)
    1  A    between atoms: C_1  and  C_5
    2  A    between atoms: C_1  and  C_36
    3  A    between atoms: C_5  and  O_17
    4  A    between atoms: C_5  and  C_23
    5  A    between atoms: C_6  and  C_31
    6  A    between atoms: O_17  and  C_26
    7  A    between atoms: O_20  and  C_25
    8  A    between atoms: O_20  and  C_29
    9  A    between atoms: C_21  and  C_25
                            x       y       z     vdW  Elec       q    Type
                         _______ _______ _______ _____ _____    ______ ____

>  <TORSDO>
F 9

$$$$
=
 OpenBabel10262422483D

 37 42  0  0  1  0  0  0  0  0999 V2000
  187.6400  175.9590  143.5260 O   0  0  0  0  0  1  0  0  0  0  0  0
  186.5200  177.6750  141.8130 N   0  0  1  0  0  0  0  0  0  0  0  0
  187.2190  178.7250  138.3420 O   0  0  0  0  0  0  0  0  0  0  0  0
  188.1520  178.2530  143.8930 C   0  0  0  0  0  2  0  0  0  0  0  0
  187.3140  178.2490  140.6900 C   0  0  2  0  0  3  0  0  0  0  0  0
  186.8420  178.2150  143.1350 C   0  0  1  0  0  0  0  0  0  0  0  0
  186.6680  177.9000  139.3270 C   0  0  1  0  0  3  0  0  0  0  0  0
  184.6410  178.3430  144.4280 C   0  0  0  0  0  1  0  0  0  0  0  0
  184.9420  179.5900  141.0690 C   0  0  0  0  0  2  0  0  0  0  0  0
  185.5660  178.9650  143.3890 C   0  0  2  0  0  3  0  0  0  0  0  0
  188.4740  178.1710  138.0450 C   0  0  1  0  0  3  0  0  0  0  0  0
  185.2130  178.4020  142.0130 C   0  0  2  0  0  3  0  0  0  0  0  0
  188.7500  177.6790  140.5330 C   0  0  1  0  0  3  0  0  0  0  0  0
  187.1790  177.1180  144.1560 C   0  0  1  0  0  3  0  0  0  0  0  0
  185.1370  177.8530  139.2540 C   0  0  1  0  0  3  0  0  0  0  0  0
  189.0550  178.9010  136.8490 C   0  0  0  0  0  1  0  0  0  0  0  0
  189.4220  178.2570  139.2620 C   0  0  1  0  0  3  0  0  0  0  0  0
  184.4490  179.1370  139.7010 C   0  0  0  0  0  2  0  0  0  0  0  0
  185.3110  176.3590  137.2190 C   0  0  0  0  0  3  0  0  0  0  0  0
  184.6290  177.3550  137.9370 C   0  0  0  0  0  0  0  0  0  0  0  0
  183.4340  177.8780  137.4310 C   0  0  0  0  0  3  0  0  0  0  0  0
  181.4290  178.0780  135.5860 Cl  0  0  0  0  0  0  0  0  0  0  0  0
  183.6090  176.4290  135.4970 C   0  0  0  0  0  3  0  0  0  0  0  0
  182.9270  177.4180  136.2130 C   0  0  0  0  0  0  0  0  0  0  0  0
  184.8020  175.8990  136.0020 C   0  0  0  0  0  3  0  0  0  0  0  0
  190.7120  177.5030  138.9650 C   0  0  0  0  0  2  0  0  0  0  0  0
  190.4980  176.5190  137.8100 C   0  0  1  0  0  3  0  0  0  0  0  0
  193.0200  176.3350  137.5660 C   0  0  0  0  0  1  0  0  0  0  0  0
  191.6810  176.3780  136.8470 C   0  0  0  0  0  2  0  0  0  0  0  0
  189.8930  175.2910  138.1710 O   0  0  0  0  0  0  0  0  0  0  0  0
  188.5010  174.7170  136.3250 C   0  0  0  0  0  2  0  0  0  0  0  0
  189.8100  174.4600  137.0420 C   0  0  0  0  0  3  0  0  0  0  0  0
  188.6460  173.5050  137.2180 C   0  0  0  0  0  2  0  0  0  0  0  0
  189.5640  177.9580  141.6310 O   0  0  0  0  0  0  0  0  0  0  0  0
  190.3680  176.8220  141.7740 C   0  0  0  0  0  2  0  0  0  0  0  0
  191.5270  177.1260  142.6990 C   0  0  0  0  0  2  0  0  0  0  0  0
  191.3660  176.3370  143.9790 C   0  0  0  0  0  1  0  0  0  0  0  0
  1 14  1  0  0  0  0
  2 12  1  0  0  0  0
  2  6  1  0  0  0  0
  3  7  1  0  0  0  0
  4 14  1  0  0  0  0
  5  2  1  0  0  0  0
  6 10  1  0  0  0  0
  6  4  1  0  0  0  0
  6 14  1  0  0  0  0
  7  5  1  0  0  0  0
  9 12  1  0  0  0  0
 10  8  1  0  0  0  0
 11  3  1  0  0  0  0
 11 17  1  0  0  0  0
 12 10  1  0  0  0  0
 13  5  1  0  0  0  0
 13 34  1  0  0  0  0
 15  7  1  0  0  0  0
 15 18  1  0  0  0  0
 16 11  1  0  0  0  0
 17 13  1  0  0  0  0
 18  9  1  0  0  0  0
 19 20  1  0  0  0  0
 20 15  1  0  0  0  0
 21 20  2  0  0  0  0
 22 24  1  0  0  0  0
 23 25  1  0  0  0  0
 23 24  2  0  0  0  0
 24 21  1  0  0  0  0
 25 19  2  0  0  0  0
 26 17  1  0  0  0  0
 27 30  1  0  0  0  0
 27 26  1  0  0  0  0
 29 28  1  0  0  0  0
 29 27  1  0  0  0  0
 31 32  1  0  0  0  0
 31 33  1  0  0  0  0
 32 33  1  0  0  0  0
 32 30  1  0  0  0  0
 34 35  1  0  0  0  0
 35 36  1  0  0  0  0
 36 37  1  0  0  0  0
M  END
>  <MODEL>
5

>  <REMARK>
 VINA RESULT:      -5.7      2.479      6.351
  Name = 
  9 active torsions:
  status: ('A' for Active; 'I' for Inactive)
    1  A    between atoms: C_1  and  C_5
    2  A    between atoms: C_1  and  C_36
    3  A    between atoms: C_5  and  O_17
    4  A    between atoms: C_5  and  C_23
    5  A    between atoms: C_6  and  C_31
    6  A    between atoms: O_17  and  C_26
    7  A    between atoms: O_20  and  C_25
    8  A    between atoms: O_20  and  C_29
    9  A    between atoms: C_21  and  C_25
                            x       y       z     vdW  Elec       q    Type
                         _______ _______ _______ _____ _____    ______ ____

>  <TORSDO>
F 9

$$$$
=
 OpenBabel10262422483D

 37 42  0  0  1  0  0  0  0  0999 V2000
  187.8680  178.7520  136.4670 O   0  0  0  0  0  1  0  0  0  0  0  0
  185.5880  177.8330  137.5120 N   0  0  1  0  0  0  0  0  0  0  0  0
  183.8800  178.1940  140.7670 O   0  0  0  0  0  0  0  0  0  0  0  0
  187.9170  176.4900  137.2020 C   0  0  0  0  0  2  0  0  0  0  0  0
  185.4220  177.7300  138.9900 C   0  0  2  0  0  3  0  0  0  0  0  0
  186.4680  176.8240  136.9200 C   0  0  1  0  0  0  0  0  0  0  0  0
  184.2180  178.5800  139.4670 C   0  0  1  0  0  3  0  0  0  0  0  0
  185.4620  176.2230  134.6480 C   0  0  0  0  0  1  0  0  0  0  0  0
  183.4600  176.3610  137.6310 C   0  0  0  0  0  2  0  0  0  0  0  0
  185.4340  176.0420  136.1610 C   0  0  2  0  0  3  0  0  0  0  0  0
  184.8250  178.8120  141.6020 C   0  0  1  0  0  3  0  0  0  0  0  0
  184.5050  177.0930  136.7660 C   0  0  2  0  0  3  0  0  0  0  0  0
  186.5920  178.3070  139.8320 C   0  0  1  0  0  3  0  0  0  0  0  0
  187.5860  177.4420  136.0680 C   0  0  1  0  0  3  0  0  0  0  0  0
  182.9930  178.6600  138.5490 C   0  0  1  0  0  3  0  0  0  0  0  0
  184.4120  178.5930  143.0450 C   0  0  0  0  0  1  0  0  0  0  0  0
  186.2430  178.2580  141.3410 C   0  0  1  0  0  3  0  0  0  0  0  0
  182.3990  177.3080  138.1760 C   0  0  0  0  0  2  0  0  0  0  0  0
  181.7630  180.8670  138.4020 C   0  0  0  0  0  3  0  0  0  0  0  0
  181.9610  179.6300  139.0350 C   0  0  0  0  0  0  0  0  0  0  0  0
  181.1620  179.2760  140.1280 C   0  0  0  0  0  3  0  0  0  0  0  0
  179.1820  179.7020  141.9610 Cl  0  0  0  0  0  0  0  0  0  0  0  0
  179.9850  181.3870  139.9620 C   0  0  0  0  0  3  0  0  0  0  0  0
  180.1790  180.1530  140.5920 C   0  0  0  0  0  0  0  0  0  0  0  0
  180.7790  181.7440  138.8660 C   0  0  0  0  0  3  0  0  0  0  0  0
  187.2640  179.0610  142.1390 C   0  0  0  0  0  2  0  0  0  0  0  0
  187.9950  178.1510  143.1320 C   0  0  1  0  0  3  0  0  0  0  0  0
  186.7920  177.1290  145.1240 C   0  0  0  0  0  1  0  0  0  0  0  0
  187.1720  176.9710  143.6600 C   0  0  0  0  0  2  0  0  0  0  0  0
  189.3250  177.8200  142.7790 O   0  0  0  0  0  0  0  0  0  0  0  0
  191.4140  178.3200  143.8080 C   0  0  0  0  0  2  0  0  0  0  0  0
  190.0820  177.6130  143.9430 C   0  0  0  0  0  3  0  0  0  0  0  0
  191.3280  176.8270  143.5870 C   0  0  0  0  0  2  0  0  0  0  0  0
  187.7900  177.6230  139.6310 O   0  0  0  0  0  0  0  0  0  0  0  0
  188.7750  178.6160  139.6580 C   0  0  0  0  0  2  0  0  0  0  0  0
  190.0780  178.0630  139.1230 C   0  0  0  0  0  2  0  0  0  0  0  0
  190.5320  176.9150  139.9980 C   0  0  0  0  0  1  0  0  0  0  0  0
  2  5  1  0  0  0  0
  3 11  1  0  0  0  0
  5  7  1  0  0  0  0
  5 13  1  0  0  0  0
  6  4  1  0  0  0  0
  6  2  1  0  0  0  0
  7  3  1  0  0  0  0
  8 10  1  0  0  0  0
  9 18  1  0  0  0  0
 10 12  1  0  0  0  0
 10  6  1  0  0  0  0
 11 16  1  0  0  0  0
 12  2  1  0  0  0  0
 12  9  1  0  0  0  0
 13 17  1  0  0  0  0
 14  1  1  0  0  0  0
 14  6  1  0  0  0  0
 14  4  1  0  0  0  0
 15 20  1  0  0  0  0
 15  7  1  0  0  0  0
 17 11  1  0  0  0  0
 17 26  1  0  0  0  0
 18 15  1  0  0  0  0
 19 25  2  0  0  0  0
 19 20  1  0  0  0  0
 20 21  2  0  0  0  0
 21 24  1  0  0  0  0
 23 24  2  0  0  0  0
 24 22  1  0  0  0  0
 25 23  1  0  0  0  0
 26 27  1  0  0  0  0
 27 29  1  0  0  0  0
 29 28  1  0  0  0  0
 30 27  1  0  0  0  0
 30 32  1  0  0  0  0
 31 32  1  0  0  0  0
 33 31  1  0  0  0  0
 33 32  1  0  0  0  0
 34 35  1  0  0  0  0
 34 13  1  0  0  0  0
 36 35  1  0  0  0  0
 36 37  1  0  0  0  0
M  END
>  <MODEL>
6

>  <REMARK>
 VINA RESULT:      -5.6      1.524      2.324
  Name = 
  9 active torsions:
  status: ('A' for Active; 'I' for Inactive)
    1  A    between atoms: C_1  and  C_5
    2  A    between atoms: C_1  and  C_36
    3  A    between atoms: C_5  and  O_17
    4  A    between atoms: C_5  and  C_23
    5  A    between atoms: C_6  and  C_31
    6  A    between atoms: O_17  and  C_26
    7  A    between atoms: O_20  and  C_25
    8  A    between atoms: O_20  and  C_29
    9  A    between atoms: C_21  and  C_25
                            x       y       z     vdW  Elec       q    Type
                         _______ _______ _______ _____ _____    ______ ____

>  <TORSDO>
F 9

$$$$
=
 OpenBabel10262422483D

 37 42  0  0  1  0  0  0  0  0999 V2000
  186.6870  174.7700  135.7200 O   0  0  0  0  0  1  0  0  0  0  0  0
  187.4690  176.9290  137.0830 N   0  0  1  0  0  0  0  0  0  0  0  0
  186.0650  178.9020  139.8730 O   0  0  0  0  0  0  0  0  0  0  0  0
  186.3570  176.8510  134.6170 C   0  0  0  0  0  2  0  0  0  0  0  0
  186.4700  177.7770  137.7940 C   0  0  2  0  0  3  0  0  0  0  0  0
  187.4650  177.0640  135.6260 C   0  0  1  0  0  0  0  0  0  0  0  0
  186.7870  177.8460  139.3080 C   0  0  1  0  0  3  0  0  0  0  0  0
  189.9010  176.8760  134.8700 C   0  0  0  0  0  1  0  0  0  0  0  0
  188.9180  179.0160  137.5870 C   0  0  0  0  0  2  0  0  0  0  0  0
  188.7950  177.7440  135.4600 C   0  0  2  0  0  3  0  0  0  0  0  0
  184.7550  178.4220  140.0280 C   0  0  1  0  0  3  0  0  0  0  0  0
  188.8150  177.6030  136.9810 C   0  0  2  0  0  3  0  0  0  0  0  0
  185.0130  177.2380  137.7830 C   0  0  1  0  0  3  0  0  0  0  0  0
  187.3190  175.7140  134.9070 C   0  0  1  0  0  3  0  0  0  0  0  0
  188.2620  177.8610  139.7280 C   0  0  1  0  0  3  0  0  0  0  0  0
  183.9540  179.4460  140.8090 C   0  0  0  0  0  1  0  0  0  0  0  0
  184.1020  178.1360  138.6580 C   0  0  1  0  0  3  0  0  0  0  0  0
  189.0800  178.9820  139.1020 C   0  0  0  0  0  2  0  0  0  0  0  0
  187.3660  177.5190  142.0700 C   0  0  0  0  0  3  0  0  0  0  0  0
  188.4470  177.7690  141.2100 C   0  0  0  0  0  0  0  0  0  0  0  0
  189.7350  177.9100  141.7410 C   0  0  0  0  0  3  0  0  0  0  0  0
  191.5570  177.9860  143.7750 Cl  0  0  0  0  0  0  0  0  0  0  0  0
  188.8630  177.5650  143.9740 C   0  0  0  0  0  3  0  0  0  0  0  0
  189.9420  177.8100  143.1190 C   0  0  0  0  0  0  0  0  0  0  0  0
  187.5740  177.4190  143.4480 C   0  0  0  0  0  3  0  0  0  0  0  0
  182.7490  177.4630  138.8620 C   0  0  0  0  0  2  0  0  0  0  0  0
  181.6170  178.4270  138.4920 C   0  0  1  0  0  3  0  0  0  0  0  0
  180.6820  177.6640  140.7280 C   0  0  0  0  0  1  0  0  0  0  0  0
  180.3990  178.3870  139.4210 C   0  0  0  0  0  2  0  0  0  0  0  0
  182.0310  179.7320  138.1330 O   0  0  0  0  0  0  0  0  0  0  0  0
  180.5700  181.4130  137.2870 C   0  0  0  0  0  2  0  0  0  0  0  0
  181.0440  180.6570  138.5100 C   0  0  0  0  0  3  0  0  0  0  0  0
  181.5520  182.0590  138.2380 C   0  0  0  0  0  2  0  0  0  0  0  0
  184.4720  177.1730  136.4990 O   0  0  0  0  0  0  0  0  0  0  0  0
  183.6480  176.0430  136.5190 C   0  0  0  0  0  2  0  0  0  0  0  0
  182.8030  176.0020  135.2630 C   0  0  0  0  0  2  0  0  0  0  0  0
  181.9200  174.7740  135.2930 C   0  0  0  0  0  1  0  0  0  0  0  0
  2  5  1  0  0  0  0
  3 11  1  0  0  0  0
  4 14  1  0  0  0  0
  4  6  1  0  0  0  0
  5  7  1  0  0  0  0
  6  2  1  0  0  0  0
  7 15  1  0  0  0  0
  7  3  1  0  0  0  0
  8 10  1  0  0  0  0
  9 18  1  0  0  0  0
 10  6  1  0  0  0  0
 10 12  1  0  0  0  0
 11 16  1  0  0  0  0
 12  2  1  0  0  0  0
 12  9  1  0  0  0  0
 13  5  1  0  0  0  0
 13 17  1  0  0  0  0
 14  6  1  0  0  0  0
 14  1  1  0  0  0  0
 15 20  1  0  0  0  0
 17 26  1  0  0  0  0
 17 11  1  0  0  0  0
 18 15  1  0  0  0  0
 19 25  1  0  0  0  0
 20 21  1  0  0  0  0
 20 19  2  0  0  0  0
 21 24  2  0  0  0  0
 24 22  1  0  0  0  0
 24 23  1  0  0  0  0
 25 23  2  0  0  0  0
 27 26  1  0  0  0  0
 27 29  1  0  0  0  0
 29 28  1  0  0  0  0
 30 27  1  0  0  0  0
 30 32  1  0  0  0  0
 31 33  1  0  0  0  0
 31 32  1  0  0  0  0
 33 32  1  0  0  0  0
 34 35  1  0  0  0  0
 34 13  1  0  0  0  0
 36 37  1  0  0  0  0
 36 35  1  0  0  0  0
M  END
>  <MODEL>
7

>  <REMARK>
 VINA RESULT:      -5.5      2.978      7.104
  Name = 
  9 active torsions:
  status: ('A' for Active; 'I' for Inactive)
    1  A    between atoms: C_1  and  C_5
    2  A    between atoms: C_1  and  C_36
    3  A    between atoms: C_5  and  O_17
    4  A    between atoms: C_5  and  C_23
    5  A    between atoms: C_6  and  C_31
    6  A    between atoms: O_17  and  C_26
    7  A    between atoms: O_20  and  C_25
    8  A    between atoms: O_20  and  C_29
    9  A    between atoms: C_21  and  C_25
                            x       y       z     vdW  Elec       q    Type
                         _______ _______ _______ _____ _____    ______ ____

>  <TORSDO>
F 9

$$$$
=
 OpenBabel10262422483D

 37 42  0  0  1  0  0  0  0  0999 V2000
  188.3060  175.6820  143.2130 O   0  0  0  0  0  1  0  0  0  0  0  0
  186.6350  177.5100  142.2130 N   0  0  1  0  0  0  0  0  0  0  0  0
  186.0240  178.9270  138.8570 O   0  0  0  0  0  0  0  0  0  0  0  0
  188.9080  177.9480  143.6150 C   0  0  0  0  0  2  0  0  0  0  0  0
  186.9660  178.2260  140.9480 C   0  0  2  0  0  3  0  0  0  0  0  0
  187.4130  177.9300  143.3800 C   0  0  1  0  0  0  0  0  0  0  0  0
  185.8700  177.9870  139.8800 C   0  0  1  0  0  3  0  0  0  0  0  0
  185.8290  177.8360  145.3850 C   0  0  0  0  0  1  0  0  0  0  0  0
  184.8870  179.4210  142.2980 C   0  0  0  0  0  2  0  0  0  0  0  0
  186.3120  178.5960  144.1560 C   0  0  2  0  0  3  0  0  0  0  0  0
  187.0880  178.4580  138.0710 C   0  0  1  0  0  3  0  0  0  0  0  0
  185.4870  178.1580  142.9480 C   0  0  2  0  0  3  0  0  0  0  0  0
  188.2490  177.7350  140.2240 C   0  0  1  0  0  3  0  0  0  0  0  0
  188.1010  176.7530  144.0870 C   0  0  1  0  0  3  0  0  0  0  0  0
  184.4170  177.8820  140.3590 C   0  0  1  0  0  3  0  0  0  0  0  0
  187.1930  179.3280  136.8320 C   0  0  0  0  0  1  0  0  0  0  0  0
  188.4120  178.4640  138.8660 C   0  0  1  0  0  3  0  0  0  0  0  0
  183.9340  179.0850  141.1590 C   0  0  0  0  0  2  0  0  0  0  0  0
  182.6240  178.4390  138.6630 C   0  0  0  0  0  3  0  0  0  0  0  0
  183.4690  177.4960  139.2680 C   0  0  0  0  0  0  0  0  0  0  0  0
  183.4500  176.1670  138.8270 C   0  0  0  0  0  3  0  0  0  0  0  0
  182.5710  174.1160  137.2510 Cl  0  0  0  0  0  0  0  0  0  0  0  0
  181.7450  176.7220  137.1980 C   0  0  0  0  0  3  0  0  0  0  0  0
  182.5880  175.7810  137.7970 C   0  0  0  0  0  0  0  0  0  0  0  0
  181.7630  178.0530  137.6320 C   0  0  0  0  0  3  0  0  0  0  0  0
  189.5100  177.7980  138.0450 C   0  0  0  0  0  2  0  0  0  0  0  0
  188.8970  176.8250  137.0320 C   0  0  1  0  0  3  0  0  0  0  0  0
  189.3980  177.3720  134.6010 C   0  0  0  0  0  1  0  0  0  0  0  0
  189.7700  176.5260  135.8080 C   0  0  0  0  0  2  0  0  0  0  0  0
  188.2740  175.6850  137.5930 O   0  0  0  0  0  0  0  0  0  0  0  0
  186.1930  175.4790  136.4530 C   0  0  0  0  0  2  0  0  0  0  0  0
  187.6120  174.9680  136.5840 C   0  0  0  0  0  3  0  0  0  0  0  0
  186.4640  174.1940  137.2020 C   0  0  0  0  0  2  0  0  0  0  0  0
  189.4050  177.9380  140.9780 O   0  0  0  0  0  0  0  0  0  0  0  0
  190.2580  176.8940  140.6070 C   0  0  0  0  0  2  0  0  0  0  0  0
  191.6280  177.1090  141.2140 C   0  0  0  0  0  2  0  0  0  0  0  0
  192.6030  177.5020  140.1270 C   0  0  0  0  0  1  0  0  0  0  0  0
  1 14  1  0  0  0  0
  2 12  1  0  0  0  0
  2  6  1  0  0  0  0
  3  7  1  0  0  0  0
  4 14  1  0  0  0  0
  5  2  1  0  0  0  0
  6  4  1  0  0  0  0
  6 14  1  0  0  0  0
  6 10  1  0  0  0  0
  7 15  1  0  0  0  0
  7  5  1  0  0  0  0
  9 12  1  0  0  0  0
 10  8  1  0  0  0  0
 11  3  1  0  0  0  0
 11 17  1  0  0  0  0
 12 10  1  0  0  0  0
 13  5  1  0  0  0  0
 13 34  1  0  0  0  0
 15 18  1  0  0  0  0
 16 11  1  0  0  0  0
 17 13  1  0  0  0  0
 18  9  1  0  0  0  0
 19 20  1  0  0  0  0
 20 15  1  0  0  0  0
 21 20  2  0  0  0  0
 22 24  1  0  0  0  0
 23 25  1  0  0  0  0
 23 24  2  0  0  0  0
 24 21  1  0  0  0  0
 25 19  2  0  0  0  0
 26 17  1  0  0  0  0
 27 30  1  0  0  0  0
 27 26  1  0  0  0  0
 28 29  1  0  0  0  0
 29 27  1  0  0  0  0
 31 32  1  0  0  0  0
 31 33  1  0  0  0  0
 32 33  1  0  0  0  0
 32 30  1  0  0  0  0
 35 34  1  0  0  0  0
 35 36  1  0  0  0  0
 37 36  1  0  0  0  0
M  END
>  <MODEL>
8

>  <REMARK>
 VINA RESULT:      -5.4      2.402      6.221
  Name = 
  9 active torsions:
  status: ('A' for Active; 'I' for Inactive)
    1  A    between atoms: C_1  and  C_5
    2  A    between atoms: C_1  and  C_36
    3  A    between atoms: C_5  and  O_17
    4  A    between atoms: C_5  and  C_23
    5  A    between atoms: C_6  and  C_31
    6  A    between atoms: O_17  and  C_26
    7  A    between atoms: O_20  and  C_25
    8  A    between atoms: O_20  and  C_29
    9  A    between atoms: C_21  and  C_25
                            x       y       z     vdW  Elec       q    Type
                         _______ _______ _______ _____ _____    ______ ____

>  <TORSDO>
F 9

$$$$
=
 OpenBabel10262422483D

 37 42  0  0  1  0  0  0  0  0999 V2000
  188.4860  176.9840  140.4430 O   0  0  0  0  0  1  0  0  0  0  0  0
  187.9220  176.3770  137.9040 N   0  0  1  0  0  0  0  0  0  0  0  0
  189.4420  174.1890  135.3460 O   0  0  0  0  0  0  0  0  0  0  0  0
  189.1160  178.6190  138.8350 C   0  0  0  0  0  2  0  0  0  0  0  0
  188.9880  175.8720  136.9920 C   0  0  2  0  0  3  0  0  0  0  0  0
  188.0020  177.8050  138.2140 C   0  0  1  0  0  0  0  0  0  0  0  0
  188.6190  174.4730  136.4390 C   0  0  1  0  0  3  0  0  0  0  0  0
  185.5960  178.6570  138.3600 C   0  0  0  0  0  1  0  0  0  0  0  0
  186.7230  176.6190  135.6200 C   0  0  0  0  0  2  0  0  0  0  0  0
  186.7750  178.2640  137.4780 C   0  0  2  0  0  3  0  0  0  0  0  0
  190.6750  173.8000  135.8930 C   0  0  1  0  0  3  0  0  0  0  0  0
  186.6750  176.7750  137.1530 C   0  0  2  0  0  3  0  0  0  0  0  0
  190.3650  175.6130  137.6610 C   0  0  1  0  0  3  0  0  0  0  0  0
  188.0100  178.0840  139.7240 C   0  0  1  0  0  3  0  0  0  0  0  0
  187.1410  174.1900  136.1430 C   0  0  1  0  0  3  0  0  0  0  0  0
  191.5640  173.2940  134.7720 C   0  0  0  0  0  1  0  0  0  0  0  0
  191.3440  174.9730  136.6440 C   0  0  1  0  0  3  0  0  0  0  0  0
  186.4950  175.1780  135.1810 C   0  0  0  0  0  2  0  0  0  0  0  0
  187.9070  171.8040  135.7930 C   0  0  0  0  0  3  0  0  0  0  0  0
  186.8840  172.7650  135.7650 C   0  0  0  0  0  0  0  0  0  0  0  0
  185.5860  172.3840  135.4050 C   0  0  0  0  0  3  0  0  0  0  0  0
  183.6850  170.5870  134.6160 Cl  0  0  0  0  0  0  0  0  0  0  0  0
  186.3340  170.1010  135.0910 C   0  0  0  0  0  3  0  0  0  0  0  0
  185.3130  171.0560  135.0660 C   0  0  0  0  0  0  0  0  0  0  0  0
  187.6330  170.4760  135.4550 C   0  0  0  0  0  3  0  0  0  0  0  0
  192.5930  174.4780  137.3640 C   0  0  0  0  0  2  0  0  0  0  0  0
  193.8470  175.0870  136.7280 C   0  0  1  0  0  3  0  0  0  0  0  0
  194.8560  176.8660  135.2210 C   0  0  0  0  0  1  0  0  0  0  0  0
  193.5840  176.1750  135.6830 C   0  0  0  0  0  2  0  0  0  0  0  0
  194.8920  175.3920  137.6330 O   0  0  0  0  0  0  0  0  0  0  0  0
  196.1220  174.4990  139.4680 C   0  0  0  0  0  2  0  0  0  0  0  0
  195.4180  174.2020  138.1610 C   0  0  0  0  0  3  0  0  0  0  0  0
  196.9300  174.3070  138.2040 C   0  0  0  0  0  2  0  0  0  0  0  0
  190.9470  176.7760  138.1650 O   0  0  0  0  0  0  0  0  0  0  0  0
  191.6020  176.3680  139.3310 C   0  0  0  0  0  2  0  0  0  0  0  0
  192.1640  177.5740  140.0540 C   0  0  0  0  0  2  0  0  0  0  0  0
  191.7880  177.5020  141.5170 C   0  0  0  0  0  1  0  0  0  0  0  0
  2  6  1  0  0  0  0
  3 11  1  0  0  0  0
  3  7  1  0  0  0  0
  4 14  1  0  0  0  0
  5 13  1  0  0  0  0
  5  2  1  0  0  0  0
  6  4  1  0  0  0  0
  6 14  1  0  0  0  0
  7  5  1  0  0  0  0
  9 12  1  0  0  0  0
 10  6  1  0  0  0  0
 10  8  1  0  0  0  0
 11 17  1  0  0  0  0
 12 10  1  0  0  0  0
 12  2  1  0  0  0  0
 13 34  1  0  0  0  0
 14  1  1  0  0  0  0
 15  7  1  0  0  0  0
 16 11  1  0  0  0  0
 17 26  1  0  0  0  0
 17 13  1  0  0  0  0
 18  9  1  0  0  0  0
 18 15  1  0  0  0  0
 20 19  1  0  0  0  0
 20 15  1  0  0  0  0
 21 20  2  0  0  0  0
 22 24  1  0  0  0  0
 23 25  1  0  0  0  0
 24 23  2  0  0  0  0
 24 21  1  0  0  0  0
 25 19  2  0  0  0  0
 27 26  1  0  0  0  0
 27 30  1  0  0  0  0
 28 29  1  0  0  0  0
 29 27  1  0  0  0  0
 30 32  1  0  0  0  0
 32 33  1  0  0  0  0
 32 31  1  0  0  0  0
 33 31  1  0  0  0  0
 34 35  1  0  0  0  0
 35 36  1  0  0  0  0
 36 37  1  0  0  0  0
M  END
>  <MODEL>
9

>  <REMARK>
 VINA RESULT:      -5.3      4.852      8.730
  Name = 
  9 active torsions:
  status: ('A' for Active; 'I' for Inactive)
    1  A    between atoms: C_1  and  C_5
    2  A    between atoms: C_1  and  C_36
    3  A    between atoms: C_5  and  O_17
    4  A    between atoms: C_5  and  C_23
    5  A    between atoms: C_6  and  C_31
    6  A    between atoms: O_17  and  C_26
    7  A    between atoms: O_20  and  C_25
    8  A    between atoms: O_20  and  C_29
    9  A    between atoms: C_21  and  C_25
                            x       y       z     vdW  Elec       q    Type
                         _______ _______ _______ _____ _____    ______ ____

>  <TORSDO>
F 9

$$$$
