=
 OpenBabel10262422013D

 30 32  0  0  1  0  0  0  0  0999 V2000
  188.6100  177.1630  136.9630 C   0  0  1  0  0  3  0  0  0  0  0  0
  189.3540  176.3380  135.9510 C   0  0  0  0  0  0  0  0  0  0  0  0
  193.4040  174.1910  135.9950 O   0  0  0  0  0  0  0  0  0  0  0  0
  189.2580  174.8390  135.9740 C   0  0  1  0  0  3  0  0  0  0  0  0
  191.4780  176.4760  138.9270 C   0  0  0  0  0  2  0  0  0  0  0  0
  190.0640  176.8790  135.1160 O   0  0  0  0  0  0  0  0  0  0  0  0
  189.8630  174.2520  137.2530 C   0  0  0  0  0  2  0  0  0  0  0  0
  191.8850  175.7680  137.6640 C   0  0  0  0  0  0  0  0  0  0  0  0
  193.3710  175.5710  135.7230 C   0  0  0  0  0  2  0  0  0  0  0  0
  189.5690  177.7930  137.9580 C   0  0  0  0  0  2  0  0  0  0  0  0
  189.9820  176.7520  138.9880 C   0  0  2  0  0  3  0  0  0  0  0  0
  192.8650  176.3110  136.9300 C   0  0  0  0  0  3  0  0  0  0  0  0
  192.0610  173.7800  136.0830 C   0  0  0  0  0  2  0  0  0  0  0  0
  191.3920  174.3610  137.3430 C   0  0  2  0  0  3  0  0  0  0  0  0
  187.7660  178.2340  136.2940 C   0  0  0  0  0  2  0  0  0  0  0  0
  187.0090  178.9260  137.2710 O   0  0  0  0  0  0  0  0  0  0  0  0
  185.9440  178.2990  137.9020 C   0  0  0  0  0  3  0  0  0  0  0  0
  185.2960  178.9070  138.7920 O   0  0  0  0  0  0  0  0  0  0  0  0
  187.8990  174.4330  135.8710 O   0  0  0  0  0  0  0  0  0  0  0  0
  187.8620  172.2150  135.2870 O   0  0  0  0  0  0  0  0  0  0  0  0
  186.6540  172.7750  137.1870 N   0  0  0  0  0  1  0  0  0  0  0  0
  187.4890  173.1150  136.0840 C   0  0  0  0  0  0  0  0  0  0  0  0
  189.5950  177.2180  140.3770 C   0  0  0  0  0  2  0  0  0  0  0  0
  191.0620  177.2410  141.4520 S   0  0  0  0  0  0  0  0  0  0  0  0
  190.2700  176.2170  142.7280 C   0  0  0  0  0  2  0  0  0  0  0  0
  189.4160  177.0840  143.6320 C   0  0  1  0  0  3  0  0  0  0  0  0
  189.9590  177.0230  144.9970 N   0  0  0  0  0  0  0  0  0  0  0  0
  190.2040  178.1970  144.1460 C   0  0  0  0  0  2  0  0  0  0  0  0
  189.1820  176.8740  147.2850 C   0  0  0  0  0  1  0  0  0  0  0  0
  188.8740  177.3790  145.8920 C   0  0  0  0  0  2  0  0  0  0  0  0
  1 15  1  6  0  0  0
  1 10  1  0  0  0  0
  2  4  1  0  0  0  0
  2  1  1  0  0  0  0
  3 13  1  0  0  0  0
  4 19  1  1  0  0  0
  4  7  1  0  0  0  0
  5 11  1  0  0  0  0
  6  2  2  0  0  0  0
  7 14  1  0  0  0  0
  8  5  1  0  0  0  0
  9  3  1  0  0  0  0
  9 12  1  0  0  0  0
 10 11  1  0  0  0  0
 11 23  1  1  0  0  0
 12  8  2  0  0  0  0
 14 13  1  6  0  0  0
 14  8  1  0  0  0  0
 15 16  1  0  0  0  0
 16 17  1  0  0  0  0
 17 18  2  0  0  0  0
 19 22  1  0  0  0  0
 20 22  2  0  0  0  0
 22 21  1  0  0  0  0
 23 24  1  0  0  0  0
 24 25  1  0  0  0  0
 26 25  1  6  0  0  0
 26 28  1  0  0  0  0
 26 27  1  0  0  0  0
 27 30  1  0  0  0  0
 28 27  1  0  0  0  0
 30 29  1  0  0  0  0
M  END
>  <MODEL>
1

>  <REMARK>
 VINA RESULT:      -5.8      0.000      0.000
  Name = 
  10 active torsions:
  status: ('A' for Active; 'I' for Inactive)
    1  A    between atoms: C_1  and  C_4
    2  A    between atoms: C_1  and  O_22
    3  A    between atoms: C_2  and  O_22
    4  A    between atoms: C_3  and  S_11
    5  A    between atoms: C_3  and  C_19
    6  A    between atoms: O_6  and  C_8
    7  A    between atoms: O_6  and  C_21
    8  A    between atoms: S_11  and  C_24
    9  A    between atoms: C_20  and  N_28
   10  A    between atoms: C_24  and  C_25
                            x       y       z     vdW  Elec       q    Type
                         _______ _______ _______ _____ _____    ______ ____

>  <TORSDO>
F 10

$$$$
=
 OpenBabel10262422013D

 30 32  0  0  1  0  0  0  0  0999 V2000
  184.7170  177.9530  138.5020 C   0  0  1  0  0  3  0  0  0  0  0  0
  184.1480  179.0270  139.3860 C   0  0  0  0  0  0  0  0  0  0  0  0
  180.0340  181.0290  139.6670 O   0  0  0  0  0  0  0  0  0  0  0  0
  183.3660  178.6620  140.6160 C   0  0  1  0  0  3  0  0  0  0  0  0
  181.4600  178.0390  137.1080 C   0  0  0  0  0  2  0  0  0  0  0  0
  184.2950  180.2050  139.0980 O   0  0  0  0  0  0  0  0  0  0  0  0
  182.0690  177.9260  140.2660 C   0  0  0  0  0  2  0  0  0  0  0  0
  181.3020  179.1240  138.1370 C   0  0  0  0  0  0  0  0  0  0  0  0
  180.9450  181.4850  138.6970 C   0  0  0  0  0  2  0  0  0  0  0  0
  183.9680  177.8860  137.1820 C   0  0  0  0  0  2  0  0  0  0  0  0
  182.6580  177.1400  137.3840 C   0  0  2  0  0  3  0  0  0  0  0  0
  181.2150  180.3890  137.7040 C   0  0  0  0  0  3  0  0  0  0  0  0
  180.7260  180.0690  140.4290 C   0  0  0  0  0  2  0  0  0  0  0  0
  181.0010  178.8020  139.5960 C   0  0  2  0  0  3  0  0  0  0  0  0
  186.2010  178.1660  138.2560 C   0  0  0  0  0  2  0  0  0  0  0  0
  186.8580  178.4270  139.4840 O   0  0  0  0  0  0  0  0  0  0  0  0
  188.2350  178.2890  139.5810 C   0  0  0  0  0  3  0  0  0  0  0  0
  188.9900  179.0370  138.9090 O   0  0  0  0  0  0  0  0  0  0  0  0
  184.1520  177.8400  141.4710 O   0  0  0  0  0  0  0  0  0  0  0  0
  185.9620  178.4950  142.7200 O   0  0  0  0  0  0  0  0  0  0  0  0
  183.9090  178.5900  143.7970 N   0  0  0  0  0  1  0  0  0  0  0  0
  184.7180  178.3130  142.6570 C   0  0  0  0  0  0  0  0  0  0  0  0
  182.6140  175.9210  136.4830 C   0  0  0  0  0  2  0  0  0  0  0  0
  181.9560  174.4970  137.4030 S   0  0  0  0  0  0  0  0  0  0  0  0
  182.3120  173.3310  136.0540 C   0  0  0  0  0  2  0  0  0  0  0  0
  183.7620  172.8950  136.1160 C   0  0  1  0  0  3  0  0  0  0  0  0
  184.1890  172.8670  137.5220 N   0  0  0  0  0  0  0  0  0  0  0  0
  183.8700  171.6190  136.8120 C   0  0  0  0  0  2  0  0  0  0  0  0
  186.0220  174.4060  137.1600 C   0  0  0  0  0  1  0  0  0  0  0  0
  185.6350  172.9880  137.5200 C   0  0  0  0  0  2  0  0  0  0  0  0
  1 15  1  6  0  0  0
  1  2  1  0  0  0  0
  2  4  1  0  0  0  0
  3 13  1  0  0  0  0
  4 19  1  1  0  0  0
  5 11  1  0  0  0  0
  5  8  1  0  0  0  0
  6  2  2  0  0  0  0
  7  4  1  0  0  0  0
  8 14  1  0  0  0  0
  9  3  1  0  0  0  0
 10 11  1  0  0  0  0
 10  1  1  0  0  0  0
 11 23  1  6  0  0  0
 12  8  2  0  0  0  0
 12  9  1  0  0  0  0
 14  7  1  1  0  0  0
 14 13  1  0  0  0  0
 15 16  1  0  0  0  0
 16 17  1  0  0  0  0
 18 17  2  0  0  0  0
 19 22  1  0  0  0  0
 22 20  2  0  0  0  0
 22 21  1  0  0  0  0
 23 24  1  0  0  0  0
 25 24  1  0  0  0  0
 26 25  1  1  0  0  0
 26 28  1  0  0  0  0
 26 27  1  0  0  0  0
 28 27  1  0  0  0  0
 29 30  1  0  0  0  0
 30 27  1  0  0  0  0
M  END
>  <MODEL>
2

>  <REMARK>
 VINA RESULT:      -5.7      4.890      9.513
  Name = 
  10 active torsions:
  status: ('A' for Active; 'I' for Inactive)
    1  A    between atoms: C_1  and  C_4
    2  A    between atoms: C_1  and  O_22
    3  A    between atoms: C_2  and  O_22
    4  A    between atoms: C_3  and  S_11
    5  A    between atoms: C_3  and  C_19
    6  A    between atoms: O_6  and  C_8
    7  A    between atoms: O_6  and  C_21
    8  A    between atoms: S_11  and  C_24
    9  A    between atoms: C_20  and  N_28
   10  A    between atoms: C_24  and  C_25
                            x       y       z     vdW  Elec       q    Type
                         _______ _______ _______ _____ _____    ______ ____

>  <TORSDO>
F 10

$$$$
=
 OpenBabel10262422013D

 30 32  0  0  1  0  0  0  0  0999 V2000
  184.7610  177.9580  138.5800 C   0  0  1  0  0  3  0  0  0  0  0  0
  184.1660  179.0400  139.4360 C   0  0  0  0  0  0  0  0  0  0  0  0
  179.9740  180.8710  139.7440 O   0  0  0  0  0  0  0  0  0  0  0  0
  183.4310  178.6910  140.6990 C   0  0  1  0  0  3  0  0  0  0  0  0
  181.4710  177.8450  137.2680 C   0  0  0  0  0  2  0  0  0  0  0  0
  184.2530  180.2110  139.0990 O   0  0  0  0  0  0  0  0  0  0  0  0
  182.1590  177.8860  140.4110 C   0  0  0  0  0  2  0  0  0  0  0  0
  181.2890  178.9630  138.2570 C   0  0  0  0  0  0  0  0  0  0  0  0
  180.8410  181.3270  138.7330 C   0  0  0  0  0  2  0  0  0  0  0  0
  183.9840  177.8050  137.2840 C   0  0  0  0  0  2  0  0  0  0  0  0
  182.7130  177.0110  137.5480 C   0  0  2  0  0  3  0  0  0  0  0  0
  181.1360  180.2040  137.7780 C   0  0  0  0  0  3  0  0  0  0  0  0
  180.7270  179.9740  140.5250 C   0  0  0  0  0  2  0  0  0  0  0  0
  181.0370  178.6870  139.7360 C   0  0  2  0  0  3  0  0  0  0  0  0
  186.2270  178.2240  138.2880 C   0  0  0  0  0  2  0  0  0  0  0  0
  186.9220  178.4580  139.5000 O   0  0  0  0  0  0  0  0  0  0  0  0
  188.3030  178.3230  139.5500 C   0  0  0  0  0  3  0  0  0  0  0  0
  189.0310  179.0660  138.8420 O   0  0  0  0  0  0  0  0  0  0  0  0
  184.2730  177.9400  141.5650 O   0  0  0  0  0  0  0  0  0  0  0  0
  185.6760  178.1620  143.3660 O   0  0  0  0  0  0  0  0  0  0  0  0
  183.4940  178.8760  143.6970 N   0  0  0  0  0  1  0  0  0  0  0  0
  184.5230  178.3180  142.8860 C   0  0  0  0  0  0  0  0  0  0  0  0
  182.7020  175.7560  136.6970 C   0  0  0  0  0  2  0  0  0  0  0  0
  183.8860  175.9300  135.3270 S   0  0  0  0  0  0  0  0  0  0  0  0
  184.9160  174.5490  135.9080 C   0  0  0  0  0  2  0  0  0  0  0  0
  184.1180  173.6670  136.8460 C   0  0  1  0  0  3  0  0  0  0  0  0
  184.4450  172.2610  136.5690 N   0  0  0  0  0  0  0  0  0  0  0  0
  185.0160  172.9450  137.7380 C   0  0  0  0  0  2  0  0  0  0  0  0
  182.3740  171.1930  135.9130 C   0  0  0  0  0  1  0  0  0  0  0  0
  183.3290  171.4700  137.0540 C   0  0  0  0  0  2  0  0  0  0  0  0
  1 15  1  6  0  0  0
  1  2  1  0  0  0  0
  2  4  1  0  0  0  0
  3 13  1  0  0  0  0
  4 19  1  1  0  0  0
  5 11  1  0  0  0  0
  5  8  1  0  0  0  0
  6  2  2  0  0  0  0
  7  4  1  0  0  0  0
  8 14  1  0  0  0  0
  9  3  1  0  0  0  0
 10 11  1  0  0  0  0
 10  1  1  0  0  0  0
 11 23  1  6  0  0  0
 12  8  2  0  0  0  0
 12  9  1  0  0  0  0
 14  7  1  1  0  0  0
 14 13  1  0  0  0  0
 15 16  1  0  0  0  0
 16 17  1  0  0  0  0
 18 17  2  0  0  0  0
 19 22  1  0  0  0  0
 22 20  2  0  0  0  0
 22 21  1  0  0  0  0
 24 25  1  0  0  0  0
 24 23  1  0  0  0  0
 26 25  1  6  0  0  0
 26 28  1  0  0  0  0
 27 26  1  0  0  0  0
 27 30  1  0  0  0  0
 27 28  1  0  0  0  0
 29 30  1  0  0  0  0
M  END
>  <MODEL>
3

>  <REMARK>
 VINA RESULT:      -5.5      4.953      9.593
  Name = 
  10 active torsions:
  status: ('A' for Active; 'I' for Inactive)
    1  A    between atoms: C_1  and  C_4
    2  A    between atoms: C_1  and  O_22
    3  A    between atoms: C_2  and  O_22
    4  A    between atoms: C_3  and  S_11
    5  A    between atoms: C_3  and  C_19
    6  A    between atoms: O_6  and  C_8
    7  A    between atoms: O_6  and  C_21
    8  A    between atoms: S_11  and  C_24
    9  A    between atoms: C_20  and  N_28
   10  A    between atoms: C_24  and  C_25
                            x       y       z     vdW  Elec       q    Type
                         _______ _______ _______ _____ _____    ______ ____

>  <TORSDO>
F 10

$$$$
=
 OpenBabel10262422013D

 30 32  0  0  1  0  0  0  0  0999 V2000
  185.0110  178.0190  138.7460 C   0  0  1  0  0  3  0  0  0  0  0  0
  184.3020  179.0690  139.5540 C   0  0  0  0  0  0  0  0  0  0  0  0
  180.0880  180.8650  139.3900 O   0  0  0  0  0  0  0  0  0  0  0  0
  183.4180  178.6750  140.7030 C   0  0  1  0  0  3  0  0  0  0  0  0
  181.9120  177.9310  137.0280 C   0  0  0  0  0  2  0  0  0  0  0  0
  184.4200  180.2510  139.2680 O   0  0  0  0  0  0  0  0  0  0  0  0
  182.2000  177.8730  140.2320 C   0  0  0  0  0  2  0  0  0  0  0  0
  181.5970  179.0150  138.0210 C   0  0  0  0  0  0  0  0  0  0  0  0
  181.0700  181.3590  138.5120 C   0  0  0  0  0  2  0  0  0  0  0  0
  184.4040  177.9040  137.3580 C   0  0  0  0  0  2  0  0  0  0  0  0
  183.1180  177.0950  137.4350 C   0  0  2  0  0  3  0  0  0  0  0  0
  181.4930  180.2700  137.5660 C   0  0  0  0  0  3  0  0  0  0  0  0
  180.7450  179.9470  140.2310 C   0  0  0  0  0  2  0  0  0  0  0  0
  181.1650  178.6900  139.4470 C   0  0  2  0  0  3  0  0  0  0  0  0
  186.4990  178.3030  138.6490 C   0  0  0  0  0  2  0  0  0  0  0  0
  186.8070  178.8100  137.3620 O   0  0  0  0  0  0  0  0  0  0  0  0
  188.1170  178.8000  136.9040 C   0  0  0  0  0  3  0  0  0  0  0  0
  188.9510  179.6180  137.3690 O   0  0  0  0  0  0  0  0  0  0  0  0
  184.1520  177.9000  141.6430 O   0  0  0  0  0  0  0  0  0  0  0  0
  184.6990  179.2630  143.4050 O   0  0  0  0  0  0  0  0  0  0  0  0
  186.4710  178.1450  142.4110 N   0  0  0  0  0  1  0  0  0  0  0  0
  185.0860  178.4620  142.5160 C   0  0  0  0  0  0  0  0  0  0  0  0
  183.2250  175.8690  136.5490 C   0  0  0  0  0  2  0  0  0  0  0  0
  183.1100  174.3640  137.5630 S   0  0  0  0  0  0  0  0  0  0  0  0
  181.7280  173.6920  136.5910 C   0  0  0  0  0  2  0  0  0  0  0  0
  180.4910  173.5790  137.4600 C   0  0  1  0  0  3  0  0  0  0  0  0
  179.9670  174.9290  137.7150 N   0  0  0  0  0  0  0  0  0  0  0  0
  179.3220  174.0500  136.7280 C   0  0  0  0  0  2  0  0  0  0  0  0
  180.0890  174.8700  140.1320 C   0  0  0  0  0  1  0  0  0  0  0  0
  179.1730  174.8440  138.9270 C   0  0  0  0  0  2  0  0  0  0  0  0
  1 15  1  6  0  0  0
  1  2  1  0  0  0  0
  2  4  1  0  0  0  0
  3 13  1  0  0  0  0
  4 19  1  1  0  0  0
  5 11  1  0  0  0  0
  5  8  1  0  0  0  0
  6  2  2  0  0  0  0
  7  4  1  0  0  0  0
  8 14  1  0  0  0  0
  9  3  1  0  0  0  0
 10 11  1  0  0  0  0
 10  1  1  0  0  0  0
 11 23  1  6  0  0  0
 12  8  2  0  0  0  0
 12  9  1  0  0  0  0
 14 13  1  1  0  0  0
 14  7  1  0  0  0  0
 16 15  1  0  0  0  0
 17 16  1  0  0  0  0
 17 18  2  0  0  0  0
 19 22  1  0  0  0  0
 21 22  1  0  0  0  0
 22 20  2  0  0  0  0
 23 24  1  0  0  0  0
 25 24  1  0  0  0  0
 26 25  1  6  0  0  0
 26 27  1  0  0  0  0
 27 30  1  0  0  0  0
 28 26  1  0  0  0  0
 28 27  1  0  0  0  0
 30 29  1  0  0  0  0
M  END
>  <MODEL>
4

>  <REMARK>
 VINA RESULT:      -5.3      4.977      9.695
  Name = 
  10 active torsions:
  status: ('A' for Active; 'I' for Inactive)
    1  A    between atoms: C_1  and  C_4
    2  A    between atoms: C_1  and  O_22
    3  A    between atoms: C_2  and  O_22
    4  A    between atoms: C_3  and  S_11
    5  A    between atoms: C_3  and  C_19
    6  A    between atoms: O_6  and  C_8
    7  A    between atoms: O_6  and  C_21
    8  A    between atoms: S_11  and  C_24
    9  A    between atoms: C_20  and  N_28
   10  A    between atoms: C_24  and  C_25
                            x       y       z     vdW  Elec       q    Type
                         _______ _______ _______ _____ _____    ______ ____

>  <TORSDO>
F 10

$$$$
=
 OpenBabel10262422013D

 30 32  0  0  1  0  0  0  0  0999 V2000
  181.3690  178.9760  139.2260 C   0  0  1  0  0  3  0  0  0  0  0  0
  180.9820  177.8060  138.3660 C   0  0  0  0  0  0  0  0  0  0  0  0
  183.3850  174.6950  136.0080 O   0  0  0  0  0  0  0  0  0  0  0  0
  180.9350  176.4210  138.9450 C   0  0  1  0  0  3  0  0  0  0  0  0
  184.6400  177.9240  138.3570 C   0  0  0  0  0  2  0  0  0  0  0  0
  180.7270  177.9680  137.1820 O   0  0  0  0  0  0  0  0  0  0  0  0
  182.3220  175.9450  139.3890 C   0  0  0  0  0  2  0  0  0  0  0  0
  183.8530  176.9080  137.5770 C   0  0  0  0  0  0  0  0  0  0  0  0
  183.1540  175.9550  135.4280 C   0  0  0  0  0  2  0  0  0  0  0  0
  182.7420  179.5000  138.8410 C   0  0  0  0  0  2  0  0  0  0  0  0
  183.8120  178.6000  139.4410 C   0  0  2  0  0  3  0  0  0  0  0  0
  183.8380  177.0170  136.2420 C   0  0  0  0  0  3  0  0  0  0  0  0
  182.6630  174.6860  137.2170 C   0  0  0  0  0  2  0  0  0  0  0  0
  183.2940  175.6520  138.2380 C   0  0  2  0  0  3  0  0  0  0  0  0
  180.3390  180.0890  139.1450 C   0  0  0  0  0  2  0  0  0  0  0  0
  179.4290  179.9790  140.2250 O   0  0  0  0  0  0  0  0  0  0  0  0
  179.3070  181.0130  141.1420 C   0  0  0  0  0  3  0  0  0  0  0  0
  179.7860  180.8860  142.2980 O   0  0  0  0  0  0  0  0  0  0  0  0
  180.0510  176.3850  140.0590 O   0  0  0  0  0  0  0  0  0  0  0  0
  179.1230  175.0930  141.7120 O   0  0  0  0  0  0  0  0  0  0  0  0
  179.1880  174.1320  139.6010 N   0  0  0  0  0  1  0  0  0  0  0  0
  179.4450  175.2070  140.5010 C   0  0  0  0  0  0  0  0  0  0  0  0
  184.7110  179.4070  140.3570 C   0  0  0  0  0  2  0  0  0  0  0  0
  185.4740  178.3130  141.5940 S   0  0  0  0  0  0  0  0  0  0  0  0
  184.9480  179.3540  142.9890 C   0  0  0  0  0  2  0  0  0  0  0  0
  184.6010  178.4860  144.1810 C   0  0  1  0  0  3  0  0  0  0  0  0
  184.5670  179.3270  145.3860 N   0  0  0  0  0  0  0  0  0  0  0  0
  183.3190  178.8940  144.7400 C   0  0  0  0  0  2  0  0  0  0  0  0
  186.1970  178.5970  147.0210 C   0  0  0  0  0  1  0  0  0  0  0  0
  184.7780  178.4420  146.5170 C   0  0  0  0  0  2  0  0  0  0  0  0
  1 15  1  6  0  0  0
  2  4  1  0  0  0  0
  2  1  1  0  0  0  0
  3 13  1  0  0  0  0
  4  7  1  0  0  0  0
  4 19  1  1  0  0  0
  5 11  1  0  0  0  0
  6  2  2  0  0  0  0
  8 14  1  0  0  0  0
  8  5  1  0  0  0  0
  9  3  1  0  0  0  0
  9 12  1  0  0  0  0
 10  1  1  0  0  0  0
 10 11  1  0  0  0  0
 11 23  1  1  0  0  0
 12  8  2  0  0  0  0
 14 13  1  6  0  0  0
 14  7  1  0  0  0  0
 15 16  1  0  0  0  0
 16 17  1  0  0  0  0
 17 18  2  0  0  0  0
 19 22  1  0  0  0  0
 21 22  1  0  0  0  0
 22 20  2  0  0  0  0
 23 24  1  0  0  0  0
 24 25  1  0  0  0  0
 26 25  1  6  0  0  0
 26 28  1  0  0  0  0
 26 27  1  0  0  0  0
 27 30  1  0  0  0  0
 28 27  1  0  0  0  0
 30 29  1  0  0  0  0
M  END
>  <MODEL>
5

>  <REMARK>
 VINA RESULT:      -5.3      6.192      7.897
  Name = 
  10 active torsions:
  status: ('A' for Active; 'I' for Inactive)
    1  A    between atoms: C_1  and  C_4
    2  A    between atoms: C_1  and  O_22
    3  A    between atoms: C_2  and  O_22
    4  A    between atoms: C_3  and  S_11
    5  A    between atoms: C_3  and  C_19
    6  A    between atoms: O_6  and  C_8
    7  A    between atoms: O_6  and  C_21
    8  A    between atoms: S_11  and  C_24
    9  A    between atoms: C_20  and  N_28
   10  A    between atoms: C_24  and  C_25
                            x       y       z     vdW  Elec       q    Type
                         _______ _______ _______ _____ _____    ______ ____

>  <TORSDO>
F 10

$$$$
=
 OpenBabel10262422013D

 30 32  0  0  1  0  0  0  0  0999 V2000
  188.7000  178.0860  140.5580 C   0  0  1  0  0  3  0  0  0  0  0  0
  190.1040  177.7870  141.0050 C   0  0  0  0  0  0  0  0  0  0  0  0
  192.0000  176.9410  145.0920 O   0  0  0  0  0  0  0  0  0  0  0  0
  190.5530  176.3670  141.1950 C   0  0  1  0  0  3  0  0  0  0  0  0
  188.0390  177.7770  144.0260 C   0  0  0  0  0  2  0  0  0  0  0  0
  190.8830  178.6980  141.2420 O   0  0  0  0  0  0  0  0  0  0  0  0
  189.7880  175.6760  142.3290 C   0  0  0  0  0  2  0  0  0  0  0  0
  189.5250  177.5520  144.0510 C   0  0  0  0  0  0  0  0  0  0  0  0
  191.7730  178.2770  144.7130 C   0  0  0  0  0  2  0  0  0  0  0  0
  187.8900  178.6940  141.6910 C   0  0  0  0  0  2  0  0  0  0  0  0
  187.4410  177.5920  142.6380 C   0  0  2  0  0  3  0  0  0  0  0  0
  190.2960  178.5170  144.5710 C   0  0  0  0  0  3  0  0  0  0  0  0
  191.6540  176.1570  143.9750 C   0  0  0  0  0  2  0  0  0  0  0  0
  190.1320  176.1900  143.7340 C   0  0  2  0  0  3  0  0  0  0  0  0
  188.6870  179.0040  139.3490 C   0  0  0  0  0  2  0  0  0  0  0  0
  188.2280  178.2930  138.2130 O   0  0  0  0  0  0  0  0  0  0  0  0
  186.8760  178.0170  138.0610 C   0  0  0  0  0  3  0  0  0  0  0  0
  186.0220  178.9040  138.3200 O   0  0  0  0  0  0  0  0  0  0  0  0
  190.3710  175.6290  139.9920 O   0  0  0  0  0  0  0  0  0  0  0  0
  190.2850  175.9510  137.7230 O   0  0  0  0  0  0  0  0  0  0  0  0
  192.3150  176.4410  138.7320 N   0  0  0  0  0  1  0  0  0  0  0  0
  190.9600  176.0040  138.7830 C   0  0  0  0  0  0  0  0  0  0  0  0
  185.9280  177.5670  142.7210 C   0  0  0  0  0  2  0  0  0  0  0  0
  185.2390  179.0030  141.8430 S   0  0  0  0  0  0  0  0  0  0  0  0
  184.5390  179.7220  143.3590 C   0  0  0  0  0  2  0  0  0  0  0  0
  184.4790  178.6730  144.4510 C   0  0  1  0  0  3  0  0  0  0  0  0
  184.8310  179.3020  145.7330 N   0  0  0  0  0  0  0  0  0  0  0  0
  183.4280  179.0030  145.4050 C   0  0  0  0  0  2  0  0  0  0  0  0
  186.6140  178.6260  147.2240 C   0  0  0  0  0  1  0  0  0  0  0  0
  185.2880  178.2370  146.6060 C   0  0  0  0  0  2  0  0  0  0  0  0
  1 15  1  6  0  0  0
  1  2  1  0  0  0  0
  1 10  1  0  0  0  0
  2  4  1  0  0  0  0
  2  6  2  0  0  0  0
  4 19  1  6  0  0  0
  4  7  1  0  0  0  0
  5  8  1  0  0  0  0
  8 12  2  0  0  0  0
  9  3  1  0  0  0  0
 10 11  1  0  0  0  0
 11 23  1  1  0  0  0
 11  5  1  0  0  0  0
 12  9  1  0  0  0  0
 13  3  1  0  0  0  0
 14  7  1  6  0  0  0
 14 13  1  0  0  0  0
 14  8  1  0  0  0  0
 16 15  1  0  0  0  0
 17 16  1  0  0  0  0
 17 18  2  0  0  0  0
 20 22  2  0  0  0  0
 21 22  1  0  0  0  0
 22 19  1  0  0  0  0
 24 23  1  0  0  0  0
 24 25  1  0  0  0  0
 26 25  1  6  0  0  0
 26 28  1  0  0  0  0
 26 27  1  0  0  0  0
 27 30  1  0  0  0  0
 28 27  1  0  0  0  0
 30 29  1  0  0  0  0
M  END
>  <MODEL>
6

>  <REMARK>
 VINA RESULT:      -5.2      3.765      5.805
  Name = 
  10 active torsions:
  status: ('A' for Active; 'I' for Inactive)
    1  A    between atoms: C_1  and  C_4
    2  A    between atoms: C_1  and  O_22
    3  A    between atoms: C_2  and  O_22
    4  A    between atoms: C_3  and  S_11
    5  A    between atoms: C_3  and  C_19
    6  A    between atoms: O_6  and  C_8
    7  A    between atoms: O_6  and  C_21
    8  A    between atoms: S_11  and  C_24
    9  A    between atoms: C_20  and  N_28
   10  A    between atoms: C_24  and  C_25
                            x       y       z     vdW  Elec       q    Type
                         _______ _______ _______ _____ _____    ______ ____

>  <TORSDO>
F 10

$$$$
=
 OpenBabel10262422013D

 30 32  0  0  1  0  0  0  0  0999 V2000
  187.5010  178.2510  141.8250 C   0  0  1  0  0  3  0  0  0  0  0  0
  188.1250  178.1360  143.1870 C   0  0  0  0  0  0  0  0  0  0  0  0
  186.4260  178.1250  147.4450 O   0  0  0  0  0  0  0  0  0  0  0  0
  188.1990  176.8040  143.8780 C   0  0  1  0  0  3  0  0  0  0  0  0
  184.5220  178.4750  143.7330 C   0  0  0  0  0  2  0  0  0  0  0  0
  188.5550  179.1290  143.7550 O   0  0  0  0  0  0  0  0  0  0  0  0
  186.8060  176.2570  144.2060 C   0  0  0  0  0  2  0  0  0  0  0  0
  185.5130  178.3690  144.8590 C   0  0  0  0  0  0  0  0  0  0  0  0
  186.6360  179.3590  146.8020 C   0  0  0  0  0  2  0  0  0  0  0  0
  186.1680  178.9770  141.9010 C   0  0  0  0  0  2  0  0  0  0  0  0
  185.0980  178.0170  142.4000 C   0  0  2  0  0  3  0  0  0  0  0  0
  185.7370  179.4610  145.6010 C   0  0  0  0  0  3  0  0  0  0  0  0
  186.9380  177.1420  146.5760 C   0  0  0  0  0  2  0  0  0  0  0  0
  186.0650  177.0210  145.3120 C   0  0  2  0  0  3  0  0  0  0  0  0
  188.4280  178.9520  140.8470 C   0  0  0  0  0  2  0  0  0  0  0  0
  188.0670  178.6130  139.5190 O   0  0  0  0  0  0  0  0  0  0  0  0
  189.0260  178.6080  138.5160 C   0  0  0  0  0  3  0  0  0  0  0  0
  188.9460  179.4290  137.5680 O   0  0  0  0  0  0  0  0  0  0  0  0
  188.8890  175.8650  143.0610 O   0  0  0  0  0  0  0  0  0  0  0  0
  191.1280  175.9210  143.5530 O   0  0  0  0  0  0  0  0  0  0  0  0
  190.5750  176.3280  141.3370 N   0  0  0  0  0  1  0  0  0  0  0  0
  190.2230  176.0320  142.6860 C   0  0  0  0  0  0  0  0  0  0  0  0
  183.9940  177.8940  141.3690 C   0  0  0  0  0  2  0  0  0  0  0  0
  184.3310  179.0030  139.9680 S   0  0  0  0  0  0  0  0  0  0  0  0
  182.5690  179.3490  139.6850 C   0  0  0  0  0  2  0  0  0  0  0  0
  181.7220  178.5410  140.6470 C   0  0  1  0  0  3  0  0  0  0  0  0
  180.4440  179.2380  140.8540 N   0  0  0  0  0  0  0  0  0  0  0  0
  180.5210  178.0620  139.9750 C   0  0  0  0  0  2  0  0  0  0  0  0
  180.9420  179.0140  143.2130 C   0  0  0  0  0  1  0  0  0  0  0  0
  179.9180  178.7740  142.1240 C   0  0  0  0  0  2  0  0  0  0  0  0
  1 15  1  6  0  0  0
  1 10  1  0  0  0  0
  1  2  1  0  0  0  0
  2  6  2  0  0  0  0
  2  4  1  0  0  0  0
  4 19  1  6  0  0  0
  4  7  1  0  0  0  0
  5  8  1  0  0  0  0
  8 14  1  0  0  0  0
  8 12  2  0  0  0  0
  9  3  1  0  0  0  0
 10 11  1  0  0  0  0
 11 23  1  6  0  0  0
 11  5  1  0  0  0  0
 12  9  1  0  0  0  0
 13  3  1  0  0  0  0
 14  7  1  6  0  0  0
 14 13  1  0  0  0  0
 16 15  1  0  0  0  0
 17 16  1  0  0  0  0
 18 17  2  0  0  0  0
 21 22  1  0  0  0  0
 22 19  1  0  0  0  0
 22 20  2  0  0  0  0
 24 23  1  0  0  0  0
 25 24  1  0  0  0  0
 26 25  1  6  0  0  0
 26 27  1  0  0  0  0
 27 30  1  0  0  0  0
 28 26  1  0  0  0  0
 28 27  1  0  0  0  0
 30 29  1  0  0  0  0
M  END
>  <MODEL>
7

>  <REMARK>
 VINA RESULT:      -5.0      4.912      8.643
  Name = 
  10 active torsions:
  status: ('A' for Active; 'I' for Inactive)
    1  A    between atoms: C_1  and  C_4
    2  A    between atoms: C_1  and  O_22
    3  A    between atoms: C_2  and  O_22
    4  A    between atoms: C_3  and  S_11
    5  A    between atoms: C_3  and  C_19
    6  A    between atoms: O_6  and  C_8
    7  A    between atoms: O_6  and  C_21
    8  A    between atoms: S_11  and  C_24
    9  A    between atoms: C_20  and  N_28
   10  A    between atoms: C_24  and  C_25
                            x       y       z     vdW  Elec       q    Type
                         _______ _______ _______ _____ _____    ______ ____

>  <TORSDO>
F 10

$$$$
=
 OpenBabel10262422013D

 30 32  0  0  1  0  0  0  0  0999 V2000
  181.1450  180.0070  138.6430 C   0  0  1  0  0  3  0  0  0  0  0  0
  180.1300  178.8990  138.6340 C   0  0  0  0  0  0  0  0  0  0  0  0
  180.4520  174.3270  138.5800 O   0  0  0  0  0  0  0  0  0  0  0  0
  179.7190  178.2360  139.9180 C   0  0  1  0  0  3  0  0  0  0  0  0
  183.4130  177.2850  138.5860 C   0  0  0  0  0  2  0  0  0  0  0  0
  179.6490  178.5110  137.5800 O   0  0  0  0  0  0  0  0  0  0  0  0
  180.8870  177.4870  140.5680 C   0  0  0  0  0  2  0  0  0  0  0  0
  182.1230  176.5140  138.5480 C   0  0  0  0  0  0  0  0  0  0  0  0
  180.5690  175.0290  137.3670 C   0  0  0  0  0  2  0  0  0  0  0  0
  182.4570  179.5430  138.0330 C   0  0  0  0  0  2  0  0  0  0  0  0
  183.2250  178.7200  139.0570 C   0  0  2  0  0  3  0  0  0  0  0  0
  181.7940  175.8990  137.4040 C   0  0  0  0  0  3  0  0  0  0  0  0
  180.1320  175.2890  139.5570 C   0  0  0  0  0  2  0  0  0  0  0  0
  181.3300  176.2230  139.8170 C   0  0  2  0  0  3  0  0  0  0  0  0
  180.6310  181.2360  137.9140 C   0  0  0  0  0  2  0  0  0  0  0  0
  181.3510  182.3800  138.3370 O   0  0  0  0  0  0  0  0  0  0  0  0
  181.3450  183.5340  137.5660 C   0  0  0  0  0  3  0  0  0  0  0  0
  182.3550  184.2840  137.5510 O   0  0  0  0  0  0  0  0  0  0  0  0
  179.2190  179.2040  140.8330 O   0  0  0  0  0  0  0  0  0  0  0  0
  180.4410  180.1440  142.5310 O   0  0  0  0  0  0  0  0  0  0  0  0
  179.1290  178.3240  143.1230 N   0  0  0  0  0  1  0  0  0  0  0  0
  179.6250  179.2580  142.1680 C   0  0  0  0  0  0  0  0  0  0  0  0
  184.5720  179.3610  139.3280 C   0  0  0  0  0  2  0  0  0  0  0  0
  185.2980  178.6550  140.8400 S   0  0  0  0  0  0  0  0  0  0  0  0
  183.7550  178.8320  141.7860 C   0  0  0  0  0  2  0  0  0  0  0  0
  184.0160  178.5720  143.2550 C   0  0  1  0  0  3  0  0  0  0  0  0
  185.4580  178.6990  143.5100 N   0  0  0  0  0  0  0  0  0  0  0  0
  184.5330  179.7770  143.8920 C   0  0  0  0  0  2  0  0  0  0  0  0
  187.1910  177.5290  144.7300 C   0  0  0  0  0  1  0  0  0  0  0  0
  185.7360  177.9430  144.7170 C   0  0  0  0  0  2  0  0  0  0  0  0
  1 15  1  6  0  0  0
  2  1  1  0  0  0  0
  2  4  1  0  0  0  0
  3 13  1  0  0  0  0
  4  7  1  0  0  0  0
  4 19  1  1  0  0  0
  5 11  1  0  0  0  0
  6  2  2  0  0  0  0
  8  5  1  0  0  0  0
  8 14  1  0  0  0  0
  9 12  1  0  0  0  0
  9  3  1  0  0  0  0
 10  1  1  0  0  0  0
 10 11  1  0  0  0  0
 11 23  1  6  0  0  0
 12  8  2  0  0  0  0
 14 13  1  6  0  0  0
 14  7  1  0  0  0  0
 15 16  1  0  0  0  0
 17 16  1  0  0  0  0
 18 17  2  0  0  0  0
 19 22  1  0  0  0  0
 22 20  2  0  0  0  0
 22 21  1  0  0  0  0
 23 24  1  0  0  0  0
 24 25  1  0  0  0  0
 26 25  1  6  0  0  0
 26 27  1  0  0  0  0
 26 28  1  0  0  0  0
 27 28  1  0  0  0  0
 27 30  1  0  0  0  0
 30 29  1  0  0  0  0
M  END
>  <MODEL>
8

>  <REMARK>
 VINA RESULT:      -4.9      7.021      9.090
  Name = 
  10 active torsions:
  status: ('A' for Active; 'I' for Inactive)
    1  A    between atoms: C_1  and  C_4
    2  A    between atoms: C_1  and  O_22
    3  A    between atoms: C_2  and  O_22
    4  A    between atoms: C_3  and  S_11
    5  A    between atoms: C_3  and  C_19
    6  A    between atoms: O_6  and  C_8
    7  A    between atoms: O_6  and  C_21
    8  A    between atoms: S_11  and  C_24
    9  A    between atoms: C_20  and  N_28
   10  A    between atoms: C_24  and  C_25
                            x       y       z     vdW  Elec       q    Type
                         _______ _______ _______ _____ _____    ______ ____

>  <TORSDO>
F 10

$$$$
=
 OpenBabel10262422013D

 30 32  0  0  1  0  0  0  0  0999 V2000
  190.3360  176.5510  138.0710 C   0  0  1  0  0  3  0  0  0  0  0  0
  190.7070  175.2830  137.3550 C   0  0  0  0  0  0  0  0  0  0  0  0
  188.3030  172.1790  134.9880 O   0  0  0  0  0  0  0  0  0  0  0  0
  190.9690  175.2950  135.8760 C   0  0  1  0  0  3  0  0  0  0  0  0
  187.0920  175.6750  136.9460 C   0  0  0  0  0  2  0  0  0  0  0  0
  190.7730  174.2270  137.9660 O   0  0  0  0  0  0  0  0  0  0  0  0
  189.7130  175.6620  135.0800 C   0  0  0  0  0  2  0  0  0  0  0  0
  187.8530  174.4990  136.4010 C   0  0  0  0  0  0  0  0  0  0  0  0
  188.3250  172.0920  136.3920 C   0  0  0  0  0  2  0  0  0  0  0  0
  188.8780  176.5250  138.4970 C   0  0  0  0  0  2  0  0  0  0  0  0
  187.9970  176.8470  137.2980 C   0  0  2  0  0  3  0  0  0  0  0  0
  187.6660  173.3070  136.9830 C   0  0  0  0  0  3  0  0  0  0  0  0
  189.1870  173.2200  134.6490 C   0  0  0  0  0  2  0  0  0  0  0  0
  188.6190  174.5850  135.0850 C   0  0  2  0  0  3  0  0  0  0  0  0
  191.2320  176.7920  139.2730 C   0  0  0  0  0  2  0  0  0  0  0  0
  190.5480  176.4320  140.4600 O   0  0  0  0  0  0  0  0  0  0  0  0
  190.7510  177.1520  141.6290 C   0  0  0  0  0  3  0  0  0  0  0  0
  191.8760  177.1310  142.1910 O   0  0  0  0  0  0  0  0  0  0  0  0
  192.0040  176.2220  135.5690 O   0  0  0  0  0  0  0  0  0  0  0  0
  193.7360  174.7370  135.3390 O   0  0  0  0  0  0  0  0  0  0  0  0
  194.3180  176.8510  136.0960 N   0  0  0  0  0  1  0  0  0  0  0  0
  193.3580  175.8950  135.6550 C   0  0  0  0  0  0  0  0  0  0  0  0
  187.1650  178.0810  137.5870 C   0  0  0  0  0  2  0  0  0  0  0  0
  185.4080  177.7260  137.2760 S   0  0  0  0  0  0  0  0  0  0  0  0
  184.8450  178.8330  138.6040 C   0  0  0  0  0  2  0  0  0  0  0  0
  185.3210  178.3160  139.9460 C   0  0  1  0  0  3  0  0  0  0  0  0
  185.2350  179.4050  140.9310 N   0  0  0  0  0  0  0  0  0  0  0  0
  184.2250  178.3350  140.9070 C   0  0  0  0  0  2  0  0  0  0  0  0
  187.5370  178.8310  141.4120 C   0  0  0  0  0  1  0  0  0  0  0  0
  186.1630  179.0750  141.9970 C   0  0  0  0  0  2  0  0  0  0  0  0
  1 10  1  0  0  0  0
  1 15  1  1  0  0  0
  2  6  2  0  0  0  0
  2  1  1  0  0  0  0
  3  9  1  0  0  0  0
  4 19  1  1  0  0  0
  4  2  1  0  0  0  0
  5 11  1  0  0  0  0
  7 14  1  0  0  0  0
  7  4  1  0  0  0  0
  8  5  1  0  0  0  0
  8 12  2  0  0  0  0
  9 12  1  0  0  0  0
 11 23  1  1  0  0  0
 11 10  1  0  0  0  0
 13  3  1  0  0  0  0
 14 13  1  1  0  0  0
 14  8  1  0  0  0  0
 15 16  1  0  0  0  0
 16 17  1  0  0  0  0
 17 18  2  0  0  0  0
 19 22  1  0  0  0  0
 20 22  2  0  0  0  0
 22 21  1  0  0  0  0
 24 23  1  0  0  0  0
 24 25  1  0  0  0  0
 26 25  1  6  0  0  0
 26 28  1  0  0  0  0
 26 27  1  0  0  0  0
 27 30  1  0  0  0  0
 28 27  1  0  0  0  0
 29 30  1  0  0  0  0
M  END
>  <MODEL>
9

>  <REMARK>
 VINA RESULT:      -4.9      3.353      5.325
  Name = 
  10 active torsions:
  status: ('A' for Active; 'I' for Inactive)
    1  A    between atoms: C_1  and  C_4
    2  A    between atoms: C_1  and  O_22
    3  A    between atoms: C_2  and  O_22
    4  A    between atoms: C_3  and  S_11
    5  A    between atoms: C_3  and  C_19
    6  A    between atoms: O_6  and  C_8
    7  A    between atoms: O_6  and  C_21
    8  A    between atoms: S_11  and  C_24
    9  A    between atoms: C_20  and  N_28
   10  A    between atoms: C_24  and  C_25
                            x       y       z     vdW  Elec       q    Type
                         _______ _______ _______ _____ _____    ______ ____

>  <TORSDO>
F 10

$$$$
