=
 OpenBabel10262420033D

 27 30  0  0  0  0  0  0  0  0999 V2000
  187.8590  178.7570  141.4840 C   0  0  0  0  0  2  0  0  0  0  0  0
  189.5770  177.3280  142.6840 C   0  0  0  0  0  0  0  0  0  0  0  0
  187.7530  178.0070  144.1630 O   0  0  0  0  0  0  0  0  0  0  0  0
  191.9350  176.2590  145.9850 C   0  0  0  0  0  3  0  0  0  0  0  0
  192.2570  176.1210  148.3420 F   0  0  0  0  0  0  0  0  0  0  0  0
  190.8600  176.7730  142.5500 C   0  0  0  0  0  3  0  0  0  0  0  0
  189.4010  177.3560  146.4220 C   0  0  0  0  0  3  0  0  0  0  0  0
  185.1060  179.1800  144.4300 C   0  0  0  0  0  2  0  0  0  0  0  0
  190.2110  177.0110  147.5070 C   0  0  0  0  0  3  0  0  0  0  0  0
  184.3500  178.2450  143.4970 C   0  0  0  0  0  2  0  0  0  0  0  0
  189.0460  177.4960  143.9900 C   0  0  0  0  0  0  0  0  0  0  0  0
  188.8380  177.6690  141.4870 N   0  0  0  0  0  0  0  0  0  0  0  0
  191.4740  176.4580  147.2890 C   0  0  0  0  0  0  0  0  0  0  0  0
  191.1310  176.6060  144.8960 C   0  0  0  0  0  0  0  0  0  0  0  0
  186.4480  178.2090  141.3780 C   0  0  0  0  0  2  0  0  0  0  0  0
  189.8430  177.1490  145.1060 C   0  0  0  0  0  0  0  0  0  0  0  0
  185.7890  178.4060  145.5480 C   0  0  0  0  0  2  0  0  0  0  0  0
  191.5950  176.4280  143.6360 N   0  0  0  0  0  0  0  0  0  0  0  0
  184.1470  178.8860  142.1250 C   0  0  0  0  0  2  0  0  0  0  0  0
  185.4620  179.3550  141.5080 C   0  0  0  0  0  2  0  0  0  0  0  0
  186.8010  177.3910  145.0260 C   0  0  0  0  0  2  0  0  0  0  0  0
  190.1150  177.4840  137.5260 O   0  0  0  0  0  0  0  0  0  0  0  0
  189.2320  177.0650  140.2090 C   0  0  0  0  0  3  0  0  0  0  0  0
  190.6850  177.3930  139.8600 C   0  0  0  0  0  2  0  0  0  0  0  0
  190.9850  176.8790  138.4520 C   0  0  0  0  0  2  0  0  0  0  0  0
  188.8380  176.9400  137.7550 C   0  0  0  0  0  2  0  0  0  0  0  0
  188.2800  177.4610  139.0790 C   0  0  0  0  0  2  0  0  0  0  0  0
  1 12  1  0  0  0  0
  2 11  1  0  0  0  0
  3 21  1  0  0  0  0
  4 13  2  0  0  0  0
  6  2  2  0  0  0  0
  6 18  1  0  0  0  0
  7  9  2  0  0  0  0
  8 17  1  0  0  0  0
 10  8  1  0  0  0  0
 11  3  1  0  0  0  0
 11 16  2  0  0  0  0
 12  2  1  0  0  0  0
 13  9  1  0  0  0  0
 13  5  1  0  0  0  0
 14 16  1  0  0  0  0
 14  4  1  0  0  0  0
 15  1  1  0  0  0  0
 15 20  1  0  0  0  0
 16  7  1  0  0  0  0
 18 14  2  0  0  0  0
 19 10  1  0  0  0  0
 20 19  1  0  0  0  0
 21 17  1  0  0  0  0
 22 26  1  0  0  0  0
 22 25  1  0  0  0  0
 23 12  1  0  0  0  0
 24 23  1  0  0  0  0
 25 24  1  0  0  0  0
 26 27  1  0  0  0  0
 27 23  1  0  0  0  0
M  END
>  <MODEL>
1

>  <REMARK>
 VINA RESULT:     -10.7      0.000      0.000
  Name = 
  1 active torsions:
  status: ('A' for Active; 'I' for Inactive)
    1  A    between atoms: C_9  and  N_15
                            x       y       z     vdW  Elec       q    Type
                         _______ _______ _______ _____ _____    ______ ____

>  <TORSDO>
F 1

$$$$
=
 OpenBabel10262420033D

 27 30  0  0  0  0  0  0  0  0999 V2000
  190.1580  176.0710  143.3220 C   0  0  0  0  0  2  0  0  0  0  0  0
  188.2770  177.6050  142.5870 C   0  0  0  0  0  0  0  0  0  0  0  0
  188.2800  177.2500  145.0060 O   0  0  0  0  0  0  0  0  0  0  0  0
  184.3600  179.0980  142.7530 C   0  0  0  0  0  3  0  0  0  0  0  0
  182.3870  179.6040  143.9900 F   0  0  0  0  0  0  0  0  0  0  0  0
  187.5980  178.0780  141.4530 C   0  0  0  0  0  3  0  0  0  0  0  0
  185.5700  178.1910  145.1040 C   0  0  0  0  0  3  0  0  0  0  0  0
  189.6850  176.2450  147.3450 C   0  0  0  0  0  2  0  0  0  0  0  0
  184.2590  178.6750  145.1330 C   0  0  0  0  0  3  0  0  0  0  0  0
  190.9700  177.0460  147.1980 C   0  0  0  0  0  2  0  0  0  0  0  0
  187.6200  177.6730  143.8440 C   0  0  0  0  0  0  0  0  0  0  0  0
  189.6260  177.1040  142.4330 N   0  0  0  0  0  0  0  0  0  0  0  0
  183.6570  179.1330  143.9600 C   0  0  0  0  0  0  0  0  0  0  0  0
  185.6700  178.6120  142.7170 C   0  0  0  0  0  0  0  0  0  0  0  0
  191.2080  176.6520  144.2510 C   0  0  0  0  0  2  0  0  0  0  0  0
  186.2950  178.1630  143.9020 C   0  0  0  0  0  0  0  0  0  0  0  0
  188.4730  177.1610  147.4330 C   0  0  0  0  0  2  0  0  0  0  0  0
  186.3350  178.5640  141.5380 N   0  0  0  0  0  0  0  0  0  0  0  0
  192.0740  176.2000  146.5660 C   0  0  0  0  0  2  0  0  0  0  0  0
  191.6400  175.5840  145.2380 C   0  0  0  0  0  2  0  0  0  0  0  0
  188.3090  178.0360  146.1930 C   0  0  0  0  0  2  0  0  0  0  0  0
  192.2330  176.6580  139.2130 O   0  0  0  0  0  0  0  0  0  0  0  0
  190.3920  177.4770  141.2380 C   0  0  0  0  0  3  0  0  0  0  0  0
  189.9680  176.6510  140.0210 C   0  0  0  0  0  2  0  0  0  0  0  0
  190.9070  176.9650  138.8570 C   0  0  0  0  0  2  0  0  0  0  0  0
  192.6310  177.6190  140.1600 C   0  0  0  0  0  2  0  0  0  0  0  0
  191.9000  177.3850  141.4810 C   0  0  0  0  0  2  0  0  0  0  0  0
  1 15  1  0  0  0  0
  2 11  1  0  0  0  0
  3 21  1  0  0  0  0
  4 13  2  0  0  0  0
  6 18  1  0  0  0  0
  6  2  2  0  0  0  0
  7  9  2  0  0  0  0
  8 17  1  0  0  0  0
 10  8  1  0  0  0  0
 11 16  2  0  0  0  0
 11  3  1  0  0  0  0
 12  2  1  0  0  0  0
 12  1  1  0  0  0  0
 13  5  1  0  0  0  0
 13  9  1  0  0  0  0
 14  4  1  0  0  0  0
 14 16  1  0  0  0  0
 15 20  1  0  0  0  0
 16  7  1  0  0  0  0
 18 14  2  0  0  0  0
 19 10  1  0  0  0  0
 20 19  1  0  0  0  0
 21 17  1  0  0  0  0
 22 26  1  0  0  0  0
 23 27  1  0  0  0  0
 23 12  1  0  0  0  0
 24 23  1  0  0  0  0
 25 22  1  0  0  0  0
 25 24  1  0  0  0  0
 26 27  1  0  0  0  0
M  END
>  <MODEL>
2

>  <REMARK>
 VINA RESULT:     -10.4      2.576      5.531
  Name = 
  1 active torsions:
  status: ('A' for Active; 'I' for Inactive)
    1  A    between atoms: C_9  and  N_15
                            x       y       z     vdW  Elec       q    Type
                         _______ _______ _______ _____ _____    ______ ____

>  <TORSDO>
F 1

$$$$
=
 OpenBabel10262420033D

 27 30  0  0  0  0  0  0  0  0999 V2000
  187.2350  177.0630  144.6880 C   0  0  0  0  0  2  0  0  0  0  0  0
  188.9510  177.5040  142.8740 C   0  0  0  0  0  0  0  0  0  0  0  0
  186.6890  178.0910  142.1580 O   0  0  0  0  0  0  0  0  0  0  0  0
  190.2890  177.5730  138.8980 C   0  0  0  0  0  3  0  0  0  0  0  0
  189.8490  177.8190  136.5690 F   0  0  0  0  0  0  0  0  0  0  0  0
  190.2910  177.2730  142.5210 C   0  0  0  0  0  3  0  0  0  0  0  0
  187.5870  178.0520  139.4320 C   0  0  0  0  0  3  0  0  0  0  0  0
  183.9130  178.5440  142.8960 C   0  0  0  0  0  2  0  0  0  0  0  0
  188.0510  178.0510  138.1140 C   0  0  0  0  0  3  0  0  0  0  0  0
  184.1330  179.6090  143.9610 C   0  0  0  0  0  2  0  0  0  0  0  0
  188.0250  177.8110  141.8430 C   0  0  0  0  0  0  0  0  0  0  0  0
  188.5820  177.4570  144.2720 N   0  0  0  0  0  0  0  0  0  0  0  0
  189.4010  177.8170  137.8470 C   0  0  0  0  0  0  0  0  0  0  0  0
  189.8310  177.5690  140.2180 C   0  0  0  0  0  0  0  0  0  0  0  0
  186.4700  178.2570  145.2280 C   0  0  0  0  0  2  0  0  0  0  0  0
  188.4700  177.8230  140.5000 C   0  0  0  0  0  0  0  0  0  0  0  0
  184.4990  178.9740  141.5590 C   0  0  0  0  0  2  0  0  0  0  0  0
  190.6960  177.3110  141.2270 N   0  0  0  0  0  0  0  0  0  0  0  0
  184.0750  179.0040  145.3620 C   0  0  0  0  0  2  0  0  0  0  0  0
  185.0430  177.8350  145.5260 C   0  0  0  0  0  2  0  0  0  0  0  0
  186.0030  179.2220  141.6300 C   0  0  0  0  0  2  0  0  0  0  0  0
  191.0800  176.3590  147.4210 O   0  0  0  0  0  0  0  0  0  0  0  0
  189.6290  177.5920  145.2910 C   0  0  0  0  0  3  0  0  0  0  0  0
  190.7760  176.6080  145.0490 C   0  0  0  0  0  2  0  0  0  0  0  0
  191.7480  176.6800  146.2250 C   0  0  0  0  0  2  0  0  0  0  0  0
  190.2190  177.4350  147.7040 C   0  0  0  0  0  2  0  0  0  0  0  0
  189.0620  177.4550  146.7060 C   0  0  0  0  0  2  0  0  0  0  0  0
  1 15  1  0  0  0  0
  2 12  1  0  0  0  0
  4 14  1  0  0  0  0
  5 13  1  0  0  0  0
  6  2  1  0  0  0  0
  7 16  1  0  0  0  0
  8 10  1  0  0  0  0
  9  7  2  0  0  0  0
 10 19  1  0  0  0  0
 11  3  1  0  0  0  0
 11  2  2  0  0  0  0
 12  1  1  0  0  0  0
 12 23  1  0  0  0  0
 13  9  1  0  0  0  0
 13  4  2  0  0  0  0
 14 16  2  0  0  0  0
 14 18  1  0  0  0  0
 15 20  1  0  0  0  0
 16 11  1  0  0  0  0
 17 21  1  0  0  0  0
 17  8  1  0  0  0  0
 18  6  2  0  0  0  0
 19 20  1  0  0  0  0
 21  3  1  0  0  0  0
 22 26  1  0  0  0  0
 23 27  1  0  0  0  0
 24 23  1  0  0  0  0
 24 25  1  0  0  0  0
 25 22  1  0  0  0  0
 27 26  1  0  0  0  0
M  END
>  <MODEL>
3

>  <REMARK>
 VINA RESULT:     -10.3      2.806      6.059
  Name = 
  1 active torsions:
  status: ('A' for Active; 'I' for Inactive)
    1  A    between atoms: C_9  and  N_15
                            x       y       z     vdW  Elec       q    Type
                         _______ _______ _______ _____ _____    ______ ____

>  <TORSDO>
F 1

$$$$
=
 OpenBabel10262420033D

 27 30  0  0  0  0  0  0  0  0999 V2000
  187.7860  177.1700  144.1240 C   0  0  0  0  0  2  0  0  0  0  0  0
  187.1000  178.1840  141.9030 C   0  0  0  0  0  0  0  0  0  0  0  0
  185.3400  178.3890  143.5880 O   0  0  0  0  0  0  0  0  0  0  0  0
  184.3550  179.0440  138.8490 C   0  0  0  0  0  3  0  0  0  0  0  0
  182.1280  179.4990  138.1340 F   0  0  0  0  0  0  0  0  0  0  0  0
  187.4740  178.2780  140.5530 C   0  0  0  0  0  3  0  0  0  0  0  0
  183.4480  178.8910  141.4890 C   0  0  0  0  0  3  0  0  0  0  0  0
  184.5710  178.1690  146.3840 C   0  0  0  0  0  2  0  0  0  0  0  0
  182.5480  179.1570  140.4530 C   0  0  0  0  0  3  0  0  0  0  0  0
  185.6110  179.1080  146.9780 C   0  0  0  0  0  2  0  0  0  0  0  0
  185.7440  178.4300  142.2470 C   0  0  0  0  0  0  0  0  0  0  0  0
  188.1150  177.8800  142.8880 N   0  0  0  0  0  0  0  0  0  0  0  0
  183.0010  179.2380  139.1360 C   0  0  0  0  0  0  0  0  0  0  0  0
  185.2590  178.7740  139.8800 C   0  0  0  0  0  0  0  0  0  0  0  0
  187.8750  178.1020  145.3180 C   0  0  0  0  0  2  0  0  0  0  0  0
  184.8130  178.7070  141.2190 C   0  0  0  0  0  0  0  0  0  0  0  0
  183.7210  178.8800  145.3410 C   0  0  0  0  0  2  0  0  0  0  0  0
  186.5650  178.5660  139.5880 N   0  0  0  0  0  0  0  0  0  0  0  0
  186.7820  178.3250  147.5690 C   0  0  0  0  0  2  0  0  0  0  0  0
  187.4030  177.3650  146.5570 C   0  0  0  0  0  2  0  0  0  0  0  0
  184.5490  179.4170  144.1760 C   0  0  0  0  0  2  0  0  0  0  0  0
  192.2360  177.2630  142.9110 O   0  0  0  0  0  0  0  0  0  0  0  0
  189.5270  178.0890  142.5440 C   0  0  0  0  0  3  0  0  0  0  0  0
  190.1190  176.8640  141.8420 C   0  0  0  0  0  2  0  0  0  0  0  0
  191.6220  177.0760  141.6590 C   0  0  0  0  0  2  0  0  0  0  0  0
  191.8310  178.5270  143.3770 C   0  0  0  0  0  2  0  0  0  0  0  0
  190.3540  178.4900  143.7670 C   0  0  0  0  0  2  0  0  0  0  0  0
  1 15  1  0  0  0  0
  2 11  1  0  0  0  0
  2 12  1  0  0  0  0
  3 21  1  0  0  0  0
  4 13  2  0  0  0  0
  4 14  1  0  0  0  0
  5 13  1  0  0  0  0
  6  2  2  0  0  0  0
  8 10  1  0  0  0  0
  9  7  2  0  0  0  0
 10 19  1  0  0  0  0
 11  3  1  0  0  0  0
 12  1  1  0  0  0  0
 13  9  1  0  0  0  0
 14 16  1  0  0  0  0
 15 20  1  0  0  0  0
 16  7  1  0  0  0  0
 16 11  2  0  0  0  0
 17  8  1  0  0  0  0
 18 14  2  0  0  0  0
 18  6  1  0  0  0  0
 20 19  1  0  0  0  0
 21 17  1  0  0  0  0
 22 26  1  0  0  0  0
 23 12  1  0  0  0  0
 23 27  1  0  0  0  0
 24 23  1  0  0  0  0
 25 24  1  0  0  0  0
 25 22  1  0  0  0  0
 26 27  1  0  0  0  0
M  END
>  <MODEL>
4

>  <REMARK>
 VINA RESULT:     -10.2      3.722      6.426
  Name = 
  1 active torsions:
  status: ('A' for Active; 'I' for Inactive)
    1  A    between atoms: C_9  and  N_15
                            x       y       z     vdW  Elec       q    Type
                         _______ _______ _______ _____ _____    ______ ____

>  <TORSDO>
F 1

$$$$
=
 OpenBabel10262420033D

 27 30  0  0  0  0  0  0  0  0999 V2000
  189.4190  176.5690  144.0270 C   0  0  0  0  0  2  0  0  0  0  0  0
  187.5380  177.8730  142.9360 C   0  0  0  0  0  0  0  0  0  0  0  0
  187.2600  177.7150  145.3600 O   0  0  0  0  0  0  0  0  0  0  0  0
  183.5300  179.0350  142.4940 C   0  0  0  0  0  3  0  0  0  0  0  0
  181.3840  179.4680  143.4340 F   0  0  0  0  0  0  0  0  0  0  0  0
  186.9750  178.1940  141.6900 C   0  0  0  0  0  3  0  0  0  0  0  0
  184.4960  178.4260  145.0460 C   0  0  0  0  0  3  0  0  0  0  0  0
  188.4270  177.0250  147.9320 C   0  0  0  0  0  2  0  0  0  0  0  0
  183.1600  178.7970  144.8730 C   0  0  0  0  0  3  0  0  0  0  0  0
  189.6570  177.9180  147.8690 C   0  0  0  0  0  2  0  0  0  0  0  0
  186.7230  177.9850  144.0930 C   0  0  0  0  0  0  0  0  0  0  0  0
  188.9290  177.4780  142.9910 N   0  0  0  0  0  0  0  0  0  0  0  0
  182.6790  179.1060  143.5990 C   0  0  0  0  0  0  0  0  0  0  0  0
  184.8670  178.6610  142.6600 C   0  0  0  0  0  0  0  0  0  0  0  0
  190.2960  177.3100  145.0200 C   0  0  0  0  0  2  0  0  0  0  0  0
  185.3680  178.3640  143.9470 C   0  0  0  0  0  0  0  0  0  0  0  0
  187.1480  177.8390  147.7900 C   0  0  0  0  0  2  0  0  0  0  0  0
  185.6780  178.5750  141.5790 N   0  0  0  0  0  0  0  0  0  0  0  0
  190.8920  177.1220  147.4540 C   0  0  0  0  0  2  0  0  0  0  0  0
  190.6770  176.3660  146.1440 C   0  0  0  0  0  2  0  0  0  0  0  0
  187.0780  178.5940  146.4660 C   0  0  0  0  0  2  0  0  0  0  0  0
  191.4820  176.8680  139.7550 O   0  0  0  0  0  0  0  0  0  0  0  0
  189.8110  177.8180  141.8680 C   0  0  0  0  0  3  0  0  0  0  0  0
  189.2510  177.3010  140.5410 C   0  0  0  0  0  2  0  0  0  0  0  0
  190.2850  177.5370  139.4410 C   0  0  0  0  0  2  0  0  0  0  0  0
  192.0600  177.5600  140.8350 C   0  0  0  0  0  2  0  0  0  0  0  0
  191.2410  177.3260  142.1040 C   0  0  0  0  0  2  0  0  0  0  0  0
  1 15  1  0  0  0  0
  2 12  1  0  0  0  0
  2 11  1  0  0  0  0
  3 21  1  0  0  0  0
  4 14  1  0  0  0  0
  4 13  2  0  0  0  0
  5 13  1  0  0  0  0
  6  2  2  0  0  0  0
  9  7  2  0  0  0  0
 10  8  1  0  0  0  0
 11  3  1  0  0  0  0
 12  1  1  0  0  0  0
 13  9  1  0  0  0  0
 14 16  1  0  0  0  0
 15 20  1  0  0  0  0
 16 11  2  0  0  0  0
 16  7  1  0  0  0  0
 17  8  1  0  0  0  0
 18  6  1  0  0  0  0
 18 14  2  0  0  0  0
 19 10  1  0  0  0  0
 20 19  1  0  0  0  0
 21 17  1  0  0  0  0
 22 26  1  0  0  0  0
 23 27  1  0  0  0  0
 23 12  1  0  0  0  0
 24 23  1  0  0  0  0
 25 22  1  0  0  0  0
 25 24  1  0  0  0  0
 26 27  1  0  0  0  0
M  END
>  <MODEL>
5

>  <REMARK>
 VINA RESULT:      -9.9      2.813      5.751
  Name = 
  1 active torsions:
  status: ('A' for Active; 'I' for Inactive)
    1  A    between atoms: C_9  and  N_15
                            x       y       z     vdW  Elec       q    Type
                         _______ _______ _______ _____ _____    ______ ____

>  <TORSDO>
F 1

$$$$
=
 OpenBabel10262420033D

 27 30  0  0  0  0  0  0  0  0999 V2000
  185.3010  179.3890  142.3500 C   0  0  0  0  0  2  0  0  0  0  0  0
  186.9680  178.3460  140.7490 C   0  0  0  0  0  0  0  0  0  0  0  0
  187.7020  178.1810  143.0740 O   0  0  0  0  0  0  0  0  0  0  0  0
  190.8410  177.4600  139.4010 C   0  0  0  0  0  3  0  0  0  0  0  0
  193.1380  177.0110  139.8510 F   0  0  0  0  0  0  0  0  0  0  0  0
  187.2880  178.2290  139.3860 C   0  0  0  0  0  3  0  0  0  0  0  0
  190.3700  177.6610  142.1490 C   0  0  0  0  0  3  0  0  0  0  0  0
  187.0360  178.4490  145.8920 C   0  0  0  0  0  2  0  0  0  0  0  0
  191.6560  177.3860  141.6780 C   0  0  0  0  0  3  0  0  0  0  0  0
  185.8370  177.5120  145.9300 C   0  0  0  0  0  2  0  0  0  0  0  0
  187.9910  178.1160  141.7040 C   0  0  0  0  0  0  0  0  0  0  0  0
  185.6040  178.6570  141.1190 N   0  0  0  0  0  0  0  0  0  0  0  0
  191.8900  177.2800  140.3060 C   0  0  0  0  0  0  0  0  0  0  0  0
  189.5530  177.7390  139.8670 C   0  0  0  0  0  0  0  0  0  0  0  0
  184.6480  178.4740  143.3700 C   0  0  0  0  0  2  0  0  0  0  0  0
  189.3010  177.8300  141.2540 C   0  0  0  0  0  0  0  0  0  0  0  0
  188.2810  177.7280  145.3970 C   0  0  0  0  0  2  0  0  0  0  0  0
  188.5470  177.9320  138.9800 N   0  0  0  0  0  0  0  0  0  0  0  0
  184.5270  178.2940  145.8730 C   0  0  0  0  0  2  0  0  0  0  0  0
  184.4680  179.2340  144.6710 C   0  0  0  0  0  2  0  0  0  0  0  0
  188.1140  177.1680  143.9880 C   0  0  0  0  0  2  0  0  0  0  0  0
  181.7810  178.8090  139.4680 O   0  0  0  0  0  0  0  0  0  0  0  0
  184.5310  178.4320  140.1440 C   0  0  0  0  0  3  0  0  0  0  0  0
  183.9890  179.7530  139.5930 C   0  0  0  0  0  2  0  0  0  0  0  0
  182.7730  179.4630  138.7140 C   0  0  0  0  0  2  0  0  0  0  0  0
  182.2580  177.5100  139.7240 C   0  0  0  0  0  2  0  0  0  0  0  0
  183.4120  177.5650  140.7240 C   0  0  0  0  0  2  0  0  0  0  0  0
  1 15  1  0  0  0  0
  2 12  1  0  0  0  0
  2 11  1  0  0  0  0
  3 21  1  0  0  0  0
  4 14  1  0  0  0  0
  4 13  2  0  0  0  0
  5 13  1  0  0  0  0
  6  2  2  0  0  0  0
  8 10  1  0  0  0  0
  9  7  2  0  0  0  0
 11  3  1  0  0  0  0
 12  1  1  0  0  0  0
 13  9  1  0  0  0  0
 14 16  1  0  0  0  0
 15 20  1  0  0  0  0
 16 11  2  0  0  0  0
 16  7  1  0  0  0  0
 17  8  1  0  0  0  0
 18  6  1  0  0  0  0
 18 14  2  0  0  0  0
 19 10  1  0  0  0  0
 20 19  1  0  0  0  0
 21 17  1  0  0  0  0
 22 26  1  0  0  0  0
 23 27  1  0  0  0  0
 23 12  1  0  0  0  0
 24 23  1  0  0  0  0
 25 22  1  0  0  0  0
 25 24  1  0  0  0  0
 26 27  1  0  0  0  0
M  END
>  <MODEL>
6

>  <REMARK>
 VINA RESULT:      -9.8      2.891      5.169
  Name = 
  1 active torsions:
  status: ('A' for Active; 'I' for Inactive)
    1  A    between atoms: C_9  and  N_15
                            x       y       z     vdW  Elec       q    Type
                         _______ _______ _______ _____ _____    ______ ____

>  <TORSDO>
F 1

$$$$
=
 OpenBabel10262420033D

 27 30  0  0  0  0  0  0  0  0999 V2000
  187.4150  178.9630  140.2670 C   0  0  0  0  0  2  0  0  0  0  0  0
  189.2600  177.6660  141.4270 C   0  0  0  0  0  0  0  0  0  0  0  0
  187.3650  178.0910  142.9110 O   0  0  0  0  0  0  0  0  0  0  0  0
  191.6890  176.7020  144.7090 C   0  0  0  0  0  3  0  0  0  0  0  0
  192.0050  176.4960  147.0620 F   0  0  0  0  0  0  0  0  0  0  0  0
  190.5940  177.2510  141.2860 C   0  0  0  0  0  3  0  0  0  0  0  0
  189.0530  177.5150  145.1610 C   0  0  0  0  0  3  0  0  0  0  0  0
  184.6090  178.9760  143.1940 C   0  0  0  0  0  2  0  0  0  0  0  0
  189.8850  177.2070  146.2400 C   0  0  0  0  0  3  0  0  0  0  0  0
  183.9600  178.0100  142.2140 C   0  0  0  0  0  2  0  0  0  0  0  0
  188.7050  177.7230  142.7320 C   0  0  0  0  0  0  0  0  0  0  0  0
  188.5000  177.9820  140.2370 N   0  0  0  0  0  0  0  0  0  0  0  0
  191.2000  176.7960  146.0150 C   0  0  0  0  0  0  0  0  0  0  0  0
  190.8620  177.0110  143.6260 C   0  0  0  0  0  0  0  0  0  0  0  0
  186.0690  178.2790  140.1210 C   0  0  0  0  0  2  0  0  0  0  0  0
  189.5240  177.4110  143.8420 C   0  0  0  0  0  0  0  0  0  0  0  0
  185.3590  178.2280  144.2870 C   0  0  0  0  0  2  0  0  0  0  0  0
  191.3530  176.9360  142.3660 N   0  0  0  0  0  0  0  0  0  0  0  0
  183.7040  178.6850  140.8680 C   0  0  0  0  0  2  0  0  0  0  0  0
  184.9690  179.3120  140.2870 C   0  0  0  0  0  2  0  0  0  0  0  0
  186.4740  177.3450  143.7350 C   0  0  0  0  0  2  0  0  0  0  0  0
  188.3870  177.0810  136.1700 O   0  0  0  0  0  0  0  0  0  0  0  0
  188.9640  177.4760  138.9400 C   0  0  0  0  0  3  0  0  0  0  0  0
  189.0670  178.6000  137.9060 C   0  0  0  0  0  2  0  0  0  0  0  0
  189.3930  177.9910  136.5420 C   0  0  0  0  0  2  0  0  0  0  0  0
  188.5200  175.9630  137.0140 C   0  0  0  0  0  2  0  0  0  0  0  0
  188.0890  176.3270  138.4340 C   0  0  0  0  0  2  0  0  0  0  0  0
  2 11  1  0  0  0  0
  3 21  1  0  0  0  0
  4 13  2  0  0  0  0
  6  2  2  0  0  0  0
  6 18  1  0  0  0  0
  7  9  2  0  0  0  0
  8 17  1  0  0  0  0
 10  8  1  0  0  0  0
 11  3  1  0  0  0  0
 11 16  2  0  0  0  0
 12  1  1  0  0  0  0
 12  2  1  0  0  0  0
 13  9  1  0  0  0  0
 13  5  1  0  0  0  0
 14 16  1  0  0  0  0
 14  4  1  0  0  0  0
 15  1  1  0  0  0  0
 15 20  1  0  0  0  0
 16  7  1  0  0  0  0
 18 14  2  0  0  0  0
 19 10  1  0  0  0  0
 20 19  1  0  0  0  0
 21 17  1  0  0  0  0
 22 25  1  0  0  0  0
 22 26  1  0  0  0  0
 23 12  1  0  0  0  0
 24 23  1  0  0  0  0
 25 24  1  0  0  0  0
 26 27  1  0  0  0  0
 27 23  1  0  0  0  0
M  END
>  <MODEL>
7

>  <REMARK>
 VINA RESULT:      -9.4      1.250      1.531
  Name = 
  1 active torsions:
  status: ('A' for Active; 'I' for Inactive)
    1  A    between atoms: C_9  and  N_15
                            x       y       z     vdW  Elec       q    Type
                         _______ _______ _______ _____ _____    ______ ____

>  <TORSDO>
F 1

$$$$
=
 OpenBabel10262420033D

 27 30  0  0  0  0  0  0  0  0999 V2000
  184.3330  177.6530  139.0260 C   0  0  0  0  0  2  0  0  0  0  0  0
  183.6880  178.5750  141.2990 C   0  0  0  0  0  0  0  0  0  0  0  0
  186.0790  178.0900  141.1510 O   0  0  0  0  0  0  0  0  0  0  0  0
  183.9280  178.7760  145.4830 C   0  0  0  0  0  3  0  0  0  0  0  0
  185.1850  178.5720  147.4970 F   0  0  0  0  0  0  0  0  0  0  0  0
  182.5820  178.8860  142.1070 C   0  0  0  0  0  3  0  0  0  0  0  0
  186.2230  178.1420  144.0170 C   0  0  0  0  0  3  0  0  0  0  0  0
  188.3570  177.4240  139.4710 C   0  0  0  0  0  2  0  0  0  0  0  0
  186.2760  178.1960  145.4130 C   0  0  0  0  0  3  0  0  0  0  0  0
  188.2670  178.5890  138.4960 C   0  0  0  0  0  2  0  0  0  0  0  0
  184.9430  178.3600  141.9250 C   0  0  0  0  0  0  0  0  0  0  0  0
  183.5090  178.5250  139.8640 N   0  0  0  0  0  0  0  0  0  0  0  0
  185.1310  178.5180  146.1440 C   0  0  0  0  0  0  0  0  0  0  0  0
  183.8690  178.7210  144.0870 C   0  0  0  0  0  0  0  0  0  0  0  0
  185.3030  178.4700  138.1920 C   0  0  0  0  0  2  0  0  0  0  0  0
  185.0260  178.4140  143.3370 C   0  0  0  0  0  0  0  0  0  0  0  0
  188.4970  177.9150  140.9040 C   0  0  0  0  0  2  0  0  0  0  0  0
  182.6920  178.9530  143.4570 N   0  0  0  0  0  0  0  0  0  0  0  0
  187.5890  178.1650  137.1950 C   0  0  0  0  0  2  0  0  0  0  0  0
  186.2220  177.5280  137.4390 C   0  0  0  0  0  2  0  0  0  0  0  0
  187.3140  178.7720  141.3480 C   0  0  0  0  0  2  0  0  0  0  0  0
  181.1880  180.3810  136.9430 O   0  0  0  0  0  0  0  0  0  0  0  0
  182.3440  179.1880  139.2670 C   0  0  0  0  0  3  0  0  0  0  0  0
  181.7570  178.3630  138.1200 C   0  0  0  0  0  2  0  0  0  0  0  0
  180.6580  179.1760  137.4360 C   0  0  0  0  0  2  0  0  0  0  0  0
  181.4740  181.1850  138.0620 C   0  0  0  0  0  2  0  0  0  0  0  0
  182.6720  180.6150  138.8210 C   0  0  0  0  0  2  0  0  0  0  0  0
  1 12  1  0  0  0  0
  2 11  2  0  0  0  0
  2  6  1  0  0  0  0
  3 21  1  0  0  0  0
  3 11  1  0  0  0  0
  4 13  1  0  0  0  0
  6 18  2  0  0  0  0
  7  9  1  0  0  0  0
  8 17  1  0  0  0  0
  9 13  2  0  0  0  0
 10  8  1  0  0  0  0
 11 16  1  0  0  0  0
 12  2  1  0  0  0  0
 13  5  1  0  0  0  0
 14  4  2  0  0  0  0
 15  1  1  0  0  0  0
 16  7  2  0  0  0  0
 16 14  1  0  0  0  0
 17 21  1  0  0  0  0
 18 14  1  0  0  0  0
 19 20  1  0  0  0  0
 19 10  1  0  0  0  0
 20 15  1  0  0  0  0
 22 25  1  0  0  0  0
 22 26  1  0  0  0  0
 23 12  1  0  0  0  0
 24 23  1  0  0  0  0
 25 24  1  0  0  0  0
 26 27  1  0  0  0  0
 27 23  1  0  0  0  0
M  END
>  <MODEL>
8

>  <REMARK>
 VINA RESULT:      -9.3      3.868      6.730
  Name = 
  1 active torsions:
  status: ('A' for Active; 'I' for Inactive)
    1  A    between atoms: C_9  and  N_15
                            x       y       z     vdW  Elec       q    Type
                         _______ _______ _______ _____ _____    ______ ____

>  <TORSDO>
F 1

$$$$
=
 OpenBabel10262420033D

 27 30  0  0  0  0  0  0  0  0999 V2000
  190.4350  178.1370  143.1690 C   0  0  0  0  0  2  0  0  0  0  0  0
  188.0840  177.7990  144.0580 C   0  0  0  0  0  0  0  0  0  0  0  0
  188.1110  178.1250  141.6360 O   0  0  0  0  0  0  0  0  0  0  0  0
  183.9610  178.5640  144.1750 C   0  0  0  0  0  3  0  0  0  0  0  0
  181.9350  179.1720  143.0760 F   0  0  0  0  0  0  0  0  0  0  0  0
  187.3350  177.7360  145.2450 C   0  0  0  0  0  3  0  0  0  0  0  0
  185.3070  178.7330  141.7310 C   0  0  0  0  0  3  0  0  0  0  0  0
  189.6740  178.2770  139.1890 C   0  0  0  0  0  2  0  0  0  0  0  0
  183.9370  179.0030  141.7960 C   0  0  0  0  0  3  0  0  0  0  0  0
  190.3620  176.9230  139.2770 C   0  0  0  0  0  2  0  0  0  0  0  0
  187.4060  178.0960  142.8470 C   0  0  0  0  0  0  0  0  0  0  0  0
  189.5030  177.5230  144.1160 N   0  0  0  0  0  0  0  0  0  0  0  0
  183.2640  178.9130  143.0160 C   0  0  0  0  0  0  0  0  0  0  0  0
  185.3310  178.2970  144.1160 C   0  0  0  0  0  0  0  0  0  0  0  0
  190.9660  177.1050  142.1920 C   0  0  0  0  0  2  0  0  0  0  0  0
  186.0190  178.3670  142.8840 C   0  0  0  0  0  0  0  0  0  0  0  0
  188.1600  178.1260  139.2000 C   0  0  0  0  0  2  0  0  0  0  0  0
  186.0010  177.9790  145.2500 N   0  0  0  0  0  0  0  0  0  0  0  0
  191.7840  177.0640  139.8160 C   0  0  0  0  0  2  0  0  0  0  0  0
  191.8230  177.8020  141.1520 C   0  0  0  0  0  2  0  0  0  0  0  0
  187.6470  177.4520  140.4690 C   0  0  0  0  0  2  0  0  0  0  0  0
  191.9190  176.7530  147.4220 O   0  0  0  0  0  0  0  0  0  0  0  0
  190.0420  176.7940  145.2700 C   0  0  0  0  0  3  0  0  0  0  0  0
  189.8220  177.5670  146.5720 C   0  0  0  0  0  2  0  0  0  0  0  0
  190.5450  176.8410  147.7070 C   0  0  0  0  0  2  0  0  0  0  0  0
  192.0560  175.8290  146.3700 C   0  0  0  0  0  2  0  0  0  0  0  0
  191.5160  176.4320  145.0730 C   0  0  0  0  0  2  0  0  0  0  0  0
  1 12  1  0  0  0  0
  2 12  1  0  0  0  0
  2  6  1  0  0  0  0
  3 11  1  0  0  0  0
  6 18  2  0  0  0  0
  7  9  2  0  0  0  0
  7 16  1  0  0  0  0
  8 17  1  0  0  0  0
  8 10  1  0  0  0  0
  9 13  1  0  0  0  0
 10 19  1  0  0  0  0
 11 16  1  0  0  0  0
 11  2  2  0  0  0  0
 12 23  1  0  0  0  0
 13  5  1  0  0  0  0
 13  4  2  0  0  0  0
 14  4  1  0  0  0  0
 14 18  1  0  0  0  0
 15  1  1  0  0  0  0
 16 14  2  0  0  0  0
 17 21  1  0  0  0  0
 19 20  1  0  0  0  0
 20 15  1  0  0  0  0
 21  3  1  0  0  0  0
 22 25  1  0  0  0  0
 23 24  1  0  0  0  0
 24 25  1  0  0  0  0
 26 22  1  0  0  0  0
 27 23  1  0  0  0  0
 27 26  1  0  0  0  0
M  END
>  <MODEL>
9

>  <REMARK>
 VINA RESULT:      -9.1      2.927      6.856
  Name = 
  1 active torsions:
  status: ('A' for Active; 'I' for Inactive)
    1  A    between atoms: C_9  and  N_15
                            x       y       z     vdW  Elec       q    Type
                         _______ _______ _______ _____ _____    ______ ____

>  <TORSDO>
F 1

$$$$
