=
 OpenBabel10262420493D

 28 31  0  0  1  0  0  0  0  0999 V2000
  187.5860  177.6050  144.0620 C   0  0  0  0  0  2  0  0  0  0  0  0
  188.3360  178.4790  143.0550 C   0  0  2  0  0  3  0  0  0  0  0  0
  186.2230  178.8370  141.7250 C   0  0  1  0  0  3  0  0  0  0  0  0
  181.9470  178.5660  141.2790 C   0  0  0  0  0  2  0  0  0  0  0  0
  187.6900  178.4110  141.6670 C   0  0  0  0  0  2  0  0  0  0  0  0
  183.7200  178.4980  138.8850 C   0  0  0  0  0  2  0  0  0  0  0  0
  183.9380  178.3330  142.7830 C   0  0  1  0  0  3  0  0  0  0  0  0
  181.5300  179.6710  139.0380 C   0  0  2  0  0  3  0  0  0  0  0  0
  183.4310  178.8640  141.4420 C   0  0  1  0  0  3  0  0  0  0  0  0
  185.6600  178.7990  140.3620 N   0  0  0  0  0  2  0  0  0  0  0  0
  183.0080  179.8310  138.7020 C   0  0  0  0  0  2  0  0  0  0  0  0
  185.5230  178.4210  145.2310 C   0  0  0  0  0  0  0  0  0  0  0  0
  185.4440  177.9790  142.7480 C   0  0  2  0  0  3  0  0  0  0  0  0
  184.2840  178.2940  140.2960 C   0  0  2  0  0  3  0  0  0  0  0  0
  184.0500  178.7300  145.2120 C   0  0  0  0  0  2  0  0  0  0  0  0
  180.7480  180.7840  138.3750 C   0  0  0  0  0  1  0  0  0  0  0  0
  181.2770  179.7190  140.5420 C   0  0  0  0  0  2  0  0  0  0  0  0
  183.6280  179.3330  143.8850 C   0  0  0  0  0  2  0  0  0  0  0  0
  186.1430  178.0100  144.0960 C   0  0  0  0  0  0  0  0  0  0  0  0
  185.8580  179.4260  147.3550 O   0  0  0  0  0  0  0  0  0  0  0  0
  186.1990  178.5150  146.5520 C   0  0  0  0  0  0  0  0  0  0  0  0
  187.3400  177.6320  146.9410 C   0  0  0  0  0  2  0  0  0  0  0  0
  187.9980  178.1600  148.2000 C   0  0  0  0  0  1  0  0  0  0  0  0
  189.8250  178.1320  143.0100 C   0  0  0  0  0  2  0  0  0  0  0  0
  190.5730  178.4950  144.2920 C   0  0  0  0  0  2  0  0  0  0  0  0
  191.4280  177.3400  144.7890 C   0  0  0  0  0  3  0  0  0  0  0  0
  190.9340  176.8670  146.1440 C   0  0  0  0  0  1  0  0  0  0  0  0
  191.3460  176.1950  143.8020 C   0  0  0  0  0  1  0  0  0  0  0  0
  1 19  1  0  0  0  0
  2 24  1  6  0  0  0
  2  1  1  0  0  0  0
  3  5  1  6  0  0  0
  3 13  1  0  0  0  0
  5  2  1  0  0  0  0
  7 18  1  1  0  0  0
  8 16  1  6  0  0  0
  8 17  1  0  0  0  0
  9  4  1  6  0  0  0
  9  7  1  0  0  0  0
 10  3  1  0  0  0  0
 11  6  1  0  0  0  0
 11  8  1  0  0  0  0
 12 21  1  0  0  0  0
 13  7  1  0  0  0  0
 13 19  1  1  0  0  0
 14  6  1  6  0  0  0
 14 10  1  0  0  0  0
 14  9  1  0  0  0  0
 15 12  1  0  0  0  0
 17  4  1  0  0  0  0
 18 15  1  0  0  0  0
 19 12  2  0  0  0  0
 21 22  1  0  0  0  0
 21 20  2  0  0  0  0
 22 23  1  0  0  0  0
 24 25  1  0  0  0  0
 25 26  1  0  0  0  0
 26 27  1  0  0  0  0
 28 26  1  0  0  0  0
M  END
>  <MODEL>
1

>  <REMARK>
 VINA RESULT:      -9.6      0.000      0.000
  Name = 
  5 active torsions:
  status: ('A' for Active; 'I' for Inactive)
    1  A    between atoms: C_2  and  C_8
    2  A    between atoms: C_6  and  C_11
    3  A    between atoms: C_8  and  C_11
    4  A    between atoms: C_16  and  C_21
    5  A    between atoms: C_19  and  C_21
                            x       y       z     vdW  Elec       q    Type
                         _______ _______ _______ _____ _____    ______ ____

>  <TORSDO>
F 5

$$$$
=
 OpenBabel10262420493D

 28 31  0  0  1  0  0  0  0  0999 V2000
  188.0640  178.2690  145.1940 C   0  0  0  0  0  2  0  0  0  0  0  0
  186.9140  177.5610  144.4730 C   0  0  2  0  0  3  0  0  0  0  0  0
  188.3170  177.3050  142.3930 C   0  0  1  0  0  3  0  0  0  0  0  0
  192.1010  177.4800  140.3420 C   0  0  0  0  0  2  0  0  0  0  0  0
  186.9810  177.7860  142.9600 C   0  0  0  0  0  2  0  0  0  0  0  0
  189.5580  177.9220  138.8540 C   0  0  0  0  0  2  0  0  0  0  0  0
  190.8670  177.5860  142.5210 C   0  0  1  0  0  3  0  0  0  0  0  0
  191.5320  176.6620  138.0130 C   0  0  2  0  0  3  0  0  0  0  0  0
  190.7740  177.2160  141.0400 C   0  0  1  0  0  3  0  0  0  0  0  0
  188.3160  177.5000  140.9310 N   0  0  0  0  0  2  0  0  0  0  0  0
  190.0310  176.6000  138.2660 C   0  0  0  0  0  2  0  0  0  0  0  0
  190.3410  177.2360  145.3690 C   0  0  0  0  0  0  0  0  0  0  0  0
  189.4980  177.9940  143.1150 C   0  0  2  0  0  3  0  0  0  0  0  0
  189.5980  177.9610  140.3860 C   0  0  2  0  0  3  0  0  0  0  0  0
  191.6630  176.8790  144.7420 C   0  0  0  0  0  2  0  0  0  0  0  0
  191.9050  175.6180  136.9820 C   0  0  0  0  0  1  0  0  0  0  0  0
  192.3390  176.4100  139.2840 C   0  0  0  0  0  2  0  0  0  0  0  0
  191.4920  176.4400  143.3000 C   0  0  0  0  0  2  0  0  0  0  0  0
  189.3700  177.8120  144.6170 C   0  0  0  0  0  0  0  0  0  0  0  0
  191.2630  176.8270  147.5170 O   0  0  0  0  0  0  0  0  0  0  0  0
  190.2200  176.9930  146.8310 C   0  0  0  0  0  0  0  0  0  0  0  0
  188.9000  176.8420  147.5170 C   0  0  0  0  0  2  0  0  0  0  0  0
  188.7080  177.9600  148.5220 C   0  0  0  0  0  1  0  0  0  0  0  0
  185.5570  177.9630  145.0520 C   0  0  0  0  0  2  0  0  0  0  0  0
  184.8190  179.0030  144.2090 C   0  0  0  0  0  2  0  0  0  0  0  0
  183.5930  178.4090  143.5350 C   0  0  0  0  0  3  0  0  0  0  0  0
  182.3280  178.9920  144.1380 C   0  0  0  0  0  1  0  0  0  0  0  0
  183.6310  178.7280  142.0550 C   0  0  0  0  0  1  0  0  0  0  0  0
  2 24  1  1  0  0  0
  2  1  1  0  0  0  0
  3  5  1  1  0  0  0
  3 13  1  0  0  0  0
  5  2  1  0  0  0  0
  7 13  1  0  0  0  0
  7 18  1  1  0  0  0
  8 16  1  6  0  0  0
  8 11  1  0  0  0  0
  8 17  1  0  0  0  0
  9  4  1  6  0  0  0
  9  7  1  0  0  0  0
 10  3  1  0  0  0  0
 11  6  1  0  0  0  0
 12 21  1  0  0  0  0
 13 19  1  1  0  0  0
 14  6  1  6  0  0  0
 14 10  1  0  0  0  0
 14  9  1  0  0  0  0
 15 12  1  0  0  0  0
 17  4  1  0  0  0  0
 18 15  1  0  0  0  0
 19  1  1  0  0  0  0
 19 12  2  0  0  0  0
 21 20  2  0  0  0  0
 21 22  1  0  0  0  0
 22 23  1  0  0  0  0
 25 24  1  0  0  0  0
 26 27  1  0  0  0  0
 26 25  1  0  0  0  0
 28 26  1  0  0  0  0
M  END
>  <MODEL>
2

>  <REMARK>
 VINA RESULT:      -9.0      2.805      6.738
  Name = 
  5 active torsions:
  status: ('A' for Active; 'I' for Inactive)
    1  A    between atoms: C_2  and  C_8
    2  A    between atoms: C_6  and  C_11
    3  A    between atoms: C_8  and  C_11
    4  A    between atoms: C_16  and  C_21
    5  A    between atoms: C_19  and  C_21
                            x       y       z     vdW  Elec       q    Type
                         _______ _______ _______ _____ _____    ______ ____

>  <TORSDO>
F 5

$$$$
=
 OpenBabel10262420493D

 28 31  0  0  1  0  0  0  0  0999 V2000
  188.1320  178.0700  145.2380 C   0  0  0  0  0  2  0  0  0  0  0  0
  186.9690  177.3800  144.5220 C   0  0  2  0  0  3  0  0  0  0  0  0
  188.3190  177.2060  142.3990 C   0  0  1  0  0  3  0  0  0  0  0  0
  192.0490  177.4800  140.2600 C   0  0  0  0  0  2  0  0  0  0  0  0
  186.9960  177.6580  143.0160 C   0  0  0  0  0  2  0  0  0  0  0  0
  189.4660  177.9560  138.8540 C   0  0  0  0  0  2  0  0  0  0  0  0
  190.8700  177.5000  142.4720 C   0  0  1  0  0  3  0  0  0  0  0  0
  191.4260  176.7400  137.9190 C   0  0  2  0  0  3  0  0  0  0  0  0
  190.7420  177.1820  140.9820 C   0  0  1  0  0  3  0  0  0  0  0  0
  188.2800  177.4520  140.9450 N   0  0  0  0  0  2  0  0  0  0  0  0
  189.9320  176.6580  138.2080 C   0  0  0  0  0  2  0  0  0  0  0  0
  190.4200  177.0470  145.3180 C   0  0  0  0  0  0  0  0  0  0  0  0
  189.5150  177.8780  143.1150 C   0  0  2  0  0  3  0  0  0  0  0  0
  189.5440  177.9410  140.3840 C   0  0  2  0  0  3  0  0  0  0  0  0
  191.7270  176.7230  144.6470 C   0  0  0  0  0  2  0  0  0  0  0  0
  191.7790  175.7350  136.8430 C   0  0  0  0  0  1  0  0  0  0  0  0
  192.2660  176.4490  139.1600 C   0  0  0  0  0  2  0  0  0  0  0  0
  191.5210  176.3330  143.1950 C   0  0  0  0  0  2  0  0  0  0  0  0
  189.4260  177.6430  144.6120 C   0  0  0  0  0  0  0  0  0  0  0  0
  189.2300  176.4130  147.2720 O   0  0  0  0  0  0  0  0  0  0  0  0
  190.3360  176.7530  146.7740 C   0  0  0  0  0  0  0  0  0  0  0  0
  191.4940  176.9350  147.7010 C   0  0  0  0  0  2  0  0  0  0  0  0
  192.2840  175.6450  147.8030 C   0  0  0  0  0  1  0  0  0  0  0  0
  185.6240  177.7520  145.1480 C   0  0  0  0  0  2  0  0  0  0  0  0
  185.3110  179.2460  145.0760 C   0  0  0  0  0  2  0  0  0  0  0  0
  184.0270  179.5120  144.3070 C   0  0  0  0  0  3  0  0  0  0  0  0
  184.2120  179.1700  142.8410 C   0  0  0  0  0  1  0  0  0  0  0  0
  182.9140  178.6610  144.8810 C   0  0  0  0  0  1  0  0  0  0  0  0
  2 24  1  1  0  0  0
  2  1  1  0  0  0  0
  3  5  1  1  0  0  0
  3 13  1  0  0  0  0
  5  2  1  0  0  0  0
  7 13  1  0  0  0  0
  7 18  1  1  0  0  0
  8 16  1  6  0  0  0
  8 11  1  0  0  0  0
  8 17  1  0  0  0  0
  9  4  1  6  0  0  0
  9  7  1  0  0  0  0
 10  3  1  0  0  0  0
 11  6  1  0  0  0  0
 12 21  1  0  0  0  0
 13 19  1  1  0  0  0
 14  6  1  6  0  0  0
 14 10  1  0  0  0  0
 14  9  1  0  0  0  0
 15 12  1  0  0  0  0
 17  4  1  0  0  0  0
 18 15  1  0  0  0  0
 19  1  1  0  0  0  0
 19 12  2  0  0  0  0
 21 20  2  0  0  0  0
 21 22  1  0  0  0  0
 22 23  1  0  0  0  0
 25 24  1  0  0  0  0
 26 28  1  0  0  0  0
 26 25  1  0  0  0  0
 27 26  1  0  0  0  0
M  END
>  <MODEL>
3

>  <REMARK>
 VINA RESULT:      -8.9      2.741      6.734
  Name = 
  5 active torsions:
  status: ('A' for Active; 'I' for Inactive)
    1  A    between atoms: C_2  and  C_8
    2  A    between atoms: C_6  and  C_11
    3  A    between atoms: C_8  and  C_11
    4  A    between atoms: C_16  and  C_21
    5  A    between atoms: C_19  and  C_21
                            x       y       z     vdW  Elec       q    Type
                         _______ _______ _______ _____ _____    ______ ____

>  <TORSDO>
F 5

$$$$
=
 OpenBabel10262420493D

 28 31  0  0  1  0  0  0  0  0999 V2000
  186.3390  178.8570  140.9560 C   0  0  0  0  0  2  0  0  0  0  0  0
  187.2150  177.8590  140.1960 C   0  0  2  0  0  3  0  0  0  0  0  0
  188.6280  177.4700  142.2490 C   0  0  1  0  0  3  0  0  0  0  0  0
  189.3480  177.8860  146.4760 C   0  0  0  0  0  2  0  0  0  0  0  0
  188.6390  177.8230  140.7620 C   0  0  0  0  0  2  0  0  0  0  0  0
  191.6290  177.6470  144.5740 C   0  0  0  0  0  2  0  0  0  0  0  0
  187.7570  178.1730  144.5610 C   0  0  1  0  0  3  0  0  0  0  0  0
  191.4980  176.5910  146.8240 C   0  0  2  0  0  3  0  0  0  0  0  0
  189.0710  177.5390  145.0200 C   0  0  1  0  0  3  0  0  0  0  0  0
  190.0200  177.4020  142.7350 N   0  0  0  0  0  2  0  0  0  0  0  0
  191.7300  176.3350  145.3410 C   0  0  0  0  0  2  0  0  0  0  0  0
  185.2230  178.2490  143.1170 C   0  0  0  0  0  0  0  0  0  0  0  0
  187.7360  178.4550  143.0400 C   0  0  2  0  0  3  0  0  0  0  0  0
  190.2130  177.9590  144.0780 C   0  0  2  0  0  3  0  0  0  0  0  0
  185.3000  178.0040  144.6010 C   0  0  0  0  0  2  0  0  0  0  0  0
  192.1000  175.4560  147.6240 C   0  0  0  0  0  1  0  0  0  0  0  0
  190.0130  176.6990  147.1610 C   0  0  0  0  0  2  0  0  0  0  0  0
  186.5880  177.2970  144.9790 C   0  0  0  0  0  2  0  0  0  0  0  0
  186.3530  178.5210  142.4180 C   0  0  0  0  0  0  0  0  0  0  0  0
  183.6820  177.7170  141.3930 O   0  0  0  0  0  0  0  0  0  0  0  0
  183.8610  178.2500  142.5200 C   0  0  0  0  0  0  0  0  0  0  0  0
  182.7010  178.9450  143.1570 C   0  0  0  0  0  2  0  0  0  0  0  0
  181.4930  178.8790  142.2450 C   0  0  0  0  0  1  0  0  0  0  0  0
  187.2040  178.1340  138.6920 C   0  0  0  0  0  2  0  0  0  0  0  0
  187.8790  177.0390  137.8680 C   0  0  0  0  0  2  0  0  0  0  0  0
  189.0050  177.5960  137.0110 C   0  0  0  0  0  3  0  0  0  0  0  0
  189.0510  179.1080  137.1230 C   0  0  0  0  0  1  0  0  0  0  0  0
  190.3240  177.0210  137.4810 C   0  0  0  0  0  1  0  0  0  0  0  0
  1 19  1  0  0  0  0
  2 24  1  6  0  0  0
  2  5  1  0  0  0  0
  2  1  1  0  0  0  0
  3  5  1  6  0  0  0
  3 10  1  0  0  0  0
  3 13  1  0  0  0  0
  4 17  1  0  0  0  0
  6 11  1  0  0  0  0
  7 18  1  6  0  0  0
  7  9  1  0  0  0  0
  8 17  1  0  0  0  0
  8 16  1  1  0  0  0
  9  4  1  1  0  0  0
 10 14  1  0  0  0  0
 11  8  1  0  0  0  0
 12 15  1  0  0  0  0
 13 19  1  6  0  0  0
 13  7  1  0  0  0  0
 14  6  1  1  0  0  0
 14  9  1  0  0  0  0
 15 18  1  0  0  0  0
 19 12  2  0  0  0  0
 20 21  2  0  0  0  0
 21 12  1  0  0  0  0
 21 22  1  0  0  0  0
 23 22  1  0  0  0  0
 25 24  1  0  0  0  0
 26 27  1  0  0  0  0
 26 28  1  0  0  0  0
 26 25  1  0  0  0  0
M  END
>  <MODEL>
4

>  <REMARK>
 VINA RESULT:      -8.7      2.671      7.343
  Name = 
  5 active torsions:
  status: ('A' for Active; 'I' for Inactive)
    1  A    between atoms: C_2  and  C_8
    2  A    between atoms: C_6  and  C_11
    3  A    between atoms: C_8  and  C_11
    4  A    between atoms: C_16  and  C_21
    5  A    between atoms: C_19  and  C_21
                            x       y       z     vdW  Elec       q    Type
                         _______ _______ _______ _____ _____    ______ ____

>  <TORSDO>
F 5

$$$$
=
 OpenBabel10262420493D

 28 31  0  0  1  0  0  0  0  0999 V2000
  186.4520  178.9050  140.8420 C   0  0  0  0  0  2  0  0  0  0  0  0
  187.3510  177.9030  140.1150 C   0  0  2  0  0  3  0  0  0  0  0  0
  188.6910  177.5140  142.2160 C   0  0  1  0  0  3  0  0  0  0  0  0
  189.2650  177.9400  146.4650 C   0  0  0  0  0  2  0  0  0  0  0  0
  188.7540  177.8630  140.7300 C   0  0  0  0  0  2  0  0  0  0  0  0
  191.6100  177.6890  144.6440 C   0  0  0  0  0  2  0  0  0  0  0  0
  187.7420  178.2270  144.4950 C   0  0  1  0  0  3  0  0  0  0  0  0
  191.3970  176.6400  146.8910 C   0  0  2  0  0  3  0  0  0  0  0  0
  189.0370  177.5900  145.0010 C   0  0  1  0  0  3  0  0  0  0  0  0
  190.0640  177.4440  142.7510 N   0  0  0  0  0  2  0  0  0  0  0  0
  191.6800  176.3790  145.4170 C   0  0  0  0  0  2  0  0  0  0  0  0
  185.2600  178.3060  142.9640 C   0  0  0  0  0  0  0  0  0  0  0  0
  187.7750  178.5040  142.9730 C   0  0  2  0  0  3  0  0  0  0  0  0
  190.2130  178.0040  144.0990 C   0  0  2  0  0  3  0  0  0  0  0  0
  185.2840  178.0650  144.4500 C   0  0  0  0  0  2  0  0  0  0  0  0
  191.9680  175.5050  147.7140 C   0  0  0  0  0  1  0  0  0  0  0  0
  189.9020  176.7530  147.1760 C   0  0  0  0  0  2  0  0  0  0  0  0
  186.5560  177.3550  144.8750 C   0  0  0  0  0  2  0  0  0  0  0  0
  186.4140  178.5740  142.3030 C   0  0  0  0  0  0  0  0  0  0  0  0
  182.9500  178.8490  142.9190 O   0  0  0  0  0  0  0  0  0  0  0  0
  183.9190  178.3100  142.3210 C   0  0  0  0  0  0  0  0  0  0  0  0
  183.6440  177.6160  141.0260 C   0  0  0  0  0  2  0  0  0  0  0  0
  182.7950  178.5000  140.1350 C   0  0  0  0  0  1  0  0  0  0  0  0
  187.3920  178.1730  138.6110 C   0  0  0  0  0  2  0  0  0  0  0  0
  186.0080  178.2510  137.9670 C   0  0  0  0  0  2  0  0  0  0  0  0
  185.7240  177.0330  137.1020 C   0  0  0  0  0  3  0  0  0  0  0  0
  184.2270  176.8420  136.9420 C   0  0  0  0  0  1  0  0  0  0  0  0
  186.3500  177.2300  135.7380 C   0  0  0  0  0  1  0  0  0  0  0  0
  1 19  1  0  0  0  0
  2 24  1  6  0  0  0
  2  5  1  0  0  0  0
  2  1  1  0  0  0  0
  3  5  1  6  0  0  0
  3 10  1  0  0  0  0
  3 13  1  0  0  0  0
  4 17  1  0  0  0  0
  6 11  1  0  0  0  0
  7 18  1  6  0  0  0
  7  9  1  0  0  0  0
  8 17  1  0  0  0  0
  8 16  1  1  0  0  0
  9  4  1  1  0  0  0
 10 14  1  0  0  0  0
 11  8  1  0  0  0  0
 12 15  1  0  0  0  0
 13 19  1  6  0  0  0
 13  7  1  0  0  0  0
 14  6  1  1  0  0  0
 14  9  1  0  0  0  0
 15 18  1  0  0  0  0
 19 12  2  0  0  0  0
 21 20  2  0  0  0  0
 21 12  1  0  0  0  0
 22 21  1  0  0  0  0
 23 22  1  0  0  0  0
 25 24  1  0  0  0  0
 26 25  1  0  0  0  0
 27 26  1  0  0  0  0
 28 26  1  0  0  0  0
M  END
>  <MODEL>
5

>  <REMARK>
 VINA RESULT:      -8.5      2.218      7.655
  Name = 
  5 active torsions:
  status: ('A' for Active; 'I' for Inactive)
    1  A    between atoms: C_2  and  C_8
    2  A    between atoms: C_6  and  C_11
    3  A    between atoms: C_8  and  C_11
    4  A    between atoms: C_16  and  C_21
    5  A    between atoms: C_19  and  C_21
                            x       y       z     vdW  Elec       q    Type
                         _______ _______ _______ _____ _____    ______ ____

>  <TORSDO>
F 5

$$$$
=
 OpenBabel10262420493D

 28 31  0  0  1  0  0  0  0  0999 V2000
  183.1330  178.3700  141.8790 C   0  0  0  0  0  2  0  0  0  0  0  0
  182.6170  179.3480  142.9360 C   0  0  2  0  0  3  0  0  0  0  0  0
  184.5850  178.8420  144.4290 C   0  0  1  0  0  3  0  0  0  0  0  0
  188.4640  177.0950  145.1060 C   0  0  0  0  0  2  0  0  0  0  0  0
  183.0620  178.9370  144.3430 C   0  0  0  0  0  2  0  0  0  0  0  0
  186.5390  177.4100  147.3580 C   0  0  0  0  0  2  0  0  0  0  0  0
  186.6690  177.6930  143.4620 C   0  0  1  0  0  3  0  0  0  0  0  0
  188.9970  177.7790  147.4860 C   0  0  2  0  0  3  0  0  0  0  0  0
  187.1870  177.8930  144.8870 C   0  0  1  0  0  3  0  0  0  0  0  0
  184.9660  178.4880  145.8100 N   0  0  0  0  0  2  0  0  0  0  0  0
  187.6300  178.3990  147.7460 C   0  0  0  0  0  2  0  0  0  0  0  0
  185.4550  178.5420  140.9490 C   0  0  0  0  0  0  0  0  0  0  0  0
  185.1360  177.8700  143.3600 C   0  0  2  0  0  3  0  0  0  0  0  0
  186.0830  177.5420  145.9000 C   0  0  2  0  0  3  0  0  0  0  0  0
  186.9380  178.3300  141.0980 C   0  0  0  0  0  2  0  0  0  0  0  0
  190.0340  178.4930  148.3270 C   0  0  0  0  0  1  0  0  0  0  0  0
  189.4010  177.8780  146.0170 C   0  0  0  0  0  2  0  0  0  0  0  0
  187.4010  178.6270  142.5120 C   0  0  0  0  0  2  0  0  0  0  0  0
  184.6250  178.2620  141.9850 C   0  0  0  0  0  0  0  0  0  0  0  0
  184.5550  180.1590  139.4640 O   0  0  0  0  0  0  0  0  0  0  0  0
  184.9840  178.9830  139.6090 C   0  0  0  0  0  0  0  0  0  0  0  0
  184.9070  178.0600  138.4370 C   0  0  0  0  0  2  0  0  0  0  0  0
  183.5310  177.4290  138.3650 C   0  0  0  0  0  1  0  0  0  0  0  0
  181.1010  179.5250  142.8450 C   0  0  0  0  0  2  0  0  0  0  0  0
  180.4680  178.7680  141.6770 C   0  0  0  0  0  2  0  0  0  0  0  0
  179.8090  179.7150  140.6870 C   0  0  0  0  0  3  0  0  0  0  0  0
  179.2990  180.9520  141.4020 C   0  0  0  0  0  1  0  0  0  0  0  0
  180.8210  180.1270  139.6390 C   0  0  0  0  0  1  0  0  0  0  0  0
  1 19  1  0  0  0  0
  1  2  1  0  0  0  0
  2 24  1  1  0  0  0
  2  5  1  0  0  0  0
  3  5  1  1  0  0  0
  3 10  1  0  0  0  0
  4 17  1  0  0  0  0
  6 11  1  0  0  0  0
  7 18  1  6  0  0  0
  7  9  1  0  0  0  0
  8 11  1  0  0  0  0
  8 16  1  1  0  0  0
  9  4  1  1  0  0  0
  9 14  1  0  0  0  0
 10 14  1  0  0  0  0
 12 15  1  0  0  0  0
 12 19  2  0  0  0  0
 13 19  1  6  0  0  0
 13  7  1  0  0  0  0
 13  3  1  0  0  0  0
 14  6  1  1  0  0  0
 15 18  1  0  0  0  0
 17  8  1  0  0  0  0
 20 21  2  0  0  0  0
 21 12  1  0  0  0  0
 22 21  1  0  0  0  0
 23 22  1  0  0  0  0
 25 24  1  0  0  0  0
 26 27  1  0  0  0  0
 26 25  1  0  0  0  0
 28 26  1  0  0  0  0
M  END
>  <MODEL>
6

>  <REMARK>
 VINA RESULT:      -8.4      2.339      8.248
  Name = 
  5 active torsions:
  status: ('A' for Active; 'I' for Inactive)
    1  A    between atoms: C_2  and  C_8
    2  A    between atoms: C_6  and  C_11
    3  A    between atoms: C_8  and  C_11
    4  A    between atoms: C_16  and  C_21
    5  A    between atoms: C_19  and  C_21
                            x       y       z     vdW  Elec       q    Type
                         _______ _______ _______ _____ _____    ______ ____

>  <TORSDO>
F 5

$$$$
=
 OpenBabel10262420493D

 28 31  0  0  1  0  0  0  0  0999 V2000
  186.2270  178.1840  139.3700 C   0  0  0  0  0  2  0  0  0  0  0  0
  185.3220  179.2570  139.9780 C   0  0  2  0  0  3  0  0  0  0  0  0
  186.1620  178.7170  142.2940 C   0  0  1  0  0  3  0  0  0  0  0  0
  188.9380  176.7640  144.9470 C   0  0  0  0  0  2  0  0  0  0  0  0
  184.9250  178.9050  141.4150 C   0  0  0  0  0  2  0  0  0  0  0  0
  186.1550  177.3430  145.8380 C   0  0  0  0  0  2  0  0  0  0  0  0
  188.3320  177.3750  142.5930 C   0  0  1  0  0  3  0  0  0  0  0  0
  188.2020  177.5580  147.2370 C   0  0  2  0  0  3  0  0  0  0  0  0
  188.0410  177.6290  144.0730 C   0  0  1  0  0  3  0  0  0  0  0  0
  185.7290  178.4250  143.6740 N   0  0  0  0  0  2  0  0  0  0  0  0
  186.9630  178.2810  146.7260 C   0  0  0  0  0  2  0  0  0  0  0  0
  188.6960  178.1450  139.8030 C   0  0  0  0  0  0  0  0  0  0  0  0
  187.1020  177.6460  141.6940 C   0  0  2  0  0  3  0  0  0  0  0  0
  186.5440  177.4140  144.3570 C   0  0  2  0  0  3  0  0  0  0  0  0
  189.8550  177.8450  140.7150 C   0  0  0  0  0  2  0  0  0  0  0  0
  188.7020  178.2530  148.4860 C   0  0  0  0  0  1  0  0  0  0  0  0
  189.3220  177.5380  146.2010 C   0  0  0  0  0  2  0  0  0  0  0  0
  189.5320  178.1980  142.1550 C   0  0  0  0  0  2  0  0  0  0  0  0
  187.4250  177.9850  140.2490 C   0  0  0  0  0  0  0  0  0  0  0  0
  189.0560  179.7530  138.0940 O   0  0  0  0  0  0  0  0  0  0  0  0
  189.0390  178.5320  138.4080 C   0  0  0  0  0  0  0  0  0  0  0  0
  189.2750  177.5290  137.3270 C   0  0  0  0  0  2  0  0  0  0  0  0
  188.3340  177.7860  136.1670 C   0  0  0  0  0  1  0  0  0  0  0  0
  184.1020  179.5270  139.0970 C   0  0  0  0  0  2  0  0  0  0  0  0
  182.8090  178.9240  139.6460 C   0  0  0  0  0  2  0  0  0  0  0  0
  182.3350  177.7520  138.8020 C   0  0  0  0  0  3  0  0  0  0  0  0
  183.0100  177.7770  137.4430 C   0  0  0  0  0  1  0  0  0  0  0  0
  182.6810  176.4560  139.5050 C   0  0  0  0  0  1  0  0  0  0  0  0
  1  2  1  0  0  0  0
  1 19  1  0  0  0  0
  2 24  1  6  0  0  0
  2  5  1  0  0  0  0
  3  5  1  6  0  0  0
  3 10  1  0  0  0  0
  4 17  1  0  0  0  0
  6 11  1  0  0  0  0
  7 18  1  6  0  0  0
  7  9  1  0  0  0  0
  8 16  1  1  0  0  0
  9 14  1  0  0  0  0
  9  4  1  1  0  0  0
 10 14  1  0  0  0  0
 11  8  1  0  0  0  0
 12 19  2  0  0  0  0
 12 15  1  0  0  0  0
 13 19  1  6  0  0  0
 13  3  1  0  0  0  0
 13  7  1  0  0  0  0
 14  6  1  1  0  0  0
 15 18  1  0  0  0  0
 17  8  1  0  0  0  0
 20 21  2  0  0  0  0
 21 12  1  0  0  0  0
 22 21  1  0  0  0  0
 23 22  1  0  0  0  0
 24 25  1  0  0  0  0
 26 28  1  0  0  0  0
 26 25  1  0  0  0  0
 27 26  1  0  0  0  0
M  END
>  <MODEL>
7

>  <REMARK>
 VINA RESULT:      -8.1      2.805      7.968
  Name = 
  5 active torsions:
  status: ('A' for Active; 'I' for Inactive)
    1  A    between atoms: C_2  and  C_8
    2  A    between atoms: C_6  and  C_11
    3  A    between atoms: C_8  and  C_11
    4  A    between atoms: C_16  and  C_21
    5  A    between atoms: C_19  and  C_21
                            x       y       z     vdW  Elec       q    Type
                         _______ _______ _______ _____ _____    ______ ____

>  <TORSDO>
F 5

$$$$
=
 OpenBabel10262420493D

 28 31  0  0  1  0  0  0  0  0999 V2000
  187.4070  177.5130  143.0760 C   0  0  0  0  0  2  0  0  0  0  0  0
  187.6930  178.5060  141.9470 C   0  0  2  0  0  3  0  0  0  0  0  0
  185.2320  178.9910  141.6900 C   0  0  1  0  0  3  0  0  0  0  0  0
  181.1630  178.7240  143.0770 C   0  0  0  0  0  2  0  0  0  0  0  0
  186.5190  178.5920  140.9680 C   0  0  0  0  0  2  0  0  0  0  0  0
  181.7510  178.9530  140.1660 C   0  0  0  0  0  2  0  0  0  0  0  0
  183.5920  178.3410  143.5570 C   0  0  1  0  0  3  0  0  0  0  0  0
  179.8790  180.0760  141.3620 C   0  0  2  0  0  3  0  0  0  0  0  0
  182.5860  179.0180  142.6260 C   0  0  1  0  0  3  0  0  0  0  0  0
  184.1430  179.1040  140.7010 N   0  0  0  0  0  2  0  0  0  0  0  0
  181.0800  180.2910  140.4500 C   0  0  0  0  0  2  0  0  0  0  0  0
  186.0670  178.1640  145.0920 C   0  0  0  0  0  0  0  0  0  0  0  0
  184.9270  178.0110  142.8470 C   0  0  2  0  0  3  0  0  0  0  0  0
  182.8500  178.5940  141.1710 C   0  0  2  0  0  3  0  0  0  0  0  0
  184.7380  178.4560  145.7350 C   0  0  0  0  0  2  0  0  0  0  0  0
  178.9330  181.2490  141.2210 C   0  0  0  0  0  1  0  0  0  0  0  0
  180.2890  179.9460  142.8270 C   0  0  0  0  0  2  0  0  0  0  0  0
  183.8170  179.2040  144.7880 C   0  0  0  0  0  2  0  0  0  0  0  0
  186.1310  177.8940  143.7640 C   0  0  0  0  0  0  0  0  0  0  0  0
  187.0780  178.3320  147.2330 O   0  0  0  0  0  0  0  0  0  0  0  0
  187.2420  178.1130  146.0030 C   0  0  0  0  0  0  0  0  0  0  0  0
  188.6370  177.9060  145.5090 C   0  0  0  0  0  2  0  0  0  0  0  0
  189.4690  177.2260  146.5780 C   0  0  0  0  0  1  0  0  0  0  0  0
  189.0090  178.1830  141.2360 C   0  0  0  0  0  2  0  0  0  0  0  0
  188.8180  177.5030  139.8810 C   0  0  0  0  0  2  0  0  0  0  0  0
  190.0470  176.7030  139.4790 C   0  0  0  0  0  3  0  0  0  0  0  0
  190.4180  177.0010  138.0380 C   0  0  0  0  0  1  0  0  0  0  0  0
  191.2050  177.0760  140.3790 C   0  0  0  0  0  1  0  0  0  0  0  0
  1 19  1  0  0  0  0
  2 24  1  6  0  0  0
  2  1  1  0  0  0  0
  3  5  1  6  0  0  0
  3 13  1  0  0  0  0
  5  2  1  0  0  0  0
  6 11  1  0  0  0  0
  7 18  1  1  0  0  0
  8 16  1  1  0  0  0
  8 17  1  0  0  0  0
  9  4  1  1  0  0  0
  9  7  1  0  0  0  0
 10 14  1  0  0  0  0
 10  3  1  0  0  0  0
 11  8  1  0  0  0  0
 12 15  1  0  0  0  0
 12 21  1  0  0  0  0
 13  7  1  0  0  0  0
 13 19  1  1  0  0  0
 14  6  1  6  0  0  0
 14  9  1  0  0  0  0
 17  4  1  0  0  0  0
 18 15  1  0  0  0  0
 19 12  2  0  0  0  0
 21 20  2  0  0  0  0
 22 21  1  0  0  0  0
 22 23  1  0  0  0  0
 25 24  1  0  0  0  0
 26 25  1  0  0  0  0
 26 28  1  0  0  0  0
 27 26  1  0  0  0  0
M  END
>  <MODEL>
8

>  <REMARK>
 VINA RESULT:      -8.1      1.851      2.733
  Name = 
  5 active torsions:
  status: ('A' for Active; 'I' for Inactive)
    1  A    between atoms: C_2  and  C_8
    2  A    between atoms: C_6  and  C_11
    3  A    between atoms: C_8  and  C_11
    4  A    between atoms: C_16  and  C_21
    5  A    between atoms: C_19  and  C_21
                            x       y       z     vdW  Elec       q    Type
                         _______ _______ _______ _____ _____    ______ ____

>  <TORSDO>
F 5

$$$$
=
 OpenBabel10262420493D

 28 31  0  0  1  0  0  0  0  0999 V2000
  186.0020  179.1080  144.6540 C   0  0  0  0  0  2  0  0  0  0  0  0
  184.8740  178.7810  143.6720 C   0  0  2  0  0  3  0  0  0  0  0  0
  186.5460  178.2300  141.8660 C   0  0  1  0  0  3  0  0  0  0  0  0
  190.5720  177.4260  140.5600 C   0  0  0  0  0  2  0  0  0  0  0  0
  185.3010  179.0410  142.2240 C   0  0  0  0  0  2  0  0  0  0  0  0
  188.5900  178.6240  138.6860 C   0  0  0  0  0  2  0  0  0  0  0  0
  188.9990  177.7800  142.4800 C   0  0  1  0  0  3  0  0  0  0  0  0
  190.2850  176.8980  138.0990 C   0  0  2  0  0  3  0  0  0  0  0  0
  189.1110  177.5140  140.9780 C   0  0  1  0  0  3  0  0  0  0  0  0
  186.8900  178.4790  140.4530 N   0  0  0  0  0  2  0  0  0  0  0  0
  188.8020  177.2470  138.0690 C   0  0  0  0  0  2  0  0  0  0  0  0
  187.8390  177.4720  145.1380 C   0  0  0  0  0  0  0  0  0  0  0  0
  187.6980  178.5300  142.8520 C   0  0  2  0  0  3  0  0  0  0  0  0
  188.3300  178.5850  140.1960 C   0  0  2  0  0  3  0  0  0  0  0  0
  189.1160  176.7870  144.7310 C   0  0  0  0  0  2  0  0  0  0  0  0
  190.5650  175.8350  137.0580 C   0  0  0  0  0  1  0  0  0  0  0  0
  190.7230  176.3770  139.4660 C   0  0  0  0  0  2  0  0  0  0  0  0
  189.1270  176.4740  143.2460 C   0  0  0  0  0  2  0  0  0  0  0  0
  187.2280  178.3290  144.2820 C   0  0  0  0  0  0  0  0  0  0  0  0
  186.1350  177.2890  146.7800 O   0  0  0  0  0  0  0  0  0  0  0  0
  187.3670  177.2130  146.5240 C   0  0  0  0  0  0  0  0  0  0  0  0
  188.3020  176.9550  147.6610 C   0  0  0  0  0  2  0  0  0  0  0  0
  188.6050  178.2520  148.3850 C   0  0  0  0  0  1  0  0  0  0  0  0
  183.5860  179.5220  144.0310 C   0  0  0  0  0  2  0  0  0  0  0  0
  182.3500  178.6230  144.0440 C   0  0  0  0  0  2  0  0  0  0  0  0
  181.2180  179.2150  143.2190 C   0  0  0  0  0  3  0  0  0  0  0  0
  181.3080  178.7320  141.7830 C   0  0  0  0  0  1  0  0  0  0  0  0
  179.8910  178.7850  143.8070 C   0  0  0  0  0  1  0  0  0  0  0  0
  2 24  1  1  0  0  0
  2  1  1  0  0  0  0
  3  5  1  1  0  0  0
  3 13  1  0  0  0  0
  5  2  1  0  0  0  0
  7 13  1  0  0  0  0
  7 18  1  1  0  0  0
  8 16  1  6  0  0  0
  8 17  1  0  0  0  0
  9  4  1  6  0  0  0
  9  7  1  0  0  0  0
 10  3  1  0  0  0  0
 11  8  1  0  0  0  0
 11  6  1  0  0  0  0
 12 21  1  0  0  0  0
 13 19  1  1  0  0  0
 14  6  1  6  0  0  0
 14 10  1  0  0  0  0
 14  9  1  0  0  0  0
 15 12  1  0  0  0  0
 17  4  1  0  0  0  0
 18 15  1  0  0  0  0
 19  1  1  0  0  0  0
 19 12  2  0  0  0  0
 21 20  2  0  0  0  0
 21 22  1  0  0  0  0
 22 23  1  0  0  0  0
 24 25  1  0  0  0  0
 26 28  1  0  0  0  0
 26 25  1  0  0  0  0
 27 26  1  0  0  0  0
M  END
>  <MODEL>
9

>  <REMARK>
 VINA RESULT:      -8.0      2.351      6.318
  Name = 
  5 active torsions:
  status: ('A' for Active; 'I' for Inactive)
    1  A    between atoms: C_2  and  C_8
    2  A    between atoms: C_6  and  C_11
    3  A    between atoms: C_8  and  C_11
    4  A    between atoms: C_16  and  C_21
    5  A    between atoms: C_19  and  C_21
                            x       y       z     vdW  Elec       q    Type
                         _______ _______ _______ _____ _____    ______ ____

>  <TORSDO>
F 5

$$$$
