=
 OpenBabel10262423313D

 34 39  0  0  1  0  0  0  0  0999 V2000
  186.0920  177.7870  138.2100 N   0  0  0  0  0  0  0  0  0  0  0  0
  182.3220  178.6790  138.0730 C   0  0  0  0  0  2  0  0  0  0  0  0
  183.7170  177.2700  136.5420 C   0  0  0  0  0  2  0  0  0  0  0  0
  188.3620  177.0200  138.8670 C   0  0  1  0  0  3  0  0  0  0  0  0
  187.3870  178.2120  138.7550 C   0  0  0  0  0  2  0  0  0  0  0  0
  187.2090  176.0290  136.9040 C   0  0  0  0  0  0  0  0  0  0  0  0
  186.8230  175.0150  135.6250 S   0  0  0  0  0  0  0  0  0  0  0  0
  188.5390  176.2550  137.5430 C   0  0  0  0  0  2  0  0  0  0  0  0
  184.9840  176.4880  136.4050 C   0  0  0  0  0  0  0  0  0  0  0  0
  186.0970  176.7840  137.1880 C   0  0  0  0  0  0  0  0  0  0  0  0
  185.2090  175.5070  135.4400 C   0  0  0  0  0  3  0  0  0  0  0  0
  182.0370  179.2090  139.4840 C   0  0  0  0  0  2  0  0  0  0  0  0
  182.5640  178.2890  140.5930 C   0  0  1  0  0  3  0  0  0  0  0  0
  184.0920  178.3460  140.7900 C   0  0  0  0  0  2  0  0  0  0  0  0
  183.6100  177.8610  137.9520 C   0  0  1  0  0  3  0  0  0  0  0  0
  184.8230  179.2350  139.7770 C   0  0  0  0  0  2  0  0  0  0  0  0
  184.8960  178.6340  138.3620 C   0  0  1  0  0  3  0  0  0  0  0  0
  181.8700  178.5760  141.8820 C   0  0  0  0  0  0  0  0  0  0  0  0
  182.6090  178.9920  142.9810 O   0  0  0  0  0  1  0  0  0  0  0  0
  180.6210  178.4460  141.9810 O   0  0  0  0  0  0  0  0  0  0  0  0
  189.6220  177.4250  139.4070 O   0  0  0  0  0  0  0  0  0  0  0  0
  191.7120  177.2980  142.4570 C   0  0  0  0  0  3  0  0  0  0  0  0
  188.9940  177.3530  141.7800 C   0  0  0  0  0  3  0  0  0  0  0  0
  190.1560  177.1950  145.8180 C   0  0  0  0  0  0  0  0  0  0  0  0
  191.1270  177.2210  144.8070 C   0  0  0  0  0  3  0  0  0  0  0  0
  190.7450  177.2740  143.4640 C   0  0  0  0  0  0  0  0  0  0  0  0
  188.4070  177.2750  144.1290 C   0  0  0  0  0  3  0  0  0  0  0  0
  189.3750  177.3020  143.1220 C   0  0  0  0  0  0  0  0  0  0  0  0
  188.7970  177.2220  145.4700 C   0  0  0  0  0  3  0  0  0  0  0  0
  189.9670  177.3760  140.7660 C   0  0  0  0  0  0  0  0  0  0  0  0
  191.3220  177.3500  141.1140 C   0  0  0  0  0  3  0  0  0  0  0  0
  190.5600  177.1400  147.2340 C   0  0  0  0  0  0  0  0  0  0  0  0
  189.7670  177.5160  148.1380 O   0  0  0  0  0  0  0  0  0  0  0  0
  191.8520  176.6590  147.5980 N   0  0  0  0  0  1  0  0  0  0  0  0
  1 17  1  0  0  0  0
  1  5  1  0  0  0  0
  2 12  1  0  0  0  0
  4 21  1  6  0  0  0
  5  4  1  0  0  0  0
  6 10  2  0  0  0  0
  6  8  1  0  0  0  0
  7  6  1  0  0  0  0
  8  4  1  0  0  0  0
  9  3  1  0  0  0  0
  9 10  1  0  0  0  0
 10  1  1  0  0  0  0
 11  7  1  0  0  0  0
 11  9  2  0  0  0  0
 12 13  1  0  0  0  0
 13 14  1  0  0  0  0
 13 18  1  1  0  0  0
 15  3  1  6  0  0  0
 15  2  1  0  0  0  0
 15 17  1  0  0  0  0
 16 14  1  0  0  0  0
 17 16  1  1  0  0  0
 18 20  2  0  0  0  0
 18 19  1  0  0  0  0
 21 30  1  0  0  0  0
 22 26  1  0  0  0  0
 23 28  1  0  0  0  0
 24 32  1  0  0  0  0
 25 24  2  0  0  0  0
 26 25  1  0  0  0  0
 27 29  2  0  0  0  0
 28 26  2  0  0  0  0
 28 27  1  0  0  0  0
 29 24  1  0  0  0  0
 30 31  1  0  0  0  0
 30 23  2  0  0  0  0
 31 22  2  0  0  0  0
 32 34  1  0  0  0  0
 32 33  2  0  0  0  0
M  END
>  <MODEL>
1

>  <REMARK>
 VINA RESULT:      -9.1      0.000      0.000
  Name = 
  4 active torsions:
  status: ('A' for Active; 'I' for Inactive)
    1  A    between atoms: C_3  and  C_25
    2  A    between atoms: C_7  and  C_11
    3  A    between atoms: C_8  and  O_18
    4  A    between atoms: O_18  and  C_30
                            x       y       z     vdW  Elec       q    Type
                         _______ _______ _______ _____ _____    ______ ____

>  <TORSDO>
F 4

$$$$
=
 OpenBabel10262423313D

 34 39  0  0  1  0  0  0  0  0999 V2000
  184.0830  178.7810  141.0030 N   0  0  0  0  0  0  0  0  0  0  0  0
  183.9250  179.3220  144.8390 C   0  0  0  0  0  2  0  0  0  0  0  0
  182.0940  178.9360  143.1730 C   0  0  0  0  0  2  0  0  0  0  0  0
  184.5730  177.9790  138.7030 C   0  0  1  0  0  3  0  0  0  0  0  0
  184.9150  178.9960  139.8130 C   0  0  0  0  0  2  0  0  0  0  0  0
  182.2510  177.9600  139.5830 C   0  0  0  0  0  0  0  0  0  0  0  0
  180.6090  177.6560  139.7480 S   0  0  0  0  0  0  0  0  0  0  0  0
  183.0760  177.9590  138.3400 C   0  0  0  0  0  2  0  0  0  0  0  0
  181.7600  178.4210  141.8100 C   0  0  0  0  0  0  0  0  0  0  0  0
  182.7190  178.3940  140.8000 C   0  0  0  0  0  0  0  0  0  0  0  0
  180.4830  178.0450  141.3950 C   0  0  0  0  0  3  0  0  0  0  0  0
  185.3730  179.0860  145.2840 C   0  0  0  0  0  2  0  0  0  0  0  0
  185.9760  177.7930  144.7190 C   0  0  1  0  0  3  0  0  0  0  0  0
  186.3610  177.8720  143.2290 C   0  0  0  0  0  2  0  0  0  0  0  0
  183.5910  178.7690  143.4510 C   0  0  1  0  0  3  0  0  0  0  0  0
  185.9790  179.1930  142.5510 C   0  0  0  0  0  2  0  0  0  0  0  0
  184.4680  179.3520  142.3050 C   0  0  1  0  0  3  0  0  0  0  0  0
  187.1550  177.3700  145.5310 C   0  0  0  0  0  0  0  0  0  0  0  0
  188.3150  176.9560  144.8910 O   0  0  0  0  0  0  0  0  0  0  0  0
  187.1070  177.3860  146.7900 O   0  0  0  0  0  1  0  0  0  0  0  0
  185.3870  178.1760  137.5460 O   0  0  0  0  0  0  0  0  0  0  0  0
  188.5830  177.0920  136.0290 C   0  0  0  0  0  3  0  0  0  0  0  0
  187.5870  177.7680  138.5590 C   0  0  0  0  0  3  0  0  0  0  0  0
  191.6120  176.6360  138.1160 C   0  0  0  0  0  0  0  0  0  0  0  0
  190.7640  176.6760  136.9980 C   0  0  0  0  0  3  0  0  0  0  0  0
  189.4270  177.0530  137.1410 C   0  0  0  0  0  0  0  0  0  0  0  0
  189.7670  177.3530  139.5290 C   0  0  0  0  0  3  0  0  0  0  0  0
  188.9240  177.3950  138.4160 C   0  0  0  0  0  0  0  0  0  0  0  0
  191.1040  176.9750  139.3780 C   0  0  0  0  0  3  0  0  0  0  0  0
  186.7370  177.8070  137.4410 C   0  0  0  0  0  0  0  0  0  0  0  0
  187.2440  177.4690  136.1810 C   0  0  0  0  0  3  0  0  0  0  0  0
  193.0220  176.2390  137.9630 C   0  0  0  0  0  0  0  0  0  0  0  0
  193.8470  176.4520  138.8910 O   0  0  0  0  0  0  0  0  0  0  0  0
  193.4710  175.6100  136.7640 N   0  0  0  0  0  1  0  0  0  0  0  0
  1 17  1  0  0  0  0
  2 12  1  0  0  0  0
  4 21  1  6  0  0  0
  4  5  1  0  0  0  0
  5  1  1  0  0  0  0
  6  7  1  0  0  0  0
  6 10  2  0  0  0  0
  7 11  1  0  0  0  0
  8  4  1  0  0  0  0
  8  6  1  0  0  0  0
  9  3  1  0  0  0  0
 10  1  1  0  0  0  0
 10  9  1  0  0  0  0
 11  9  2  0  0  0  0
 13 12  1  0  0  0  0
 13 18  1  1  0  0  0
 14 13  1  0  0  0  0
 15  3  1  6  0  0  0
 15  2  1  0  0  0  0
 16 14  1  0  0  0  0
 17 16  1  1  0  0  0
 17 15  1  0  0  0  0
 18 20  1  0  0  0  0
 19 18  2  0  0  0  0
 22 31  2  0  0  0  0
 22 26  1  0  0  0  0
 24 29  1  0  0  0  0
 25 26  1  0  0  0  0
 25 24  2  0  0  0  0
 26 28  2  0  0  0  0
 28 23  1  0  0  0  0
 28 27  1  0  0  0  0
 29 27  2  0  0  0  0
 30 21  1  0  0  0  0
 30 23  2  0  0  0  0
 31 30  1  0  0  0  0
 32 24  1  0  0  0  0
 32 33  2  0  0  0  0
 34 32  1  0  0  0  0
M  END
>  <MODEL>
2

>  <REMARK>
 VINA RESULT:      -8.9      3.494      6.438
  Name = 
  4 active torsions:
  status: ('A' for Active; 'I' for Inactive)
    1  A    between atoms: C_3  and  C_25
    2  A    between atoms: C_7  and  C_11
    3  A    between atoms: C_8  and  O_18
    4  A    between atoms: O_18  and  C_30
                            x       y       z     vdW  Elec       q    Type
                         _______ _______ _______ _____ _____    ______ ____

>  <TORSDO>
F 4

$$$$
=
 OpenBabel10262423313D

 34 39  0  0  1  0  0  0  0  0999 V2000
  189.1290  177.9390  143.9760 N   0  0  0  0  0  0  0  0  0  0  0  0
  192.0140  177.5610  141.4140 C   0  0  0  0  0  2  0  0  0  0  0  0
  191.9930  177.2450  143.9000 C   0  0  0  0  0  2  0  0  0  0  0  0
  186.9970  177.7770  145.2420 C   0  0  1  0  0  3  0  0  0  0  0  0
  187.8170  178.5610  144.1950 C   0  0  0  0  0  2  0  0  0  0  0  0
  189.1520  177.1500  146.3050 C   0  0  0  0  0  0  0  0  0  0  0  0
  190.2790  176.5320  147.3820 S   0  0  0  0  0  0  0  0  0  0  0  0
  187.7470  177.5770  146.5720 C   0  0  0  0  0  2  0  0  0  0  0  0
  191.1370  177.0010  145.1010 C   0  0  0  0  0  0  0  0  0  0  0  0
  189.7950  177.3730  145.1110 C   0  0  0  0  0  0  0  0  0  0  0  0
  191.6020  176.5090  146.3190 C   0  0  0  0  0  3  0  0  0  0  0  0
  191.2800  177.4910  140.0700 C   0  0  0  0  0  2  0  0  0  0  0  0
  190.1200  176.4860  140.0670 C   0  0  1  0  0  3  0  0  0  0  0  0
  188.8640  176.9670  140.8210 C   0  0  0  0  0  2  0  0  0  0  0  0
  191.1300  177.2870  142.6340 C   0  0  1  0  0  3  0  0  0  0  0  0
  189.0330  178.3180  141.5250 C   0  0  0  0  0  2  0  0  0  0  0  0
  189.9240  178.2590  142.7790 C   0  0  1  0  0  3  0  0  0  0  0  0
  189.7640  176.1060  138.6690 C   0  0  0  0  0  0  0  0  0  0  0  0
  190.4550  175.0790  138.0410 O   0  0  0  0  0  0  0  0  0  0  0  0
  188.8420  176.7060  138.0550 O   0  0  0  0  0  1  0  0  0  0  0  0
  185.7150  178.3720  145.4520 O   0  0  0  0  0  0  0  0  0  0  0  0
  182.3780  178.9020  143.9440 C   0  0  0  0  0  3  0  0  0  0  0  0
  184.9890  178.3300  143.1060 C   0  0  0  0  0  3  0  0  0  0  0  0
  181.9030  178.7000  140.2750 C   0  0  0  0  0  0  0  0  0  0  0  0
  181.6280  178.8620  141.6410 C   0  0  0  0  0  3  0  0  0  0  0  0
  182.6510  178.7410  142.5850 C   0  0  0  0  0  0  0  0  0  0  0  0
  184.2420  178.2900  140.8030 C   0  0  0  0  0  3  0  0  0  0  0  0
  183.9680  178.4540  142.1620 C   0  0  0  0  0  0  0  0  0  0  0  0
  183.2130  178.4130  139.8640 C   0  0  0  0  0  3  0  0  0  0  0  0
  184.7150  178.4900  144.4750 C   0  0  0  0  0  0  0  0  0  0  0  0
  183.4070  178.7770  144.8840 C   0  0  0  0  0  3  0  0  0  0  0  0
  180.8230  178.8280  139.2810 C   0  0  0  0  0  0  0  0  0  0  0  0
  180.9740  179.5620  138.2680 O   0  0  0  0  0  0  0  0  0  0  0  0
  179.5950  178.1240  139.4520 N   0  0  0  0  0  1  0  0  0  0  0  0
  1  5  1  0  0  0  0
  1 10  1  0  0  0  0
  3  9  1  0  0  0  0
  4 21  1  1  0  0  0
  4  8  1  0  0  0  0
  5  4  1  0  0  0  0
  6  8  1  0  0  0  0
  6  7  1  0  0  0  0
  9 10  1  0  0  0  0
  9 11  2  0  0  0  0
 10  6  2  0  0  0  0
 11  7  1  0  0  0  0
 12  2  1  0  0  0  0
 13 18  1  6  0  0  0
 13 12  1  0  0  0  0
 13 14  1  0  0  0  0
 14 16  1  0  0  0  0
 15  2  1  6  0  0  0
 15 17  1  0  0  0  0
 15  3  1  0  0  0  0
 17 16  1  6  0  0  0
 17  1  1  0  0  0  0
 19 18  2  0  0  0  0
 20 18  1  0  0  0  0
 22 31  1  0  0  0  0
 23 30  1  0  0  0  0
 24 25  2  0  0  0  0
 25 26  1  0  0  0  0
 26 22  2  0  0  0  0
 27 28  1  0  0  0  0
 28 26  1  0  0  0  0
 28 23  2  0  0  0  0
 29 24  1  0  0  0  0
 29 27  2  0  0  0  0
 30 31  2  0  0  0  0
 30 21  1  0  0  0  0
 32 34  1  0  0  0  0
 32 24  1  0  0  0  0
 33 32  2  0  0  0  0
M  END
>  <MODEL>
3

>  <REMARK>
 VINA RESULT:      -8.9      3.458      9.158
  Name = 
  4 active torsions:
  status: ('A' for Active; 'I' for Inactive)
    1  A    between atoms: C_3  and  C_25
    2  A    between atoms: C_7  and  C_11
    3  A    between atoms: C_8  and  O_18
    4  A    between atoms: O_18  and  C_30
                            x       y       z     vdW  Elec       q    Type
                         _______ _______ _______ _____ _____    ______ ____

>  <TORSDO>
F 4

$$$$
=
 OpenBabel10262423313D

 34 39  0  0  1  0  0  0  0  0999 V2000
  181.8260  179.3850  140.4720 N   0  0  0  0  0  0  0  0  0  0  0  0
  179.0910  181.0800  138.3100 C   0  0  0  0  0  2  0  0  0  0  0  0
  178.9340  179.9500  140.5400 C   0  0  0  0  0  2  0  0  0  0  0  0
  183.8580  178.8490  141.7980 C   0  0  1  0  0  3  0  0  0  0  0  0
  183.1590  178.7720  140.4240 C   0  0  0  0  0  2  0  0  0  0  0  0
  181.6040  178.7340  142.8330 C   0  0  0  0  0  0  0  0  0  0  0  0
  180.3730  178.6220  143.9670 S   0  0  0  0  0  0  0  0  0  0  0  0
  183.0140  178.2570  142.9420 C   0  0  0  0  0  2  0  0  0  0  0  0
  179.6940  179.4950  141.7440 C   0  0  0  0  0  0  0  0  0  0  0  0
  181.0540  179.2060  141.6650 C   0  0  0  0  0  0  0  0  0  0  0  0
  179.1220  179.2120  142.9840 C   0  0  0  0  0  3  0  0  0  0  0  0
  179.9030  181.9040  137.3040 C   0  0  0  0  0  2  0  0  0  0  0  0
  180.9940  182.7600  137.9640 C   0  0  1  0  0  3  0  0  0  0  0  0
  182.2270  181.9620  138.4310 C   0  0  0  0  0  2  0  0  0  0  0  0
  179.8760  180.6400  139.5480 C   0  0  1  0  0  3  0  0  0  0  0  0
  182.1020  180.4460  138.2450 C   0  0  0  0  0  2  0  0  0  0  0  0
  181.1310  179.7760  139.2340 C   0  0  1  0  0  3  0  0  0  0  0  0
  181.4120  183.8640  137.0520 C   0  0  0  0  0  0  0  0  0  0  0  0
  182.2590  184.8590  137.5240 O   0  0  0  0  0  1  0  0  0  0  0  0
  181.0070  183.9020  135.8600 O   0  0  0  0  0  0  0  0  0  0  0  0
  185.1610  178.2630  141.7550 O   0  0  0  0  0  0  0  0  0  0  0  0
  186.2540  178.0930  145.2850 C   0  0  0  0  0  3  0  0  0  0  0  0
  187.3370  177.6820  142.7340 C   0  0  0  0  0  3  0  0  0  0  0  0
  189.7310  177.1450  146.1480 C   0  0  0  0  0  0  0  0  0  0  0  0
  188.3890  177.5300  146.2830 C   0  0  0  0  0  3  0  0  0  0  0  0
  187.5900  177.7090  145.1510 C   0  0  0  0  0  0  0  0  0  0  0  0
  189.4710  177.1190  143.7300 C   0  0  0  0  0  3  0  0  0  0  0  0
  188.1350  177.5010  143.8650 C   0  0  0  0  0  0  0  0  0  0  0  0
  190.2650  176.9420  144.8670 C   0  0  0  0  0  3  0  0  0  0  0  0
  185.9930  178.0700  142.8680 C   0  0  0  0  0  0  0  0  0  0  0  0
  185.4610  178.2720  144.1460 C   0  0  0  0  0  3  0  0  0  0  0  0
  190.5720  176.9560  147.3430 C   0  0  0  0  0  0  0  0  0  0  0  0
  190.3770  177.6520  148.3750 O   0  0  0  0  0  0  0  0  0  0  0  0
  191.6150  175.9840  147.3470 N   0  0  0  0  0  1  0  0  0  0  0  0
  1 10  1  0  0  0  0
  3  9  1  0  0  0  0
  4 21  1  6  0  0  0
  4  8  1  0  0  0  0
  5  1  1  0  0  0  0
  5  4  1  0  0  0  0
  6  8  1  0  0  0  0
  6  7  1  0  0  0  0
  9 11  2  0  0  0  0
 10  9  1  0  0  0  0
 10  6  2  0  0  0  0
 11  7  1  0  0  0  0
 12 13  1  0  0  0  0
 12  2  1  0  0  0  0
 13 18  1  6  0  0  0
 13 14  1  0  0  0  0
 15  2  1  6  0  0  0
 15  3  1  0  0  0  0
 16 14  1  0  0  0  0
 17 16  1  6  0  0  0
 17 15  1  0  0  0  0
 17  1  1  0  0  0  0
 18 19  1  0  0  0  0
 20 18  2  0  0  0  0
 21 30  1  0  0  0  0
 23 30  2  0  0  0  0
 23 28  1  0  0  0  0
 24 25  1  0  0  0  0
 24 32  1  0  0  0  0
 26 22  1  0  0  0  0
 26 25  2  0  0  0  0
 27 28  2  0  0  0  0
 27 29  1  0  0  0  0
 28 26  1  0  0  0  0
 29 24  2  0  0  0  0
 30 31  1  0  0  0  0
 31 22  2  0  0  0  0
 32 34  1  0  0  0  0
 32 33  2  0  0  0  0
M  END
>  <MODEL>
4

>  <REMARK>
 VINA RESULT:      -8.9      3.710      5.673
  Name = 
  4 active torsions:
  status: ('A' for Active; 'I' for Inactive)
    1  A    between atoms: C_3  and  C_25
    2  A    between atoms: C_7  and  C_11
    3  A    between atoms: C_8  and  O_18
    4  A    between atoms: O_18  and  C_30
                            x       y       z     vdW  Elec       q    Type
                         _______ _______ _______ _____ _____    ______ ____

>  <TORSDO>
F 4

$$$$
=
 OpenBabel10262423313D

 34 39  0  0  1  0  0  0  0  0999 V2000
  183.0890  177.3930  138.0720 N   0  0  0  0  0  0  0  0  0  0  0  0
  181.4910  175.4290  135.1360 C   0  0  0  0  0  2  0  0  0  0  0  0
  183.6780  176.6430  135.2830 C   0  0  0  0  0  2  0  0  0  0  0  0
  184.0230  178.1190  140.2570 C   0  0  1  0  0  3  0  0  0  0  0  0
  182.7900  178.0890  139.3290 C   0  0  0  0  0  2  0  0  0  0  0  0
  185.4300  178.1320  138.2110 C   0  0  0  0  0  0  0  0  0  0  0  0
  186.7570  178.2120  137.1880 S   0  0  0  0  0  0  0  0  0  0  0  0
  185.2770  178.7050  139.5810 C   0  0  0  0  0  2  0  0  0  0  0  0
  184.7160  177.2000  136.2030 C   0  0  0  0  0  0  0  0  0  0  0  0
  184.3920  177.5740  137.5050 C   0  0  0  0  0  0  0  0  0  0  0  0
  186.0260  177.4990  135.8320 C   0  0  0  0  0  3  0  0  0  0  0  0
  180.3860  174.6160  135.8220 C   0  0  0  0  0  2  0  0  0  0  0  0
  180.8730  173.8640  137.0680 C   0  0  1  0  0  3  0  0  0  0  0  0
  181.0930  174.7610  138.3020 C   0  0  0  0  0  2  0  0  0  0  0  0
  182.5590  175.9730  136.0880 C   0  0  1  0  0  3  0  0  0  0  0  0
  180.8830  176.2560  138.0380 C   0  0  0  0  0  2  0  0  0  0  0  0
  182.0040  176.9030  137.2050 C   0  0  1  0  0  3  0  0  0  0  0  0
  179.9390  172.7500  137.4030 C   0  0  0  0  0  0  0  0  0  0  0  0
  180.1790  171.4790  136.8990 O   0  0  0  0  0  0  0  0  0  0  0  0
  178.9370  172.9520  138.1390 O   0  0  0  0  0  1  0  0  0  0  0  0
  183.7350  178.7870  141.4870 O   0  0  0  0  0  0  0  0  0  0  0  0
  184.5290  178.8520  145.0990 C   0  0  0  0  0  3  0  0  0  0  0  0
  185.7480  178.0750  142.7000 C   0  0  0  0  0  3  0  0  0  0  0  0
  187.7970  177.6230  146.3440 C   0  0  0  0  0  0  0  0  0  0  0  0
  186.5020  178.1630  146.3260 C   0  0  0  0  0  3  0  0  0  0  0  0
  185.8170  178.3140  145.1170 C   0  0  0  0  0  0  0  0  0  0  0  0
  187.7210  177.3860  143.9240 C   0  0  0  0  0  3  0  0  0  0  0  0
  186.4310  177.9210  143.9070 C   0  0  0  0  0  0  0  0  0  0  0  0
  188.3990  177.2380  145.1370 C   0  0  0  0  0  3  0  0  0  0  0  0
  184.4520  178.6170  142.6810 C   0  0  0  0  0  0  0  0  0  0  0  0
  183.8510  179.0010  143.8850 C   0  0  0  0  0  3  0  0  0  0  0  0
  188.5170  177.4650  147.6190 C   0  0  0  0  0  0  0  0  0  0  0  0
  189.6880  177.0010  147.6350 O   0  0  0  0  0  0  0  0  0  0  0  0
  187.8980  177.8340  148.8490 N   0  0  0  0  0  1  0  0  0  0  0  0
  1  5  1  0  0  0  0
  2 12  1  0  0  0  0
  3 15  1  0  0  0  0
  3  9  1  0  0  0  0
  4 21  1  1  0  0  0
  5  4  1  0  0  0  0
  6  8  1  0  0  0  0
  7  6  1  0  0  0  0
  8  4  1  0  0  0  0
  9 10  1  0  0  0  0
 10  1  1  0  0  0  0
 10  6  2  0  0  0  0
 11  9  2  0  0  0  0
 11  7  1  0  0  0  0
 12 13  1  0  0  0  0
 13 18  1  1  0  0  0
 13 14  1  0  0  0  0
 15  2  1  6  0  0  0
 15 17  1  0  0  0  0
 16 14  1  0  0  0  0
 17 16  1  1  0  0  0
 17  1  1  0  0  0  0
 18 20  1  0  0  0  0
 19 18  2  0  0  0  0
 21 30  1  0  0  0  0
 22 26  1  0  0  0  0
 23 28  1  0  0  0  0
 24 32  1  0  0  0  0
 25 24  1  0  0  0  0
 26 25  2  0  0  0  0
 27 29  1  0  0  0  0
 28 27  2  0  0  0  0
 28 26  1  0  0  0  0
 29 24  2  0  0  0  0
 30 23  2  0  0  0  0
 30 31  1  0  0  0  0
 31 22  2  0  0  0  0
 32 33  2  0  0  0  0
 32 34  1  0  0  0  0
M  END
>  <MODEL>
5

>  <REMARK>
 VINA RESULT:      -8.8      3.227      4.814
  Name = 
  4 active torsions:
  status: ('A' for Active; 'I' for Inactive)
    1  A    between atoms: C_3  and  C_25
    2  A    between atoms: C_7  and  C_11
    3  A    between atoms: C_8  and  O_18
    4  A    between atoms: O_18  and  C_30
                            x       y       z     vdW  Elec       q    Type
                         _______ _______ _______ _____ _____    ______ ____

>  <TORSDO>
F 4

$$$$
=
 OpenBabel10262423313D

 34 39  0  0  1  0  0  0  0  0999 V2000
  183.1040  178.9890  140.8590 N   0  0  0  0  0  0  0  0  0  0  0  0
  179.5780  179.8370  139.4900 C   0  0  0  0  0  2  0  0  0  0  0  0
  180.3050  179.1080  141.7740 C   0  0  0  0  0  2  0  0  0  0  0  0
  185.4980  179.0130  141.5250 C   0  0  1  0  0  3  0  0  0  0  0  0
  184.4590  178.5880  140.4640 C   0  0  0  0  0  2  0  0  0  0  0  0
  183.7120  178.7390  143.2290 C   0  0  0  0  0  0  0  0  0  0  0  0
  182.9120  178.6420  144.7000 S   0  0  0  0  0  0  0  0  0  0  0  0
  185.1580  178.5100  142.9410 C   0  0  0  0  0  2  0  0  0  0  0  0
  181.4560  178.9950  142.7200 C   0  0  0  0  0  0  0  0  0  0  0  0
  182.7640  178.9070  142.2480 C   0  0  0  0  0  0  0  0  0  0  0  0
  181.3370  178.8510  144.1020 C   0  0  0  0  0  3  0  0  0  0  0  0
  179.8810  180.5850  138.1860 C   0  0  0  0  0  2  0  0  0  0  0  0
  180.9220  181.7000  138.3570 C   0  0  1  0  0  3  0  0  0  0  0  0
  182.3710  181.1950  138.5010 C   0  0  0  0  0  2  0  0  0  0  0  0
  180.7600  179.7480  140.4580 C   0  0  1  0  0  3  0  0  0  0  0  0
  182.5030  179.6690  138.5490 C   0  0  0  0  0  2  0  0  0  0  0  0
  182.0160  179.0440  139.8690 C   0  0  1  0  0  3  0  0  0  0  0  0
  180.8280  182.6770  137.2330 C   0  0  0  0  0  0  0  0  0  0  0  0
  181.4570  183.9090  137.3420 O   0  0  0  0  0  1  0  0  0  0  0  0
  180.1850  182.3930  136.1870 O   0  0  0  0  0  0  0  0  0  0  0  0
  186.8210  178.6340  141.1410 O   0  0  0  0  0  0  0  0  0  0  0  0
  190.0770  177.3490  142.3400 C   0  0  0  0  0  3  0  0  0  0  0  0
  187.6060  178.1200  143.4110 C   0  0  0  0  0  3  0  0  0  0  0  0
  190.6680  176.7590  145.9500 C   0  0  0  0  0  0  0  0  0  0  0  0
  190.8810  176.8280  144.5650 C   0  0  0  0  0  3  0  0  0  0  0  0
  189.8660  177.2810  143.7180 C   0  0  0  0  0  0  0  0  0  0  0  0
  188.4070  177.6000  145.6360 C   0  0  0  0  0  3  0  0  0  0  0  0
  188.6200  177.6700  144.2580 C   0  0  0  0  0  0  0  0  0  0  0  0
  189.4270  177.1460  146.4780 C   0  0  0  0  0  3  0  0  0  0  0  0
  187.8170  178.1880  142.0230 C   0  0  0  0  0  0  0  0  0  0  0  0
  189.0550  177.8020  141.4980 C   0  0  0  0  0  3  0  0  0  0  0  0
  191.7390  176.2820  146.8420 C   0  0  0  0  0  0  0  0  0  0  0  0
  192.4300  175.2760  146.5260 O   0  0  0  0  0  0  0  0  0  0  0  0
  192.0080  176.9510  148.0720 N   0  0  0  0  0  1  0  0  0  0  0  0
  1 10  1  0  0  0  0
  3  9  1  0  0  0  0
  4 21  1  6  0  0  0
  4  8  1  0  0  0  0
  5  1  1  0  0  0  0
  5  4  1  0  0  0  0
  6  7  1  0  0  0  0
  8  6  1  0  0  0  0
  9 11  2  0  0  0  0
 10  9  1  0  0  0  0
 10  6  2  0  0  0  0
 11  7  1  0  0  0  0
 12 13  1  0  0  0  0
 12  2  1  0  0  0  0
 13 18  1  6  0  0  0
 13 14  1  0  0  0  0
 14 16  1  0  0  0  0
 15  2  1  6  0  0  0
 15  3  1  0  0  0  0
 17 16  1  6  0  0  0
 17 15  1  0  0  0  0
 17  1  1  0  0  0  0
 18 19  1  0  0  0  0
 20 18  2  0  0  0  0
 21 30  1  0  0  0  0
 22 26  1  0  0  0  0
 23 28  1  0  0  0  0
 24 29  1  0  0  0  0
 24 32  1  0  0  0  0
 25 24  2  0  0  0  0
 26 28  2  0  0  0  0
 26 25  1  0  0  0  0
 27 29  2  0  0  0  0
 28 27  1  0  0  0  0
 30 23  2  0  0  0  0
 31 30  1  0  0  0  0
 31 22  2  0  0  0  0
 32 34  1  0  0  0  0
 33 32  2  0  0  0  0
M  END
>  <MODEL>
6

>  <REMARK>
 VINA RESULT:      -8.7      3.384      4.856
  Name = 
  4 active torsions:
  status: ('A' for Active; 'I' for Inactive)
    1  A    between atoms: C_3  and  C_25
    2  A    between atoms: C_7  and  C_11
    3  A    between atoms: C_8  and  O_18
    4  A    between atoms: O_18  and  C_30
                            x       y       z     vdW  Elec       q    Type
                         _______ _______ _______ _____ _____    ______ ____

>  <TORSDO>
F 4

$$$$
=
 OpenBabel10262423313D

 34 39  0  0  1  0  0  0  0  0999 V2000
  189.1110  176.7630  137.1520 N   0  0  0  0  0  0  0  0  0  0  0  0
  186.1990  176.7930  134.5940 C   0  0  0  0  0  2  0  0  0  0  0  0
  188.3180  175.4580  134.6310 C   0  0  0  0  0  2  0  0  0  0  0  0
  190.5210  176.6290  139.1940 C   0  0  1  0  0  3  0  0  0  0  0  0
  189.7620  177.5450  138.2100 C   0  0  0  0  0  2  0  0  0  0  0  0
  190.8930  175.0740  137.2930 C   0  0  0  0  0  0  0  0  0  0  0  0
  191.4410  173.7860  136.3700 S   0  0  0  0  0  0  0  0  0  0  0  0
  191.5240  175.6910  138.4980 C   0  0  0  0  0  2  0  0  0  0  0  0
  189.4370  174.9510  135.4830 C   0  0  0  0  0  0  0  0  0  0  0  0
  189.8050  175.6150  136.6510 C   0  0  0  0  0  0  0  0  0  0  0  0
  190.2670  173.8820  135.1490 C   0  0  0  0  0  3  0  0  0  0  0  0
  185.0720  177.4990  135.3570 C   0  0  0  0  0  2  0  0  0  0  0  0
  184.8460  176.9290  136.7640 C   0  0  1  0  0  3  0  0  0  0  0  0
  185.9150  177.3450  137.7940 C   0  0  0  0  0  2  0  0  0  0  0  0
  187.3260  176.2600  135.4800 C   0  0  1  0  0  3  0  0  0  0  0  0
  187.0660  178.1690  137.2060 C   0  0  0  0  0  2  0  0  0  0  0  0
  188.0350  177.3500  136.3350 C   0  0  1  0  0  3  0  0  0  0  0  0
  183.4870  177.2920  137.2610 C   0  0  0  0  0  0  0  0  0  0  0  0
  183.2040  177.1970  138.6170 O   0  0  0  0  0  1  0  0  0  0  0  0
  182.5950  177.6860  136.4630 O   0  0  0  0  0  0  0  0  0  0  0  0
  191.1480  177.3840  140.2320 O   0  0  0  0  0  0  0  0  0  0  0  0
  191.1460  177.8610  143.9010 C   0  0  0  0  0  3  0  0  0  0  0  0
  189.3000  177.3800  141.8490 C   0  0  0  0  0  3  0  0  0  0  0  0
  187.9820  177.7370  145.8260 C   0  0  0  0  0  0  0  0  0  0  0  0
  189.3460  177.8580  145.5230 C   0  0  0  0  0  3  0  0  0  0  0  0
  189.7880  177.7410  144.2030 C   0  0  0  0  0  0  0  0  0  0  0  0
  187.4990  177.3770  143.4690 C   0  0  0  0  0  3  0  0  0  0  0  0
  188.8580  177.5000  143.1680 C   0  0  0  0  0  0  0  0  0  0  0  0
  187.0650  177.4960  144.7920 C   0  0  0  0  0  3  0  0  0  0  0  0
  190.6670  177.4990  141.5450 C   0  0  0  0  0  0  0  0  0  0  0  0
  191.5810  177.7410  142.5760 C   0  0  0  0  0  3  0  0  0  0  0  0
  187.5180  177.8610  147.2190 C   0  0  0  0  0  0  0  0  0  0  0  0
  186.3790  178.3390  147.4700 O   0  0  0  0  0  0  0  0  0  0  0  0
  188.3500  177.4420  148.2980 N   0  0  0  0  0  1  0  0  0  0  0  0
  1  5  1  0  0  0  0
  2 12  1  0  0  0  0
  3 15  1  0  0  0  0
  3  9  1  0  0  0  0
  4 21  1  1  0  0  0
  5  4  1  0  0  0  0
  6  8  1  0  0  0  0
  7  6  1  0  0  0  0
  8  4  1  0  0  0  0
  9 10  1  0  0  0  0
 10  1  1  0  0  0  0
 10  6  2  0  0  0  0
 11  9  2  0  0  0  0
 11  7  1  0  0  0  0
 12 13  1  0  0  0  0
 13 18  1  1  0  0  0
 13 14  1  0  0  0  0
 15  2  1  6  0  0  0
 15 17  1  0  0  0  0
 16 14  1  0  0  0  0
 17  1  1  0  0  0  0
 17 16  1  1  0  0  0
 18 19  1  0  0  0  0
 20 18  2  0  0  0  0
 21 30  1  0  0  0  0
 22 26  1  0  0  0  0
 23 28  1  0  0  0  0
 24 32  1  0  0  0  0
 25 24  1  0  0  0  0
 26 25  2  0  0  0  0
 27 29  1  0  0  0  0
 28 27  2  0  0  0  0
 28 26  1  0  0  0  0
 29 24  2  0  0  0  0
 30 23  2  0  0  0  0
 30 31  1  0  0  0  0
 31 22  2  0  0  0  0
 32 33  2  0  0  0  0
 32 34  1  0  0  0  0
M  END
>  <MODEL>
7

>  <REMARK>
 VINA RESULT:      -8.7      2.498      3.660
  Name = 
  4 active torsions:
  status: ('A' for Active; 'I' for Inactive)
    1  A    between atoms: C_3  and  C_25
    2  A    between atoms: C_7  and  C_11
    3  A    between atoms: C_8  and  O_18
    4  A    between atoms: O_18  and  C_30
                            x       y       z     vdW  Elec       q    Type
                         _______ _______ _______ _____ _____    ______ ____

>  <TORSDO>
F 4

$$$$
=
 OpenBabel10262423313D

 34 39  0  0  1  0  0  0  0  0999 V2000
  181.8510  178.4800  140.2420 N   0  0  0  0  0  0  0  0  0  0  0  0
  182.5870  177.5780  136.5440 C   0  0  0  0  0  2  0  0  0  0  0  0
  180.6770  178.8410  137.5630 C   0  0  0  0  0  2  0  0  0  0  0  0
  181.9470  179.3060  142.5840 C   0  0  1  0  0  3  0  0  0  0  0  0
  182.1490  178.1080  141.6310 C   0  0  0  0  0  2  0  0  0  0  0  0
  180.1880  180.1120  141.0280 C   0  0  0  0  0  0  0  0  0  0  0  0
  178.9320  181.0040  140.3640 S   0  0  0  0  0  0  0  0  0  0  0  0
  180.5520  179.9460  142.4660 C   0  0  0  0  0  2  0  0  0  0  0  0
  180.2080  179.6080  138.7570 C   0  0  0  0  0  0  0  0  0  0  0  0
  180.7650  179.3850  140.0150 C   0  0  0  0  0  0  0  0  0  0  0  0
  179.1340  180.4960  138.7580 C   0  0  0  0  0  3  0  0  0  0  0  0
  184.0670  177.1790  136.5710 C   0  0  0  0  0  2  0  0  0  0  0  0
  184.9540  178.1980  137.2990 C   0  0  1  0  0  3  0  0  0  0  0  0
  184.8320  178.1600  138.8350 C   0  0  0  0  0  2  0  0  0  0  0  0
  182.1260  178.3820  137.7630 C   0  0  1  0  0  3  0  0  0  0  0  0
  183.7720  177.1820  139.3570 C   0  0  0  0  0  2  0  0  0  0  0  0
  182.3250  177.6510  139.1220 C   0  0  1  0  0  3  0  0  0  0  0  0
  186.3810  178.0300  136.8940 C   0  0  0  0  0  0  0  0  0  0  0  0
  187.2610  179.0950  137.0280 O   0  0  0  0  0  1  0  0  0  0  0  0
  186.7930  176.9320  136.4350 O   0  0  0  0  0  0  0  0  0  0  0  0
  182.2460  178.9520  143.9360 O   0  0  0  0  0  0  0  0  0  0  0  0
  185.0290  178.5410  146.3390 C   0  0  0  0  0  3  0  0  0  0  0  0
  184.5800  178.2730  143.5860 C   0  0  0  0  0  3  0  0  0  0  0  0
  188.3870  177.4810  145.1850 C   0  0  0  0  0  0  0  0  0  0  0  0
  187.3390  177.8800  146.0280 C   0  0  0  0  0  3  0  0  0  0  0  0
  186.0720  178.1430  145.5000 C   0  0  0  0  0  0  0  0  0  0  0  0
  186.8890  177.6120  143.2730 C   0  0  0  0  0  3  0  0  0  0  0  0
  185.8450  178.0070  144.1130 C   0  0  0  0  0  0  0  0  0  0  0  0
  188.1530  177.3500  143.8080 C   0  0  0  0  0  3  0  0  0  0  0  0
  183.5300  178.6750  144.4290 C   0  0  0  0  0  0  0  0  0  0  0  0
  183.7630  178.8050  145.8030 C   0  0  0  0  0  3  0  0  0  0  0  0
  189.7220  177.2030  145.7430 C   0  0  0  0  0  0  0  0  0  0  0  0
  190.7250  177.1220  144.9840 O   0  0  0  0  0  0  0  0  0  0  0  0
  189.8960  177.0230  147.1460 N   0  0  0  0  0  1  0  0  0  0  0  0
  1  5  1  0  0  0  0
  2 12  1  0  0  0  0
  3 15  1  0  0  0  0
  3  9  1  0  0  0  0
  4 21  1  1  0  0  0
  5  4  1  0  0  0  0
  6  8  1  0  0  0  0
  7  6  1  0  0  0  0
  8  4  1  0  0  0  0
  9 11  2  0  0  0  0
  9 10  1  0  0  0  0
 10  1  1  0  0  0  0
 10  6  2  0  0  0  0
 11  7  1  0  0  0  0
 12 13  1  0  0  0  0
 13 18  1  1  0  0  0
 13 14  1  0  0  0  0
 14 16  1  0  0  0  0
 15  2  1  6  0  0  0
 15 17  1  0  0  0  0
 17 16  1  1  0  0  0
 17  1  1  0  0  0  0
 18 19  1  0  0  0  0
 20 18  2  0  0  0  0
 21 30  1  0  0  0  0
 23 28  2  0  0  0  0
 23 30  1  0  0  0  0
 24 32  1  0  0  0  0
 24 25  2  0  0  0  0
 26 25  1  0  0  0  0
 26 22  2  0  0  0  0
 27 29  2  0  0  0  0
 27 28  1  0  0  0  0
 28 26  1  0  0  0  0
 29 24  1  0  0  0  0
 30 31  2  0  0  0  0
 31 22  1  0  0  0  0
 32 34  1  0  0  0  0
 33 32  2  0  0  0  0
M  END
>  <MODEL>
8

>  <REMARK>
 VINA RESULT:      -8.7      3.001      5.957
  Name = 
  4 active torsions:
  status: ('A' for Active; 'I' for Inactive)
    1  A    between atoms: C_3  and  C_25
    2  A    between atoms: C_7  and  C_11
    3  A    between atoms: C_8  and  O_18
    4  A    between atoms: O_18  and  C_30
                            x       y       z     vdW  Elec       q    Type
                         _______ _______ _______ _____ _____    ______ ____

>  <TORSDO>
F 4

$$$$
=
 OpenBabel10262423313D

 34 39  0  0  1  0  0  0  0  0999 V2000
  180.9580  179.0510  139.5260 N   0  0  0  0  0  0  0  0  0  0  0  0
  180.6540  179.9290  135.7630 C   0  0  0  0  0  2  0  0  0  0  0  0
  179.9730  177.8670  137.0130 C   0  0  0  0  0  2  0  0  0  0  0  0
  180.8440  179.0200  142.0090 C   0  0  1  0  0  3  0  0  0  0  0  0
  181.6800  179.3790  140.7620 C   0  0  0  0  0  2  0  0  0  0  0  0
  179.8320  177.1890  140.6710 C   0  0  0  0  0  0  0  0  0  0  0  0
  178.9390  175.8370  140.2360 S   0  0  0  0  0  0  0  0  0  0  0  0
  180.3650  177.5570  142.0160 C   0  0  0  0  0  2  0  0  0  0  0  0
  179.6480  177.2940  138.3550 C   0  0  0  0  0  0  0  0  0  0  0  0
  180.1600  177.8620  139.5190 C   0  0  0  0  0  0  0  0  0  0  0  0
  178.9310  176.1170  138.5620 C   0  0  0  0  0  3  0  0  0  0  0  0
  180.8660  181.4470  135.7410 C   0  0  0  0  0  2  0  0  0  0  0  0
  180.0070  182.1930  136.7710 C   0  0  1  0  0  3  0  0  0  0  0  0
  180.5040  182.0620  138.2240 C   0  0  0  0  0  2  0  0  0  0  0  0
  180.2990  179.3590  137.1390 C   0  0  1  0  0  3  0  0  0  0  0  0
  181.7080  181.1280  138.3940 C   0  0  0  0  0  2  0  0  0  0  0  0
  181.3640  179.6360  138.2380 C   0  0  1  0  0  3  0  0  0  0  0  0
  179.8810  183.6330  136.4010 C   0  0  0  0  0  0  0  0  0  0  0  0
  180.7350  184.1730  135.4480 O   0  0  0  0  0  0  0  0  0  0  0  0
  179.0070  184.3620  136.9420 O   0  0  0  0  0  1  0  0  0  0  0  0
  181.5380  179.3470  143.2140 O   0  0  0  0  0  0  0  0  0  0  0  0
  185.0160  178.1910  142.7140 C   0  0  0  0  0  3  0  0  0  0  0  0
  183.3440  178.9500  144.8300 C   0  0  0  0  0  3  0  0  0  0  0  0
  187.3060  177.7690  145.5980 C   0  0  0  0  0  0  0  0  0  0  0  0
  186.8180  177.7840  144.2830 C   0  0  0  0  0  3  0  0  0  0  0  0
  185.5020  178.1760  144.0230 C   0  0  0  0  0  0  0  0  0  0  0  0
  185.1440  178.5440  146.3990 C   0  0  0  0  0  3  0  0  0  0  0  0
  184.6600  178.5600  145.0890 C   0  0  0  0  0  0  0  0  0  0  0  0
  186.4610  178.1500  146.6510 C   0  0  0  0  0  3  0  0  0  0  0  0
  182.8540  178.9630  143.5130 C   0  0  0  0  0  0  0  0  0  0  0  0
  183.6970  178.5830  142.4630 C   0  0  0  0  0  3  0  0  0  0  0  0
  188.6940  177.3550  145.8690 C   0  0  0  0  0  0  0  0  0  0  0  0
  189.5680  177.4270  144.9650 O   0  0  0  0  0  0  0  0  0  0  0  0
  189.0640  176.8680  147.1570 N   0  0  0  0  0  1  0  0  0  0  0  0
  1  5  1  0  0  0  0
  3 15  1  0  0  0  0
  3  9  1  0  0  0  0
  4  8  1  0  0  0  0
  4 21  1  1  0  0  0
  5  4  1  0  0  0  0
  6  8  1  0  0  0  0
  7  6  1  0  0  0  0
  9 11  2  0  0  0  0
  9 10  1  0  0  0  0
 10  1  1  0  0  0  0
 10  6  2  0  0  0  0
 11  7  1  0  0  0  0
 12  2  1  0  0  0  0
 12 13  1  0  0  0  0
 13 18  1  6  0  0  0
 13 14  1  0  0  0  0
 14 16  1  0  0  0  0
 15  2  1  6  0  0  0
 15 17  1  0  0  0  0
 17 16  1  1  0  0  0
 17  1  1  0  0  0  0
 18 20  1  0  0  0  0
 19 18  2  0  0  0  0
 21 30  1  0  0  0  0
 22 26  1  0  0  0  0
 23 28  1  0  0  0  0
 24 32  1  0  0  0  0
 24 29  1  0  0  0  0
 25 24  2  0  0  0  0
 26 25  1  0  0  0  0
 26 28  2  0  0  0  0
 27 29  2  0  0  0  0
 28 27  1  0  0  0  0
 30 23  2  0  0  0  0
 31 22  2  0  0  0  0
 31 30  1  0  0  0  0
 32 34  1  0  0  0  0
 33 32  2  0  0  0  0
M  END
>  <MODEL>
9

>  <REMARK>
 VINA RESULT:      -8.5      4.093      6.181
  Name = 
  4 active torsions:
  status: ('A' for Active; 'I' for Inactive)
    1  A    between atoms: C_3  and  C_25
    2  A    between atoms: C_7  and  C_11
    3  A    between atoms: C_8  and  O_18
    4  A    between atoms: O_18  and  C_30
                            x       y       z     vdW  Elec       q    Type
                         _______ _______ _______ _____ _____    ______ ____

>  <TORSDO>
F 4

$$$$
