=
 OpenBabel10262420143D

 27 30  0  0  1  0  0  0  0  0999 V2000
  187.1290  178.4800  142.2550 C   0  0  2  0  0  3  0  0  0  0  0  0
  187.9540  178.8870  141.0290 C   0  0  0  0  0  2  0  0  0  0  0  0
  189.3700  177.9170  142.5600 C   0  0  2  0  0  3  0  0  0  0  0  0
  189.2360  177.6670  145.2440 C   0  0  1  0  0  3  0  0  0  0  0  0
  190.2940  175.6850  142.4890 O   0  0  0  0  0  1  0  0  0  0  0  0
  189.1320  177.4060  146.7350 C   0  0  0  0  0  1  0  0  0  0  0  0
  187.9980  177.5070  143.0000 C   0  0  1  0  0  3  0  0  0  0  0  0
  189.3270  178.3630  141.1600 N   0  0  1  0  0  0  0  0  0  0  0  0
  190.3170  176.7750  144.5990 C   0  0  0  0  0  2  0  0  0  0  0  0
  187.1350  176.4810  144.9710 O   0  0  0  0  0  1  0  0  0  0  0  0
  187.8620  177.5890  144.5270 C   0  0  1  0  0  3  0  0  0  0  0  0
  190.4470  176.9460  143.0710 C   0  0  2  0  0  3  0  0  0  0  0  0
  189.0910  176.1540  137.9790 C   0  0  0  0  0  2  0  0  0  0  0  0
  190.5600  175.7440  138.1480 C   0  0  0  0  0  2  0  0  0  0  0  0
  191.3320  176.8580  138.5160 O   0  0  0  0  0  0  0  0  0  0  0  0
  189.5590  177.2530  140.2090 C   0  0  2  0  0  3  0  0  0  0  0  0
  191.0700  177.1260  139.8780 C   0  0  0  0  0  2  0  0  0  0  0  0
  188.7250  177.3220  138.9050 C   0  0  1  0  0  3  0  0  0  0  0  0
  187.7520  178.9890  137.4890 O   0  0  0  0  0  1  0  0  0  0  0  0
  188.9190  178.6480  138.1750 C   0  0  0  0  0  2  0  0  0  0  0  0
  185.7690  177.8780  141.8820 C   0  0  0  0  0  2  0  0  0  0  0  0
  182.4940  179.2900  144.2800 C   0  0  0  0  0  3  0  0  0  0  0  0
  184.6330  178.3770  142.7220 C   0  0  0  0  0  0  0  0  0  0  0  0
  183.3660  178.5380  142.1490 C   0  0  0  0  0  3  0  0  0  0  0  0
  182.2980  178.9950  142.9270 C   0  0  0  0  0  3  0  0  0  0  0  0
  183.7590  179.1330  144.8540 C   0  0  0  0  0  3  0  0  0  0  0  0
  184.8290  178.6790  144.0750 C   0  0  0  0  0  3  0  0  0  0  0  0
  1 21  1  6  0  0  0
  1  7  1  0  0  0  0
  2  8  1  0  0  0  0
  2  1  1  0  0  0  0
  3  7  1  0  0  0  0
  3 12  1  0  0  0  0
  4  6  1  0  0  0  0
  5 12  1  0  0  0  0
  7 11  1  0  0  0  0
  8  3  1  0  0  0  0
  9  4  1  0  0  0  0
 11 10  1  0  0  0  0
 11  4  1  0  0  0  0
 12  9  1  0  0  0  0
 13 14  1  0  0  0  0
 13 18  1  0  0  0  0
 14 15  1  0  0  0  0
 15 17  1  0  0  0  0
 16  8  1  0  0  0  0
 17 16  1  0  0  0  0
 18 16  1  0  0  0  0
 19 20  1  0  0  0  0
 20 18  1  0  0  0  0
 21 23  1  0  0  0  0
 22 26  1  0  0  0  0
 23 27  1  0  0  0  0
 24 23  2  0  0  0  0
 24 25  1  0  0  0  0
 25 22  2  0  0  0  0
 27 26  2  0  0  0  0
M  END
>  <MODEL>
1

>  <REMARK>
 VINA RESULT:      -8.5      0.000      0.000
  Name = 
  4 active torsions:
  status: ('A' for Active; 'I' for Inactive)
    1  A    between atoms: C_1  and  C_15
    2  A    between atoms: C_9  and  C_15
    3  A    between atoms: C_14  and  N_19
    4  A    between atoms: C_17  and  C_21
                            x       y       z     vdW  Elec       q    Type
                         _______ _______ _______ _____ _____    ______ ____

>  <TORSDO>
F 4

$$$$
=
 OpenBabel10262420143D

 27 30  0  0  1  0  0  0  0  0999 V2000
  187.5570  178.1020  142.5790 C   0  0  2  0  0  3  0  0  0  0  0  0
  186.4070  178.9380  142.0090 C   0  0  0  0  0  2  0  0  0  0  0  0
  187.8480  178.4260  140.2900 C   0  0  2  0  0  3  0  0  0  0  0  0
  190.4790  177.8330  140.2520 C   0  0  1  0  0  3  0  0  0  0  0  0
  187.5380  176.7560  138.5710 O   0  0  0  0  0  1  0  0  0  0  0  0
  191.9280  177.3790  140.2090 C   0  0  0  0  0  1  0  0  0  0  0  0
  188.2040  177.4650  141.3820 C   0  0  1  0  0  3  0  0  0  0  0  0
  186.5080  178.9800  140.5370 N   0  0  1  0  0  0  0  0  0  0  0  0
  189.7610  177.5150  138.9230 C   0  0  0  0  0  2  0  0  0  0  0  0
  190.0210  175.9610  141.7290 O   0  0  0  0  0  1  0  0  0  0  0  0
  189.7270  177.3090  141.5030 C   0  0  1  0  0  3  0  0  0  0  0  0
  188.2660  177.9000  138.9070 C   0  0  2  0  0  3  0  0  0  0  0  0
  183.1900  177.0220  140.0760 C   0  0  0  0  0  2  0  0  0  0  0  0
  183.1470  177.4310  138.5980 C   0  0  0  0  0  2  0  0  0  0  0  0
  183.5210  178.7780  138.4600 O   0  0  0  0  0  0  0  0  0  0  0  0
  185.4400  178.1680  139.9130 C   0  0  2  0  0  3  0  0  0  0  0  0
  184.9240  178.8490  138.6180 C   0  0  0  0  0  2  0  0  0  0  0  0
  184.2540  177.8150  140.8470 C   0  0  1  0  0  3  0  0  0  0  0  0
  182.3830  178.7490  142.0120 O   0  0  0  0  0  1  0  0  0  0  0  0
  183.6310  179.0610  141.4690 C   0  0  0  0  0  2  0  0  0  0  0  0
  187.0850  177.0650  143.6060 C   0  0  0  0  0  2  0  0  0  0  0  0
  188.6470  177.7240  147.5540 C   0  0  0  0  0  3  0  0  0  0  0  0
  187.6220  177.2890  144.9860 C   0  0  0  0  0  0  0  0  0  0  0  0
  188.9920  177.1430  145.2290 C   0  0  0  0  0  3  0  0  0  0  0  0
  189.5050  177.3590  146.5120 C   0  0  0  0  0  3  0  0  0  0  0  0
  187.2770  177.8690  147.3150 C   0  0  0  0  0  3  0  0  0  0  0  0
  186.7640  177.6490  146.0330 C   0  0  0  0  0  3  0  0  0  0  0  0
  1 21  1  1  0  0  0
  2  1  1  0  0  0  0
  3  8  1  0  0  0  0
  3  7  1  0  0  0  0
  4 11  1  0  0  0  0
  5 12  1  0  0  0  0
  6  4  1  0  0  0  0
  7 11  1  0  0  0  0
  7  1  1  0  0  0  0
  8  2  1  0  0  0  0
  9  4  1  0  0  0  0
 11 10  1  0  0  0  0
 12  9  1  0  0  0  0
 12  3  1  0  0  0  0
 13 18  1  0  0  0  0
 14 13  1  0  0  0  0
 15 14  1  0  0  0  0
 15 17  1  0  0  0  0
 16  8  1  0  0  0  0
 16 18  1  0  0  0  0
 17 16  1  0  0  0  0
 18 20  1  0  0  0  0
 20 19  1  0  0  0  0
 21 23  1  0  0  0  0
 23 24  2  0  0  0  0
 23 27  1  0  0  0  0
 24 25  1  0  0  0  0
 25 22  2  0  0  0  0
 26 22  1  0  0  0  0
 27 26  2  0  0  0  0
M  END
>  <MODEL>
2

>  <REMARK>
 VINA RESULT:      -8.0      2.210      5.298
  Name = 
  4 active torsions:
  status: ('A' for Active; 'I' for Inactive)
    1  A    between atoms: C_1  and  C_15
    2  A    between atoms: C_9  and  C_15
    3  A    between atoms: C_14  and  N_19
    4  A    between atoms: C_17  and  C_21
                            x       y       z     vdW  Elec       q    Type
                         _______ _______ _______ _____ _____    ______ ____

>  <TORSDO>
F 4

$$$$
=
 OpenBabel10262420143D

 27 30  0  0  1  0  0  0  0  0999 V2000
  187.4550  177.7750  141.2490 C   0  0  2  0  0  3  0  0  0  0  0  0
  187.8280  176.9130  142.4610 C   0  0  0  0  0  2  0  0  0  0  0  0
  189.5020  176.7190  140.8950 C   0  0  2  0  0  3  0  0  0  0  0  0
  189.5140  177.0180  138.2140 C   0  0  1  0  0  3  0  0  0  0  0  0
  191.6710  177.7830  140.9340 O   0  0  0  0  0  1  0  0  0  0  0  0
  189.5810  177.2960  136.7230 C   0  0  0  0  0  1  0  0  0  0  0  0
  188.7350  177.9370  140.4810 C   0  0  1  0  0  3  0  0  0  0  0  0
  189.2010  176.4000  142.2990 N   0  0  1  0  0  0  0  0  0  0  0  0
  190.9280  176.9680  138.8300 C   0  0  0  0  0  2  0  0  0  0  0  0
  188.7280  179.2950  138.5210 O   0  0  0  0  0  1  0  0  0  0  0  0
  188.5490  177.9790  138.9570 C   0  0  1  0  0  3  0  0  0  0  0  0
  190.9420  176.7400  140.3570 C   0  0  2  0  0  3  0  0  0  0  0  0
  190.5000  178.4750  145.3100 C   0  0  0  0  0  2  0  0  0  0  0  0
  191.7470  177.5850  145.3930 C   0  0  0  0  0  2  0  0  0  0  0  0
  191.3910  176.2390  145.2070 O   0  0  0  0  0  0  0  0  0  0  0  0
  190.1280  177.0710  143.2380 C   0  0  2  0  0  3  0  0  0  0  0  0
  191.1380  176.0520  143.8300 C   0  0  0  0  0  2  0  0  0  0  0  0
  189.4430  177.8730  144.3730 C   0  0  1  0  0  3  0  0  0  0  0  0
  188.0280  177.7070  146.2970 O   0  0  0  0  0  1  0  0  0  0  0  0
  188.4670  177.0110  145.1700 C   0  0  0  0  0  2  0  0  0  0  0  0
  186.8390  179.1220  141.6460 C   0  0  0  0  0  2  0  0  0  0  0  0
  182.9010  178.8320  143.3420 C   0  0  0  0  0  3  0  0  0  0  0  0
  185.4640  179.0120  142.2310 C   0  0  0  0  0  0  0  0  0  0  0  0
  185.2800  179.2000  143.6060 C   0  0  0  0  0  3  0  0  0  0  0  0
  183.9990  179.1090  144.1610 C   0  0  0  0  0  3  0  0  0  0  0  0
  183.0820  178.6410  141.9680 C   0  0  0  0  0  3  0  0  0  0  0  0
  184.3630  178.7290  141.4140 C   0  0  0  0  0  3  0  0  0  0  0  0
  1 21  1  1  0  0  0
  1  2  1  0  0  0  0
  3  8  1  0  0  0  0
  4  9  1  0  0  0  0
  4 11  1  0  0  0  0
  6  4  1  0  0  0  0
  7  3  1  0  0  0  0
  7  1  1  0  0  0  0
  8  2  1  0  0  0  0
  8 16  1  0  0  0  0
  9 12  1  0  0  0  0
 10 11  1  0  0  0  0
 11  7  1  0  0  0  0
 12  3  1  0  0  0  0
 12  5  1  0  0  0  0
 13 14  1  0  0  0  0
 15 14  1  0  0  0  0
 16 17  1  0  0  0  0
 16 18  1  0  0  0  0
 17 15  1  0  0  0  0
 18 20  1  0  0  0  0
 18 13  1  0  0  0  0
 20 19  1  0  0  0  0
 21 23  1  0  0  0  0
 22 25  1  0  0  0  0
 23 24  1  0  0  0  0
 24 25  2  0  0  0  0
 26 22  2  0  0  0  0
 27 26  1  0  0  0  0
 27 23  2  0  0  0  0
M  END
>  <MODEL>
3

>  <REMARK>
 VINA RESULT:      -7.9      1.393      5.063
  Name = 
  4 active torsions:
  status: ('A' for Active; 'I' for Inactive)
    1  A    between atoms: C_1  and  C_15
    2  A    between atoms: C_9  and  C_15
    3  A    between atoms: C_14  and  N_19
    4  A    between atoms: C_17  and  C_21
                            x       y       z     vdW  Elec       q    Type
                         _______ _______ _______ _____ _____    ______ ____

>  <TORSDO>
F 4

$$$$
=
 OpenBabel10262420143D

 27 30  0  0  1  0  0  0  0  0999 V2000
  187.4940  178.3200  141.8680 C   0  0  2  0  0  3  0  0  0  0  0  0
  187.4630  178.7330  140.3920 C   0  0  0  0  0  2  0  0  0  0  0  0
  189.6190  178.1330  140.9290 C   0  0  2  0  0  3  0  0  0  0  0  0
  190.9620  178.1150  143.2690 C   0  0  1  0  0  3  0  0  0  0  0  0
  190.7450  176.0700  140.3700 O   0  0  0  0  0  1  0  0  0  0  0  0
  191.7060  177.9790  144.5850 C   0  0  0  0  0  1  0  0  0  0  0  0
  188.7810  177.5620  142.0320 C   0  0  1  0  0  3  0  0  0  0  0  0
  188.7670  178.4370  139.7690 N   0  0  1  0  0  0  0  0  0  0  0  0
  191.6810  177.3410  142.1450 C   0  0  0  0  0  2  0  0  0  0  0  0
  189.2810  176.6040  144.1570 O   0  0  0  0  0  1  0  0  0  0  0  0
  189.4560  177.7640  143.3970 C   0  0  1  0  0  3  0  0  0  0  0  0
  190.9550  177.3880  140.7830 C   0  0  2  0  0  3  0  0  0  0  0  0
  187.2520  175.8460  137.3100 C   0  0  0  0  0  2  0  0  0  0  0  0
  188.5810  175.7840  136.5460 C   0  0  0  0  0  2  0  0  0  0  0  0
  189.1170  177.0750  136.4080 O   0  0  0  0  0  0  0  0  0  0  0  0
  188.6580  177.2920  138.8380 C   0  0  2  0  0  3  0  0  0  0  0  0
  189.6550  177.4500  137.6590 C   0  0  0  0  0  2  0  0  0  0  0  0
  187.2290  177.0160  138.3030 C   0  0  1  0  0  3  0  0  0  0  0  0
  185.2280  178.1920  137.7190 O   0  0  0  0  0  1  0  0  0  0  0  0
  186.6210  178.2510  137.6450 C   0  0  0  0  0  2  0  0  0  0  0  0
  186.2730  177.4870  142.2770 C   0  0  0  0  0  2  0  0  0  0  0  0
  184.2280  178.9490  145.7630 C   0  0  0  0  0  3  0  0  0  0  0  0
  185.5690  178.0010  143.4960 C   0  0  0  0  0  0  0  0  0  0  0  0
  184.2970  178.5740  143.3710 C   0  0  0  0  0  3  0  0  0  0  0  0
  183.6280  179.0480  144.5040 C   0  0  0  0  0  3  0  0  0  0  0  0
  185.4980  178.3790  145.8900 C   0  0  0  0  0  3  0  0  0  0  0  0
  186.1690  177.9080  144.7570 C   0  0  0  0  0  3  0  0  0  0  0  0
  1  7  1  0  0  0  0
  1 21  1  6  0  0  0
  2  1  1  0  0  0  0
  3  7  1  0  0  0  0
  4 11  1  0  0  0  0
  4  6  1  0  0  0  0
  5 12  1  0  0  0  0
  7 11  1  0  0  0  0
  8  2  1  0  0  0  0
  8  3  1  0  0  0  0
  9  4  1  0  0  0  0
 11 10  1  0  0  0  0
 12  3  1  0  0  0  0
 12  9  1  0  0  0  0
 13 18  1  0  0  0  0
 14 13  1  0  0  0  0
 15 14  1  0  0  0  0
 15 17  1  0  0  0  0
 16  8  1  0  0  0  0
 17 16  1  0  0  0  0
 18 16  1  0  0  0  0
 20 19  1  0  0  0  0
 20 18  1  0  0  0  0
 21 23  1  0  0  0  0
 22 26  1  0  0  0  0
 23 27  1  0  0  0  0
 24 23  2  0  0  0  0
 24 25  1  0  0  0  0
 25 22  2  0  0  0  0
 27 26  2  0  0  0  0
M  END
>  <MODEL>
4

>  <REMARK>
 VINA RESULT:      -7.9      1.608      2.114
  Name = 
  4 active torsions:
  status: ('A' for Active; 'I' for Inactive)
    1  A    between atoms: C_1  and  C_15
    2  A    between atoms: C_9  and  C_15
    3  A    between atoms: C_14  and  N_19
    4  A    between atoms: C_17  and  C_21
                            x       y       z     vdW  Elec       q    Type
                         _______ _______ _______ _____ _____    ______ ____

>  <TORSDO>
F 4

$$$$
=
 OpenBabel10262420143D

 27 30  0  0  1  0  0  0  0  0999 V2000
  186.6350  177.7640  142.8440 C   0  0  2  0  0  3  0  0  0  0  0  0
  186.4080  177.1140  144.2140 C   0  0  0  0  0  2  0  0  0  0  0  0
  188.6240  176.8600  143.6530 C   0  0  2  0  0  3  0  0  0  0  0  0
  189.8920  176.7870  141.2720 C   0  0  1  0  0  3  0  0  0  0  0  0
  190.5030  178.1120  144.5140 O   0  0  0  0  0  1  0  0  0  0  0  0
  190.6470  176.8620  139.9580 C   0  0  0  0  0  1  0  0  0  0  0  0
  188.1230  177.9350  142.7380 C   0  0  1  0  0  3  0  0  0  0  0  0
  187.7040  176.7110  144.7910 N   0  0  1  0  0  0  0  0  0  0  0  0
  190.8500  176.9500  142.4710 C   0  0  0  0  0  2  0  0  0  0  0  0
  189.0170  179.0030  140.8030 O   0  0  0  0  0  1  0  0  0  0  0  0
  188.6750  177.7490  141.3170 C   0  0  1  0  0  3  0  0  0  0  0  0
  190.1480  176.9370  143.8460 C   0  0  2  0  0  3  0  0  0  0  0  0
  187.4030  179.2970  147.6680 C   0  0  0  0  0  2  0  0  0  0  0  0
  188.4710  178.5400  148.4690 C   0  0  0  0  0  2  0  0  0  0  0  0
  188.2580  177.1550  148.3650 O   0  0  0  0  0  0  0  0  0  0  0  0
  188.0690  177.5870  145.9270 C   0  0  2  0  0  3  0  0  0  0  0  0
  188.6890  176.7530  147.0800 C   0  0  0  0  0  2  0  0  0  0  0  0
  186.9210  178.4790  146.4620 C   0  0  1  0  0  3  0  0  0  0  0  0
  184.5820  178.4920  146.9680 O   0  0  0  0  0  1  0  0  0  0  0  0
  185.6930  177.6570  146.8440 C   0  0  0  0  0  2  0  0  0  0  0  0
  185.8840  179.0910  142.6840 C   0  0  0  0  0  2  0  0  0  0  0  0
  181.6170  178.6770  142.3830 C   0  0  0  0  0  3  0  0  0  0  0  0
  184.3970  178.9380  142.5740 C   0  0  0  0  0  0  0  0  0  0  0  0
  183.5950  179.1340  143.7040 C   0  0  0  0  0  3  0  0  0  0  0  0
  182.2060  179.0030  143.6080 C   0  0  0  0  0  3  0  0  0  0  0  0
  182.4160  178.4790  141.2530 C   0  0  0  0  0  3  0  0  0  0  0  0
  183.8060  178.6070  141.3490 C   0  0  0  0  0  3  0  0  0  0  0  0
  1 21  1  1  0  0  0
  1  2  1  0  0  0  0
  2  8  1  0  0  0  0
  3 12  1  0  0  0  0
  3  8  1  0  0  0  0
  4 11  1  0  0  0  0
  4  9  1  0  0  0  0
  6  4  1  0  0  0  0
  7  1  1  0  0  0  0
  7  3  1  0  0  0  0
  8 16  1  0  0  0  0
  9 12  1  0  0  0  0
 10 11  1  0  0  0  0
 11  7  1  0  0  0  0
 12  5  1  0  0  0  0
 13 14  1  0  0  0  0
 15 14  1  0  0  0  0
 16 18  1  0  0  0  0
 16 17  1  0  0  0  0
 17 15  1  0  0  0  0
 18 20  1  0  0  0  0
 18 13  1  0  0  0  0
 20 19  1  0  0  0  0
 22 25  1  0  0  0  0
 23 21  1  0  0  0  0
 23 24  1  0  0  0  0
 25 24  2  0  0  0  0
 26 27  1  0  0  0  0
 26 22  2  0  0  0  0
 27 23  2  0  0  0  0
M  END
>  <MODEL>
5

>  <REMARK>
 VINA RESULT:      -7.9      2.073      5.660
  Name = 
  4 active torsions:
  status: ('A' for Active; 'I' for Inactive)
    1  A    between atoms: C_1  and  C_15
    2  A    between atoms: C_9  and  C_15
    3  A    between atoms: C_14  and  N_19
    4  A    between atoms: C_17  and  C_21
                            x       y       z     vdW  Elec       q    Type
                         _______ _______ _______ _____ _____    ______ ____

>  <TORSDO>
F 4

$$$$
=
 OpenBabel10262420143D

 27 30  0  0  1  0  0  0  0  0999 V2000
  187.2500  178.2700  142.3130 C   0  0  2  0  0  3  0  0  0  0  0  0
  186.4190  179.0070  141.2580 C   0  0  0  0  0  2  0  0  0  0  0  0
  188.3480  178.2530  140.2580 C   0  0  2  0  0  3  0  0  0  0  0  0
  190.7910  177.6730  141.2460 C   0  0  1  0  0  3  0  0  0  0  0  0
  188.5870  176.3450  138.7940 O   0  0  0  0  0  1  0  0  0  0  0  0
  192.1360  177.2250  141.7880 C   0  0  0  0  0  1  0  0  0  0  0  0
  188.2470  177.4650  141.5280 C   0  0  1  0  0  3  0  0  0  0  0  0
  187.0370  178.8310  139.9300 N   0  0  1  0  0  0  0  0  0  0  0  0
  190.5750  177.1580  139.8080 C   0  0  0  0  0  2  0  0  0  0  0  0
  189.7490  176.0390  142.7090 O   0  0  0  0  0  1  0  0  0  0  0  0
  189.6190  177.3360  142.2060 C   0  0  1  0  0  3  0  0  0  0  0  0
  189.2030  177.5290  139.2040 C   0  0  2  0  0  3  0  0  0  0  0  0
  183.9510  177.1040  138.3310 C   0  0  0  0  0  2  0  0  0  0  0  0
  184.7190  176.9360  137.0140 C   0  0  0  0  0  2  0  0  0  0  0  0
  185.4500  178.1020  136.7310 O   0  0  0  0  0  0  0  0  0  0  0  0
  186.2200  177.9300  139.0850 C   0  0  2  0  0  3  0  0  0  0  0  0
  186.5750  178.1180  137.5860 C   0  0  0  0  0  2  0  0  0  0  0  0
  184.6890  178.0420  139.2960 C   0  0  1  0  0  3  0  0  0  0  0  0
  182.8560  179.4690  138.7190 O   0  0  0  0  0  1  0  0  0  0  0  0
  184.1940  179.4740  139.1150 C   0  0  0  0  0  2  0  0  0  0  0  0
  186.3950  177.3940  143.2370 C   0  0  0  0  0  2  0  0  0  0  0  0
  186.8550  178.2680  147.4190 C   0  0  0  0  0  3  0  0  0  0  0  0
  186.5650  177.7020  144.6940 C   0  0  0  0  0  0  0  0  0  0  0  0
  185.5350  178.3440  145.3900 C   0  0  0  0  0  3  0  0  0  0  0  0
  185.6800  178.6280  146.7520 C   0  0  0  0  0  3  0  0  0  0  0  0
  187.8870  177.6280  146.7250 C   0  0  0  0  0  3  0  0  0  0  0  0
  187.7430  177.3480  145.3630 C   0  0  0  0  0  3  0  0  0  0  0  0
  1 21  1  6  0  0  0
  2  1  1  0  0  0  0
  3  7  1  0  0  0  0
  4  6  1  0  0  0  0
  4 11  1  0  0  0  0
  5 12  1  0  0  0  0
  7 11  1  0  0  0  0
  7  1  1  0  0  0  0
  8  3  1  0  0  0  0
  8  2  1  0  0  0  0
  9  4  1  0  0  0  0
 11 10  1  0  0  0  0
 12  9  1  0  0  0  0
 12  3  1  0  0  0  0
 13 18  1  0  0  0  0
 14 13  1  0  0  0  0
 15 14  1  0  0  0  0
 15 17  1  0  0  0  0
 16 18  1  0  0  0  0
 16  8  1  0  0  0  0
 17 16  1  0  0  0  0
 19 20  1  0  0  0  0
 20 18  1  0  0  0  0
 21 23  1  0  0  0  0
 23 27  2  0  0  0  0
 23 24  1  0  0  0  0
 24 25  2  0  0  0  0
 25 22  1  0  0  0  0
 26 22  2  0  0  0  0
 27 26  1  0  0  0  0
M  END
>  <MODEL>
6

>  <REMARK>
 VINA RESULT:      -7.7      2.368      4.189
  Name = 
  4 active torsions:
  status: ('A' for Active; 'I' for Inactive)
    1  A    between atoms: C_1  and  C_15
    2  A    between atoms: C_9  and  C_15
    3  A    between atoms: C_14  and  N_19
    4  A    between atoms: C_17  and  C_21
                            x       y       z     vdW  Elec       q    Type
                         _______ _______ _______ _____ _____    ______ ____

>  <TORSDO>
F 4

$$$$
=
 OpenBabel10262420143D

 27 30  0  0  1  0  0  0  0  0999 V2000
  189.2220  177.1350  143.2610 C   0  0  2  0  0  3  0  0  0  0  0  0
  187.7160  176.8610  143.1880 C   0  0  0  0  0  2  0  0  0  0  0  0
  188.3400  176.8760  145.4020 C   0  0  2  0  0  3  0  0  0  0  0  0
  190.6960  176.3820  146.6210 C   0  0  1  0  0  3  0  0  0  0  0  0
  187.9810  178.6430  147.0110 O   0  0  0  0  0  1  0  0  0  0  0  0
  192.0310  176.2280  147.3270 C   0  0  0  0  0  1  0  0  0  0  0  0
  189.4740  177.5430  144.6850 C   0  0  1  0  0  3  0  0  0  0  0  0
  187.1440  176.8810  144.5470 N   0  0  1  0  0  0  0  0  0  0  0  0
  189.6550  177.0460  147.5470 C   0  0  0  0  0  2  0  0  0  0  0  0
  191.6820  178.1790  145.3200 O   0  0  0  0  0  1  0  0  0  0  0  0
  190.8270  177.0760  145.2400 C   0  0  1  0  0  3  0  0  0  0  0  0
  188.2820  177.2850  146.8830 C   0  0  2  0  0  3  0  0  0  0  0  0
  184.9380  179.9820  143.7860 C   0  0  0  0  0  2  0  0  0  0  0  0
  184.1570  179.7530  145.0860 C   0  0  0  0  0  2  0  0  0  0  0  0
  183.9010  178.3830  145.2590 O   0  0  0  0  0  0  0  0  0  0  0  0
  186.3130  178.0900  144.7500 C   0  0  2  0  0  3  0  0  0  0  0  0
  185.1060  177.7720  145.6730 C   0  0  0  0  0  2  0  0  0  0  0  0
  185.8320  178.7810  143.4490 C   0  0  1  0  0  3  0  0  0  0  0  0
  184.0910  178.4950  141.8310 O   0  0  0  0  0  1  0  0  0  0  0  0
  185.0850  177.8140  142.5350 C   0  0  0  0  0  2  0  0  0  0  0  0
  189.6810  178.2030  142.2600 C   0  0  0  0  0  2  0  0  0  0  0  0
  189.5890  176.8790  138.1730 C   0  0  0  0  0  3  0  0  0  0  0  0
  189.6480  177.7520  140.8320 C   0  0  0  0  0  0  0  0  0  0  0  0
  190.5830  176.8130  140.3810 C   0  0  0  0  0  3  0  0  0  0  0  0
  190.5540  176.3780  139.0520 C   0  0  0  0  0  3  0  0  0  0  0  0
  188.6550  177.8180  138.6210 C   0  0  0  0  0  3  0  0  0  0  0  0
  188.6860  178.2560  139.9490 C   0  0  0  0  0  3  0  0  0  0  0  0
  1 21  1  6  0  0  0
  1  7  1  0  0  0  0
  2  1  1  0  0  0  0
  2  8  1  0  0  0  0
  3 12  1  0  0  0  0
  4  6  1  0  0  0  0
  4  9  1  0  0  0  0
  7 11  1  0  0  0  0
  7  3  1  0  0  0  0
  8 16  1  0  0  0  0
  8  3  1  0  0  0  0
 11 10  1  0  0  0  0
 11  4  1  0  0  0  0
 12  5  1  0  0  0  0
 12  9  1  0  0  0  0
 13 14  1  0  0  0  0
 14 15  1  0  0  0  0
 15 17  1  0  0  0  0
 16 17  1  0  0  0  0
 18 13  1  0  0  0  0
 18 16  1  0  0  0  0
 19 20  1  0  0  0  0
 20 18  1  0  0  0  0
 22 26  2  0  0  0  0
 22 25  1  0  0  0  0
 23 21  1  0  0  0  0
 24 23  1  0  0  0  0
 25 24  2  0  0  0  0
 26 27  1  0  0  0  0
 27 23  2  0  0  0  0
M  END
>  <MODEL>
7

>  <REMARK>
 VINA RESULT:      -7.5      2.433      6.141
  Name = 
  4 active torsions:
  status: ('A' for Active; 'I' for Inactive)
    1  A    between atoms: C_1  and  C_15
    2  A    between atoms: C_9  and  C_15
    3  A    between atoms: C_14  and  N_19
    4  A    between atoms: C_17  and  C_21
                            x       y       z     vdW  Elec       q    Type
                         _______ _______ _______ _____ _____    ______ ____

>  <TORSDO>
F 4

$$$$
=
 OpenBabel10262420143D

 27 30  0  0  1  0  0  0  0  0999 V2000
  186.9610  177.3580  145.1200 C   0  0  2  0  0  3  0  0  0  0  0  0
  187.8260  176.4200  144.2700 C   0  0  0  0  0  2  0  0  0  0  0  0
  186.3520  177.5030  142.8750 C   0  0  2  0  0  3  0  0  0  0  0  0
  183.9300  178.6090  143.3090 C   0  0  1  0  0  3  0  0  0  0  0  0
  186.8310  179.3510  141.3930 O   0  0  0  0  0  1  0  0  0  0  0  0
  182.6230  179.3430  143.5450 C   0  0  0  0  0  1  0  0  0  0  0  0
  186.3420  178.3100  144.1370 C   0  0  1  0  0  3  0  0  0  0  0  0
  187.5550  176.6570  142.8400 N   0  0  1  0  0  0  0  0  0  0  0  0
  184.5480  179.0030  141.9520 C   0  0  0  0  0  2  0  0  0  0  0  0
  184.9530  180.0630  144.9630 O   0  0  0  0  0  1  0  0  0  0  0  0
  184.9140  178.7450  144.5000 C   0  0  1  0  0  3  0  0  0  0  0  0
  185.9090  178.3360  141.6610 C   0  0  2  0  0  3  0  0  0  0  0  0
  191.1940  177.7310  142.0240 C   0  0  0  0  0  2  0  0  0  0  0  0
  190.8250  177.8780  140.5420 C   0  0  0  0  0  2  0  0  0  0  0  0
  190.0010  176.8120  140.1430 O   0  0  0  0  0  0  0  0  0  0  0  0
  188.7000  177.3360  142.1920 C   0  0  2  0  0  3  0  0  0  0  0  0
  188.7110  177.0520  140.6660 C   0  0  0  0  0  2  0  0  0  0  0  0
  190.0850  177.0170  142.8100 C   0  0  1  0  0  3  0  0  0  0  0  0
  191.5150  175.2620  143.5890 O   0  0  0  0  0  1  0  0  0  0  0  0
  190.3570  175.5160  142.8520 C   0  0  0  0  0  2  0  0  0  0  0  0
  187.7630  178.0830  146.2070 C   0  0  0  0  0  2  0  0  0  0  0  0
  191.7070  176.4830  146.7960 C   0  0  0  0  0  3  0  0  0  0  0  0
  189.1420  177.5350  146.4120 C   0  0  0  0  0  0  0  0  0  0  0  0
  189.3500  176.5160  147.3490 C   0  0  0  0  0  3  0  0  0  0  0  0
  190.6320  175.9910  147.5410 C   0  0  0  0  0  3  0  0  0  0  0  0
  191.5030  177.5030  145.8610 C   0  0  0  0  0  3  0  0  0  0  0  0
  190.2220  178.0300  145.6710 C   0  0  0  0  0  3  0  0  0  0  0  0
  1 21  1  1  0  0  0
  2  1  1  0  0  0  0
  3  7  1  0  0  0  0
  4  6  1  0  0  0  0
  4 11  1  0  0  0  0
  5 12  1  0  0  0  0
  7 11  1  0  0  0  0
  7  1  1  0  0  0  0
  8  3  1  0  0  0  0
  8  2  1  0  0  0  0
  9  4  1  0  0  0  0
 11 10  1  0  0  0  0
 12  9  1  0  0  0  0
 12  3  1  0  0  0  0
 13 18  1  0  0  0  0
 14 13  1  0  0  0  0
 15 14  1  0  0  0  0
 15 17  1  0  0  0  0
 16 18  1  0  0  0  0
 16  8  1  0  0  0  0
 17 16  1  0  0  0  0
 18 20  1  0  0  0  0
 20 19  1  0  0  0  0
 21 23  1  0  0  0  0
 22 25  1  0  0  0  0
 23 24  1  0  0  0  0
 24 25  2  0  0  0  0
 26 22  2  0  0  0  0
 27 26  1  0  0  0  0
 27 23  2  0  0  0  0
M  END
>  <MODEL>
8

>  <REMARK>
 VINA RESULT:      -7.2      1.943      5.598
  Name = 
  4 active torsions:
  status: ('A' for Active; 'I' for Inactive)
    1  A    between atoms: C_1  and  C_15
    2  A    between atoms: C_9  and  C_15
    3  A    between atoms: C_14  and  N_19
    4  A    between atoms: C_17  and  C_21
                            x       y       z     vdW  Elec       q    Type
                         _______ _______ _______ _____ _____    ______ ____

>  <TORSDO>
F 4

$$$$
=
 OpenBabel10262420143D

 27 30  0  0  1  0  0  0  0  0999 V2000
  186.4470  178.4450  142.5100 C   0  0  2  0  0  3  0  0  0  0  0  0
  187.2210  178.9040  141.2700 C   0  0  0  0  0  2  0  0  0  0  0  0
  188.7350  178.1210  142.8150 C   0  0  2  0  0  3  0  0  0  0  0  0
  188.6370  177.9240  145.5040 C   0  0  1  0  0  3  0  0  0  0  0  0
  189.8800  175.9930  142.7910 O   0  0  0  0  0  1  0  0  0  0  0  0
  188.5670  177.6890  147.0030 C   0  0  0  0  0  1  0  0  0  0  0  0
  187.4130  177.5840  143.2730 C   0  0  1  0  0  3  0  0  0  0  0  0
  188.6410  178.5260  141.4050 N   0  0  1  0  0  0  0  0  0  0  0  0
  189.8020  177.1310  144.8750 C   0  0  0  0  0  2  0  0  0  0  0  0
  186.6670  176.5240  145.2740 O   0  0  0  0  0  1  0  0  0  0  0  0
  187.2760  177.6890  144.7990 C   0  0  1  0  0  3  0  0  0  0  0  0
  189.9070  177.2770  143.3420 C   0  0  2  0  0  3  0  0  0  0  0  0
  188.7210  176.3040  138.2250 C   0  0  0  0  0  2  0  0  0  0  0  0
  190.1850  175.9430  138.5060 C   0  0  0  0  0  2  0  0  0  0  0  0
  190.8890  177.0830  138.9270 O   0  0  0  0  0  0  0  0  0  0  0  0
  188.9820  177.4220  140.4790 C   0  0  2  0  0  3  0  0  0  0  0  0
  190.5170  177.3450  140.2650 C   0  0  0  0  0  2  0  0  0  0  0  0
  188.2470  177.4600  139.1150 C   0  0  1  0  0  3  0  0  0  0  0  0
  187.5040  178.9350  137.3830 O   0  0  0  0  0  1  0  0  0  0  0  0
  188.4520  178.7910  138.3970 C   0  0  0  0  0  2  0  0  0  0  0  0
  185.1540  177.6990  142.1610 C   0  0  0  0  0  2  0  0  0  0  0  0
  182.7140  179.7150  139.2540 C   0  0  0  0  0  3  0  0  0  0  0  0
  184.3080  178.3960  141.1400 C   0  0  0  0  0  0  0  0  0  0  0  0
  182.9380  178.5650  141.3740 C   0  0  0  0  0  3  0  0  0  0  0  0
  182.1420  179.2230  140.4310 C   0  0  0  0  0  3  0  0  0  0  0  0
  184.0820  179.5460  139.0170 C   0  0  0  0  0  3  0  0  0  0  0  0
  184.8780  178.8850  139.9580 C   0  0  0  0  0  3  0  0  0  0  0  0
  1 21  1  6  0  0  0
  1  7  1  0  0  0  0
  2  8  1  0  0  0  0
  2  1  1  0  0  0  0
  3  7  1  0  0  0  0
  3 12  1  0  0  0  0
  4  6  1  0  0  0  0
  5 12  1  0  0  0  0
  7 11  1  0  0  0  0
  8  3  1  0  0  0  0
  9  4  1  0  0  0  0
 11 10  1  0  0  0  0
 11  4  1  0  0  0  0
 12  9  1  0  0  0  0
 13 14  1  0  0  0  0
 13 18  1  0  0  0  0
 14 15  1  0  0  0  0
 15 17  1  0  0  0  0
 16  8  1  0  0  0  0
 17 16  1  0  0  0  0
 18 16  1  0  0  0  0
 19 20  1  0  0  0  0
 20 18  1  0  0  0  0
 22 25  1  0  0  0  0
 23 24  1  0  0  0  0
 23 21  1  0  0  0  0
 25 24  2  0  0  0  0
 26 22  2  0  0  0  0
 26 27  1  0  0  0  0
 27 23  2  0  0  0  0
M  END
>  <MODEL>
9

>  <REMARK>
 VINA RESULT:      -6.7      1.267      1.878
  Name = 
  4 active torsions:
  status: ('A' for Active; 'I' for Inactive)
    1  A    between atoms: C_1  and  C_15
    2  A    between atoms: C_9  and  C_15
    3  A    between atoms: C_14  and  N_19
    4  A    between atoms: C_17  and  C_21
                            x       y       z     vdW  Elec       q    Type
                         _______ _______ _______ _____ _____    ______ ____

>  <TORSDO>
F 4

$$$$
