=
 OpenBabel10262422033D

 30 32  0  0  1  0  0  0  0  0999 V2000
  188.1280  178.0930  138.5080 C   0  0  2  0  0  3  0  0  0  0  0  0
  185.7060  178.6500  138.4440 C   0  0  0  0  0  3  0  0  0  0  0  0
  185.3060  178.4450  142.6570 N   0  0  0  0  0  2  0  0  0  0  0  0
  188.4170  179.3440  141.9110 O   0  0  0  0  0  1  0  0  0  0  0  0
  188.7290  176.7460  138.9150 C   0  0  0  0  0  2  0  0  0  0  0  0
  191.7430  176.8430  139.7910 C   0  0  2  0  0  3  0  0  0  0  0  0
  191.1930  177.1430  138.4000 C   0  0  0  0  0  2  0  0  0  0  0  0
  190.1660  174.9970  138.1850 F   0  0  0  0  0  0  0  0  0  0  0  0
  188.6850  176.7240  143.5770 C   0  0  2  0  0  3  0  0  0  0  0  0
  186.3380  177.8350  143.4400 C   0  0  0  0  0  0  0  0  0  0  0  0
  189.9280  176.3530  138.0590 C   0  0  1  0  0  3  0  0  0  0  0  0
  191.0560  177.7440  140.8130 C   0  0  0  0  0  2  0  0  0  0  0  0
  184.4740  178.9180  139.0460 C   0  0  0  0  0  3  0  0  0  0  0  0
  189.6250  175.8030  142.7730 C   0  0  0  0  0  2  0  0  0  0  0  0
  193.2360  177.1100  139.7820 C   0  0  0  0  0  1  0  0  0  0  0  0
  189.0190  179.1380  138.7630 O   0  0  0  0  0  1  0  0  0  0  0  0
  185.4540  178.5690  141.2340 C   0  0  0  0  0  0  0  0  0  0  0  0
  184.3450  178.8770  140.4360 C   0  0  0  0  0  0  0  0  0  0  0  0
  191.5040  177.4890  142.2490 C   0  0  0  0  0  2  0  0  0  0  0  0
  186.8290  178.3470  139.2210 C   0  0  0  0  0  0  0  0  0  0  0  0
  187.9110  178.1050  141.5100 C   0  0  1  0  0  3  0  0  0  0  0  0
  186.2090  177.7360  144.6900 O   0  0  0  0  0  0  0  0  0  0  0  0
  187.5240  177.2530  142.7220 C   0  0  1  0  0  3  0  0  0  0  0  0
  191.7750  175.8220  144.0990 C   0  0  0  0  0  1  0  0  0  0  0  0
  183.1090  179.1300  141.0170 O   0  0  0  0  0  1  0  0  0  0  0  0
  186.7090  178.3240  140.6300 C   0  0  0  0  0  0  0  0  0  0  0  0
  191.1320  176.0990  142.7540 C   0  0  1  0  0  3  0  0  0  0  0  0
  189.2830  177.6670  144.5830 C   0  0  0  0  0  0  0  0  0  0  0  0
  189.2740  177.3130  145.9610 N   0  0  0  0  0  1  0  0  0  0  0  0
  189.7990  178.7590  144.2270 O   0  0  0  0  0  0  0  0  0  0  0  0
  1 16  1  1  0  0  0
  1  5  1  0  0  0  0
  1 20  1  0  0  0  0
  2 13  2  0  0  0  0
  2 20  1  0  0  0  0
  3 10  1  0  0  0  0
  6 15  1  6  0  0  0
  6 12  1  0  0  0  0
  7  6  1  0  0  0  0
  9 28  1  6  0  0  0
 10 22  2  0  0  0  0
 11  8  1  1  0  0  0
 11  7  1  0  0  0  0
 11  5  1  0  0  0  0
 12 19  1  0  0  0  0
 13 18  1  0  0  0  0
 14  9  1  0  0  0  0
 17  3  1  0  0  0  0
 18 25  1  0  0  0  0
 18 17  2  0  0  0  0
 19 27  1  0  0  0  0
 20 26  2  0  0  0  0
 21  4  1  1  0  0  0
 21 23  1  0  0  0  0
 23 10  1  1  0  0  0
 23  9  1  0  0  0  0
 26 17  1  0  0  0  0
 26 21  1  0  0  0  0
 27 14  1  0  0  0  0
 27 24  1  1  0  0  0
 28 29  1  0  0  0  0
 30 28  2  0  0  0  0
M  END
>  <MODEL>
1

>  <REMARK>
 VINA RESULT:      -8.4      0.000      0.000
  Name = 
  1 active torsions:
  status: ('A' for Active; 'I' for Inactive)
    1  A    between atoms: C_7  and  C_10
                            x       y       z     vdW  Elec       q    Type
                         _______ _______ _______ _____ _____    ______ ____

>  <TORSDO>
F 1

$$$$
=
 OpenBabel10262422033D

 30 32  0  0  1  0  0  0  0  0999 V2000
  186.3410  177.8140  146.5900 C   0  0  2  0  0  3  0  0  0  0  0  0
  184.1060  178.5030  145.7460 C   0  0  0  0  0  3  0  0  0  0  0  0
  185.4000  178.6030  141.7120 N   0  0  0  0  0  2  0  0  0  0  0  0
  187.2090  176.3630  143.3700 O   0  0  0  0  0  1  0  0  0  0  0  0
  187.6070  178.6730  146.5840 C   0  0  0  0  0  2  0  0  0  0  0  0
  190.3020  177.0760  146.7960 C   0  0  2  0  0  3  0  0  0  0  0  0
  189.2170  177.1690  147.8640 C   0  0  0  0  0  2  0  0  0  0  0  0
  189.3260  179.5530  147.9730 F   0  0  0  0  0  0  0  0  0  0  0  0
  189.2620  178.4130  142.2330 C   0  0  2  0  0  3  0  0  0  0  0  0
  186.8000  178.5860  141.4140 C   0  0  0  0  0  0  0  0  0  0  0  0
  188.4490  178.4920  147.8420 C   0  0  1  0  0  3  0  0  0  0  0  0
  189.6920  176.5550  145.4980 C   0  0  0  0  0  2  0  0  0  0  0  0
  183.2060  178.8250  144.7280 C   0  0  0  0  0  3  0  0  0  0  0  0
  190.1640  178.8150  143.4180 C   0  0  0  0  0  2  0  0  0  0  0  0
  191.3740  176.1210  147.2870 C   0  0  0  0  0  1  0  0  0  0  0  0
  186.6570  176.4550  146.5320 O   0  0  0  0  0  1  0  0  0  0  0  0
  184.9480  178.5150  143.0730 C   0  0  0  0  0  0  0  0  0  0  0  0
  183.6220  178.8340  143.3950 C   0  0  0  0  0  0  0  0  0  0  0  0
  190.6910  176.4680  144.3480 C   0  0  0  0  0  2  0  0  0  0  0  0
  185.4330  178.1740  145.4480 C   0  0  0  0  0  0  0  0  0  0  0  0
  187.2430  177.7140  143.7200 C   0  0  1  0  0  3  0  0  0  0  0  0
  187.1930  178.6550  140.2190 O   0  0  0  0  0  0  0  0  0  0  0  0
  187.7700  178.5680  142.5630 C   0  0  1  0  0  3  0  0  0  0  0  0
  192.3620  177.6740  142.9230 C   0  0  0  0  0  1  0  0  0  0  0  0
  182.7170  179.1730  142.3970 O   0  0  0  0  0  1  0  0  0  0  0  0
  185.8550  178.1610  144.0980 C   0  0  0  0  0  0  0  0  0  0  0  0
  191.2300  177.8300  143.9190 C   0  0  1  0  0  3  0  0  0  0  0  0
  189.6610  177.2360  141.3870 C   0  0  0  0  0  0  0  0  0  0  0  0
  190.3110  177.4610  140.1420 N   0  0  0  0  0  1  0  0  0  0  0  0
  189.4380  176.0560  141.7660 O   0  0  0  0  0  0  0  0  0  0  0  0
  1 16  1  6  0  0  0
  3 17  1  0  0  0  0
  5  1  1  0  0  0  0
  5 11  1  0  0  0  0
  6 15  1  1  0  0  0
  6  7  1  0  0  0  0
  9 28  1  1  0  0  0
  9 23  1  0  0  0  0
  9 14  1  0  0  0  0
 10  3  1  0  0  0  0
 11  7  1  0  0  0  0
 11  8  1  6  0  0  0
 12  6  1  0  0  0  0
 13  2  2  0  0  0  0
 14 27  1  0  0  0  0
 17 18  2  0  0  0  0
 17 26  1  0  0  0  0
 18 13  1  0  0  0  0
 19 12  1  0  0  0  0
 20  2  1  0  0  0  0
 20  1  1  0  0  0  0
 21  4  1  6  0  0  0
 21 26  1  0  0  0  0
 22 10  2  0  0  0  0
 23 10  1  6  0  0  0
 23 21  1  0  0  0  0
 25 18  1  0  0  0  0
 26 20  2  0  0  0  0
 27 24  1  6  0  0  0
 27 19  1  0  0  0  0
 28 30  2  0  0  0  0
 29 28  1  0  0  0  0
M  END
>  <MODEL>
2

>  <REMARK>
 VINA RESULT:      -8.3      3.156      5.630
  Name = 
  1 active torsions:
  status: ('A' for Active; 'I' for Inactive)
    1  A    between atoms: C_7  and  C_10
                            x       y       z     vdW  Elec       q    Type
                         _______ _______ _______ _____ _____    ______ ____

>  <TORSDO>
F 1

$$$$
=
 OpenBabel10262422033D

 30 32  0  0  1  0  0  0  0  0999 V2000
  184.7760  178.5470  144.4330 C   0  0  2  0  0  3  0  0  0  0  0  0
  183.6800  179.0730  142.2640 C   0  0  0  0  0  3  0  0  0  0  0  0
  187.2160  178.3670  140.0370 N   0  0  0  0  0  2  0  0  0  0  0  0
  187.2710  176.4850  142.7740 O   0  0  0  0  0  1  0  0  0  0  0  0
  185.8660  179.3790  145.1130 C   0  0  0  0  0  2  0  0  0  0  0  0
  187.5920  177.8350  147.2340 C   0  0  2  0  0  3  0  0  0  0  0  0
  186.1010  178.1450  147.3300 C   0  0  0  0  0  2  0  0  0  0  0  0
  186.4310  180.5020  147.1320 F   0  0  0  0  0  0  0  0  0  0  0  0
  189.8300  178.2550  142.9310 C   0  0  2  0  0  3  0  0  0  0  0  0
  188.4760  178.2820  140.7120 C   0  0  0  0  0  0  0  0  0  0  0  0
  185.6990  179.4430  146.6270 C   0  0  1  0  0  3  0  0  0  0  0  0
  187.8680  177.0730  145.9410 C   0  0  0  0  0  2  0  0  0  0  0  0
  183.6700  179.1950  140.8720 C   0  0  0  0  0  3  0  0  0  0  0  0
  189.8330  178.8760  144.3440 C   0  0  0  0  0  2  0  0  0  0  0  0
  187.9810  176.9880  148.4300 C   0  0  0  0  0  1  0  0  0  0  0  0
  184.8760  177.2010  144.7910 O   0  0  0  0  0  1  0  0  0  0  0  0
  186.0040  178.5520  140.7860 C   0  0  0  0  0  0  0  0  0  0  0  0
  184.8260  178.9380  140.1330 C   0  0  0  0  0  0  0  0  0  0  0  0
  189.3450  176.7540  145.7260 C   0  0  0  0  0  2  0  0  0  0  0  0
  184.8430  178.6820  142.9370 C   0  0  0  0  0  0  0  0  0  0  0  0
  187.2550  177.8780  142.8620 C   0  0  1  0  0  3  0  0  0  0  0  0
  189.5360  178.1100  140.0530 O   0  0  0  0  0  0  0  0  0  0  0  0
  188.4980  178.4830  142.2020 C   0  0  1  0  0  3  0  0  0  0  0  0
  191.6800  177.6430  145.5460 C   0  0  0  0  0  1  0  0  0  0  0  0
  184.8020  179.0800  138.7510 O   0  0  0  0  0  1  0  0  0  0  0  0
  186.0110  178.4000  142.1920 C   0  0  0  0  0  0  0  0  0  0  0  0
  190.2070  178.0000  145.5480 C   0  0  1  0  0  3  0  0  0  0  0  0
  190.5110  176.9310  142.7220 C   0  0  0  0  0  0  0  0  0  0  0  0
  191.8840  176.9050  142.3490 N   0  0  0  0  0  1  0  0  0  0  0  0
  189.8910  175.8470  142.8810 O   0  0  0  0  0  0  0  0  0  0  0  0
  1 16  1  6  0  0  0
  1  5  1  0  0  0  0
  2 20  1  0  0  0  0
  3 10  1  0  0  0  0
  3 17  1  0  0  0  0
  5 11  1  0  0  0  0
  6  7  1  0  0  0  0
  6 15  1  1  0  0  0
  9 28  1  1  0  0  0
  9 14  1  0  0  0  0
 11  8  1  1  0  0  0
 11  7  1  0  0  0  0
 12  6  1  0  0  0  0
 13  2  2  0  0  0  0
 14 27  1  0  0  0  0
 17 26  1  0  0  0  0
 18 17  2  0  0  0  0
 18 13  1  0  0  0  0
 19 12  1  0  0  0  0
 20  1  1  0  0  0  0
 21  4  1  6  0  0  0
 22 10  2  0  0  0  0
 23 10  1  6  0  0  0
 23 21  1  0  0  0  0
 23  9  1  0  0  0  0
 25 18  1  0  0  0  0
 26 21  1  0  0  0  0
 26 20  2  0  0  0  0
 27 24  1  6  0  0  0
 27 19  1  0  0  0  0
 28 30  2  0  0  0  0
 29 28  1  0  0  0  0
M  END
>  <MODEL>
3

>  <REMARK>
 VINA RESULT:      -7.4      3.063      5.514
  Name = 
  1 active torsions:
  status: ('A' for Active; 'I' for Inactive)
    1  A    between atoms: C_7  and  C_10
                            x       y       z     vdW  Elec       q    Type
                         _______ _______ _______ _____ _____    ______ ____

>  <TORSDO>
F 1

$$$$
=
 OpenBabel10262422033D

 30 32  0  0  1  0  0  0  0  0999 V2000
  185.2090  178.7050  141.6500 C   0  0  2  0  0  3  0  0  0  0  0  0
  185.6190  178.8140  139.2010 C   0  0  0  0  0  3  0  0  0  0  0  0
  189.6400  177.5330  139.5780 N   0  0  0  0  0  2  0  0  0  0  0  0
  187.8610  176.2540  142.0750 O   0  0  0  0  0  1  0  0  0  0  0  0
  185.8360  179.6180  142.7070 C   0  0  0  0  0  2  0  0  0  0  0  0
  185.8130  178.4800  145.6330 C   0  0  2  0  0  3  0  0  0  0  0  0
  184.5930  178.8580  144.7980 C   0  0  0  0  0  2  0  0  0  0  0  0
  185.3250  181.1110  144.4870 F   0  0  0  0  0  0  0  0  0  0  0  0
  190.1180  177.9210  143.4310 C   0  0  2  0  0  3  0  0  0  0  0  0
  190.2710  177.5410  140.8630 C   0  0  0  0  0  0  0  0  0  0  0  0
  184.8570  179.9990  143.8120 C   0  0  1  0  0  3  0  0  0  0  0  0
  186.6510  177.4580  144.8710 C   0  0  0  0  0  2  0  0  0  0  0  0
  186.4120  178.6470  138.0630 C   0  0  0  0  0  3  0  0  0  0  0  0
  189.4170  178.8190  144.4720 C   0  0  0  0  0  2  0  0  0  0  0  0
  185.3280  177.8830  146.9410 C   0  0  0  0  0  1  0  0  0  0  0  0
  184.8870  177.4590  142.1920 O   0  0  0  0  0  1  0  0  0  0  0  0
  188.2610  177.9140  139.4450 C   0  0  0  0  0  0  0  0  0  0  0  0
  187.7300  178.2010  138.1810 C   0  0  0  0  0  0  0  0  0  0  0  0
  187.9250  177.0470  145.6050 C   0  0  0  0  0  2  0  0  0  0  0  0
  186.1260  178.5270  140.4720 C   0  0  0  0  0  0  0  0  0  0  0  0
  188.0080  177.6350  141.9330 C   0  0  1  0  0  3  0  0  0  0  0  0
  191.4790  177.1990  140.9770 O   0  0  0  0  0  0  0  0  0  0  0  0
  189.4800  178.0440  142.0390 C   0  0  1  0  0  3  0  0  0  0  0  0
  190.0570  177.7910  146.6890 C   0  0  0  0  0  1  0  0  0  0  0  0
  188.5100  178.0570  137.0410 O   0  0  0  0  0  1  0  0  0  0  0  0
  187.4530  178.0540  140.5970 C   0  0  0  0  0  0  0  0  0  0  0  0
  188.9120  178.1970  145.7810 C   0  0  1  0  0  3  0  0  0  0  0  0
  190.5910  176.5580  143.8530 C   0  0  0  0  0  0  0  0  0  0  0  0
  191.7590  176.4440  144.6570 N   0  0  0  0  0  1  0  0  0  0  0  0
  189.9670  175.5190  143.5160 O   0  0  0  0  0  0  0  0  0  0  0  0
  1 16  1  1  0  0  0
  1  5  1  0  0  0  0
  2 20  1  0  0  0  0
  3 10  1  0  0  0  0
  5 11  1  0  0  0  0
  6 15  1  1  0  0  0
  7  6  1  0  0  0  0
  9 28  1  1  0  0  0
  9 14  1  0  0  0  0
 10 22  2  0  0  0  0
 11  8  1  1  0  0  0
 11  7  1  0  0  0  0
 12 19  1  0  0  0  0
 12  6  1  0  0  0  0
 13 18  1  0  0  0  0
 13  2  2  0  0  0  0
 14 27  1  0  0  0  0
 17  3  1  0  0  0  0
 17 26  1  0  0  0  0
 18 17  2  0  0  0  0
 19 27  1  0  0  0  0
 20 26  2  0  0  0  0
 20  1  1  0  0  0  0
 21 23  1  0  0  0  0
 21  4  1  6  0  0  0
 23 10  1  6  0  0  0
 23  9  1  0  0  0  0
 25 18  1  0  0  0  0
 26 21  1  0  0  0  0
 27 24  1  6  0  0  0
 28 29  1  0  0  0  0
 30 28  2  0  0  0  0
M  END
>  <MODEL>
4

>  <REMARK>
 VINA RESULT:      -6.4      2.863      5.322
  Name = 
  1 active torsions:
  status: ('A' for Active; 'I' for Inactive)
    1  A    between atoms: C_7  and  C_10
                            x       y       z     vdW  Elec       q    Type
                         _______ _______ _______ _____ _____    ______ ____

>  <TORSDO>
F 1

$$$$
=
 OpenBabel10262422033D

 30 32  0  0  1  0  0  0  0  0999 V2000
  188.6640  177.9980  140.4870 C   0  0  2  0  0  3  0  0  0  0  0  0
  186.9510  178.1860  138.6950 C   0  0  0  0  0  3  0  0  0  0  0  0
  183.7820  178.7260  141.4550 N   0  0  0  0  0  2  0  0  0  0  0  0
  186.5890  179.8960  142.7930 O   0  0  0  0  0  1  0  0  0  0  0  0
  188.7900  176.8500  141.4910 C   0  0  0  0  0  2  0  0  0  0  0  0
  190.3990  177.5330  144.1000 C   0  0  2  0  0  3  0  0  0  0  0  0
  190.9530  177.4850  142.6800 C   0  0  0  0  0  2  0  0  0  0  0  0
  190.2920  175.2140  142.3440 F   0  0  0  0  0  0  0  0  0  0  0  0
  185.5790  177.7020  144.7620 C   0  0  2  0  0  3  0  0  0  0  0  0
  183.9860  178.4260  142.8390 C   0  0  0  0  0  0  0  0  0  0  0  0
  190.2400  176.4750  141.7780 C   0  0  1  0  0  3  0  0  0  0  0  0
  189.2240  178.5050  144.1530 C   0  0  0  0  0  2  0  0  0  0  0  0
  185.6480  178.3870  138.2360 C   0  0  0  0  0  3  0  0  0  0  0  0
  186.7900  176.7870  145.0370 C   0  0  0  0  0  2  0  0  0  0  0  0
  191.5040  178.0010  145.0280 C   0  0  0  0  0  1  0  0  0  0  0  0
  189.1690  179.1860  141.0190 O   0  0  0  0  0  1  0  0  0  0  0  0
  184.8640  178.5990  140.5180 C   0  0  0  0  0  0  0  0  0  0  0  0
  184.6050  178.5920  139.1410 C   0  0  0  0  0  0  0  0  0  0  0  0
  188.5660  178.5910  145.5270 C   0  0  0  0  0  2  0  0  0  0  0  0
  187.2350  178.1970  140.0640 C   0  0  0  0  0  0  0  0  0  0  0  0
  186.4600  178.5460  142.4620 C   0  0  1  0  0  3  0  0  0  0  0  0
  183.0370  178.5480  143.6600 O   0  0  0  0  0  0  0  0  0  0  0  0
  185.3270  177.8910  143.2590 C   0  0  1  0  0  3  0  0  0  0  0  0
  187.4580  177.3580  147.4060 C   0  0  0  0  0  1  0  0  0  0  0  0
  183.3110  178.7730  138.6680 O   0  0  0  0  0  1  0  0  0  0  0  0
  186.1870  178.4230  140.9860 C   0  0  0  0  0  0  0  0  0  0  0  0
  187.9120  177.2830  145.9610 C   0  0  1  0  0  3  0  0  0  0  0  0
  185.3560  178.8930  145.6530 C   0  0  0  0  0  0  0  0  0  0  0  0
  184.7220  178.7110  146.9130 N   0  0  0  0  0  1  0  0  0  0  0  0
  185.7270  180.0440  145.3060 O   0  0  0  0  0  0  0  0  0  0  0  0
  1 16  1  1  0  0  0
  1  5  1  0  0  0  0
  2 20  1  0  0  0  0
  3 10  1  0  0  0  0
  5 11  1  0  0  0  0
  6 12  1  0  0  0  0
  6 15  1  1  0  0  0
  7  6  1  0  0  0  0
  9 14  1  0  0  0  0
  9 28  1  6  0  0  0
 10 22  2  0  0  0  0
 11  8  1  1  0  0  0
 11  7  1  0  0  0  0
 12 19  1  0  0  0  0
 13  2  2  0  0  0  0
 13 18  1  0  0  0  0
 14 27  1  0  0  0  0
 17 26  1  0  0  0  0
 17  3  1  0  0  0  0
 18 17  2  0  0  0  0
 19 27  1  0  0  0  0
 20  1  1  0  0  0  0
 20 26  2  0  0  0  0
 21  4  1  1  0  0  0
 21 23  1  0  0  0  0
 23 10  1  1  0  0  0
 23  9  1  0  0  0  0
 25 18  1  0  0  0  0
 26 21  1  0  0  0  0
 27 24  1  1  0  0  0
 28 29  1  0  0  0  0
 30 28  2  0  0  0  0
M  END
>  <MODEL>
5

>  <REMARK>
 VINA RESULT:      -6.3      2.199      3.385
  Name = 
  1 active torsions:
  status: ('A' for Active; 'I' for Inactive)
    1  A    between atoms: C_7  and  C_10
                            x       y       z     vdW  Elec       q    Type
                         _______ _______ _______ _____ _____    ______ ____

>  <TORSDO>
F 1

$$$$
=
 OpenBabel10262422033D

 30 32  0  0  1  0  0  0  0  0999 V2000
  190.7460  177.1460  141.2290 C   0  0  2  0  0  3  0  0  0  0  0  0
  190.3670  177.3480  138.7800 C   0  0  0  0  0  3  0  0  0  0  0  0
  186.3600  178.6360  139.2690 N   0  0  0  0  0  2  0  0  0  0  0  0
  188.1250  179.5690  141.9250 O   0  0  0  0  0  1  0  0  0  0  0  0
  190.0930  176.1210  142.1580 C   0  0  0  0  0  2  0  0  0  0  0  0
  190.0950  176.8880  145.2030 C   0  0  2  0  0  3  0  0  0  0  0  0
  191.3190  176.5960  144.3400 C   0  0  0  0  0  2  0  0  0  0  0  0
  190.5590  174.4110  143.7460 F   0  0  0  0  0  0  0  0  0  0  0  0
  185.8270  177.7830  143.0390 C   0  0  2  0  0  3  0  0  0  0  0  0
  185.7120  178.4790  140.5360 C   0  0  0  0  0  0  0  0  0  0  0  0
  191.0520  175.5910  143.2180 C   0  0  1  0  0  3  0  0  0  0  0  0
  189.2810  178.0090  144.5630 C   0  0  0  0  0  2  0  0  0  0  0  0
  189.5900  177.6660  137.6640 C   0  0  0  0  0  3  0  0  0  0  0  0
  186.5010  176.7530  143.9690 C   0  0  0  0  0  2  0  0  0  0  0  0
  190.5710  177.3110  146.5800 C   0  0  0  0  0  1  0  0  0  0  0  0
  191.0790  178.3110  141.9240 O   0  0  0  0  0  1  0  0  0  0  0  0
  187.7350  178.2530  139.1060 C   0  0  0  0  0  0  0  0  0  0  0  0
  188.2780  178.1150  137.8220 C   0  0  0  0  0  0  0  0  0  0  0  0
  188.0040  178.3470  145.3280 C   0  0  0  0  0  2  0  0  0  0  0  0
  189.8480  177.4840  140.0720 C   0  0  0  0  0  0  0  0  0  0  0  0
  187.9600  178.2190  141.6110 C   0  0  1  0  0  3  0  0  0  0  0  0
  184.5090  178.8250  140.6790 O   0  0  0  0  0  0  0  0  0  0  0  0
  186.4810  177.8230  141.6500 C   0  0  1  0  0  3  0  0  0  0  0  0
  185.8480  177.5090  146.2880 C   0  0  0  0  0  1  0  0  0  0  0  0
  187.5150  178.4120  136.6990 O   0  0  0  0  0  1  0  0  0  0  0  0
  188.5260  177.9580  140.2400 C   0  0  0  0  0  0  0  0  0  0  0  0
  186.9990  177.2000  145.3510 C   0  0  1  0  0  3  0  0  0  0  0  0
  185.3680  179.0910  143.6210 C   0  0  0  0  0  0  0  0  0  0  0  0
  184.1410  179.1420  144.3380 N   0  0  0  0  0  1  0  0  0  0  0  0
  186.0560  180.1380  143.4930 O   0  0  0  0  0  0  0  0  0  0  0  0
  1 16  1  1  0  0  0
  1  5  1  0  0  0  0
  2 20  1  0  0  0  0
  3 10  1  0  0  0  0
  5 11  1  0  0  0  0
  6 15  1  1  0  0  0
  7  6  1  0  0  0  0
  9 28  1  1  0  0  0
  9 14  1  0  0  0  0
 10 22  2  0  0  0  0
 11  8  1  1  0  0  0
 11  7  1  0  0  0  0
 12  6  1  0  0  0  0
 12 19  1  0  0  0  0
 13 18  1  0  0  0  0
 13  2  2  0  0  0  0
 14 27  1  0  0  0  0
 17  3  1  0  0  0  0
 17 26  1  0  0  0  0
 18 17  2  0  0  0  0
 19 27  1  0  0  0  0
 20 26  2  0  0  0  0
 20  1  1  0  0  0  0
 21 23  1  0  0  0  0
 21  4  1  6  0  0  0
 23 10  1  6  0  0  0
 23  9  1  0  0  0  0
 25 18  1  0  0  0  0
 26 21  1  0  0  0  0
 27 24  1  1  0  0  0
 28 29  1  0  0  0  0
 30 28  2  0  0  0  0
M  END
>  <MODEL>
6

>  <REMARK>
 VINA RESULT:      -6.3      2.104      4.485
  Name = 
  1 active torsions:
  status: ('A' for Active; 'I' for Inactive)
    1  A    between atoms: C_7  and  C_10
                            x       y       z     vdW  Elec       q    Type
                         _______ _______ _______ _____ _____    ______ ____

>  <TORSDO>
F 1

$$$$
=
 OpenBabel10262422033D

 30 32  0  0  1  0  0  0  0  0999 V2000
  185.2510  178.4620  142.8280 C   0  0  2  0  0  3  0  0  0  0  0  0
  186.7420  177.8750  144.7290 C   0  0  0  0  0  3  0  0  0  0  0  0
  190.0840  177.2090  142.2100 N   0  0  0  0  0  2  0  0  0  0  0  0
  188.0940  179.4600  140.7910 O   0  0  0  0  0  1  0  0  0  0  0  0
  184.7640  177.5030  141.7400 C   0  0  0  0  0  2  0  0  0  0  0  0
  183.7820  178.8780  139.0930 C   0  0  2  0  0  3  0  0  0  0  0  0
  183.1380  179.0000  140.4710 C   0  0  0  0  0  2  0  0  0  0  0  0
  182.8120  176.6430  140.6850 F   0  0  0  0  0  0  0  0  0  0  0  0
  188.3100  177.1270  138.7360 C   0  0  2  0  0  3  0  0  0  0  0  0
  189.8940  177.0730  140.7980 C   0  0  0  0  0  0  0  0  0  0  0  0
  183.3140  177.7530  141.3400 C   0  0  1  0  0  3  0  0  0  0  0  0
  185.2460  179.3000  139.1800 C   0  0  0  0  0  2  0  0  0  0  0  0
  187.9750  177.5170  145.2780 C   0  0  0  0  0  3  0  0  0  0  0  0
  186.8630  176.7860  138.3250 C   0  0  0  0  0  2  0  0  0  0  0  0
  183.0350  179.7880  138.1350 C   0  0  0  0  0  1  0  0  0  0  0  0
  185.3050  179.7740  142.3520 O   0  0  0  0  0  1  0  0  0  0  0  0
  188.9660  177.4890  143.0680 C   0  0  0  0  0  0  0  0  0  0  0  0
  189.0850  177.3230  144.4540 C   0  0  0  0  0  0  0  0  0  0  0  0
  185.9970  179.1700  137.8570 C   0  0  0  0  0  2  0  0  0  0  0  0
  186.6010  178.0540  143.3490 C   0  0  0  0  0  0  0  0  0  0  0  0
  187.6480  178.1590  141.0330 C   0  0  1  0  0  3  0  0  0  0  0  0
  190.8770  176.8360  140.0470 O   0  0  0  0  0  0  0  0  0  0  0  0
  188.4900  177.1380  140.2610 C   0  0  1  0  0  3  0  0  0  0  0  0
  186.6770  177.6730  135.9670 C   0  0  0  0  0  1  0  0  0  0  0  0
  190.3000  176.9510  145.0170 O   0  0  0  0  0  1  0  0  0  0  0  0
  187.7260  177.8780  142.5100 C   0  0  0  0  0  0  0  0  0  0  0  0
  186.1110  177.7280  137.3730 C   0  0  1  0  0  3  0  0  0  0  0  0
  189.0610  178.1630  137.9470 C   0  0  0  0  0  0  0  0  0  0  0  0
  189.8050  177.7630  136.8030 N   0  0  0  0  0  1  0  0  0  0  0  0
  189.0350  179.3780  138.2760 O   0  0  0  0  0  0  0  0  0  0  0  0
  1 16  1  6  0  0  0
  1 20  1  0  0  0  0
  2 13  1  0  0  0  0
  3 17  1  0  0  0  0
  5  1  1  0  0  0  0
  6 15  1  6  0  0  0
  6 12  1  0  0  0  0
  6  7  1  0  0  0  0
  7 11  1  0  0  0  0
  9 28  1  1  0  0  0
  9 23  1  0  0  0  0
 10  3  1  0  0  0  0
 11  8  1  6  0  0  0
 11  5  1  0  0  0  0
 14  9  1  0  0  0  0
 17 18  1  0  0  0  0
 18 25  1  0  0  0  0
 18 13  2  0  0  0  0
 19 12  1  0  0  0  0
 20  2  2  0  0  0  0
 21  4  1  1  0  0  0
 21 26  1  0  0  0  0
 22 10  2  0  0  0  0
 23 10  1  6  0  0  0
 23 21  1  0  0  0  0
 26 17  2  0  0  0  0
 26 20  1  0  0  0  0
 27 24  1  6  0  0  0
 27 19  1  0  0  0  0
 27 14  1  0  0  0  0
 28 30  2  0  0  0  0
 29 28  1  0  0  0  0
M  END
>  <MODEL>
7

>  <REMARK>
 VINA RESULT:      -5.8      2.549      6.474
  Name = 
  1 active torsions:
  status: ('A' for Active; 'I' for Inactive)
    1  A    between atoms: C_7  and  C_10
                            x       y       z     vdW  Elec       q    Type
                         _______ _______ _______ _____ _____    ______ ____

>  <TORSDO>
F 1

$$$$
=
 OpenBabel10262422033D

 30 32  0  0  1  0  0  0  0  0999 V2000
  182.1720  177.6470  139.7930 C   0  0  2  0  0  3  0  0  0  0  0  0
  182.4680  178.4300  142.1340 C   0  0  0  0  0  3  0  0  0  0  0  0
  186.6050  179.1810  141.6090 N   0  0  0  0  0  2  0  0  0  0  0  0
  185.0610  179.5640  138.6930 O   0  0  0  0  0  1  0  0  0  0  0  0
  182.7530  176.3640  139.1950 C   0  0  0  0  0  2  0  0  0  0  0  0
  182.9590  176.3290  136.0610 C   0  0  2  0  0  3  0  0  0  0  0  0
  181.6760  176.3780  136.8850 C   0  0  0  0  0  2  0  0  0  0  0  0
  182.1770  174.3570  138.0550 F   0  0  0  0  0  0  0  0  0  0  0  0
  187.2020  177.3520  138.2150 C   0  0  2  0  0  3  0  0  0  0  0  0
  187.2850  178.6490  140.4680 C   0  0  0  0  0  0  0  0  0  0  0  0
  181.7890  175.6710  138.2370 C   0  0  1  0  0  3  0  0  0  0  0  0
  183.8580  177.4970  136.4550 C   0  0  0  0  0  2  0  0  0  0  0  0
  183.2260  178.9490  143.1850 C   0  0  0  0  0  3  0  0  0  0  0  0
  186.4640  176.1850  137.5280 C   0  0  0  0  0  2  0  0  0  0  0  0
  182.5880  176.4290  134.5940 C   0  0  0  0  0  1  0  0  0  0  0  0
  181.9930  178.6220  138.8090 O   0  0  0  0  0  1  0  0  0  0  0  0
  185.1920  178.9790  141.7710 C   0  0  0  0  0  0  0  0  0  0  0  0
  184.5830  179.2230  143.0090 C   0  0  0  0  0  0  0  0  0  0  0  0
  185.1950  177.5110  135.7170 C   0  0  0  0  0  2  0  0  0  0  0  0
  183.0520  178.1850  140.8870 C   0  0  0  0  0  0  0  0  0  0  0  0
  185.0690  178.3290  139.3430 C   0  0  1  0  0  3  0  0  0  0  0  0
  188.5230  178.8360  140.3250 O   0  0  0  0  0  0  0  0  0  0  0  0
  186.4990  177.8040  139.5030 C   0  0  1  0  0  3  0  0  0  0  0  0
  187.2890  176.2630  135.1430 C   0  0  0  0  0  1  0  0  0  0  0  0
  185.3260  179.7240  144.0710 O   0  0  0  0  0  1  0  0  0  0  0  0
  184.4220  178.4790  140.6950 C   0  0  0  0  0  0  0  0  0  0  0  0
  186.0740  176.3100  136.0480 C   0  0  1  0  0  3  0  0  0  0  0  0
  187.8200  178.4210  137.3580 C   0  0  0  0  0  0  0  0  0  0  0  0
  189.1950  178.3260  137.0070 N   0  0  0  0  0  1  0  0  0  0  0  0
  187.1400  179.3940  136.9380 O   0  0  0  0  0  0  0  0  0  0  0  0
  1 16  1  6  0  0  0
  1 20  1  0  0  0  0
  2 13  1  0  0  0  0
  3 17  1  0  0  0  0
  5  1  1  0  0  0  0
  6 15  1  6  0  0  0
  6 12  1  0  0  0  0
  6  7  1  0  0  0  0
  7 11  1  0  0  0  0
  9 28  1  6  0  0  0
  9 23  1  0  0  0  0
 10  3  1  0  0  0  0
 11  8  1  6  0  0  0
 11  5  1  0  0  0  0
 14  9  1  0  0  0  0
 17 18  1  0  0  0  0
 18 13  2  0  0  0  0
 18 25  1  0  0  0  0
 19 27  1  0  0  0  0
 19 12  1  0  0  0  0
 20  2  2  0  0  0  0
 21  4  1  1  0  0  0
 21 23  1  0  0  0  0
 21 26  1  0  0  0  0
 22 10  2  0  0  0  0
 23 10  1  6  0  0  0
 26 20  1  0  0  0  0
 26 17  2  0  0  0  0
 27 24  1  6  0  0  0
 27 14  1  0  0  0  0
 29 28  1  0  0  0  0
 30 28  2  0  0  0  0
M  END
>  <MODEL>
8

>  <REMARK>
 VINA RESULT:      -5.7      3.642      6.689
  Name = 
  1 active torsions:
  status: ('A' for Active; 'I' for Inactive)
    1  A    between atoms: C_7  and  C_10
                            x       y       z     vdW  Elec       q    Type
                         _______ _______ _______ _____ _____    ______ ____

>  <TORSDO>
F 1

$$$$
