=
 OpenBabel10262419403D

 31 34  0  0  1  0  0  0  0  0999 V2000
  187.6320  177.1910  143.5820 C   0  0  2  0  0  3  0  0  0  0  0  0
  188.5900  177.3270  141.3730 C   0  0  2  0  0  3  0  0  0  0  0  0
  187.3870  178.2550  141.4200 C   0  0  0  0  0  2  0  0  0  0  0  0
  188.9060  176.9130  142.8100 C   0  0  2  0  0  3  0  0  0  0  0  0
  186.9480  178.3450  142.8760 C   0  0  1  0  0  3  0  0  0  0  0  0
  187.8770  177.4450  145.0390 C   0  0  0  0  0  0  0  0  0  0  0  0
  186.9950  178.0610  147.2140 C   0  0  0  0  0  3  0  0  0  0  0  0
  186.7990  177.8100  145.8530 C   0  0  0  0  0  3  0  0  0  0  0  0
  188.2740  177.9520  147.7620 C   0  0  0  0  0  3  0  0  0  0  0  0
  190.5980  177.5020  147.4970 F   0  0  0  0  0  0  0  0  0  0  0  0
  189.1620  177.3370  145.5960 C   0  0  0  0  0  3  0  0  0  0  0  0
  189.3580  177.5940  146.9560 C   0  0  0  0  0  0  0  0  0  0  0  0
  183.3370  178.1360  141.9490 C   0  0  0  0  0  2  0  0  0  0  0  0
  185.4250  178.2630  143.0380 C   0  0  2  0  0  3  0  0  0  0  0  0
  183.4330  179.3820  144.0900 C   0  0  0  0  0  3  0  0  0  0  0  0
  182.6960  178.9200  143.0690 C   0  0  0  0  0  3  0  0  0  0  0  0
  184.7330  178.5280  141.7750 N   0  0  0  0  0  2  0  0  0  0  0  0
  184.9340  179.2320  144.1220 C   0  0  0  0  0  2  0  0  0  0  0  0
  189.1490  178.7990  139.4770 C   0  0  0  0  0  1  0  0  0  0  0  0
  189.7500  177.9800  140.6110 C   0  0  2  0  0  3  0  0  0  0  0  0
  190.6270  177.0070  140.1000 O   0  0  0  0  0  0  0  0  0  0  0  0
  190.5870  175.2130  138.6940 O   0  0  0  0  0  0  0  0  0  0  0  0
  190.5650  175.9980  136.4340 C   0  0  0  0  0  1  0  0  0  0  0  0
  191.0650  176.2300  137.8520 C   0  0  1  0  0  0  0  0  0  0  0  0
  190.0630  176.5020  138.9160 C   0  0  2  0  0  3  0  0  0  0  0  0
  192.5550  176.4920  138.0950 C   0  0  0  0  0  2  0  0  0  0  0  0
  193.4290  175.6300  137.1900 C   0  0  0  0  0  3  0  0  0  0  0  0
  194.4180  174.8450  138.0270 C   0  0  0  0  0  1  0  0  0  0  0  0
  194.1820  176.4790  136.1840 C   0  0  0  0  0  1  0  0  0  0  0  0
  190.5670  175.1900  142.9290 O   0  0  0  0  0  1  0  0  0  0  0  0
  189.1940  175.4190  142.8740 C   0  0  0  0  0  2  0  0  0  0  0  0
  1  6  1  1  0  0  0
  2 20  1  1  0  0  0
  2  3  1  0  0  0  0
  2  4  1  0  0  0  0
  4 31  1  6  0  0  0
  4  1  1  0  0  0  0
  5  3  1  6  0  0  0
  5 14  1  0  0  0  0
  5  1  1  0  0  0  0
  6 11  2  0  0  0  0
  6  8  1  0  0  0  0
  7  9  1  0  0  0  0
  8  7  2  0  0  0  0
 11 12  1  0  0  0  0
 12 10  1  0  0  0  0
 12  9  2  0  0  0  0
 13 16  1  0  0  0  0
 14 18  1  1  0  0  0
 15 18  1  0  0  0  0
 16 15  2  0  0  0  0
 17 13  1  0  0  0  0
 17 14  1  0  0  0  0
 20 19  1  6  0  0  0
 21 20  1  0  0  0  0
 22 25  1  0  0  0  0
 24 23  1  6  0  0  0
 24 26  1  0  0  0  0
 24 22  1  0  0  0  0
 24 25  1  0  0  0  0
 25 21  1  1  0  0  0
 27 28  1  0  0  0  0
 27 26  1  0  0  0  0
 29 27  1  0  0  0  0
 31 30  1  0  0  0  0
M  END
>  <MODEL>
1

>  <REMARK>
 VINA RESULT:      -8.2      0.000      0.000
  Name = 
  8 active torsions:
  status: ('A' for Active; 'I' for Inactive)
    1  A    between atoms: C_1  and  C_24
    2  A    between atoms: C_4  and  C_5
    3  A    between atoms: C_9  and  C_15
    4  A    between atoms: C_9  and  O_23
    5  A    between atoms: C_12  and  C_27
    6  A    between atoms: C_19  and  C_24
    7  A    between atoms: C_21  and  C_29
    8  A    between atoms: C_22  and  O_23
                            x       y       z     vdW  Elec       q    Type
                         _______ _______ _______ _____ _____    ______ ____

>  <TORSDO>
F 8

$$$$
=
 OpenBabel10262419403D

 31 34  0  0  1  0  0  0  0  0999 V2000
  187.1440  177.8640  137.9590 C   0  0  2  0  0  3  0  0  0  0  0  0
  188.2540  178.5300  139.9920 C   0  0  2  0  0  3  0  0  0  0  0  0
  186.7590  178.4930  140.2660 C   0  0  0  0  0  2  0  0  0  0  0  0
  188.4920  177.8430  138.6490 C   0  0  2  0  0  3  0  0  0  0  0  0
  186.1000  177.8390  139.0580 C   0  0  1  0  0  3  0  0  0  0  0  0
  186.9830  176.7590  136.9580 C   0  0  0  0  0  0  0  0  0  0  0  0
  186.3800  176.0660  134.7130 C   0  0  0  0  0  3  0  0  0  0  0  0
  186.5480  177.0750  135.6660 C   0  0  0  0  0  3  0  0  0  0  0  0
  186.6430  174.7380  135.0530 C   0  0  0  0  0  3  0  0  0  0  0  0
  187.3130  173.1180  136.6650 F   0  0  0  0  0  0  0  0  0  0  0  0
  187.2450  175.4220  137.2950 C   0  0  0  0  0  3  0  0  0  0  0  0
  187.0720  174.4130  136.3420 C   0  0  0  0  0  0  0  0  0  0  0  0
  183.4180  180.4330  138.9310 C   0  0  0  0  0  2  0  0  0  0  0  0
  184.8230  178.5650  138.6190 C   0  0  2  0  0  3  0  0  0  0  0  0
  182.3430  178.2910  138.2960 C   0  0  0  0  0  3  0  0  0  0  0  0
  182.2130  179.5980  138.5670 C   0  0  0  0  0  3  0  0  0  0  0  0
  184.4440  179.6120  139.5690 N   0  0  0  0  0  2  0  0  0  0  0  0
  183.6640  177.5750  138.4340 C   0  0  0  0  0  2  0  0  0  0  0  0
  189.7390  176.6880  140.6830 C   0  0  0  0  0  1  0  0  0  0  0  0
  189.0360  177.9450  141.1750 C   0  0  2  0  0  3  0  0  0  0  0  0
  188.1750  177.6370  142.2440 O   0  0  0  0  0  0  0  0  0  0  0  0
  188.8310  176.4140  144.0520 O   0  0  0  0  0  0  0  0  0  0  0  0
  188.7460  177.8020  145.9990 C   0  0  0  0  0  1  0  0  0  0  0  0
  188.1190  177.4640  144.6550 C   0  0  1  0  0  0  0  0  0  0  0  0
  188.9310  177.6740  143.4270 C   0  0  2  0  0  3  0  0  0  0  0  0
  186.6080  177.2280  144.5640 C   0  0  0  0  0  2  0  0  0  0  0  0
  185.8260  178.5190  144.7760 C   0  0  0  0  0  3  0  0  0  0  0  0
  185.0960  178.4670  146.1010 C   0  0  0  0  0  1  0  0  0  0  0  0
  184.8260  178.7460  143.6580 C   0  0  0  0  0  1  0  0  0  0  0  0
  188.8930  179.8430  137.3920 O   0  0  0  0  0  1  0  0  0  0  0  0
  189.4770  178.6500  137.8140 C   0  0  0  0  0  2  0  0  0  0  0  0
  1  6  1  6  0  0  0
  1  4  1  0  0  0  0
  1  5  1  0  0  0  0
  2  3  1  0  0  0  0
  2 20  1  1  0  0  0
  4 31  1  6  0  0  0
  4  2  1  0  0  0  0
  5  3  1  1  0  0  0
  6 11  1  0  0  0  0
  7  9  2  0  0  0  0
  7  8  1  0  0  0  0
  8  6  2  0  0  0  0
  9 12  1  0  0  0  0
 12 10  1  0  0  0  0
 12 11  2  0  0  0  0
 13 17  1  0  0  0  0
 14 18  1  1  0  0  0
 14  5  1  0  0  0  0
 14 17  1  0  0  0  0
 15 18  1  0  0  0  0
 15 16  2  0  0  0  0
 16 13  1  0  0  0  0
 20 19  1  6  0  0  0
 20 21  1  0  0  0  0
 22 24  1  0  0  0  0
 24 23  1  1  0  0  0
 25 21  1  6  0  0  0
 25 22  1  0  0  0  0
 25 24  1  0  0  0  0
 26 24  1  0  0  0  0
 26 27  1  0  0  0  0
 27 28  1  0  0  0  0
 29 27  1  0  0  0  0
 30 31  1  0  0  0  0
M  END
>  <MODEL>
2

>  <REMARK>
 VINA RESULT:      -7.8      3.545      7.826
  Name = 
  8 active torsions:
  status: ('A' for Active; 'I' for Inactive)
    1  A    between atoms: C_1  and  C_24
    2  A    between atoms: C_4  and  C_5
    3  A    between atoms: C_9  and  C_15
    4  A    between atoms: C_9  and  O_23
    5  A    between atoms: C_12  and  C_27
    6  A    between atoms: C_19  and  C_24
    7  A    between atoms: C_21  and  C_29
    8  A    between atoms: C_22  and  O_23
                            x       y       z     vdW  Elec       q    Type
                         _______ _______ _______ _____ _____    ______ ____

>  <TORSDO>
F 8

$$$$
=
 OpenBabel10262419403D

 31 34  0  0  1  0  0  0  0  0999 V2000
  190.0450  175.8350  138.5490 C   0  0  2  0  0  3  0  0  0  0  0  0
  187.9080  176.9350  138.3620 C   0  0  2  0  0  3  0  0  0  0  0  0
  188.6330  177.5240  139.5610 C   0  0  0  0  0  2  0  0  0  0  0  0
  188.9220  176.1110  137.5700 C   0  0  2  0  0  3  0  0  0  0  0  0
  190.0640  177.0010  139.5190 C   0  0  1  0  0  3  0  0  0  0  0  0
  191.3630  175.5990  137.8750 C   0  0  0  0  0  0  0  0  0  0  0  0
  193.4470  176.5020  137.0210 C   0  0  0  0  0  3  0  0  0  0  0  0
  192.2150  176.6870  137.6550 C   0  0  0  0  0  3  0  0  0  0  0  0
  193.8260  175.2260  136.6000 C   0  0  0  0  0  3  0  0  0  0  0  0
  193.3520  172.9010  136.3860 F   0  0  0  0  0  0  0  0  0  0  0  0
  191.7480  174.3180  137.4480 C   0  0  0  0  0  3  0  0  0  0  0  0
  192.9780  174.1350  136.8100 C   0  0  0  0  0  0  0  0  0  0  0  0
  189.9990  175.7410  143.0330 C   0  0  0  0  0  2  0  0  0  0  0  0
  190.5720  176.5610  140.8970 C   0  0  2  0  0  3  0  0  0  0  0  0
  191.9310  177.2870  142.8850 C   0  0  0  0  0  3  0  0  0  0  0  0
  191.1520  176.5000  143.6430 C   0  0  0  0  0  3  0  0  0  0  0  0
  189.4770  176.4430  141.8620 N   0  0  0  0  0  2  0  0  0  0  0  0
  191.6390  177.5300  141.4250 C   0  0  0  0  0  2  0  0  0  0  0  0
  188.2380  178.7190  136.6930 C   0  0  0  0  0  1  0  0  0  0  0  0
  187.1950  178.0370  137.5660 C   0  0  2  0  0  3  0  0  0  0  0  0
  186.5930  178.9700  138.4290 O   0  0  0  0  0  0  0  0  0  0  0  0
  184.5480  179.7130  139.1110 O   0  0  0  0  0  0  0  0  0  0  0  0
  183.4460  177.9600  140.3090 C   0  0  0  0  0  1  0  0  0  0  0  0
  184.7700  178.6340  139.9820 C   0  0  1  0  0  0  0  0  0  0  0  0
  185.2420  178.6100  138.5730 C   0  0  2  0  0  3  0  0  0  0  0  0
  185.7180  179.0310  141.1190 C   0  0  0  0  0  2  0  0  0  0  0  0
  185.3130  178.3810  142.4370 C   0  0  0  0  0  3  0  0  0  0  0  0
  184.7070  179.4190  143.3580 C   0  0  0  0  0  1  0  0  0  0  0  0
  186.5040  177.7350  143.1200 C   0  0  0  0  0  1  0  0  0  0  0  0
  187.5290  174.9470  136.0070 O   0  0  0  0  0  1  0  0  0  0  0  0
  188.3070  174.7840  137.1520 C   0  0  0  0  0  2  0  0  0  0  0  0
  1  6  1  6  0  0  0
  1  5  1  0  0  0  0
  2 20  1  6  0  0  0
  2  3  1  0  0  0  0
  4 31  1  1  0  0  0
  4  2  1  0  0  0  0
  4  1  1  0  0  0  0
  5  3  1  1  0  0  0
  5 14  1  0  0  0  0
  7  8  2  0  0  0  0
  8  6  1  0  0  0  0
  9 12  2  0  0  0  0
  9  7  1  0  0  0  0
 10 12  1  0  0  0  0
 11  6  2  0  0  0  0
 12 11  1  0  0  0  0
 13 16  1  0  0  0  0
 14 18  1  1  0  0  0
 14 17  1  0  0  0  0
 15 16  2  0  0  0  0
 17 13  1  0  0  0  0
 18 15  1  0  0  0  0
 20 19  1  6  0  0  0
 20 21  1  0  0  0  0
 22 24  1  0  0  0  0
 24 23  1  1  0  0  0
 24 26  1  0  0  0  0
 25 21  1  1  0  0  0
 25 22  1  0  0  0  0
 25 24  1  0  0  0  0
 26 27  1  0  0  0  0
 27 29  1  0  0  0  0
 27 28  1  0  0  0  0
 30 31  1  0  0  0  0
M  END
>  <MODEL>
3

>  <REMARK>
 VINA RESULT:      -7.8      3.518      8.069
  Name = 
  8 active torsions:
  status: ('A' for Active; 'I' for Inactive)
    1  A    between atoms: C_1  and  C_24
    2  A    between atoms: C_4  and  C_5
    3  A    between atoms: C_9  and  C_15
    4  A    between atoms: C_9  and  O_23
    5  A    between atoms: C_12  and  C_27
    6  A    between atoms: C_19  and  C_24
    7  A    between atoms: C_21  and  C_29
    8  A    between atoms: C_22  and  O_23
                            x       y       z     vdW  Elec       q    Type
                         _______ _______ _______ _____ _____    ______ ____

>  <TORSDO>
F 8

$$$$
=
 OpenBabel10262419403D

 31 34  0  0  1  0  0  0  0  0999 V2000
  182.8640  178.2660  140.5930 C   0  0  2  0  0  3  0  0  0  0  0  0
  184.1170  178.8900  142.5560 C   0  0  2  0  0  3  0  0  0  0  0  0
  182.6390  179.0580  142.8710 C   0  0  0  0  0  2  0  0  0  0  0  0
  184.2210  178.1080  141.2460 C   0  0  2  0  0  3  0  0  0  0  0  0
  181.8620  178.4310  141.7190 C   0  0  1  0  0  3  0  0  0  0  0  0
  182.5320  177.1400  139.6600 C   0  0  0  0  0  0  0  0  0  0  0  0
  181.0880  175.2740  139.0930 C   0  0  0  0  0  3  0  0  0  0  0  0
  181.4200  176.3370  139.9380 C   0  0  0  0  0  3  0  0  0  0  0  0
  181.8730  175.0100  137.9690 C   0  0  0  0  0  3  0  0  0  0  0  0
  183.7520  175.5290  136.6000 F   0  0  0  0  0  0  0  0  0  0  0  0
  183.3190  176.8690  138.5300 C   0  0  0  0  0  3  0  0  0  0  0  0
  182.9890  175.8020  137.6880 C   0  0  0  0  0  0  0  0  0  0  0  0
  179.8560  180.8620  139.7170 C   0  0  0  0  0  2  0  0  0  0  0  0
  180.6730  179.2900  141.2740 C   0  0  2  0  0  3  0  0  0  0  0  0
  179.0220  181.0250  142.0460 C   0  0  0  0  0  3  0  0  0  0  0  0
  178.9850  181.4800  140.7850 C   0  0  0  0  0  3  0  0  0  0  0  0
  181.0750  180.3060  140.3000 N   0  0  0  0  0  2  0  0  0  0  0  0
  179.9940  179.9550  142.4800 C   0  0  0  0  0  2  0  0  0  0  0  0
  184.2360  178.8370  145.0170 C   0  0  0  0  0  1  0  0  0  0  0  0
  184.8580  178.2720  143.7480 C   0  0  2  0  0  3  0  0  0  0  0  0
  186.2300  178.5740  143.6990 O   0  0  0  0  0  0  0  0  0  0  0  0
  186.9930  176.4750  144.1560 O   0  0  0  0  0  0  0  0  0  0  0  0
  189.1420  176.1930  143.1440 C   0  0  0  0  0  1  0  0  0  0  0  0
  188.1800  177.1510  143.8320 C   0  0  1  0  0  0  0  0  0  0  0  0
  186.8940  177.4620  143.1540 C   0  0  2  0  0  3  0  0  0  0  0  0
  188.6700  177.9990  145.0100 C   0  0  0  0  0  2  0  0  0  0  0  0
  188.6850  177.1990  146.3080 C   0  0  0  0  0  3  0  0  0  0  0  0
  187.7310  177.8200  147.3060 C   0  0  0  0  0  1  0  0  0  0  0  0
  190.0780  177.1480  146.9050 C   0  0  0  0  0  1  0  0  0  0  0  0
  184.7470  179.8550  139.6920 O   0  0  0  0  0  1  0  0  0  0  0  0
  185.2710  178.7390  140.3420 C   0  0  0  0  0  2  0  0  0  0  0  0
  1  6  1  1  0  0  0
  1  4  1  0  0  0  0
  1  5  1  0  0  0  0
  2  3  1  0  0  0  0
  2 20  1  1  0  0  0
  4 31  1  6  0  0  0
  4  2  1  0  0  0  0
  5  3  1  1  0  0  0
  6  8  1  0  0  0  0
  7  8  2  0  0  0  0
  9  7  1  0  0  0  0
 10 12  1  0  0  0  0
 11  6  2  0  0  0  0
 12  9  2  0  0  0  0
 12 11  1  0  0  0  0
 13 17  1  0  0  0  0
 13 16  1  0  0  0  0
 14  5  1  0  0  0  0
 14 18  1  1  0  0  0
 15 18  1  0  0  0  0
 16 15  2  0  0  0  0
 17 14  1  0  0  0  0
 20 19  1  1  0  0  0
 21 20  1  0  0  0  0
 24 23  1  6  0  0  0
 24 22  1  0  0  0  0
 24 26  1  0  0  0  0
 25 21  1  1  0  0  0
 25 24  1  0  0  0  0
 25 22  1  0  0  0  0
 26 27  1  0  0  0  0
 27 29  1  0  0  0  0
 27 28  1  0  0  0  0
 30 31  1  0  0  0  0
M  END
>  <MODEL>
4

>  <REMARK>
 VINA RESULT:      -7.7      4.564      7.785
  Name = 
  8 active torsions:
  status: ('A' for Active; 'I' for Inactive)
    1  A    between atoms: C_1  and  C_24
    2  A    between atoms: C_4  and  C_5
    3  A    between atoms: C_9  and  C_15
    4  A    between atoms: C_9  and  O_23
    5  A    between atoms: C_12  and  C_27
    6  A    between atoms: C_19  and  C_24
    7  A    between atoms: C_21  and  C_29
    8  A    between atoms: C_22  and  O_23
                            x       y       z     vdW  Elec       q    Type
                         _______ _______ _______ _____ _____    ______ ____

>  <TORSDO>
F 8

$$$$
=
 OpenBabel10262419403D

 31 34  0  0  1  0  0  0  0  0999 V2000
  189.4840  177.0110  141.3360 C   0  0  2  0  0  3  0  0  0  0  0  0
  190.7790  176.9550  143.3690 C   0  0  2  0  0  3  0  0  0  0  0  0
  191.6630  177.5130  142.2660 C   0  0  0  0  0  2  0  0  0  0  0  0
  189.3440  176.9380  142.8430 C   0  0  2  0  0  3  0  0  0  0  0  0
  190.7670  177.7710  141.0610 C   0  0  1  0  0  3  0  0  0  0  0  0
  188.2820  177.6070  140.6670 C   0  0  0  0  0  0  0  0  0  0  0  0
  187.0280  178.0080  138.6290 C   0  0  0  0  0  3  0  0  0  0  0  0
  188.1330  177.4570  139.2840 C   0  0  0  0  0  3  0  0  0  0  0  0
  186.0720  178.7170  139.3580 C   0  0  0  0  0  3  0  0  0  0  0  0
  185.2860  179.5790  141.4360 F   0  0  0  0  0  0  0  0  0  0  0  0
  187.3180  178.3220  141.3950 C   0  0  0  0  0  3  0  0  0  0  0  0
  186.2160  178.8780  140.7390 C   0  0  0  0  0  0  0  0  0  0  0  0
  191.3570  175.7580  137.9730 C   0  0  0  0  0  2  0  0  0  0  0  0
  191.4040  177.3150  139.7440 C   0  0  2  0  0  3  0  0  0  0  0  0
  193.5720  176.6240  138.6710 C   0  0  0  0  0  3  0  0  0  0  0  0
  192.8570  175.8550  137.8360 C   0  0  0  0  0  3  0  0  0  0  0  0
  190.9470  175.9790  139.3570 N   0  0  0  0  0  2  0  0  0  0  0  0
  192.9360  177.3420  139.8360 C   0  0  0  0  0  2  0  0  0  0  0  0
  191.6760  176.7950  145.6590 C   0  0  0  0  0  1  0  0  0  0  0  0
  190.9880  177.7300  144.6760 C   0  0  2  0  0  3  0  0  0  0  0  0
  189.7600  178.1730  145.1990 O   0  0  0  0  0  0  0  0  0  0  0  0
  188.5200  176.7200  146.4430 O   0  0  0  0  0  0  0  0  0  0  0  0
  188.1560  177.6670  148.6090 C   0  0  0  0  0  1  0  0  0  0  0  0
  188.3100  177.9320  147.1190 C   0  0  1  0  0  0  0  0  0  0  0  0
  189.6120  177.6100  146.4780 C   0  0  2  0  0  3  0  0  0  0  0  0
  187.2710  178.7940  146.3930 C   0  0  0  0  0  2  0  0  0  0  0  0
  186.0340  177.9850  146.0220 C   0  0  0  0  0  3  0  0  0  0  0  0
  185.5940  178.3340  144.6160 C   0  0  0  0  0  1  0  0  0  0  0  0
  184.8940  178.2510  146.9870 C   0  0  0  0  0  1  0  0  0  0  0  0
  187.3370  175.8360  143.5480 O   0  0  0  0  0  1  0  0  0  0  0  0
  188.6700  175.6220  143.2030 C   0  0  0  0  0  2  0  0  0  0  0  0
  1  6  1  6  0  0  0
  1  4  1  0  0  0  0
  2 20  1  1  0  0  0
  3  2  1  0  0  0  0
  4 31  1  6  0  0  0
  4  2  1  0  0  0  0
  5  1  1  0  0  0  0
  5  3  1  1  0  0  0
  6 11  1  0  0  0  0
  7  8  1  0  0  0  0
  7  9  2  0  0  0  0
  8  6  2  0  0  0  0
  9 12  1  0  0  0  0
 12 11  2  0  0  0  0
 12 10  1  0  0  0  0
 13 17  1  0  0  0  0
 14 18  1  1  0  0  0
 14  5  1  0  0  0  0
 15 18  1  0  0  0  0
 16 13  1  0  0  0  0
 16 15  2  0  0  0  0
 17 14  1  0  0  0  0
 20 21  1  0  0  0  0
 20 19  1  1  0  0  0
 22 25  1  0  0  0  0
 22 24  1  0  0  0  0
 24 23  1  1  0  0  0
 25 21  1  6  0  0  0
 25 24  1  0  0  0  0
 26 24  1  0  0  0  0
 27 26  1  0  0  0  0
 27 29  1  0  0  0  0
 28 27  1  0  0  0  0
 31 30  1  0  0  0  0
M  END
>  <MODEL>
5

>  <REMARK>
 VINA RESULT:      -7.6      2.878      8.084
  Name = 
  8 active torsions:
  status: ('A' for Active; 'I' for Inactive)
    1  A    between atoms: C_1  and  C_24
    2  A    between atoms: C_4  and  C_5
    3  A    between atoms: C_9  and  C_15
    4  A    between atoms: C_9  and  O_23
    5  A    between atoms: C_12  and  C_27
    6  A    between atoms: C_19  and  C_24
    7  A    between atoms: C_21  and  C_29
    8  A    between atoms: C_22  and  O_23
                            x       y       z     vdW  Elec       q    Type
                         _______ _______ _______ _____ _____    ______ ____

>  <TORSDO>
F 8

$$$$
=
 OpenBabel10262419403D

 31 34  0  0  1  0  0  0  0  0999 V2000
  187.2090  177.2530  143.9160 C   0  0  2  0  0  3  0  0  0  0  0  0
  188.0870  177.3010  141.6720 C   0  0  2  0  0  3  0  0  0  0  0  0
  186.8880  178.2340  141.7250 C   0  0  0  0  0  2  0  0  0  0  0  0
  188.4530  176.9410  143.1110 C   0  0  2  0  0  3  0  0  0  0  0  0
  186.5010  178.3810  143.1920 C   0  0  1  0  0  3  0  0  0  0  0  0
  187.5060  177.5610  145.3530 C   0  0  0  0  0  0  0  0  0  0  0  0
  186.7010  178.2500  147.5360 C   0  0  0  0  0  3  0  0  0  0  0  0
  186.4560  177.9480  146.1930 C   0  0  0  0  0  3  0  0  0  0  0  0
  188.0000  178.1690  148.0390 C   0  0  0  0  0  3  0  0  0  0  0  0
  190.3170  177.7270  147.7030 F   0  0  0  0  0  0  0  0  0  0  0  0
  188.8110  177.4830  145.8640 C   0  0  0  0  0  3  0  0  0  0  0  0
  189.0560  177.7900  147.2060 C   0  0  0  0  0  0  0  0  0  0  0  0
  182.8530  178.2770  142.4030 C   0  0  0  0  0  2  0  0  0  0  0  0
  184.9850  178.3090  143.4100 C   0  0  2  0  0  3  0  0  0  0  0  0
  183.0550  179.3890  144.6090 C   0  0  0  0  0  3  0  0  0  0  0  0
  182.2700  178.9990  143.5930 C   0  0  0  0  0  3  0  0  0  0  0  0
  184.2480  178.6600  142.1960 N   0  0  0  0  0  2  0  0  0  0  0  0
  184.5540  179.2180  144.5700 C   0  0  0  0  0  2  0  0  0  0  0  0
  190.1490  178.6450  141.8080 C   0  0  0  0  0  1  0  0  0  0  0  0
  189.2200  177.9220  140.8430 C   0  0  2  0  0  3  0  0  0  0  0  0
  188.7100  178.8190  139.8880 O   0  0  0  0  0  0  0  0  0  0  0  0
  189.0240  179.6150  137.7750 O   0  0  0  0  0  0  0  0  0  0  0  0
  189.2130  177.7660  136.2690 C   0  0  0  0  0  1  0  0  0  0  0  0
  188.5580  178.3140  137.5280 C   0  0  1  0  0  0  0  0  0  0  0  0
  189.4260  178.6250  138.6950 C   0  0  2  0  0  3  0  0  0  0  0  0
  187.0360  178.2360  137.6840 C   0  0  0  0  0  2  0  0  0  0  0  0
  186.4290  177.2020  136.7420 C   0  0  0  0  0  3  0  0  0  0  0  0
  184.9360  177.4250  136.6260 C   0  0  0  0  0  1  0  0  0  0  0  0
  186.6920  175.7910  137.2340 C   0  0  0  0  0  1  0  0  0  0  0  0
  190.0600  175.1810  142.8630 O   0  0  0  0  0  1  0  0  0  0  0  0
  188.7410  175.4500  143.2210 C   0  0  0  0  0  2  0  0  0  0  0  0
  1  6  1  1  0  0  0
  2 20  1  1  0  0  0
  2  3  1  0  0  0  0
  2  4  1  0  0  0  0
  4 31  1  6  0  0  0
  4  1  1  0  0  0  0
  5  3  1  6  0  0  0
  5 14  1  0  0  0  0
  5  1  1  0  0  0  0
  6 11  2  0  0  0  0
  6  8  1  0  0  0  0
  7  9  1  0  0  0  0
  8  7  2  0  0  0  0
 11 12  1  0  0  0  0
 12 10  1  0  0  0  0
 12  9  2  0  0  0  0
 13 16  1  0  0  0  0
 14 18  1  1  0  0  0
 16 15  2  0  0  0  0
 17 13  1  0  0  0  0
 17 14  1  0  0  0  0
 18 15  1  0  0  0  0
 20 19  1  1  0  0  0
 21 20  1  0  0  0  0
 22 25  1  0  0  0  0
 24 23  1  6  0  0  0
 24 26  1  0  0  0  0
 24 22  1  0  0  0  0
 24 25  1  0  0  0  0
 25 21  1  1  0  0  0
 27 29  1  0  0  0  0
 27 26  1  0  0  0  0
 28 27  1  0  0  0  0
 30 31  1  0  0  0  0
M  END
>  <MODEL>
6

>  <REMARK>
 VINA RESULT:      -7.6      2.222      3.136
  Name = 
  8 active torsions:
  status: ('A' for Active; 'I' for Inactive)
    1  A    between atoms: C_1  and  C_24
    2  A    between atoms: C_4  and  C_5
    3  A    between atoms: C_9  and  C_15
    4  A    between atoms: C_9  and  O_23
    5  A    between atoms: C_12  and  C_27
    6  A    between atoms: C_19  and  C_24
    7  A    between atoms: C_21  and  C_29
    8  A    between atoms: C_22  and  O_23
                            x       y       z     vdW  Elec       q    Type
                         _______ _______ _______ _____ _____    ______ ____

>  <TORSDO>
F 8

$$$$
=
 OpenBabel10262419403D

 31 34  0  0  1  0  0  0  0  0999 V2000
  188.3190  178.3220  140.4310 C   0  0  2  0  0  3  0  0  0  0  0  0
  190.1550  177.2710  139.2750 C   0  0  2  0  0  3  0  0  0  0  0  0
  190.1370  176.7440  140.7010 C   0  0  0  0  0  2  0  0  0  0  0  0
  188.8390  178.0120  139.0420 C   0  0  2  0  0  3  0  0  0  0  0  0
  188.8380  177.2240  141.3380 C   0  0  1  0  0  3  0  0  0  0  0  0
  186.8290  178.4770  140.4740 C   0  0  0  0  0  0  0  0  0  0  0  0
  184.7010  178.3970  139.3120 C   0  0  0  0  0  3  0  0  0  0  0  0
  186.0910  178.2530  139.3060 C   0  0  0  0  0  3  0  0  0  0  0  0
  184.0460  178.7710  140.4870 C   0  0  0  0  0  3  0  0  0  0  0  0
  184.1300  179.3780  142.7890 F   0  0  0  0  0  0  0  0  0  0  0  0
  186.1650  178.8540  141.6530 C   0  0  0  0  0  3  0  0  0  0  0  0
  184.7750  179.0030  141.6560 C   0  0  0  0  0  0  0  0  0  0  0  0
  190.5550  178.6280  144.3410 C   0  0  0  0  0  2  0  0  0  0  0  0
  189.0390  177.7410  142.7670 C   0  0  2  0  0  3  0  0  0  0  0  0
  188.7560  177.1520  145.1960 C   0  0  0  0  0  3  0  0  0  0  0  0
  189.8090  177.9400  145.4590 C   0  0  0  0  0  3  0  0  0  0  0  0
  190.4590  177.8580  143.1040 N   0  0  0  0  0  2  0  0  0  0  0  0
  188.3290  176.8360  143.7840 C   0  0  0  0  0  2  0  0  0  0  0  0
  191.8460  176.3770  137.7200 C   0  0  0  0  0  1  0  0  0  0  0  0
  190.4530  176.1390  138.2830 C   0  0  2  0  0  3  0  0  0  0  0  0
  189.5030  176.1160  137.2470 O   0  0  0  0  0  0  0  0  0  0  0  0
  188.5600  174.7600  135.6750 O   0  0  0  0  0  0  0  0  0  0  0  0
  187.5910  172.8650  136.7660 C   0  0  0  0  0  1  0  0  0  0  0  0
  187.8980  174.3530  136.8440 C   0  0  1  0  0  0  0  0  0  0  0  0
  189.3220  174.7770  136.8600 C   0  0  2  0  0  3  0  0  0  0  0  0
  186.7840  175.3360  137.2170 C   0  0  0  0  0  2  0  0  0  0  0  0
  185.9050  175.6680  136.0160 C   0  0  0  0  0  3  0  0  0  0  0  0
  185.9660  177.1530  135.7290 C   0  0  0  0  0  1  0  0  0  0  0  0
  184.4640  175.2610  136.2610 C   0  0  0  0  0  1  0  0  0  0  0  0
  188.3970  179.3640  137.1140 O   0  0  0  0  0  1  0  0  0  0  0  0
  189.0990  179.3250  138.3170 C   0  0  0  0  0  2  0  0  0  0  0  0
  1  6  1  6  0  0  0
  1  5  1  0  0  0  0
  2 20  1  6  0  0  0
  2  3  1  0  0  0  0
  4 31  1  6  0  0  0
  4  2  1  0  0  0  0
  4  1  1  0  0  0  0
  5  3  1  6  0  0  0
  5 14  1  0  0  0  0
  6 11  1  0  0  0  0
  7  9  2  0  0  0  0
  8  7  1  0  0  0  0
  8  6  2  0  0  0  0
  9 12  1  0  0  0  0
 11 12  2  0  0  0  0
 12 10  1  0  0  0  0
 13 16  1  0  0  0  0
 14 17  1  0  0  0  0
 14 18  1  1  0  0  0
 15 16  2  0  0  0  0
 17 13  1  0  0  0  0
 18 15  1  0  0  0  0
 20 19  1  6  0  0  0
 21 20  1  0  0  0  0
 22 24  1  0  0  0  0
 22 25  1  0  0  0  0
 24 23  1  1  0  0  0
 24 25  1  0  0  0  0
 24 26  1  0  0  0  0
 25 21  1  1  0  0  0
 27 29  1  0  0  0  0
 27 26  1  0  0  0  0
 28 27  1  0  0  0  0
 30 31  1  0  0  0  0
M  END
>  <MODEL>
7

>  <REMARK>
 VINA RESULT:      -7.5      3.158      5.881
  Name = 
  8 active torsions:
  status: ('A' for Active; 'I' for Inactive)
    1  A    between atoms: C_1  and  C_24
    2  A    between atoms: C_4  and  C_5
    3  A    between atoms: C_9  and  C_15
    4  A    between atoms: C_9  and  O_23
    5  A    between atoms: C_12  and  C_27
    6  A    between atoms: C_19  and  C_24
    7  A    between atoms: C_21  and  C_29
    8  A    between atoms: C_22  and  O_23
                            x       y       z     vdW  Elec       q    Type
                         _______ _______ _______ _____ _____    ______ ____

>  <TORSDO>
F 8

$$$$
=
 OpenBabel10262419403D

 31 34  0  0  1  0  0  0  0  0999 V2000
  191.0820  176.8910  138.3740 C   0  0  2  0  0  3  0  0  0  0  0  0
  190.3920  177.5070  140.6010 C   0  0  2  0  0  3  0  0  0  0  0  0
  189.1410  177.3440  139.7520 C   0  0  0  0  0  2  0  0  0  0  0  0
  191.5630  176.9240  139.8100 C   0  0  2  0  0  3  0  0  0  0  0  0
  189.5760  176.7210  138.4300 C   0  0  1  0  0  3  0  0  0  0  0  0
  191.7700  175.8430  137.5530 C   0  0  0  0  0  0  0  0  0  0  0  0
  191.9150  173.5260  136.8460 C   0  0  0  0  0  3  0  0  0  0  0  0
  191.2900  174.5290  137.5940 C   0  0  0  0  0  3  0  0  0  0  0  0
  193.0250  173.8370  136.0580 C   0  0  0  0  0  3  0  0  0  0  0  0
  194.6010  175.4340  135.2570 F   0  0  0  0  0  0  0  0  0  0  0  0
  192.8870  176.1500  136.7600 C   0  0  0  0  0  3  0  0  0  0  0  0
  193.5140  175.1450  136.0160 C   0  0  0  0  0  0  0  0  0  0  0  0
  187.3710  179.0050  136.4660 C   0  0  0  0  0  2  0  0  0  0  0  0
  188.9030  177.3790  137.2200 C   0  0  2  0  0  3  0  0  0  0  0  0
  187.5570  176.9150  135.1460 C   0  0  0  0  0  3  0  0  0  0  0  0
  187.0090  178.1310  135.2890 C   0  0  0  0  0  3  0  0  0  0  0  0
  187.7530  178.1920  137.6180 N   0  0  0  0  0  2  0  0  0  0  0  0
  188.4730  176.3250  136.1900 C   0  0  0  0  0  2  0  0  0  0  0  0
  188.6800  176.8100  142.2320 C   0  0  0  0  0  1  0  0  0  0  0  0
  190.1800  176.9060  141.9970 C   0  0  2  0  0  3  0  0  0  0  0  0
  190.7810  177.7070  142.9840 O   0  0  0  0  0  0  0  0  0  0  0  0
  190.5170  175.9590  144.4240 O   0  0  0  0  0  0  0  0  0  0  0  0
  191.8370  176.3580  146.3790 C   0  0  0  0  0  1  0  0  0  0  0  0
  190.9830  176.9710  145.2790 C   0  0  1  0  0  0  0  0  0  0  0  0
  191.4560  176.8550  143.8740 C   0  0  2  0  0  3  0  0  0  0  0  0
  189.8570  177.9420  145.6480 C   0  0  0  0  0  2  0  0  0  0  0  0
  188.7270  177.2330  146.3870 C   0  0  0  0  0  3  0  0  0  0  0  0
  187.4010  177.5610  145.7340 C   0  0  0  0  0  1  0  0  0  0  0  0
  188.6850  177.6420  147.8470 C   0  0  0  0  0  1  0  0  0  0  0  0
  193.9440  177.1130  139.9990 O   0  0  0  0  0  1  0  0  0  0  0  0
  192.7660  177.8520  139.8970 C   0  0  0  0  0  2  0  0  0  0  0  0
  1  6  1  6  0  0  0
  1  5  1  0  0  0  0
  1  4  1  0  0  0  0
  2 20  1  1  0  0  0
  3  2  1  0  0  0  0
  4 31  1  6  0  0  0
  4  2  1  0  0  0  0
  5  3  1  1  0  0  0
  6  8  1  0  0  0  0
  7  8  2  0  0  0  0
  9  7  1  0  0  0  0
 10 12  1  0  0  0  0
 11  6  2  0  0  0  0
 12  9  2  0  0  0  0
 12 11  1  0  0  0  0
 13 17  1  0  0  0  0
 14 18  1  6  0  0  0
 14 17  1  0  0  0  0
 14  5  1  0  0  0  0
 15 16  2  0  0  0  0
 15 18  1  0  0  0  0
 16 13  1  0  0  0  0
 20 19  1  1  0  0  0
 20 21  1  0  0  0  0
 22 24  1  0  0  0  0
 24 26  1  0  0  0  0
 24 23  1  1  0  0  0
 25 21  1  6  0  0  0
 25 22  1  0  0  0  0
 25 24  1  0  0  0  0
 26 27  1  0  0  0  0
 27 29  1  0  0  0  0
 28 27  1  0  0  0  0
 31 30  1  0  0  0  0
M  END
>  <MODEL>
8

>  <REMARK>
 VINA RESULT:      -7.5      3.456      8.310
  Name = 
  8 active torsions:
  status: ('A' for Active; 'I' for Inactive)
    1  A    between atoms: C_1  and  C_24
    2  A    between atoms: C_4  and  C_5
    3  A    between atoms: C_9  and  C_15
    4  A    between atoms: C_9  and  O_23
    5  A    between atoms: C_12  and  C_27
    6  A    between atoms: C_19  and  C_24
    7  A    between atoms: C_21  and  C_29
    8  A    between atoms: C_22  and  O_23
                            x       y       z     vdW  Elec       q    Type
                         _______ _______ _______ _____ _____    ______ ____

>  <TORSDO>
F 8

$$$$
=
 OpenBabel10262419403D

 31 34  0  0  1  0  0  0  0  0999 V2000
  187.4920  177.7180  141.6560 C   0  0  2  0  0  3  0  0  0  0  0  0
  189.7130  177.8190  142.5880 C   0  0  2  0  0  3  0  0  0  0  0  0
  189.7490  178.4810  141.2200 C   0  0  0  0  0  2  0  0  0  0  0  0
  188.2450  177.6280  142.9670 C   0  0  2  0  0  3  0  0  0  0  0  0
  188.3050  178.6280  140.7560 C   0  0  1  0  0  3  0  0  0  0  0  0
  186.0710  178.1640  141.8280 C   0  0  0  0  0  0  0  0  0  0  0  0
  184.0250  179.0030  140.8300 C   0  0  0  0  0  3  0  0  0  0  0  0
  185.3490  178.5730  140.7020 C   0  0  0  0  0  3  0  0  0  0  0  0
  183.4230  179.0280  142.0890 C   0  0  0  0  0  3  0  0  0  0  0  0
  183.5470  178.6690  144.4410 F   0  0  0  0  0  0  0  0  0  0  0  0
  185.4610  178.1930  143.0930 C   0  0  0  0  0  3  0  0  0  0  0  0
  184.1380  178.6280  143.2210 C   0  0  0  0  0  0  0  0  0  0  0  0
  187.8450  176.5100  137.7170 C   0  0  0  0  0  2  0  0  0  0  0  0
  188.1190  178.2520  139.2810 C   0  0  2  0  0  3  0  0  0  0  0  0
  189.1010  178.5160  136.9810 C   0  0  0  0  0  3  0  0  0  0  0  0
  188.5860  177.3150  136.6770 C   0  0  0  0  0  3  0  0  0  0  0  0
  188.3310  176.8220  139.0580 N   0  0  0  0  0  2  0  0  0  0  0  0
  189.0550  179.0720  138.3830 C   0  0  0  0  0  2  0  0  0  0  0  0
  192.0120  178.2550  143.3630 C   0  0  0  0  0  1  0  0  0  0  0  0
  190.5520  178.6150  143.5970 C   0  0  2  0  0  3  0  0  0  0  0  0
  190.1760  178.3060  144.9160 O   0  0  0  0  0  0  0  0  0  0  0  0
  191.1750  176.3090  145.3760 O   0  0  0  0  0  0  0  0  0  0  0  0
  191.9910  176.3490  147.6240 C   0  0  0  0  0  1  0  0  0  0  0  0
  190.9010  176.7990  146.6630 C   0  0  1  0  0  0  0  0  0  0  0  0
  191.2790  177.7040  145.5450 C   0  0  2  0  0  3  0  0  0  0  0  0
  189.4300  176.5830  147.0330 C   0  0  0  0  0  2  0  0  0  0  0  0
  188.7320  177.9030  147.3440 C   0  0  0  0  0  3  0  0  0  0  0  0
  188.6980  178.1250  148.8420 C   0  0  0  0  0  1  0  0  0  0  0  0
  187.3170  177.9170  146.8000 C   0  0  0  0  0  1  0  0  0  0  0  0
  189.0040  175.3590  143.0860 O   0  0  0  0  0  1  0  0  0  0  0  0
  188.0320  176.2400  143.5540 C   0  0  0  0  0  2  0  0  0  0  0  0
  1  6  1  1  0  0  0
  1  4  1  0  0  0  0
  2  4  1  0  0  0  0
  2 20  1  1  0  0  0
  3  2  1  0  0  0  0
  4 31  1  6  0  0  0
  5  3  1  1  0  0  0
  5  1  1  0  0  0  0
  6 11  1  0  0  0  0
  7  9  2  0  0  0  0
  8  7  1  0  0  0  0
  8  6  2  0  0  0  0
  9 12  1  0  0  0  0
 11 12  2  0  0  0  0
 12 10  1  0  0  0  0
 13 17  1  0  0  0  0
 14 18  1  6  0  0  0
 14  5  1  0  0  0  0
 15 18  1  0  0  0  0
 16 15  2  0  0  0  0
 16 13  1  0  0  0  0
 17 14  1  0  0  0  0
 20 19  1  1  0  0  0
 20 21  1  0  0  0  0
 22 25  1  0  0  0  0
 22 24  1  0  0  0  0
 24 26  1  0  0  0  0
 24 23  1  1  0  0  0
 25 21  1  6  0  0  0
 25 24  1  0  0  0  0
 26 27  1  0  0  0  0
 27 28  1  0  0  0  0
 29 27  1  0  0  0  0
 30 31  1  0  0  0  0
M  END
>  <MODEL>
9

>  <REMARK>
 VINA RESULT:      -7.4      3.028      6.945
  Name = 
  8 active torsions:
  status: ('A' for Active; 'I' for Inactive)
    1  A    between atoms: C_1  and  C_24
    2  A    between atoms: C_4  and  C_5
    3  A    between atoms: C_9  and  C_15
    4  A    between atoms: C_9  and  O_23
    5  A    between atoms: C_12  and  C_27
    6  A    between atoms: C_19  and  C_24
    7  A    between atoms: C_21  and  C_29
    8  A    between atoms: C_22  and  O_23
                            x       y       z     vdW  Elec       q    Type
                         _______ _______ _______ _____ _____    ______ ____

>  <TORSDO>
F 8

$$$$
