=
 OpenBabel10262419543D

 25 27  0  0  1  0  0  0  0  0999 V2000
  187.4710  177.9150  146.8380 C   0  0  0  0  0  0  0  0  0  0  0  0
  188.6690  177.7370  146.1750 C   0  0  0  0  0  0  0  0  0  0  0  0
  187.5380  177.2790  148.0300 N   0  0  0  0  0  2  0  0  0  0  0  0
  188.7310  176.7060  148.1460 N   0  0  0  0  0  0  0  0  0  0  0  0
  190.7690  176.5880  146.6680 C   0  0  0  0  0  0  0  0  0  0  0  0
  191.4750  175.8950  147.4450 O   0  0  0  0  0  0  0  0  0  0  0  0
  189.1640  178.2150  144.8420 C   0  0  0  0  0  2  0  0  0  0  0  0
  191.2780  177.0170  145.3970 N   0  0  0  0  0  0  0  0  0  0  0  0
  190.5810  177.7350  144.5510 C   0  0  0  0  0  0  0  0  0  0  0  0
  189.4150  176.9840  147.0230 C   0  0  0  0  0  0  0  0  0  0  0  0
  186.2900  178.6650  146.3780 C   0  0  0  0  0  0  0  0  0  0  0  0
  185.9680  179.7330  146.9650 O   0  0  0  0  0  0  0  0  0  0  0  0
  185.4700  178.1750  145.2270 C   0  0  2  0  0  3  0  0  0  0  0  0
  183.9030  178.3780  142.8690 C   0  0  0  0  0  3  0  0  0  0  0  0
  186.1490  178.4870  143.8880 C   0  0  0  0  0  2  0  0  0  0  0  0
  185.2220  178.1930  142.7400 C   0  0  0  0  0  3  0  0  0  0  0  0
  183.3310  178.7910  144.1650 C   0  0  0  0  0  3  0  0  0  0  0  0
  184.0720  178.7370  145.2770 C   0  0  0  0  0  3  0  0  0  0  0  0
  191.2120  178.1480  143.2700 C   0  0  0  0  0  2  0  0  0  0  0  0
  190.4460  177.6150  142.1550 N   0  0  0  0  0  2  0  0  0  0  0  0
  191.0490  177.3250  140.8920 C   0  0  0  0  0  0  0  0  0  0  0  0
  192.2810  177.5310  140.7150 O   0  0  0  0  0  0  0  0  0  0  0  0
  190.2280  176.7860  139.8000 C   0  0  0  0  0  0  0  0  0  0  0  0
  188.8960  177.2510  139.6100 N   0  0  0  0  0  1  0  0  0  0  0  0
  190.7070  175.8860  139.0060 N   0  0  0  0  0  2  0  0  0  0  0  0
  1  3  1  0  0  0  0
  2  1  2  0  0  0  0
  2 10  1  0  0  0  0
  3  4  1  0  0  0  0
  5 10  1  0  0  0  0
  5  6  2  0  0  0  0
  7  2  1  0  0  0  0
  8  5  1  0  0  0  0
  9  7  1  0  0  0  0
  9  8  2  0  0  0  0
 10  4  2  0  0  0  0
 11  1  1  0  0  0  0
 11 12  2  0  0  0  0
 13 18  1  0  0  0  0
 13 11  1  1  0  0  0
 14 17  1  0  0  0  0
 15 13  1  0  0  0  0
 16 14  2  0  0  0  0
 16 15  1  0  0  0  0
 17 18  2  0  0  0  0
 19  9  1  0  0  0  0
 20 19  1  0  0  0  0
 21 20  1  0  0  0  0
 22 21  2  0  0  0  0
 23 21  1  0  0  0  0
 24 23  1  0  0  0  0
 25 23  2  0  0  0  0
M  END
>  <MODEL>
1

>  <REMARK>
 VINA RESULT:      -8.8      0.000      0.000
  Name = 
  5 active torsions:
  status: ('A' for Active; 'I' for Inactive)
    1  A    between atoms: C_1  and  C_18
    2  A    between atoms: C_2  and  C_21
    3  A    between atoms: C_5  and  C_18
    4  A    between atoms: C_6  and  N_15
    5  A    between atoms: C_6  and  C_23
                            x       y       z     vdW  Elec       q    Type
                         _______ _______ _______ _____ _____    ______ ____

>  <TORSDO>
F 5

$$$$
=
 OpenBabel10262419543D

 25 27  0  0  1  0  0  0  0  0999 V2000
  189.7400  177.0510  143.4400 C   0  0  0  0  0  0  0  0  0  0  0  0
  189.7930  177.2720  142.0780 C   0  0  0  0  0  0  0  0  0  0  0  0
  191.0010  176.8800  143.9000 N   0  0  0  0  0  2  0  0  0  0  0  0
  191.8480  176.9840  142.8820 N   0  0  0  0  0  0  0  0  0  0  0  0
  191.5770  177.4180  140.4150 C   0  0  0  0  0  0  0  0  0  0  0  0
  192.8000  177.3800  140.1220 O   0  0  0  0  0  0  0  0  0  0  0  0
  188.7250  177.5310  141.0560 C   0  0  0  0  0  2  0  0  0  0  0  0
  190.5870  177.6600  139.4050 N   0  0  0  0  0  0  0  0  0  0  0  0
  189.3020  177.7040  139.6560 C   0  0  0  0  0  0  0  0  0  0  0  0
  191.1170  177.2220  141.7800 C   0  0  0  0  0  0  0  0  0  0  0  0
  188.5450  177.0040  144.2990 C   0  0  0  0  0  0  0  0  0  0  0  0
  187.5540  176.3100  143.9440 O   0  0  0  0  0  0  0  0  0  0  0  0
  188.4920  177.7680  145.5840 C   0  0  2  0  0  3  0  0  0  0  0  0
  187.8460  178.2500  148.3060 C   0  0  0  0  0  3  0  0  0  0  0  0
  189.2750  177.0500  146.6900 C   0  0  0  0  0  2  0  0  0  0  0  0
  189.0340  177.7040  148.0230 C   0  0  0  0  0  3  0  0  0  0  0  0
  186.7830  178.2950  147.2820 C   0  0  0  0  0  3  0  0  0  0  0  0
  187.0680  178.0310  146.0030 C   0  0  0  0  0  3  0  0  0  0  0  0
  188.3610  177.9870  138.5410 C   0  0  0  0  0  2  0  0  0  0  0  0
  187.0770  178.4040  139.0800 N   0  0  0  0  0  2  0  0  0  0  0  0
  185.8610  178.2580  138.3420 C   0  0  0  0  0  0  0  0  0  0  0  0
  185.8790  177.7570  137.1840 O   0  0  0  0  0  0  0  0  0  0  0  0
  184.5910  178.6940  138.9360 C   0  0  0  0  0  0  0  0  0  0  0  0
  184.3420  180.0790  139.1550 N   0  0  0  0  0  2  0  0  0  0  0  0
  183.6920  177.8260  139.2640 N   0  0  0  0  0  1  0  0  0  0  0  0
  1  3  1  0  0  0  0
  1 11  1  0  0  0  0
  2  1  2  0  0  0  0
  4  3  1  0  0  0  0
  5 10  1  0  0  0  0
  6  5  2  0  0  0  0
  7  2  1  0  0  0  0
  8  9  2  0  0  0  0
  8  5  1  0  0  0  0
  9  7  1  0  0  0  0
 10  2  1  0  0  0  0
 10  4  2  0  0  0  0
 12 11  2  0  0  0  0
 13 11  1  6  0  0  0
 13 18  1  0  0  0  0
 13 15  1  0  0  0  0
 15 16  1  0  0  0  0
 16 14  2  0  0  0  0
 17 14  1  0  0  0  0
 18 17  2  0  0  0  0
 19 20  1  0  0  0  0
 19  9  1  0  0  0  0
 21 23  1  0  0  0  0
 21 20  1  0  0  0  0
 22 21  2  0  0  0  0
 23 24  2  0  0  0  0
 23 25  1  0  0  0  0
M  END
>  <MODEL>
2

>  <REMARK>
 VINA RESULT:      -8.8      2.897      5.479
  Name = 
  5 active torsions:
  status: ('A' for Active; 'I' for Inactive)
    1  A    between atoms: C_1  and  C_18
    2  A    between atoms: C_2  and  C_21
    3  A    between atoms: C_5  and  C_18
    4  A    between atoms: C_6  and  N_15
    5  A    between atoms: C_6  and  C_23
                            x       y       z     vdW  Elec       q    Type
                         _______ _______ _______ _____ _____    ______ ____

>  <TORSDO>
F 5

$$$$
=
 OpenBabel10262419543D

 25 27  0  0  1  0  0  0  0  0999 V2000
  190.2010  176.7510  144.5520 C   0  0  0  0  0  0  0  0  0  0  0  0
  189.1870  177.2120  145.3670 C   0  0  0  0  0  0  0  0  0  0  0  0
  191.3480  176.7120  145.2670 N   0  0  0  0  0  0  0  0  0  0  0  0
  191.0990  177.1300  146.5040 N   0  0  0  0  0  0  0  0  0  0  0  0
  189.0290  177.9270  147.6990 C   0  0  0  0  0  0  0  0  0  0  0  0
  189.5720  178.1310  148.8150 O   0  0  0  0  0  0  0  0  0  0  0  0
  187.7260  177.4490  145.1240 C   0  0  0  0  0  3  0  0  0  0  0  0
  187.6290  178.1750  147.5060 N   0  0  0  0  0  0  0  0  0  0  0  0
  187.0180  177.9830  146.3630 C   0  0  0  0  0  0  0  0  0  0  0  0
  189.7910  177.4320  146.5640 C   0  0  0  0  0  0  0  0  0  0  0  0
  190.1070  176.3500  143.1380 C   0  0  0  0  0  0  0  0  0  0  0  0
  190.2220  175.1320  142.8310 O   0  0  0  0  0  0  0  0  0  0  0  0
  189.8780  177.3660  142.0640 C   0  0  2  0  0  3  0  0  0  0  0  0
  189.0760  178.3350  139.5200 C   0  0  0  0  0  3  0  0  0  0  0  0
  188.3850  177.5030  141.7390 C   0  0  0  0  0  2  0  0  0  0  0  0
  188.1840  178.3570  140.5160 C   0  0  0  0  0  3  0  0  0  0  0  0
  190.3140  177.5390  139.6440 C   0  0  0  0  0  3  0  0  0  0  0  0
  190.6810  177.0440  140.8300 C   0  0  0  0  0  3  0  0  0  0  0  0
  185.5580  178.2470  146.2770 C   0  0  0  0  0  2  0  0  0  0  0  0
  185.1370  178.2110  144.8850 N   0  0  0  0  0  2  0  0  0  0  0  0
  183.8930  178.7690  144.4550 C   0  0  0  0  0  0  0  0  0  0  0  0
  183.1180  179.3110  145.2900 O   0  0  0  0  0  0  0  0  0  0  0  0
  183.5180  178.7060  143.0370 C   0  0  0  0  0  0  0  0  0  0  0  0
  184.4940  178.3780  142.0530 N   0  0  0  0  0  2  0  0  0  0  0  0
  182.3030  178.9490  142.6710 N   0  0  0  0  0  1  0  0  0  0  0  0
  1  3  2  0  0  0  0
  1  2  1  0  0  0  0
  2 10  1  0  0  0  0
  3  4  1  0  0  0  0
  4 10  2  0  0  0  0
  5  6  2  0  0  0  0
  7  2  2  0  0  0  0
  7  9  1  0  0  0  0
  8  5  1  0  0  0  0
  9  8  2  0  0  0  0
 10  5  1  0  0  0  0
 11  1  1  0  0  0  0
 12 11  2  0  0  0  0
 13 11  1  1  0  0  0
 14 17  1  0  0  0  0
 14 16  2  0  0  0  0
 15 13  1  0  0  0  0
 16 15  1  0  0  0  0
 17 18  2  0  0  0  0
 18 13  1  0  0  0  0
 19  9  1  0  0  0  0
 20 19  1  0  0  0  0
 21 20  1  0  0  0  0
 21 22  2  0  0  0  0
 23 21  1  0  0  0  0
 24 23  2  0  0  0  0
 25 23  1  0  0  0  0
M  END
>  <MODEL>
3

>  <REMARK>
 VINA RESULT:      -8.8      2.623      5.823
  Name = 
  5 active torsions:
  status: ('A' for Active; 'I' for Inactive)
    1  A    between atoms: C_1  and  C_18
    2  A    between atoms: C_2  and  C_21
    3  A    between atoms: C_5  and  C_18
    4  A    between atoms: C_6  and  N_15
    5  A    between atoms: C_6  and  C_23
                            x       y       z     vdW  Elec       q    Type
                         _______ _______ _______ _____ _____    ______ ____

>  <TORSDO>
F 5

$$$$
=
 OpenBabel10262419543D

 25 27  0  0  1  0  0  0  0  0999 V2000
  186.8370  177.9480  145.4920 C   0  0  0  0  0  0  0  0  0  0  0  0
  186.0410  178.2380  144.4010 C   0  0  0  0  0  0  0  0  0  0  0  0
  186.0990  178.0950  146.6160 N   0  0  0  0  0  2  0  0  0  0  0  0
  184.8690  178.4660  146.2790 N   0  0  0  0  0  0  0  0  0  0  0  0
  183.7150  178.9150  144.0840 C   0  0  0  0  0  0  0  0  0  0  0  0
  182.5900  179.2040  144.5660 O   0  0  0  0  0  0  0  0  0  0  0  0
  186.3130  178.2330  142.9260 C   0  0  0  0  0  2  0  0  0  0  0  0
  183.9350  178.9320  142.6660 N   0  0  0  0  0  0  0  0  0  0  0  0
  185.0890  178.6450  142.1170 C   0  0  0  0  0  0  0  0  0  0  0  0
  184.8350  178.5520  144.9380 C   0  0  0  0  0  0  0  0  0  0  0  0
  188.2510  177.5380  145.4920 C   0  0  0  0  0  0  0  0  0  0  0  0
  188.7480  177.0280  146.5320 O   0  0  0  0  0  0  0  0  0  0  0  0
  189.1030  177.7180  144.2760 C   0  0  2  0  0  3  0  0  0  0  0  0
  191.4300  177.4920  142.6650 C   0  0  0  0  0  3  0  0  0  0  0  0
  189.4610  176.3680  143.6420 C   0  0  0  0  0  2  0  0  0  0  0  0
  190.4910  176.5450  142.5590 C   0  0  0  0  0  3  0  0  0  0  0  0
  191.4150  178.4330  143.8020 C   0  0  0  0  0  3  0  0  0  0  0  0
  190.3390  178.5200  144.5920 C   0  0  0  0  0  3  0  0  0  0  0  0
  185.2040  178.6680  140.6350 C   0  0  0  0  0  2  0  0  0  0  0  0
  186.6070  178.6820  140.2550 N   0  0  0  0  0  2  0  0  0  0  0  0
  187.0460  178.2560  138.9630 C   0  0  0  0  0  0  0  0  0  0  0  0
  186.2090  177.8490  138.1110 O   0  0  0  0  0  0  0  0  0  0  0  0
  188.4760  178.2930  138.6310 C   0  0  0  0  0  0  0  0  0  0  0  0
  189.3590  177.3090  139.1600 N   0  0  0  0  0  1  0  0  0  0  0  0
  188.9430  179.2170  137.8580 N   0  0  0  0  0  2  0  0  0  0  0  0
  1 11  1  0  0  0  0
  1  3  1  0  0  0  0
  2 10  1  0  0  0  0
  2  1  2  0  0  0  0
  4  3  1  0  0  0  0
  5  6  2  0  0  0  0
  5 10  1  0  0  0  0
  7  2  1  0  0  0  0
  8  5  1  0  0  0  0
  9  8  2  0  0  0  0
  9  7  1  0  0  0  0
 10  4  2  0  0  0  0
 11 12  2  0  0  0  0
 13 18  1  0  0  0  0
 13 11  1  1  0  0  0
 14 17  1  0  0  0  0
 15 13  1  0  0  0  0
 16 14  2  0  0  0  0
 16 15  1  0  0  0  0
 17 18  2  0  0  0  0
 19  9  1  0  0  0  0
 20 19  1  0  0  0  0
 21 20  1  0  0  0  0
 22 21  2  0  0  0  0
 23 21  1  0  0  0  0
 23 24  1  0  0  0  0
 25 23  2  0  0  0  0
M  END
>  <MODEL>
4

>  <REMARK>
 VINA RESULT:      -8.6      2.671      5.420
  Name = 
  5 active torsions:
  status: ('A' for Active; 'I' for Inactive)
    1  A    between atoms: C_1  and  C_18
    2  A    between atoms: C_2  and  C_21
    3  A    between atoms: C_5  and  C_18
    4  A    between atoms: C_6  and  N_15
    5  A    between atoms: C_6  and  C_23
                            x       y       z     vdW  Elec       q    Type
                         _______ _______ _______ _____ _____    ______ ____

>  <TORSDO>
F 5

$$$$
=
 OpenBabel10262419543D

 25 27  0  0  1  0  0  0  0  0999 V2000
  190.9260  177.8070  142.2620 C   0  0  0  0  0  0  0  0  0  0  0  0
  189.7140  177.9790  141.6230 C   0  0  0  0  0  0  0  0  0  0  0  0
  191.8350  177.3760  141.3570 N   0  0  0  0  0  0  0  0  0  0  0  0
  191.2450  177.2710  140.1710 N   0  0  0  0  0  0  0  0  0  0  0  0
  188.9060  177.6960  139.3350 C   0  0  0  0  0  0  0  0  0  0  0  0
  189.1200  177.3860  138.1340 O   0  0  0  0  0  0  0  0  0  0  0  0
  188.3730  178.4410  142.1130 C   0  0  0  0  0  3  0  0  0  0  0  0
  187.6060  178.1240  139.7630 N   0  0  0  0  0  0  0  0  0  0  0  0
  187.3310  178.4520  141.0010 C   0  0  0  0  0  0  0  0  0  0  0  0
  189.9620  177.6360  140.3330 C   0  0  0  0  0  0  0  0  0  0  0  0
  191.2370  178.0410  143.6830 C   0  0  0  0  0  0  0  0  0  0  0  0
  192.0230  178.9740  143.9980 O   0  0  0  0  0  0  0  0  0  0  0  0
  190.6330  177.1870  144.7520 C   0  0  2  0  0  3  0  0  0  0  0  0
  189.8830  176.4540  147.3890 C   0  0  0  0  0  3  0  0  0  0  0  0
  189.4570  177.8990  145.4340 C   0  0  0  0  0  2  0  0  0  0  0  0
  189.0020  177.1320  146.6450 C   0  0  0  0  0  3  0  0  0  0  0  0
  191.3000  176.3770  146.9830 C   0  0  0  0  0  3  0  0  0  0  0  0
  191.6710  176.7570  145.7560 C   0  0  0  0  0  3  0  0  0  0  0  0
  185.9560  178.9060  141.3350 C   0  0  0  0  0  2  0  0  0  0  0  0
  185.8090  178.9980  142.7780 N   0  0  0  0  0  2  0  0  0  0  0  0
  184.5350  178.8940  143.4190 C   0  0  0  0  0  0  0  0  0  0  0  0
  183.4920  178.7200  142.7310 O   0  0  0  0  0  0  0  0  0  0  0  0
  184.4450  178.9910  144.8810 C   0  0  0  0  0  0  0  0  0  0  0  0
  185.6290  179.0700  145.6680 N   0  0  0  0  0  1  0  0  0  0  0  0
  183.2920  179.0050  145.4650 N   0  0  0  0  0  2  0  0  0  0  0  0
  1 11  1  0  0  0  0
  2  7  2  0  0  0  0
  2  1  1  0  0  0  0
  3  1  2  0  0  0  0
  4 10  2  0  0  0  0
  4  3  1  0  0  0  0
  5  8  1  0  0  0  0
  5 10  1  0  0  0  0
  6  5  2  0  0  0  0
  8  9  2  0  0  0  0
  9 19  1  0  0  0  0
  9  7  1  0  0  0  0
 10  2  1  0  0  0  0
 11 12  2  0  0  0  0
 13 11  1  6  0  0  0
 13 15  1  0  0  0  0
 13 18  1  0  0  0  0
 15 16  1  0  0  0  0
 16 14  2  0  0  0  0
 17 14  1  0  0  0  0
 18 17  2  0  0  0  0
 19 20  1  0  0  0  0
 20 21  1  0  0  0  0
 21 23  1  0  0  0  0
 22 21  2  0  0  0  0
 23 25  2  0  0  0  0
 23 24  1  0  0  0  0
M  END
>  <MODEL>
5

>  <REMARK>
 VINA RESULT:      -8.5      2.513      7.000
  Name = 
  5 active torsions:
  status: ('A' for Active; 'I' for Inactive)
    1  A    between atoms: C_1  and  C_18
    2  A    between atoms: C_2  and  C_21
    3  A    between atoms: C_5  and  C_18
    4  A    between atoms: C_6  and  N_15
    5  A    between atoms: C_6  and  C_23
                            x       y       z     vdW  Elec       q    Type
                         _______ _______ _______ _____ _____    ______ ____

>  <TORSDO>
F 5

$$$$
=
 OpenBabel10262419543D

 25 27  0  0  1  0  0  0  0  0999 V2000
  189.3520  177.3350  147.0360 C   0  0  0  0  0  0  0  0  0  0  0  0
  188.2820  177.6220  146.2100 C   0  0  0  0  0  0  0  0  0  0  0  0
  189.0430  177.7220  148.2940 N   0  0  0  0  0  2  0  0  0  0  0  0
  187.8200  178.2410  148.2980 N   0  0  0  0  0  0  0  0  0  0  0  0
  186.0720  178.6160  146.5220 C   0  0  0  0  0  0  0  0  0  0  0  0
  185.2050  179.1300  147.2740 O   0  0  0  0  0  0  0  0  0  0  0  0
  188.0560  177.4100  144.7430 C   0  0  0  0  0  2  0  0  0  0  0  0
  185.8180  178.4390  145.1210 N   0  0  0  0  0  0  0  0  0  0  0  0
  186.6890  177.9140  144.2950 C   0  0  0  0  0  0  0  0  0  0  0  0
  187.3600  178.1800  147.0360 C   0  0  0  0  0  0  0  0  0  0  0  0
  190.6330  176.7110  146.6650 C   0  0  0  0  0  0  0  0  0  0  0  0
  191.0860  175.7650  147.3650 O   0  0  0  0  0  0  0  0  0  0  0  0
  191.4020  177.1840  145.4720 C   0  0  2  0  0  3  0  0  0  0  0  0
  191.7990  178.0010  142.7830 C   0  0  0  0  0  3  0  0  0  0  0  0
  190.9300  178.5730  145.0210 C   0  0  0  0  0  2  0  0  0  0  0  0
  191.5480  178.9410  143.7000 C   0  0  0  0  0  3  0  0  0  0  0  0
  191.5530  176.5770  143.0870 C   0  0  0  0  0  3  0  0  0  0  0  0
  191.3260  176.1870  144.3450 C   0  0  0  0  0  3  0  0  0  0  0  0
  186.3170  177.7530  142.8650 C   0  0  0  0  0  2  0  0  0  0  0  0
  187.5180  177.7330  142.0470 N   0  0  0  0  0  2  0  0  0  0  0  0
  187.5270  178.2140  140.7010 C   0  0  0  0  0  0  0  0  0  0  0  0
  186.4710  178.6710  140.1840 O   0  0  0  0  0  0  0  0  0  0  0  0
  188.7700  178.1720  139.9200 C   0  0  0  0  0  0  0  0  0  0  0  0
  189.6710  177.0790  140.0680 N   0  0  0  0  0  1  0  0  0  0  0  0
  189.0560  179.1250  139.0960 N   0  0  0  0  0  2  0  0  0  0  0  0
  1  3  1  0  0  0  0
  2  1  2  0  0  0  0
  2 10  1  0  0  0  0
  3  4  1  0  0  0  0
  5 10  1  0  0  0  0
  5  6  2  0  0  0  0
  7  2  1  0  0  0  0
  8  5  1  0  0  0  0
  9  7  1  0  0  0  0
  9  8  2  0  0  0  0
 10  4  2  0  0  0  0
 11  1  1  0  0  0  0
 11 12  2  0  0  0  0
 13 11  1  1  0  0  0
 14 17  1  0  0  0  0
 14 16  2  0  0  0  0
 15 13  1  0  0  0  0
 16 15  1  0  0  0  0
 17 18  2  0  0  0  0
 18 13  1  0  0  0  0
 19  9  1  0  0  0  0
 20 19  1  0  0  0  0
 21 20  1  0  0  0  0
 22 21  2  0  0  0  0
 23 24  1  0  0  0  0
 23 21  1  0  0  0  0
 25 23  2  0  0  0  0
M  END
>  <MODEL>
6

>  <REMARK>
 VINA RESULT:      -8.4      2.029      4.911
  Name = 
  5 active torsions:
  status: ('A' for Active; 'I' for Inactive)
    1  A    between atoms: C_1  and  C_18
    2  A    between atoms: C_2  and  C_21
    3  A    between atoms: C_5  and  C_18
    4  A    between atoms: C_6  and  N_15
    5  A    between atoms: C_6  and  C_23
                            x       y       z     vdW  Elec       q    Type
                         _______ _______ _______ _____ _____    ______ ____

>  <TORSDO>
F 5

$$$$
=
 OpenBabel10262419543D

 25 27  0  0  1  0  0  0  0  0999 V2000
  185.2970  178.7680  144.8750 C   0  0  0  0  0  0  0  0  0  0  0  0
  186.5310  178.2870  145.2650 C   0  0  0  0  0  0  0  0  0  0  0  0
  184.5510  178.9930  145.9800 N   0  0  0  0  0  2  0  0  0  0  0  0
  185.2660  178.6750  147.0540 N   0  0  0  0  0  0  0  0  0  0  0  0
  187.5990  177.7910  147.4070 C   0  0  0  0  0  0  0  0  0  0  0  0
  187.5540  177.7530  148.6630 O   0  0  0  0  0  0  0  0  0  0  0  0
  187.7470  177.8800  144.4870 C   0  0  0  0  0  2  0  0  0  0  0  0
  188.7790  177.3840  146.7000 N   0  0  0  0  0  0  0  0  0  0  0  0
  188.8740  177.4000  145.3940 C   0  0  0  0  0  0  0  0  0  0  0  0
  186.4640  178.2480  146.6210 C   0  0  0  0  0  0  0  0  0  0  0  0
  184.8210  179.0170  143.5040 C   0  0  0  0  0  0  0  0  0  0  0  0
  185.5170  179.7230  142.7260 O   0  0  0  0  0  0  0  0  0  0  0  0
  183.5240  178.4440  143.0250 C   0  0  2  0  0  3  0  0  0  0  0  0
  180.9260  178.4700  141.8830 C   0  0  0  0  0  3  0  0  0  0  0  0
  183.3620  178.6270  141.5100 C   0  0  0  0  0  2  0  0  0  0  0  0
  181.9710  178.2510  141.0770 C   0  0  0  0  0  3  0  0  0  0  0  0
  181.1330  179.0030  143.2430 C   0  0  0  0  0  3  0  0  0  0  0  0
  182.3590  179.0330  143.7770 C   0  0  0  0  0  3  0  0  0  0  0  0
  190.1520  176.9810  144.7610 C   0  0  0  0  0  2  0  0  0  0  0  0
  190.1940  177.4530  143.3870 N   0  0  0  0  0  2  0  0  0  0  0  0
  190.2050  176.5530  142.2760 C   0  0  0  0  0  0  0  0  0  0  0  0
  190.1810  175.3070  142.4690 O   0  0  0  0  0  0  0  0  0  0  0  0
  190.2460  177.0860  140.9080 C   0  0  0  0  0  0  0  0  0  0  0  0
  189.0470  177.5110  140.2700 N   0  0  0  0  0  2  0  0  0  0  0  0
  191.3690  177.1710  140.2740 N   0  0  0  0  0  1  0  0  0  0  0  0
  1  2  2  0  0  0  0
  1  3  1  0  0  0  0
  2 10  1  0  0  0  0
  3  4  1  0  0  0  0
  5  6  2  0  0  0  0
  7  2  1  0  0  0  0
  7  9  1  0  0  0  0
  8  5  1  0  0  0  0
  9  8  2  0  0  0  0
 10  4  2  0  0  0  0
 10  5  1  0  0  0  0
 11  1  1  0  0  0  0
 12 11  2  0  0  0  0
 13 11  1  1  0  0  0
 13 18  1  0  0  0  0
 14 17  1  0  0  0  0
 15 13  1  0  0  0  0
 16 15  1  0  0  0  0
 16 14  2  0  0  0  0
 17 18  2  0  0  0  0
 19  9  1  0  0  0  0
 20 19  1  0  0  0  0
 21 22  2  0  0  0  0
 21 20  1  0  0  0  0
 23 21  1  0  0  0  0
 24 23  2  0  0  0  0
 25 23  1  0  0  0  0
M  END
>  <MODEL>
7

>  <REMARK>
 VINA RESULT:      -8.4      2.097      2.950
  Name = 
  5 active torsions:
  status: ('A' for Active; 'I' for Inactive)
    1  A    between atoms: C_1  and  C_18
    2  A    between atoms: C_2  and  C_21
    3  A    between atoms: C_5  and  C_18
    4  A    between atoms: C_6  and  N_15
    5  A    between atoms: C_6  and  C_23
                            x       y       z     vdW  Elec       q    Type
                         _______ _______ _______ _____ _____    ______ ____

>  <TORSDO>
F 5

$$$$
=
 OpenBabel10262419543D

 25 27  0  0  1  0  0  0  0  0999 V2000
  187.1360  177.9190  145.7450 C   0  0  0  0  0  0  0  0  0  0  0  0
  186.2660  178.2290  144.7180 C   0  0  0  0  0  0  0  0  0  0  0  0
  186.5050  178.1270  146.9240 N   0  0  0  0  0  2  0  0  0  0  0  0
  185.2710  178.5560  146.6820 N   0  0  0  0  0  0  0  0  0  0  0  0
  183.9590  179.0210  144.5820 C   0  0  0  0  0  0  0  0  0  0  0  0
  182.8940  179.3780  145.1490 O   0  0  0  0  0  0  0  0  0  0  0  0
  186.4110  178.1810  143.2260 C   0  0  0  0  0  2  0  0  0  0  0  0
  184.0580  178.9980  143.1500 N   0  0  0  0  0  0  0  0  0  0  0  0
  185.1440  178.6400  142.5130 C   0  0  0  0  0  0  0  0  0  0  0  0
  185.1270  178.6160  145.3470 C   0  0  0  0  0  0  0  0  0  0  0  0
  188.5230  177.4360  145.6360 C   0  0  0  0  0  0  0  0  0  0  0  0
  189.0370  176.8100  146.6020 O   0  0  0  0  0  0  0  0  0  0  0  0
  189.3250  177.6780  144.3970 C   0  0  2  0  0  3  0  0  0  0  0  0
  191.5430  177.4470  142.6410 C   0  0  0  0  0  3  0  0  0  0  0  0
  189.5400  176.3780  143.6110 C   0  0  0  0  0  2  0  0  0  0  0  0
  190.5270  176.5890  142.4950 C   0  0  0  0  0  3  0  0  0  0  0  0
  191.6610  178.2620  143.8650 C   0  0  0  0  0  3  0  0  0  0  0  0
  190.6360  178.3470  144.7200 C   0  0  0  0  0  3  0  0  0  0  0  0
  185.1340  178.6280  141.0270 C   0  0  0  0  0  2  0  0  0  0  0  0
  183.7620  178.6890  140.5480 N   0  0  0  0  0  2  0  0  0  0  0  0
  183.3500  179.6250  139.5480 C   0  0  0  0  0  0  0  0  0  0  0  0
  184.1820  180.4330  139.0540 O   0  0  0  0  0  0  0  0  0  0  0  0
  181.9510  179.6410  139.1000 C   0  0  0  0  0  0  0  0  0  0  0  0
  181.6460  179.7070  137.7100 N   0  0  0  0  0  2  0  0  0  0  0  0
  180.9890  179.5970  139.9610 N   0  0  0  0  0  1  0  0  0  0  0  0
  1  3  1  0  0  0  0
  2 10  1  0  0  0  0
  2  1  2  0  0  0  0
  4  3  1  0  0  0  0
  5  6  2  0  0  0  0
  5 10  1  0  0  0  0
  7  2  1  0  0  0  0
  8  5  1  0  0  0  0
  9  8  2  0  0  0  0
  9  7  1  0  0  0  0
 10  4  2  0  0  0  0
 11  1  1  0  0  0  0
 11 12  2  0  0  0  0
 13 18  1  0  0  0  0
 13 11  1  1  0  0  0
 14 17  1  0  0  0  0
 15 13  1  0  0  0  0
 16 14  2  0  0  0  0
 16 15  1  0  0  0  0
 17 18  2  0  0  0  0
 19  9  1  0  0  0  0
 20 19  1  0  0  0  0
 21 20  1  0  0  0  0
 22 21  2  0  0  0  0
 23 21  1  0  0  0  0
 23 25  1  0  0  0  0
 24 23  2  0  0  0  0
M  END
>  <MODEL>
8

>  <REMARK>
 VINA RESULT:      -8.2      3.722      6.480
  Name = 
  5 active torsions:
  status: ('A' for Active; 'I' for Inactive)
    1  A    between atoms: C_1  and  C_18
    2  A    between atoms: C_2  and  C_21
    3  A    between atoms: C_5  and  C_18
    4  A    between atoms: C_6  and  N_15
    5  A    between atoms: C_6  and  C_23
                            x       y       z     vdW  Elec       q    Type
                         _______ _______ _______ _____ _____    ______ ____

>  <TORSDO>
F 5

$$$$
=
 OpenBabel10262419543D

 25 27  0  0  1  0  0  0  0  0999 V2000
  185.3380  178.6010  145.2590 C   0  0  0  0  0  0  0  0  0  0  0  0
  186.5610  177.9850  145.0790 C   0  0  0  0  0  0  0  0  0  0  0  0
  185.2150  178.9450  146.5610 N   0  0  0  0  0  2  0  0  0  0  0  0
  186.3130  178.5720  147.2110 N   0  0  0  0  0  0  0  0  0  0  0  0
  188.4480  177.4220  146.5260 C   0  0  0  0  0  0  0  0  0  0  0  0
  188.9880  177.4240  147.6620 O   0  0  0  0  0  0  0  0  0  0  0  0
  187.2320  177.4130  143.8650 C   0  0  0  0  0  2  0  0  0  0  0  0
  189.1210  176.8560  145.3920 N   0  0  0  0  0  0  0  0  0  0  0  0
  188.6000  176.8250  144.1910 C   0  0  0  0  0  0  0  0  0  0  0  0
  187.1270  177.9910  146.3130 C   0  0  0  0  0  0  0  0  0  0  0  0
  184.3060  178.8690  144.2430 C   0  0  0  0  0  0  0  0  0  0  0  0
  183.2710  179.5120  144.5680 O   0  0  0  0  0  0  0  0  0  0  0  0
  184.4710  178.3900  142.8360 C   0  0  2  0  0  3  0  0  0  0  0  0
  184.2680  178.4920  140.0070 C   0  0  0  0  0  3  0  0  0  0  0  0
  185.4030  179.3120  142.0400 C   0  0  0  0  0  2  0  0  0  0  0  0
  185.3860  178.9510  140.5790 C   0  0  0  0  0  3  0  0  0  0  0  0
  183.0600  178.2490  140.8180 C   0  0  0  0  0  3  0  0  0  0  0  0
  183.1360  178.2380  142.1530 C   0  0  0  0  0  3  0  0  0  0  0  0
  189.3920  176.2370  143.0790 C   0  0  0  0  0  2  0  0  0  0  0  0
  188.8400  176.6670  141.8050 N   0  0  0  0  0  2  0  0  0  0  0  0
  189.6420  177.3020  140.8070 C   0  0  0  0  0  0  0  0  0  0  0  0
  190.8690  177.5080  141.0160 O   0  0  0  0  0  0  0  0  0  0  0  0
  189.0320  177.7140  139.5360 C   0  0  0  0  0  0  0  0  0  0  0  0
  188.4990  176.7370  138.6480 N   0  0  0  0  0  2  0  0  0  0  0  0
  188.9750  178.9650  139.2150 N   0  0  0  0  0  1  0  0  0  0  0  0
  1  3  1  0  0  0  0
  2  1  2  0  0  0  0
  2 10  1  0  0  0  0
  3  4  1  0  0  0  0
  5  6  2  0  0  0  0
  7  9  1  0  0  0  0
  7  2  1  0  0  0  0
  8  5  1  0  0  0  0
  9  8  2  0  0  0  0
 10  5  1  0  0  0  0
 10  4  2  0  0  0  0
 11 12  2  0  0  0  0
 11  1  1  0  0  0  0
 13 11  1  1  0  0  0
 14 16  2  0  0  0  0
 14 17  1  0  0  0  0
 15 13  1  0  0  0  0
 16 15  1  0  0  0  0
 17 18  2  0  0  0  0
 18 13  1  0  0  0  0
 19  9  1  0  0  0  0
 20 19  1  0  0  0  0
 21 22  2  0  0  0  0
 21 20  1  0  0  0  0
 23 21  1  0  0  0  0
 24 23  2  0  0  0  0
 25 23  1  0  0  0  0
M  END
>  <MODEL>
9

>  <REMARK>
 VINA RESULT:      -8.2      1.900      2.608
  Name = 
  5 active torsions:
  status: ('A' for Active; 'I' for Inactive)
    1  A    between atoms: C_1  and  C_18
    2  A    between atoms: C_2  and  C_21
    3  A    between atoms: C_5  and  C_18
    4  A    between atoms: C_6  and  N_15
    5  A    between atoms: C_6  and  C_23
                            x       y       z     vdW  Elec       q    Type
                         _______ _______ _______ _____ _____    ______ ____

>  <TORSDO>
F 5

$$$$
