=
 OpenBabel10262420133D

 27 30  0  0  1  0  0  0  0  0999 V2000
  189.6660  176.9960  144.0280 C   0  0  0  0  0  2  0  0  0  0  0  0
  187.5090  177.7650  141.6610 C   0  0  1  0  0  3  0  0  0  0  0  0
  186.7330  176.7370  143.6870 O   0  0  0  0  0  0  0  0  0  0  0  0
  187.0580  178.4370  139.2650 C   0  0  1  0  0  3  0  0  0  0  0  0
  187.1260  178.9000  140.7220 C   0  0  0  0  0  2  0  0  0  0  0  0
  191.8300  177.5170  141.9110 C   0  0  0  0  0  2  0  0  0  0  0  0
  188.9730  177.6790  141.7730 N   0  0  0  0  0  0  0  0  0  0  0  0
  187.0020  177.7640  147.3040 N   0  0  0  0  0  0  0  0  0  0  0  0
  189.7320  177.1920  140.6410 C   0  0  0  0  0  0  0  0  0  0  0  0
  188.2940  177.8880  147.4060 C   0  0  0  0  0  0  0  0  0  0  0  0
  189.6610  178.1180  143.0010 C   0  0  2  0  0  3  0  0  0  0  0  0
  188.4090  178.0340  138.6640 C   0  0  2  0  0  3  0  0  0  0  0  0
  188.6940  177.2850  145.1230 C   0  0  0  0  0  0  0  0  0  0  0  0
  186.8200  177.9620  143.0040 C   0  0  0  0  0  2  0  0  0  0  0  0
  186.3130  177.5850  146.0250 C   0  0  2  0  0  3  0  0  0  0  0  0
  186.1230  177.4100  139.1140 O   0  0  0  0  0  1  0  0  0  0  0  0
  188.8770  178.1300  148.6800 N   0  0  0  0  0  1  0  0  0  0  0  0
  191.0660  177.1590  140.6750 C   0  0  0  0  0  3  0  0  0  0  0  0
  189.1440  177.7130  146.2630 N   0  0  0  0  0  0  0  0  0  0  0  0
  189.0540  176.8260  139.3540 C   0  0  0  0  0  2  0  0  0  0  0  0
  187.2400  176.8910  144.9990 C   0  0  1  0  0  3  0  0  0  0  0  0
  191.0860  178.5850  142.7040 C   0  0  0  0  0  2  0  0  0  0  0  0
  188.9180  179.7900  137.5350 O   0  0  0  0  0  1  0  0  0  0  0  0
  189.2800  179.1250  138.6120 O   0  0  0  0  0  0  0  0  0  0  0  0
  185.7930  178.9390  145.5620 C   0  0  0  0  0  2  0  0  0  0  0  0
  184.0340  179.7600  143.8170 C   0  0  0  0  0  1  0  0  0  0  0  0
  183.9850  178.8760  145.4000 S   0  0  0  0  0  0  0  0  0  0  0  0
  1 13  1  0  0  0  0
  2  5  1  6  0  0  0
  2  7  1  0  0  0  0
  2 14  1  0  0  0  0
  4 16  1  1  0  0  0
  4  5  1  0  0  0  0
  6 22  1  0  0  0  0
  7 11  1  0  0  0  0
  8 10  2  0  0  0  0
  9 18  2  0  0  0  0
  9  7  1  0  0  0  0
 10 17  1  0  0  0  0
 11 22  1  6  0  0  0
 11  1  1  0  0  0  0
 12 24  1  1  0  0  0
 12  4  1  0  0  0  0
 12 20  1  0  0  0  0
 13 19  2  0  0  0  0
 14  3  1  0  0  0  0
 15 25  1  6  0  0  0
 15  8  1  0  0  0  0
 18  6  1  0  0  0  0
 19 10  1  0  0  0  0
 20  9  1  0  0  0  0
 21  3  1  6  0  0  0
 21 13  1  0  0  0  0
 21 15  1  0  0  0  0
 23 24  1  0  0  0  0
 26 27  1  0  0  0  0
 27 25  1  0  0  0  0
M  END
>  <MODEL>
1

>  <REMARK>
 VINA RESULT:      -7.1      0.000      0.000
  Name = 
  3 active torsions:
  status: ('A' for Active; 'I' for Inactive)
    1  A    between atoms: S_12  and  C_14
    2  A    between atoms: C_14  and  C_20
    3  A    between atoms: O_16  and  C_17
                            x       y       z     vdW  Elec       q    Type
                         _______ _______ _______ _____ _____    ______ ____

>  <TORSDO>
F 3

$$$$
=
 OpenBabel10262420133D

 27 30  0  0  1  0  0  0  0  0999 V2000
  188.3710  178.5570  141.3590 C   0  0  0  0  0  2  0  0  0  0  0  0
  186.8790  178.1850  144.2720 C   0  0  1  0  0  3  0  0  0  0  0  0
  185.8180  179.4790  142.5510 O   0  0  0  0  0  0  0  0  0  0  0  0
  186.9990  177.5040  146.7040 C   0  0  1  0  0  3  0  0  0  0  0  0
  186.5250  177.1200  145.3000 C   0  0  0  0  0  2  0  0  0  0  0  0
  190.8670  177.4240  142.7470 C   0  0  0  0  0  2  0  0  0  0  0  0
  188.2230  177.9310  143.7290 N   0  0  0  0  0  0  0  0  0  0  0  0
  184.7650  178.6230  139.0330 N   0  0  0  0  0  0  0  0  0  0  0  0
  189.3730  178.1620  144.5770 C   0  0  0  0  0  0  0  0  0  0  0  0
  185.9010  178.2050  138.5550 C   0  0  0  0  0  0  0  0  0  0  0  0
  188.3950  177.4120  142.3600 C   0  0  2  0  0  3  0  0  0  0  0  0
  188.5210  177.5440  146.8710 C   0  0  2  0  0  3  0  0  0  0  0  0
  187.0820  178.5680  140.6070 C   0  0  0  0  0  0  0  0  0  0  0  0
  185.8020  178.2320  143.1970 C   0  0  0  0  0  2  0  0  0  0  0  0
  184.5420  178.8860  140.4560 C   0  0  2  0  0  3  0  0  0  0  0  0
  186.4250  178.7120  147.1090 O   0  0  0  0  0  1  0  0  0  0  0  0
  186.0110  177.9040  137.1690 N   0  0  0  0  0  1  0  0  0  0  0  0
  190.6060  177.8820  144.1480 C   0  0  0  0  0  3  0  0  0  0  0  0
  187.0630  178.1100  139.3920 N   0  0  0  0  0  0  0  0  0  0  0  0
  189.2090  178.6040  146.0010 C   0  0  0  0  0  2  0  0  0  0  0  0
  185.8670  179.2840  141.1500 C   0  0  1  0  0  3  0  0  0  0  0  0
  189.6890  176.6070  142.2280 C   0  0  0  0  0  2  0  0  0  0  0  0
  190.2080  176.3060  147.3590 O   0  0  0  0  0  1  0  0  0  0  0  0
  189.0800  176.2780  146.6800 O   0  0  0  0  0  0  0  0  0  0  0  0
  183.8700  177.6680  141.0750 C   0  0  0  0  0  2  0  0  0  0  0  0
  181.3260  178.0040  140.6010 C   0  0  0  0  0  1  0  0  0  0  0  0
  182.6570  176.9830  139.9100 S   0  0  0  0  0  0  0  0  0  0  0  0
  2 14  1  6  0  0  0
  2  5  1  0  0  0  0
  3 14  1  0  0  0  0
  4 12  1  0  0  0  0
  4 16  1  6  0  0  0
  5  4  1  0  0  0  0
  6 18  1  0  0  0  0
  7  2  1  0  0  0  0
  7  9  1  0  0  0  0
  8 15  1  0  0  0  0
  9 20  1  0  0  0  0
 10  8  2  0  0  0  0
 10 19  1  0  0  0  0
 11  1  1  6  0  0  0
 11  7  1  0  0  0  0
 12 24  1  6  0  0  0
 13  1  1  0  0  0  0
 15 25  1  1  0  0  0
 15 21  1  0  0  0  0
 17 10  1  0  0  0  0
 18  9  2  0  0  0  0
 19 13  2  0  0  0  0
 20 12  1  0  0  0  0
 21 13  1  1  0  0  0
 21  3  1  0  0  0  0
 22 11  1  0  0  0  0
 22  6  1  0  0  0  0
 24 23  1  0  0  0  0
 27 26  1  0  0  0  0
 27 25  1  0  0  0  0
M  END
>  <MODEL>
2

>  <REMARK>
 VINA RESULT:      -6.8      2.936      6.188
  Name = 
  3 active torsions:
  status: ('A' for Active; 'I' for Inactive)
    1  A    between atoms: S_12  and  C_14
    2  A    between atoms: C_14  and  C_20
    3  A    between atoms: O_16  and  C_17
                            x       y       z     vdW  Elec       q    Type
                         _______ _______ _______ _____ _____    ______ ____

>  <TORSDO>
F 3

$$$$
=
 OpenBabel10262420133D

 27 30  0  0  1  0  0  0  0  0999 V2000
  188.4190  178.2090  146.0090 C   0  0  0  0  0  2  0  0  0  0  0  0
  186.8790  178.4430  143.1080 C   0  0  1  0  0  3  0  0  0  0  0  0
  189.2610  178.7180  143.2130 O   0  0  0  0  0  0  0  0  0  0  0  0
  184.7270  178.6940  141.8020 C   0  0  1  0  0  3  0  0  0  0  0  0
  185.8340  177.7380  142.2540 C   0  0  0  0  0  2  0  0  0  0  0  0
  185.6160  178.3710  147.2550 C   0  0  0  0  0  2  0  0  0  0  0  0
  186.4760  178.4110  144.5220 N   0  0  0  0  0  0  0  0  0  0  0  0
  192.0120  176.4560  144.4480 N   0  0  0  0  0  0  0  0  0  0  0  0
  185.3630  179.2320  144.9490 C   0  0  0  0  0  0  0  0  0  0  0  0
  191.5960  176.2400  145.6620 C   0  0  0  0  0  0  0  0  0  0  0  0
  187.1650  177.5290  145.4810 C   0  0  2  0  0  3  0  0  0  0  0  0
  183.8400  179.2180  142.9360 C   0  0  2  0  0  3  0  0  0  0  0  0
  189.6400  177.5970  145.4060 C   0  0  0  0  0  0  0  0  0  0  0  0
  188.2440  177.8150  142.8630 C   0  0  0  0  0  2  0  0  0  0  0  0
  191.1960  177.1130  143.4260 C   0  0  2  0  0  3  0  0  0  0  0  0
  185.2570  179.7520  141.0610 O   0  0  0  0  0  1  0  0  0  0  0  0
  192.4260  175.5300  146.5730 N   0  0  0  0  0  1  0  0  0  0  0  0
  184.9210  179.1850  146.2080 C   0  0  0  0  0  3  0  0  0  0  0  0
  190.3420  176.7690  146.1170 N   0  0  0  0  0  0  0  0  0  0  0  0
  184.5940  180.0670  143.9670 C   0  0  0  0  0  2  0  0  0  0  0  0
  190.1810  178.0810  144.0800 C   0  0  1  0  0  3  0  0  0  0  0  0
  186.2420  177.1290  146.6320 C   0  0  0  0  0  2  0  0  0  0  0  0
  182.0180  178.7310  143.9660 O   0  0  0  0  0  1  0  0  0  0  0  0
  183.1340  178.1760  143.5430 O   0  0  0  0  0  0  0  0  0  0  0  0
  190.5490  176.0410  142.5600 C   0  0  0  0  0  2  0  0  0  0  0  0
  192.0980  177.5020  141.0510 C   0  0  0  0  0  1  0  0  0  0  0  0
  190.5580  176.5710  140.8230 S   0  0  0  0  0  0  0  0  0  0  0  0
  2  5  1  6  0  0  0
  2  7  1  0  0  0  0
  4 16  1  1  0  0  0
  4  5  1  0  0  0  0
  4 12  1  0  0  0  0
  7  9  1  0  0  0  0
  7 11  1  0  0  0  0
  8 10  2  0  0  0  0
  9 18  2  0  0  0  0
 10 19  1  0  0  0  0
 10 17  1  0  0  0  0
 11  1  1  1  0  0  0
 11 22  1  0  0  0  0
 12 24  1  1  0  0  0
 12 20  1  0  0  0  0
 13  1  1  0  0  0  0
 13 19  2  0  0  0  0
 14  2  1  0  0  0  0
 14  3  1  0  0  0  0
 15 25  1  1  0  0  0
 15 21  1  0  0  0  0
 15  8  1  0  0  0  0
 18  6  1  0  0  0  0
 20  9  1  0  0  0  0
 21  3  1  6  0  0  0
 21 13  1  0  0  0  0
 22  6  1  0  0  0  0
 24 23  1  0  0  0  0
 27 26  1  0  0  0  0
 27 25  1  0  0  0  0
M  END
>  <MODEL>
3

>  <REMARK>
 VINA RESULT:      -6.6      2.985      5.622
  Name = 
  3 active torsions:
  status: ('A' for Active; 'I' for Inactive)
    1  A    between atoms: S_12  and  C_14
    2  A    between atoms: C_14  and  C_20
    3  A    between atoms: O_16  and  C_17
                            x       y       z     vdW  Elec       q    Type
                         _______ _______ _______ _____ _____    ______ ____

>  <TORSDO>
F 3

$$$$
=
 OpenBabel10262420133D

 27 30  0  0  1  0  0  0  0  0999 V2000
  183.3340  178.3440  143.6840 C   0  0  0  0  0  2  0  0  0  0  0  0
  185.9560  178.1970  141.6970 C   0  0  1  0  0  3  0  0  0  0  0  0
  183.7770  177.6870  140.8280 O   0  0  0  0  0  0  0  0  0  0  0  0
  188.4680  178.1320  141.4120 C   0  0  1  0  0  3  0  0  0  0  0  0
  187.2000  178.9820  141.3060 C   0  0  0  0  0  2  0  0  0  0  0  0
  185.3680  178.4940  145.9820 C   0  0  0  0  0  2  0  0  0  0  0  0
  185.7290  178.3020  143.1460 N   0  0  0  0  0  0  0  0  0  0  0  0
  180.5870  179.6900  140.6740 N   0  0  0  0  0  0  0  0  0  0  0  0
  186.6270  177.6080  144.0450 C   0  0  0  0  0  0  0  0  0  0  0  0
  180.4410  179.9760  141.9360 C   0  0  0  0  0  0  0  0  0  0  0  0
  184.6340  179.1340  143.6780 C   0  0  2  0  0  3  0  0  0  0  0  0
  188.8420  177.7270  142.8420 C   0  0  2  0  0  3  0  0  0  0  0  0
  182.4300  178.8160  142.5940 C   0  0  0  0  0  0  0  0  0  0  0  0
  184.7700  178.6790  140.8720 C   0  0  0  0  0  2  0  0  0  0  0  0
  181.8050  179.0940  140.1230 C   0  0  2  0  0  3  0  0  0  0  0  0
  188.3830  177.0080  140.5870 O   0  0  0  0  0  1  0  0  0  0  0  0
  179.2520  180.6210  142.3760 N   0  0  0  0  0  1  0  0  0  0  0  0
  186.4990  177.7300  145.3680 C   0  0  0  0  0  3  0  0  0  0  0  0
  181.4310  179.5870  142.8990 N   0  0  0  0  0  0  0  0  0  0  0  0
  187.7990  176.8320  143.5220 C   0  0  0  0  0  2  0  0  0  0  0  0
  182.5310  178.2490  141.1970 C   0  0  1  0  0  3  0  0  0  0  0  0
  184.9590  179.6520  145.0790 C   0  0  0  0  0  2  0  0  0  0  0  0
  190.0430  178.4250  144.4820 O   0  0  0  0  0  1  0  0  0  0  0  0
  189.1440  178.8490  143.6180 O   0  0  0  0  0  0  0  0  0  0  0  0
  182.6640  180.2050  139.5350 C   0  0  0  0  0  2  0  0  0  0  0  0
  181.3840  179.7410  137.3080 C   0  0  0  0  0  1  0  0  0  0  0  0
  181.6780  181.1850  138.3660 S   0  0  0  0  0  0  0  0  0  0  0  0
  2 14  1  6  0  0  0
  2  7  1  0  0  0  0
  3 14  1  0  0  0  0
  4 16  1  6  0  0  0
  4 12  1  0  0  0  0
  5  4  1  0  0  0  0
  5  2  1  0  0  0  0
  7 11  1  0  0  0  0
  7  9  1  0  0  0  0
  8 10  2  0  0  0  0
  9 18  2  0  0  0  0
 10 17  1  0  0  0  0
 10 19  1  0  0  0  0
 11  1  1  1  0  0  0
 11 22  1  0  0  0  0
 12 20  1  0  0  0  0
 12 24  1  1  0  0  0
 13 19  2  0  0  0  0
 13  1  1  0  0  0  0
 15 25  1  1  0  0  0
 15  8  1  0  0  0  0
 15 21  1  0  0  0  0
 18  6  1  0  0  0  0
 20  9  1  0  0  0  0
 21  3  1  6  0  0  0
 21 13  1  0  0  0  0
 22  6  1  0  0  0  0
 24 23  1  0  0  0  0
 26 27  1  0  0  0  0
 27 25  1  0  0  0  0
M  END
>  <MODEL>
4

>  <REMARK>
 VINA RESULT:      -6.5      4.152      6.400
  Name = 
  3 active torsions:
  status: ('A' for Active; 'I' for Inactive)
    1  A    between atoms: S_12  and  C_14
    2  A    between atoms: C_14  and  C_20
    3  A    between atoms: O_16  and  C_17
                            x       y       z     vdW  Elec       q    Type
                         _______ _______ _______ _____ _____    ______ ____

>  <TORSDO>
F 3

$$$$
=
 OpenBabel10262420133D

 27 30  0  0  1  0  0  0  0  0999 V2000
  191.2060  176.2290  142.3580 C   0  0  0  0  0  2  0  0  0  0  0  0
  188.5630  177.2680  140.6910 C   0  0  1  0  0  3  0  0  0  0  0  0
  188.2750  176.1300  142.7850 O   0  0  0  0  0  0  0  0  0  0  0  0
  187.5500  178.1350  138.5420 C   0  0  1  0  0  3  0  0  0  0  0  0
  188.0230  178.4860  139.9550 C   0  0  0  0  0  2  0  0  0  0  0  0
  192.7770  176.8050  139.7810 C   0  0  0  0  0  2  0  0  0  0  0  0
  189.9970  177.1070  140.4090 N   0  0  0  0  0  0  0  0  0  0  0  0
  189.5380  176.8740  146.2590 N   0  0  0  0  0  0  0  0  0  0  0  0
  190.4040  176.6710  139.0910 C   0  0  0  0  0  0  0  0  0  0  0  0
  190.8170  176.9300  146.0240 C   0  0  0  0  0  0  0  0  0  0  0  0
  191.0060  177.4220  141.4370 C   0  0  2  0  0  3  0  0  0  0  0  0
  188.6700  177.7160  137.5840 C   0  0  2  0  0  3  0  0  0  0  0  0
  190.5720  176.4800  143.6850 C   0  0  0  0  0  0  0  0  0  0  0  0
  188.2590  177.3960  142.1780 C   0  0  0  0  0  2  0  0  0  0  0  0
  188.5300  176.8220  145.1980 C   0  0  2  0  0  3  0  0  0  0  0  0
  186.5450  177.1660  138.5820 O   0  0  0  0  0  1  0  0  0  0  0  0
  191.7240  177.0510  147.1130 N   0  0  0  0  0  1  0  0  0  0  0  0
  191.6970  176.5740  138.7700 C   0  0  0  0  0  3  0  0  0  0  0  0
  191.3280  176.8020  144.6900 N   0  0  0  0  0  0  0  0  0  0  0  0
  189.3940  176.4320  138.0080 C   0  0  0  0  0  2  0  0  0  0  0  0
  189.1130  176.1630  143.9250 C   0  0  1  0  0  3  0  0  0  0  0  0
  192.3330  177.8450  140.8030 C   0  0  0  0  0  2  0  0  0  0  0  0
  188.8020  179.8240  137.1890 O   0  0  0  0  0  1  0  0  0  0  0  0
  189.5650  178.7660  137.3700 O   0  0  0  0  0  0  0  0  0  0  0  0
  187.9950  178.2280  144.9690 C   0  0  0  0  0  2  0  0  0  0  0  0
  186.3330  178.4850  146.9640 C   0  0  0  0  0  1  0  0  0  0  0  0
  186.1910  178.2360  145.1730 S   0  0  0  0  0  0  0  0  0  0  0  0
  1 13  1  0  0  0  0
  2  5  1  6  0  0  0
  2 14  1  0  0  0  0
  4 16  1  1  0  0  0
  4  5  1  0  0  0  0
  6 22  1  0  0  0  0
  7  2  1  0  0  0  0
  7 11  1  0  0  0  0
  9  7  1  0  0  0  0
 10  8  2  0  0  0  0
 10 17  1  0  0  0  0
 11 22  1  6  0  0  0
 11  1  1  0  0  0  0
 12 24  1  1  0  0  0
 12 20  1  0  0  0  0
 12  4  1  0  0  0  0
 13 21  1  0  0  0  0
 13 19  2  0  0  0  0
 14  3  1  0  0  0  0
 15 25  1  6  0  0  0
 15  8  1  0  0  0  0
 18  9  2  0  0  0  0
 18  6  1  0  0  0  0
 19 10  1  0  0  0  0
 20  9  1  0  0  0  0
 21  3  1  6  0  0  0
 21 15  1  0  0  0  0
 23 24  1  0  0  0  0
 25 27  1  0  0  0  0
 27 26  1  0  0  0  0
M  END
>  <MODEL>
5

>  <REMARK>
 VINA RESULT:      -6.5      1.701      2.218
  Name = 
  3 active torsions:
  status: ('A' for Active; 'I' for Inactive)
    1  A    between atoms: S_12  and  C_14
    2  A    between atoms: C_14  and  C_20
    3  A    between atoms: O_16  and  C_17
                            x       y       z     vdW  Elec       q    Type
                         _______ _______ _______ _____ _____    ______ ____

>  <TORSDO>
F 3

$$$$
=
 OpenBabel10262420133D

 27 30  0  0  1  0  0  0  0  0999 V2000
  190.8040  177.4310  141.5630 C   0  0  0  0  0  2  0  0  0  0  0  0
  187.8820  177.9950  142.9730 C   0  0  1  0  0  3  0  0  0  0  0  0
  188.3750  178.9640  140.8330 O   0  0  0  0  0  0  0  0  0  0  0  0
  186.4080  177.9200  145.0270 C   0  0  1  0  0  3  0  0  0  0  0  0
  186.7420  177.2750  143.6800 C   0  0  0  0  0  2  0  0  0  0  0  0
  191.6600  176.3330  144.3020 C   0  0  0  0  0  2  0  0  0  0  0  0
  189.1720  177.4300  143.3970 N   0  0  0  0  0  0  0  0  0  0  0  0
  189.3420  177.4300  137.5280 N   0  0  0  0  0  0  0  0  0  0  0  0
  189.6420  177.6980  144.7400 C   0  0  0  0  0  0  0  0  0  0  0  0
  190.3910  176.7520  137.8950 C   0  0  0  0  0  0  0  0  0  0  0  0
  189.9540  176.5730  142.4880 C   0  0  2  0  0  3  0  0  0  0  0  0
  187.5090  177.7860  146.0850 C   0  0  2  0  0  3  0  0  0  0  0  0
  190.2330  177.4370  140.1840 C   0  0  0  0  0  0  0  0  0  0  0  0
  187.6700  177.9280  141.4670 C   0  0  0  0  0  2  0  0  0  0  0  0
  188.4240  178.0610  138.4780 C   0  0  2  0  0  3  0  0  0  0  0  0
  186.0440  179.2580  144.8590 O   0  0  0  0  0  1  0  0  0  0  0  0
  191.1910  176.1090  136.9090 N   0  0  0  0  0  1  0  0  0  0  0  0
  190.7750  177.1520  145.1890 C   0  0  0  0  0  3  0  0  0  0  0  0
  190.7940  176.7030  139.2710 N   0  0  0  0  0  0  0  0  0  0  0  0
  188.8160  178.4940  145.7060 C   0  0  0  0  0  2  0  0  0  0  0  0
  189.1630  178.4280  139.7870 C   0  0  1  0  0  3  0  0  0  0  0  0
  190.8270  175.5870  143.2650 C   0  0  0  0  0  2  0  0  0  0  0  0
  188.2320  176.4810  147.6310 O   0  0  0  0  0  1  0  0  0  0  0  0
  187.7240  176.4460  146.4170 O   0  0  0  0  0  0  0  0  0  0  0  0
  187.2320  177.1390  138.6850 C   0  0  0  0  0  2  0  0  0  0  0  0
  185.0400  178.5470  138.8430 C   0  0  0  0  0  1  0  0  0  0  0  0
  185.8940  177.6050  137.5490 S   0  0  0  0  0  0  0  0  0  0  0  0
  2 14  1  6  0  0  0
  2  7  1  0  0  0  0
  2  5  1  0  0  0  0
  3 14  1  0  0  0  0
  4 16  1  6  0  0  0
  4 12  1  0  0  0  0
  5  4  1  0  0  0  0
  6 18  1  0  0  0  0
  7  9  1  0  0  0  0
  8 10  2  0  0  0  0
  8 15  1  0  0  0  0
  9 18  2  0  0  0  0
  9 20  1  0  0  0  0
 10 19  1  0  0  0  0
 11  1  1  1  0  0  0
 11 22  1  0  0  0  0
 11  7  1  0  0  0  0
 12 24  1  6  0  0  0
 13  1  1  0  0  0  0
 15 25  1  1  0  0  0
 15 21  1  0  0  0  0
 17 10  1  0  0  0  0
 19 13  2  0  0  0  0
 20 12  1  0  0  0  0
 21 13  1  1  0  0  0
 21  3  1  0  0  0  0
 22  6  1  0  0  0  0
 24 23  1  0  0  0  0
 27 25  1  0  0  0  0
 27 26  1  0  0  0  0
M  END
>  <MODEL>
6

>  <REMARK>
 VINA RESULT:      -6.4      2.754      6.438
  Name = 
  3 active torsions:
  status: ('A' for Active; 'I' for Inactive)
    1  A    between atoms: S_12  and  C_14
    2  A    between atoms: C_14  and  C_20
    3  A    between atoms: O_16  and  C_17
                            x       y       z     vdW  Elec       q    Type
                         _______ _______ _______ _____ _____    ______ ____

>  <TORSDO>
F 3

$$$$
=
 OpenBabel10262420133D

 27 30  0  0  1  0  0  0  0  0999 V2000
  186.2170  177.5370  145.9940 C   0  0  0  0  0  2  0  0  0  0  0  0
  189.2340  177.0300  144.7730 C   0  0  1  0  0  3  0  0  0  0  0  0
  187.3100  176.5980  143.4030 O   0  0  0  0  0  0  0  0  0  0  0  0
  191.7190  176.7650  145.1590 C   0  0  1  0  0  3  0  0  0  0  0  0
  190.6020  177.6890  144.6680 C   0  0  0  0  0  2  0  0  0  0  0  0
  187.6040  177.7480  148.7270 C   0  0  0  0  0  2  0  0  0  0  0  0
  188.6560  177.2800  146.1030 N   0  0  0  0  0  0  0  0  0  0  0  0
  184.4590  178.7980  142.2870 N   0  0  0  0  0  0  0  0  0  0  0  0
  189.2290  176.6080  147.2490 C   0  0  0  0  0  0  0  0  0  0  0  0
  184.0240  179.2040  143.4450 C   0  0  0  0  0  0  0  0  0  0  0  0
  187.5420  178.2300  146.2730 C   0  0  2  0  0  3  0  0  0  0  0  0
  191.6790  176.4640  146.6610 C   0  0  2  0  0  3  0  0  0  0  0  0
  185.6660  177.9710  144.6760 C   0  0  0  0  0  0  0  0  0  0  0  0
  188.3450  177.5180  143.6370 C   0  0  0  0  0  2  0  0  0  0  0  0
  185.7180  178.0710  142.1150 C   0  0  2  0  0  3  0  0  0  0  0  0
  191.7450  175.5810  144.4180 O   0  0  0  0  0  1  0  0  0  0  0  0
  182.8250  179.9670  143.5150 N   0  0  0  0  0  1  0  0  0  0  0  0
  188.7800  176.8550  148.4830 C   0  0  0  0  0  3  0  0  0  0  0  0
  184.6960  178.8340  144.6570 N   0  0  0  0  0  0  0  0  0  0  0  0
  190.4210  175.7080  147.1040 C   0  0  0  0  0  2  0  0  0  0  0  0
  186.0680  177.2760  143.3950 C   0  0  1  0  0  3  0  0  0  0  0  0
  187.5450  178.8470  147.6720 C   0  0  0  0  0  2  0  0  0  0  0  0
  192.3830  177.2080  148.5500 O   0  0  0  0  0  1  0  0  0  0  0  0
  191.8730  177.6270  147.4100 O   0  0  0  0  0  0  0  0  0  0  0  0
  186.7950  179.0620  141.6960 C   0  0  0  0  0  2  0  0  0  0  0  0
  186.2420  178.3800  139.2390 C   0  0  0  0  0  1  0  0  0  0  0  0
  187.7230  178.3950  140.2850 S   0  0  0  0  0  0  0  0  0  0  0  0
  2 14  1  6  0  0  0
  2  7  1  0  0  0  0
  3 14  1  0  0  0  0
  4 16  1  6  0  0  0
  4 12  1  0  0  0  0
  5  2  1  0  0  0  0
  5  4  1  0  0  0  0
  7 11  1  0  0  0  0
  7  9  1  0  0  0  0
  8 10  2  0  0  0  0
  9 18  2  0  0  0  0
 10 17  1  0  0  0  0
 10 19  1  0  0  0  0
 11  1  1  1  0  0  0
 11 22  1  0  0  0  0
 12 20  1  0  0  0  0
 12 24  1  1  0  0  0
 13  1  1  0  0  0  0
 15 25  1  1  0  0  0
 15  8  1  0  0  0  0
 15 21  1  0  0  0  0
 18  6  1  0  0  0  0
 19 13  2  0  0  0  0
 20  9  1  0  0  0  0
 21  3  1  1  0  0  0
 21 13  1  0  0  0  0
 22  6  1  0  0  0  0
 24 23  1  0  0  0  0
 26 27  1  0  0  0  0
 27 25  1  0  0  0  0
M  END
>  <MODEL>
7

>  <REMARK>
 VINA RESULT:      -6.4      3.253      6.294
  Name = 
  3 active torsions:
  status: ('A' for Active; 'I' for Inactive)
    1  A    between atoms: S_12  and  C_14
    2  A    between atoms: C_14  and  C_20
    3  A    between atoms: O_16  and  C_17
                            x       y       z     vdW  Elec       q    Type
                         _______ _______ _______ _____ _____    ______ ____

>  <TORSDO>
F 3

$$$$
=
 OpenBabel10262420133D

 27 30  0  0  1  0  0  0  0  0999 V2000
  182.6520  179.7070  144.0060 C   0  0  0  0  0  2  0  0  0  0  0  0
  183.1100  178.4350  141.0030 C   0  0  1  0  0  3  0  0  0  0  0  0
  184.9700  179.3840  142.1870 O   0  0  0  0  0  0  0  0  0  0  0  0
  182.1350  177.5840  138.8300 C   0  0  1  0  0  3  0  0  0  0  0  0
  182.7790  177.2070  140.1660 C   0  0  0  0  0  2  0  0  0  0  0  0
  179.6500  179.5170  143.3810 C   0  0  0  0  0  2  0  0  0  0  0  0
  181.9530  178.8050  141.8320 N   0  0  0  0  0  0  0  0  0  0  0  0
  186.5020  178.5890  145.5390 N   0  0  0  0  0  0  0  0  0  0  0  0
  180.7890  179.3780  141.1890 C   0  0  0  0  0  0  0  0  0  0  0  0
  185.4540  178.7190  146.3000 C   0  0  0  0  0  0  0  0  0  0  0  0
  181.9600  178.5600  143.2850 C   0  0  2  0  0  3  0  0  0  0  0  0
  180.7420  178.2120  138.9510 C   0  0  2  0  0  3  0  0  0  0  0  0
  184.0030  179.2860  144.4810 C   0  0  0  0  0  0  0  0  0  0  0  0
  184.3670  178.1700  141.8200 C   0  0  0  0  0  2  0  0  0  0  0  0
  186.4330  178.5750  144.0760 C   0  0  2  0  0  3  0  0  0  0  0  0
  182.9840  178.4060  138.0840 O   0  0  0  0  0  1  0  0  0  0  0  0
  185.6010  178.6490  147.7130 N   0  0  0  0  0  1  0  0  0  0  0  0
  179.6920  179.6680  141.8930 C   0  0  0  0  0  3  0  0  0  0  0  0
  184.1650  179.0030  145.7380 N   0  0  0  0  0  0  0  0  0  0  0  0
  180.7330  179.5500  139.7000 C   0  0  0  0  0  2  0  0  0  0  0  0
  185.2130  179.3880  143.5810 C   0  0  1  0  0  3  0  0  0  0  0  0
  180.5420  178.3620  143.8230 C   0  0  0  0  0  2  0  0  0  0  0  0
  179.7180  176.3570  138.5970 O   0  0  0  0  0  1  0  0  0  0  0  0
  179.8310  177.3070  139.5010 O   0  0  0  0  0  0  0  0  0  0  0  0
  186.4360  177.1280  143.6050 C   0  0  0  0  0  2  0  0  0  0  0  0
  188.3030  177.9070  141.9560 C   0  0  0  0  0  1  0  0  0  0  0  0
  188.1350  176.6150  143.2180 S   0  0  0  0  0  0  0  0  0  0  0  0
  1 13  1  0  0  0  0
  2  5  1  1  0  0  0
  2 14  1  0  0  0  0
  2  7  1  0  0  0  0
  4 16  1  1  0  0  0
  4 12  1  0  0  0  0
  4  5  1  0  0  0  0
  6 22  1  0  0  0  0
  7 11  1  0  0  0  0
  8 10  2  0  0  0  0
  9  7  1  0  0  0  0
  9 18  2  0  0  0  0
 10 17  1  0  0  0  0
 11 22  1  1  0  0  0
 11  1  1  0  0  0  0
 12 24  1  1  0  0  0
 12 20  1  0  0  0  0
 13 19  2  0  0  0  0
 14  3  1  0  0  0  0
 15 25  1  1  0  0  0
 15  8  1  0  0  0  0
 18  6  1  0  0  0  0
 19 10  1  0  0  0  0
 20  9  1  0  0  0  0
 21  3  1  6  0  0  0
 21 15  1  0  0  0  0
 21 13  1  0  0  0  0
 23 24  1  0  0  0  0
 26 27  1  0  0  0  0
 27 25  1  0  0  0  0
M  END
>  <MODEL>
8

>  <REMARK>
 VINA RESULT:      -6.3      3.940      6.770
  Name = 
  3 active torsions:
  status: ('A' for Active; 'I' for Inactive)
    1  A    between atoms: S_12  and  C_14
    2  A    between atoms: C_14  and  C_20
    3  A    between atoms: O_16  and  C_17
                            x       y       z     vdW  Elec       q    Type
                         _______ _______ _______ _____ _____    ______ ____

>  <TORSDO>
F 3

$$$$
=
 OpenBabel10262420133D

 27 30  0  0  1  0  0  0  0  0999 V2000
  187.0520  177.5030  144.7430 C   0  0  0  0  0  2  0  0  0  0  0  0
  190.2050  176.5760  144.9470 C   0  0  1  0  0  3  0  0  0  0  0  0
  188.9320  176.0340  142.9840 O   0  0  0  0  0  0  0  0  0  0  0  0
  192.2790  176.2150  146.3480 C   0  0  1  0  0  3  0  0  0  0  0  0
  191.5810  177.1080  145.3200 C   0  0  0  0  0  2  0  0  0  0  0  0
  187.2730  178.1140  147.7450 C   0  0  0  0  0  2  0  0  0  0  0  0
  189.1940  177.1030  145.8750 N   0  0  0  0  0  0  0  0  0  0  0  0
  187.0760  178.1840  140.5050 N   0  0  0  0  0  0  0  0  0  0  0  0
  189.1740  176.6140  147.2370 C   0  0  0  0  0  0  0  0  0  0  0  0
  186.2820  178.8240  141.3150 C   0  0  0  0  0  0  0  0  0  0  0  0
  188.2430  178.1420  145.4400 C   0  0  2  0  0  3  0  0  0  0  0  0
  191.6140  176.1970  147.7280 C   0  0  2  0  0  3  0  0  0  0  0  0
  187.1260  177.7260  143.2690 C   0  0  0  0  0  0  0  0  0  0  0  0
  189.9080  176.9080  143.4910 C   0  0  0  0  0  2  0  0  0  0  0  0
  188.1900  177.3530  140.9660 C   0  0  2  0  0  3  0  0  0  0  0  0
  192.4310  174.9170  145.8550 O   0  0  0  0  0  1  0  0  0  0  0  0
  185.2680  179.6670  140.7820 N   0  0  0  0  0  1  0  0  0  0  0  0
  188.3160  177.1130  148.1310 C   0  0  0  0  0  3  0  0  0  0  0  0
  186.3690  178.6360  142.7350 N   0  0  0  0  0  0  0  0  0  0  0  0
  190.1920  175.6230  147.7190 C   0  0  0  0  0  2  0  0  0  0  0  0
  187.8980  176.7830  142.3750 C   0  0  1  0  0  3  0  0  0  0  0  0
  187.7820  179.0030  146.6170 C   0  0  0  0  0  2  0  0  0  0  0  0
  192.6840  177.4090  149.1430 O   0  0  0  0  0  1  0  0  0  0  0  0
  191.6560  177.4610  148.3220 O   0  0  0  0  0  0  0  0  0  0  0  0
  189.4700  178.1740  140.8910 C   0  0  0  0  0  2  0  0  0  0  0  0
  191.9850  177.5030  140.7080 C   0  0  0  0  0  1  0  0  0  0  0  0
  190.5510  177.5030  139.5960 S   0  0  0  0  0  0  0  0  0  0  0  0
  2 14  1  6  0  0  0
  2  5  1  0  0  0  0
  2  7  1  0  0  0  0
  3 14  1  0  0  0  0
  4 16  1  6  0  0  0
  4 12  1  0  0  0  0
  5  4  1  0  0  0  0
  6 18  1  0  0  0  0
  7  9  1  0  0  0  0
  8 15  1  0  0  0  0
  8 10  2  0  0  0  0
  9 20  1  0  0  0  0
  9 18  2  0  0  0  0
 10 19  1  0  0  0  0
 11  1  1  1  0  0  0
 11  7  1  0  0  0  0
 11 22  1  0  0  0  0
 12 24  1  6  0  0  0
 13  1  1  0  0  0  0
 15 25  1  1  0  0  0
 15 21  1  0  0  0  0
 17 10  1  0  0  0  0
 19 13  2  0  0  0  0
 20 12  1  0  0  0  0
 21  3  1  1  0  0  0
 21 13  1  0  0  0  0
 22  6  1  0  0  0  0
 24 23  1  0  0  0  0
 27 26  1  0  0  0  0
 27 25  1  0  0  0  0
M  END
>  <MODEL>
9

>  <REMARK>
 VINA RESULT:      -6.1      3.482      7.003
  Name = 
  3 active torsions:
  status: ('A' for Active; 'I' for Inactive)
    1  A    between atoms: S_12  and  C_14
    2  A    between atoms: C_14  and  C_20
    3  A    between atoms: O_16  and  C_17
                            x       y       z     vdW  Elec       q    Type
                         _______ _______ _______ _____ _____    ______ ____

>  <TORSDO>
F 3

$$$$
