=
 OpenBabel10262421043D

 32 35  0  0  1  0  0  0  0  0999 V2000
  189.3160  178.4470  143.9890 C   0  0  1  0  0  3  0  0  0  0  0  0
  188.1560  177.6850  141.7810 C   0  0  0  0  0  2  0  0  0  0  0  0
  190.6460  178.8670  144.6390 C   0  0  0  0  0  2  0  0  0  0  0  0
  189.3930  178.2810  142.4480 C   0  0  2  0  0  3  0  0  0  0  0  0
  190.6930  176.3130  138.6810 C   0  0  0  0  0  2  0  0  0  0  0  0
  188.4760  177.3080  138.8560 N   0  0  1  0  0  0  0  0  0  0  0  0
  190.7140  177.7080  141.9920 C   0  0  0  0  0  0  0  0  0  0  0  0
  189.6870  177.2550  138.0510 C   0  0  0  0  0  2  0  0  0  0  0  0
  190.7880  176.5600  141.0290 C   0  0  0  0  0  2  0  0  0  0  0  0
  191.8280  178.1730  142.5730 C   0  0  0  0  0  3  0  0  0  0  0  0
  187.6120  178.6460  140.7360 C   0  0  0  0  0  2  0  0  0  0  0  0
  191.3940  176.9750  139.7710 N   0  0  0  0  0  0  0  0  0  0  0  0
  191.7160  179.2480  143.6130 C   0  0  0  0  0  2  0  0  0  0  0  0
  188.4420  178.6430  139.4560 C   0  0  0  0  0  2  0  0  0  0  0  0
  187.2200  175.7090  137.4640 C   0  0  0  0  0  2  0  0  0  0  0  0
  186.9550  177.1530  135.4950 C   0  0  0  0  0  1  0  0  0  0  0  0
  187.3690  177.1480  137.9210 C   0  0  2  0  0  3  0  0  0  0  0  0
  187.9130  176.7080  136.5760 C   0  0  1  0  0  3  0  0  0  0  0  0
  192.8120  176.5820  139.7490 C   0  0  0  0  0  2  0  0  0  0  0  0
  193.3310  176.2370  138.3480 C   0  0  0  0  0  1  0  0  0  0  0  0
  189.6080  176.3110  145.0260 O   0  0  0  0  0  1  0  0  0  0  0  0
  188.6570  177.3010  144.7770 C   0  0  1  0  0  3  0  0  0  0  0  0
  187.9740  177.7300  146.0910 C   0  0  2  0  0  3  0  0  0  0  0  0
  188.0830  176.1490  147.8780 O   0  0  0  0  0  1  0  0  0  0  0  0
  188.6480  177.0950  147.2680 C   0  0  0  0  0  0  0  0  0  0  0  0
  189.9020  177.5250  147.6770 O   0  0  0  0  0  0  0  0  0  0  0  0
  186.4860  177.3750  146.0920 C   0  0  0  0  0  2  0  0  0  0  0  0
  185.8480  179.5370  147.2060 O   0  0  0  0  0  1  0  0  0  0  0  0
  184.1280  178.4300  145.8930 C   0  0  0  0  0  2  0  0  0  0  0  0
  185.5980  178.6190  146.1850 C   0  0  2  0  0  0  0  0  0  0  0  0
  185.2290  178.4010  143.6830 C   0  0  0  0  0  1  0  0  0  0  0  0
  184.9970  179.2320  144.9290 C   0  0  1  0  0  3  0  0  0  0  0  0
  1  3  1  0  0  0  0
  1 22  1  1  0  0  0
  4  2  1  1  0  0  0
  4  1  1  0  0  0  0
  5 12  1  0  0  0  0
  6  8  1  6  0  0  0
  6 14  1  0  0  0  0
  7  4  1  0  0  0  0
  7 10  2  0  0  0  0
  8  5  1  0  0  0  0
  9  7  1  0  0  0  0
 10 13  1  0  0  0  0
 11  2  1  0  0  0  0
 12  9  1  0  0  0  0
 13  3  1  0  0  0  0
 14 11  1  0  0  0  0
 17 15  1  1  0  0  0
 17  6  1  0  0  0  0
 18 16  1  6  0  0  0
 18 15  1  0  0  0  0
 18 17  1  0  0  0  0
 19 12  1  0  0  0  0
 20 19  1  0  0  0  0
 22 21  1  1  0  0  0
 22 23  1  0  0  0  0
 23 27  1  6  0  0  0
 23 25  1  0  0  0  0
 25 26  2  0  0  0  0
 25 24  1  0  0  0  0
 27 30  1  0  0  0  0
 29 30  1  0  0  0  0
 30 28  1  1  0  0  0
 32 31  1  6  0  0  0
 32 29  1  0  0  0  0
 32 30  1  0  0  0  0
M  END
>  <MODEL>
1

>  <REMARK>
 VINA RESULT:      -7.3      0.000      0.000
  Name = 
  7 active torsions:
  status: ('A' for Active; 'I' for Inactive)
    1  A    between atoms: C_1  and  C_27
    2  A    between atoms: N_10  and  C_12
    3  A    between atoms: C_13  and  N_29
    4  A    between atoms: C_15  and  C_20
    5  A    between atoms: C_16  and  C_20
    6  A    between atoms: C_16  and  C_22
    7  A    between atoms: C_16  and  C_27
                            x       y       z     vdW  Elec       q    Type
                         _______ _______ _______ _____ _____    ______ ____

>  <TORSDO>
F 7

$$$$
=
 OpenBabel10262421043D

 32 35  0  0  1  0  0  0  0  0999 V2000
  190.1020  177.4750  142.1850 C   0  0  1  0  0  3  0  0  0  0  0  0
  188.4250  177.4140  140.1890 C   0  0  0  0  0  2  0  0  0  0  0  0
  191.5860  177.5040  142.5890 C   0  0  0  0  0  2  0  0  0  0  0  0
  189.8610  177.6250  140.6590 C   0  0  2  0  0  3  0  0  0  0  0  0
  190.0000  176.2940  136.4210 C   0  0  0  0  0  2  0  0  0  0  0  0
  188.1220  177.6090  137.2440 N   0  0  1  0  0  0  0  0  0  0  0  0
  190.9220  176.9350  139.8340 C   0  0  0  0  0  0  0  0  0  0  0  0
  189.1270  177.5110  136.1960 C   0  0  0  0  0  2  0  0  0  0  0  0
  190.5680  176.0200  138.6980 C   0  0  0  0  0  2  0  0  0  0  0  0
  192.1960  177.0610  140.2260 C   0  0  0  0  0  3  0  0  0  0  0  0
  187.9240  178.6550  139.4670 C   0  0  0  0  0  2  0  0  0  0  0  0
  191.0130  176.5750  137.4270 N   0  0  0  0  0  0  0  0  0  0  0  0
  192.5100  177.8950  141.4330 C   0  0  0  0  0  2  0  0  0  0  0  0
  188.4880  178.7720  138.0540 C   0  0  0  0  0  2  0  0  0  0  0  0
  185.7690  176.9070  137.0400 C   0  0  0  0  0  2  0  0  0  0  0  0
  185.6130  177.0510  134.5940 C   0  0  0  0  0  1  0  0  0  0  0  0
  186.8560  177.8500  136.5610 C   0  0  2  0  0  3  0  0  0  0  0  0
  186.4880  176.6240  135.7480 C   0  0  1  0  0  3  0  0  0  0  0  0
  192.2840  175.9490  137.0280 C   0  0  0  0  0  2  0  0  0  0  0  0
  192.4620  174.5240  137.5680 C   0  0  0  0  0  1  0  0  0  0  0  0
  190.2260  175.2380  143.0240 O   0  0  0  0  0  1  0  0  0  0  0  0
  189.3630  176.3250  142.8920 C   0  0  1  0  0  3  0  0  0  0  0  0
  188.7530  176.6950  144.2600 C   0  0  2  0  0  3  0  0  0  0  0  0
  186.8920  177.4660  142.9750 O   0  0  0  0  0  0  0  0  0  0  0  0
  187.3220  177.1110  144.1050 C   0  0  0  0  0  0  0  0  0  0  0  0
  186.4600  177.0830  145.1910 O   0  0  0  0  0  1  0  0  0  0  0  0
  189.5460  177.8090  144.9450 C   0  0  0  0  0  2  0  0  0  0  0  0
  191.7410  177.1700  145.9900 O   0  0  0  0  0  1  0  0  0  0  0  0
  189.7390  176.1770  146.9470 C   0  0  0  0  0  2  0  0  0  0  0  0
  190.3580  177.2900  146.1340 C   0  0  2  0  0  0  0  0  0  0  0  0
  188.5350  178.2190  147.6370 C   0  0  0  0  0  1  0  0  0  0  0  0
  189.9000  177.5650  147.5590 C   0  0  1  0  0  3  0  0  0  0  0  0
  1  3  1  0  0  0  0
  1 22  1  6  0  0  0
  4  2  1  1  0  0  0
  4  1  1  0  0  0  0
  5 12  1  0  0  0  0
  6  8  1  6  0  0  0
  6 14  1  0  0  0  0
  7 10  2  0  0  0  0
  7  4  1  0  0  0  0
  8  5  1  0  0  0  0
  9  7  1  0  0  0  0
 10 13  1  0  0  0  0
 11  2  1  0  0  0  0
 12  9  1  0  0  0  0
 13  3  1  0  0  0  0
 14 11  1  0  0  0  0
 17 15  1  1  0  0  0
 17  6  1  0  0  0  0
 18 16  1  6  0  0  0
 18 17  1  0  0  0  0
 18 15  1  0  0  0  0
 19 12  1  0  0  0  0
 19 20  1  0  0  0  0
 22 21  1  1  0  0  0
 22 23  1  0  0  0  0
 23 27  1  6  0  0  0
 24 25  2  0  0  0  0
 25 23  1  0  0  0  0
 25 26  1  0  0  0  0
 27 30  1  0  0  0  0
 29 32  1  0  0  0  0
 30 28  1  6  0  0  0
 30 29  1  0  0  0  0
 30 32  1  0  0  0  0
 32 31  1  6  0  0  0
M  END
>  <MODEL>
2

>  <REMARK>
 VINA RESULT:      -7.2      1.977      3.246
  Name = 
  7 active torsions:
  status: ('A' for Active; 'I' for Inactive)
    1  A    between atoms: C_1  and  C_27
    2  A    between atoms: N_10  and  C_12
    3  A    between atoms: C_13  and  N_29
    4  A    between atoms: C_15  and  C_20
    5  A    between atoms: C_16  and  C_20
    6  A    between atoms: C_16  and  C_22
    7  A    between atoms: C_16  and  C_27
                            x       y       z     vdW  Elec       q    Type
                         _______ _______ _______ _____ _____    ______ ____

>  <TORSDO>
F 7

$$$$
=
 OpenBabel10262421043D

 32 35  0  0  1  0  0  0  0  0999 V2000
  190.5760  177.3780  139.0180 C   0  0  1  0  0  3  0  0  0  0  0  0
  191.2790  176.9420  141.4920 C   0  0  0  0  0  2  0  0  0  0  0  0
  189.4940  177.9670  138.0970 C   0  0  0  0  0  2  0  0  0  0  0  0
  190.3420  177.6620  140.5260 C   0  0  2  0  0  3  0  0  0  0  0  0
  188.2260  177.2380  144.4120 C   0  0  0  0  0  2  0  0  0  0  0  0
  190.6500  177.4760  144.3420 N   0  0  1  0  0  0  0  0  0  0  0  0
  188.8780  177.6340  140.9010 C   0  0  0  0  0  0  0  0  0  0  0  0
  189.4300  177.9890  144.9460 C   0  0  0  0  0  2  0  0  0  0  0  0
  188.3800  176.8590  142.0850 C   0  0  0  0  0  2  0  0  0  0  0  0
  188.0110  178.2230  140.0670 C   0  0  0  0  0  3  0  0  0  0  0  0
  192.0210  177.9540  142.3510 C   0  0  0  0  0  2  0  0  0  0  0  0
  187.8470  177.7520  143.1040 N   0  0  0  0  0  0  0  0  0  0  0  0
  188.5280  178.8980  138.8320 C   0  0  0  0  0  2  0  0  0  0  0  0
  191.1440  178.5320  143.4570 C   0  0  0  0  0  2  0  0  0  0  0  0
  191.8850  175.7940  145.6520 C   0  0  0  0  0  2  0  0  0  0  0  0
  191.5460  176.8120  147.8610 C   0  0  0  0  0  1  0  0  0  0  0  0
  191.5820  177.2660  145.4430 C   0  0  2  0  0  3  0  0  0  0  0  0
  190.8870  176.4860  146.5420 C   0  0  1  0  0  3  0  0  0  0  0  0
  186.3800  177.8000  143.0050 C   0  0  0  0  0  2  0  0  0  0  0  0
  185.6930  178.2720  144.2930 C   0  0  0  0  0  1  0  0  0  0  0  0
  189.7100  175.2630  138.3120 O   0  0  0  0  0  1  0  0  0  0  0  0
  190.8960  175.9230  138.6300 C   0  0  1  0  0  3  0  0  0  0  0  0
  191.9180  175.7710  137.4850 C   0  0  2  0  0  3  0  0  0  0  0  0
  190.7720  176.1390  135.4220 O   0  0  0  0  0  0  0  0  0  0  0  0
  191.2420  175.2990  136.2340 C   0  0  0  0  0  0  0  0  0  0  0  0
  191.1530  173.9440  135.9510 O   0  0  0  0  0  1  0  0  0  0  0  0
  193.0440  174.8070  137.8620 C   0  0  0  0  0  2  0  0  0  0  0  0
  194.5190  176.3670  136.5560 O   0  0  0  0  0  1  0  0  0  0  0  0
  194.8220  173.9870  136.1650 C   0  0  0  0  0  2  0  0  0  0  0  0
  194.3270  175.0870  137.0760 C   0  0  2  0  0  0  0  0  0  0  0  0
  195.4280  173.2530  138.4440 C   0  0  0  0  0  1  0  0  0  0  0  0
  195.6150  174.3520  137.4160 C   0  0  1  0  0  3  0  0  0  0  0  0
  1 22  1  1  0  0  0
  1  4  1  0  0  0  0
  2 11  1  0  0  0  0
  3 13  1  0  0  0  0
  3  1  1  0  0  0  0
  4  7  1  0  0  0  0
  4  2  1  1  0  0  0
  5  8  1  0  0  0  0
  6 14  1  6  0  0  0
  6  8  1  0  0  0  0
  6 17  1  0  0  0  0
  7  9  1  0  0  0  0
  9 12  1  0  0  0  0
 10  7  2  0  0  0  0
 11 14  1  0  0  0  0
 12  5  1  0  0  0  0
 13 10  1  0  0  0  0
 15 18  1  0  0  0  0
 17 15  1  6  0  0  0
 17 18  1  0  0  0  0
 18 16  1  1  0  0  0
 19 12  1  0  0  0  0
 19 20  1  0  0  0  0
 22 21  1  6  0  0  0
 23 27  1  1  0  0  0
 23 22  1  0  0  0  0
 24 25  2  0  0  0  0
 25 23  1  0  0  0  0
 26 25  1  0  0  0  0
 29 30  1  0  0  0  0
 29 32  1  0  0  0  0
 30 28  1  6  0  0  0
 30 32  1  0  0  0  0
 30 27  1  0  0  0  0
 32 31  1  1  0  0  0
M  END
>  <MODEL>
3

>  <REMARK>
 VINA RESULT:      -7.1      3.821      9.084
  Name = 
  7 active torsions:
  status: ('A' for Active; 'I' for Inactive)
    1  A    between atoms: C_1  and  C_27
    2  A    between atoms: N_10  and  C_12
    3  A    between atoms: C_13  and  N_29
    4  A    between atoms: C_15  and  C_20
    5  A    between atoms: C_16  and  C_20
    6  A    between atoms: C_16  and  C_22
    7  A    between atoms: C_16  and  C_27
                            x       y       z     vdW  Elec       q    Type
                         _______ _______ _______ _____ _____    ______ ____

>  <TORSDO>
F 7

$$$$
=
 OpenBabel10262421043D

 32 35  0  0  1  0  0  0  0  0999 V2000
  190.8370  177.5740  141.0090 C   0  0  1  0  0  3  0  0  0  0  0  0
  188.8120  177.6180  139.3660 C   0  0  0  0  0  2  0  0  0  0  0  0
  192.3450  177.3040  141.1500 C   0  0  0  0  0  2  0  0  0  0  0  0
  190.3250  177.5450  139.5440 C   0  0  2  0  0  3  0  0  0  0  0  0
  189.3120  175.5910  135.6820 C   0  0  0  0  0  2  0  0  0  0  0  0
  187.9600  177.4310  136.5300 N   0  0  1  0  0  0  0  0  0  0  0  0
  191.0260  176.5010  138.7070 C   0  0  0  0  0  0  0  0  0  0  0  0
  188.6860  176.9350  135.3710 C   0  0  0  0  0  2  0  0  0  0  0  0
  190.2650  175.5370  137.8440 C   0  0  0  0  0  2  0  0  0  0  0  0
  192.3520  176.3730  138.8520 C   0  0  0  0  0  3  0  0  0  0  0  0
  188.4440  178.8180  138.5090 C   0  0  0  0  0  2  0  0  0  0  0  0
  190.5460  175.7680  136.4340 N   0  0  0  0  0  0  0  0  0  0  0  0
  193.0730  177.2800  139.8040 C   0  0  0  0  0  2  0  0  0  0  0  0
  188.7180  178.5800  137.0270 C   0  0  0  0  0  2  0  0  0  0  0  0
  185.5280  177.3960  136.9260 C   0  0  0  0  0  2  0  0  0  0  0  0
  184.8400  177.0390  134.5960 C   0  0  0  0  0  1  0  0  0  0  0  0
  186.6600  177.8640  136.0310 C   0  0  2  0  0  3  0  0  0  0  0  0
  185.8390  176.6450  135.6590 C   0  0  1  0  0  3  0  0  0  0  0  0
  191.5480  174.8000  135.9620 C   0  0  0  0  0  2  0  0  0  0  0  0
  191.2560  173.3560  136.3880 C   0  0  0  0  0  1  0  0  0  0  0  0
  190.7910  175.6590  142.4420 O   0  0  0  0  0  1  0  0  0  0  0  0
  190.0340  176.7590  142.0380 C   0  0  1  0  0  3  0  0  0  0  0  0
  189.5570  177.5610  143.2660 C   0  0  2  0  0  3  0  0  0  0  0  0
  191.0090  179.3440  143.9140 O   0  0  0  0  0  0  0  0  0  0  0  0
  190.7250  178.1210  144.0170 C   0  0  0  0  0  0  0  0  0  0  0  0
  191.4830  177.3080  144.8470 O   0  0  0  0  0  1  0  0  0  0  0  0
  188.7020  176.7020  144.2000 C   0  0  0  0  0  2  0  0  0  0  0  0
  188.5630  178.1650  146.2400 O   0  0  0  0  0  1  0  0  0  0  0  0
  186.5200  177.0410  145.5550 C   0  0  0  0  0  2  0  0  0  0  0  0
  187.8920  177.5530  145.1810 C   0  0  2  0  0  0  0  0  0  0  0  0
  186.2580  177.9750  143.2840 C   0  0  0  0  0  1  0  0  0  0  0  0
  186.6550  178.3040  144.7090 C   0  0  1  0  0  3  0  0  0  0  0  0
  1  3  1  0  0  0  0
  1 22  1  1  0  0  0
  4  2  1  1  0  0  0
  4  1  1  0  0  0  0
  5 12  1  0  0  0  0
  6  8  1  6  0  0  0
  6 14  1  0  0  0  0
  7 10  2  0  0  0  0
  7  4  1  0  0  0  0
  8  5  1  0  0  0  0
  9  7  1  0  0  0  0
 10 13  1  0  0  0  0
 11  2  1  0  0  0  0
 12  9  1  0  0  0  0
 13  3  1  0  0  0  0
 14 11  1  0  0  0  0
 17  6  1  0  0  0  0
 17 15  1  1  0  0  0
 18 16  1  6  0  0  0
 18 17  1  0  0  0  0
 18 15  1  0  0  0  0
 19 20  1  0  0  0  0
 19 12  1  0  0  0  0
 22 21  1  1  0  0  0
 22 23  1  0  0  0  0
 23 25  1  0  0  0  0
 23 27  1  1  0  0  0
 24 25  2  0  0  0  0
 25 26  1  0  0  0  0
 27 30  1  0  0  0  0
 30 29  1  0  0  0  0
 30 28  1  1  0  0  0
 32 31  1  6  0  0  0
 32 30  1  0  0  0  0
 32 29  1  0  0  0  0
M  END
>  <MODEL>
4

>  <REMARK>
 VINA RESULT:      -6.9      1.899      3.274
  Name = 
  7 active torsions:
  status: ('A' for Active; 'I' for Inactive)
    1  A    between atoms: C_1  and  C_27
    2  A    between atoms: N_10  and  C_12
    3  A    between atoms: C_13  and  N_29
    4  A    between atoms: C_15  and  C_20
    5  A    between atoms: C_16  and  C_20
    6  A    between atoms: C_16  and  C_22
    7  A    between atoms: C_16  and  C_27
                            x       y       z     vdW  Elec       q    Type
                         _______ _______ _______ _____ _____    ______ ____

>  <TORSDO>
F 7

$$$$
=
 OpenBabel10262421043D

 32 35  0  0  1  0  0  0  0  0999 V2000
  184.6020  178.2890  142.5590 C   0  0  1  0  0  3  0  0  0  0  0  0
  183.5500  177.7750  140.2280 C   0  0  0  0  0  2  0  0  0  0  0  0
  184.3180  178.7350  144.0030 C   0  0  0  0  0  2  0  0  0  0  0  0
  183.3240  178.0350  141.7150 C   0  0  2  0  0  3  0  0  0  0  0  0
  179.6360  179.2410  139.5490 C   0  0  0  0  0  2  0  0  0  0  0  0
  181.0250  177.4250  138.7100 N   0  0  1  0  0  0  0  0  0  0  0  0
  182.2110  179.0020  142.0430 C   0  0  0  0  0  0  0  0  0  0  0  0
  179.6660  177.8070  139.0620 C   0  0  0  0  0  2  0  0  0  0  0  0
  181.4580  179.7330  140.9700 C   0  0  0  0  0  2  0  0  0  0  0  0
  181.9960  179.2900  143.3330 C   0  0  0  0  0  3  0  0  0  0  0  0
  182.9730  176.4240  139.8400 C   0  0  0  0  0  2  0  0  0  0  0  0
  180.0630  179.3150  140.9380 N   0  0  0  0  0  0  0  0  0  0  0  0
  182.8390  178.6240  144.3800 C   0  0  0  0  0  2  0  0  0  0  0  0
  181.4520  176.4540  139.7180 C   0  0  0  0  0  2  0  0  0  0  0  0
  181.9570  177.3390  136.4300 C   0  0  0  0  0  2  0  0  0  0  0  0
  179.8250  177.1200  135.2320 C   0  0  0  0  0  1  0  0  0  0  0  0
  180.9330  176.7850  137.4030 C   0  0  2  0  0  3  0  0  0  0  0  0
  180.5320  177.8190  136.3690 C   0  0  1  0  0  3  0  0  0  0  0  0
  179.2330  180.2970  141.6530 C   0  0  0  0  0  2  0  0  0  0  0  0
  178.9590  181.5720  140.8460 C   0  0  0  0  0  1  0  0  0  0  0  0
  185.6710  180.4280  142.5110 O   0  0  0  0  0  1  0  0  0  0  0  0
  185.6910  179.1670  141.9170 C   0  0  1  0  0  3  0  0  0  0  0  0
  187.1130  178.5720  141.9690 C   0  0  2  0  0  3  0  0  0  0  0  0
  188.6810  177.6190  140.4390 O   0  0  0  0  0  1  0  0  0  0  0  0
  187.6030  178.2520  140.5900 C   0  0  0  0  0  0  0  0  0  0  0  0
  186.8640  178.6270  139.4770 O   0  0  0  0  0  0  0  0  0  0  0  0
  187.1650  177.3160  142.8410 C   0  0  0  0  0  2  0  0  0  0  0  0
  187.3470  177.8630  145.2880 O   0  0  0  0  0  1  0  0  0  0  0  0
  189.3290  178.2330  143.9300 C   0  0  0  0  0  2  0  0  0  0  0  0
  188.0040  177.5280  144.1040 C   0  0  2  0  0  0  0  0  0  0  0  0
  189.7110  175.9410  143.0950 C   0  0  0  0  0  1  0  0  0  0  0  0
  189.3000  176.7550  144.3060 C   0  0  1  0  0  3  0  0  0  0  0  0
  1 22  1  6  0  0  0
  1  3  1  0  0  0  0
  3 13  1  0  0  0  0
  4  2  1  6  0  0  0
  4  7  1  0  0  0  0
  4  1  1  0  0  0  0
  5 12  1  0  0  0  0
  6  8  1  1  0  0  0
  6 14  1  0  0  0  0
  7 10  2  0  0  0  0
  8  5  1  0  0  0  0
  9  7  1  0  0  0  0
 10 13  1  0  0  0  0
 11  2  1  0  0  0  0
 12  9  1  0  0  0  0
 12 19  1  0  0  0  0
 14 11  1  0  0  0  0
 17 15  1  6  0  0  0
 17  6  1  0  0  0  0
 18 16  1  6  0  0  0
 18 15  1  0  0  0  0
 18 17  1  0  0  0  0
 20 19  1  0  0  0  0
 22 23  1  0  0  0  0
 22 21  1  1  0  0  0
 23 27  1  1  0  0  0
 24 25  1  0  0  0  0
 25 23  1  0  0  0  0
 26 25  2  0  0  0  0
 27 30  1  0  0  0  0
 29 30  1  0  0  0  0
 29 32  1  0  0  0  0
 30 32  1  0  0  0  0
 30 28  1  1  0  0  0
 32 31  1  6  0  0  0
M  END
>  <MODEL>
5

>  <REMARK>
 VINA RESULT:      -6.7      4.821      7.860
  Name = 
  7 active torsions:
  status: ('A' for Active; 'I' for Inactive)
    1  A    between atoms: C_1  and  C_27
    2  A    between atoms: N_10  and  C_12
    3  A    between atoms: C_13  and  N_29
    4  A    between atoms: C_15  and  C_20
    5  A    between atoms: C_16  and  C_20
    6  A    between atoms: C_16  and  C_22
    7  A    between atoms: C_16  and  C_27
                            x       y       z     vdW  Elec       q    Type
                         _______ _______ _______ _____ _____    ______ ____

>  <TORSDO>
F 7

$$$$
=
 OpenBabel10262421043D

 32 35  0  0  1  0  0  0  0  0999 V2000
  184.2290  178.6740  138.6920 C   0  0  1  0  0  3  0  0  0  0  0  0
  185.2520  178.3240  141.0650 C   0  0  0  0  0  2  0  0  0  0  0  0
  183.0230  179.2090  137.9010 C   0  0  0  0  0  2  0  0  0  0  0  0
  184.1800  178.9930  140.2100 C   0  0  2  0  0  3  0  0  0  0  0  0
  182.5860  178.6210  144.3420 C   0  0  0  0  0  2  0  0  0  0  0  0
  184.9730  178.9190  143.9590 N   0  0  1  0  0  0  0  0  0  0  0  0
  182.7770  178.9370  140.7680 C   0  0  0  0  0  0  0  0  0  0  0  0
  183.8240  179.4170  144.7000 C   0  0  0  0  0  2  0  0  0  0  0  0
  182.4550  178.1820  142.0240 C   0  0  0  0  0  2  0  0  0  0  0  0
  181.7940  179.4800  140.0370 C   0  0  0  0  0  3  0  0  0  0  0  0
  186.0670  179.3780  141.7990 C   0  0  0  0  0  2  0  0  0  0  0  0
  182.0300  179.0890  143.0810 N   0  0  0  0  0  0  0  0  0  0  0  0
  182.1310  180.1350  138.7310 C   0  0  0  0  0  2  0  0  0  0  0  0
  185.3200  179.9630  142.9930 C   0  0  0  0  0  2  0  0  0  0  0  0
  186.4310  177.3090  145.1220 C   0  0  0  0  0  2  0  0  0  0  0  0
  186.3260  178.3450  147.3460 C   0  0  0  0  0  1  0  0  0  0  0  0
  186.0420  178.7640  144.9370 C   0  0  2  0  0  3  0  0  0  0  0  0
  185.5220  177.9730  146.1220 C   0  0  1  0  0  3  0  0  0  0  0  0
  180.5610  179.0960  143.1680 C   0  0  0  0  0  2  0  0  0  0  0  0
  180.0110  178.2540  144.3260 C   0  0  0  0  0  1  0  0  0  0  0  0
  183.3490  176.5620  137.9930 O   0  0  0  0  0  1  0  0  0  0  0  0
  184.5400  177.2180  138.3010 C   0  0  1  0  0  3  0  0  0  0  0  0
  185.5520  177.0610  137.1480 C   0  0  2  0  0  3  0  0  0  0  0  0
  184.6130  176.0810  135.1820 O   0  0  0  0  0  0  0  0  0  0  0  0
  185.1920  175.8910  136.2850 C   0  0  0  0  0  0  0  0  0  0  0  0
  185.5150  174.6010  136.6780 O   0  0  0  0  0  1  0  0  0  0  0  0
  186.9810  176.8990  137.6720 C   0  0  0  0  0  2  0  0  0  0  0  0
  187.2290  179.2680  136.8680 O   0  0  0  0  0  1  0  0  0  0  0  0
  189.2730  178.0820  137.4340 C   0  0  0  0  0  2  0  0  0  0  0  0
  187.7750  178.2040  137.5880 C   0  0  2  0  0  0  0  0  0  0  0  0
  188.8290  177.5710  139.8090 C   0  0  0  0  0  1  0  0  0  0  0  0
  188.6850  178.6270  138.7320 C   0  0  1  0  0  3  0  0  0  0  0  0
  1 22  1  1  0  0  0
  1  4  1  0  0  0  0
  2 11  1  0  0  0  0
  3  1  1  0  0  0  0
  3 13  1  0  0  0  0
  4  7  1  0  0  0  0
  4  2  1  1  0  0  0
  5  8  1  0  0  0  0
  6 14  1  6  0  0  0
  6  8  1  0  0  0  0
  6 17  1  0  0  0  0
  7  9  1  0  0  0  0
  9 12  1  0  0  0  0
 10  7  2  0  0  0  0
 11 14  1  0  0  0  0
 12 19  1  0  0  0  0
 12  5  1  0  0  0  0
 13 10  1  0  0  0  0
 15 18  1  0  0  0  0
 17 15  1  6  0  0  0
 17 18  1  0  0  0  0
 18 16  1  1  0  0  0
 19 20  1  0  0  0  0
 22 21  1  6  0  0  0
 23 27  1  1  0  0  0
 23 22  1  0  0  0  0
 24 25  2  0  0  0  0
 25 26  1  0  0  0  0
 25 23  1  0  0  0  0
 29 30  1  0  0  0  0
 29 32  1  0  0  0  0
 30 28  1  6  0  0  0
 30 27  1  0  0  0  0
 30 32  1  0  0  0  0
 32 31  1  1  0  0  0
M  END
>  <MODEL>
6

>  <REMARK>
 VINA RESULT:      -6.4      4.721      9.341
  Name = 
  7 active torsions:
  status: ('A' for Active; 'I' for Inactive)
    1  A    between atoms: C_1  and  C_27
    2  A    between atoms: N_10  and  C_12
    3  A    between atoms: C_13  and  N_29
    4  A    between atoms: C_15  and  C_20
    5  A    between atoms: C_16  and  C_20
    6  A    between atoms: C_16  and  C_22
    7  A    between atoms: C_16  and  C_27
                            x       y       z     vdW  Elec       q    Type
                         _______ _______ _______ _____ _____    ______ ____

>  <TORSDO>
F 7

$$$$
=
 OpenBabel10262421043D

 32 35  0  0  1  0  0  0  0  0999 V2000
  188.4250  178.3620  139.9290 C   0  0  1  0  0  3  0  0  0  0  0  0
  185.8470  178.1780  140.2740 C   0  0  0  0  0  2  0  0  0  0  0  0
  189.5560  178.4930  138.8940 C   0  0  0  0  0  2  0  0  0  0  0  0
  187.0010  178.4880  139.3250 C   0  0  2  0  0  3  0  0  0  0  0  0
  183.5460  177.1480  136.8710 C   0  0  0  0  0  2  0  0  0  0  0  0
  183.1880  178.3380  138.9660 N   0  0  1  0  0  0  0  0  0  0  0  0
  186.8970  177.8660  137.9520 C   0  0  0  0  0  0  0  0  0  0  0  0
  182.8420  178.3020  137.5540 C   0  0  0  0  0  2  0  0  0  0  0  0
  185.7850  176.9240  137.5930 C   0  0  0  0  0  2  0  0  0  0  0  0
  187.9020  178.0800  137.0940 C   0  0  0  0  0  3  0  0  0  0  0  0
  184.9200  179.3780  140.3780 C   0  0  0  0  0  2  0  0  0  0  0  0
  184.9250  177.5020  136.5690 N   0  0  0  0  0  0  0  0  0  0  0  0
  189.0550  178.9400  137.5190 C   0  0  0  0  0  2  0  0  0  0  0  0
  184.0210  179.5260  139.1540 C   0  0  0  0  0  2  0  0  0  0  0  0
  181.8900  177.6460  140.9430 C   0  0  0  0  0  2  0  0  0  0  0  0
  179.7170  177.4160  139.8220 C   0  0  0  0  0  1  0  0  0  0  0  0
  181.9270  178.4880  139.6820 C   0  0  2  0  0  3  0  0  0  0  0  0
  181.2000  177.1580  139.6970 C   0  0  1  0  0  3  0  0  0  0  0  0
  185.2910  176.9610  135.2500 C   0  0  0  0  0  2  0  0  0  0  0  0
  185.6980  175.4820  135.2850 C   0  0  0  0  0  1  0  0  0  0  0  0
  189.7220  176.3990  140.3610 O   0  0  0  0  0  1  0  0  0  0  0  0
  188.6750  177.1680  140.8680 C   0  0  1  0  0  3  0  0  0  0  0  0
  188.9520  177.5500  142.3360 C   0  0  2  0  0  3  0  0  0  0  0  0
  191.2840  178.0100  142.5850 O   0  0  0  0  0  0  0  0  0  0  0  0
  190.3500  177.1750  142.7240 C   0  0  0  0  0  0  0  0  0  0  0  0
  190.6210  175.9240  143.2590 O   0  0  0  0  0  1  0  0  0  0  0  0
  187.9550  176.8850  143.2870 C   0  0  0  0  0  2  0  0  0  0  0  0
  188.9400  178.2130  145.1810 O   0  0  0  0  0  1  0  0  0  0  0  0
  186.8050  177.1280  145.5960 C   0  0  0  0  0  2  0  0  0  0  0  0
  187.7980  177.6680  144.5930 C   0  0  2  0  0  0  0  0  0  0  0  0
  185.4300  178.2050  143.8510 C   0  0  0  0  0  1  0  0  0  0  0  0
  186.5200  178.4430  144.8780 C   0  0  1  0  0  3  0  0  0  0  0  0
  1 22  1  6  0  0  0
  2 11  1  0  0  0  0
  3  1  1  0  0  0  0
  4  1  1  0  0  0  0
  4  2  1  1  0  0  0
  5  8  1  0  0  0  0
  6  8  1  6  0  0  0
  6 14  1  0  0  0  0
  6 17  1  0  0  0  0
  7  4  1  0  0  0  0
  9  7  1  0  0  0  0
 10 13  1  0  0  0  0
 10  7  2  0  0  0  0
 12  5  1  0  0  0  0
 12  9  1  0  0  0  0
 13  3  1  0  0  0  0
 14 11  1  0  0  0  0
 17 18  1  0  0  0  0
 17 15  1  1  0  0  0
 18 16  1  1  0  0  0
 18 15  1  0  0  0  0
 19 20  1  0  0  0  0
 19 12  1  0  0  0  0
 22 21  1  6  0  0  0
 22 23  1  0  0  0  0
 23 25  1  0  0  0  0
 23 27  1  1  0  0  0
 24 25  2  0  0  0  0
 25 26  1  0  0  0  0
 27 30  1  0  0  0  0
 30 32  1  0  0  0  0
 30 28  1  1  0  0  0
 30 29  1  0  0  0  0
 32 31  1  6  0  0  0
 32 29  1  0  0  0  0
M  END
>  <MODEL>
7

>  <REMARK>
 VINA RESULT:      -6.4      3.102      5.539
  Name = 
  7 active torsions:
  status: ('A' for Active; 'I' for Inactive)
    1  A    between atoms: C_1  and  C_27
    2  A    between atoms: N_10  and  C_12
    3  A    between atoms: C_13  and  N_29
    4  A    between atoms: C_15  and  C_20
    5  A    between atoms: C_16  and  C_20
    6  A    between atoms: C_16  and  C_22
    7  A    between atoms: C_16  and  C_27
                            x       y       z     vdW  Elec       q    Type
                         _______ _______ _______ _____ _____    ______ ____

>  <TORSDO>
F 7

$$$$
=
 OpenBabel10262421043D

 32 35  0  0  1  0  0  0  0  0999 V2000
  186.0970  177.7260  137.4200 C   0  0  1  0  0  3  0  0  0  0  0  0
  184.5420  178.3690  139.4130 C   0  0  0  0  0  2  0  0  0  0  0  0
  186.1660  177.0630  136.0340 C   0  0  0  0  0  2  0  0  0  0  0  0
  184.6540  177.8910  137.9680 C   0  0  2  0  0  3  0  0  0  0  0  0
  180.7810  176.4300  139.5870 C   0  0  0  0  0  2  0  0  0  0  0  0
  181.7390  178.5270  140.3740 N   0  0  1  0  0  0  0  0  0  0  0  0
  183.7570  176.7330  137.5970 C   0  0  0  0  0  0  0  0  0  0  0  0
  180.5370  177.9030  139.8440 C   0  0  0  0  0  2  0  0  0  0  0  0
  182.8990  176.0400  138.6140 C   0  0  0  0  0  2  0  0  0  0  0  0
  183.8430  176.2550  136.3490 C   0  0  0  0  0  3  0  0  0  0  0  0
  183.7360  179.6570  139.4760 C   0  0  0  0  0  2  0  0  0  0  0  0
  181.4860  176.2450  138.3270 N   0  0  0  0  0  0  0  0  0  0  0  0
  184.7920  176.9000  135.3820 C   0  0  0  0  0  2  0  0  0  0  0  0
  182.2380  179.4140  139.3230 C   0  0  0  0  0  2  0  0  0  0  0  0
  182.1310  178.9910  142.7620 C   0  0  0  0  0  2  0  0  0  0  0  0
  179.7750  179.1200  143.4440 C   0  0  0  0  0  1  0  0  0  0  0  0
  181.3080  179.3070  141.5280 C   0  0  2  0  0  3  0  0  0  0  0  0
  180.7710  178.3690  142.5910 C   0  0  1  0  0  3  0  0  0  0  0  0
  180.9440  175.0660  137.6330 C   0  0  0  0  0  2  0  0  0  0  0  0
  180.0640  174.1800  138.5240 C   0  0  0  0  0  1  0  0  0  0  0  0
  187.8200  176.0940  137.7160 O   0  0  0  0  0  1  0  0  0  0  0  0
  187.1340  177.1120  138.3770 C   0  0  1  0  0  3  0  0  0  0  0  0
  188.1280  178.1210  138.9860 C   0  0  2  0  0  3  0  0  0  0  0  0
  188.8960  179.7490  137.4150 O   0  0  0  0  0  0  0  0  0  0  0  0
  189.0800  178.6200  137.9410 C   0  0  0  0  0  0  0  0  0  0  0  0
  190.1760  177.8570  137.5670 O   0  0  0  0  0  1  0  0  0  0  0  0
  188.9100  177.5090  140.1490 C   0  0  0  0  0  2  0  0  0  0  0  0
  187.1670  178.6700  141.5400 O   0  0  0  0  0  1  0  0  0  0  0  0
  189.3870  178.4650  142.5090 C   0  0  0  0  0  2  0  0  0  0  0  0
  188.3720  177.9660  141.5070 C   0  0  2  0  0  0  0  0  0  0  0  0
  189.6190  176.0060  142.5320 C   0  0  0  0  0  1  0  0  0  0  0  0
  188.6530  177.1510  142.7610 C   0  0  1  0  0  3  0  0  0  0  0  0
  1  4  1  0  0  0  0
  1 22  1  1  0  0  0
  2 11  1  0  0  0  0
  3  1  1  0  0  0  0
  4  2  1  1  0  0  0
  5  8  1  0  0  0  0
  6 14  1  6  0  0  0
  6 17  1  0  0  0  0
  7  4  1  0  0  0  0
  7  9  1  0  0  0  0
  8  6  1  0  0  0  0
 10  7  2  0  0  0  0
 12  9  1  0  0  0  0
 12  5  1  0  0  0  0
 13  3  1  0  0  0  0
 13 10  1  0  0  0  0
 14 11  1  0  0  0  0
 17 18  1  0  0  0  0
 17 15  1  1  0  0  0
 18 15  1  0  0  0  0
 18 16  1  1  0  0  0
 19 12  1  0  0  0  0
 19 20  1  0  0  0  0
 22 21  1  6  0  0  0
 22 23  1  0  0  0  0
 23 27  1  1  0  0  0
 24 25  2  0  0  0  0
 25 23  1  0  0  0  0
 26 25  1  0  0  0  0
 27 30  1  0  0  0  0
 29 32  1  0  0  0  0
 30 28  1  6  0  0  0
 30 29  1  0  0  0  0
 30 32  1  0  0  0  0
 32 31  1  6  0  0  0
M  END
>  <MODEL>
8

>  <REMARK>
 VINA RESULT:      -6.3      4.634      8.452
  Name = 
  7 active torsions:
  status: ('A' for Active; 'I' for Inactive)
    1  A    between atoms: C_1  and  C_27
    2  A    between atoms: N_10  and  C_12
    3  A    between atoms: C_13  and  N_29
    4  A    between atoms: C_15  and  C_20
    5  A    between atoms: C_16  and  C_20
    6  A    between atoms: C_16  and  C_22
    7  A    between atoms: C_16  and  C_27
                            x       y       z     vdW  Elec       q    Type
                         _______ _______ _______ _____ _____    ______ ____

>  <TORSDO>
F 7

$$$$
=
 OpenBabel10262421043D

 32 35  0  0  1  0  0  0  0  0999 V2000
  183.9480  178.3730  142.9260 C   0  0  1  0  0  3  0  0  0  0  0  0
  183.5410  177.8840  140.3960 C   0  0  0  0  0  2  0  0  0  0  0  0
  183.2920  178.7800  144.2560 C   0  0  0  0  0  2  0  0  0  0  0  0
  182.9360  178.1050  141.7800 C   0  0  2  0  0  3  0  0  0  0  0  0
  179.8880  179.2670  138.7610 C   0  0  0  0  0  2  0  0  0  0  0  0
  181.4980  177.5040  138.2780 N   0  0  1  0  0  0  0  0  0  0  0  0
  181.7480  179.0380  141.8260 C   0  0  0  0  0  0  0  0  0  0  0  0
  180.0840  177.8450  138.2770 C   0  0  0  0  0  2  0  0  0  0  0  0
  181.2720  179.7730  140.6080 C   0  0  0  0  0  2  0  0  0  0  0  0
  181.2020  179.2920  143.0230 C   0  0  0  0  0  3  0  0  0  0  0  0
  183.1210  176.5270  139.8540 C   0  0  0  0  0  2  0  0  0  0  0  0
  179.9450  179.3210  140.2140 N   0  0  0  0  0  0  0  0  0  0  0  0
  181.7690  178.6250  144.2410 C   0  0  0  0  0  2  0  0  0  0  0  0
  181.6820  176.5230  139.3480 C   0  0  0  0  0  2  0  0  0  0  0  0
  183.0370  177.4200  136.3560 C   0  0  0  0  0  2  0  0  0  0  0  0
  181.3290  177.3050  134.5950 C   0  0  0  0  0  1  0  0  0  0  0  0
  181.7610  176.8910  136.9820 C   0  0  2  0  0  3  0  0  0  0  0  0
  181.7050  177.9560  135.9060 C   0  0  1  0  0  3  0  0  0  0  0  0
  178.9310  180.2670  140.7070 C   0  0  0  0  0  2  0  0  0  0  0  0
  178.9790  181.6340  140.0140 C   0  0  0  0  0  1  0  0  0  0  0  0
  184.9720  180.5100  143.2530 O   0  0  0  0  0  1  0  0  0  0  0  0
  185.1390  179.2910  142.5960 C   0  0  1  0  0  3  0  0  0  0  0  0
  186.5230  178.6930  142.9190 C   0  0  2  0  0  3  0  0  0  0  0  0
  187.9380  177.1530  141.7640 O   0  0  0  0  0  1  0  0  0  0  0  0
  187.1610  178.1410  141.6810 C   0  0  0  0  0  0  0  0  0  0  0  0
  186.8820  178.6930  140.4390 O   0  0  0  0  0  0  0  0  0  0  0  0
  186.4280  177.5990  143.9850 C   0  0  0  0  0  2  0  0  0  0  0  0
  188.7420  178.1580  144.7930 O   0  0  0  0  0  1  0  0  0  0  0  0
  187.3290  176.8830  146.3060 C   0  0  0  0  0  2  0  0  0  0  0  0
  187.4290  177.8160  145.1220 C   0  0  2  0  0  0  0  0  0  0  0  0
  185.4560  178.4680  146.5800 C   0  0  0  0  0  1  0  0  0  0  0  0
  186.9630  178.3550  146.4660 C   0  0  1  0  0  3  0  0  0  0  0  0
  1 22  1  6  0  0  0
  1  3  1  0  0  0  0
  4  2  1  6  0  0  0
  4  7  1  0  0  0  0
  4  1  1  0  0  0  0
  5 12  1  0  0  0  0
  6  8  1  6  0  0  0
  6 14  1  0  0  0  0
  7 10  2  0  0  0  0
  8  5  1  0  0  0  0
  9  7  1  0  0  0  0
 10 13  1  0  0  0  0
 11  2  1  0  0  0  0
 12  9  1  0  0  0  0
 12 19  1  0  0  0  0
 13  3  1  0  0  0  0
 14 11  1  0  0  0  0
 17 15  1  1  0  0  0
 17  6  1  0  0  0  0
 18 16  1  6  0  0  0
 18 15  1  0  0  0  0
 18 17  1  0  0  0  0
 20 19  1  0  0  0  0
 22 23  1  0  0  0  0
 22 21  1  1  0  0  0
 23 27  1  1  0  0  0
 25 24  1  0  0  0  0
 25 23  1  0  0  0  0
 26 25  2  0  0  0  0
 27 30  1  0  0  0  0
 29 32  1  0  0  0  0
 30 28  1  6  0  0  0
 30 29  1  0  0  0  0
 30 32  1  0  0  0  0
 32 31  1  6  0  0  0
M  END
>  <MODEL>
9

>  <REMARK>
 VINA RESULT:      -6.1      4.650      7.634
  Name = 
  7 active torsions:
  status: ('A' for Active; 'I' for Inactive)
    1  A    between atoms: C_1  and  C_27
    2  A    between atoms: N_10  and  C_12
    3  A    between atoms: C_13  and  N_29
    4  A    between atoms: C_15  and  C_20
    5  A    between atoms: C_16  and  C_20
    6  A    between atoms: C_16  and  C_22
    7  A    between atoms: C_16  and  C_27
                            x       y       z     vdW  Elec       q    Type
                         _______ _______ _______ _____ _____    ______ ____

>  <TORSDO>
F 7

$$$$
