=
 OpenBabel10262421303D

 32 36  0  0  1  0  0  0  0  0999 V2000
  187.5710  177.3450  136.4230 C   0  0  1  0  0  3  0  0  0  0  0  0
  189.1520  177.9940  141.2770 C   0  0  0  0  0  0  0  0  0  0  0  0
  185.1080  178.2400  143.9640 C   0  0  0  0  0  3  0  0  0  0  0  0
  185.8940  178.3110  145.1170 C   0  0  0  0  0  3  0  0  0  0  0  0
  189.0630  177.8400  138.8580 C   0  0  0  0  0  0  0  0  0  0  0  0
  187.0040  177.9400  140.1440 C   0  0  0  0  0  3  0  0  0  0  0  0
  186.8140  177.8340  137.6620 C   0  0  0  0  0  2  0  0  0  0  0  0
  185.7130  178.1400  142.7110 C   0  0  0  0  0  3  0  0  0  0  0  0
  187.7410  178.0140  141.3370 C   0  0  0  0  0  0  0  0  0  0  0  0
  187.1140  178.1110  142.5930 C   0  0  0  0  0  0  0  0  0  0  0  0
  189.3120  178.1550  143.6460 C   0  0  0  0  0  0  0  0  0  0  0  0
  188.9470  178.0040  136.3450 C   0  0  0  0  0  2  0  0  0  0  0  0
  187.6520  177.8380  138.9090 C   0  0  0  0  0  0  0  0  0  0  0  0
  189.8030  177.6600  137.5650 C   0  0  0  0  0  2  0  0  0  0  0  0
  187.2850  178.2840  145.0170 C   0  0  0  0  0  3  0  0  0  0  0  0
  187.9090  178.1840  143.7630 C   0  0  0  0  0  0  0  0  0  0  0  0
  189.7990  177.9030  140.0430 C   0  0  0  0  0  3  0  0  0  0  0  0
  189.8850  178.0660  142.4170 N   0  0  0  0  0  0  0  0  0  0  0  0
  186.6450  175.0810  136.7360 C   0  0  0  0  0  3  0  0  0  0  0  0
  187.6780  175.8490  136.3910 C   0  0  0  0  0  3  0  0  0  0  0  0
  186.7590  173.5940  136.7060 C   0  0  0  0  0  3  0  0  0  0  0  0
  188.1510  173.2020  136.8470 N   0  0  0  0  0  1  0  0  0  0  0  0
  185.9870  173.0300  137.7980 N   0  0  0  0  0  1  0  0  0  0  0  0
  190.2020  178.2660  144.8450 C   0  0  0  0  0  2  0  0  0  0  0  0
  190.3610  177.0360  147.0310 C   0  0  1  0  0  3  0  0  0  0  0  0
  191.7380  176.3390  145.1710 C   0  0  1  0  0  3  0  0  0  0  0  0
  192.1570  175.5260  146.3740 C   0  0  0  0  0  2  0  0  0  0  0  0
  191.4950  176.1780  147.5740 C   0  0  0  0  0  2  0  0  0  0  0  0
  191.6400  175.5140  144.0510 O   0  0  0  0  0  1  0  0  0  0  0  0
  190.3810  176.9100  145.5140 C   0  0  2  0  0  3  0  0  0  0  0  0
  189.0100  176.6440  147.6280 C   0  0  0  0  0  2  0  0  0  0  0  0
  188.4000  177.7470  148.4810 C   0  0  0  0  0  1  0  0  0  0  0  0
  1 20  1  1  0  0  0
  1  7  1  0  0  0  0
  2  9  1  0  0  0  0
  2 18  1  0  0  0  0
  3  4  1  0  0  0  0
  5 13  2  0  0  0  0
  5 17  1  0  0  0  0
  6  9  2  0  0  0  0
  7 13  1  0  0  0  0
  8  3  2  0  0  0  0
  9 10  1  0  0  0  0
 10  8  1  0  0  0  0
 10 16  2  0  0  0  0
 11 16  1  0  0  0  0
 11 24  1  0  0  0  0
 12  1  1  0  0  0  0
 12 14  1  0  0  0  0
 13  6  1  0  0  0  0
 14  5  1  0  0  0  0
 15  4  2  0  0  0  0
 16 15  1  0  0  0  0
 17  2  2  0  0  0  0
 18 11  2  0  0  0  0
 20 19  2  0  0  0  0
 21 19  1  0  0  0  0
 21 22  1  0  0  0  0
 21 23  1  0  0  0  0
 25 28  1  0  0  0  0
 25 31  1  1  0  0  0
 26 29  1  6  0  0  0
 26 30  1  0  0  0  0
 26 27  1  0  0  0  0
 27 28  1  0  0  0  0
 30 24  1  6  0  0  0
 30 25  1  0  0  0  0
 31 32  1  0  0  0  0
M  END
>  <MODEL>
1

>  <REMARK>
 VINA RESULT:      -9.3      0.000      0.000
  Name = 
  5 active torsions:
  status: ('A' for Active; 'I' for Inactive)
    1  A    between atoms: C_1  and  C_10
    2  A    between atoms: C_2  and  C_24
    3  A    between atoms: C_6  and  C_7
    4  A    between atoms: C_16  and  C_27
    5  A    between atoms: C_27  and  C_32
                            x       y       z     vdW  Elec       q    Type
                         _______ _______ _______ _____ _____    ______ ____

>  <TORSDO>
F 5

$$$$
=
 OpenBabel10262421303D

 32 36  0  0  1  0  0  0  0  0999 V2000
  180.5980  179.1590  141.6820 C   0  0  1  0  0  3  0  0  0  0  0  0
  185.4590  177.9480  142.8600 C   0  0  0  0  0  0  0  0  0  0  0  0
  185.8520  178.5750  147.6640 C   0  0  0  0  0  3  0  0  0  0  0  0
  187.1620  178.0940  147.6070 C   0  0  0  0  0  3  0  0  0  0  0  0
  183.4220  178.5080  141.6670 C   0  0  0  0  0  0  0  0  0  0  0  0
  183.5470  178.8260  144.0730 C   0  0  0  0  0  3  0  0  0  0  0  0
  181.4310  179.4770  142.9270 C   0  0  0  0  0  2  0  0  0  0  0  0
  185.0870  178.6610  146.5010 C   0  0  0  0  0  3  0  0  0  0  0  0
  184.8680  178.3510  144.0780 C   0  0  0  0  0  0  0  0  0  0  0  0
  185.6240  178.2680  145.2620 C   0  0  0  0  0  0  0  0  0  0  0  0
  187.4910  177.3880  143.9660 C   0  0  0  0  0  0  0  0  0  0  0  0
  181.4210  179.3930  140.4160 C   0  0  0  0  0  2  0  0  0  0  0  0
  182.8160  178.8940  142.8830 C   0  0  0  0  0  0  0  0  0  0  0  0
  182.6570  178.4930  140.3760 C   0  0  0  0  0  2  0  0  0  0  0  0
  187.7100  177.7010  146.3860 C   0  0  0  0  0  3  0  0  0  0  0  0
  186.9530  177.7820  145.2060 C   0  0  0  0  0  0  0  0  0  0  0  0
  184.7330  178.0240  141.6700 C   0  0  0  0  0  3  0  0  0  0  0  0
  186.7350  177.4860  142.8400 N   0  0  0  0  0  0  0  0  0  0  0  0
  179.4850  177.2190  140.6450 C   0  0  0  0  0  3  0  0  0  0  0  0
  180.0440  177.7660  141.7240 C   0  0  0  0  0  3  0  0  0  0  0  0
  178.9310  175.8340  140.6950 C   0  0  0  0  0  3  0  0  0  0  0  0
  179.4860  175.0400  139.6120 N   0  0  0  0  0  1  0  0  0  0  0  0
  179.2750  175.2230  141.9650 N   0  0  0  0  0  1  0  0  0  0  0  0
  188.9020  176.9020  143.8400 C   0  0  0  0  0  2  0  0  0  0  0  0
  190.0530  176.8980  141.6060 C   0  0  1  0  0  3  0  0  0  0  0  0
  190.9780  178.2010  143.4190 C   0  0  1  0  0  3  0  0  0  0  0  0
  191.9550  178.2710  142.2670 C   0  0  0  0  0  2  0  0  0  0  0  0
  191.5010  177.2230  141.2680 C   0  0  0  0  0  2  0  0  0  0  0  0
  190.8180  179.4660  143.9830 O   0  0  0  0  0  1  0  0  0  0  0  0
  189.6710  177.7310  142.8220 C   0  0  2  0  0  3  0  0  0  0  0  0
  189.1190  177.1400  140.4200 C   0  0  0  0  0  2  0  0  0  0  0  0
  188.6840  178.5940  140.3020 C   0  0  0  0  0  1  0  0  0  0  0  0
  1 20  1  1  0  0  0
  1  7  1  0  0  0  0
  2  9  1  0  0  0  0
  4  3  1  0  0  0  0
  5 17  2  0  0  0  0
  5 13  1  0  0  0  0
  6  9  1  0  0  0  0
  8  3  2  0  0  0  0
  9 10  2  0  0  0  0
 10  8  1  0  0  0  0
 11 16  2  0  0  0  0
 12  1  1  0  0  0  0
 13  7  1  0  0  0  0
 13  6  2  0  0  0  0
 14 12  1  0  0  0  0
 14  5  1  0  0  0  0
 15  4  2  0  0  0  0
 16 10  1  0  0  0  0
 16 15  1  0  0  0  0
 17  2  1  0  0  0  0
 18  2  2  0  0  0  0
 18 11  1  0  0  0  0
 19 21  1  0  0  0  0
 19 20  2  0  0  0  0
 21 23  1  0  0  0  0
 22 21  1  0  0  0  0
 24 11  1  0  0  0  0
 25 31  1  6  0  0  0
 25 30  1  0  0  0  0
 26 29  1  6  0  0  0
 27 26  1  0  0  0  0
 28 25  1  0  0  0  0
 28 27  1  0  0  0  0
 30 26  1  0  0  0  0
 30 24  1  1  0  0  0
 32 31  1  0  0  0  0
M  END
>  <MODEL>
2

>  <REMARK>
 VINA RESULT:      -9.1      3.594      6.014
  Name = 
  5 active torsions:
  status: ('A' for Active; 'I' for Inactive)
    1  A    between atoms: C_1  and  C_10
    2  A    between atoms: C_2  and  C_24
    3  A    between atoms: C_6  and  C_7
    4  A    between atoms: C_16  and  C_27
    5  A    between atoms: C_27  and  C_32
                            x       y       z     vdW  Elec       q    Type
                         _______ _______ _______ _____ _____    ______ ____

>  <TORSDO>
F 5

$$$$
=
 OpenBabel10262421303D

 32 36  0  0  1  0  0  0  0  0999 V2000
  190.1810  177.2470  137.1890 C   0  0  1  0  0  3  0  0  0  0  0  0
  188.5020  177.1110  142.0510 C   0  0  0  0  0  0  0  0  0  0  0  0
  184.2110  179.3950  142.0340 C   0  0  0  0  0  3  0  0  0  0  0  0
  184.0550  179.0860  143.3870 C   0  0  0  0  0  3  0  0  0  0  0  0
  189.8790  176.9760  140.0580 C   0  0  0  0  0  0  0  0  0  0  0  0
  187.7340  178.1160  139.9780 C   0  0  0  0  0  3  0  0  0  0  0  0
  189.1000  178.0720  137.8940 C   0  0  0  0  0  2  0  0  0  0  0  0
  185.3550  178.9830  141.3500 C   0  0  0  0  0  3  0  0  0  0  0  0
  187.5220  177.8340  141.3370 C   0  0  0  0  0  0  0  0  0  0  0  0
  186.3600  178.2550  142.0110 C   0  0  0  0  0  0  0  0  0  0  0  0
  187.2070  177.2140  144.0450 C   0  0  0  0  0  0  0  0  0  0  0  0
  191.4220  177.1290  138.0720 C   0  0  0  0  0  2  0  0  0  0  0  0
  188.8940  177.6810  139.3310 C   0  0  0  0  0  0  0  0  0  0  0  0
  191.1060  176.4250  139.3920 C   0  0  0  0  0  2  0  0  0  0  0  0
  185.0440  178.3650  144.0580 C   0  0  0  0  0  3  0  0  0  0  0  0
  186.2010  177.9430  143.3830 C   0  0  0  0  0  0  0  0  0  0  0  0
  189.6660  176.6840  141.4080 C   0  0  0  0  0  3  0  0  0  0  0  0
  188.3190  176.8280  143.3660 N   0  0  0  0  0  0  0  0  0  0  0  0
  188.4440  175.7530  136.2790 C   0  0  0  0  0  3  0  0  0  0  0  0
  189.6710  175.8980  136.7780 C   0  0  0  0  0  3  0  0  0  0  0  0
  187.9400  174.4080  135.8760 C   0  0  0  0  0  3  0  0  0  0  0  0
  189.0360  173.4530  135.8610 N   0  0  0  0  0  1  0  0  0  0  0  0
  186.9320  173.9670  136.8220 N   0  0  0  0  0  1  0  0  0  0  0  0
  187.1100  176.8880  145.5040 C   0  0  0  0  0  2  0  0  0  0  0  0
  189.3270  177.2680  146.6250 C   0  0  1  0  0  3  0  0  0  0  0  0
  187.3070  178.0720  147.6800 C   0  0  1  0  0  3  0  0  0  0  0  0
  188.4470  178.3070  148.6450 C   0  0  0  0  0  2  0  0  0  0  0  0
  189.6320  177.5380  148.0910 C   0  0  0  0  0  2  0  0  0  0  0  0
  186.4830  179.1960  147.6370 O   0  0  0  0  0  1  0  0  0  0  0  0
  187.9520  177.8510  146.3310 C   0  0  2  0  0  3  0  0  0  0  0  0
  190.4060  177.8350  145.7020 C   0  0  0  0  0  2  0  0  0  0  0  0
  191.4470  176.7970  145.3070 C   0  0  0  0  0  1  0  0  0  0  0  0
  1 20  1  1  0  0  0
  1  7  1  0  0  0  0
  1 12  1  0  0  0  0
  2 18  1  0  0  0  0
  3  4  1  0  0  0  0
  4 15  2  0  0  0  0
  5 17  1  0  0  0  0
  6  9  2  0  0  0  0
  7 13  1  0  0  0  0
  8 10  1  0  0  0  0
  8  3  2  0  0  0  0
  9 10  1  0  0  0  0
  9  2  1  0  0  0  0
 10 16  2  0  0  0  0
 11 24  1  0  0  0  0
 12 14  1  0  0  0  0
 13  6  1  0  0  0  0
 13  5  2  0  0  0  0
 14  5  1  0  0  0  0
 16 11  1  0  0  0  0
 16 15  1  0  0  0  0
 17  2  2  0  0  0  0
 18 11  2  0  0  0  0
 19 20  2  0  0  0  0
 21 19  1  0  0  0  0
 21 23  1  0  0  0  0
 22 21  1  0  0  0  0
 25 31  1  6  0  0  0
 25 28  1  0  0  0  0
 26 29  1  6  0  0  0
 26 27  1  0  0  0  0
 28 27  1  0  0  0  0
 30 24  1  6  0  0  0
 30 25  1  0  0  0  0
 30 26  1  0  0  0  0
 32 31  1  0  0  0  0
M  END
>  <MODEL>
3

>  <REMARK>
 VINA RESULT:      -8.7      1.858      2.812
  Name = 
  5 active torsions:
  status: ('A' for Active; 'I' for Inactive)
    1  A    between atoms: C_1  and  C_10
    2  A    between atoms: C_2  and  C_24
    3  A    between atoms: C_6  and  C_7
    4  A    between atoms: C_16  and  C_27
    5  A    between atoms: C_27  and  C_32
                            x       y       z     vdW  Elec       q    Type
                         _______ _______ _______ _____ _____    ______ ____

>  <TORSDO>
F 5

$$$$
=
 OpenBabel10262421303D

 32 36  0  0  1  0  0  0  0  0999 V2000
  181.6300  178.5430  139.9200 C   0  0  1  0  0  3  0  0  0  0  0  0
  186.1970  178.4470  142.2890 C   0  0  0  0  0  0  0  0  0  0  0  0
  185.2180  178.2460  147.0460 C   0  0  0  0  0  3  0  0  0  0  0  0
  186.5850  178.1450  147.3100 C   0  0  0  0  0  3  0  0  0  0  0  0
  184.4350  178.6670  140.6360 C   0  0  0  0  0  0  0  0  0  0  0  0
  183.8770  178.5520  142.9980 C   0  0  0  0  0  3  0  0  0  0  0  0
  182.0030  178.8290  141.3780 C   0  0  0  0  0  2  0  0  0  0  0  0
  184.7650  178.3460  145.7300 C   0  0  0  0  0  3  0  0  0  0  0  0
  185.2380  178.4470  143.3250 C   0  0  0  0  0  0  0  0  0  0  0  0
  185.6760  178.3450  144.6580 C   0  0  0  0  0  0  0  0  0  0  0  0
  187.9750  178.2410  143.8570 C   0  0  0  0  0  0  0  0  0  0  0  0
  182.6220  179.2160  138.9730 C   0  0  0  0  0  2  0  0  0  0  0  0
  183.4680  178.6470  141.6650 C   0  0  0  0  0  0  0  0  0  0  0  0
  184.0430  178.6940  139.1870 C   0  0  0  0  0  2  0  0  0  0  0  0
  187.5020  178.1430  146.2590 C   0  0  0  0  0  3  0  0  0  0  0  0
  187.0620  178.2420  144.9290 C   0  0  0  0  0  0  0  0  0  0  0  0
  185.7900  178.5510  140.9570 C   0  0  0  0  0  3  0  0  0  0  0  0
  187.5190  178.3470  142.5810 N   0  0  0  0  0  0  0  0  0  0  0  0
  180.4780  176.3680  140.0750 C   0  0  0  0  0  3  0  0  0  0  0  0
  181.5280  177.0700  139.6510 C   0  0  0  0  0  3  0  0  0  0  0  0
  180.3850  174.9030  139.8080 C   0  0  0  0  0  3  0  0  0  0  0  0
  179.7140  174.2410  140.9140 N   0  0  0  0  0  1  0  0  0  0  0  0
  179.6320  174.6820  138.5870 N   0  0  0  0  0  1  0  0  0  0  0  0
  189.4540  178.1720  144.0840 C   0  0  0  0  0  2  0  0  0  0  0  0
  191.1800  176.7700  145.2550 C   0  0  1  0  0  3  0  0  0  0  0  0
  190.1600  175.9500  143.2240 C   0  0  1  0  0  3  0  0  0  0  0  0
  191.2510  174.9770  143.6070 C   0  0  0  0  0  2  0  0  0  0  0  0
  192.0560  175.6560  144.6990 C   0  0  0  0  0  2  0  0  0  0  0  0
  189.0160  175.2530  142.8370 O   0  0  0  0  0  1  0  0  0  0  0  0
  189.8770  176.7610  144.4680 C   0  0  2  0  0  3  0  0  0  0  0  0
  190.9500  176.6200  146.7590 C   0  0  0  0  0  2  0  0  0  0  0  0
  192.0400  175.8080  147.4430 C   0  0  0  0  0  1  0  0  0  0  0  0
  1 20  1  1  0  0  0
  1  7  1  0  0  0  0
  2 18  2  0  0  0  0
  2  9  1  0  0  0  0
  3  4  1  0  0  0  0
  5 17  2  0  0  0  0
  5 13  1  0  0  0  0
  6  9  1  0  0  0  0
  7 13  1  0  0  0  0
  8  3  2  0  0  0  0
  9 10  2  0  0  0  0
 10 16  1  0  0  0  0
 10  8  1  0  0  0  0
 11 24  1  0  0  0  0
 11 16  2  0  0  0  0
 12 14  1  0  0  0  0
 12  1  1  0  0  0  0
 13  6  2  0  0  0  0
 14  5  1  0  0  0  0
 15  4  2  0  0  0  0
 16 15  1  0  0  0  0
 17  2  1  0  0  0  0
 18 11  1  0  0  0  0
 20 19  2  0  0  0  0
 21 19  1  0  0  0  0
 21 22  1  0  0  0  0
 23 21  1  0  0  0  0
 25 31  1  1  0  0  0
 26 29  1  1  0  0  0
 26 27  1  0  0  0  0
 26 30  1  0  0  0  0
 27 28  1  0  0  0  0
 28 25  1  0  0  0  0
 30 24  1  6  0  0  0
 30 25  1  0  0  0  0
 31 32  1  0  0  0  0
M  END
>  <MODEL>
4

>  <REMARK>
 VINA RESULT:      -8.6      3.415      4.570
  Name = 
  5 active torsions:
  status: ('A' for Active; 'I' for Inactive)
    1  A    between atoms: C_1  and  C_10
    2  A    between atoms: C_2  and  C_24
    3  A    between atoms: C_6  and  C_7
    4  A    between atoms: C_16  and  C_27
    5  A    between atoms: C_27  and  C_32
                            x       y       z     vdW  Elec       q    Type
                         _______ _______ _______ _____ _____    ______ ____

>  <TORSDO>
F 5

$$$$
=
 OpenBabel10262421303D

 32 36  0  0  1  0  0  0  0  0999 V2000
  187.9550  178.0870  137.0270 C   0  0  1  0  0  3  0  0  0  0  0  0
  188.1660  177.4100  142.1240 C   0  0  0  0  0  0  0  0  0  0  0  0
  184.0730  179.3510  143.8870 C   0  0  0  0  0  3  0  0  0  0  0  0
  184.4320  178.9170  145.1650 C   0  0  0  0  0  3  0  0  0  0  0  0
  188.7280  177.5520  139.7680 C   0  0  0  0  0  0  0  0  0  0  0  0
  186.6560  178.5250  140.5820 C   0  0  0  0  0  3  0  0  0  0  0  0
  187.1720  178.7640  138.1560 C   0  0  0  0  0  2  0  0  0  0  0  0
  184.9050  179.0880  142.7990 C   0  0  0  0  0  3  0  0  0  0  0  0
  186.9640  178.1140  141.8890 C   0  0  0  0  0  0  0  0  0  0  0  0
  186.1110  178.3860  142.9750 C   0  0  0  0  0  0  0  0  0  0  0  0
  187.6820  177.2450  144.4480 C   0  0  0  0  0  0  0  0  0  0  0  0
  189.4360  177.9900  137.3890 C   0  0  0  0  0  2  0  0  0  0  0  0
  187.5180  178.2370  139.5210 C   0  0  0  0  0  0  0  0  0  0  0  0
  189.6500  177.1550  138.6530 C   0  0  0  0  0  2  0  0  0  0  0  0
  185.6260  178.2200  145.3570 C   0  0  0  0  0  3  0  0  0  0  0  0
  186.4740  177.9480  144.2710 C   0  0  0  0  0  0  0  0  0  0  0  0
  189.0320  177.1310  141.0650 C   0  0  0  0  0  3  0  0  0  0  0  0
  188.4850  177.0030  143.3790 N   0  0  0  0  0  0  0  0  0  0  0  0
  186.1150  176.4470  136.9560 C   0  0  0  0  0  3  0  0  0  0  0  0
  187.3860  176.7420  136.6840 C   0  0  0  0  0  3  0  0  0  0  0  0
  185.5560  175.1060  136.6170 C   0  0  0  0  0  3  0  0  0  0  0  0
  186.4890  174.0660  137.0160 N   0  0  0  0  0  1  0  0  0  0  0  0
  184.2980  174.9170  137.3160 N   0  0  0  0  0  1  0  0  0  0  0  0
  188.1350  176.7890  145.8010 C   0  0  0  0  0  2  0  0  0  0  0  0
  190.6430  176.7450  145.6540 C   0  0  1  0  0  3  0  0  0  0  0  0
  189.5840  177.4650  147.7030 C   0  0  1  0  0  3  0  0  0  0  0  0
  191.0720  177.3980  147.9620 C   0  0  0  0  0  2  0  0  0  0  0  0
  191.6730  176.6730  146.7730 C   0  0  0  0  0  2  0  0  0  0  0  0
  189.0590  178.6340  148.2530 O   0  0  0  0  0  1  0  0  0  0  0  0
  189.4290  177.4840  146.2000 C   0  0  2  0  0  3  0  0  0  0  0  0
  191.2090  177.4080  144.3970 C   0  0  0  0  0  2  0  0  0  0  0  0
  191.0410  178.9200  144.4030 C   0  0  0  0  0  1  0  0  0  0  0  0
  1 20  1  1  0  0  0
  1 12  1  0  0  0  0
  1  7  1  0  0  0  0
  2 18  1  0  0  0  0
  3  4  1  0  0  0  0
  4 15  2  0  0  0  0
  5 17  1  0  0  0  0
  6  9  2  0  0  0  0
  7 13  1  0  0  0  0
  8 10  1  0  0  0  0
  8  3  2  0  0  0  0
  9  2  1  0  0  0  0
  9 10  1  0  0  0  0
 10 16  2  0  0  0  0
 11 24  1  0  0  0  0
 12 14  1  0  0  0  0
 13  5  2  0  0  0  0
 13  6  1  0  0  0  0
 14  5  1  0  0  0  0
 16 11  1  0  0  0  0
 16 15  1  0  0  0  0
 17  2  2  0  0  0  0
 18 11  2  0  0  0  0
 20 19  2  0  0  0  0
 21 19  1  0  0  0  0
 21 22  1  0  0  0  0
 21 23  1  0  0  0  0
 25 31  1  6  0  0  0
 25 30  1  0  0  0  0
 25 28  1  0  0  0  0
 26 27  1  0  0  0  0
 26 29  1  1  0  0  0
 28 27  1  0  0  0  0
 30 24  1  1  0  0  0
 30 26  1  0  0  0  0
 31 32  1  0  0  0  0
M  END
>  <MODEL>
5

>  <REMARK>
 VINA RESULT:      -8.6      1.581      2.215
  Name = 
  5 active torsions:
  status: ('A' for Active; 'I' for Inactive)
    1  A    between atoms: C_1  and  C_10
    2  A    between atoms: C_2  and  C_24
    3  A    between atoms: C_6  and  C_7
    4  A    between atoms: C_16  and  C_27
    5  A    between atoms: C_27  and  C_32
                            x       y       z     vdW  Elec       q    Type
                         _______ _______ _______ _____ _____    ______ ____

>  <TORSDO>
F 5

$$$$
=
 OpenBabel10262421303D

 32 36  0  0  1  0  0  0  0  0999 V2000
  179.1680  178.1950  139.3050 C   0  0  1  0  0  3  0  0  0  0  0  0
  184.1000  178.7840  140.6500 C   0  0  0  0  0  0  0  0  0  0  0  0
  184.1720  178.6410  145.5090 C   0  0  0  0  0  3  0  0  0  0  0  0
  185.5660  178.7280  145.4780 C   0  0  0  0  0  3  0  0  0  0  0  0
  182.0180  178.7110  139.4070 C   0  0  0  0  0  0  0  0  0  0  0  0
  181.9860  178.6140  141.8350 C   0  0  0  0  0  3  0  0  0  0  0  0
  179.7960  178.5830  140.6470 C   0  0  0  0  0  2  0  0  0  0  0  0
  183.4460  178.6300  144.3170 C   0  0  0  0  0  3  0  0  0  0  0  0
  183.3870  178.7000  141.8670 C   0  0  0  0  0  0  0  0  0  0  0  0
  184.1040  178.7060  143.0770 C   0  0  0  0  0  0  0  0  0  0  0  0
  186.1780  178.8720  141.8070 C   0  0  0  0  0  0  0  0  0  0  0  0
  179.8400  178.9550  138.1620 C   0  0  0  0  0  2  0  0  0  0  0  0
  181.2990  178.6040  140.6180 C   0  0  0  0  0  0  0  0  0  0  0  0
  181.3320  178.6310  138.0740 C   0  0  0  0  0  2  0  0  0  0  0  0
  186.2350  178.8050  144.2560 C   0  0  0  0  0  3  0  0  0  0  0  0
  185.5170  178.7960  143.0480 C   0  0  0  0  0  0  0  0  0  0  0  0
  183.4130  178.7840  139.4350 C   0  0  0  0  0  3  0  0  0  0  0  0
  185.4540  178.8690  140.6560 N   0  0  0  0  0  0  0  0  0  0  0  0
  179.0370  175.8600  140.0860 C   0  0  0  0  0  3  0  0  0  0  0  0
  179.2130  176.7130  139.0770 C   0  0  0  0  0  3  0  0  0  0  0  0
  179.0870  174.3870  139.8550 C   0  0  0  0  0  3  0  0  0  0  0  0
  179.9480  174.0940  138.7220 N   0  0  0  0  0  1  0  0  0  0  0  0
  179.6110  173.7310  141.0390 N   0  0  0  0  0  1  0  0  0  0  0  0
  187.6670  179.0050  141.7160 C   0  0  0  0  0  2  0  0  0  0  0  0
  189.4000  177.3440  142.4610 C   0  0  1  0  0  3  0  0  0  0  0  0
  189.0130  177.6820  140.1000 C   0  0  1  0  0  3  0  0  0  0  0  0
  190.1990  176.7540  140.2360 C   0  0  0  0  0  2  0  0  0  0  0  0
  190.5970  176.7940  141.7000 C   0  0  0  0  0  2  0  0  0  0  0  0
  188.1560  177.2140  139.1040 O   0  0  0  0  0  1  0  0  0  0  0  0
  188.3140  177.6550  141.4400 C   0  0  2  0  0  3  0  0  0  0  0  0
  188.9170  176.3790  143.5440 C   0  0  0  0  0  2  0  0  0  0  0  0
  189.1930  176.8890  144.9520 C   0  0  0  0  0  1  0  0  0  0  0  0
  1 20  1  6  0  0  0
  1  7  1  0  0  0  0
  2 18  2  0  0  0  0
  2  9  1  0  0  0  0
  4  3  1  0  0  0  0
  5 17  2  0  0  0  0
  5 13  1  0  0  0  0
  6  9  1  0  0  0  0
  8  3  2  0  0  0  0
  9 10  2  0  0  0  0
 10  8  1  0  0  0  0
 11 16  2  0  0  0  0
 12  1  1  0  0  0  0
 13  7  1  0  0  0  0
 13  6  2  0  0  0  0
 14 12  1  0  0  0  0
 14  5  1  0  0  0  0
 15  4  2  0  0  0  0
 16 10  1  0  0  0  0
 16 15  1  0  0  0  0
 17  2  1  0  0  0  0
 18 11  1  0  0  0  0
 20 19  2  0  0  0  0
 21 19  1  0  0  0  0
 21 23  1  0  0  0  0
 22 21  1  0  0  0  0
 24 11  1  0  0  0  0
 25 31  1  1  0  0  0
 26 29  1  6  0  0  0
 26 27  1  0  0  0  0
 26 30  1  0  0  0  0
 27 28  1  0  0  0  0
 28 25  1  0  0  0  0
 30 24  1  1  0  0  0
 30 25  1  0  0  0  0
 31 32  1  0  0  0  0
M  END
>  <MODEL>
6

>  <REMARK>
 VINA RESULT:      -8.2      4.422      6.027
  Name = 
  5 active torsions:
  status: ('A' for Active; 'I' for Inactive)
    1  A    between atoms: C_1  and  C_10
    2  A    between atoms: C_2  and  C_24
    3  A    between atoms: C_6  and  C_7
    4  A    between atoms: C_16  and  C_27
    5  A    between atoms: C_27  and  C_32
                            x       y       z     vdW  Elec       q    Type
                         _______ _______ _______ _____ _____    ______ ____

>  <TORSDO>
F 5

$$$$
=
 OpenBabel10262421303D

 32 36  0  0  1  0  0  0  0  0999 V2000
  180.6570  178.7210  139.3340 C   0  0  1  0  0  3  0  0  0  0  0  0
  185.5180  178.6260  141.0180 C   0  0  0  0  0  0  0  0  0  0  0  0
  188.2680  177.8760  137.0810 C   0  0  0  0  0  3  0  0  0  0  0  0
  189.4130  178.0030  137.8710 C   0  0  0  0  0  3  0  0  0  0  0  0
  183.0950  178.6210  140.8960 C   0  0  0  0  0  0  0  0  0  0  0  0
  184.4120  178.2600  138.8870 C   0  0  0  0  0  3  0  0  0  0  0  0
  181.9310  178.1870  138.6720 C   0  0  0  0  0  2  0  0  0  0  0  0
  187.0030  178.0010  137.6560 C   0  0  0  0  0  3  0  0  0  0  0  0
  185.5980  178.3780  139.6300 C   0  0  0  0  0  0  0  0  0  0  0  0
  186.8660  178.2530  139.0330 C   0  0  0  0  0  0  0  0  0  0  0  0
  187.8900  178.6330  141.2110 C   0  0  0  0  0  0  0  0  0  0  0  0
  180.5980  178.2930  140.8000 C   0  0  0  0  0  2  0  0  0  0  0  0
  183.1660  178.3940  139.5040 C   0  0  0  0  0  0  0  0  0  0  0  0
  181.7840  178.8440  141.5920 C   0  0  0  0  0  2  0  0  0  0  0  0
  189.2940  178.2530  139.2390 C   0  0  0  0  0  3  0  0  0  0  0  0
  188.0270  178.3800  139.8330 C   0  0  0  0  0  0  0  0  0  0  0  0
  184.2730  178.7500  141.6370 C   0  0  0  0  0  3  0  0  0  0  0  0
  186.6510  178.7420  141.7570 N   0  0  0  0  0  0  0  0  0  0  0  0
  180.8240  180.8120  138.0400 C   0  0  0  0  0  3  0  0  0  0  0  0
  180.5370  180.2090  139.1930 C   0  0  0  0  0  3  0  0  0  0  0  0
  180.7080  182.2940  137.9070 C   0  0  0  0  0  3  0  0  0  0  0  0
  180.7950  182.6730  136.5070 N   0  0  0  0  0  1  0  0  0  0  0  0
  179.4320  182.7270  138.4440 N   0  0  0  0  0  1  0  0  0  0  0  0
  189.0820  178.7400  142.1120 C   0  0  0  0  0  2  0  0  0  0  0  0
  189.1670  177.7920  144.4390 C   0  0  1  0  0  3  0  0  0  0  0  0
  190.6110  176.8800  142.7290 C   0  0  1  0  0  3  0  0  0  0  0  0
  190.9900  176.2260  144.0380 C   0  0  0  0  0  2  0  0  0  0  0  0
  190.2840  177.0170  145.1230 C   0  0  0  0  0  2  0  0  0  0  0  0
  190.5560  175.9220  141.7170 O   0  0  0  0  0  1  0  0  0  0  0  0
  189.2410  177.4780  142.9510 C   0  0  2  0  0  3  0  0  0  0  0  0
  187.7960  177.4660  145.0330 C   0  0  0  0  0  2  0  0  0  0  0  0
  187.7900  177.5030  146.5540 C   0  0  0  0  0  1  0  0  0  0  0  0
  1 20  1  1  0  0  0
  1 12  1  0  0  0  0
  2 17  2  0  0  0  0
  2 18  1  0  0  0  0
  3  8  2  0  0  0  0
  3  4  1  0  0  0  0
  4 15  2  0  0  0  0
  5 14  1  0  0  0  0
  5 17  1  0  0  0  0
  6 13  1  0  0  0  0
  6  9  2  0  0  0  0
  7  1  1  0  0  0  0
  7 13  1  0  0  0  0
  8 10  1  0  0  0  0
  9  2  1  0  0  0  0
 10  9  1  0  0  0  0
 10 16  2  0  0  0  0
 11 18  2  0  0  0  0
 11 24  1  0  0  0  0
 12 14  1  0  0  0  0
 13  5  2  0  0  0  0
 15 16  1  0  0  0  0
 16 11  1  0  0  0  0
 19 20  2  0  0  0  0
 21 19  1  0  0  0  0
 21 23  1  0  0  0  0
 22 21  1  0  0  0  0
 25 31  1  1  0  0  0
 25 28  1  0  0  0  0
 26 29  1  6  0  0  0
 26 30  1  0  0  0  0
 26 27  1  0  0  0  0
 27 28  1  0  0  0  0
 30 24  1  6  0  0  0
 30 25  1  0  0  0  0
 31 32  1  0  0  0  0
M  END
>  <MODEL>
7

>  <REMARK>
 VINA RESULT:      -8.0      4.301      6.186
  Name = 
  5 active torsions:
  status: ('A' for Active; 'I' for Inactive)
    1  A    between atoms: C_1  and  C_10
    2  A    between atoms: C_2  and  C_24
    3  A    between atoms: C_6  and  C_7
    4  A    between atoms: C_16  and  C_27
    5  A    between atoms: C_27  and  C_32
                            x       y       z     vdW  Elec       q    Type
                         _______ _______ _______ _____ _____    ______ ____

>  <TORSDO>
F 5

$$$$
=
 OpenBabel10262421303D

 32 36  0  0  1  0  0  0  0  0999 V2000
  180.3960  178.6470  141.0520 C   0  0  1  0  0  3  0  0  0  0  0  0
  185.4360  178.6220  140.0180 C   0  0  0  0  0  0  0  0  0  0  0  0
  187.6480  177.6350  144.2330 C   0  0  0  0  0  3  0  0  0  0  0  0
  188.8770  177.6200  143.5700 C   0  0  0  0  0  3  0  0  0  0  0  0
  183.0330  178.9210  139.8830 C   0  0  0  0  0  0  0  0  0  0  0  0
  184.0740  178.4090  142.0170 C   0  0  0  0  0  3  0  0  0  0  0  0
  181.6060  178.7490  141.9860 C   0  0  0  0  0  2  0  0  0  0  0  0
  186.4730  177.8850  143.5220 C   0  0  0  0  0  3  0  0  0  0  0  0
  185.3380  178.3820  141.4060 C   0  0  0  0  0  0  0  0  0  0  0  0
  186.5120  178.1250  142.1370 C   0  0  0  0  0  0  0  0  0  0  0  0
  187.8000  178.3510  140.0810 C   0  0  0  0  0  0  0  0  0  0  0  0
  180.5900  179.5400  139.8280 C   0  0  0  0  0  2  0  0  0  0  0  0
  182.9220  178.6610  141.2660 C   0  0  0  0  0  0  0  0  0  0  0  0
  181.8210  179.1250  139.0210 C   0  0  0  0  0  2  0  0  0  0  0  0
  188.9330  177.8570  142.1960 C   0  0  0  0  0  3  0  0  0  0  0  0
  187.7590  178.1110  141.4680 C   0  0  0  0  0  0  0  0  0  0  0  0
  184.2870  178.8840  139.2690 C   0  0  0  0  0  3  0  0  0  0  0  0
  186.6470  178.6010  139.4050 N   0  0  0  0  0  0  0  0  0  0  0  0
  179.2000  176.5050  141.2990 C   0  0  0  0  0  3  0  0  0  0  0  0
  180.1170  177.2280  140.6560 C   0  0  0  0  0  3  0  0  0  0  0  0
  178.9310  175.0920  140.9030 C   0  0  0  0  0  3  0  0  0  0  0  0
  179.9000  174.6640  139.9080 N   0  0  0  0  0  1  0  0  0  0  0  0
  179.0310  174.2370  142.0710 N   0  0  0  0  0  1  0  0  0  0  0  0
  189.0930  178.3850  139.3260 C   0  0  0  0  0  2  0  0  0  0  0  0
  190.2280  176.7980  137.7420 C   0  0  1  0  0  3  0  0  0  0  0  0
  188.8630  178.5870  136.8600 C   0  0  1  0  0  3  0  0  0  0  0  0
  189.5280  177.9030  135.6860 C   0  0  0  0  0  2  0  0  0  0  0  0
  190.5890  176.9930  136.2760 C   0  0  0  0  0  2  0  0  0  0  0  0
  187.5210  178.8300  136.5700 O   0  0  0  0  0  1  0  0  0  0  0  0
  188.9750  177.6190  138.0160 C   0  0  2  0  0  3  0  0  0  0  0  0
  190.0420  175.3220  138.0950 C   0  0  0  0  0  2  0  0  0  0  0  0
  190.0840  174.4160  136.8730 C   0  0  0  0  0  1  0  0  0  0  0  0
  1 20  1  6  0  0  0
  1  7  1  0  0  0  0
  2  9  1  0  0  0  0
  4  3  1  0  0  0  0
  5 13  1  0  0  0  0
  8  3  2  0  0  0  0
  9  6  1  0  0  0  0
  9 10  2  0  0  0  0
 10  8  1  0  0  0  0
 11 16  2  0  0  0  0
 12  1  1  0  0  0  0
 13  7  1  0  0  0  0
 13  6  2  0  0  0  0
 14 12  1  0  0  0  0
 14  5  1  0  0  0  0
 15  4  2  0  0  0  0
 16 10  1  0  0  0  0
 16 15  1  0  0  0  0
 17  5  2  0  0  0  0
 17  2  1  0  0  0  0
 18  2  2  0  0  0  0
 18 11  1  0  0  0  0
 20 19  2  0  0  0  0
 21 19  1  0  0  0  0
 21 23  1  0  0  0  0
 22 21  1  0  0  0  0
 24 11  1  0  0  0  0
 25 30  1  0  0  0  0
 25 31  1  6  0  0  0
 26 29  1  6  0  0  0
 26 30  1  0  0  0  0
 27 28  1  0  0  0  0
 27 26  1  0  0  0  0
 28 25  1  0  0  0  0
 30 24  1  1  0  0  0
 32 31  1  0  0  0  0
M  END
>  <MODEL>
8

>  <REMARK>
 VINA RESULT:      -7.0      4.089      7.297
  Name = 
  5 active torsions:
  status: ('A' for Active; 'I' for Inactive)
    1  A    between atoms: C_1  and  C_10
    2  A    between atoms: C_2  and  C_24
    3  A    between atoms: C_6  and  C_7
    4  A    between atoms: C_16  and  C_27
    5  A    between atoms: C_27  and  C_32
                            x       y       z     vdW  Elec       q    Type
                         _______ _______ _______ _____ _____    ______ ____

>  <TORSDO>
F 5

$$$$
=
 OpenBabel10262421303D

 32 36  0  0  1  0  0  0  0  0999 V2000
  191.3600  178.2860  144.3410 C   0  0  1  0  0  3  0  0  0  0  0  0
  189.6240  176.7920  139.7330 C   0  0  0  0  0  0  0  0  0  0  0  0
  193.5580  176.3820  136.9060 C   0  0  0  0  0  3  0  0  0  0  0  0
  192.7490  175.9080  135.8710 C   0  0  0  0  0  3  0  0  0  0  0  0
  189.7750  177.6170  142.0090 C   0  0  0  0  0  0  0  0  0  0  0  0
  191.7820  177.4180  140.6550 C   0  0  0  0  0  3  0  0  0  0  0  0
  192.0290  178.3230  142.9630 C   0  0  0  0  0  2  0  0  0  0  0  0
  192.9920  176.7230  138.1350 C   0  0  0  0  0  3  0  0  0  0  0  0
  191.0210  176.9350  139.5780 C   0  0  0  0  0  0  0  0  0  0  0  0
  191.6080  176.5940  138.3460 C   0  0  0  0  0  0  0  0  0  0  0  0
  189.4030  175.9840  137.5050 C   0  0  0  0  0  0  0  0  0  0  0  0
  189.9150  178.7720  144.2450 C   0  0  0  0  0  2  0  0  0  0  0  0
  191.1740  177.7440  141.8700 C   0  0  0  0  0  0  0  0  0  0  0  0
  189.0850  177.8860  143.3150 C   0  0  0  0  0  2  0  0  0  0  0  0
  191.3730  175.7750  136.0630 C   0  0  0  0  0  3  0  0  0  0  0  0
  190.7900  176.1140  137.2950 C   0  0  0  0  0  0  0  0  0  0  0  0
  189.0150  177.1270  140.9440 C   0  0  0  0  0  3  0  0  0  0  0  0
  188.8680  176.3280  138.7060 N   0  0  0  0  0  0  0  0  0  0  0  0
  191.6870  176.7760  146.2630 C   0  0  0  0  0  3  0  0  0  0  0  0
  191.4390  176.9220  144.9620 C   0  0  0  0  0  3  0  0  0  0  0  0
  191.7690  175.4180  146.8730 C   0  0  0  0  0  3  0  0  0  0  0  0
  192.4290  174.5030  145.9580 N   0  0  0  0  0  1  0  0  0  0  0  0
  192.5260  175.4900  148.1090 N   0  0  0  0  0  1  0  0  0  0  0  0
  188.4840  175.5180  136.4190 C   0  0  0  0  0  2  0  0  0  0  0  0
  186.2370  174.3910  136.4050 C   0  0  1  0  0  3  0  0  0  0  0  0
  186.3630  176.7970  136.2140 C   0  0  1  0  0  3  0  0  0  0  0  0
  184.9160  176.4030  136.0240 C   0  0  0  0  0  2  0  0  0  0  0  0
  184.9100  174.8950  135.8560 C   0  0  0  0  0  2  0  0  0  0  0  0
  186.4460  177.9080  137.0530 O   0  0  0  0  0  1  0  0  0  0  0  0
  187.0310  175.6070  136.8640 C   0  0  2  0  0  3  0  0  0  0  0  0
  186.0430  173.3690  137.5250 C   0  0  0  0  0  2  0  0  0  0  0  0
  184.6190  172.8350  137.5940 C   0  0  0  0  0  1  0  0  0  0  0  0
  1 20  1  6  0  0  0
  2 17  1  0  0  0  0
  3  8  1  0  0  0  0
  4 15  1  0  0  0  0
  4  3  2  0  0  0  0
  5 14  1  0  0  0  0
  6 13  2  0  0  0  0
  7  1  1  0  0  0  0
  8 10  2  0  0  0  0
  9  2  2  0  0  0  0
  9  6  1  0  0  0  0
 10  9  1  0  0  0  0
 11 18  2  0  0  0  0
 12  1  1  0  0  0  0
 13  5  1  0  0  0  0
 13  7  1  0  0  0  0
 14 12  1  0  0  0  0
 15 16  2  0  0  0  0
 16 11  1  0  0  0  0
 16 10  1  0  0  0  0
 17  5  2  0  0  0  0
 18  2  1  0  0  0  0
 19 21  1  0  0  0  0
 20 19  2  0  0  0  0
 21 23  1  0  0  0  0
 22 21  1  0  0  0  0
 24 11  1  0  0  0  0
 25 30  1  0  0  0  0
 25 31  1  1  0  0  0
 26 30  1  0  0  0  0
 26 29  1  1  0  0  0
 27 26  1  0  0  0  0
 28 27  1  0  0  0  0
 28 25  1  0  0  0  0
 30 24  1  6  0  0  0
 31 32  1  0  0  0  0
M  END
>  <MODEL>
9

>  <REMARK>
 VINA RESULT:      -6.8      2.967      9.049
  Name = 
  5 active torsions:
  status: ('A' for Active; 'I' for Inactive)
    1  A    between atoms: C_1  and  C_10
    2  A    between atoms: C_2  and  C_24
    3  A    between atoms: C_6  and  C_7
    4  A    between atoms: C_16  and  C_27
    5  A    between atoms: C_27  and  C_32
                            x       y       z     vdW  Elec       q    Type
                         _______ _______ _______ _____ _____    ______ ____

>  <TORSDO>
F 5

$$$$
