=
 OpenBabel10252415103D

 34 39  0  0  1  0  0  0  0  0999 V2000
  188.0260  177.3550  145.2750 C   0  0  0  0  0  0  0  0  0  0  0  0
  189.8970  176.9830  143.6100 C   0  0  2  0  0  3  0  0  0  0  0  0
  187.5600  177.8410  142.9190 C   0  0  0  0  0  0  0  0  0  0  0  0
  187.0200  178.5050  140.6680 N   0  0  1  0  0  0  0  0  0  0  0  0
  190.3530  177.5030  146.0650 C   0  0  0  0  0  2  0  0  0  0  0  0
  190.8310  176.7840  144.8150 C   0  0  0  0  0  2  0  0  0  0  0  0
  189.2110  177.8200  141.0420 N   0  0  0  0  0  0  0  0  0  0  0  0
  188.4690  177.4100  143.9350 C   0  0  0  0  0  0  0  0  0  0  0  0
  187.7060  178.4510  139.4850 O   0  0  0  0  0  0  0  0  0  0  0  0
  188.9570  177.0100  146.3930 C   0  0  0  0  0  2  0  0  0  0  0  0
  186.1890  178.0800  143.2590 C   0  0  0  0  0  0  0  0  0  0  0  0
  186.7000  177.6160  145.5930 C   0  0  0  0  0  3  0  0  0  0  0  0
  189.8720  175.7930  142.8800 O   0  0  0  0  0  1  0  0  0  0  0  0
  185.5860  178.4030  140.8390 C   0  0  0  0  0  2  0  0  0  0  0  0
  185.2490  178.3940  142.3130 C   0  0  1  0  0  3  0  0  0  0  0  0
  189.0130  178.0650  139.7820 C   0  0  0  0  0  0  0  0  0  0  0  0
  187.9370  178.0620  141.6420 C   0  0  2  0  0  3  0  0  0  0  0  0
  185.7950  177.9560  144.5990 C   0  0  0  0  0  3  0  0  0  0  0  0
  181.5110  178.8450  141.9870 C   0  0  0  0  0  0  0  0  0  0  0  0
  181.1480  179.0810  143.3160 C   0  0  0  0  0  3  0  0  0  0  0  0
  183.8330  178.6310  142.6570 C   0  0  0  0  0  0  0  0  0  0  0  0
  182.1220  179.0880  144.3160 C   0  0  0  0  0  3  0  0  0  0  0  0
  182.8500  178.6200  141.6580 C   0  0  0  0  0  3  0  0  0  0  0  0
  183.4640  178.8640  143.9880 C   0  0  0  0  0  3  0  0  0  0  0  0
  180.2880  178.8310  140.7350 Cl  0  0  0  0  0  0  0  0  0  0  0  0
  190.7240  176.8270  138.6960 C   0  0  0  0  0  3  0  0  0  0  0  0
  190.0420  177.9180  138.8050 N   0  0  0  0  0  0  0  0  0  0  0  0
  193.5600  177.1020  139.3600 N   0  0  0  0  0  1  0  0  0  0  0  0
  191.8100  176.7410  137.6790 C   0  0  1  0  0  3  0  0  0  0  0  0
  193.1090  176.2100  138.3070 C   0  0  1  0  0  3  0  0  0  0  0  0
  193.7510  175.1400  136.2750 C   0  0  0  0  0  2  0  0  0  0  0  0
  192.5160  175.6550  135.5380 C   0  0  0  0  0  2  0  0  0  0  0  0
  191.3730  175.8260  136.5340 C   0  0  0  0  0  2  0  0  0  0  0  0
  194.1620  176.1000  137.2970 N   0  0  0  0  0  2  0  0  0  0  0  0
  1 12  1  0  0  0  0
  1 10  1  0  0  0  0
  2 13  1  1  0  0  0
  2  8  1  0  0  0  0
  2  6  1  0  0  0  0
  3 11  2  0  0  0  0
  3  8  1  0  0  0  0
  4 14  1  6  0  0  0
  4 17  1  0  0  0  0
  5 10  1  0  0  0  0
  6  5  1  0  0  0  0
  8  1  2  0  0  0  0
  9 16  1  0  0  0  0
  9  4  1  0  0  0  0
 11 18  1  0  0  0  0
 14 15  1  0  0  0  0
 15 21  1  6  0  0  0
 15 11  1  0  0  0  0
 16  7  2  0  0  0  0
 17  7  1  6  0  0  0
 17  3  1  0  0  0  0
 18 12  2  0  0  0  0
 19 20  1  0  0  0  0
 20 22  2  0  0  0  0
 21 24  2  0  0  0  0
 23 19  2  0  0  0  0
 23 21  1  0  0  0  0
 24 22  1  0  0  0  0
 25 19  1  0  0  0  0
 26 27  2  0  0  0  0
 27 16  1  0  0  0  0
 29 30  1  0  0  0  0
 29 26  1  1  0  0  0
 30 28  1  1  0  0  0
 31 34  1  0  0  0  0
 32 31  1  0  0  0  0
 32 33  1  0  0  0  0
 33 29  1  0  0  0  0
 34 30  1  0  0  0  0
M  END
>  <MODEL>
1

>  <REMARK>
 VINA RESULT:     -11.9      0.000      0.000
  Name = 
  3 active torsions:
  status: ('A' for Active; 'I' for Inactive)
    1  A    between atoms: C_3  and  C_13
    2  A    between atoms: C_12  and  C_28
    3  A    between atoms: N_17  and  C_29
                            x       y       z     vdW  Elec       q    Type
                         _______ _______ _______ _____ _____    ______ ____

>  <TORSDO>
F 3

$$$$
=
 OpenBabel10252415103D

 34 39  0  0  1  0  0  0  0  0999 V2000
  186.3720  177.8640  145.7540 C   0  0  0  0  0  0  0  0  0  0  0  0
  188.4180  177.5240  144.3010 C   0  0  2  0  0  3  0  0  0  0  0  0
  186.1240  178.2290  143.3440 C   0  0  0  0  0  0  0  0  0  0  0  0
  185.7840  178.7750  141.0230 N   0  0  1  0  0  0  0  0  0  0  0  0
  188.5980  178.1640  146.7630 C   0  0  0  0  0  2  0  0  0  0  0  0
  189.2340  177.4220  145.6000 C   0  0  0  0  0  2  0  0  0  0  0  0
  187.9560  178.2200  141.6430 N   0  0  0  0  0  0  0  0  0  0  0  0
  186.9450  177.8880  144.4630 C   0  0  0  0  0  0  0  0  0  0  0  0
  186.5870  178.7090  139.9170 O   0  0  0  0  0  0  0  0  0  0  0  0
  187.2010  177.6130  146.9730 C   0  0  0  0  0  2  0  0  0  0  0  0
  184.7150  178.4110  143.5360 C   0  0  0  0  0  0  0  0  0  0  0  0
  185.0090  178.0680  145.9270 C   0  0  0  0  0  3  0  0  0  0  0  0
  188.5240  176.3060  143.6270 O   0  0  0  0  0  1  0  0  0  0  0  0
  184.3460  178.6040  141.0560 C   0  0  0  0  0  2  0  0  0  0  0  0
  183.8630  178.6370  142.4880 C   0  0  1  0  0  3  0  0  0  0  0  0
  187.8740  178.4040  140.3590 C   0  0  0  0  0  0  0  0  0  0  0  0
  186.6170  178.4190  142.1010 C   0  0  2  0  0  3  0  0  0  0  0  0
  184.1950  178.3200  144.8340 C   0  0  0  0  0  3  0  0  0  0  0  0
  180.2050  179.2590  141.7690 C   0  0  0  0  0  0  0  0  0  0  0  0
  179.6520  179.1450  143.0480 C   0  0  0  0  0  3  0  0  0  0  0  0
  182.4090  178.8130  142.6790 C   0  0  0  0  0  0  0  0  0  0  0  0
  180.4730  178.8610  144.1410 C   0  0  0  0  0  3  0  0  0  0  0  0
  181.5790  179.0930  141.5840 C   0  0  0  0  0  3  0  0  0  0  0  0
  181.8510  178.6960  143.9590 C   0  0  0  0  0  3  0  0  0  0  0  0
  179.1740  179.6100  140.3990 Cl  0  0  0  0  0  0  0  0  0  0  0  0
  189.6400  177.1550  139.3770 C   0  0  0  0  0  3  0  0  0  0  0  0
  189.0030  178.2720  139.4960 N   0  0  0  0  0  0  0  0  0  0  0  0
  192.3700  177.6160  140.3230 N   0  0  0  0  0  1  0  0  0  0  0  0
  190.8320  177.0840  138.4860 C   0  0  1  0  0  3  0  0  0  0  0  0
  192.0810  176.6540  139.2750 C   0  0  1  0  0  3  0  0  0  0  0  0
  192.9920  175.5310  137.3790 C   0  0  0  0  0  2  0  0  0  0  0  0
  191.8200  175.9430  136.4900 C   0  0  0  0  0  2  0  0  0  0  0  0
  190.5680  176.0960  137.3500 C   0  0  0  0  0  2  0  0  0  0  0  0
  193.2420  176.5580  138.3880 N   0  0  0  0  0  2  0  0  0  0  0  0
  1 12  1  0  0  0  0
  1 10  1  0  0  0  0
  2 13  1  1  0  0  0
  2  8  1  0  0  0  0
  2  6  1  0  0  0  0
  3 11  2  0  0  0  0
  3  8  1  0  0  0  0
  4 14  1  6  0  0  0
  4 17  1  0  0  0  0
  5 10  1  0  0  0  0
  6  5  1  0  0  0  0
  8  1  2  0  0  0  0
  9 16  1  0  0  0  0
  9  4  1  0  0  0  0
 11 18  1  0  0  0  0
 14 15  1  0  0  0  0
 15 21  1  6  0  0  0
 15 11  1  0  0  0  0
 16  7  2  0  0  0  0
 17  7  1  6  0  0  0
 17  3  1  0  0  0  0
 18 12  2  0  0  0  0
 19 20  1  0  0  0  0
 20 22  2  0  0  0  0
 21 24  2  0  0  0  0
 23 19  2  0  0  0  0
 23 21  1  0  0  0  0
 24 22  1  0  0  0  0
 25 19  1  0  0  0  0
 26 27  2  0  0  0  0
 27 16  1  0  0  0  0
 29 30  1  0  0  0  0
 29 26  1  1  0  0  0
 30 28  1  1  0  0  0
 31 34  1  0  0  0  0
 32 33  1  0  0  0  0
 32 31  1  0  0  0  0
 33 29  1  0  0  0  0
 34 30  1  0  0  0  0
M  END
>  <MODEL>
2

>  <REMARK>
 VINA RESULT:     -11.3      1.172      1.525
  Name = 
  3 active torsions:
  status: ('A' for Active; 'I' for Inactive)
    1  A    between atoms: C_3  and  C_13
    2  A    between atoms: C_12  and  C_28
    3  A    between atoms: N_17  and  C_29
                            x       y       z     vdW  Elec       q    Type
                         _______ _______ _______ _____ _____    ______ ____

>  <TORSDO>
F 3

$$$$
=
 OpenBabel10252415103D

 34 39  0  0  1  0  0  0  0  0999 V2000
  188.9870  177.1090  145.4730 C   0  0  0  0  0  0  0  0  0  0  0  0
  190.7690  176.4110  143.8140 C   0  0  2  0  0  3  0  0  0  0  0  0
  188.5070  177.4270  143.0910 C   0  0  0  0  0  0  0  0  0  0  0  0
  187.9730  177.9400  140.8000 N   0  0  1  0  0  0  0  0  0  0  0  0
  191.3380  177.0990  146.2030 C   0  0  0  0  0  2  0  0  0  0  0  0
  191.7120  176.2290  145.0140 C   0  0  0  0  0  2  0  0  0  0  0  0
  190.0970  177.0800  141.1940 N   0  0  0  0  0  0  0  0  0  0  0  0
  189.3970  177.0010  144.1250 C   0  0  0  0  0  0  0  0  0  0  0  0
  188.6180  177.7150  139.6130 O   0  0  0  0  0  0  0  0  0  0  0  0
  189.9110  176.7750  146.6000 C   0  0  0  0  0  2  0  0  0  0  0  0
  187.1740  177.8290  143.4330 C   0  0  0  0  0  0  0  0  0  0  0  0
  187.7010  177.5250  145.7890 C   0  0  0  0  0  3  0  0  0  0  0  0
  190.6110  175.1690  143.1960 O   0  0  0  0  0  1  0  0  0  0  0  0
  186.5400  177.9930  141.0050 C   0  0  0  0  0  2  0  0  0  0  0  0
  186.2440  178.1480  142.4800 C   0  0  1  0  0  3  0  0  0  0  0  0
  189.8890  177.2310  139.9210 C   0  0  0  0  0  0  0  0  0  0  0  0
  188.8680  177.4970  141.7920 C   0  0  2  0  0  3  0  0  0  0  0  0
  186.8070  177.8630  144.7850 C   0  0  0  0  0  3  0  0  0  0  0  0
  182.5040  178.6600  142.2820 C   0  0  0  0  0  0  0  0  0  0  0  0
  182.2550  179.3180  143.4900 C   0  0  0  0  0  3  0  0  0  0  0  0
  184.8660  178.5510  142.8260 C   0  0  0  0  0  0  0  0  0  0  0  0
  183.3060  179.5900  144.3680 C   0  0  0  0  0  3  0  0  0  0  0  0
  183.8060  178.2760  141.9510 C   0  0  0  0  0  3  0  0  0  0  0  0
  184.6120  179.2080  144.0370 C   0  0  0  0  0  3  0  0  0  0  0  0
  181.1850  178.3160  141.1850 Cl  0  0  0  0  0  0  0  0  0  0  0  0
  190.8240  175.7910  138.2790 C   0  0  0  0  0  3  0  0  0  0  0  0
  190.8730  176.8980  138.9420 N   0  0  0  0  0  0  0  0  0  0  0  0
  190.2780  174.7410  135.6030 N   0  0  0  0  0  1  0  0  0  0  0  0
  191.8970  175.4810  137.2930 C   0  0  1  0  0  3  0  0  0  0  0  0
  191.3830  175.6500  135.8530 C   0  0  1  0  0  3  0  0  0  0  0  0
  193.5320  176.3360  135.0790 C   0  0  0  0  0  2  0  0  0  0  0  0
  194.1580  176.1560  136.4610 C   0  0  0  0  0  2  0  0  0  0  0  0
  193.0960  176.4000  137.5290 C   0  0  0  0  0  2  0  0  0  0  0  0
  192.4500  175.3720  134.8900 N   0  0  0  0  0  2  0  0  0  0  0  0
  1 12  1  0  0  0  0
  1 10  1  0  0  0  0
  2 13  1  1  0  0  0
  2  8  1  0  0  0  0
  2  6  1  0  0  0  0
  3 11  2  0  0  0  0
  3  8  1  0  0  0  0
  4 14  1  6  0  0  0
  4 17  1  0  0  0  0
  5 10  1  0  0  0  0
  6  5  1  0  0  0  0
  8  1  2  0  0  0  0
  9 16  1  0  0  0  0
  9  4  1  0  0  0  0
 11 18  1  0  0  0  0
 14 15  1  0  0  0  0
 15 21  1  1  0  0  0
 15 11  1  0  0  0  0
 16  7  2  0  0  0  0
 17  7  1  6  0  0  0
 17  3  1  0  0  0  0
 18 12  2  0  0  0  0
 19 20  1  0  0  0  0
 20 22  2  0  0  0  0
 21 24  2  0  0  0  0
 23 19  2  0  0  0  0
 23 21  1  0  0  0  0
 24 22  1  0  0  0  0
 25 19  1  0  0  0  0
 26 27  2  0  0  0  0
 27 16  1  0  0  0  0
 29 33  1  0  0  0  0
 29 26  1  1  0  0  0
 30 28  1  6  0  0  0
 30 29  1  0  0  0  0
 31 32  1  0  0  0  0
 32 33  1  0  0  0  0
 34 31  1  0  0  0  0
 34 30  1  0  0  0  0
M  END
>  <MODEL>
3

>  <REMARK>
 VINA RESULT:     -10.8      1.332      1.667
  Name = 
  3 active torsions:
  status: ('A' for Active; 'I' for Inactive)
    1  A    between atoms: C_3  and  C_13
    2  A    between atoms: C_12  and  C_28
    3  A    between atoms: N_17  and  C_29
                            x       y       z     vdW  Elec       q    Type
                         _______ _______ _______ _____ _____    ______ ____

>  <TORSDO>
F 3

$$$$
=
 OpenBabel10252415103D

 34 39  0  0  1  0  0  0  0  0999 V2000
  186.2150  178.4420  140.2820 C   0  0  0  0  0  0  0  0  0  0  0  0
  188.0450  178.3230  138.5360 C   0  0  2  0  0  3  0  0  0  0  0  0
  188.4730  177.8700  141.0430 C   0  0  0  0  0  0  0  0  0  0  0  0
  190.6030  177.1440  141.9000 N   0  0  1  0  0  0  0  0  0  0  0  0
  185.5940  177.9210  137.9570 C   0  0  0  0  0  2  0  0  0  0  0  0
  186.9400  178.4360  137.4740 C   0  0  0  0  0  2  0  0  0  0  0  0
  190.4630  177.4310  139.5960 N   0  0  0  0  0  0  0  0  0  0  0  0
  187.5750  178.2000  139.9810 C   0  0  0  0  0  0  0  0  0  0  0  0
  191.8360  176.9750  141.3270 O   0  0  0  0  0  0  0  0  0  0  0  0
  185.2090  178.6930  139.2040 C   0  0  0  0  0  2  0  0  0  0  0  0
  188.0080  177.9210  142.3980 C   0  0  0  0  0  0  0  0  0  0  0  0
  185.7740  178.4620  141.5980 C   0  0  0  0  0  3  0  0  0  0  0  0
  188.8800  179.4350  138.4120 O   0  0  0  0  0  1  0  0  0  0  0  0
  190.3340  177.5290  143.2700 C   0  0  0  0  0  2  0  0  0  0  0  0
  188.8470  177.7170  143.4620 C   0  0  1  0  0  3  0  0  0  0  0  0
  191.6760  177.1300  139.9510 C   0  0  0  0  0  0  0  0  0  0  0  0
  189.7490  177.4820  140.8320 C   0  0  2  0  0  3  0  0  0  0  0  0
  186.6610  178.2220  142.6370 C   0  0  0  0  0  3  0  0  0  0  0  0
  186.5750  178.0430  146.4650 C   0  0  0  0  0  0  0  0  0  0  0  0
  187.4880  177.8980  147.5140 C   0  0  0  0  0  3  0  0  0  0  0  0
  188.3750  177.7790  144.8600 C   0  0  0  0  0  0  0  0  0  0  0  0
  188.8400  177.6890  147.2400 C   0  0  0  0  0  3  0  0  0  0  0  0
  187.0170  177.9840  145.1410 C   0  0  0  0  0  3  0  0  0  0  0  0
  189.2860  177.6310  145.9140 C   0  0  0  0  0  3  0  0  0  0  0  0
  184.8790  178.2990  146.8100 Cl  0  0  0  0  0  0  0  0  0  0  0  0
  192.7010  176.1300  138.0550 C   0  0  0  0  0  3  0  0  0  0  0  0
  192.7380  177.0030  139.0070 N   0  0  0  0  0  0  0  0  0  0  0  0
  195.2340  174.8620  138.7830 N   0  0  0  0  0  1  0  0  0  0  0  0
  193.8540  176.0200  137.1180 C   0  0  1  0  0  3  0  0  0  0  0  0
  194.7010  174.7760  137.4360 C   0  0  1  0  0  3  0  0  0  0  0  0
  195.2860  174.4870  135.1420 C   0  0  0  0  0  2  0  0  0  0  0  0
  194.5120  175.7350  134.7210 C   0  0  0  0  0  2  0  0  0  0  0  0
  193.3430  175.9480  135.6780 C   0  0  0  0  0  2  0  0  0  0  0  0
  195.8150  174.6570  136.4940 N   0  0  0  0  0  2  0  0  0  0  0  0
  1 12  1  0  0  0  0
  2 13  1  1  0  0  0
  2  8  1  0  0  0  0
  3 11  2  0  0  0  0
  4 14  1  1  0  0  0
  5 10  1  0  0  0  0
  6  5  1  0  0  0  0
  6  2  1  0  0  0  0
  7 16  2  0  0  0  0
  8  1  2  0  0  0  0
  8  3  1  0  0  0  0
  9  4  1  0  0  0  0
 10  1  1  0  0  0  0
 11 18  1  0  0  0  0
 11 15  1  0  0  0  0
 12 18  2  0  0  0  0
 14 15  1  0  0  0  0
 15 21  1  1  0  0  0
 16  9  1  0  0  0  0
 17  7  1  1  0  0  0
 17  3  1  0  0  0  0
 17  4  1  0  0  0  0
 19 25  1  0  0  0  0
 19 20  1  0  0  0  0
 21 23  1  0  0  0  0
 21 24  2  0  0  0  0
 22 20  2  0  0  0  0
 23 19  2  0  0  0  0
 24 22  1  0  0  0  0
 26 27  2  0  0  0  0
 27 16  1  0  0  0  0
 29 30  1  0  0  0  0
 29 26  1  1  0  0  0
 30 28  1  1  0  0  0
 31 34  1  0  0  0  0
 32 31  1  0  0  0  0
 32 33  1  0  0  0  0
 33 29  1  0  0  0  0
 34 30  1  0  0  0  0
M  END
>  <MODEL>
4

>  <REMARK>
 VINA RESULT:     -10.6      2.465      4.956
  Name = 
  3 active torsions:
  status: ('A' for Active; 'I' for Inactive)
    1  A    between atoms: C_3  and  C_13
    2  A    between atoms: C_12  and  C_28
    3  A    between atoms: N_17  and  C_29
                            x       y       z     vdW  Elec       q    Type
                         _______ _______ _______ _____ _____    ______ ____

>  <TORSDO>
F 3

$$$$
=
 OpenBabel10252415103D

 34 39  0  0  1  0  0  0  0  0999 V2000
  184.2650  178.6240  144.8110 C   0  0  0  0  0  0  0  0  0  0  0  0
  186.6720  177.9630  144.3860 C   0  0  2  0  0  3  0  0  0  0  0  0
  185.0310  178.5670  142.4850 C   0  0  0  0  0  0  0  0  0  0  0  0
  185.6950  178.7060  140.1740 N   0  0  1  0  0  0  0  0  0  0  0  0
  185.9270  179.0210  146.5840 C   0  0  0  0  0  2  0  0  0  0  0  0
  186.8920  178.0640  145.9040 C   0  0  0  0  0  2  0  0  0  0  0  0
  187.3750  178.1950  141.6990 N   0  0  0  0  0  0  0  0  0  0  0  0
  185.3020  178.4000  143.8780 C   0  0  0  0  0  0  0  0  0  0  0  0
  186.8600  178.4190  139.5140 O   0  0  0  0  0  0  0  0  0  0  0  0
  184.5130  178.5640  146.2850 C   0  0  0  0  0  2  0  0  0  0  0  0
  183.6880  178.8280  142.0560 C   0  0  0  0  0  0  0  0  0  0  0  0
  182.9740  178.9020  144.3820 C   0  0  0  0  0  3  0  0  0  0  0  0
  186.9110  176.6430  144.0010 O   0  0  0  0  0  1  0  0  0  0  0  0
  184.3530  178.5930  139.6420 C   0  0  0  0  0  2  0  0  0  0  0  0
  183.3480  178.8950  140.7310 C   0  0  1  0  0  3  0  0  0  0  0  0
  187.8270  178.1520  140.4830 C   0  0  0  0  0  0  0  0  0  0  0  0
  185.9920  178.5170  141.5380 C   0  0  2  0  0  3  0  0  0  0  0  0
  182.6900  178.9850  143.0270 C   0  0  0  0  0  3  0  0  0  0  0  0
  180.3570  180.5220  139.0910 C   0  0  0  0  0  0  0  0  0  0  0  0
  179.3370  179.6330  139.4410 C   0  0  0  0  0  3  0  0  0  0  0  0
  181.9640  179.1510  140.2850 C   0  0  0  0  0  0  0  0  0  0  0  0
  179.6270  178.5030  140.2080 C   0  0  0  0  0  3  0  0  0  0  0  0
  181.6680  180.2820  139.5110 C   0  0  0  0  0  3  0  0  0  0  0  0
  180.9390  178.2610  140.6310 C   0  0  0  0  0  3  0  0  0  0  0  0
  179.9920  181.9350  138.1260 Cl  0  0  0  0  0  0  0  0  0  0  0  0
  189.5710  176.6120  140.0000 C   0  0  0  0  0  3  0  0  0  0  0  0
  189.1860  177.8310  140.1840 N   0  0  0  0  0  0  0  0  0  0  0  0
  190.4680  174.8070  137.8800 N   0  0  0  0  0  1  0  0  0  0  0  0
  191.0080  176.3330  139.7240 C   0  0  1  0  0  3  0  0  0  0  0  0
  191.2250  175.9930  138.2400 C   0  0  1  0  0  3  0  0  0  0  0  0
  193.4030  176.9640  138.2510 C   0  0  0  0  0  2  0  0  0  0  0  0
  193.3130  177.3070  139.7360 C   0  0  0  0  0  2  0  0  0  0  0  0
  191.8520  177.5480  140.1080 C   0  0  0  0  0  2  0  0  0  0  0  0
  192.6420  175.7480  137.9700 N   0  0  0  0  0  2  0  0  0  0  0  0
  1 10  1  0  0  0  0
  2 13  1  1  0  0  0
  2  6  1  0  0  0  0
  3  8  1  0  0  0  0
  4 14  1  6  0  0  0
  4 17  1  0  0  0  0
  6  5  1  0  0  0  0
  8  2  1  0  0  0  0
  8  1  2  0  0  0  0
  9  4  1  0  0  0  0
  9 16  1  0  0  0  0
 10  5  1  0  0  0  0
 11  3  2  0  0  0  0
 11 18  1  0  0  0  0
 12  1  1  0  0  0  0
 14 15  1  0  0  0  0
 15 21  1  1  0  0  0
 15 11  1  0  0  0  0
 16  7  2  0  0  0  0
 17  7  1  6  0  0  0
 17  3  1  0  0  0  0
 18 12  2  0  0  0  0
 19 20  2  0  0  0  0
 19 23  1  0  0  0  0
 20 22  1  0  0  0  0
 21 24  1  0  0  0  0
 22 24  2  0  0  0  0
 23 21  2  0  0  0  0
 25 19  1  0  0  0  0
 26 27  2  0  0  0  0
 27 16  1  0  0  0  0
 29 26  1  6  0  0  0
 29 33  1  0  0  0  0
 30 28  1  1  0  0  0
 30 29  1  0  0  0  0
 31 32  1  0  0  0  0
 32 33  1  0  0  0  0
 34 30  1  0  0  0  0
 34 31  1  0  0  0  0
M  END
>  <MODEL>
5

>  <REMARK>
 VINA RESULT:     -10.2      1.982      3.280
  Name = 
  3 active torsions:
  status: ('A' for Active; 'I' for Inactive)
    1  A    between atoms: C_3  and  C_13
    2  A    between atoms: C_12  and  C_28
    3  A    between atoms: N_17  and  C_29
                            x       y       z     vdW  Elec       q    Type
                         _______ _______ _______ _____ _____    ______ ____

>  <TORSDO>
F 3

$$$$
=
 OpenBabel10252415103D

 34 39  0  0  1  0  0  0  0  0999 V2000
  184.8700  178.6400  144.8560 C   0  0  0  0  0  0  0  0  0  0  0  0
  184.8710  178.7000  142.3250 C   0  0  2  0  0  3  0  0  0  0  0  0
  186.9380  178.0020  143.7080 C   0  0  0  0  0  0  0  0  0  0  0  0
  188.9770  177.2020  142.7070 N   0  0  1  0  0  0  0  0  0  0  0  0
  182.7330  178.3500  143.6690 C   0  0  0  0  0  2  0  0  0  0  0  0
  183.3510  178.9140  142.4010 C   0  0  0  0  0  2  0  0  0  0  0  0
  187.2440  177.7150  141.2440 N   0  0  0  0  0  0  0  0  0  0  0  0
  185.5770  178.4330  143.6500 C   0  0  0  0  0  0  0  0  0  0  0  0
  189.4060  177.0940  141.4110 O   0  0  0  0  0  0  0  0  0  0  0  0
  183.4160  178.9920  144.8600 C   0  0  0  0  0  2  0  0  0  0  0  0
  187.5950  177.9170  144.9800 C   0  0  0  0  0  0  0  0  0  0  0  0
  185.5130  178.5270  146.0820 C   0  0  0  0  0  3  0  0  0  0  0  0
  185.4360  179.8210  141.7150 O   0  0  0  0  0  1  0  0  0  0  0  0
  189.8030  177.4480  143.8710 C   0  0  0  0  0  2  0  0  0  0  0  0
  188.9260  177.6110  145.0910 C   0  0  1  0  0  3  0  0  0  0  0  0
  188.3160  177.3840  140.5910 C   0  0  0  0  0  0  0  0  0  0  0  0
  187.6420  177.6410  142.6140 C   0  0  2  0  0  3  0  0  0  0  0  0
  186.8560  178.1880  146.1390 C   0  0  0  0  0  3  0  0  0  0  0  0
  191.3850  176.6500  147.7950 C   0  0  0  0  0  0  0  0  0  0  0  0
  190.9010  177.3890  148.8780 C   0  0  0  0  0  3  0  0  0  0  0  0
  189.6090  177.5330  146.3970 C   0  0  0  0  0  0  0  0  0  0  0  0
  189.7780  178.2020  148.7240 C   0  0  0  0  0  3  0  0  0  0  0  0
  190.7410  176.7210  146.5570 C   0  0  0  0  0  3  0  0  0  0  0  0
  189.1300  178.2750  147.4850 C   0  0  0  0  0  3  0  0  0  0  0  0
  192.7970  175.6350  147.9890 Cl  0  0  0  0  0  0  0  0  0  0  0  0
  188.9200  178.3010  138.4840 C   0  0  0  0  0  3  0  0  0  0  0  0
  188.3630  177.3550  139.1650 N   0  0  0  0  0  0  0  0  0  0  0  0
  190.8630  176.7500  136.9420 N   0  0  0  0  0  1  0  0  0  0  0  0
  188.9100  178.2350  136.9950 C   0  0  1  0  0  3  0  0  0  0  0  0
  189.4870  176.8970  136.5030 C   0  0  1  0  0  3  0  0  0  0  0  0
  188.0570  176.8890  134.5940 C   0  0  0  0  0  2  0  0  0  0  0  0
  187.4480  178.2400  134.9640 C   0  0  0  0  0  2  0  0  0  0  0  0
  187.4800  178.4060  136.4810 C   0  0  0  0  0  2  0  0  0  0  0  0
  189.4470  176.8260  135.0420 N   0  0  0  0  0  2  0  0  0  0  0  0
  1 10  1  0  0  0  0
  1 12  1  0  0  0  0
  2 13  1  1  0  0  0
  2  6  1  0  0  0  0
  2  8  1  0  0  0  0
  3 11  2  0  0  0  0
  4 14  1  1  0  0  0
  5 10  1  0  0  0  0
  6  5  1  0  0  0  0
  8  3  1  0  0  0  0
  8  1  2  0  0  0  0
  9  4  1  0  0  0  0
 11 15  1  0  0  0  0
 11 18  1  0  0  0  0
 12 18  2  0  0  0  0
 14 15  1  0  0  0  0
 15 21  1  1  0  0  0
 16  7  2  0  0  0  0
 16  9  1  0  0  0  0
 17  7  1  6  0  0  0
 17  4  1  0  0  0  0
 17  3  1  0  0  0  0
 19 25  1  0  0  0  0
 19 20  1  0  0  0  0
 21 23  1  0  0  0  0
 21 24  2  0  0  0  0
 22 20  2  0  0  0  0
 23 19  2  0  0  0  0
 24 22  1  0  0  0  0
 26 27  2  0  0  0  0
 27 16  1  0  0  0  0
 29 26  1  1  0  0  0
 30 28  1  6  0  0  0
 30 29  1  0  0  0  0
 31 32  1  0  0  0  0
 31 34  1  0  0  0  0
 32 33  1  0  0  0  0
 33 29  1  0  0  0  0
 34 30  1  0  0  0  0
M  END
>  <MODEL>
6

>  <REMARK>
 VINA RESULT:     -10.1      3.290      6.087
  Name = 
  3 active torsions:
  status: ('A' for Active; 'I' for Inactive)
    1  A    between atoms: C_3  and  C_13
    2  A    between atoms: C_12  and  C_28
    3  A    between atoms: N_17  and  C_29
                            x       y       z     vdW  Elec       q    Type
                         _______ _______ _______ _____ _____    ______ ____

>  <TORSDO>
F 3

$$$$
=
 OpenBabel10252415103D

 34 39  0  0  1  0  0  0  0  0999 V2000
  190.0590  176.9190  140.2530 C   0  0  0  0  0  0  0  0  0  0  0  0
  188.2620  177.5590  138.5880 C   0  0  2  0  0  3  0  0  0  0  0  0
  187.9800  177.8670  141.1370 C   0  0  0  0  0  0  0  0  0  0  0  0
  186.0590  178.9310  142.1250 N   0  0  1  0  0  0  0  0  0  0  0  0
  190.7330  177.5060  137.9590 C   0  0  0  0  0  2  0  0  0  0  0  0
  189.3020  177.3180  137.4830 C   0  0  0  0  0  2  0  0  0  0  0  0
  186.0970  178.8250  139.8020 N   0  0  0  0  0  0  0  0  0  0  0  0
  188.7730  177.4560  140.0210 C   0  0  0  0  0  0  0  0  0  0  0  0
  184.8770  179.3960  141.6120 O   0  0  0  0  0  0  0  0  0  0  0  0
  190.9740  176.5650  139.1240 C   0  0  0  0  0  2  0  0  0  0  0  0
  188.4480  177.6040  142.4660 C   0  0  0  0  0  0  0  0  0  0  0  0
  190.5090  176.6950  141.5470 C   0  0  0  0  0  3  0  0  0  0  0  0
  187.2150  176.6540  138.4020 O   0  0  0  0  0  1  0  0  0  0  0  0
  186.2670  178.3810  143.4480 C   0  0  0  0  0  2  0  0  0  0  0  0
  187.6880  177.8800  143.5720 C   0  0  1  0  0  3  0  0  0  0  0  0
  184.9780  179.3330  140.2220 C   0  0  0  0  0  0  0  0  0  0  0  0
  186.8070  178.5220  141.0040 C   0  0  2  0  0  3  0  0  0  0  0  0
  189.7090  177.0170  142.6330 C   0  0  0  0  0  3  0  0  0  0  0  0
  189.9210  176.9110  146.4630 C   0  0  0  0  0  0  0  0  0  0  0  0
  189.0520  177.0720  147.5450 C   0  0  0  0  0  3  0  0  0  0  0  0
  188.1610  177.6010  144.9430 C   0  0  0  0  0  0  0  0  0  0  0  0
  187.7410  177.5020  147.3310 C   0  0  0  0  0  3  0  0  0  0  0  0
  189.4780  177.1740  145.1650 C   0  0  0  0  0  3  0  0  0  0  0  0
  187.2930  177.7650  146.0310 C   0  0  0  0  0  3  0  0  0  0  0  0
  191.5650  176.3770  146.7340 Cl  0  0  0  0  0  0  0  0  0  0  0  0
  182.7250  179.3620  139.4690 C   0  0  0  0  0  3  0  0  0  0  0  0
  183.9470  179.7550  139.3300 N   0  0  0  0  0  0  0  0  0  0  0  0
  180.2130  177.9300  139.0270 N   0  0  0  0  0  1  0  0  0  0  0  0
  181.6970  179.8080  138.4880 C   0  0  1  0  0  3  0  0  0  0  0  0
  180.2890  179.3770  138.9340 C   0  0  1  0  0  3  0  0  0  0  0  0
  179.2940  181.3030  137.9420 C   0  0  0  0  0  2  0  0  0  0  0  0
  180.6360  181.8020  137.4100 C   0  0  0  0  0  2  0  0  0  0  0  0
  181.7520  181.3290  138.3380 C   0  0  0  0  0  2  0  0  0  0  0  0
  179.2810  179.8430  137.9810 N   0  0  0  0  0  2  0  0  0  0  0  0
  1 12  1  0  0  0  0
  2 13  1  1  0  0  0
  2  8  1  0  0  0  0
  3 11  2  0  0  0  0
  4 14  1  1  0  0  0
  5 10  1  0  0  0  0
  6  5  1  0  0  0  0
  6  2  1  0  0  0  0
  7 16  2  0  0  0  0
  8  1  2  0  0  0  0
  8  3  1  0  0  0  0
  9  4  1  0  0  0  0
 10  1  1  0  0  0  0
 11 18  1  0  0  0  0
 11 15  1  0  0  0  0
 12 18  2  0  0  0  0
 14 15  1  0  0  0  0
 15 21  1  1  0  0  0
 16  9  1  0  0  0  0
 17  7  1  6  0  0  0
 17  3  1  0  0  0  0
 17  4  1  0  0  0  0
 19 25  1  0  0  0  0
 19 20  1  0  0  0  0
 21 23  1  0  0  0  0
 21 24  2  0  0  0  0
 22 20  2  0  0  0  0
 23 19  2  0  0  0  0
 24 22  1  0  0  0  0
 27 26  2  0  0  0  0
 27 16  1  0  0  0  0
 29 30  1  0  0  0  0
 29 26  1  1  0  0  0
 30 28  1  6  0  0  0
 31 34  1  0  0  0  0
 32 31  1  0  0  0  0
 32 33  1  0  0  0  0
 33 29  1  0  0  0  0
 34 30  1  0  0  0  0
M  END
>  <MODEL>
7

>  <REMARK>
 VINA RESULT:     -10.0      3.800      8.175
  Name = 
  3 active torsions:
  status: ('A' for Active; 'I' for Inactive)
    1  A    between atoms: C_3  and  C_13
    2  A    between atoms: C_12  and  C_28
    3  A    between atoms: N_17  and  C_29
                            x       y       z     vdW  Elec       q    Type
                         _______ _______ _______ _____ _____    ______ ____

>  <TORSDO>
F 3

$$$$
=
 OpenBabel10252415103D

 34 39  0  0  1  0  0  0  0  0999 V2000
  185.9130  178.1710  144.3140 C   0  0  0  0  0  0  0  0  0  0  0  0
  188.1610  177.2480  143.6000 C   0  0  2  0  0  3  0  0  0  0  0  0
  186.4330  178.1800  141.9200 C   0  0  0  0  0  0  0  0  0  0  0  0
  186.8790  178.3940  139.5630 N   0  0  1  0  0  0  0  0  0  0  0  0
  187.7790  178.2370  145.9190 C   0  0  0  0  0  2  0  0  0  0  0  0
  188.5400  177.2170  145.0890 C   0  0  0  0  0  2  0  0  0  0  0  0
  188.6200  177.5760  140.8710 N   0  0  0  0  0  0  0  0  0  0  0  0
  186.8160  177.8850  143.2650 C   0  0  0  0  0  0  0  0  0  0  0  0
  187.9270  178.0110  138.7680 O   0  0  0  0  0  0  0  0  0  0  0  0
  186.2950  177.9790  145.7480 C   0  0  0  0  0  2  0  0  0  0  0  0
  185.1000  178.6330  141.6520 C   0  0  0  0  0  0  0  0  0  0  0  0
  184.6340  178.6350  144.0400 C   0  0  0  0  0  3  0  0  0  0  0  0
  188.1870  175.9380  143.1190 O   0  0  0  0  0  1  0  0  0  0  0  0
  185.4880  178.4850  139.1720 C   0  0  0  0  0  2  0  0  0  0  0  0
  184.6430  178.8330  140.3760 C   0  0  1  0  0  3  0  0  0  0  0  0
  188.9420  177.5610  139.6120 C   0  0  0  0  0  0  0  0  0  0  0  0
  187.2820  178.0770  140.8750 C   0  0  2  0  0  3  0  0  0  0  0  0
  184.2310  178.8460  142.7300 C   0  0  0  0  0  3  0  0  0  0  0  0
  180.8870  179.2100  140.5570 C   0  0  0  0  0  0  0  0  0  0  0  0
  180.6590  180.1560  139.5540 C   0  0  0  0  0  3  0  0  0  0  0  0
  183.2670  179.2880  140.0940 C   0  0  0  0  0  0  0  0  0  0  0  0
  181.7310  180.6730  138.8240 C   0  0  0  0  0  3  0  0  0  0  0  0
  182.1870  178.7760  140.8270 C   0  0  0  0  0  3  0  0  0  0  0  0
  183.0350  180.2400  139.0920 C   0  0  0  0  0  3  0  0  0  0  0  0
  179.5430  178.5670  141.4740 Cl  0  0  0  0  0  0  0  0  0  0  0  0
  190.3310  175.9940  138.4920 C   0  0  0  0  0  3  0  0  0  0  0  0
  190.2100  177.0960  139.1540 N   0  0  0  0  0  0  0  0  0  0  0  0
  190.8010  173.4770  137.0760 N   0  0  0  0  0  1  0  0  0  0  0  0
  191.6850  175.5400  138.0670 C   0  0  1  0  0  3  0  0  0  0  0  0
  191.5990  174.6600  136.8090 C   0  0  1  0  0  3  0  0  0  0  0  0
  193.7190  175.4240  136.0280 C   0  0  0  0  0  2  0  0  0  0  0  0
  193.9300  176.2990  137.2620 C   0  0  0  0  0  2  0  0  0  0  0  0
  192.5730  176.7540  137.7930 C   0  0  0  0  0  2  0  0  0  0  0  0
  192.9340  174.2420  136.3800 N   0  0  0  0  0  2  0  0  0  0  0  0
  1 10  1  0  0  0  0
  2 13  1  1  0  0  0
  2  6  1  0  0  0  0
  3  8  1  0  0  0  0
  4 14  1  6  0  0  0
  4 17  1  0  0  0  0
  6  5  1  0  0  0  0
  8  2  1  0  0  0  0
  8  1  2  0  0  0  0
  9  4  1  0  0  0  0
  9 16  1  0  0  0  0
 10  5  1  0  0  0  0
 11  3  2  0  0  0  0
 11 18  1  0  0  0  0
 12  1  1  0  0  0  0
 14 15  1  0  0  0  0
 15 21  1  6  0  0  0
 15 11  1  0  0  0  0
 16  7  2  0  0  0  0
 17  7  1  6  0  0  0
 17  3  1  0  0  0  0
 18 12  2  0  0  0  0
 19 23  1  0  0  0  0
 19 25  1  0  0  0  0
 20 19  2  0  0  0  0
 21 23  2  0  0  0  0
 22 24  2  0  0  0  0
 22 20  1  0  0  0  0
 24 21  1  0  0  0  0
 26 27  2  0  0  0  0
 27 16  1  0  0  0  0
 29 26  1  6  0  0  0
 30 28  1  1  0  0  0
 30 29  1  0  0  0  0
 31 34  1  0  0  0  0
 31 32  1  0  0  0  0
 32 33  1  0  0  0  0
 33 29  1  0  0  0  0
 34 30  1  0  0  0  0
M  END
>  <MODEL>
8

>  <REMARK>
 VINA RESULT:      -9.7      1.604      2.464
  Name = 
  3 active torsions:
  status: ('A' for Active; 'I' for Inactive)
    1  A    between atoms: C_3  and  C_13
    2  A    between atoms: C_12  and  C_28
    3  A    between atoms: N_17  and  C_29
                            x       y       z     vdW  Elec       q    Type
                         _______ _______ _______ _____ _____    ______ ____

>  <TORSDO>
F 3

$$$$
=
 OpenBabel10252415103D

 34 39  0  0  1  0  0  0  0  0999 V2000
  188.7940  178.0240  139.3760 C   0  0  0  0  0  0  0  0  0  0  0  0
  186.7130  178.3610  137.9730 C   0  0  2  0  0  3  0  0  0  0  0  0
  186.6690  178.3390  140.5560 C   0  0  0  0  0  0  0  0  0  0  0  0
  184.6820  178.7950  141.8380 N   0  0  1  0  0  0  0  0  0  0  0  0
  189.0350  178.9800  137.1210 C   0  0  0  0  0  2  0  0  0  0  0  0
  187.6430  178.4930  136.7570 C   0  0  0  0  0  2  0  0  0  0  0  0
  184.4690  178.9290  139.5260 N   0  0  0  0  0  0  0  0  0  0  0  0
  187.3990  178.2480  139.3310 C   0  0  0  0  0  0  0  0  0  0  0  0
  183.3720  179.0020  141.4960 O   0  0  0  0  0  0  0  0  0  0  0  0
  189.6260  178.0190  138.1340 C   0  0  0  0  0  2  0  0  0  0  0  0
  187.3390  178.0720  141.7950 C   0  0  0  0  0  0  0  0  0  0  0  0
  189.4330  177.7920  140.5870 C   0  0  0  0  0  3  0  0  0  0  0  0
  185.8930  177.2490  137.7730 O   0  0  0  0  0  1  0  0  0  0  0  0
  185.1680  178.1870  143.0590 C   0  0  0  0  0  2  0  0  0  0  0  0
  186.6710  178.0420  142.9900 C   0  0  1  0  0  3  0  0  0  0  0  0
  183.3200  179.1020  140.1060 C   0  0  0  0  0  0  0  0  0  0  0  0
  185.3680  178.6950  140.6120 C   0  0  2  0  0  3  0  0  0  0  0  0
  188.7140  177.8000  141.7720 C   0  0  0  0  0  3  0  0  0  0  0  0
  189.3660  177.1790  145.4960 C   0  0  0  0  0  0  0  0  0  0  0  0
  188.6460  177.2120  146.6930 C   0  0  0  0  0  3  0  0  0  0  0  0
  187.3550  177.7550  144.2670 C   0  0  0  0  0  0  0  0  0  0  0  0
  187.2840  177.5200  146.6820 C   0  0  0  0  0  3  0  0  0  0  0  0
  188.7230  177.4500  144.2860 C   0  0  0  0  0  3  0  0  0  0  0  0
  186.6370  177.7900  145.4700 C   0  0  0  0  0  3  0  0  0  0  0  0
  191.0740  176.7990  145.5130 Cl  0  0  0  0  0  0  0  0  0  0  0  0
  182.0930  180.1500  138.3620 C   0  0  0  0  0  3  0  0  0  0  0  0
  182.1220  179.3420  139.3690 N   0  0  0  0  0  0  0  0  0  0  0  0
  181.0300  182.8240  137.8350 N   0  0  0  0  0  1  0  0  0  0  0  0
  180.8060  180.3880  137.6510 C   0  0  1  0  0  3  0  0  0  0  0  0
  180.8340  181.7300  136.9010 C   0  0  1  0  0  3  0  0  0  0  0  0
  179.4120  180.8930  135.1790 C   0  0  0  0  0  2  0  0  0  0  0  0
  179.2770  179.5340  135.8630 C   0  0  0  0  0  2  0  0  0  0  0  0
  180.5420  179.2480  136.6670 C   0  0  0  0  0  2  0  0  0  0  0  0
  179.5780  181.9450  136.1800 N   0  0  0  0  0  2  0  0  0  0  0  0
  1 12  1  0  0  0  0
  2 13  1  6  0  0  0
  2  8  1  0  0  0  0
  3 17  1  0  0  0  0
  3 11  2  0  0  0  0
  4 14  1  6  0  0  0
  5 10  1  0  0  0  0
  6  5  1  0  0  0  0
  6  2  1  0  0  0  0
  7 16  2  0  0  0  0
  8  1  2  0  0  0  0
  8  3  1  0  0  0  0
  9  4  1  0  0  0  0
 10  1  1  0  0  0  0
 11 15  1  0  0  0  0
 12 18  2  0  0  0  0
 15 14  1  0  0  0  0
 15 21  1  6  0  0  0
 16  9  1  0  0  0  0
 17  7  1  6  0  0  0
 17  4  1  0  0  0  0
 18 11  1  0  0  0  0
 19 25  1  0  0  0  0
 19 20  1  0  0  0  0
 21 23  1  0  0  0  0
 21 24  2  0  0  0  0
 22 20  2  0  0  0  0
 23 19  2  0  0  0  0
 24 22  1  0  0  0  0
 26 27  2  0  0  0  0
 27 16  1  0  0  0  0
 29 26  1  6  0  0  0
 30 29  1  0  0  0  0
 30 28  1  1  0  0  0
 31 32  1  0  0  0  0
 31 34  1  0  0  0  0
 32 33  1  0  0  0  0
 33 29  1  0  0  0  0
 34 30  1  0  0  0  0
M  END
>  <MODEL>
9

>  <REMARK>
 VINA RESULT:      -9.6      4.229      8.417
  Name = 
  3 active torsions:
  status: ('A' for Active; 'I' for Inactive)
    1  A    between atoms: C_3  and  C_13
    2  A    between atoms: C_12  and  C_28
    3  A    between atoms: N_17  and  C_29
                            x       y       z     vdW  Elec       q    Type
                         _______ _______ _______ _____ _____    ______ ____

>  <TORSDO>
F 3

$$$$
