=
 OpenBabel10262421093D

 32 38  0  0  1  0  0  0  0  0999 V2000
  184.2960  178.0950  142.7800 C   0  0  2  0  0  3  0  0  0  0  0  0
  186.5720  177.9210  141.6850 C   0  0  2  0  0  3  0  0  0  0  0  0
  183.4960  178.6070  143.9960 C   0  0  0  0  0  2  0  0  0  0  0  0
  185.7890  178.4290  142.9000 C   0  0  2  0  0  3  0  0  0  0  0  0
  188.0660  178.2590  141.8550 C   0  0  2  0  0  3  0  0  0  0  0  0
  187.2960  179.3530  137.1120 O   0  0  0  0  0  0  0  0  0  0  0  0
  186.0070  178.5620  140.4070 C   0  0  2  0  0  3  0  0  0  0  0  0
  189.1240  178.1460  138.1450 C   0  0  0  0  0  2  0  0  0  0  0  0
  188.3040  178.4940  139.3880 C   0  0  2  0  0  3  0  0  0  0  0  0
  186.3430  177.8220  144.1950 C   0  0  1  0  0  3  0  0  0  0  0  0
  188.8750  177.8280  140.6310 C   0  0  0  0  0  2  0  0  0  0  0  0
  187.8220  178.1660  144.3590 C   0  0  0  0  0  2  0  0  0  0  0  0
  185.5470  178.2430  145.4390 C   0  0  0  0  0  2  0  0  0  0  0  0
  184.5420  178.1580  140.2520 C   0  0  0  0  0  2  0  0  0  0  0  0
  183.7160  178.6250  141.4580 C   0  0  1  0  0  3  0  0  0  0  0  0
  186.8300  178.1160  139.1930 C   0  0  2  0  0  3  0  0  0  0  0  0
  188.6390  177.6730  143.1570 C   0  0  1  0  0  3  0  0  0  0  0  0
  184.3730  179.1730  145.1170 C   0  0  0  0  0  2  0  0  0  0  0  0
  188.3090  178.4060  136.8690 C   0  0  0  0  0  2  0  0  0  0  0  0
  186.2940  178.7070  137.8700 C   0  0  0  0  0  2  0  0  0  0  0  0
  180.3610  177.1930  140.0670 C   0  0  2  0  0  3  0  0  0  0  0  0
  179.6750  177.8210  142.6010 O   0  0  0  0  0  1  0  0  0  0  0  0
  179.9230  176.4440  138.8190 C   0  0  0  0  0  1  0  0  0  0  0  0
  179.9630  179.6240  140.9900 C   0  0  2  0  0  3  0  0  0  0  0  0
  182.2180  178.3050  141.2890 C   0  0  1  0  0  3  0  0  0  0  0  0
  179.4320  178.4040  140.2320 C   0  0  2  0  0  3  0  0  0  0  0  0
  181.4340  179.6040  141.4550 C   0  0  0  0  0  2  0  0  0  0  0  0
  181.8390  177.5750  139.9920 C   0  0  1  0  0  3  0  0  0  0  0  0
  182.6780  176.3120  139.8180 C   0  0  0  0  0  1  0  0  0  0  0  0
  179.0120  178.6540  141.6910 C   0  0  1  0  0  3  0  0  0  0  0  0
  188.7060  176.1460  143.1250 C   0  0  0  0  0  2  0  0  0  0  0  0
  190.1480  175.6790  143.0800 C   0  0  0  0  0  1  0  0  0  0  0  0
  1  4  1  0  0  0  0
  1  3  1  1  0  0  0
  2  5  1  0  0  0  0
  2  4  1  0  0  0  0
  3 18  1  0  0  0  0
  4 10  1  0  0  0  0
  5 17  1  0  0  0  0
  6 20  1  0  0  0  0
  7  2  1  0  0  0  0
  8  9  1  0  0  0  0
  9 11  1  0  0  0  0
 10 12  1  0  0  0  0
 10 13  1  0  0  0  0
 11  5  1  0  0  0  0
 14  7  1  0  0  0  0
 14 15  1  0  0  0  0
 15  1  1  0  0  0  0
 16  9  1  0  0  0  0
 16  7  1  0  0  0  0
 17 12  1  0  0  0  0
 18 13  1  0  0  0  0
 19  6  1  0  0  0  0
 19  8  1  0  0  0  0
 20 16  1  0  0  0  0
 21 26  1  0  0  0  0
 23 21  1  0  0  0  0
 24 27  1  0  0  0  0
 24 30  1  0  0  0  0
 25 27  1  0  0  0  0
 25 15  1  0  0  0  0
 26 24  1  0  0  0  0
 26 30  1  0  0  0  0
 28 21  1  0  0  0  0
 28 25  1  0  0  0  0
 29 28  1  0  0  0  0
 30 22  1  0  0  0  0
 31 17  1  0  0  0  0
 32 31  1  0  0  0  0
M  END
>  <MODEL>
1

>  <REMARK>
 VINA RESULT:      -9.2      0.000      0.000
  Name = 
  2 active torsions:
  status: ('A' for Active; 'I' for Inactive)
    1  A    between atoms: C_13  and  C_29
    2  A    between atoms: C_16  and  C_27
                            x       y       z     vdW  Elec       q    Type
                         _______ _______ _______ _____ _____    ______ ____

>  <TORSDO>
F 2

$$$$
=
 OpenBabel10262421093D

 32 38  0  0  1  0  0  0  0  0999 V2000
  190.3720  176.9960  140.6540 C   0  0  2  0  0  3  0  0  0  0  0  0
  188.5240  177.2250  138.9380 C   0  0  2  0  0  3  0  0  0  0  0  0
  191.8830  177.1250  140.9320 C   0  0  0  0  0  2  0  0  0  0  0  0
  190.0270  177.3520  139.2020 C   0  0  2  0  0  3  0  0  0  0  0  0
  188.2250  177.5710  137.4670 C   0  0  2  0  0  3  0  0  0  0  0  0
  184.5580  179.8630  139.8290 O   0  0  0  0  0  0  0  0  0  0  0  0
  187.7570  178.1590  139.8880 C   0  0  2  0  0  3  0  0  0  0  0  0
  184.4980  178.5070  137.8240 C   0  0  0  0  0  2  0  0  0  0  0  0
  185.9970  178.4710  138.1200 C   0  0  2  0  0  3  0  0  0  0  0  0
  190.8220  176.4450  138.2540 C   0  0  1  0  0  3  0  0  0  0  0  0
  186.7240  177.5220  137.1790 C   0  0  0  0  0  2  0  0  0  0  0  0
  190.5260  176.7980  136.7970 C   0  0  0  0  0  2  0  0  0  0  0  0
  192.3340  176.4790  138.5230 C   0  0  0  0  0  2  0  0  0  0  0  0
  188.0410  177.7460  141.3320 C   0  0  0  0  0  2  0  0  0  0  0  0
  189.5420  177.8340  141.6400 C   0  0  1  0  0  3  0  0  0  0  0  0
  186.2560  178.0930  139.5850 C   0  0  2  0  0  3  0  0  0  0  0  0
  189.0250  176.6840  136.4980 C   0  0  1  0  0  3  0  0  0  0  0  0
  192.7190  177.4080  139.6790 C   0  0  0  0  0  2  0  0  0  0  0  0
  183.7220  179.0630  139.0280 C   0  0  0  0  0  2  0  0  0  0  0  0
  185.4250  178.9930  140.5260 C   0  0  0  0  0  2  0  0  0  0  0  0
  189.0980  177.1250  145.4530 C   0  0  2  0  0  3  0  0  0  0  0  0
  191.5260  176.0450  144.9780 O   0  0  0  0  0  1  0  0  0  0  0  0
  187.9630  177.2160  146.4600 C   0  0  0  0  0  1  0  0  0  0  0  0
  191.3250  178.4700  145.0620 C   0  0  2  0  0  3  0  0  0  0  0  0
  189.8470  177.5040  143.1130 C   0  0  1  0  0  3  0  0  0  0  0  0
  190.2980  177.8840  146.0360 C   0  0  2  0  0  3  0  0  0  0  0  0
  191.0400  178.3510  143.5510 C   0  0  0  0  0  2  0  0  0  0  0  0
  188.6640  177.6470  144.0830 C   0  0  1  0  0  3  0  0  0  0  0  0
  187.4640  176.8410  143.5940 C   0  0  0  0  0  1  0  0  0  0  0  0
  191.6410  177.1700  145.8030 C   0  0  1  0  0  3  0  0  0  0  0  0
  188.5650  175.2260  136.5340 C   0  0  0  0  0  2  0  0  0  0  0  0
  189.2860  174.4160  135.4730 C   0  0  0  0  0  1  0  0  0  0  0  0
  1  3  1  1  0  0  0
  1 15  1  0  0  0  0
  2  4  1  0  0  0  0
  2  7  1  0  0  0  0
  4  1  1  0  0  0  0
  5  2  1  0  0  0  0
  6 20  1  0  0  0  0
  7 14  1  0  0  0  0
  8  9  1  0  0  0  0
  8 19  1  0  0  0  0
  9 16  1  0  0  0  0
 10 13  1  0  0  0  0
 10  4  1  0  0  0  0
 11  5  1  0  0  0  0
 11  9  1  0  0  0  0
 12 10  1  0  0  0  0
 13 18  1  0  0  0  0
 14 15  1  0  0  0  0
 15 25  1  0  0  0  0
 16  7  1  0  0  0  0
 16 20  1  0  0  0  0
 17 31  1  0  0  0  0
 17 12  1  0  0  0  0
 17  5  1  0  0  0  0
 18  3  1  0  0  0  0
 19  6  1  0  0  0  0
 21 26  1  0  0  0  0
 21 23  1  0  0  0  0
 22 30  1  0  0  0  0
 24 30  1  0  0  0  0
 24 26  1  0  0  0  0
 25 27  1  0  0  0  0
 25 28  1  0  0  0  0
 27 24  1  0  0  0  0
 28 21  1  0  0  0  0
 29 28  1  0  0  0  0
 30 26  1  0  0  0  0
 32 31  1  0  0  0  0
M  END
>  <MODEL>
2

>  <REMARK>
 VINA RESULT:      -8.6      2.904      7.757
  Name = 
  2 active torsions:
  status: ('A' for Active; 'I' for Inactive)
    1  A    between atoms: C_13  and  C_29
    2  A    between atoms: C_16  and  C_27
                            x       y       z     vdW  Elec       q    Type
                         _______ _______ _______ _____ _____    ______ ____

>  <TORSDO>
F 2

$$$$
=
 OpenBabel10262421093D

 32 38  0  0  1  0  0  0  0  0999 V2000
  183.7890  178.3680  141.7450 C   0  0  2  0  0  3  0  0  0  0  0  0
  186.2500  178.0860  141.2210 C   0  0  2  0  0  3  0  0  0  0  0  0
  182.7470  178.9700  142.7100 C   0  0  0  0  0  2  0  0  0  0  0  0
  185.2240  178.6840  142.1880 C   0  0  2  0  0  3  0  0  0  0  0  0
  187.6740  178.4090  141.7120 C   0  0  2  0  0  3  0  0  0  0  0  0
  188.0520  179.2070  136.8640 O   0  0  0  0  0  0  0  0  0  0  0  0
  186.0150  178.6520  139.8110 C   0  0  2  0  0  3  0  0  0  0  0  0
  189.5540  178.0400  138.3620 C   0  0  0  0  0  2  0  0  0  0  0  0
  188.4820  178.4810  139.3580 C   0  0  2  0  0  3  0  0  0  0  0  0
  185.4460  178.1530  143.6100 C   0  0  1  0  0  3  0  0  0  0  0  0
  188.7300  177.8870  140.7360 C   0  0  0  0  0  2  0  0  0  0  0  0
  186.8570  178.4830  144.0930 C   0  0  0  0  0  2  0  0  0  0  0  0
  184.3980  178.6670  144.6090 C   0  0  0  0  0  2  0  0  0  0  0  0
  184.6130  178.2630  139.3440 C   0  0  0  0  0  2  0  0  0  0  0  0
  183.5460  178.8210  140.2960 C   0  0  1  0  0  3  0  0  0  0  0  0
  187.0810  178.1150  138.8490 C   0  0  2  0  0  3  0  0  0  0  0  0
  187.9130  177.9000  143.1430 C   0  0  1  0  0  3  0  0  0  0  0  0
  183.3590  179.5930  143.9690 C   0  0  0  0  0  2  0  0  0  0  0  0
  189.0630  178.2300  136.9190 C   0  0  0  0  0  2  0  0  0  0  0  0
  186.8820  178.6280  137.4060 C   0  0  0  0  0  2  0  0  0  0  0  0
  179.8990  179.2700  138.9770 C   0  0  2  0  0  3  0  0  0  0  0  0
  180.3860  176.6870  138.3610 O   0  0  0  0  0  1  0  0  0  0  0  0
  178.9530  180.4370  138.7460 C   0  0  0  0  0  1  0  0  0  0  0  0
  179.9750  177.2730  140.6890 C   0  0  2  0  0  3  0  0  0  0  0  0
  182.1180  178.5140  139.8040 C   0  0  1  0  0  3  0  0  0  0  0  0
  179.1500  178.2250  139.8170 C   0  0  2  0  0  3  0  0  0  0  0  0
  181.5010  177.4860  140.7500 C   0  0  0  0  0  2  0  0  0  0  0  0
  181.2050  179.7360  139.6210 C   0  0  1  0  0  3  0  0  0  0  0  0
  181.8670  180.7760  138.7230 C   0  0  0  0  0  1  0  0  0  0  0  0
  179.4060  176.7790  139.3580 C   0  0  1  0  0  3  0  0  0  0  0  0
  187.9390  176.3730  143.2180 C   0  0  0  0  0  2  0  0  0  0  0  0
  189.3680  175.8660  143.2190 C   0  0  0  0  0  1  0  0  0  0  0  0
  1  4  1  0  0  0  0
  1  3  1  1  0  0  0
  2  5  1  0  0  0  0
  2  4  1  0  0  0  0
  3 18  1  0  0  0  0
  4 10  1  0  0  0  0
  5 17  1  0  0  0  0
  6 19  1  0  0  0  0
  6 20  1  0  0  0  0
  7  2  1  0  0  0  0
  8  9  1  0  0  0  0
  9 11  1  0  0  0  0
 10 12  1  0  0  0  0
 10 13  1  0  0  0  0
 11  5  1  0  0  0  0
 14  7  1  0  0  0  0
 14 15  1  0  0  0  0
 15  1  1  0  0  0  0
 16  9  1  0  0  0  0
 16  7  1  0  0  0  0
 17 31  1  0  0  0  0
 17 12  1  0  0  0  0
 18 13  1  0  0  0  0
 19  8  1  0  0  0  0
 20 16  1  0  0  0  0
 21 28  1  0  0  0  0
 21 26  1  0  0  0  0
 22 30  1  0  0  0  0
 23 21  1  0  0  0  0
 24 27  1  0  0  0  0
 25 15  1  0  0  0  0
 25 27  1  0  0  0  0
 26 24  1  0  0  0  0
 28 25  1  0  0  0  0
 29 28  1  0  0  0  0
 30 26  1  0  0  0  0
 30 24  1  0  0  0  0
 31 32  1  0  0  0  0
M  END
>  <MODEL>
3

>  <REMARK>
 VINA RESULT:      -8.4      1.347      1.860
  Name = 
  2 active torsions:
  status: ('A' for Active; 'I' for Inactive)
    1  A    between atoms: C_13  and  C_29
    2  A    between atoms: C_16  and  C_27
                            x       y       z     vdW  Elec       q    Type
                         _______ _______ _______ _____ _____    ______ ____

>  <TORSDO>
F 2

$$$$
=
 OpenBabel10262421093D

 32 38  0  0  1  0  0  0  0  0999 V2000
  187.9320  177.7170  140.7100 C   0  0  2  0  0  3  0  0  0  0  0  0
  185.4570  177.9960  140.2570 C   0  0  2  0  0  3  0  0  0  0  0  0
  189.3640  178.0050  140.2140 C   0  0  0  0  0  2  0  0  0  0  0  0
  186.8740  178.2820  139.7520 C   0  0  2  0  0  3  0  0  0  0  0  0
  184.4280  178.5600  139.2590 C   0  0  2  0  0  3  0  0  0  0  0  0
  182.4660  179.8410  143.5940 O   0  0  0  0  0  0  0  0  0  0  0  0
  185.2720  178.6220  141.6480 C   0  0  2  0  0  3  0  0  0  0  0  0
  181.4080  178.8810  141.6390 C   0  0  0  0  0  2  0  0  0  0  0  0
  182.8420  179.0030  141.1260 C   0  0  2  0  0  3  0  0  0  0  0  0
  187.0830  177.6850  138.3540 C   0  0  1  0  0  3  0  0  0  0  0  0
  182.9970  178.3540  139.7590 C   0  0  0  0  0  2  0  0  0  0  0  0
  186.0640  178.2540  137.3690 C   0  0  0  0  0  2  0  0  0  0  0  0
  188.5140  177.8820  137.8300 C   0  0  0  0  0  2  0  0  0  0  0  0
  186.2750  177.9960  142.6150 C   0  0  0  0  0  2  0  0  0  0  0  0
  187.7150  178.2360  142.1410 C   0  0  1  0  0  3  0  0  0  0  0  0
  183.8340  178.4030  142.1320 C   0  0  2  0  0  3  0  0  0  0  0  0
  184.6300  177.9870  137.8460 C   0  0  1  0  0  3  0  0  0  0  0  0
  189.4200  178.6280  138.8150 C   0  0  0  0  0  2  0  0  0  0  0  0
  181.3570  179.0930  143.1600 C   0  0  0  0  0  2  0  0  0  0  0  0
  183.5920  178.9890  143.5410 C   0  0  0  0  0  2  0  0  0  0  0  0
  189.4180  177.0700  145.4540 C   0  0  2  0  0  3  0  0  0  0  0  0
  190.9500  175.8490  143.5970 O   0  0  0  0  0  1  0  0  0  0  0  0
  189.0850  177.1280  146.9370 C   0  0  0  0  0  1  0  0  0  0  0  0
  191.1980  178.2500  143.9190 C   0  0  2  0  0  3  0  0  0  0  0  0
  188.7500  177.6870  143.1410 C   0  0  1  0  0  3  0  0  0  0  0  0
  190.8340  177.6340  145.2740 C   0  0  2  0  0  3  0  0  0  0  0  0
  190.0910  178.3580  142.8510 C   0  0  0  0  0  2  0  0  0  0  0  0
  188.3660  177.8050  144.6240 C   0  0  1  0  0  3  0  0  0  0  0  0
  186.9960  177.1830  144.8780 C   0  0  0  0  0  1  0  0  0  0  0  0
  191.6810  176.8400  144.2640 C   0  0  1  0  0  3  0  0  0  0  0  0
  184.2930  176.4980  137.7710 C   0  0  0  0  0  2  0  0  0  0  0  0
  184.4020  176.0000  136.3420 C   0  0  0  0  0  1  0  0  0  0  0  0
  1  3  1  6  0  0  0
  1 15  1  0  0  0  0
  2  7  1  0  0  0  0
  4  2  1  0  0  0  0
  4  1  1  0  0  0  0
  5 11  1  0  0  0  0
  5  2  1  0  0  0  0
  7 16  1  0  0  0  0
  7 14  1  0  0  0  0
  8 19  1  0  0  0  0
  9  8  1  0  0  0  0
  9 16  1  0  0  0  0
 10  4  1  0  0  0  0
 11  9  1  0  0  0  0
 12 17  1  0  0  0  0
 12 10  1  0  0  0  0
 13 10  1  0  0  0  0
 13 18  1  0  0  0  0
 15 14  1  0  0  0  0
 15 25  1  0  0  0  0
 16 20  1  0  0  0  0
 17  5  1  0  0  0  0
 18  3  1  0  0  0  0
 19  6  1  0  0  0  0
 20  6  1  0  0  0  0
 21 23  1  0  0  0  0
 22 30  1  0  0  0  0
 24 30  1  0  0  0  0
 24 26  1  0  0  0  0
 25 28  1  0  0  0  0
 26 21  1  0  0  0  0
 27 25  1  0  0  0  0
 27 24  1  0  0  0  0
 28 29  1  0  0  0  0
 28 21  1  0  0  0  0
 30 26  1  0  0  0  0
 31 17  1  0  0  0  0
 32 31  1  0  0  0  0
M  END
>  <MODEL>
4

>  <REMARK>
 VINA RESULT:      -8.4      2.241      7.829
  Name = 
  2 active torsions:
  status: ('A' for Active; 'I' for Inactive)
    1  A    between atoms: C_13  and  C_29
    2  A    between atoms: C_16  and  C_27
                            x       y       z     vdW  Elec       q    Type
                         _______ _______ _______ _____ _____    ______ ____

>  <TORSDO>
F 2

$$$$
=
 OpenBabel10262421093D

 32 38  0  0  1  0  0  0  0  0999 V2000
  183.1820  178.2530  141.2760 C   0  0  2  0  0  3  0  0  0  0  0  0
  185.7090  178.1560  141.1300 C   0  0  2  0  0  3  0  0  0  0  0  0
  181.9650  178.8020  142.0480 C   0  0  0  0  0  2  0  0  0  0  0  0
  184.5070  178.7020  141.9070 C   0  0  2  0  0  3  0  0  0  0  0  0
  187.0140  178.6130  141.8080 C   0  0  2  0  0  3  0  0  0  0  0  0
  188.0500  179.2620  137.0340 O   0  0  0  0  0  0  0  0  0  0  0  0
  185.6440  178.6480  139.6760 C   0  0  2  0  0  3  0  0  0  0  0  0
  189.3960  178.2780  138.7900 C   0  0  0  0  0  2  0  0  0  0  0  0
  188.1570  178.6650  139.5960 C   0  0  2  0  0  3  0  0  0  0  0  0
  184.5540  178.2440  143.3710 C   0  0  1  0  0  3  0  0  0  0  0  0
  188.2410  178.1450  141.0230 C   0  0  0  0  0  2  0  0  0  0  0  0
  185.8480  178.7060  144.0370 C   0  0  0  0  0  2  0  0  0  0  0  0
  183.3320  178.7050  144.1800 C   0  0  0  0  0  2  0  0  0  0  0  0
  184.3610  178.1290  139.0280 C   0  0  0  0  0  2  0  0  0  0  0  0
  183.1250  178.6310  139.7860 C   0  0  1  0  0  3  0  0  0  0  0  0
  186.8800  178.1660  138.9070 C   0  0  2  0  0  3  0  0  0  0  0  0
  187.0750  178.1780  143.2820 C   0  0  1  0  0  3  0  0  0  0  0  0
  182.3330  179.5190  143.3510 C   0  0  0  0  0  2  0  0  0  0  0  0
  189.1140  178.3740  137.2830 C   0  0  0  0  0  2  0  0  0  0  0  0
  186.8610  178.6080  137.4270 C   0  0  0  0  0  2  0  0  0  0  0  0
  180.4130  176.4500  138.0170 C   0  0  2  0  0  3  0  0  0  0  0  0
  178.9330  178.5060  138.9510 O   0  0  0  0  0  1  0  0  0  0  0  0
  180.3480  175.0540  137.4180 C   0  0  0  0  0  1  0  0  0  0  0  0
  180.3700  178.8850  137.0220 C   0  0  2  0  0  3  0  0  0  0  0  0
  181.8140  178.1900  139.1070 C   0  0  1  0  0  3  0  0  0  0  0  0
  179.8850  177.4330  136.9630 C   0  0  2  0  0  3  0  0  0  0  0  0
  181.4360  179.2500  138.0740 C   0  0  0  0  0  2  0  0  0  0  0  0
  181.8270  176.7810  138.4950 C   0  0  1  0  0  3  0  0  0  0  0  0
  182.2660  175.7480  139.5270 C   0  0  0  0  0  1  0  0  0  0  0  0
  178.9800  178.5290  137.5510 C   0  0  1  0  0  3  0  0  0  0  0  0
  187.2050  176.6620  143.4330 C   0  0  0  0  0  2  0  0  0  0  0  0
  188.6440  176.2800  143.7260 C   0  0  0  0  0  1  0  0  0  0  0  0
  1  4  1  0  0  0  0
  1  3  1  1  0  0  0
  2  5  1  0  0  0  0
  2  4  1  0  0  0  0
  3 18  1  0  0  0  0
  4 10  1  0  0  0  0
  5 17  1  0  0  0  0
  6 19  1  0  0  0  0
  6 20  1  0  0  0  0
  7  2  1  0  0  0  0
  8  9  1  0  0  0  0
  9 11  1  0  0  0  0
 10 12  1  0  0  0  0
 10 13  1  0  0  0  0
 11  5  1  0  0  0  0
 14  7  1  0  0  0  0
 14 15  1  0  0  0  0
 15  1  1  0  0  0  0
 16  9  1  0  0  0  0
 16  7  1  0  0  0  0
 17 31  1  0  0  0  0
 17 12  1  0  0  0  0
 18 13  1  0  0  0  0
 19  8  1  0  0  0  0
 20 16  1  0  0  0  0
 21 28  1  0  0  0  0
 23 21  1  0  0  0  0
 24 30  1  0  0  0  0
 24 27  1  0  0  0  0
 25 15  1  0  0  0  0
 26 24  1  0  0  0  0
 26 30  1  0  0  0  0
 26 21  1  0  0  0  0
 27 25  1  0  0  0  0
 28 25  1  0  0  0  0
 28 29  1  0  0  0  0
 30 22  1  0  0  0  0
 31 32  1  0  0  0  0
M  END
>  <MODEL>
5

>  <REMARK>
 VINA RESULT:      -8.1      1.492      2.112
  Name = 
  2 active torsions:
  status: ('A' for Active; 'I' for Inactive)
    1  A    between atoms: C_13  and  C_29
    2  A    between atoms: C_16  and  C_27
                            x       y       z     vdW  Elec       q    Type
                         _______ _______ _______ _____ _____    ______ ____

>  <TORSDO>
F 2

$$$$
=
 OpenBabel10262421093D

 32 38  0  0  1  0  0  0  0  0999 V2000
  190.1440  177.0130  143.5050 C   0  0  2  0  0  3  0  0  0  0  0  0
  188.2150  177.6510  145.0170 C   0  0  2  0  0  3  0  0  0  0  0  0
  191.3410  176.0660  143.2890 C   0  0  0  0  0  2  0  0  0  0  0  0
  189.4050  176.7080  144.8160 C   0  0  2  0  0  3  0  0  0  0  0  0
  187.5170  177.3250  146.3510 C   0  0  2  0  0  3  0  0  0  0  0  0
  183.6890  178.0200  143.3250 O   0  0  0  0  0  0  0  0  0  0  0  0
  187.2410  177.5060  143.8370 C   0  0  2  0  0  3  0  0  0  0  0  0
  184.0440  178.8240  145.5810 C   0  0  0  0  0  2  0  0  0  0  0  0
  185.3280  178.0180  145.3860 C   0  0  2  0  0  3  0  0  0  0  0  0
  190.3880  176.8170  145.9890 C   0  0  1  0  0  3  0  0  0  0  0  0
  186.2800  178.2010  146.5590 C   0  0  0  0  0  2  0  0  0  0  0  0
  189.6890  176.4860  147.3070 C   0  0  0  0  0  2  0  0  0  0  0  0
  191.6380  175.9430  145.8030 C   0  0  0  0  0  2  0  0  0  0  0  0
  187.9600  177.8890  142.5450 C   0  0  0  0  0  2  0  0  0  0  0  0
  189.1780  176.9850  142.3080 C   0  0  1  0  0  3  0  0  0  0  0  0
  186.0110  178.3920  144.0630 C   0  0  2  0  0  3  0  0  0  0  0  0
  188.4870  177.4120  147.5400 C   0  0  1  0  0  3  0  0  0  0  0  0
  191.6330  175.1570  144.4880 C   0  0  0  0  0  2  0  0  0  0  0  0
  183.3200  179.0230  144.2410 C   0  0  0  0  0  2  0  0  0  0  0  0
  185.0040  178.3090  142.8960 C   0  0  0  0  0  2  0  0  0  0  0  0
  189.8460  178.2700  138.6830 C   0  0  2  0  0  3  0  0  0  0  0  0
  192.3580  177.9490  139.6170 O   0  0  0  0  0  1  0  0  0  0  0  0
  189.0120  178.8710  137.5630 C   0  0  0  0  0  1  0  0  0  0  0  0
  191.0670  175.9670  139.0380 C   0  0  2  0  0  3  0  0  0  0  0  0
  189.8750  177.2950  140.9690 C   0  0  1  0  0  3  0  0  0  0  0  0
  190.6370  177.0950  138.0940 C   0  0  2  0  0  3  0  0  0  0  0  0
  190.5920  176.0300  140.5040 C   0  0  0  0  0  2  0  0  0  0  0  0
  188.9690  177.8710  139.8700 C   0  0  1  0  0  3  0  0  0  0  0  0
  188.2170  179.0980  140.3770 C   0  0  0  0  0  1  0  0  0  0  0  0
  192.0870  177.0200  138.6040 C   0  0  1  0  0  3  0  0  0  0  0  0
  188.9420  178.8460  147.8140 C   0  0  0  0  0  2  0  0  0  0  0  0
  190.0850  178.8590  148.8100 C   0  0  0  0  0  1  0  0  0  0  0  0
  1  3  1  6  0  0  0
  1  4  1  0  0  0  0
  2  5  1  0  0  0  0
  3 18  1  0  0  0  0
  4  2  1  0  0  0  0
  4 10  1  0  0  0  0
  5 11  1  0  0  0  0
  5 17  1  0  0  0  0
  6 19  1  0  0  0  0
  7 16  1  0  0  0  0
  7  2  1  0  0  0  0
  9  8  1  0  0  0  0
  9 11  1  0  0  0  0
 10 12  1  0  0  0  0
 12 17  1  0  0  0  0
 13 10  1  0  0  0  0
 14  7  1  0  0  0  0
 15 14  1  0  0  0  0
 15  1  1  0  0  0  0
 16  9  1  0  0  0  0
 17 31  1  0  0  0  0
 18 13  1  0  0  0  0
 19  8  1  0  0  0  0
 20  6  1  0  0  0  0
 20 16  1  0  0  0  0
 21 28  1  0  0  0  0
 23 21  1  0  0  0  0
 24 27  1  0  0  0  0
 25 15  1  0  0  0  0
 26 30  1  0  0  0  0
 26 21  1  0  0  0  0
 26 24  1  0  0  0  0
 27 25  1  0  0  0  0
 28 29  1  0  0  0  0
 28 25  1  0  0  0  0
 30 24  1  0  0  0  0
 30 22  1  0  0  0  0
 31 32  1  0  0  0  0
M  END
>  <MODEL>
6

>  <REMARK>
 VINA RESULT:      -7.8      3.098      7.648
  Name = 
  2 active torsions:
  status: ('A' for Active; 'I' for Inactive)
    1  A    between atoms: C_13  and  C_29
    2  A    between atoms: C_16  and  C_27
                            x       y       z     vdW  Elec       q    Type
                         _______ _______ _______ _____ _____    ______ ____

>  <TORSDO>
F 2

$$$$
=
 OpenBabel10262421093D

 32 38  0  0  1  0  0  0  0  0999 V2000
  187.4580  177.9820  142.0040 C   0  0  2  0  0  3  0  0  0  0  0  0
  185.4560  178.4820  143.4720 C   0  0  2  0  0  3  0  0  0  0  0  0
  188.7290  177.1280  141.8220 C   0  0  0  0  0  2  0  0  0  0  0  0
  186.7190  177.6320  143.3030 C   0  0  2  0  0  3  0  0  0  0  0  0
  184.7570  178.1140  144.7940 C   0  0  2  0  0  3  0  0  0  0  0  0
  180.9500  178.4850  141.6870 O   0  0  0  0  0  0  0  0  0  0  0  0
  184.5200  178.2510  142.2740 C   0  0  2  0  0  3  0  0  0  0  0  0
  181.1960  179.3340  143.9410 C   0  0  0  0  0  2  0  0  0  0  0  0
  182.5420  178.6280  143.7790 C   0  0  2  0  0  3  0  0  0  0  0  0
  187.6650  177.8260  144.4950 C   0  0  1  0  0  3  0  0  0  0  0  0
  183.4520  178.8940  144.9690 C   0  0  0  0  0  2  0  0  0  0  0  0
  186.9680  177.4540  145.8020 C   0  0  0  0  0  2  0  0  0  0  0  0
  188.9830  177.0500  144.3420 C   0  0  0  0  0  2  0  0  0  0  0  0
  185.2340  178.6780  140.9920 C   0  0  0  0  0  2  0  0  0  0  0  0
  186.5220  177.8690  140.7890 C   0  0  1  0  0  3  0  0  0  0  0  0
  183.2210  179.0420  142.4670 C   0  0  2  0  0  3  0  0  0  0  0  0
  185.6940  178.2850  146.0020 C   0  0  1  0  0  3  0  0  0  0  0  0
  189.0660  176.2550  143.0360 C   0  0  0  0  0  2  0  0  0  0  0  0
  180.4860  179.4640  142.5850 C   0  0  0  0  0  2  0  0  0  0  0  0
  182.2470  178.8710  141.2800 C   0  0  0  0  0  2  0  0  0  0  0  0
  187.2280  178.3340  136.9780 C   0  0  2  0  0  3  0  0  0  0  0  0
  189.0550  179.9910  138.0760 O   0  0  0  0  0  1  0  0  0  0  0  0
  186.5430  177.9380  135.6800 C   0  0  0  0  0  1  0  0  0  0  0  0
  189.4370  177.5890  138.1970 C   0  0  2  0  0  3  0  0  0  0  0  0
  187.2200  178.2210  139.4610 C   0  0  1  0  0  3  0  0  0  0  0  0
  188.6910  177.8760  136.8900 C   0  0  2  0  0  3  0  0  0  0  0  0
  188.6470  177.6800  139.5180 C   0  0  0  0  0  2  0  0  0  0  0  0
  186.4900  177.7630  138.1890 C   0  0  1  0  0  3  0  0  0  0  0  0
  185.0490  178.2640  138.1830 C   0  0  0  0  0  1  0  0  0  0  0  0
  189.6850  178.9040  137.4570 C   0  0  1  0  0  3  0  0  0  0  0  0
  186.0310  179.7530  146.2700 C   0  0  0  0  0  2  0  0  0  0  0  0
  186.4300  179.9490  147.7200 C   0  0  0  0  0  1  0  0  0  0  0  0
  1  3  1  6  0  0  0
  1  4  1  0  0  0  0
  2  5  1  0  0  0  0
  3 18  1  0  0  0  0
  4  2  1  0  0  0  0
  4 10  1  0  0  0  0
  5 11  1  0  0  0  0
  5 17  1  0  0  0  0
  6 19  1  0  0  0  0
  7 16  1  0  0  0  0
  7  2  1  0  0  0  0
  9  8  1  0  0  0  0
  9 11  1  0  0  0  0
 10 12  1  0  0  0  0
 12 17  1  0  0  0  0
 13 10  1  0  0  0  0
 14  7  1  0  0  0  0
 15 14  1  0  0  0  0
 15  1  1  0  0  0  0
 16  9  1  0  0  0  0
 17 31  1  0  0  0  0
 18 13  1  0  0  0  0
 19  8  1  0  0  0  0
 20  6  1  0  0  0  0
 20 16  1  0  0  0  0
 21 28  1  0  0  0  0
 23 21  1  0  0  0  0
 24 27  1  0  0  0  0
 25 27  1  0  0  0  0
 25 15  1  0  0  0  0
 26 21  1  0  0  0  0
 26 30  1  0  0  0  0
 26 24  1  0  0  0  0
 28 25  1  0  0  0  0
 29 28  1  0  0  0  0
 30 22  1  0  0  0  0
 30 24  1  0  0  0  0
 31 32  1  0  0  0  0
M  END
>  <MODEL>
7

>  <REMARK>
 VINA RESULT:      -7.7      1.557      6.457
  Name = 
  2 active torsions:
  status: ('A' for Active; 'I' for Inactive)
    1  A    between atoms: C_13  and  C_29
    2  A    between atoms: C_16  and  C_27
                            x       y       z     vdW  Elec       q    Type
                         _______ _______ _______ _____ _____    ______ ____

>  <TORSDO>
F 2

$$$$
=
 OpenBabel10262421093D

 32 38  0  0  1  0  0  0  0  0999 V2000
  185.7380  178.0440  143.8750 C   0  0  2  0  0  3  0  0  0  0  0  0
  187.8150  177.6900  142.4710 C   0  0  2  0  0  3  0  0  0  0  0  0
  185.1670  178.5870  145.2010 C   0  0  0  0  0  2  0  0  0  0  0  0
  187.2600  178.2280  143.7930 C   0  0  2  0  0  3  0  0  0  0  0  0
  189.3440  177.8770  142.4380 C   0  0  2  0  0  3  0  0  0  0  0  0
  188.0470  179.2030  137.8730 O   0  0  0  0  0  0  0  0  0  0  0  0
  187.1480  178.4250  141.2970 C   0  0  2  0  0  3  0  0  0  0  0  0
  189.8690  177.7910  138.6150 C   0  0  0  0  0  2  0  0  0  0  0  0
  189.2660  178.1730  139.9670 C   0  0  2  0  0  3  0  0  0  0  0  0
  187.9220  177.5270  144.9850 C   0  0  1  0  0  3  0  0  0  0  0  0
  189.9320  177.4130  141.1040 C   0  0  0  0  0  2  0  0  0  0  0  0
  189.4370  177.7210  144.9490 C   0  0  0  0  0  2  0  0  0  0  0  0
  187.3490  177.9780  146.3370 C   0  0  0  0  0  2  0  0  0  0  0  0
  185.6420  178.1700  141.3390 C   0  0  0  0  0  2  0  0  0  0  0  0
  185.0390  178.6720  142.6580 C   0  0  1  0  0  3  0  0  0  0  0  0
  187.7480  177.9450  139.9710 C   0  0  2  0  0  3  0  0  0  0  0  0
  190.0280  177.1950  143.6350 C   0  0  1  0  0  3  0  0  0  0  0  0
  186.2410  179.0280  146.2010 C   0  0  0  0  0  2  0  0  0  0  0  0
  188.9180  178.1720  137.4710 C   0  0  0  0  0  2  0  0  0  0  0  0
  187.0980  178.6300  138.7490 C   0  0  0  0  0  2  0  0  0  0  0  0
  181.3290  178.2150  141.5320 C   0  0  2  0  0  3  0  0  0  0  0  0
  181.2140  177.4300  144.1120 O   0  0  0  0  0  1  0  0  0  0  0  0
  180.5740  178.2340  140.2120 C   0  0  0  0  0  1  0  0  0  0  0  0
  181.4220  179.8070  143.6240 C   0  0  2  0  0  3  0  0  0  0  0  0
  183.5080  178.5030  142.6930 C   0  0  1  0  0  3  0  0  0  0  0  0
  180.6080  179.1690  142.4930 C   0  0  2  0  0  3  0  0  0  0  0  0
  182.9390  179.5310  143.6680 C   0  0  0  0  0  2  0  0  0  0  0  0
  182.8040  178.5640  141.3290 C   0  0  1  0  0  3  0  0  0  0  0  0
  183.4280  177.5710  140.3540 C   0  0  0  0  0  1  0  0  0  0  0  0
  180.5040  178.6230  143.9280 C   0  0  1  0  0  3  0  0  0  0  0  0
  189.9380  175.6700  143.5620 C   0  0  0  0  0  2  0  0  0  0  0  0
  191.2690  175.0410  143.9260 C   0  0  0  0  0  1  0  0  0  0  0  0
  1  3  1  1  0  0  0
  2  4  1  0  0  0  0
  3 18  1  0  0  0  0
  4  1  1  0  0  0  0
  4 10  1  0  0  0  0
  5  2  1  0  0  0  0
  5 17  1  0  0  0  0
  6 20  1  0  0  0  0
  7 14  1  0  0  0  0
  7  2  1  0  0  0  0
  8  9  1  0  0  0  0
  9 16  1  0  0  0  0
  9 11  1  0  0  0  0
 10 13  1  0  0  0  0
 11  5  1  0  0  0  0
 12 10  1  0  0  0  0
 14 15  1  0  0  0  0
 15 25  1  0  0  0  0
 15  1  1  0  0  0  0
 16  7  1  0  0  0  0
 17 12  1  0  0  0  0
 18 13  1  0  0  0  0
 19  6  1  0  0  0  0
 19  8  1  0  0  0  0
 20 16  1  0  0  0  0
 21 26  1  0  0  0  0
 23 21  1  0  0  0  0
 24 27  1  0  0  0  0
 24 30  1  0  0  0  0
 25 27  1  0  0  0  0
 26 24  1  0  0  0  0
 26 30  1  0  0  0  0
 28 21  1  0  0  0  0
 28 25  1  0  0  0  0
 29 28  1  0  0  0  0
 30 22  1  0  0  0  0
 31 17  1  0  0  0  0
 31 32  1  0  0  0  0
M  END
>  <MODEL>
8

>  <REMARK>
 VINA RESULT:      -7.5      1.271      1.837
  Name = 
  2 active torsions:
  status: ('A' for Active; 'I' for Inactive)
    1  A    between atoms: C_13  and  C_29
    2  A    between atoms: C_16  and  C_27
                            x       y       z     vdW  Elec       q    Type
                         _______ _______ _______ _____ _____    ______ ____

>  <TORSDO>
F 2

$$$$
=
 OpenBabel10262421093D

 32 38  0  0  1  0  0  0  0  0999 V2000
  182.1240  178.4180  139.3280 C   0  0  2  0  0  3  0  0  0  0  0  0
  182.5150  178.6590  141.8180 C   0  0  2  0  0  3  0  0  0  0  0  0
  181.4710  179.0260  138.0700 C   0  0  0  0  0  2  0  0  0  0  0  0
  181.8570  179.2690  140.5770 C   0  0  2  0  0  3  0  0  0  0  0  0
  182.2050  179.5310  143.0490 C   0  0  2  0  0  3  0  0  0  0  0  0
  186.9730  178.4740  143.7090 O   0  0  0  0  0  0  0  0  0  0  0  0
  184.0310  178.5480  141.5920 C   0  0  2  0  0  3  0  0  0  0  0  0
  185.1470  178.4450  145.2990 C   0  0  0  0  0  2  0  0  0  0  0  0
  184.3990  178.9150  144.0510 C   0  0  2  0  0  3  0  0  0  0  0  0
  180.3430  179.4100  140.7800 C   0  0  1  0  0  3  0  0  0  0  0  0
  182.9010  178.9930  144.3010 C   0  0  0  0  0  2  0  0  0  0  0  0
  180.0430  180.2810  141.9990 C   0  0  0  0  0  2  0  0  0  0  0  0
  179.6220  179.9520  139.5360 C   0  0  0  0  0  2  0  0  0  0  0  0
  184.2920  177.6330  140.3960 C   0  0  0  0  0  2  0  0  0  0  0  0
  183.6320  178.1910  139.1270 C   0  0  1  0  0  3  0  0  0  0  0  0
  184.7090  178.0050  142.8550 C   0  0  2  0  0  3  0  0  0  0  0  0
  180.6910  179.7000  143.2630 C   0  0  1  0  0  3  0  0  0  0  0  0
  180.5690  180.2300  138.3640 C   0  0  0  0  0  2  0  0  0  0  0  0
  186.5420  177.9200  144.9290 C   0  0  0  0  0  2  0  0  0  0  0  0
  186.2350  177.8460  142.6810 C   0  0  0  0  0  2  0  0  0  0  0  0
  183.9920  175.1380  136.7220 C   0  0  2  0  0  3  0  0  0  0  0  0
  184.0960  177.2070  134.9920 O   0  0  0  0  0  1  0  0  0  0  0  0
  183.8390  173.6290  136.8340 C   0  0  0  0  0  1  0  0  0  0  0  0
  186.0360  176.7610  136.3940 C   0  0  2  0  0  3  0  0  0  0  0  0
  183.9490  177.3320  137.8880 C   0  0  1  0  0  3  0  0  0  0  0  0
  185.3630  175.4190  136.0900 C   0  0  2  0  0  3  0  0  0  0  0  0
  185.3450  177.7080  137.3960 C   0  0  0  0  0  2  0  0  0  0  0  0
  183.8050  175.8150  138.0790 C   0  0  1  0  0  3  0  0  0  0  0  0
  182.4240  175.4680  138.6290 C   0  0  0  0  0  1  0  0  0  0  0  0
  185.3330  176.5540  135.0520 C   0  0  1  0  0  3  0  0  0  0  0  0
  180.0150  178.3930  143.6770 C   0  0  0  0  0  2  0  0  0  0  0  0
  178.9310  178.6590  144.7050 C   0  0  0  0  0  1  0  0  0  0  0  0
  1  3  1  6  0  0  0
  1  4  1  0  0  0  0
  2  5  1  0  0  0  0
  3 18  1  0  0  0  0
  4 10  1  0  0  0  0
  4  2  1  0  0  0  0
  5 17  1  0  0  0  0
  5 11  1  0  0  0  0
  6 19  1  0  0  0  0
  7  2  1  0  0  0  0
  7 16  1  0  0  0  0
  9 11  1  0  0  0  0
  9  8  1  0  0  0  0
 10 12  1  0  0  0  0
 12 17  1  0  0  0  0
 13 10  1  0  0  0  0
 14  7  1  0  0  0  0
 15  1  1  0  0  0  0
 15 14  1  0  0  0  0
 16  9  1  0  0  0  0
 17 31  1  0  0  0  0
 18 13  1  0  0  0  0
 19  8  1  0  0  0  0
 20 16  1  0  0  0  0
 20  6  1  0  0  0  0
 21 23  1  0  0  0  0
 21 28  1  0  0  0  0
 22 30  1  0  0  0  0
 24 27  1  0  0  0  0
 25 28  1  0  0  0  0
 25 15  1  0  0  0  0
 26 24  1  0  0  0  0
 26 21  1  0  0  0  0
 27 25  1  0  0  0  0
 28 29  1  0  0  0  0
 30 26  1  0  0  0  0
 30 24  1  0  0  0  0
 31 32  1  0  0  0  0
M  END
>  <MODEL>
9

>  <REMARK>
 VINA RESULT:      -7.5      2.515      6.629
  Name = 
  2 active torsions:
  status: ('A' for Active; 'I' for Inactive)
    1  A    between atoms: C_13  and  C_29
    2  A    between atoms: C_16  and  C_27
                            x       y       z     vdW  Elec       q    Type
                         _______ _______ _______ _____ _____    ______ ____

>  <TORSDO>
F 2

$$$$
