=
 OpenBabel10262420493D

 28 32  0  0  1  0  0  0  0  0999 V2000
  189.9890  176.3110  143.5950 C   0  0  0  0  0  0  0  0  0  0  0  0
  185.3270  177.9660  142.9120 C   0  0  0  0  0  2  0  0  0  0  0  0
  188.9320  178.1540  148.0660 C   0  0  0  0  0  1  0  0  0  0  0  0
  184.9330  179.1250  145.0570 C   0  0  1  0  0  3  0  0  0  0  0  0
  186.8760  177.5680  144.8680 C   0  0  0  0  0  0  0  0  0  0  0  0
  183.0550  178.9940  143.4340 C   0  0  0  0  0  0  0  0  0  0  0  0
  185.4600  177.8310  144.4270 C   0  0  2  0  0  3  0  0  0  0  0  0
  186.4030  178.8410  146.9850 N   0  0  0  0  0  2  0  0  0  0  0  0
  183.5300  179.4170  144.6120 C   0  0  0  0  0  3  0  0  0  0  0  0
  189.4050  176.7410  145.9560 C   0  0  2  0  0  3  0  0  0  0  0  0
  187.7040  176.9360  144.0870 N   0  0  0  0  0  0  0  0  0  0  0  0
  185.0180  179.0460  146.5750 C   0  0  0  0  0  2  0  0  0  0  0  0
  191.7600  176.5660  145.2480 C   0  0  0  0  0  3  0  0  0  0  0  0
  188.5170  177.7050  146.7020 C   0  0  0  0  0  0  0  0  0  0  0  0
  190.7940  177.0310  146.1480 O   0  0  0  0  0  0  0  0  0  0  0  0
  181.7640  179.3440  143.0650 O   0  0  0  0  0  1  0  0  0  0  0  0
  183.8490  178.0830  142.5270 C   0  0  0  0  0  2  0  0  0  0  0  0
  187.3000  178.0210  146.2220 C   0  0  0  0  0  0  0  0  0  0  0  0
  191.3980  176.1910  144.0190 C   0  0  0  0  0  3  0  0  0  0  0  0
  189.0510  176.6640  144.4900 C   0  0  0  0  0  0  0  0  0  0  0  0
  189.6620  176.1590  142.1370 C   0  0  0  0  0  2  0  0  0  0  0  0
  190.0320  177.3980  141.3170 C   0  0  2  0  0  3  0  0  0  0  0  0
  190.2400  177.7670  139.0550 C   0  0  1  0  0  3  0  0  0  0  0  0
  188.8770  178.1010  140.9300 O   0  0  0  0  0  0  0  0  0  0  0  0
  192.1620  177.5590  140.3560 C   0  0  0  0  0  1  0  0  0  0  0  0
  190.8240  177.0280  140.1480 N   0  0  0  0  0  0  0  0  0  0  0  0
  189.6280  176.7980  138.0610 C   0  0  0  0  0  1  0  0  0  0  0  0
  189.1560  178.6150  139.6610 C   0  0  0  0  0  2  0  0  0  0  0  0
  1 19  1  0  0  0  0
  1 20  2  0  0  0  0
  4  9  1  1  0  0  0
  4 12  1  0  0  0  0
  5 18  1  0  0  0  0
  6  9  2  0  0  0  0
  7  2  1  6  0  0  0
  7  5  1  0  0  0  0
  7  4  1  0  0  0  0
 10 20  1  6  0  0  0
 10 15  1  0  0  0  0
 10 14  1  0  0  0  0
 11 20  1  0  0  0  0
 11  5  2  0  0  0  0
 12  8  1  0  0  0  0
 13 15  1  0  0  0  0
 14  3  1  0  0  0  0
 16  6  1  0  0  0  0
 17  2  1  0  0  0  0
 17  6  1  0  0  0  0
 18 14  2  0  0  0  0
 18  8  1  0  0  0  0
 19 13  2  0  0  0  0
 21  1  1  0  0  0  0
 22 21  1  6  0  0  0
 23 27  1  6  0  0  0
 23 28  1  0  0  0  0
 23 26  1  0  0  0  0
 24 22  1  0  0  0  0
 26 25  1  0  0  0  0
 26 22  1  0  0  0  0
 28 24  1  0  0  0  0
M  END
>  <MODEL>
1

>  <REMARK>
 VINA RESULT:     -10.0      0.000      0.000
  Name = 
  2 active torsions:
  status: ('A' for Active; 'I' for Inactive)
    1  A    between atoms: C_1  and  C_2
    2  A    between atoms: C_2  and  C_3
                            x       y       z     vdW  Elec       q    Type
                         _______ _______ _______ _____ _____    ______ ____

>  <TORSDO>
F 2

$$$$
=
 OpenBabel10262420493D

 28 32  0  0  1  0  0  0  0  0999 V2000
  189.4520  177.5210  141.2520 C   0  0  0  0  0  0  0  0  0  0  0  0
  184.7400  178.5620  142.5430 C   0  0  0  0  0  2  0  0  0  0  0  0
  189.7420  177.4460  146.1940 C   0  0  0  0  0  1  0  0  0  0  0  0
  184.9760  178.7960  144.9900 C   0  0  1  0  0  3  0  0  0  0  0  0
  186.8300  177.7340  143.6970 C   0  0  0  0  0  0  0  0  0  0  0  0
  182.6980  178.9650  144.0110 C   0  0  0  0  0  0  0  0  0  0  0  0
  185.3370  177.9140  143.7890 C   0  0  2  0  0  3  0  0  0  0  0  0
  186.9780  178.0720  146.1860 N   0  0  0  0  0  2  0  0  0  0  0  0
  183.4930  179.0060  145.0860 C   0  0  0  0  0  3  0  0  0  0  0  0
  189.6030  176.9780  143.6570 C   0  0  2  0  0  3  0  0  0  0  0  0
  187.4040  177.5640  142.5410 N   0  0  0  0  0  0  0  0  0  0  0  0
  185.5260  178.1910  146.2740 C   0  0  0  0  0  2  0  0  0  0  0  0
  191.6320  177.4390  142.3350 C   0  0  0  0  0  3  0  0  0  0  0  0
  188.9470  177.4580  144.9280 C   0  0  0  0  0  0  0  0  0  0  0  0
  190.9700  177.3930  143.5680 O   0  0  0  0  0  0  0  0  0  0  0  0
  181.3430  179.2190  144.1670 O   0  0  0  0  0  1  0  0  0  0  0  0
  183.2120  178.5780  142.6440 C   0  0  0  0  0  2  0  0  0  0  0  0
  187.6300  177.7310  144.9540 C   0  0  0  0  0  0  0  0  0  0  0  0
  190.9260  177.4790  141.2030 C   0  0  0  0  0  3  0  0  0  0  0  0
  188.8200  177.3780  142.4300 C   0  0  0  0  0  0  0  0  0  0  0  0
  188.6990  177.8550  139.9960 C   0  0  0  0  0  2  0  0  0  0  0  0
  189.5670  177.7410  138.7400 C   0  0  2  0  0  3  0  0  0  0  0  0
  189.2000  176.8100  136.6680 C   0  0  1  0  0  3  0  0  0  0  0  0
  189.3230  178.8170  137.8680 O   0  0  0  0  0  0  0  0  0  0  0  0
  190.5560  175.6890  138.1960 C   0  0  0  0  0  1  0  0  0  0  0  0
  189.3360  176.4690  138.0640 N   0  0  0  0  0  0  0  0  0  0  0  0
  187.7880  176.4970  136.2080 C   0  0  0  0  0  1  0  0  0  0  0  0
  189.4410  178.2910  136.5790 C   0  0  0  0  0  2  0  0  0  0  0  0
  1 20  2  0  0  0  0
  2 17  1  0  0  0  0
  4  9  1  1  0  0  0
  4 12  1  0  0  0  0
  5  7  1  0  0  0  0
  5 18  1  0  0  0  0
  6 16  1  0  0  0  0
  6  9  2  0  0  0  0
  7  2  1  6  0  0  0
  7  4  1  0  0  0  0
  8 12  1  0  0  0  0
 10 20  1  6  0  0  0
 10 14  1  0  0  0  0
 11  5  2  0  0  0  0
 13 15  1  0  0  0  0
 14 18  2  0  0  0  0
 14  3  1  0  0  0  0
 15 10  1  0  0  0  0
 17  6  1  0  0  0  0
 18  8  1  0  0  0  0
 19  1  1  0  0  0  0
 19 13  2  0  0  0  0
 20 11  1  0  0  0  0
 21  1  1  0  0  0  0
 22 21  1  1  0  0  0
 23 27  1  1  0  0  0
 23 26  1  0  0  0  0
 24 22  1  0  0  0  0
 26 25  1  0  0  0  0
 26 22  1  0  0  0  0
 28 23  1  0  0  0  0
 28 24  1  0  0  0  0
M  END
>  <MODEL>
2

>  <REMARK>
 VINA RESULT:      -9.7      1.487      2.169
  Name = 
  2 active torsions:
  status: ('A' for Active; 'I' for Inactive)
    1  A    between atoms: C_1  and  C_2
    2  A    between atoms: C_2  and  C_3
                            x       y       z     vdW  Elec       q    Type
                         _______ _______ _______ _____ _____    ______ ____

>  <TORSDO>
F 2

$$$$
=
 OpenBabel10262420493D

 28 32  0  0  1  0  0  0  0  0999 V2000
  189.9650  177.5370  140.6480 C   0  0  0  0  0  0  0  0  0  0  0  0
  185.6980  178.5500  143.0380 C   0  0  0  0  0  2  0  0  0  0  0  0
  191.2740  176.7930  145.3640 C   0  0  0  0  0  1  0  0  0  0  0  0
  186.4530  178.4480  145.3870 C   0  0  1  0  0  3  0  0  0  0  0  0
  187.9280  177.5080  143.6050 C   0  0  0  0  0  0  0  0  0  0  0  0
  184.0350  178.8200  144.9480 C   0  0  0  0  0  0  0  0  0  0  0  0
  186.5010  177.7220  144.0380 C   0  0  2  0  0  3  0  0  0  0  0  0
  188.6120  177.5050  146.0270 N   0  0  0  0  0  2  0  0  0  0  0  0
  185.0380  178.6910  145.8240 C   0  0  0  0  0  3  0  0  0  0  0  0
  190.5820  176.6730  142.8790 C   0  0  2  0  0  3  0  0  0  0  0  0
  188.2380  177.4740  142.3410 N   0  0  0  0  0  0  0  0  0  0  0  0
  187.2200  177.6600  146.4390 C   0  0  0  0  0  2  0  0  0  0  0  0
  192.3140  177.2390  141.2190 C   0  0  0  0  0  3  0  0  0  0  0  0
  190.2360  177.0000  144.3090 C   0  0  0  0  0  0  0  0  0  0  0  0
  191.9220  177.0510  142.5500 O   0  0  0  0  0  0  0  0  0  0  0  0
  182.7600  179.0950  145.4220 O   0  0  0  0  0  1  0  0  0  0  0  0
  184.2280  178.6020  143.4660 C   0  0  0  0  0  2  0  0  0  0  0  0
  188.9720  177.3110  144.6510 C   0  0  0  0  0  0  0  0  0  0  0  0
  191.3920  177.4530  140.2780 C   0  0  0  0  0  3  0  0  0  0  0  0
  189.5850  177.2580  141.9070 C   0  0  0  0  0  0  0  0  0  0  0  0
  188.9890  178.0590  139.6330 C   0  0  0  0  0  2  0  0  0  0  0  0
  189.3940  177.7230  138.1960 C   0  0  2  0  0  3  0  0  0  0  0  0
  188.2240  176.8890  136.3980 C   0  0  1  0  0  3  0  0  0  0  0  0
  189.1590  178.8170  137.3440 O   0  0  0  0  0  0  0  0  0  0  0  0
  189.6740  175.4850  137.5630 C   0  0  0  0  0  1  0  0  0  0  0  0
  188.6850  176.5400  137.7210 N   0  0  0  0  0  0  0  0  0  0  0  0
  186.7070  176.9280  136.3880 C   0  0  0  0  0  1  0  0  0  0  0  0
  188.7630  178.2650  136.1230 C   0  0  0  0  0  2  0  0  0  0  0  0
  1 20  2  0  0  0  0
  2 17  1  0  0  0  0
  4  9  1  1  0  0  0
  4 12  1  0  0  0  0
  5  7  1  0  0  0  0
  5 18  1  0  0  0  0
  6 16  1  0  0  0  0
  6  9  2  0  0  0  0
  7  2  1  6  0  0  0
  7  4  1  0  0  0  0
  8 12  1  0  0  0  0
 10 20  1  6  0  0  0
 10 14  1  0  0  0  0
 11  5  2  0  0  0  0
 13 15  1  0  0  0  0
 14 18  2  0  0  0  0
 14  3  1  0  0  0  0
 15 10  1  0  0  0  0
 17  6  1  0  0  0  0
 18  8  1  0  0  0  0
 19  1  1  0  0  0  0
 19 13  2  0  0  0  0
 20 11  1  0  0  0  0
 21  1  1  0  0  0  0
 22 21  1  1  0  0  0
 23 27  1  1  0  0  0
 23 26  1  0  0  0  0
 24 22  1  0  0  0  0
 25 26  1  0  0  0  0
 26 22  1  0  0  0  0
 28 23  1  0  0  0  0
 28 24  1  0  0  0  0
M  END
>  <MODEL>
3

>  <REMARK>
 VINA RESULT:      -9.7      1.810      2.956
  Name = 
  2 active torsions:
  status: ('A' for Active; 'I' for Inactive)
    1  A    between atoms: C_1  and  C_2
    2  A    between atoms: C_2  and  C_3
                            x       y       z     vdW  Elec       q    Type
                         _______ _______ _______ _____ _____    ______ ____

>  <TORSDO>
F 2

$$$$
=
 OpenBabel10262420493D

 28 32  0  0  1  0  0  0  0  0999 V2000
  187.3930  178.2530  139.9620 C   0  0  0  0  0  0  0  0  0  0  0  0
  187.3270  177.8820  144.9430 C   0  0  0  0  0  2  0  0  0  0  0  0
  192.1820  177.4930  140.9590 C   0  0  0  0  0  1  0  0  0  0  0  0
  189.7470  177.7890  145.4280 C   0  0  1  0  0  3  0  0  0  0  0  0
  188.9730  177.4310  143.0800 C   0  0  0  0  0  0  0  0  0  0  0  0
  188.1610  177.5360  147.3250 C   0  0  0  0  0  0  0  0  0  0  0  0
  188.6390  177.2190  144.5330 C   0  0  2  0  0  3  0  0  0  0  0  0
  191.4150  177.4080  143.6860 N   0  0  0  0  0  2  0  0  0  0  0  0
  189.4210  177.6070  146.8810 C   0  0  0  0  0  3  0  0  0  0  0  0
  189.6880  177.4010  140.2960 C   0  0  2  0  0  3  0  0  0  0  0  0
  188.0260  177.5880  142.2010 N   0  0  0  0  0  0  0  0  0  0  0  0
  191.0850  177.1490  145.0840 C   0  0  0  0  0  2  0  0  0  0  0  0
  189.0550  178.5480  138.2070 C   0  0  0  0  0  3  0  0  0  0  0  0
  190.7440  177.5030  141.3670 C   0  0  0  0  0  0  0  0  0  0  0  0
  190.0330  178.1500  139.1260 O   0  0  0  0  0  0  0  0  0  0  0  0
  187.9330  177.4190  148.6880 O   0  0  0  0  0  1  0  0  0  0  0  0
  186.9780  177.5030  146.3850 C   0  0  0  0  0  2  0  0  0  0  0  0
  190.4050  177.4340  142.6670 C   0  0  0  0  0  0  0  0  0  0  0  0
  187.7730  178.5850  138.5750 C   0  0  0  0  0  3  0  0  0  0  0  0
  188.3190  177.7780  140.8120 C   0  0  0  0  0  0  0  0  0  0  0  0
  186.0010  178.5780  140.4240 C   0  0  0  0  0  2  0  0  0  0  0  0
  185.0490  178.8790  139.2630 C   0  0  2  0  0  3  0  0  0  0  0  0
  182.7970  178.5170  138.9580 C   0  0  1  0  0  3  0  0  0  0  0  0
  184.4280  180.1280  139.4410 O   0  0  0  0  0  0  0  0  0  0  0  0
  184.3290  177.1360  137.8740 C   0  0  0  0  0  1  0  0  0  0  0  0
  184.0510  177.8230  139.1250 N   0  0  0  0  0  0  0  0  0  0  0  0
  181.9000  178.2290  140.1480 C   0  0  0  0  0  1  0  0  0  0  0  0
  183.1360  179.9820  138.9280 C   0  0  0  0  0  2  0  0  0  0  0  0
  1 21  1  0  0  0  0
  1 20  2  0  0  0  0
  2 17  1  0  0  0  0
  3 14  1  0  0  0  0
  4 12  1  6  0  0  0
  4  9  1  0  0  0  0
  5  7  1  0  0  0  0
  6 16  1  0  0  0  0
  7  2  1  1  0  0  0
  7  4  1  0  0  0  0
  8 12  1  0  0  0  0
  9  6  2  0  0  0  0
 10 15  1  6  0  0  0
 10 20  1  0  0  0  0
 10 14  1  0  0  0  0
 11  5  2  0  0  0  0
 13 19  2  0  0  0  0
 13 15  1  0  0  0  0
 14 18  2  0  0  0  0
 17  6  1  0  0  0  0
 18  5  1  0  0  0  0
 18  8  1  0  0  0  0
 19  1  1  0  0  0  0
 20 11  1  0  0  0  0
 22 24  1  0  0  0  0
 22 21  1  1  0  0  0
 23 26  1  0  0  0  0
 23 27  1  1  0  0  0
 25 26  1  0  0  0  0
 26 22  1  0  0  0  0
 28 23  1  0  0  0  0
 28 24  1  0  0  0  0
M  END
>  <MODEL>
4

>  <REMARK>
 VINA RESULT:      -9.3      2.685      6.054
  Name = 
  2 active torsions:
  status: ('A' for Active; 'I' for Inactive)
    1  A    between atoms: C_1  and  C_2
    2  A    between atoms: C_2  and  C_3
                            x       y       z     vdW  Elec       q    Type
                         _______ _______ _______ _____ _____    ______ ____

>  <TORSDO>
F 2

$$$$
=
 OpenBabel10262420493D

 28 32  0  0  1  0  0  0  0  0999 V2000
  188.3390  178.1300  139.4010 C   0  0  0  0  0  0  0  0  0  0  0  0
  190.6120  177.2790  143.7670 C   0  0  0  0  0  2  0  0  0  0  0  0
  184.5280  178.3310  142.5540 C   0  0  0  0  0  1  0  0  0  0  0  0
  188.6620  177.1040  145.2720 C   0  0  1  0  0  3  0  0  0  0  0  0
  188.3410  178.0700  142.9910 C   0  0  0  0  0  0  0  0  0  0  0  0
  190.9330  176.9830  146.2760 C   0  0  0  0  0  0  0  0  0  0  0  0
  189.2920  177.9410  144.1520 C   0  0  2  0  0  3  0  0  0  0  0  0
  186.4210  177.7960  144.5940 N   0  0  0  0  0  2  0  0  0  0  0  0
  189.6040  176.9460  146.4290 C   0  0  0  0  0  3  0  0  0  0  0  0
  186.4760  178.7340  140.9070 C   0  0  2  0  0  3  0  0  0  0  0  0
  188.7930  178.1900  141.7770 N   0  0  0  0  0  0  0  0  0  0  0  0
  187.3470  177.7260  145.7200 C   0  0  0  0  0  2  0  0  0  0  0  0
  186.0600  178.1710  138.5430 C   0  0  0  0  0  3  0  0  0  0  0  0
  185.9960  178.3100  142.2720 C   0  0  0  0  0  0  0  0  0  0  0  0
  185.6100  178.2730  139.8650 O   0  0  0  0  0  0  0  0  0  0  0  0
  191.7430  176.7780  147.3830 O   0  0  0  0  0  1  0  0  0  0  0  0
  191.5810  177.3160  144.9520 C   0  0  0  0  0  2  0  0  0  0  0  0
  186.8760  178.0810  143.2630 C   0  0  0  0  0  0  0  0  0  0  0  0
  187.3690  178.1240  138.2880 C   0  0  0  0  0  3  0  0  0  0  0  0
  187.9090  178.3260  140.6590 C   0  0  0  0  0  0  0  0  0  0  0  0
  189.7720  177.7870  139.1080 C   0  0  0  0  0  2  0  0  0  0  0  0
  189.9110  176.5900  138.1640 C   0  0  2  0  0  3  0  0  0  0  0  0
  191.6220  175.8650  136.8060 C   0  0  1  0  0  3  0  0  0  0  0  0
  190.4990  175.4990  138.8290 O   0  0  0  0  0  0  0  0  0  0  0  0
  189.7760  176.9170  135.8490 C   0  0  0  0  0  1  0  0  0  0  0  0
  190.6870  176.9510  136.9820 N   0  0  0  0  0  0  0  0  0  0  0  0
  193.0340  176.3780  137.0140 C   0  0  0  0  0  1  0  0  0  0  0  0
  191.2910  174.8580  137.8730 C   0  0  0  0  0  2  0  0  0  0  0  0
  1 20  2  0  0  0  0
  2 17  1  0  0  0  0
  4 12  1  1  0  0  0
  4  9  1  0  0  0  0
  5 18  1  0  0  0  0
  5  7  1  0  0  0  0
  6  9  2  0  0  0  0
  6 16  1  0  0  0  0
  7  2  1  6  0  0  0
  7  4  1  0  0  0  0
  8 12  1  0  0  0  0
 10 15  1  6  0  0  0
 10 14  1  0  0  0  0
 11  5  2  0  0  0  0
 13 15  1  0  0  0  0
 14  3  1  0  0  0  0
 14 18  2  0  0  0  0
 17  6  1  0  0  0  0
 18  8  1  0  0  0  0
 19 13  2  0  0  0  0
 19  1  1  0  0  0  0
 20 10  1  0  0  0  0
 20 11  1  0  0  0  0
 21  1  1  0  0  0  0
 22 24  1  0  0  0  0
 22 21  1  1  0  0  0
 23 26  1  0  0  0  0
 23 27  1  1  0  0  0
 23 28  1  0  0  0  0
 25 26  1  0  0  0  0
 26 22  1  0  0  0  0
 28 24  1  0  0  0  0
M  END
>  <MODEL>
5

>  <REMARK>
 VINA RESULT:      -9.3      2.088      5.627
  Name = 
  2 active torsions:
  status: ('A' for Active; 'I' for Inactive)
    1  A    between atoms: C_1  and  C_2
    2  A    between atoms: C_2  and  C_3
                            x       y       z     vdW  Elec       q    Type
                         _______ _______ _______ _____ _____    ______ ____

>  <TORSDO>
F 2

$$$$
=
 OpenBabel10262420493D

 28 32  0  0  1  0  0  0  0  0999 V2000
  187.0540  178.3560  140.7290 C   0  0  0  0  0  0  0  0  0  0  0  0
  190.1840  177.1840  144.4410 C   0  0  0  0  0  2  0  0  0  0  0  0
  184.0570  178.6010  144.6620 C   0  0  0  0  0  1  0  0  0  0  0  0
  188.6110  177.0380  146.3390 C   0  0  1  0  0  3  0  0  0  0  0  0
  187.8490  178.1250  144.2230 C   0  0  0  0  0  0  0  0  0  0  0  0
  191.0360  176.7540  146.8020 C   0  0  0  0  0  0  0  0  0  0  0  0
  189.0250  177.8940  145.1360 C   0  0  2  0  0  3  0  0  0  0  0  0
  186.3210  177.8730  146.2050 N   0  0  0  0  0  2  0  0  0  0  0  0
  189.7750  176.7770  147.2490 C   0  0  0  0  0  3  0  0  0  0  0  0
  185.6110  178.9810  142.6350 C   0  0  2  0  0  3  0  0  0  0  0  0
  188.0270  178.2800  142.9430 N   0  0  0  0  0  0  0  0  0  0  0  0
  187.4680  177.7030  147.0920 C   0  0  0  0  0  2  0  0  0  0  0  0
  184.6470  178.5530  140.4060 C   0  0  0  0  0  3  0  0  0  0  0  0
  185.4220  178.5190  144.0570 C   0  0  0  0  0  0  0  0  0  0  0  0
  184.5090  178.6140  141.7980 O   0  0  0  0  0  0  0  0  0  0  0  0
  192.0590  176.4560  147.6910 O   0  0  0  0  0  1  0  0  0  0  0  0
  191.3920  177.1160  145.3790 C   0  0  0  0  0  2  0  0  0  0  0  0
  186.4840  178.1980  144.8170 C   0  0  0  0  0  0  0  0  0  0  0  0
  185.8620  178.4510  139.8630 C   0  0  0  0  0  3  0  0  0  0  0  0
  186.9260  178.5140  142.0570 C   0  0  0  0  0  0  0  0  0  0  0  0
  188.3620  177.9550  140.1100 C   0  0  0  0  0  2  0  0  0  0  0  0
  188.2460  177.6820  138.6080 C   0  0  2  0  0  3  0  0  0  0  0  0
  189.7950  177.1270  136.9990 C   0  0  1  0  0  3  0  0  0  0  0  0
  188.0770  176.3070  138.3640 O   0  0  0  0  0  0  0  0  0  0  0  0
  188.9640  179.3020  137.0770 C   0  0  0  0  0  1  0  0  0  0  0  0
  189.4150  178.1900  137.8980 N   0  0  0  0  0  0  0  0  0  0  0  0
  191.1560  176.5910  137.3990 C   0  0  0  0  0  1  0  0  0  0  0  0
  188.7610  176.0500  137.1730 C   0  0  0  0  0  2  0  0  0  0  0  0
  1 20  2  0  0  0  0
  2 17  1  0  0  0  0
  4 12  1  1  0  0  0
  4  9  1  0  0  0  0
  5 18  1  0  0  0  0
  5  7  1  0  0  0  0
  6  9  2  0  0  0  0
  6 16  1  0  0  0  0
  7  2  1  6  0  0  0
  7  4  1  0  0  0  0
  8 12  1  0  0  0  0
 10 15  1  6  0  0  0
 10 14  1  0  0  0  0
 11  5  2  0  0  0  0
 13 15  1  0  0  0  0
 14  3  1  0  0  0  0
 14 18  2  0  0  0  0
 17  6  1  0  0  0  0
 18  8  1  0  0  0  0
 19 13  2  0  0  0  0
 19  1  1  0  0  0  0
 20 10  1  0  0  0  0
 20 11  1  0  0  0  0
 21  1  1  0  0  0  0
 22 21  1  1  0  0  0
 23 28  1  0  0  0  0
 23 27  1  1  0  0  0
 23 26  1  0  0  0  0
 24 22  1  0  0  0  0
 25 26  1  0  0  0  0
 26 22  1  0  0  0  0
 28 24  1  0  0  0  0
M  END
>  <MODEL>
6

>  <REMARK>
 VINA RESULT:      -9.3      1.838      5.359
  Name = 
  2 active torsions:
  status: ('A' for Active; 'I' for Inactive)
    1  A    between atoms: C_1  and  C_2
    2  A    between atoms: C_2  and  C_3
                            x       y       z     vdW  Elec       q    Type
                         _______ _______ _______ _____ _____    ______ ____

>  <TORSDO>
F 2

$$$$
=
 OpenBabel10262420493D

 28 32  0  0  1  0  0  0  0  0999 V2000
  189.1930  177.5520  141.3720 C   0  0  0  0  0  0  0  0  0  0  0  0
  184.5590  178.4530  143.0020 C   0  0  0  0  0  2  0  0  0  0  0  0
  186.7440  178.1380  137.1090 C   0  0  0  0  0  1  0  0  0  0  0  0
  183.3150  178.4590  140.8680 C   0  0  1  0  0  3  0  0  0  0  0  0
  185.8080  178.6090  140.8110 C   0  0  0  0  0  0  0  0  0  0  0  0
  182.0720  179.0030  142.9510 C   0  0  0  0  0  0  0  0  0  0  0  0
  184.5670  178.9930  141.5740 C   0  0  2  0  0  3  0  0  0  0  0  0
  184.4370  178.5560  138.7020 N   0  0  0  0  0  2  0  0  0  0  0  0
  182.0700  178.8130  141.6260 C   0  0  0  0  0  3  0  0  0  0  0  0
  188.1950  178.3020  139.2400 C   0  0  2  0  0  3  0  0  0  0  0  0
  186.9330  178.4140  141.4350 N   0  0  0  0  0  0  0  0  0  0  0  0
  183.2510  178.9810  139.4400 C   0  0  0  0  0  2  0  0  0  0  0  0
  190.2750  176.9770  139.2660 C   0  0  0  0  0  3  0  0  0  0  0  0
  186.8320  178.2540  138.5970 C   0  0  0  0  0  0  0  0  0  0  0  0
  189.1210  177.4140  138.6040 O   0  0  0  0  0  0  0  0  0  0  0  0
  180.8730  179.2770  143.5930 O   0  0  0  0  0  1  0  0  0  0  0  0
  183.3480  179.0030  143.7610 C   0  0  0  0  0  2  0  0  0  0  0  0
  185.7260  178.4800  139.3280 C   0  0  0  0  0  0  0  0  0  0  0  0
  190.3460  177.0530  140.5970 C   0  0  0  0  0  3  0  0  0  0  0  0
  188.1280  178.0610  140.7290 C   0  0  0  0  0  0  0  0  0  0  0  0
  189.1890  177.3580  142.8610 C   0  0  0  0  0  2  0  0  0  0  0  0
  190.5990  177.2120  143.4410 C   0  0  2  0  0  3  0  0  0  0  0  0
  191.3990  177.1390  145.5970 C   0  0  1  0  0  3  0  0  0  0  0  0
  190.8920  175.8610  143.7010 O   0  0  0  0  0  0  0  0  0  0  0  0
  191.6810  179.0830  144.3430 C   0  0  0  0  0  1  0  0  0  0  0  0
  190.7460  178.0120  144.6520 N   0  0  0  0  0  0  0  0  0  0  0  0
  190.4590  176.8550  146.7540 C   0  0  0  0  0  1  0  0  0  0  0  0
  191.6810  175.8630  144.8540 C   0  0  0  0  0  2  0  0  0  0  0  0
  1 21  1  0  0  0  0
  2 17  1  0  0  0  0
  3 14  1  0  0  0  0
  4 12  1  6  0  0  0
  4  7  1  0  0  0  0
  4  9  1  0  0  0  0
  5 11  2  0  0  0  0
  5  7  1  0  0  0  0
  6 16  1  0  0  0  0
  6 17  1  0  0  0  0
  7  2  1  1  0  0  0
  8 18  1  0  0  0  0
  8 12  1  0  0  0  0
  9  6  2  0  0  0  0
 10 14  1  6  0  0  0
 10 20  1  0  0  0  0
 13 19  2  0  0  0  0
 14 18  2  0  0  0  0
 15 10  1  0  0  0  0
 15 13  1  0  0  0  0
 18  5  1  0  0  0  0
 19  1  1  0  0  0  0
 20  1  2  0  0  0  0
 20 11  1  0  0  0  0
 22 21  1  1  0  0  0
 22 24  1  0  0  0  0
 22 26  1  0  0  0  0
 23 27  1  1  0  0  0
 24 28  1  0  0  0  0
 25 26  1  0  0  0  0
 26 23  1  0  0  0  0
 28 23  1  0  0  0  0
M  END
>  <MODEL>
7

>  <REMARK>
 VINA RESULT:      -8.5      2.344      5.532
  Name = 
  2 active torsions:
  status: ('A' for Active; 'I' for Inactive)
    1  A    between atoms: C_1  and  C_2
    2  A    between atoms: C_2  and  C_3
                            x       y       z     vdW  Elec       q    Type
                         _______ _______ _______ _____ _____    ______ ____

>  <TORSDO>
F 2

$$$$
=
 OpenBabel10262420493D

 28 32  0  0  1  0  0  0  0  0999 V2000
  188.7050  177.0780  143.4320 C   0  0  0  0  0  0  0  0  0  0  0  0
  183.8670  178.3030  143.2140 C   0  0  0  0  0  2  0  0  0  0  0  0
  188.2110  178.3020  138.6610 C   0  0  0  0  0  1  0  0  0  0  0  0
  183.5870  178.6330  140.7830 C   0  0  1  0  0  3  0  0  0  0  0  0
  185.8970  178.5270  141.7270 C   0  0  0  0  0  0  0  0  0  0  0  0
  181.6470  179.1100  142.2620 C   0  0  0  0  0  0  0  0  0  0  0  0
  184.4800  178.9670  141.9840 C   0  0  2  0  0  3  0  0  0  0  0  0
  185.4870  178.8100  139.2600 N   0  0  0  0  0  0  0  0  0  0  0  0
  182.1650  179.0430  141.0300 C   0  0  0  0  0  3  0  0  0  0  0  0
  188.6920  178.1190  141.1920 C   0  0  2  0  0  3  0  0  0  0  0  0
  186.6640  178.1610  142.7120 N   0  0  0  0  0  0  0  0  0  0  0  0
  184.1320  179.2870  139.5210 C   0  0  0  0  0  2  0  0  0  0  0  0
  190.5040  176.5890  141.8650 C   0  0  0  0  0  3  0  0  0  0  0  0
  187.7010  178.2720  140.0660 C   0  0  1  0  0  3  0  0  0  0  0  0
  189.7410  177.2010  140.8640 O   0  0  0  0  0  0  0  0  0  0  0  0
  180.3100  179.4470  142.4120 O   0  0  0  0  0  1  0  0  0  0  0  0
  182.4880  178.9040  143.5000 C   0  0  0  0  0  2  0  0  0  0  0  0
  186.4090  178.5440  140.3270 C   0  0  0  0  0  0  0  0  0  0  0  0
  190.0410  176.5350  143.1160 C   0  0  0  0  0  3  0  0  0  0  0  0
  188.0190  177.7510  142.4930 C   0  0  0  0  0  0  0  0  0  0  0  0
  188.0920  176.7500  144.7640 C   0  0  0  0  0  2  0  0  0  0  0  0
  188.1400  177.9270  145.7420 C   0  0  2  0  0  3  0  0  0  0  0  0
  187.6780  178.1090  147.9890 C   0  0  1  0  0  3  0  0  0  0  0  0
  189.3860  177.9840  146.3910 O   0  0  0  0  0  0  0  0  0  0  0  0
  186.1440  178.9340  146.4410 C   0  0  0  0  0  1  0  0  0  0  0  0
  187.0570  177.8350  146.7150 N   0  0  0  0  0  0  0  0  0  0  0  0
  187.6100  176.8680  148.8590 C   0  0  0  0  0  1  0  0  0  0  0  0
  189.1150  178.4310  147.6870 C   0  0  0  0  0  2  0  0  0  0  0  0
  1 21  1  0  0  0  0
  2 17  1  0  0  0  0
  4 12  1  6  0  0  0
  4  9  1  0  0  0  0
  4  7  1  0  0  0  0
  5  7  1  0  0  0  0
  5 11  2  0  0  0  0
  6 16  1  0  0  0  0
  6 17  1  0  0  0  0
  7  2  1  1  0  0  0
  8 12  1  0  0  0  0
  8 18  2  0  0  0  0
  9  6  2  0  0  0  0
 10 15  1  6  0  0  0
 10 20  1  0  0  0  0
 13 19  2  0  0  0  0
 14  3  1  6  0  0  0
 14 18  1  0  0  0  0
 14 10  1  0  0  0  0
 15 13  1  0  0  0  0
 18  5  1  0  0  0  0
 19  1  1  0  0  0  0
 20 11  1  0  0  0  0
 20  1  2  0  0  0  0
 22 21  1  6  0  0  0
 22 24  1  0  0  0  0
 22 26  1  0  0  0  0
 23 27  1  1  0  0  0
 24 28  1  0  0  0  0
 25 26  1  0  0  0  0
 26 23  1  0  0  0  0
 28 23  1  0  0  0  0
M  END
>  <MODEL>
8

>  <REMARK>
 VINA RESULT:      -8.4      1.930      5.665
  Name = 
  2 active torsions:
  status: ('A' for Active; 'I' for Inactive)
    1  A    between atoms: C_1  and  C_2
    2  A    between atoms: C_2  and  C_3
                            x       y       z     vdW  Elec       q    Type
                         _______ _______ _______ _____ _____    ______ ____

>  <TORSDO>
F 2

$$$$
=
 OpenBabel10262420493D

 28 32  0  0  1  0  0  0  0  0999 V2000
  183.7510  178.6080  142.1680 C   0  0  0  0  0  0  0  0  0  0  0  0
  188.5660  177.2980  141.9410 C   0  0  0  0  0  2  0  0  0  0  0  0
  184.9310  178.3470  146.9690 C   0  0  0  0  0  1  0  0  0  0  0  0
  189.0460  176.9020  144.3310 C   0  0  1  0  0  3  0  0  0  0  0  0
  186.9580  178.1230  143.7070 C   0  0  0  0  0  0  0  0  0  0  0  0
  190.9230  176.7150  142.7110 C   0  0  0  0  0  0  0  0  0  0  0  0
  188.4000  177.8800  143.3420 C   0  0  2  0  0  3  0  0  0  0  0  0
  187.5300  177.6170  146.1050 N   0  0  0  0  0  2  0  0  0  0  0  0
  190.4770  176.6290  143.9700 C   0  0  0  0  0  3  0  0  0  0  0  0
  184.3450  178.9860  144.5360 C   0  0  2  0  0  3  0  0  0  0  0  0
  186.0810  178.3970  142.7860 N   0  0  0  0  0  0  0  0  0  0  0  0
  188.9340  177.4360  145.7520 C   0  0  0  0  0  2  0  0  0  0  0  0
  181.9940  178.6980  143.8520 C   0  0  0  0  0  3  0  0  0  0  0  0
  185.3160  178.3930  145.5250 C   0  0  0  0  0  0  0  0  0  0  0  0
  182.9900  178.6320  144.8330 O   0  0  0  0  0  0  0  0  0  0  0  0
  192.2470  176.3990  142.4430 O   0  0  0  0  0  1  0  0  0  0  0  0
  190.0520  177.2170  141.5820 C   0  0  0  0  0  2  0  0  0  0  0  0
  186.5640  178.0680  145.1430 C   0  0  0  0  0  0  0  0  0  0  0  0
  182.3320  178.7110  142.5610 C   0  0  0  0  0  3  0  0  0  0  0  0
  184.7080  178.6440  143.1100 C   0  0  0  0  0  0  0  0  0  0  0  0
  184.0810  178.3350  140.7280 C   0  0  0  0  0  2  0  0  0  0  0  0
  182.8810  177.8050  139.9380 C   0  0  2  0  0  3  0  0  0  0  0  0
  182.5720  177.3160  137.7100 C   0  0  1  0  0  3  0  0  0  0  0  0
  182.9320  176.4030  139.8370 O   0  0  0  0  0  0  0  0  0  0  0  0
  181.6460  179.2660  138.5870 C   0  0  0  0  0  1  0  0  0  0  0  0
  182.8240  178.4140  138.6130 N   0  0  0  0  0  0  0  0  0  0  0  0
  183.7670  177.1340  136.7940 C   0  0  0  0  0  1  0  0  0  0  0  0
  182.4130  176.0970  138.5760 C   0  0  0  0  0  2  0  0  0  0  0  0
  1 19  1  0  0  0  0
  1 20  2  0  0  0  0
  4  9  1  6  0  0  0
  4 12  1  0  0  0  0
  5 18  1  0  0  0  0
  6  9  2  0  0  0  0
  7  2  1  6  0  0  0
  7  5  1  0  0  0  0
  7  4  1  0  0  0  0
 10 20  1  6  0  0  0
 10 15  1  0  0  0  0
 10 14  1  0  0  0  0
 11 20  1  0  0  0  0
 11  5  2  0  0  0  0
 12  8  1  0  0  0  0
 13 15  1  0  0  0  0
 14  3  1  0  0  0  0
 16  6  1  0  0  0  0
 17  2  1  0  0  0  0
 17  6  1  0  0  0  0
 18 14  2  0  0  0  0
 18  8  1  0  0  0  0
 19 13  2  0  0  0  0
 21  1  1  0  0  0  0
 22 21  1  6  0  0  0
 23 27  1  6  0  0  0
 23 28  1  0  0  0  0
 23 26  1  0  0  0  0
 24 22  1  0  0  0  0
 25 26  1  0  0  0  0
 26 22  1  0  0  0  0
 28 24  1  0  0  0  0
M  END
>  <MODEL>
9

>  <REMARK>
 VINA RESULT:      -8.4      2.920      6.588
  Name = 
  2 active torsions:
  status: ('A' for Active; 'I' for Inactive)
    1  A    between atoms: C_1  and  C_2
    2  A    between atoms: C_2  and  C_3
                            x       y       z     vdW  Elec       q    Type
                         _______ _______ _______ _____ _____    ______ ____

>  <TORSDO>
F 2

$$$$
