=
 OpenBabel10262420153D

 27 30  0  0  1  0  0  0  0  0999 V2000
  184.4660  178.8400  141.1730 C   0  0  2  0  0  3  0  0  0  0  0  0
  185.7330  179.0460  140.5700 O   0  0  0  0  0  0  0  0  0  0  0  0
  186.1100  178.8810  142.6950 C   0  0  2  0  0  3  0  0  0  0  0  0
  184.6670  179.1430  145.0080 C   0  0  1  0  0  3  0  0  0  0  0  0
  183.8270  179.0230  146.1170 O   0  0  0  0  0  1  0  0  0  0  0  0
  184.7220  178.4090  142.5780 C   0  0  1  0  0  3  0  0  0  0  0  0
  186.6650  178.6420  141.4390 O   0  0  0  0  0  0  0  0  0  0  0  0
  185.8320  178.1310  145.1030 C   0  0  0  0  0  2  0  0  0  0  0  0
  182.7040  178.3050  143.8360 O   0  0  0  0  0  1  0  0  0  0  0  0
  183.8710  179.0530  143.6730 C   0  0  1  0  0  3  0  0  0  0  0  0
  186.7930  178.1940  143.8900 C   0  0  1  0  0  3  0  0  0  0  0  0
  187.2650  176.7820  143.5580 C   0  0  0  0  0  2  0  0  0  0  0  0
  190.2890  178.5240  143.7050 C   0  0  0  0  0  2  0  0  0  0  0  0
  191.4450  177.5790  143.3380 C   0  0  0  0  0  2  0  0  0  0  0  0
  191.0240  176.1100  143.2150 C   0  0  0  0  0  2  0  0  0  0  0  0
  188.6900  176.5590  144.0350 C   0  0  1  0  0  3  0  0  0  0  0  0
  189.5400  175.9770  142.8970 C   0  0  0  0  0  2  0  0  0  0  0  0
  189.2530  177.8620  144.6270 C   0  0  1  0  0  3  0  0  0  0  0  0
  188.7200  177.2990  147.0070 C   0  0  0  0  0  1  0  0  0  0  0  0
  189.8280  177.5910  146.0120 C   0  0  0  0  0  2  0  0  0  0  0  0
  183.6510  177.8000  140.4020 C   0  0  0  0  0  2  0  0  0  0  0  0
  179.4730  178.6800  140.4220 C   0  0  0  0  0  3  0  0  0  0  0  0
  182.1860  178.1020  140.3900 C   0  0  0  0  0  0  0  0  0  0  0  0
  181.2640  177.0800  140.1480 C   0  0  0  0  0  3  0  0  0  0  0  0
  179.9000  177.3770  140.1620 C   0  0  0  0  0  3  0  0  0  0  0  0
  180.4240  179.6730  140.6650 C   0  0  0  0  0  3  0  0  0  0  0  0
  181.7490  179.3670  140.6450 N   0  0  0  0  0  0  0  0  0  0  0  0
  1 21  1  6  0  0  0
  1  6  1  0  0  0  0
  2  1  1  0  0  0  0
  2  7  1  0  0  0  0
  3  7  1  6  0  0  0
  3 11  1  0  0  0  0
  4  8  1  0  0  0  0
  4  5  1  1  0  0  0
  6  3  1  0  0  0  0
  6 10  1  0  0  0  0
 10  9  1  0  0  0  0
 10  4  1  0  0  0  0
 11  8  1  0  0  0  0
 12 11  1  0  0  0  0
 12 16  1  0  0  0  0
 13 18  1  0  0  0  0
 14 13  1  0  0  0  0
 15 14  1  0  0  0  0
 16 18  1  0  0  0  0
 17 15  1  0  0  0  0
 17 16  1  0  0  0  0
 18 20  1  0  0  0  0
 20 19  1  0  0  0  0
 22 26  1  0  0  0  0
 23 21  1  0  0  0  0
 23 27  1  0  0  0  0
 24 25  1  0  0  0  0
 24 23  2  0  0  0  0
 25 22  2  0  0  0  0
 27 26  2  0  0  0  0
M  END
>  <MODEL>
1

>  <REMARK>
 VINA RESULT:      -8.6      0.000      0.000
  Name = 
  5 active torsions:
  status: ('A' for Active; 'I' for Inactive)
    1  A    between atoms: C_1  and  C_15
    2  A    between atoms: C_9  and  C_15
    3  A    between atoms: C_12  and  C_14
    4  A    between atoms: C_12  and  C_26
    5  A    between atoms: C_17  and  C_21
                            x       y       z     vdW  Elec       q    Type
                         _______ _______ _______ _____ _____    ______ ____

>  <TORSDO>
F 5

$$$$
=
 OpenBabel10262420153D

 27 30  0  0  1  0  0  0  0  0999 V2000
  190.1290  176.4500  142.8900 C   0  0  2  0  0  3  0  0  0  0  0  0
  188.8610  175.9520  142.5000 O   0  0  0  0  0  0  0  0  0  0  0  0
  188.6750  176.4620  144.5950 C   0  0  2  0  0  3  0  0  0  0  0  0
  190.3660  176.8590  146.7130 C   0  0  1  0  0  3  0  0  0  0  0  0
  191.2800  177.3080  147.6680 O   0  0  0  0  0  1  0  0  0  0  0  0
  189.9470  177.1000  144.2210 C   0  0  1  0  0  3  0  0  0  0  0  0
  187.9660  176.3740  143.3990 O   0  0  0  0  0  0  0  0  0  0  0  0
  189.0640  177.6900  146.7810 C   0  0  0  0  0  2  0  0  0  0  0  0
  192.0350  177.7340  145.1720 O   0  0  0  0  0  1  0  0  0  0  0  0
  190.9980  176.8070  145.2910 C   0  0  1  0  0  3  0  0  0  0  0  0
  188.0110  177.2580  145.7320 C   0  0  1  0  0  3  0  0  0  0  0  0
  187.2800  178.4970  145.2240 C   0  0  0  0  0  2  0  0  0  0  0  0
  184.5550  180.0410  143.6770 C   0  0  0  0  0  2  0  0  0  0  0  0
  183.2580  179.6340  144.3950 C   0  0  0  0  0  2  0  0  0  0  0  0
  183.4510  178.5250  145.4350 C   0  0  0  0  0  2  0  0  0  0  0  0
  185.8580  178.1570  144.8080 C   0  0  1  0  0  3  0  0  0  0  0  0
  184.8850  178.4830  145.9500 C   0  0  0  0  0  2  0  0  0  0  0  0
  185.5190  178.8600  143.4830 C   0  0  1  0  0  3  0  0  0  0  0  0
  184.6250  178.5130  141.1710 C   0  0  0  0  0  1  0  0  0  0  0  0
  184.9690  177.8450  142.4890 C   0  0  0  0  0  2  0  0  0  0  0  0
  190.6780  177.4320  141.8530 C   0  0  0  0  0  2  0  0  0  0  0  0
  188.9560  176.9450  137.9760 C   0  0  0  0  0  3  0  0  0  0  0  0
  190.0570  177.2570  140.5030 C   0  0  0  0  0  0  0  0  0  0  0  0
  188.9930  178.0750  140.1130 C   0  0  0  0  0  3  0  0  0  0  0  0
  188.4400  177.9120  138.8420 C   0  0  0  0  0  3  0  0  0  0  0  0
  190.0240  176.1520  138.4000 C   0  0  0  0  0  3  0  0  0  0  0  0
  190.5480  176.3220  139.6420 N   0  0  0  0  0  0  0  0  0  0  0  0
  1 21  1  6  0  0  0
  1  6  1  0  0  0  0
  2  1  1  0  0  0  0
  2  7  1  0  0  0  0
  3  7  1  6  0  0  0
  3 11  1  0  0  0  0
  4  8  1  0  0  0  0
  4  5  1  1  0  0  0
  6  3  1  0  0  0  0
  6 10  1  0  0  0  0
  9 10  1  0  0  0  0
 10  4  1  0  0  0  0
 11  8  1  0  0  0  0
 12 11  1  0  0  0  0
 13 14  1  0  0  0  0
 14 15  1  0  0  0  0
 15 17  1  0  0  0  0
 16 12  1  0  0  0  0
 16 17  1  0  0  0  0
 18 13  1  0  0  0  0
 18 16  1  0  0  0  0
 19 20  1  0  0  0  0
 20 18  1  0  0  0  0
 22 26  2  0  0  0  0
 22 25  1  0  0  0  0
 23 21  1  0  0  0  0
 24 23  1  0  0  0  0
 25 24  2  0  0  0  0
 26 27  1  0  0  0  0
 27 23  2  0  0  0  0
M  END
>  <MODEL>
2

>  <REMARK>
 VINA RESULT:      -7.8      3.466      6.862
  Name = 
  5 active torsions:
  status: ('A' for Active; 'I' for Inactive)
    1  A    between atoms: C_1  and  C_15
    2  A    between atoms: C_9  and  C_15
    3  A    between atoms: C_12  and  C_14
    4  A    between atoms: C_12  and  C_26
    5  A    between atoms: C_17  and  C_21
                            x       y       z     vdW  Elec       q    Type
                         _______ _______ _______ _____ _____    ______ ____

>  <TORSDO>
F 5

$$$$
=
 OpenBabel10262420153D

 27 30  0  0  1  0  0  0  0  0999 V2000
  187.0380  178.5590  139.1500 C   0  0  2  0  0  3  0  0  0  0  0  0
  188.4330  178.6960  139.3650 O   0  0  0  0  0  0  0  0  0  0  0  0
  187.5300  178.6840  141.3330 C   0  0  2  0  0  3  0  0  0  0  0  0
  185.0490  179.1430  142.3960 C   0  0  1  0  0  3  0  0  0  0  0  0
  183.7230  179.1220  142.8350 O   0  0  0  0  0  1  0  0  0  0  0  0
  186.4280  178.2290  140.4710 C   0  0  1  0  0  3  0  0  0  0  0  0
  188.6840  178.3420  140.6300 O   0  0  0  0  0  0  0  0  0  0  0  0
  185.8950  178.1210  143.1890 C   0  0  0  0  0  2  0  0  0  0  0  0
  184.0500  178.2550  140.3610 O   0  0  0  0  0  1  0  0  0  0  0  0
  185.1450  178.9680  140.8520 C   0  0  1  0  0  3  0  0  0  0  0  0
  187.3750  178.0760  142.7370 C   0  0  1  0  0  3  0  0  0  0  0  0
  187.8710  176.6350  142.8060 C   0  0  0  0  0  2  0  0  0  0  0  0
  190.4000  178.5990  144.2020 C   0  0  0  0  0  2  0  0  0  0  0  0
  191.6920  177.7740  144.3080 C   0  0  0  0  0  2  0  0  0  0  0  0
  191.5010  176.2870  143.9890 C   0  0  0  0  0  2  0  0  0  0  0  0
  189.0030  176.4970  143.8110 C   0  0  1  0  0  3  0  0  0  0  0  0
  190.2880  176.0560  143.0970 C   0  0  0  0  0  2  0  0  0  0  0  0
  189.1530  177.8010  144.6110 C   0  0  1  0  0  3  0  0  0  0  0  0
  187.7540  177.6290  146.6810 C   0  0  0  0  0  1  0  0  0  0  0  0
  189.1510  177.4910  146.1030 C   0  0  0  0  0  2  0  0  0  0  0  0
  186.7450  177.4780  138.1070 C   0  0  0  0  0  2  0  0  0  0  0  0
  190.1040  176.5400  135.6440 C   0  0  0  0  0  3  0  0  0  0  0  0
  187.9340  177.1520  137.2600 C   0  0  0  0  0  0  0  0  0  0  0  0
  188.7580  176.0750  137.5960 C   0  0  0  0  0  3  0  0  0  0  0  0
  189.8510  175.7730  136.7820 C   0  0  0  0  0  3  0  0  0  0  0  0
  189.2550  177.6050  135.3370 C   0  0  0  0  0  3  0  0  0  0  0  0
  188.1980  177.8870  136.1430 N   0  0  0  0  0  0  0  0  0  0  0  0
  1 21  1  6  0  0  0
  1  2  1  0  0  0  0
  1  6  1  0  0  0  0
  2  7  1  0  0  0  0
  3  7  1  6  0  0  0
  3 11  1  0  0  0  0
  4  5  1  1  0  0  0
  4  8  1  0  0  0  0
  6 10  1  0  0  0  0
  6  3  1  0  0  0  0
  9 10  1  0  0  0  0
 10  4  1  0  0  0  0
 11 12  1  0  0  0  0
 11  8  1  0  0  0  0
 12 16  1  0  0  0  0
 13 14  1  0  0  0  0
 13 18  1  0  0  0  0
 15 14  1  0  0  0  0
 16 18  1  0  0  0  0
 17 16  1  0  0  0  0
 17 15  1  0  0  0  0
 18 20  1  0  0  0  0
 20 19  1  0  0  0  0
 22 25  1  0  0  0  0
 23 24  1  0  0  0  0
 23 21  1  0  0  0  0
 25 24  2  0  0  0  0
 26 22  2  0  0  0  0
 26 27  1  0  0  0  0
 27 23  2  0  0  0  0
M  END
>  <MODEL>
3

>  <REMARK>
 VINA RESULT:      -7.6      3.503      4.862
  Name = 
  5 active torsions:
  status: ('A' for Active; 'I' for Inactive)
    1  A    between atoms: C_1  and  C_15
    2  A    between atoms: C_9  and  C_15
    3  A    between atoms: C_12  and  C_14
    4  A    between atoms: C_12  and  C_26
    5  A    between atoms: C_17  and  C_21
                            x       y       z     vdW  Elec       q    Type
                         _______ _______ _______ _____ _____    ______ ____

>  <TORSDO>
F 5

$$$$
=
 OpenBabel10262420153D

 27 30  0  0  1  0  0  0  0  0999 V2000
  188.5450  177.7770  142.1240 C   0  0  2  0  0  3  0  0  0  0  0  0
  187.5380  178.3110  141.2800 O   0  0  0  0  0  0  0  0  0  0  0  0
  189.2380  177.9180  139.9980 C   0  0  2  0  0  3  0  0  0  0  0  0
  191.9350  177.5570  140.3100 C   0  0  1  0  0  3  0  0  0  0  0  0
  193.2360  177.1170  140.5630 O   0  0  0  0  0  1  0  0  0  0  0  0
  189.5970  177.2060  141.2350 C   0  0  1  0  0  3  0  0  0  0  0  0
  187.8460  177.9760  140.0220 O   0  0  0  0  0  0  0  0  0  0  0  0
  191.3300  176.7890  139.1120 C   0  0  0  0  0  2  0  0  0  0  0  0
  191.5120  176.5290  142.4770 O   0  0  0  0  0  1  0  0  0  0  0  0
  191.0530  177.5070  141.5920 C   0  0  1  0  0  3  0  0  0  0  0  0
  189.8770  177.2120  138.7900 C   0  0  1  0  0  3  0  0  0  0  0  0
  189.0880  175.9830  138.3510 C   0  0  0  0  0  2  0  0  0  0  0  0
  187.5480  178.4540  136.4200 C   0  0  0  0  0  2  0  0  0  0  0  0
  186.4260  177.8240  135.5790 C   0  0  0  0  0  2  0  0  0  0  0  0
  186.4040  176.2920  135.6300 C   0  0  0  0  0  2  0  0  0  0  0  0
  188.5440  176.1600  136.9420 C   0  0  1  0  0  3  0  0  0  0  0  0
  187.0620  175.7640  136.8990 C   0  0  0  0  0  2  0  0  0  0  0  0
  188.8190  177.5910  136.4530 C   0  0  1  0  0  3  0  0  0  0  0  0
  190.3670  176.3070  134.9620 C   0  0  0  0  0  1  0  0  0  0  0  0
  189.5000  177.5450  135.0900 C   0  0  0  0  0  2  0  0  0  0  0  0
  187.9680  176.7200  143.0680 C   0  0  0  0  0  2  0  0  0  0  0  0
  188.3740  177.7330  147.1960 C   0  0  0  0  0  3  0  0  0  0  0  0
  188.1030  177.0930  144.5100 C   0  0  0  0  0  0  0  0  0  0  0  0
  186.9760  177.4770  145.2410 C   0  0  0  0  0  3  0  0  0  0  0  0
  187.1180  177.8020  146.5910 C   0  0  0  0  0  3  0  0  0  0  0  0
  189.4760  177.3380  146.4350 C   0  0  0  0  0  3  0  0  0  0  0  0
  189.3200  177.0290  145.1200 N   0  0  0  0  0  0  0  0  0  0  0  0
  1 21  1  1  0  0  0
  2  1  1  0  0  0  0
  3  7  1  6  0  0  0
  3  6  1  0  0  0  0
  4  5  1  1  0  0  0
  4 10  1  0  0  0  0
  6 10  1  0  0  0  0
  6  1  1  0  0  0  0
  7  2  1  0  0  0  0
  8  4  1  0  0  0  0
 10  9  1  0  0  0  0
 11  8  1  0  0  0  0
 11  3  1  0  0  0  0
 12 11  1  0  0  0  0
 13 18  1  0  0  0  0
 14 15  1  0  0  0  0
 14 13  1  0  0  0  0
 15 17  1  0  0  0  0
 16 12  1  0  0  0  0
 17 16  1  0  0  0  0
 18 16  1  0  0  0  0
 19 20  1  0  0  0  0
 20 18  1  0  0  0  0
 21 23  1  0  0  0  0
 23 27  2  0  0  0  0
 23 24  1  0  0  0  0
 24 25  2  0  0  0  0
 25 22  1  0  0  0  0
 26 22  2  0  0  0  0
 27 26  1  0  0  0  0
M  END
>  <MODEL>
4

>  <REMARK>
 VINA RESULT:      -7.4      4.670      8.081
  Name = 
  5 active torsions:
  status: ('A' for Active; 'I' for Inactive)
    1  A    between atoms: C_1  and  C_15
    2  A    between atoms: C_9  and  C_15
    3  A    between atoms: C_12  and  C_14
    4  A    between atoms: C_12  and  C_26
    5  A    between atoms: C_17  and  C_21
                            x       y       z     vdW  Elec       q    Type
                         _______ _______ _______ _____ _____    ______ ____

>  <TORSDO>
F 5

$$$$
=
 OpenBabel10262420153D

 27 30  0  0  1  0  0  0  0  0999 V2000
  186.8390  177.7010  142.1480 C   0  0  2  0  0  3  0  0  0  0  0  0
  186.6750  176.8130  143.2420 O   0  0  0  0  0  0  0  0  0  0  0  0
  188.7190  176.5570  142.5750 C   0  0  2  0  0  3  0  0  0  0  0  0
  190.1550  177.0570  140.2970 C   0  0  1  0  0  3  0  0  0  0  0  0
  190.8770  177.5800  139.2220 O   0  0  0  0  0  1  0  0  0  0  0  0
  188.3030  177.7830  141.8750 C   0  0  1  0  0  3  0  0  0  0  0  0
  187.8940  176.5020  143.6960 O   0  0  0  0  0  0  0  0  0  0  0  0
  190.9860  177.1430  141.5980 C   0  0  0  0  0  2  0  0  0  0  0  0
  188.7470  178.9990  139.8760 O   0  0  0  0  0  1  0  0  0  0  0  0
  188.7460  177.7100  140.4140 C   0  0  1  0  0  3  0  0  0  0  0  0
  190.2340  176.5990  142.8370 C   0  0  1  0  0  3  0  0  0  0  0  0
  190.5920  177.4530  144.0480 C   0  0  0  0  0  2  0  0  0  0  0  0
  190.9530  177.9310  147.4900 C   0  0  0  0  0  2  0  0  0  0  0  0
  191.7120  176.7410  148.0970 C   0  0  0  0  0  2  0  0  0  0  0  0
  191.9240  175.5810  147.1180 C   0  0  0  0  0  2  0  0  0  0  0  0
  190.5090  176.6410  145.3300 C   0  0  1  0  0  3  0  0  0  0  0  0
  191.8870  176.0550  145.6710 C   0  0  0  0  0  2  0  0  0  0  0  0
  189.9040  177.4980  146.4540 C   0  0  1  0  0  3  0  0  0  0  0  0
  187.4470  177.5080  146.9330 C   0  0  0  0  0  1  0  0  0  0  0  0
  188.7490  176.7480  147.1060 C   0  0  0  0  0  2  0  0  0  0  0  0
  186.2450  179.0750  142.4610 C   0  0  0  0  0  2  0  0  0  0  0  0
  182.3070  178.8900  144.1020 C   0  0  0  0  0  3  0  0  0  0  0  0
  184.8700  178.9940  143.0460 C   0  0  0  0  0  0  0  0  0  0  0  0
  184.6950  179.0640  144.4310 C   0  0  0  0  0  3  0  0  0  0  0  0
  183.4040  179.0080  144.9580 C   0  0  0  0  0  3  0  0  0  0  0  0
  182.5220  178.8290  142.7240 C   0  0  0  0  0  3  0  0  0  0  0  0
  183.7860  178.8820  142.2290 N   0  0  0  0  0  0  0  0  0  0  0  0
  1 21  1  1  0  0  0
  1  2  1  0  0  0  0
  2  7  1  0  0  0  0
  3 11  1  0  0  0  0
  3  7  1  1  0  0  0
  4  5  1  6  0  0  0
  4 10  1  0  0  0  0
  4  8  1  0  0  0  0
  6  1  1  0  0  0  0
  6  3  1  0  0  0  0
  8 11  1  0  0  0  0
  9 10  1  0  0  0  0
 10  6  1  0  0  0  0
 11 12  1  0  0  0  0
 12 16  1  0  0  0  0
 13 14  1  0  0  0  0
 15 14  1  0  0  0  0
 16 17  1  0  0  0  0
 16 18  1  0  0  0  0
 17 15  1  0  0  0  0
 18 20  1  0  0  0  0
 18 13  1  0  0  0  0
 19 20  1  0  0  0  0
 21 23  1  0  0  0  0
 22 25  1  0  0  0  0
 23 24  1  0  0  0  0
 24 25  2  0  0  0  0
 26 22  2  0  0  0  0
 27 26  1  0  0  0  0
 27 23  2  0  0  0  0
M  END
>  <MODEL>
5

>  <REMARK>
 VINA RESULT:      -7.2      2.368      4.671
  Name = 
  5 active torsions:
  status: ('A' for Active; 'I' for Inactive)
    1  A    between atoms: C_1  and  C_15
    2  A    between atoms: C_9  and  C_15
    3  A    between atoms: C_12  and  C_14
    4  A    between atoms: C_12  and  C_26
    5  A    between atoms: C_17  and  C_21
                            x       y       z     vdW  Elec       q    Type
                         _______ _______ _______ _____ _____    ______ ____

>  <TORSDO>
F 5

$$$$
=
 OpenBabel10262420153D

 27 30  0  0  1  0  0  0  0  0999 V2000
  185.6960  178.6960  145.2060 C   0  0  2  0  0  3  0  0  0  0  0  0
  184.6240  179.3830  145.8300 O   0  0  0  0  0  0  0  0  0  0  0  0
  184.1760  179.3880  143.7120 C   0  0  2  0  0  3  0  0  0  0  0  0
  185.5670  179.0670  141.3740 C   0  0  1  0  0  3  0  0  0  0  0  0
  186.2730  178.6300  140.2520 O   0  0  0  0  0  1  0  0  0  0  0  0
  185.2670  178.4060  143.8070 C   0  0  1  0  0  3  0  0  0  0  0  0
  183.5930  179.3830  144.9770 O   0  0  0  0  0  0  0  0  0  0  0  0
  184.0960  178.5980  141.3020 C   0  0  0  0  0  2  0  0  0  0  0  0
  187.0600  177.5180  142.5150 O   0  0  0  0  0  1  0  0  0  0  0  0
  186.2850  178.6650  142.6960 C   0  0  1  0  0  3  0  0  0  0  0  0
  183.2580  179.0300  142.5300 C   0  0  1  0  0  3  0  0  0  0  0  0
  182.2730  177.9180  142.8750 C   0  0  0  0  0  2  0  0  0  0  0  0
  180.5040  179.5410  140.3380 C   0  0  0  0  0  2  0  0  0  0  0  0
  179.4730  180.4970  140.9600 C   0  0  0  0  0  2  0  0  0  0  0  0
  179.3320  180.3460  142.4790 C   0  0  0  0  0  2  0  0  0  0  0  0
  180.8460  178.3410  142.5670 C   0  0  1  0  0  3  0  0  0  0  0  0
  180.5910  179.7560  143.1030 C   0  0  0  0  0  2  0  0  0  0  0  0
  180.5700  178.1880  141.0620 C   0  0  1  0  0  3  0  0  0  0  0  0
  179.6190  175.9200  140.5930 C   0  0  0  0  0  1  0  0  0  0  0  0
  179.2950  177.3790  140.8540 C   0  0  0  0  0  2  0  0  0  0  0  0
  186.0470  177.4160  145.9670 C   0  0  0  0  0  2  0  0  0  0  0  0
  189.9350  177.5940  147.7230 C   0  0  0  0  0  3  0  0  0  0  0  0
  187.4120  177.4590  146.5780 C   0  0  0  0  0  0  0  0  0  0  0  0
  188.5320  177.1290  145.8110 C   0  0  0  0  0  3  0  0  0  0  0  0
  189.7990  177.1950  146.3920 C   0  0  0  0  0  3  0  0  0  0  0  0
  188.7930  177.9220  148.4560 C   0  0  0  0  0  3  0  0  0  0  0  0
  187.5660  177.8490  147.8740 N   0  0  0  0  0  0  0  0  0  0  0  0
  1  2  1  0  0  0  0
  1 21  1  1  0  0  0
  3  6  1  0  0  0  0
  3  7  1  1  0  0  0
  4  5  1  6  0  0  0
  4 10  1  0  0  0  0
  6  1  1  0  0  0  0
  7  2  1  0  0  0  0
  8  4  1  0  0  0  0
  8 11  1  0  0  0  0
  9 10  1  0  0  0  0
 10  6  1  0  0  0  0
 11 12  1  0  0  0  0
 11  3  1  0  0  0  0
 13 14  1  0  0  0  0
 13 18  1  0  0  0  0
 14 15  1  0  0  0  0
 15 17  1  0  0  0  0
 16 12  1  0  0  0  0
 16 17  1  0  0  0  0
 18 16  1  0  0  0  0
 19 20  1  0  0  0  0
 20 18  1  0  0  0  0
 21 23  1  0  0  0  0
 22 26  1  0  0  0  0
 23 27  1  0  0  0  0
 24 25  1  0  0  0  0
 24 23  2  0  0  0  0
 25 22  2  0  0  0  0
 27 26  2  0  0  0  0
M  END
>  <MODEL>
6

>  <REMARK>
 VINA RESULT:      -7.2      2.499      8.306
  Name = 
  5 active torsions:
  status: ('A' for Active; 'I' for Inactive)
    1  A    between atoms: C_1  and  C_15
    2  A    between atoms: C_9  and  C_15
    3  A    between atoms: C_12  and  C_14
    4  A    between atoms: C_12  and  C_26
    5  A    between atoms: C_17  and  C_21
                            x       y       z     vdW  Elec       q    Type
                         _______ _______ _______ _____ _____    ______ ____

>  <TORSDO>
F 5

$$$$
=
 OpenBabel10262420153D

 27 30  0  0  1  0  0  0  0  0999 V2000
  187.4540  177.4000  145.1740 C   0  0  2  0  0  3  0  0  0  0  0  0
  187.9730  176.4020  144.3110 O   0  0  0  0  0  0  0  0  0  0  0  0
  186.3450  177.3300  143.2290 C   0  0  2  0  0  3  0  0  0  0  0  0
  184.1340  178.8260  143.8400 C   0  0  1  0  0  3  0  0  0  0  0  0
  183.1930  179.7980  144.1870 O   0  0  0  0  0  1  0  0  0  0  0  0
  186.5550  178.2590  144.3500 C   0  0  1  0  0  3  0  0  0  0  0  0
  187.5740  176.6940  143.0680 O   0  0  0  0  0  0  0  0  0  0  0  0
  184.7350  179.1300  142.4490 C   0  0  0  0  0  2  0  0  0  0  0  0
  185.3580  179.8120  145.7000 O   0  0  0  0  0  1  0  0  0  0  0  0
  185.2050  178.6410  144.9550 C   0  0  1  0  0  3  0  0  0  0  0  0
  185.8060  178.1010  142.0110 C   0  0  1  0  0  3  0  0  0  0  0  0
  186.9080  178.8270  141.2470 C   0  0  0  0  0  2  0  0  0  0  0  0
  189.0660  179.1510  138.5190 C   0  0  0  0  0  2  0  0  0  0  0  0
  188.4050  178.5530  137.2670 C   0  0  0  0  0  2  0  0  0  0  0  0
  187.1030  177.7970  137.5590 C   0  0  0  0  0  2  0  0  0  0  0  0
  187.3680  178.0110  140.0500 C   0  0  1  0  0  3  0  0  0  0  0  0
  186.4510  178.2810  138.8480 C   0  0  0  0  0  2  0  0  0  0  0  0
  188.8550  178.2850  139.7710 C   0  0  1  0  0  3  0  0  0  0  0  0
  190.5670  176.8040  140.8390 C   0  0  0  0  0  1  0  0  0  0  0  0
  189.6100  176.9650  139.6730 C   0  0  0  0  0  2  0  0  0  0  0  0
  188.5800  178.2120  145.8170 C   0  0  0  0  0  2  0  0  0  0  0  0
  192.1130  175.8860  146.3980 C   0  0  0  0  0  3  0  0  0  0  0  0
  189.8240  177.4100  146.0340 C   0  0  0  0  0  0  0  0  0  0  0  0
  190.0990  176.8760  147.2960 C   0  0  0  0  0  3  0  0  0  0  0  0
  191.2540  176.1130  147.4750 C   0  0  0  0  0  3  0  0  0  0  0  0
  191.8010  176.4310  145.1510 C   0  0  0  0  0  3  0  0  0  0  0  0
  190.6730  177.1750  144.9960 N   0  0  0  0  0  0  0  0  0  0  0  0
  1 21  1  6  0  0  0
  2  1  1  0  0  0  0
  3  7  1  6  0  0  0
  3  6  1  0  0  0  0
  4  5  1  1  0  0  0
  4 10  1  0  0  0  0
  6 10  1  0  0  0  0
  6  1  1  0  0  0  0
  7  2  1  0  0  0  0
  8  4  1  0  0  0  0
 10  9  1  0  0  0  0
 11  8  1  0  0  0  0
 11  3  1  0  0  0  0
 12 11  1  0  0  0  0
 13 18  1  0  0  0  0
 14 15  1  0  0  0  0
 14 13  1  0  0  0  0
 15 17  1  0  0  0  0
 16 12  1  0  0  0  0
 17 16  1  0  0  0  0
 18 16  1  0  0  0  0
 20 18  1  0  0  0  0
 20 19  1  0  0  0  0
 21 23  1  0  0  0  0
 22 25  1  0  0  0  0
 23 24  1  0  0  0  0
 24 25  2  0  0  0  0
 26 22  2  0  0  0  0
 27 26  1  0  0  0  0
 27 23  2  0  0  0  0
M  END
>  <MODEL>
7

>  <REMARK>
 VINA RESULT:      -7.2      3.299      7.001
  Name = 
  5 active torsions:
  status: ('A' for Active; 'I' for Inactive)
    1  A    between atoms: C_1  and  C_15
    2  A    between atoms: C_9  and  C_15
    3  A    between atoms: C_12  and  C_14
    4  A    between atoms: C_12  and  C_26
    5  A    between atoms: C_17  and  C_21
                            x       y       z     vdW  Elec       q    Type
                         _______ _______ _______ _____ _____    ______ ____

>  <TORSDO>
F 5

$$$$
=
 OpenBabel10262420153D

 27 30  0  0  1  0  0  0  0  0999 V2000
  188.5810  177.8750  142.1830 C   0  0  2  0  0  3  0  0  0  0  0  0
  187.6090  178.4820  141.3480 O   0  0  0  0  0  0  0  0  0  0  0  0
  189.2890  178.0220  140.0620 C   0  0  2  0  0  3  0  0  0  0  0  0
  191.9610  177.5040  140.3730 C   0  0  1  0  0  3  0  0  0  0  0  0
  193.2340  176.9860  140.6200 O   0  0  0  0  0  1  0  0  0  0  0  0
  189.6030  177.2640  141.2840 C   0  0  1  0  0  3  0  0  0  0  0  0
  187.9030  178.1570  140.0840 O   0  0  0  0  0  0  0  0  0  0  0  0
  191.3180  176.7970  139.1570 C   0  0  0  0  0  2  0  0  0  0  0  0
  191.4720  176.4550  142.5160 O   0  0  0  0  0  1  0  0  0  0  0  0
  191.0720  177.4750  141.6510 C   0  0  1  0  0  3  0  0  0  0  0  0
  189.8920  177.3080  138.8410 C   0  0  1  0  0  3  0  0  0  0  0  0
  189.0370  176.1340  138.3730 C   0  0  0  0  0  2  0  0  0  0  0  0
  186.1110  175.3650  136.6270 C   0  0  0  0  0  2  0  0  0  0  0  0
  186.4500  175.0800  135.1550 C   0  0  0  0  0  2  0  0  0  0  0  0
  187.9020  175.4040  134.7840 C   0  0  0  0  0  2  0  0  0  0  0  0
  188.3990  176.4290  137.0250 C   0  0  1  0  0  3  0  0  0  0  0  0
  188.8150  175.3610  136.0030 C   0  0  0  0  0  2  0  0  0  0  0  0
  186.8770  176.5720  137.1890 C   0  0  1  0  0  3  0  0  0  0  0  0
  187.5530  178.8760  136.4780 C   0  0  0  0  0  1  0  0  0  0  0  0
  186.4130  177.8760  136.5500 C   0  0  0  0  0  2  0  0  0  0  0  0
  187.9420  176.8310  143.1020 C   0  0  0  0  0  2  0  0  0  0  0  0
  188.3030  177.7840  147.2490 C   0  0  0  0  0  3  0  0  0  0  0  0
  188.0610  177.1830  144.5510 C   0  0  0  0  0  0  0  0  0  0  0  0
  186.9230  177.5390  145.2800 C   0  0  0  0  0  3  0  0  0  0  0  0
  187.0500  177.8440  146.6360 C   0  0  0  0  0  3  0  0  0  0  0  0
  189.4160  177.4180  146.4890 C   0  0  0  0  0  3  0  0  0  0  0  0
  189.2740  177.1280  145.1690 N   0  0  0  0  0  0  0  0  0  0  0  0
  1 21  1  6  0  0  0
  2  1  1  0  0  0  0
  3  7  1  6  0  0  0
  3  6  1  0  0  0  0
  4  5  1  1  0  0  0
  4 10  1  0  0  0  0
  6 10  1  0  0  0  0
  6  1  1  0  0  0  0
  7  2  1  0  0  0  0
  8  4  1  0  0  0  0
 10  9  1  0  0  0  0
 11  8  1  0  0  0  0
 11  3  1  0  0  0  0
 12 11  1  0  0  0  0
 13 18  1  0  0  0  0
 14 13  1  0  0  0  0
 15 14  1  0  0  0  0
 15 17  1  0  0  0  0
 16 18  1  0  0  0  0
 16 12  1  0  0  0  0
 17 16  1  0  0  0  0
 19 20  1  0  0  0  0
 20 18  1  0  0  0  0
 21 23  1  0  0  0  0
 23 27  2  0  0  0  0
 23 24  1  0  0  0  0
 24 25  2  0  0  0  0
 25 22  1  0  0  0  0
 26 22  2  0  0  0  0
 27 26  1  0  0  0  0
M  END
>  <MODEL>
8

>  <REMARK>
 VINA RESULT:      -7.2      4.489      8.022
  Name = 
  5 active torsions:
  status: ('A' for Active; 'I' for Inactive)
    1  A    between atoms: C_1  and  C_15
    2  A    between atoms: C_9  and  C_15
    3  A    between atoms: C_12  and  C_14
    4  A    between atoms: C_12  and  C_26
    5  A    between atoms: C_17  and  C_21
                            x       y       z     vdW  Elec       q    Type
                         _______ _______ _______ _____ _____    ______ ____

>  <TORSDO>
F 5

$$$$
=
 OpenBabel10262420153D

 27 30  0  0  1  0  0  0  0  0999 V2000
  188.2820  178.0760  142.3190 C   0  0  2  0  0  3  0  0  0  0  0  0
  187.3430  178.8710  141.6130 O   0  0  0  0  0  0  0  0  0  0  0  0
  188.8820  178.3630  140.1790 C   0  0  2  0  0  3  0  0  0  0  0  0
  191.4870  177.5210  140.2560 C   0  0  1  0  0  3  0  0  0  0  0  0
  192.7020  176.8420  140.3640 O   0  0  0  0  0  1  0  0  0  0  0  0
  189.1720  177.4520  141.2970 C   0  0  1  0  0  3  0  0  0  0  0  0
  187.5240  178.6480  140.3070 O   0  0  0  0  0  0  0  0  0  0  0  0
  190.6980  177.0190  139.0240 C   0  0  0  0  0  2  0  0  0  0  0  0
  191.0010  176.3170  142.3160 O   0  0  0  0  0  1  0  0  0  0  0  0
  190.6740  177.4590  141.5820 C   0  0  1  0  0  3  0  0  0  0  0  0
  189.3260  177.7160  138.8560 C   0  0  1  0  0  3  0  0  0  0  0  0
  188.3150  176.6990  138.3360 C   0  0  0  0  0  2  0  0  0  0  0  0
  186.2450  175.8200  135.6630 C   0  0  0  0  0  2  0  0  0  0  0  0
  186.2880  176.9240  134.5950 C   0  0  0  0  0  2  0  0  0  0  0  0
  187.0290  178.1880  135.0450 C   0  0  0  0  0  2  0  0  0  0  0  0
  187.3130  177.3580  137.4010 C   0  0  1  0  0  3  0  0  0  0  0  0
  188.0320  177.8860  136.1510 C   0  0  0  0  0  2  0  0  0  0  0  0
  186.1670  176.3800  137.0910 C   0  0  1  0  0  3  0  0  0  0  0  0
  184.9950  178.2240  138.3140 C   0  0  0  0  0  1  0  0  0  0  0  0
  184.8290  177.0600  137.3540 C   0  0  0  0  0  2  0  0  0  0  0  0
  187.5780  177.0210  143.1740 C   0  0  0  0  0  2  0  0  0  0  0  0
  187.6740  177.8890  147.3530 C   0  0  0  0  0  3  0  0  0  0  0  0
  187.6060  177.3440  144.6340 C   0  0  0  0  0  0  0  0  0  0  0  0
  186.4470  177.7910  145.2740 C   0  0  0  0  0  3  0  0  0  0  0  0
  186.4870  178.0680  146.6410 C   0  0  0  0  0  3  0  0  0  0  0  0
  188.8100  177.4340  146.6810 C   0  0  0  0  0  3  0  0  0  0  0  0
  188.7540  177.1730  145.3490 N   0  0  0  0  0  0  0  0  0  0  0  0
  1 21  1  6  0  0  0
  2  1  1  0  0  0  0
  3  7  1  6  0  0  0
  3  6  1  0  0  0  0
  4  5  1  1  0  0  0
  4 10  1  0  0  0  0
  6 10  1  0  0  0  0
  6  1  1  0  0  0  0
  7  2  1  0  0  0  0
  8  4  1  0  0  0  0
 10  9  1  0  0  0  0
 11  8  1  0  0  0  0
 11  3  1  0  0  0  0
 12 11  1  0  0  0  0
 13 18  1  0  0  0  0
 14 15  1  0  0  0  0
 14 13  1  0  0  0  0
 15 17  1  0  0  0  0
 16 12  1  0  0  0  0
 17 16  1  0  0  0  0
 18 20  1  0  0  0  0
 18 16  1  0  0  0  0
 20 19  1  0  0  0  0
 21 23  1  0  0  0  0
 23 24  2  0  0  0  0
 23 27  1  0  0  0  0
 24 25  1  0  0  0  0
 25 22  2  0  0  0  0
 26 22  1  0  0  0  0
 27 26  2  0  0  0  0
M  END
>  <MODEL>
9

>  <REMARK>
 VINA RESULT:      -7.2      4.120      7.813
  Name = 
  5 active torsions:
  status: ('A' for Active; 'I' for Inactive)
    1  A    between atoms: C_1  and  C_15
    2  A    between atoms: C_9  and  C_15
    3  A    between atoms: C_12  and  C_14
    4  A    between atoms: C_12  and  C_26
    5  A    between atoms: C_17  and  C_21
                            x       y       z     vdW  Elec       q    Type
                         _______ _______ _______ _____ _____    ______ ____

>  <TORSDO>
F 5

$$$$
