=
 OpenBabel10262421503D

 30 32  0  0  1  0  0  0  0  0999 V2000
  191.0400  177.8300  145.5140 C   0  0  1  0  0  3  0  0  0  0  0  0
  189.7630  177.2480  146.1110 C   0  0  1  0  0  3  0  0  0  0  0  0
  190.2620  176.1890  147.0370 C   0  0  0  0  0  3  0  0  0  0  0  0
  192.0750  177.0290  146.0570 O   0  0  0  0  0  0  0  0  0  0  0  0
  191.5770  176.1050  146.9560 C   0  0  0  0  0  3  0  0  0  0  0  0
  192.0490  177.8070  143.3740 O   0  0  0  0  0  0  0  0  0  0  0  0
  191.0150  177.7180  144.0210 C   0  0  0  0  0  0  0  0  0  0  0  0
  189.7060  177.4710  143.3380 C   0  0  2  0  0  3  0  0  0  0  0  0
  190.4410  175.2200  142.9540 O   0  0  0  0  0  0  0  0  0  0  0  0
  189.4720  176.0060  143.1290 C   0  0  0  0  0  0  0  0  0  0  0  0
  188.1450  175.4960  143.1590 N   0  0  0  0  0  1  0  0  0  0  0  0
  189.6130  178.2600  142.0360 C   0  0  0  0  0  2  0  0  0  0  0  0
  191.0520  177.3410  140.2240 C   0  0  0  0  0  1  0  0  0  0  0  0
  189.6600  177.3360  140.8240 C   0  0  2  0  0  3  0  0  0  0  0  0
  188.6180  177.7180  139.7740 C   0  0  0  0  0  2  0  0  0  0  0  0
  188.6590  178.6310  137.6140 C   0  0  0  0  0  2  0  0  0  0  0  0
  187.9430  177.3640  137.5570 C   0  0  0  0  0  2  0  0  0  0  0  0
  189.1210  177.4960  138.4260 N   0  0  0  0  0  0  0  0  0  0  0  0
  189.0130  178.3220  146.8790 C   0  0  0  0  0  2  0  0  0  0  0  0
  187.6860  177.7920  147.4020 C   0  0  1  0  0  3  0  0  0  0  0  0
  187.7470  177.7260  148.9120 C   0  0  0  0  0  1  0  0  0  0  0  0
  186.6020  178.6860  147.0070 N   0  0  0  0  0  2  0  0  0  0  0  0
  184.5420  178.3780  142.9880 C   0  0  0  0  0  0  0  0  0  0  0  0
  183.8120  179.4170  143.7690 C   0  0  0  0  0  2  0  0  0  0  0  0
  184.0580  178.0150  141.7770 F   0  0  0  0  0  0  0  0  0  0  0  0
  185.7900  178.5010  145.8420 C   0  0  0  0  0  0  0  0  0  0  0  0
  183.4330  178.9170  145.1200 C   0  0  0  0  0  3  0  0  0  0  0  0
  185.7160  177.8860  143.3850 C   0  0  0  0  0  3  0  0  0  0  0  0
  184.3270  178.5470  146.0360 C   0  0  0  0  0  3  0  0  0  0  0  0
  186.3740  178.1650  144.6770 C   0  0  0  0  0  3  0  0  0  0  0  0
  1  7  1  6  0  0  0
  1  4  1  0  0  0  0
  1  2  1  0  0  0  0
  2 19  1  1  0  0  0
  2  3  1  0  0  0  0
  4  5  1  0  0  0  0
  5  3  2  0  0  0  0
  6  7  2  0  0  0  0
  8 12  1  6  0  0  0
  8  7  1  0  0  0  0
  9 10  2  0  0  0  0
 10 11  1  0  0  0  0
 10  8  1  0  0  0  0
 14 13  1  6  0  0  0
 14 12  1  0  0  0  0
 15 14  1  0  0  0  0
 16 18  1  0  0  0  0
 17 16  1  0  0  0  0
 17 18  1  0  0  0  0
 18 15  1  0  0  0  0
 19 20  1  0  0  0  0
 20 21  1  1  0  0  0
 22 20  1  0  0  0  0
 23 28  2  0  0  0  0
 23 24  1  0  0  0  0
 24 27  1  0  0  0  0
 25 23  1  0  0  0  0
 26 29  1  0  0  0  0
 26 22  1  0  0  0  0
 27 29  2  0  0  0  0
 28 30  1  0  0  0  0
 30 26  2  0  0  0  0
M  END
>  <MODEL>
1

>  <REMARK>
 VINA RESULT:      -7.7      0.000      0.000
  Name = 
  11 active torsions:
  status: ('A' for Active; 'I' for Inactive)
    1  A    between atoms: N_3  and  C_11
    2  A    between atoms: N_3  and  C_19
    3  A    between atoms: C_4  and  C_13
    4  A    between atoms: C_7  and  C_30
    5  A    between atoms: C_8  and  C_12
    6  A    between atoms: C_8  and  C_13
    7  A    between atoms: C_9  and  C_12
    8  A    between atoms: C_9  and  N_21
    9  A    between atoms: C_10  and  C_25
   10  A    between atoms: C_11  and  C_25
   11  A    between atoms: C_13  and  C_30
                            x       y       z     vdW  Elec       q    Type
                         _______ _______ _______ _____ _____    ______ ____

>  <TORSDO>
F 11

$$$$
=
 OpenBabel10262421503D

 30 32  0  0  1  0  0  0  0  0999 V2000
  184.7350  178.1090  143.2510 C   0  0  1  0  0  3  0  0  0  0  0  0
  185.8080  178.5070  144.2590 C   0  0  1  0  0  3  0  0  0  0  0  0
  185.0220  178.9950  145.4310 C   0  0  0  0  0  3  0  0  0  0  0  0
  183.5170  178.4750  143.8760 O   0  0  0  0  0  0  0  0  0  0  0  0
  183.7330  178.9630  145.1510 C   0  0  0  0  0  3  0  0  0  0  0  0
  185.6590  179.8340  141.9220 O   0  0  0  0  0  0  0  0  0  0  0  0
  184.9180  178.8620  141.9710 C   0  0  0  0  0  0  0  0  0  0  0  0
  184.1950  178.3910  140.7470 C   0  0  2  0  0  3  0  0  0  0  0  0
  185.6460  178.5640  138.8440 O   0  0  0  0  0  0  0  0  0  0  0  0
  184.7120  179.0740  139.5170 C   0  0  0  0  0  0  0  0  0  0  0  0
  184.1180  180.2930  139.0900 N   0  0  0  0  0  1  0  0  0  0  0  0
  182.6870  178.5560  140.9060 C   0  0  0  0  0  2  0  0  0  0  0  0
  180.4900  177.5010  140.4000 C   0  0  0  0  0  1  0  0  0  0  0  0
  181.9270  177.6540  139.9420 C   0  0  2  0  0  3  0  0  0  0  0  0
  182.5950  176.2880  139.7910 C   0  0  0  0  0  2  0  0  0  0  0  0
  183.5220  175.0820  138.0060 C   0  0  0  0  0  2  0  0  0  0  0  0
  183.0960  176.3810  137.5030 C   0  0  0  0  0  2  0  0  0  0  0  0
  182.2770  175.6840  138.5050 N   0  0  0  0  0  0  0  0  0  0  0  0
  186.6400  177.2930  144.6390 C   0  0  0  0  0  2  0  0  0  0  0  0
  188.1140  177.6530  144.7400 C   0  0  1  0  0  3  0  0  0  0  0  0
  188.5880  177.3830  146.1510 C   0  0  0  0  0  1  0  0  0  0  0  0
  188.8910  176.8370  143.8120 N   0  0  0  0  0  2  0  0  0  0  0  0
  189.6880  177.8920  139.4830 C   0  0  0  0  0  0  0  0  0  0  0  0
  190.7440  176.9220  139.8920 C   0  0  0  0  0  2  0  0  0  0  0  0
  189.7610  178.4510  138.2520 F   0  0  0  0  0  0  0  0  0  0  0  0
  189.3130  177.2740  142.5150 C   0  0  0  0  0  0  0  0  0  0  0  0
  191.4110  177.3440  141.1570 C   0  0  0  0  0  3  0  0  0  0  0  0
  188.6150  178.1320  140.2360 C   0  0  0  0  0  3  0  0  0  0  0  0
  190.7640  177.4620  142.3160 C   0  0  0  0  0  3  0  0  0  0  0  0
  188.3870  177.6170  141.6010 C   0  0  0  0  0  3  0  0  0  0  0  0
  1  7  1  6  0  0  0
  1  4  1  0  0  0  0
  1  2  1  0  0  0  0
  2 19  1  1  0  0  0
  2  3  1  0  0  0  0
  4  5  1  0  0  0  0
  5  3  2  0  0  0  0
  6  7  2  0  0  0  0
  8 12  1  1  0  0  0
  8  7  1  0  0  0  0
  9 10  2  0  0  0  0
 10  8  1  0  0  0  0
 11 10  1  0  0  0  0
 14 13  1  1  0  0  0
 14 12  1  0  0  0  0
 15 14  1  0  0  0  0
 16 18  1  0  0  0  0
 17 16  1  0  0  0  0
 17 18  1  0  0  0  0
 18 15  1  0  0  0  0
 19 20  1  0  0  0  0
 20 21  1  1  0  0  0
 22 20  1  0  0  0  0
 23 24  1  0  0  0  0
 23 28  2  0  0  0  0
 24 27  1  0  0  0  0
 25 23  1  0  0  0  0
 26 22  1  0  0  0  0
 27 29  2  0  0  0  0
 28 30  1  0  0  0  0
 29 26  1  0  0  0  0
 30 26  2  0  0  0  0
M  END
>  <MODEL>
2

>  <REMARK>
 VINA RESULT:      -7.6      3.820      6.596
  Name = 
  11 active torsions:
  status: ('A' for Active; 'I' for Inactive)
    1  A    between atoms: N_3  and  C_11
    2  A    between atoms: N_3  and  C_19
    3  A    between atoms: C_4  and  C_13
    4  A    between atoms: C_7  and  C_30
    5  A    between atoms: C_8  and  C_12
    6  A    between atoms: C_8  and  C_13
    7  A    between atoms: C_9  and  C_12
    8  A    between atoms: C_9  and  N_21
    9  A    between atoms: C_10  and  C_25
   10  A    between atoms: C_11  and  C_25
   11  A    between atoms: C_13  and  C_30
                            x       y       z     vdW  Elec       q    Type
                         _______ _______ _______ _____ _____    ______ ____

>  <TORSDO>
F 11

$$$$
=
 OpenBabel10262421503D

 30 32  0  0  1  0  0  0  0  0999 V2000
  186.3170  178.7320  144.7400 C   0  0  1  0  0  3  0  0  0  0  0  0
  185.0100  178.3350  144.0630 C   0  0  1  0  0  3  0  0  0  0  0  0
  183.9970  178.4760  145.1510 C   0  0  0  0  0  3  0  0  0  0  0  0
  185.9560  178.9560  146.0920 O   0  0  0  0  0  0  0  0  0  0  0  0
  184.5930  178.8200  146.2770 C   0  0  0  0  0  3  0  0  0  0  0  0
  187.0990  176.6570  143.9160 O   0  0  0  0  0  0  0  0  0  0  0  0
  187.3140  177.6200  144.6390 C   0  0  0  0  0  0  0  0  0  0  0  0
  188.5880  177.7190  145.4190 C   0  0  2  0  0  3  0  0  0  0  0  0
  190.2090  176.5980  144.0510 O   0  0  0  0  0  0  0  0  0  0  0  0
  189.7810  177.6890  144.5140 C   0  0  0  0  0  0  0  0  0  0  0  0
  190.4160  178.9080  144.1500 N   0  0  0  0  0  1  0  0  0  0  0  0
  188.6540  176.6380  146.4940 C   0  0  0  0  0  2  0  0  0  0  0  0
  188.8500  178.5860  148.0330 C   0  0  0  0  0  1  0  0  0  0  0  0
  189.3050  177.1640  147.7680 C   0  0  2  0  0  3  0  0  0  0  0  0
  190.8300  177.0880  147.7040 C   0  0  0  0  0  2  0  0  0  0  0  0
  192.7160  175.7230  147.9910 C   0  0  0  0  0  2  0  0  0  0  0  0
  192.3130  175.6520  146.5930 C   0  0  0  0  0  2  0  0  0  0  0  0
  191.2880  175.7070  147.6440 N   0  0  0  0  0  0  0  0  0  0  0  0
  184.7060  179.2910  142.9210 C   0  0  0  0  0  2  0  0  0  0  0  0
  184.6640  178.5540  141.5910 C   0  0  1  0  0  3  0  0  0  0  0  0
  183.2540  178.6080  141.0460 C   0  0  0  0  0  1  0  0  0  0  0  0
  185.5680  179.1910  140.6390 N   0  0  0  0  0  2  0  0  0  0  0  0
  189.7350  177.7610  139.5970 C   0  0  0  0  0  0  0  0  0  0  0  0
  189.2270  178.5110  138.4120 C   0  0  0  0  0  2  0  0  0  0  0  0
  190.9310  177.1330  139.5040 F   0  0  0  0  0  0  0  0  0  0  0  0
  186.7910  178.6070  140.1740 C   0  0  0  0  0  0  0  0  0  0  0  0
  187.8790  178.0290  137.9990 C   0  0  0  0  0  3  0  0  0  0  0  0
  189.1120  177.7900  140.7750 C   0  0  0  0  0  3  0  0  0  0  0  0
  186.8050  178.1110  138.7840 C   0  0  0  0  0  3  0  0  0  0  0  0
  187.8010  178.4140  141.0420 C   0  0  0  0  0  3  0  0  0  0  0  0
  1  7  1  1  0  0  0
  1  4  1  0  0  0  0
  2 19  1  6  0  0  0
  2  1  1  0  0  0  0
  2  3  1  0  0  0  0
  3  5  2  0  0  0  0
  4  5  1  0  0  0  0
  6  7  2  0  0  0  0
  7  8  1  0  0  0  0
  8 12  1  1  0  0  0
  9 10  2  0  0  0  0
 10  8  1  0  0  0  0
 11 10  1  0  0  0  0
 12 14  1  0  0  0  0
 14 13  1  6  0  0  0
 15 14  1  0  0  0  0
 17 18  1  0  0  0  0
 17 16  1  0  0  0  0
 18 15  1  0  0  0  0
 18 16  1  0  0  0  0
 20 21  1  6  0  0  0
 20 19  1  0  0  0  0
 22 20  1  0  0  0  0
 23 28  2  0  0  0  0
 24 23  1  0  0  0  0
 25 23  1  0  0  0  0
 26 22  1  0  0  0  0
 26 30  2  0  0  0  0
 27 24  1  0  0  0  0
 27 29  2  0  0  0  0
 28 30  1  0  0  0  0
 29 26  1  0  0  0  0
M  END
>  <MODEL>
3

>  <REMARK>
 VINA RESULT:      -7.6      2.704      6.725
  Name = 
  11 active torsions:
  status: ('A' for Active; 'I' for Inactive)
    1  A    between atoms: N_3  and  C_11
    2  A    between atoms: N_3  and  C_19
    3  A    between atoms: C_4  and  C_13
    4  A    between atoms: C_7  and  C_30
    5  A    between atoms: C_8  and  C_12
    6  A    between atoms: C_8  and  C_13
    7  A    between atoms: C_9  and  C_12
    8  A    between atoms: C_9  and  N_21
    9  A    between atoms: C_10  and  C_25
   10  A    between atoms: C_11  and  C_25
   11  A    between atoms: C_13  and  C_30
                            x       y       z     vdW  Elec       q    Type
                         _______ _______ _______ _____ _____    ______ ____

>  <TORSDO>
F 11

$$$$
=
 OpenBabel10262421503D

 30 32  0  0  1  0  0  0  0  0999 V2000
  185.0040  177.9690  142.8850 C   0  0  1  0  0  3  0  0  0  0  0  0
  186.3570  178.1040  143.5740 C   0  0  1  0  0  3  0  0  0  0  0  0
  185.9980  178.4500  144.9820 C   0  0  0  0  0  3  0  0  0  0  0  0
  184.0650  178.3210  143.8860 O   0  0  0  0  0  0  0  0  0  0  0  0
  184.6890  178.5690  145.0940 C   0  0  0  0  0  3  0  0  0  0  0  0
  185.6670  179.8710  141.6440 O   0  0  0  0  0  0  0  0  0  0  0  0
  184.9150  178.9100  141.7240 C   0  0  0  0  0  0  0  0  0  0  0  0
  183.9050  178.6390  140.6520 C   0  0  2  0  0  3  0  0  0  0  0  0
  184.1310  180.3320  138.9670 O   0  0  0  0  0  0  0  0  0  0  0  0
  184.3750  179.1490  139.3240 C   0  0  0  0  0  0  0  0  0  0  0  0
  185.1320  178.2970  138.4740 N   0  0  0  0  0  1  0  0  0  0  0  0
  182.5400  179.2040  141.0340 C   0  0  0  0  0  2  0  0  0  0  0  0
  180.8340  178.1540  139.5560 C   0  0  0  0  0  1  0  0  0  0  0  0
  181.4540  178.1390  140.9390 C   0  0  2  0  0  3  0  0  0  0  0  0
  180.3830  178.3170  142.0140 C   0  0  0  0  0  2  0  0  0  0  0  0
  179.3670  179.7210  143.5950 C   0  0  0  0  0  2  0  0  0  0  0  0
  179.3120  180.3830  142.2980 C   0  0  0  0  0  2  0  0  0  0  0  0
  180.5050  179.6110  142.6710 N   0  0  0  0  0  0  0  0  0  0  0  0
  187.1020  176.7810  143.5210 C   0  0  0  0  0  2  0  0  0  0  0  0
  188.4730  176.9530  142.8830 C   0  0  1  0  0  3  0  0  0  0  0  0
  188.2970  177.5260  141.4930 C   0  0  0  0  0  1  0  0  0  0  0  0
  189.2810  177.8720  143.6770 N   0  0  0  0  0  2  0  0  0  0  0  0
  191.4370  176.1990  147.2890 C   0  0  0  0  0  0  0  0  0  0  0  0
  189.9850  176.2250  147.6270 C   0  0  0  0  0  2  0  0  0  0  0  0
  192.3210  175.8360  148.2480 F   0  0  0  0  0  0  0  0  0  0  0  0
  189.9130  177.5240  144.9150 C   0  0  0  0  0  0  0  0  0  0  0  0
  189.3870  177.5630  147.3590 C   0  0  0  0  0  3  0  0  0  0  0  0
  191.8810  176.4010  146.0480 C   0  0  0  0  0  3  0  0  0  0  0  0
  189.3360  178.1070  146.1420 C   0  0  0  0  0  3  0  0  0  0  0  0
  191.0570  176.8150  144.8950 C   0  0  0  0  0  3  0  0  0  0  0  0
  1  7  1  6  0  0  0
  1  2  1  0  0  0  0
  1  4  1  0  0  0  0
  2 19  1  1  0  0  0
  2  3  1  0  0  0  0
  3  5  2  0  0  0  0
  4  5  1  0  0  0  0
  6  7  2  0  0  0  0
  8 12  1  1  0  0  0
  8  7  1  0  0  0  0
  9 10  2  0  0  0  0
 10  8  1  0  0  0  0
 11 10  1  0  0  0  0
 14 13  1  6  0  0  0
 14 12  1  0  0  0  0
 14 15  1  0  0  0  0
 15 18  1  0  0  0  0
 17 18  1  0  0  0  0
 17 16  1  0  0  0  0
 18 16  1  0  0  0  0
 20 21  1  6  0  0  0
 20 19  1  0  0  0  0
 20 22  1  0  0  0  0
 22 26  1  0  0  0  0
 23 24  1  0  0  0  0
 23 25  1  0  0  0  0
 26 29  1  0  0  0  0
 27 24  1  0  0  0  0
 28 23  2  0  0  0  0
 29 27  2  0  0  0  0
 30 26  2  0  0  0  0
 30 28  1  0  0  0  0
M  END
>  <MODEL>
4

>  <REMARK>
 VINA RESULT:      -7.4      4.160      7.454
  Name = 
  11 active torsions:
  status: ('A' for Active; 'I' for Inactive)
    1  A    between atoms: N_3  and  C_11
    2  A    between atoms: N_3  and  C_19
    3  A    between atoms: C_4  and  C_13
    4  A    between atoms: C_7  and  C_30
    5  A    between atoms: C_8  and  C_12
    6  A    between atoms: C_8  and  C_13
    7  A    between atoms: C_9  and  C_12
    8  A    between atoms: C_9  and  N_21
    9  A    between atoms: C_10  and  C_25
   10  A    between atoms: C_11  and  C_25
   11  A    between atoms: C_13  and  C_30
                            x       y       z     vdW  Elec       q    Type
                         _______ _______ _______ _____ _____    ______ ____

>  <TORSDO>
F 11

$$$$
=
 OpenBabel10262421503D

 30 32  0  0  1  0  0  0  0  0999 V2000
  188.5140  177.5910  144.4970 C   0  0  1  0  0  3  0  0  0  0  0  0
  187.1060  177.5020  145.0750 C   0  0  1  0  0  3  0  0  0  0  0  0
  187.3400  177.3230  146.5390 C   0  0  0  0  0  3  0  0  0  0  0  0
  189.3630  177.3740  145.6110 O   0  0  0  0  0  0  0  0  0  0  0  0
  188.6360  177.2480  146.7790 C   0  0  0  0  0  3  0  0  0  0  0  0
  187.9660  175.5690  143.3990 O   0  0  0  0  0  0  0  0  0  0  0  0
  188.7210  176.5290  143.4620 C   0  0  0  0  0  0  0  0  0  0  0  0
  189.8530  176.6760  142.4930 C   0  0  2  0  0  3  0  0  0  0  0  0
  191.7610  177.9160  143.2530 O   0  0  0  0  0  0  0  0  0  0  0  0
  191.1630  176.8080  143.2080 C   0  0  0  0  0  0  0  0  0  0  0  0
  191.7180  175.6780  143.8690 N   0  0  0  0  0  1  0  0  0  0  0  0
  189.6020  177.8340  141.5330 C   0  0  0  0  0  2  0  0  0  0  0  0
  191.1860  177.0760  139.7670 C   0  0  0  0  0  1  0  0  0  0  0  0
  189.7360  177.3880  140.0820 C   0  0  2  0  0  3  0  0  0  0  0  0
  189.1840  178.4310  139.1110 C   0  0  0  0  0  2  0  0  0  0  0  0
  188.3940  178.6310  136.9110 C   0  0  0  0  0  2  0  0  0  0  0  0
  188.3810  177.2190  137.2720 C   0  0  0  0  0  2  0  0  0  0  0  0
  189.4820  178.0770  137.7300 N   0  0  0  0  0  0  0  0  0  0  0  0
  186.3520  178.7930  144.8070 C   0  0  0  0  0  2  0  0  0  0  0  0
  184.9710  178.5090  144.2350 C   0  0  1  0  0  3  0  0  0  0  0  0
  183.9400  178.7130  145.3240 C   0  0  0  0  0  1  0  0  0  0  0  0
  184.6890  179.4230  143.1340 N   0  0  0  0  0  2  0  0  0  0  0  0
  184.6870  178.5960  138.6840 C   0  0  0  0  0  0  0  0  0  0  0  0
  183.3930  179.2660  138.9980 C   0  0  0  0  0  2  0  0  0  0  0  0
  184.8950  178.1430  137.4250 F   0  0  0  0  0  0  0  0  0  0  0  0
  184.5400  179.0180  141.7680 C   0  0  0  0  0  0  0  0  0  0  0  0
  182.6950  178.5980  140.1330 C   0  0  0  0  0  3  0  0  0  0  0  0
  185.6880  178.5380  139.5620 C   0  0  0  0  0  3  0  0  0  0  0  0
  183.2070  178.5280  141.3620 C   0  0  0  0  0  3  0  0  0  0  0  0
  185.6230  178.9700  140.9720 C   0  0  0  0  0  3  0  0  0  0  0  0
  1  7  1  6  0  0  0
  1  2  1  0  0  0  0
  1  4  1  0  0  0  0
  2 19  1  1  0  0  0
  2  3  1  0  0  0  0
  3  5  2  0  0  0  0
  4  5  1  0  0  0  0
  6  7  2  0  0  0  0
  8 12  1  1  0  0  0
  8 10  1  0  0  0  0
  8  7  1  0  0  0  0
 10  9  2  0  0  0  0
 10 11  1  0  0  0  0
 14 13  1  6  0  0  0
 14 12  1  0  0  0  0
 15 14  1  0  0  0  0
 16 17  1  0  0  0  0
 16 18  1  0  0  0  0
 17 18  1  0  0  0  0
 18 15  1  0  0  0  0
 20 19  1  0  0  0  0
 20 21  1  1  0  0  0
 22 20  1  0  0  0  0
 23 24  1  0  0  0  0
 23 28  2  0  0  0  0
 24 27  1  0  0  0  0
 25 23  1  0  0  0  0
 26 22  1  0  0  0  0
 27 29  2  0  0  0  0
 28 30  1  0  0  0  0
 29 26  1  0  0  0  0
 30 26  2  0  0  0  0
M  END
>  <MODEL>
5

>  <REMARK>
 VINA RESULT:      -7.4      2.215      3.362
  Name = 
  11 active torsions:
  status: ('A' for Active; 'I' for Inactive)
    1  A    between atoms: N_3  and  C_11
    2  A    between atoms: N_3  and  C_19
    3  A    between atoms: C_4  and  C_13
    4  A    between atoms: C_7  and  C_30
    5  A    between atoms: C_8  and  C_12
    6  A    between atoms: C_8  and  C_13
    7  A    between atoms: C_9  and  C_12
    8  A    between atoms: C_9  and  N_21
    9  A    between atoms: C_10  and  C_25
   10  A    between atoms: C_11  and  C_25
   11  A    between atoms: C_13  and  C_30
                            x       y       z     vdW  Elec       q    Type
                         _______ _______ _______ _____ _____    ______ ____

>  <TORSDO>
F 11

$$$$
=
 OpenBabel10262421503D

 30 32  0  0  1  0  0  0  0  0999 V2000
  186.8510  177.5540  145.5960 C   0  0  1  0  0  3  0  0  0  0  0  0
  188.2900  177.8760  145.2060 C   0  0  1  0  0  3  0  0  0  0  0  0
  189.0750  177.4870  146.4150 C   0  0  0  0  0  3  0  0  0  0  0  0
  186.9430  177.1250  146.9440 O   0  0  0  0  0  0  0  0  0  0  0  0
  188.2580  177.0800  147.3680 C   0  0  0  0  0  3  0  0  0  0  0  0
  186.0660  179.6600  146.3330 O   0  0  0  0  0  0  0  0  0  0  0  0
  185.9960  178.7770  145.4890 C   0  0  0  0  0  0  0  0  0  0  0  0
  185.0720  178.9110  144.3180 C   0  0  2  0  0  3  0  0  0  0  0  0
  183.3500  178.9730  145.9880 O   0  0  0  0  0  0  0  0  0  0  0  0
  183.6420  178.9750  144.7620 C   0  0  0  0  0  0  0  0  0  0  0  0
  182.6090  179.0690  143.7900 N   0  0  0  0  0  1  0  0  0  0  0  0
  185.3100  177.7970  143.3050 C   0  0  0  0  0  2  0  0  0  0  0  0
  186.4450  179.6790  142.1340 C   0  0  0  0  0  1  0  0  0  0  0  0
  185.7200  178.3600  141.9490 C   0  0  2  0  0  3  0  0  0  0  0  0
  184.5230  178.5280  141.0140 C   0  0  0  0  0  2  0  0  0  0  0  0
  183.5940  179.5790  139.1340 C   0  0  0  0  0  2  0  0  0  0  0  0
  184.7320  178.7830  138.6930 C   0  0  0  0  0  2  0  0  0  0  0  0
  184.8010  179.5050  139.9710 N   0  0  0  0  0  0  0  0  0  0  0  0
  188.7030  177.0390  144.0070 C   0  0  0  0  0  2  0  0  0  0  0  0
  189.4000  177.8940  142.9600 C   0  0  1  0  0  3  0  0  0  0  0  0
  190.4890  178.7010  143.6340 C   0  0  0  0  0  1  0  0  0  0  0  0
  190.0020  177.0410  141.9400 N   0  0  0  0  0  2  0  0  0  0  0  0
  189.4500  177.9750  137.5450 C   0  0  0  0  0  0  0  0  0  0  0  0
  190.1080  176.6400  137.6230 C   0  0  0  0  0  2  0  0  0  0  0  0
  189.2660  178.5390  136.3280 F   0  0  0  0  0  0  0  0  0  0  0  0
  190.0370  177.3580  140.5440 C   0  0  0  0  0  0  0  0  0  0  0  0
  191.3100  176.6750  138.5030 C   0  0  0  0  0  3  0  0  0  0  0  0
  188.9290  178.5730  138.6170 C   0  0  0  0  0  3  0  0  0  0  0  0
  191.2520  176.9640  139.8030 C   0  0  0  0  0  3  0  0  0  0  0  0
  189.0510  178.1020  140.0110 C   0  0  0  0  0  3  0  0  0  0  0  0
  1  7  1  1  0  0  0
  1  4  1  0  0  0  0
  2 19  1  6  0  0  0
  2  1  1  0  0  0  0
  2  3  1  0  0  0  0
  3  5  2  0  0  0  0
  4  5  1  0  0  0  0
  7  6  2  0  0  0  0
  8 12  1  6  0  0  0
  8 10  1  0  0  0  0
  8  7  1  0  0  0  0
 10  9  2  0  0  0  0
 11 10  1  0  0  0  0
 14 13  1  1  0  0  0
 14 12  1  0  0  0  0
 15 14  1  0  0  0  0
 16 18  1  0  0  0  0
 17 16  1  0  0  0  0
 17 18  1  0  0  0  0
 18 15  1  0  0  0  0
 20 21  1  1  0  0  0
 20 19  1  0  0  0  0
 22 20  1  0  0  0  0
 23 24  1  0  0  0  0
 23 28  2  0  0  0  0
 24 27  1  0  0  0  0
 25 23  1  0  0  0  0
 26 22  1  0  0  0  0
 27 29  2  0  0  0  0
 28 30  1  0  0  0  0
 29 26  1  0  0  0  0
 30 26  2  0  0  0  0
M  END
>  <MODEL>
6

>  <REMARK>
 VINA RESULT:      -7.4      3.298      6.049
  Name = 
  11 active torsions:
  status: ('A' for Active; 'I' for Inactive)
    1  A    between atoms: N_3  and  C_11
    2  A    between atoms: N_3  and  C_19
    3  A    between atoms: C_4  and  C_13
    4  A    between atoms: C_7  and  C_30
    5  A    between atoms: C_8  and  C_12
    6  A    between atoms: C_8  and  C_13
    7  A    between atoms: C_9  and  C_12
    8  A    between atoms: C_9  and  N_21
    9  A    between atoms: C_10  and  C_25
   10  A    between atoms: C_11  and  C_25
   11  A    between atoms: C_13  and  C_30
                            x       y       z     vdW  Elec       q    Type
                         _______ _______ _______ _____ _____    ______ ____

>  <TORSDO>
F 11

$$$$
=
 OpenBabel10262421503D

 30 32  0  0  1  0  0  0  0  0999 V2000
  187.4140  178.2160  144.0530 C   0  0  1  0  0  3  0  0  0  0  0  0
  185.9260  177.8860  144.0960 C   0  0  1  0  0  3  0  0  0  0  0  0
  185.6290  177.8050  145.5570 C   0  0  0  0  0  3  0  0  0  0  0  0
  187.8150  178.2000  145.4120 O   0  0  0  0  0  0  0  0  0  0  0  0
  186.7380  177.9810  146.2510 C   0  0  0  0  0  3  0  0  0  0  0  0
  187.7390  176.0280  143.2150 O   0  0  0  0  0  0  0  0  0  0  0  0
  188.1560  177.1760  143.2730 C   0  0  0  0  0  0  0  0  0  0  0  0
  189.4040  177.5730  142.5460 C   0  0  2  0  0  3  0  0  0  0  0  0
  190.0040  176.5770  140.4480 O   0  0  0  0  0  0  0  0  0  0  0  0
  189.2550  177.3770  141.0680 C   0  0  0  0  0  0  0  0  0  0  0  0
  188.2360  178.0790  140.3670 N   0  0  0  0  0  1  0  0  0  0  0  0
  190.6170  176.8360  143.1040 C   0  0  0  0  0  2  0  0  0  0  0  0
  191.7360  178.6820  144.3450 C   0  0  0  0  0  1  0  0  0  0  0  0
  190.9990  177.3640  144.4820 C   0  0  2  0  0  3  0  0  0  0  0  0
  191.8360  176.3560  145.2680 C   0  0  0  0  0  2  0  0  0  0  0  0
  191.8080  175.6410  147.5020 C   0  0  0  0  0  2  0  0  0  0  0  0
  190.7710  176.6510  147.3350 C   0  0  0  0  0  2  0  0  0  0  0  0
  192.0550  176.8030  146.6360 N   0  0  0  0  0  0  0  0  0  0  0  0
  185.1270  179.0040  143.4480 C   0  0  0  0  0  2  0  0  0  0  0  0
  183.7580  178.5090  143.0060 C   0  0  1  0  0  3  0  0  0  0  0  0
  182.7190  179.0020  143.9900 C   0  0  0  0  0  1  0  0  0  0  0  0
  183.4430  179.0310  141.6800 N   0  0  0  0  0  2  0  0  0  0  0  0
  184.5160  177.5020  137.5570 C   0  0  0  0  0  0  0  0  0  0  0  0
  183.0560  177.2630  137.7390 C   0  0  0  0  0  2  0  0  0  0  0  0
  185.1160  177.0340  136.4370 F   0  0  0  0  0  0  0  0  0  0  0  0
  183.7490  178.3550  140.4550 C   0  0  0  0  0  0  0  0  0  0  0  0
  182.7740  176.5540  139.0200 C   0  0  0  0  0  3  0  0  0  0  0  0
  185.2210  178.2610  138.3960 C   0  0  0  0  0  3  0  0  0  0  0  0
  183.0600  177.0710  140.2150 C   0  0  0  0  0  3  0  0  0  0  0  0
  184.7260  178.8330  139.6630 C   0  0  0  0  0  3  0  0  0  0  0  0
  1  7  1  6  0  0  0
  1  2  1  0  0  0  0
  1  4  1  0  0  0  0
  2 19  1  1  0  0  0
  2  3  1  0  0  0  0
  3  5  2  0  0  0  0
  4  5  1  0  0  0  0
  6  7  2  0  0  0  0
  8 12  1  1  0  0  0
  8  7  1  0  0  0  0
  9 10  2  0  0  0  0
 10  8  1  0  0  0  0
 11 10  1  0  0  0  0
 12 14  1  0  0  0  0
 14 13  1  6  0  0  0
 14 15  1  0  0  0  0
 15 18  1  0  0  0  0
 17 16  1  0  0  0  0
 18 17  1  0  0  0  0
 18 16  1  0  0  0  0
 20 19  1  0  0  0  0
 20 21  1  1  0  0  0
 22 20  1  0  0  0  0
 23 24  1  0  0  0  0
 23 28  2  0  0  0  0
 24 27  1  0  0  0  0
 25 23  1  0  0  0  0
 26 22  1  0  0  0  0
 27 29  2  0  0  0  0
 28 30  1  0  0  0  0
 29 26  1  0  0  0  0
 30 26  2  0  0  0  0
M  END
>  <MODEL>
7

>  <REMARK>
 VINA RESULT:      -7.3      2.898      5.684
  Name = 
  11 active torsions:
  status: ('A' for Active; 'I' for Inactive)
    1  A    between atoms: N_3  and  C_11
    2  A    between atoms: N_3  and  C_19
    3  A    between atoms: C_4  and  C_13
    4  A    between atoms: C_7  and  C_30
    5  A    between atoms: C_8  and  C_12
    6  A    between atoms: C_8  and  C_13
    7  A    between atoms: C_9  and  C_12
    8  A    between atoms: C_9  and  N_21
    9  A    between atoms: C_10  and  C_25
   10  A    between atoms: C_11  and  C_25
   11  A    between atoms: C_13  and  C_30
                            x       y       z     vdW  Elec       q    Type
                         _______ _______ _______ _____ _____    ______ ____

>  <TORSDO>
F 11

$$$$
=
 OpenBabel10262421503D

 30 32  0  0  1  0  0  0  0  0999 V2000
  184.4790  178.1660  143.3110 C   0  0  1  0  0  3  0  0  0  0  0  0
  185.3360  178.6220  144.4880 C   0  0  1  0  0  3  0  0  0  0  0  0
  184.3340  179.1120  145.4800 C   0  0  0  0  0  3  0  0  0  0  0  0
  183.1570  178.5070  143.6890 O   0  0  0  0  0  0  0  0  0  0  0  0
  183.1200  179.0320  144.9670 C   0  0  0  0  0  3  0  0  0  0  0  0
  185.7270  179.7720  142.1030 O   0  0  0  0  0  0  0  0  0  0  0  0
  184.8760  178.8940  142.0650 C   0  0  0  0  0  0  0  0  0  0  0  0
  184.2300  178.5120  140.7690 C   0  0  2  0  0  3  0  0  0  0  0  0
  186.0980  178.5280  139.2640 O   0  0  0  0  0  0  0  0  0  0  0  0
  185.0020  179.0480  139.6020 C   0  0  0  0  0  0  0  0  0  0  0  0
  184.4730  180.1330  138.8510 N   0  0  0  0  0  1  0  0  0  0  0  0
  182.7680  178.9460  140.7400 C   0  0  0  0  0  2  0  0  0  0  0  0
  181.6320  177.5810  138.9950 C   0  0  0  0  0  1  0  0  0  0  0  0
  181.8450  177.7600  140.4850 C   0  0  2  0  0  3  0  0  0  0  0  0
  180.5070  177.9130  141.2080 C   0  0  0  0  0  2  0  0  0  0  0  0
  179.2250  179.1270  142.7520 C   0  0  0  0  0  2  0  0  0  0  0  0
  179.1780  179.8260  141.4740 C   0  0  0  0  0  2  0  0  0  0  0  0
  180.4280  179.1870  141.9090 N   0  0  0  0  0  0  0  0  0  0  0  0
  186.1150  177.4440  145.0500 C   0  0  0  0  0  2  0  0  0  0  0  0
  187.4690  177.8900  145.5810 C   0  0  1  0  0  3  0  0  0  0  0  0
  187.4440  177.8350  147.0930 C   0  0  0  0  0  1  0  0  0  0  0  0
  188.5150  177.0010  145.0880 N   0  0  0  0  0  2  0  0  0  0  0  0
  191.2180  177.2920  141.4690 C   0  0  0  0  0  0  0  0  0  0  0  0
  192.0590  177.6010  142.6610 C   0  0  0  0  0  2  0  0  0  0  0  0
  191.7670  177.4150  140.2370 F   0  0  0  0  0  0  0  0  0  0  0  0
  189.3720  177.3010  143.9800 C   0  0  0  0  0  0  0  0  0  0  0  0
  191.4280  178.6450  143.5170 C   0  0  0  0  0  3  0  0  0  0  0  0
  189.9900  176.7840  141.5780 C   0  0  0  0  0  3  0  0  0  0  0  0
  190.2510  178.4790  144.1190 C   0  0  0  0  0  3  0  0  0  0  0  0
  189.2430  176.6000  142.8380 C   0  0  0  0  0  3  0  0  0  0  0  0
  1  7  1  6  0  0  0
  1  4  1  0  0  0  0
  1  2  1  0  0  0  0
  2 19  1  1  0  0  0
  2  3  1  0  0  0  0
  4  5  1  0  0  0  0
  5  3  2  0  0  0  0
  7  6  2  0  0  0  0
  8 12  1  1  0  0  0
  8  7  1  0  0  0  0
  9 10  2  0  0  0  0
 10  8  1  0  0  0  0
 11 10  1  0  0  0  0
 14 13  1  6  0  0  0
 14 12  1  0  0  0  0
 14 15  1  0  0  0  0
 15 18  1  0  0  0  0
 17 18  1  0  0  0  0
 17 16  1  0  0  0  0
 18 16  1  0  0  0  0
 19 20  1  0  0  0  0
 20 21  1  1  0  0  0
 22 20  1  0  0  0  0
 23 28  2  0  0  0  0
 23 24  1  0  0  0  0
 24 27  1  0  0  0  0
 25 23  1  0  0  0  0
 26 29  1  0  0  0  0
 26 22  1  0  0  0  0
 27 29  2  0  0  0  0
 28 30  1  0  0  0  0
 30 26  2  0  0  0  0
M  END
>  <MODEL>
8

>  <REMARK>
 VINA RESULT:      -7.2      3.923      7.070
  Name = 
  11 active torsions:
  status: ('A' for Active; 'I' for Inactive)
    1  A    between atoms: N_3  and  C_11
    2  A    between atoms: N_3  and  C_19
    3  A    between atoms: C_4  and  C_13
    4  A    between atoms: C_7  and  C_30
    5  A    between atoms: C_8  and  C_12
    6  A    between atoms: C_8  and  C_13
    7  A    between atoms: C_9  and  C_12
    8  A    between atoms: C_9  and  N_21
    9  A    between atoms: C_10  and  C_25
   10  A    between atoms: C_11  and  C_25
   11  A    between atoms: C_13  and  C_30
                            x       y       z     vdW  Elec       q    Type
                         _______ _______ _______ _____ _____    ______ ____

>  <TORSDO>
F 11

$$$$
=
 OpenBabel10262421503D

 30 32  0  0  1  0  0  0  0  0999 V2000
  185.4790  178.7470  144.1230 C   0  0  1  0  0  3  0  0  0  0  0  0
  184.9980  178.3660  142.7270 C   0  0  1  0  0  3  0  0  0  0  0  0
  183.5290  178.6240  142.7820 C   0  0  0  0  0  3  0  0  0  0  0  0
  184.2920  179.0760  144.8230 O   0  0  0  0  0  0  0  0  0  0  0  0
  183.1870  179.0140  143.9960 C   0  0  0  0  0  3  0  0  0  0  0  0
  186.4610  176.5940  144.1180 O   0  0  0  0  0  0  0  0  0  0  0  0
  186.1680  177.5860  144.7710 C   0  0  0  0  0  0  0  0  0  0  0  0
  186.5130  177.6720  146.2250 C   0  0  2  0  0  3  0  0  0  0  0  0
  184.4200  178.2520  147.2440 O   0  0  0  0  0  0  0  0  0  0  0  0
  185.5910  178.6080  146.9460 C   0  0  0  0  0  0  0  0  0  0  0  0
  186.0560  179.8970  147.3240 N   0  0  0  0  0  1  0  0  0  0  0  0
  187.9790  178.0470  146.4180 C   0  0  0  0  0  2  0  0  0  0  0  0
  189.0740  178.3350  148.6350 C   0  0  0  0  0  1  0  0  0  0  0  0
  188.5820  177.3260  147.6170 C   0  0  2  0  0  3  0  0  0  0  0  0
  189.7090  176.3790  147.2060 C   0  0  0  0  0  2  0  0  0  0  0  0
  191.6810  176.7520  145.9920 C   0  0  0  0  0  2  0  0  0  0  0  0
  192.0190  175.9830  147.1820 C   0  0  0  0  0  2  0  0  0  0  0  0
  191.0040  177.0420  147.2640 N   0  0  0  0  0  0  0  0  0  0  0  0
  185.6610  179.2570  141.6890 C   0  0  0  0  0  2  0  0  0  0  0  0
  185.9450  178.4840  140.4100 C   0  0  1  0  0  3  0  0  0  0  0  0
  184.9950  178.9570  139.3320 C   0  0  0  0  0  1  0  0  0  0  0  0
  187.3170  178.7260  139.9760 N   0  0  0  0  0  2  0  0  0  0  0  0
  190.9750  177.0670  142.0630 C   0  0  0  0  0  0  0  0  0  0  0  0
  191.4130  177.5020  140.7060 C   0  0  0  0  0  2  0  0  0  0  0  0
  191.8650  176.4310  142.8600 F   0  0  0  0  0  0  0  0  0  0  0  0
  188.4600  178.0410  140.5000 C   0  0  0  0  0  0  0  0  0  0  0  0
  190.5340  176.9380  139.6430 C   0  0  0  0  0  3  0  0  0  0  0  0
  189.7810  177.3890  142.5610 C   0  0  0  0  0  3  0  0  0  0  0  0
  189.2340  177.2160  139.5500 C   0  0  0  0  0  3  0  0  0  0  0  0
  188.6940  178.0650  141.8250 C   0  0  0  0  0  3  0  0  0  0  0  0
  1  7  1  1  0  0  0
  1  4  1  0  0  0  0
  2 19  1  6  0  0  0
  2  3  1  0  0  0  0
  2  1  1  0  0  0  0
  3  5  2  0  0  0  0
  5  4  1  0  0  0  0
  6  7  2  0  0  0  0
  7  8  1  0  0  0  0
  8 12  1  6  0  0  0
  8 10  1  0  0  0  0
 10  9  2  0  0  0  0
 10 11  1  0  0  0  0
 12 14  1  0  0  0  0
 14 13  1  1  0  0  0
 15 18  1  0  0  0  0
 15 14  1  0  0  0  0
 16 17  1  0  0  0  0
 16 18  1  0  0  0  0
 17 18  1  0  0  0  0
 20 21  1  6  0  0  0
 20 19  1  0  0  0  0
 22 20  1  0  0  0  0
 22 26  1  0  0  0  0
 23 28  2  0  0  0  0
 23 25  1  0  0  0  0
 24 23  1  0  0  0  0
 26 30  2  0  0  0  0
 27 24  1  0  0  0  0
 29 27  2  0  0  0  0
 29 26  1  0  0  0  0
 30 28  1  0  0  0  0
M  END
>  <MODEL>
9

>  <REMARK>
 VINA RESULT:      -7.2      3.046      7.370
  Name = 
  11 active torsions:
  status: ('A' for Active; 'I' for Inactive)
    1  A    between atoms: N_3  and  C_11
    2  A    between atoms: N_3  and  C_19
    3  A    between atoms: C_4  and  C_13
    4  A    between atoms: C_7  and  C_30
    5  A    between atoms: C_8  and  C_12
    6  A    between atoms: C_8  and  C_13
    7  A    between atoms: C_9  and  C_12
    8  A    between atoms: C_9  and  N_21
    9  A    between atoms: C_10  and  C_25
   10  A    between atoms: C_11  and  C_25
   11  A    between atoms: C_13  and  C_30
                            x       y       z     vdW  Elec       q    Type
                         _______ _______ _______ _____ _____    ______ ____

>  <TORSDO>
F 11

$$$$
