=
 OpenBabel10262419193D

 31 35  0  0  1  0  0  0  0  0999 V2000
  190.6350  176.7530  145.9330 C   0  0  0  0  0  0  0  0  0  0  0  0
  187.9190  177.6110  143.3840 C   0  0  0  0  0  0  0  0  0  0  0  0
  186.7080  177.7710  144.1200 C   0  0  0  0  0  0  0  0  0  0  0  0
  186.2890  178.2860  146.5010 C   0  0  0  0  0  3  0  0  0  0  0  0
  189.2060  177.1440  143.9950 C   0  0  0  0  0  0  0  0  0  0  0  0
  191.6810  176.3640  145.0970 C   0  0  0  0  0  3  0  0  0  0  0  0
  186.5640  177.2140  145.5030 C   0  0  0  0  0  2  0  0  0  0  0  0
  189.1210  177.7030  141.2230 N   0  0  0  0  0  0  0  0  0  0  0  0
  190.8130  176.7530  147.3440 N   0  0  0  0  0  1  0  0  0  0  0  0
  185.6270  178.6660  142.1380 C   0  0  0  0  0  3  0  0  0  0  0  0
  185.1670  179.0030  146.4910 C   0  0  0  0  0  3  0  0  0  0  0  0
  190.1320  176.7530  141.6730 C   0  0  0  0  0  2  0  0  0  0  0  0
  187.9330  177.9340  142.0080 C   0  0  0  0  0  0  0  0  0  0  0  0
  189.4120  177.1450  145.3850 C   0  0  0  0  0  3  0  0  0  0  0  0
  184.1120  178.8940  145.4680 C   0  0  0  0  0  3  0  0  0  0  0  0
  190.2840  176.7780  143.1590 C   0  0  0  0  0  0  0  0  0  0  0  0
  191.5040  176.3760  143.7120 C   0  0  0  0  0  3  0  0  0  0  0  0
  186.7880  178.4660  141.4050 C   0  0  0  0  0  3  0  0  0  0  0  0
  185.5730  178.3350  143.4900 C   0  0  0  0  0  0  0  0  0  0  0  0
  184.2890  178.5970  144.1760 C   0  0  0  0  0  3  0  0  0  0  0  0
  189.2900  178.2850  139.8960 C   0  0  0  0  0  2  0  0  0  0  0  0
  189.9400  176.7200  138.2160 O   0  0  0  0  0  1  0  0  0  0  0  0
  188.8310  177.3130  138.8210 C   0  0  2  0  0  3  0  0  0  0  0  0
  188.0150  178.0610  137.7810 C   0  0  0  0  0  2  0  0  0  0  0  0
  184.7730  175.9490  136.9660 C   0  0  0  0  0  0  0  0  0  0  0  0
  185.3030  179.1750  138.5340 O   0  0  0  0  0  1  0  0  0  0  0  0
  183.8630  174.8790  136.4810 C   0  0  0  0  0  1  0  0  0  0  0  0
  186.4520  175.9140  136.8430 S   0  0  0  0  0  0  0  0  0  0  0  0
  185.4550  177.9390  137.9190 C   0  0  0  0  0  0  0  0  0  0  0  0
  186.6920  177.4030  137.5850 C   0  0  0  0  0  0  0  0  0  0  0  0
  184.3670  177.1270  137.5780 C   0  0  0  0  0  3  0  0  0  0  0  0
  1  9  1  0  0  0  0
  2  5  1  0  0  0  0
  2  3  1  0  0  0  0
  3  7  1  0  0  0  0
  5 14  2  0  0  0  0
  6  1  2  0  0  0  0
  7  4  1  0  0  0  0
  8 12  1  0  0  0  0
  8 13  1  0  0  0  0
 10 19  1  0  0  0  0
 11  4  2  0  0  0  0
 12 16  1  0  0  0  0
 13  2  2  0  0  0  0
 14  1  1  0  0  0  0
 15 11  1  0  0  0  0
 16 17  2  0  0  0  0
 16  5  1  0  0  0  0
 17  6  1  0  0  0  0
 18 13  1  0  0  0  0
 18 10  2  0  0  0  0
 19  3  2  0  0  0  0
 19 20  1  0  0  0  0
 20 15  2  0  0  0  0
 21  8  1  0  0  0  0
 23 22  1  6  0  0  0
 23 21  1  0  0  0  0
 24 23  1  0  0  0  0
 25 31  2  0  0  0  0
 27 25  1  0  0  0  0
 28 25  1  0  0  0  0
 28 30  1  0  0  0  0
 29 26  1  0  0  0  0
 30 24  1  0  0  0  0
 30 29  2  0  0  0  0
 31 29  1  0  0  0  0
M  END
>  <MODEL>
1

>  <REMARK>
 VINA RESULT:     -10.7      0.000      0.000
  Name = 
  4 active torsions:
  status: ('A' for Active; 'I' for Inactive)
    1  A    between atoms: C_3  and  C_9
    2  A    between atoms: C_3  and  C_22
    3  A    between atoms: C_9  and  C_23
    4  A    between atoms: N_15  and  C_23
                            x       y       z     vdW  Elec       q    Type
                         _______ _______ _______ _____ _____    ______ ____

>  <TORSDO>
F 4

$$$$
=
 OpenBabel10262419193D

 31 35  0  0  1  0  0  0  0  0999 V2000
  190.4270  176.8680  146.0650 C   0  0  0  0  0  0  0  0  0  0  0  0
  188.1340  177.5700  143.0890 C   0  0  0  0  0  0  0  0  0  0  0  0
  186.8300  177.7860  143.6240 C   0  0  0  0  0  0  0  0  0  0  0  0
  186.0690  178.4610  145.8780 C   0  0  0  0  0  3  0  0  0  0  0  0
  189.3080  177.1370  143.9150 C   0  0  0  0  0  0  0  0  0  0  0  0
  191.5790  176.4190  145.4220 C   0  0  0  0  0  3  0  0  0  0  0  0
  186.4730  177.3220  145.0040 C   0  0  0  0  0  2  0  0  0  0  0  0
  189.6450  177.5110  141.1310 N   0  0  0  0  0  0  0  0  0  0  0  0
  190.3940  176.9610  147.4840 N   0  0  0  0  0  1  0  0  0  0  0  0
  186.0690  178.5520  141.4490 C   0  0  0  0  0  3  0  0  0  0  0  0
  184.9730  179.1810  145.6540 C   0  0  0  0  0  3  0  0  0  0  0  0
  190.5620  176.5860  141.7870 C   0  0  0  0  0  2  0  0  0  0  0  0
  188.3570  177.8000  141.7120 C   0  0  0  0  0  0  0  0  0  0  0  0
  189.3060  177.2300  145.3160 C   0  0  0  0  0  3  0  0  0  0  0  0
  184.0800  179.0110  144.4940 C   0  0  0  0  0  3  0  0  0  0  0  0
  190.4930  176.7100  143.2750 C   0  0  0  0  0  0  0  0  0  0  0  0
  191.6100  176.3380  144.0290 C   0  0  0  0  0  3  0  0  0  0  0  0
  187.3220  178.2970  140.9120 C   0  0  0  0  0  3  0  0  0  0  0  0
  185.8100  178.3130  142.7970 C   0  0  0  0  0  0  0  0  0  0  0  0
  184.4420  178.6270  143.2650 C   0  0  0  0  0  3  0  0  0  0  0  0
  190.0180  178.0010  139.8080 C   0  0  0  0  0  2  0  0  0  0  0  0
  191.7940  176.6590  138.9500 O   0  0  0  0  0  1  0  0  0  0  0  0
  190.4120  176.8490  138.8990 C   0  0  2  0  0  3  0  0  0  0  0  0
  189.9870  177.1630  137.4750 C   0  0  0  0  0  2  0  0  0  0  0  0
  186.0760  176.6840  137.1370 C   0  0  0  0  0  0  0  0  0  0  0  0
  188.2220  179.6060  137.1900 O   0  0  0  0  0  1  0  0  0  0  0  0
  184.7280  176.0710  137.0260 C   0  0  0  0  0  1  0  0  0  0  0  0
  187.5120  175.8260  137.3280 S   0  0  0  0  0  0  0  0  0  0  0  0
  187.7080  178.3160  137.2170 C   0  0  0  0  0  0  0  0  0  0  0  0
  188.5000  177.1860  137.3680 C   0  0  0  0  0  0  0  0  0  0  0  0
  186.3400  178.0460  137.0900 C   0  0  0  0  0  3  0  0  0  0  0  0
  1  9  1  0  0  0  0
  2  3  1  0  0  0  0
  2  5  1  0  0  0  0
  3  7  1  0  0  0  0
  5 14  1  0  0  0  0
  6  1  1  0  0  0  0
  7  4  1  0  0  0  0
  8 13  1  0  0  0  0
  8 12  1  0  0  0  0
 10 19  1  0  0  0  0
 11  4  2  0  0  0  0
 12 16  1  0  0  0  0
 13  2  2  0  0  0  0
 14  1  2  0  0  0  0
 15 11  1  0  0  0  0
 16  5  2  0  0  0  0
 16 17  1  0  0  0  0
 17  6  2  0  0  0  0
 18 10  2  0  0  0  0
 18 13  1  0  0  0  0
 19 20  1  0  0  0  0
 19  3  2  0  0  0  0
 20 15  2  0  0  0  0
 21  8  1  0  0  0  0
 23 22  1  6  0  0  0
 23 21  1  0  0  0  0
 24 23  1  0  0  0  0
 25 28  1  0  0  0  0
 26 29  1  0  0  0  0
 27 25  1  0  0  0  0
 28 30  1  0  0  0  0
 29 30  2  0  0  0  0
 30 24  1  0  0  0  0
 31 25  2  0  0  0  0
 31 29  1  0  0  0  0
M  END
>  <MODEL>
2

>  <REMARK>
 VINA RESULT:     -10.6      1.017      1.267
  Name = 
  4 active torsions:
  status: ('A' for Active; 'I' for Inactive)
    1  A    between atoms: C_3  and  C_9
    2  A    between atoms: C_3  and  C_22
    3  A    between atoms: C_9  and  C_23
    4  A    between atoms: N_15  and  C_23
                            x       y       z     vdW  Elec       q    Type
                         _______ _______ _______ _____ _____    ______ ____

>  <TORSDO>
F 4

$$$$
=
 OpenBabel10262419193D

 31 35  0  0  1  0  0  0  0  0999 V2000
  190.5770  176.8420  146.2100 C   0  0  0  0  0  0  0  0  0  0  0  0
  188.0730  177.4980  143.3980 C   0  0  0  0  0  0  0  0  0  0  0  0
  186.8120  177.7240  144.0230 C   0  0  0  0  0  0  0  0  0  0  0  0
  186.2180  178.4380  146.3140 C   0  0  0  0  0  3  0  0  0  0  0  0
  189.3050  177.0770  144.1430 C   0  0  0  0  0  0  0  0  0  0  0  0
  191.6800  176.3810  145.4920 C   0  0  0  0  0  3  0  0  0  0  0  0
  186.5570  177.2850  145.4330 C   0  0  0  0  0  2  0  0  0  0  0  0
  189.4370  177.4040  141.3360 N   0  0  0  0  0  0  0  0  0  0  0  0
  190.6480  176.9600  147.6250 N   0  0  0  0  0  1  0  0  0  0  0  0
  185.8950  178.4550  141.8970 C   0  0  0  0  0  3  0  0  0  0  0  0
  185.1090  179.1560  146.1590 C   0  0  0  0  0  3  0  0  0  0  0  0
  190.4000  176.4890  141.9390 C   0  0  0  0  0  2  0  0  0  0  0  0
  188.1950  177.7040  142.0050 C   0  0  0  0  0  0  0  0  0  0  0  0
  189.4040  177.1940  145.5390 C   0  0  0  0  0  3  0  0  0  0  0  0
  184.1330  178.9680  145.0700 C   0  0  0  0  0  3  0  0  0  0  0  0
  190.4390  176.6380  143.4250 C   0  0  0  0  0  0  0  0  0  0  0  0
  191.6090  176.2770  144.1020 C   0  0  0  0  0  3  0  0  0  0  0  0
  187.1060  178.1890  141.2740 C   0  0  0  0  0  3  0  0  0  0  0  0
  185.7340  178.2390  143.2630 C   0  0  0  0  0  0  0  0  0  0  0  0
  184.4050  178.5630  143.8240 C   0  0  0  0  0  3  0  0  0  0  0  0
  189.7130  177.8710  139.9810 C   0  0  0  0  0  2  0  0  0  0  0  0
  191.7410  176.9080  139.1740 O   0  0  0  0  0  1  0  0  0  0  0  0
  190.3520  176.7700  139.1520 C   0  0  2  0  0  3  0  0  0  0  0  0
  189.8480  176.8590  137.7220 C   0  0  0  0  0  2  0  0  0  0  0  0
  187.6480  173.7380  136.6960 C   0  0  0  0  0  0  0  0  0  0  0  0
  191.1670  174.1460  137.4670 O   0  0  0  0  0  1  0  0  0  0  0  0
  186.4960  172.8770  136.3230 C   0  0  0  0  0  1  0  0  0  0  0  0
  187.5600  175.3960  136.9770 S   0  0  0  0  0  0  0  0  0  0  0  0
  189.8130  174.3410  137.2270 C   0  0  0  0  0  0  0  0  0  0  0  0
  189.1960  175.5810  137.3180 C   0  0  0  0  0  0  0  0  0  0  0  0
  188.9520  173.2960  136.8730 C   0  0  0  0  0  3  0  0  0  0  0  0
  1  9  1  0  0  0  0
  2  3  1  0  0  0  0
  2  5  1  0  0  0  0
  3  7  1  0  0  0  0
  5 14  2  0  0  0  0
  6  1  2  0  0  0  0
  7  4  1  0  0  0  0
  8 12  1  0  0  0  0
  8 13  1  0  0  0  0
 10 19  1  0  0  0  0
 11  4  2  0  0  0  0
 12 16  1  0  0  0  0
 13  2  2  0  0  0  0
 14  1  1  0  0  0  0
 15 11  1  0  0  0  0
 16 17  2  0  0  0  0
 16  5  1  0  0  0  0
 17  6  1  0  0  0  0
 18 10  2  0  0  0  0
 18 13  1  0  0  0  0
 19 20  1  0  0  0  0
 19  3  2  0  0  0  0
 20 15  2  0  0  0  0
 21  8  1  0  0  0  0
 23 22  1  6  0  0  0
 23 21  1  0  0  0  0
 24 23  1  0  0  0  0
 25 31  2  0  0  0  0
 25 28  1  0  0  0  0
 27 25  1  0  0  0  0
 28 30  1  0  0  0  0
 29 30  2  0  0  0  0
 29 26  1  0  0  0  0
 30 24  1  0  0  0  0
 31 29  1  0  0  0  0
M  END
>  <MODEL>
3

>  <REMARK>
 VINA RESULT:     -10.3      2.067      2.404
  Name = 
  4 active torsions:
  status: ('A' for Active; 'I' for Inactive)
    1  A    between atoms: C_3  and  C_9
    2  A    between atoms: C_3  and  C_22
    3  A    between atoms: C_9  and  C_23
    4  A    between atoms: N_15  and  C_23
                            x       y       z     vdW  Elec       q    Type
                         _______ _______ _______ _____ _____    ______ ____

>  <TORSDO>
F 4

$$$$
=
 OpenBabel10262419193D

 31 35  0  0  1  0  0  0  0  0999 V2000
  190.5500  176.8910  146.4070 C   0  0  0  0  0  0  0  0  0  0  0  0
  188.1590  177.5130  143.4910 C   0  0  0  0  0  0  0  0  0  0  0  0
  186.8740  177.7470  144.0630 C   0  0  0  0  0  0  0  0  0  0  0  0
  186.1910  178.4880  146.3210 C   0  0  0  0  0  3  0  0  0  0  0  0
  189.3600  177.1010  144.2890 C   0  0  0  0  0  0  0  0  0  0  0  0
  191.6800  176.4210  145.7380 C   0  0  0  0  0  3  0  0  0  0  0  0
  186.5640  177.3240  145.4670 C   0  0  0  0  0  2  0  0  0  0  0  0
  189.6030  177.3950  141.4850 N   0  0  0  0  0  0  0  0  0  0  0  0
  190.5660  177.0250  147.8230 N   0  0  0  0  0  1  0  0  0  0  0  0
  186.0410  178.4530  141.8940 C   0  0  0  0  0  3  0  0  0  0  0  0
  185.0890  179.2040  146.1140 C   0  0  0  0  0  3  0  0  0  0  0  0
  190.5410  176.4880  142.1370 C   0  0  0  0  0  2  0  0  0  0  0  0
  188.3360  177.7030  142.1010 C   0  0  0  0  0  0  0  0  0  0  0  0
  189.4050  177.2340  145.6860 C   0  0  0  0  0  3  0  0  0  0  0  0
  184.1570  179.0020  144.9900 C   0  0  0  0  0  3  0  0  0  0  0  0
  190.5220  176.6540  143.6220 C   0  0  0  0  0  0  0  0  0  0  0  0
  191.6640  176.3010  144.3480 C   0  0  0  0  0  3  0  0  0  0  0  0
  187.2760  178.1790  141.3230 C   0  0  0  0  0  3  0  0  0  0  0  0
  185.8280  178.2520  143.2560 C   0  0  0  0  0  0  0  0  0  0  0  0
  184.4770  178.5830  143.7600 C   0  0  0  0  0  3  0  0  0  0  0  0
  189.9320  177.8470  140.1370 C   0  0  0  0  0  2  0  0  0  0  0  0
  192.2840  177.5040  139.9290 O   0  0  0  0  0  1  0  0  0  0  0  0
  191.0420  176.9970  139.5420 C   0  0  2  0  0  3  0  0  0  0  0  0
  190.9300  177.0110  138.0280 C   0  0  0  0  0  2  0  0  0  0  0  0
  192.6040  173.7400  136.5650 C   0  0  0  0  0  0  0  0  0  0  0  0
  193.8600  177.0680  137.2690 O   0  0  0  0  0  1  0  0  0  0  0  0
  192.8210  172.3480  136.0930 C   0  0  0  0  0  1  0  0  0  0  0  0
  191.1390  174.3500  137.1270 S   0  0  0  0  0  0  0  0  0  0  0  0
  193.0730  175.9340  137.1130 C   0  0  0  0  0  0  0  0  0  0  0  0
  191.7230  175.8960  137.4360 C   0  0  0  0  0  0  0  0  0  0  0  0
  193.5800  174.7270  136.6180 C   0  0  0  0  0  3  0  0  0  0  0  0
  1  9  1  0  0  0  0
  2  3  1  0  0  0  0
  2  5  1  0  0  0  0
  3  7  1  0  0  0  0
  5 14  1  0  0  0  0
  6  1  1  0  0  0  0
  7  4  1  0  0  0  0
  8 13  1  0  0  0  0
  8 12  1  0  0  0  0
 10 19  1  0  0  0  0
 11  4  2  0  0  0  0
 12 16  1  0  0  0  0
 13  2  2  0  0  0  0
 14  1  2  0  0  0  0
 15 11  1  0  0  0  0
 16  5  2  0  0  0  0
 16 17  1  0  0  0  0
 17  6  2  0  0  0  0
 18 10  2  0  0  0  0
 18 13  1  0  0  0  0
 19 20  1  0  0  0  0
 19  3  2  0  0  0  0
 20 15  2  0  0  0  0
 21  8  1  0  0  0  0
 23 22  1  6  0  0  0
 23 21  1  0  0  0  0
 24 23  1  0  0  0  0
 25 31  2  0  0  0  0
 25 28  1  0  0  0  0
 27 25  1  0  0  0  0
 28 30  1  0  0  0  0
 29 26  1  0  0  0  0
 29 30  2  0  0  0  0
 30 24  1  0  0  0  0
 31 29  1  0  0  0  0
M  END
>  <MODEL>
4

>  <REMARK>
 VINA RESULT:     -10.1      2.748      3.887
  Name = 
  4 active torsions:
  status: ('A' for Active; 'I' for Inactive)
    1  A    between atoms: C_3  and  C_9
    2  A    between atoms: C_3  and  C_22
    3  A    between atoms: C_9  and  C_23
    4  A    between atoms: N_15  and  C_23
                            x       y       z     vdW  Elec       q    Type
                         _______ _______ _______ _____ _____    ______ ____

>  <TORSDO>
F 4

$$$$
=
 OpenBabel10262419193D

 31 35  0  0  1  0  0  0  0  0999 V2000
  190.7050  176.7760  145.1960 C   0  0  0  0  0  0  0  0  0  0  0  0
  187.7650  177.7470  142.9560 C   0  0  0  0  0  0  0  0  0  0  0  0
  186.6260  177.8570  143.8060 C   0  0  0  0  0  0  0  0  0  0  0  0
  186.4240  178.2390  146.2400 C   0  0  0  0  0  3  0  0  0  0  0  0
  189.1040  177.2590  143.4210 C   0  0  0  0  0  0  0  0  0  0  0  0
  191.6720  176.4420  144.2490 C   0  0  0  0  0  3  0  0  0  0  0  0
  186.6110  177.2250  145.1640 C   0  0  0  0  0  2  0  0  0  0  0  0
  188.7650  177.9660  140.7030 N   0  0  0  0  0  0  0  0  0  0  0  0
  191.0120  176.7020  146.5830 N   0  0  0  0  0  1  0  0  0  0  0  0
  185.3660  178.8480  141.9820 C   0  0  0  0  0  3  0  0  0  0  0  0
  185.3040  178.9460  146.3710 C   0  0  0  0  0  3  0  0  0  0  0  0
  189.8160  177.0010  141.0060 C   0  0  0  0  0  2  0  0  0  0  0  0
  187.6520  178.1440  141.6030 C   0  0  0  0  0  0  0  0  0  0  0  0
  189.4360  177.1870  144.7840 C   0  0  0  0  0  3  0  0  0  0  0  0
  184.1600  178.8840  145.4440 C   0  0  0  0  0  3  0  0  0  0  0  0
  190.1030  176.9480  142.4720 C   0  0  0  0  0  0  0  0  0  0  0  0
  191.3700  176.5260  142.8890 C   0  0  0  0  0  3  0  0  0  0  0  0
  186.4550  178.6980  141.1370 C   0  0  0  0  0  3  0  0  0  0  0  0
  185.4360  178.4450  143.3130 C   0  0  0  0  0  0  0  0  0  0  0  0
  184.2190  178.6580  144.1260 C   0  0  0  0  0  3  0  0  0  0  0  0
  188.8100  178.6200  139.3990 C   0  0  0  0  0  2  0  0  0  0  0  0
  189.6790  178.0930  137.2400 O   0  0  0  0  0  1  0  0  0  0  0  0
  188.9000  177.5900  138.2840 C   0  0  2  0  0  3  0  0  0  0  0  0
  187.5040  177.2710  137.7790 C   0  0  0  0  0  2  0  0  0  0  0  0
  187.8650  173.5910  136.3780 C   0  0  0  0  0  0  0  0  0  0  0  0
  185.0060  175.6580  137.2140 O   0  0  0  0  0  1  0  0  0  0  0  0
  188.4370  172.3190  135.8670 C   0  0  0  0  0  1  0  0  0  0  0  0
  188.7680  174.9200  136.8810 S   0  0  0  0  0  0  0  0  0  0  0  0
  186.2820  175.1500  137.0090 C   0  0  0  0  0  0  0  0  0  0  0  0
  187.4390  175.8680  137.2820 C   0  0  0  0  0  0  0  0  0  0  0  0
  186.5090  173.8650  136.5020 C   0  0  0  0  0  3  0  0  0  0  0  0
  1  9  1  0  0  0  0
  2  5  1  0  0  0  0
  2  3  1  0  0  0  0
  3  7  1  0  0  0  0
  4 11  2  0  0  0  0
  5 14  2  0  0  0  0
  6  1  2  0  0  0  0
  7  4  1  0  0  0  0
  8 12  1  0  0  0  0
  8 13  1  0  0  0  0
 10 19  1  0  0  0  0
 12 16  1  0  0  0  0
 13  2  2  0  0  0  0
 14  1  1  0  0  0  0
 15 11  1  0  0  0  0
 16 17  2  0  0  0  0
 16  5  1  0  0  0  0
 17  6  1  0  0  0  0
 18 13  1  0  0  0  0
 18 10  2  0  0  0  0
 19  3  2  0  0  0  0
 19 20  1  0  0  0  0
 20 15  2  0  0  0  0
 21  8  1  0  0  0  0
 23 22  1  6  0  0  0
 23 21  1  0  0  0  0
 24 23  1  0  0  0  0
 25 31  2  0  0  0  0
 25 28  1  0  0  0  0
 27 25  1  0  0  0  0
 28 30  1  0  0  0  0
 29 26  1  0  0  0  0
 29 30  2  0  0  0  0
 30 24  1  0  0  0  0
 31 29  1  0  0  0  0
M  END
>  <MODEL>
5

>  <REMARK>
 VINA RESULT:     -10.0      1.682      1.828
  Name = 
  4 active torsions:
  status: ('A' for Active; 'I' for Inactive)
    1  A    between atoms: C_3  and  C_9
    2  A    between atoms: C_3  and  C_22
    3  A    between atoms: C_9  and  C_23
    4  A    between atoms: N_15  and  C_23
                            x       y       z     vdW  Elec       q    Type
                         _______ _______ _______ _____ _____    ______ ____

>  <TORSDO>
F 4

$$$$
=
 OpenBabel10262419193D

 31 35  0  0  1  0  0  0  0  0999 V2000
  185.0970  178.5670  144.7000 C   0  0  0  0  0  0  0  0  0  0  0  0
  188.6130  177.7220  143.4640 C   0  0  0  0  0  0  0  0  0  0  0  0
  189.4320  177.5940  144.6240 C   0  0  0  0  0  0  0  0  0  0  0  0
  188.8720  177.1220  146.9860 C   0  0  0  0  0  3  0  0  0  0  0  0
  187.1850  178.1740  143.5010 C   0  0  0  0  0  0  0  0  0  0  0  0
  184.4680  178.9240  143.5080 C   0  0  0  0  0  3  0  0  0  0  0  0
  189.0060  178.1750  145.9390 C   0  0  0  0  0  2  0  0  0  0  0  0
  188.3750  177.5760  141.0050 N   0  0  0  0  0  0  0  0  0  0  0  0
  184.3700  178.5840  145.9220 N   0  0  0  0  0  1  0  0  0  0  0  0
  191.2240  176.6910  143.2570 C   0  0  0  0  0  3  0  0  0  0  0  0
  189.9120  176.4260  147.4390 C   0  0  0  0  0  3  0  0  0  0  0  0
  187.2580  178.5140  140.9950 C   0  0  0  0  0  2  0  0  0  0  0  0
  189.1540  177.3790  142.2030 C   0  0  0  0  0  0  0  0  0  0  0  0
  186.4410  178.1890  144.6930 C   0  0  0  0  0  3  0  0  0  0  0  0
  191.2860  176.5390  146.9190 C   0  0  0  0  0  3  0  0  0  0  0  0
  186.5260  178.5080  142.2970 C   0  0  0  0  0  0  0  0  0  0  0  0
  185.1820  178.8960  142.3100 C   0  0  0  0  0  3  0  0  0  0  0  0
  190.4500  176.8590  142.1180 C   0  0  0  0  0  3  0  0  0  0  0  0
  190.7300  177.0420  144.5110 C   0  0  0  0  0  0  0  0  0  0  0  0
  191.6370  176.8140  145.6570 C   0  0  0  0  0  3  0  0  0  0  0  0
  188.7560  176.9720  139.7330 C   0  0  0  0  0  2  0  0  0  0  0  0
  189.0560  179.1740  138.8640 O   0  0  0  0  0  1  0  0  0  0  0  0
  189.6480  177.9120  138.9380 C   0  0  2  0  0  3  0  0  0  0  0  0
  189.8470  177.3550  137.5390 C   0  0  0  0  0  2  0  0  0  0  0  0
  192.8730  174.8110  137.6350 C   0  0  0  0  0  0  0  0  0  0  0  0
  189.3350  174.4310  136.9430 O   0  0  0  0  0  1  0  0  0  0  0  0
  194.2370  174.2340  137.7590 C   0  0  0  0  0  1  0  0  0  0  0  0
  192.4890  176.4340  137.8640 S   0  0  0  0  0  0  0  0  0  0  0  0
  190.5970  174.9160  137.2610 C   0  0  0  0  0  0  0  0  0  0  0  0
  190.8470  176.2490  137.5570 C   0  0  0  0  0  0  0  0  0  0  0  0
  191.7300  174.0950  137.3050 C   0  0  0  0  0  3  0  0  0  0  0  0
  1  9  1  0  0  0  0
  2  5  1  0  0  0  0
  2  3  1  0  0  0  0
  3  7  1  0  0  0  0
  4 11  2  0  0  0  0
  5 14  2  0  0  0  0
  6  1  2  0  0  0  0
  7  4  1  0  0  0  0
  8 13  1  0  0  0  0
 10 19  1  0  0  0  0
 12  8  1  0  0  0  0
 12 16  1  0  0  0  0
 13  2  2  0  0  0  0
 14  1  1  0  0  0  0
 15 11  1  0  0  0  0
 16 17  2  0  0  0  0
 16  5  1  0  0  0  0
 17  6  1  0  0  0  0
 18 13  1  0  0  0  0
 18 10  2  0  0  0  0
 19  3  2  0  0  0  0
 19 20  1  0  0  0  0
 20 15  2  0  0  0  0
 21  8  1  0  0  0  0
 23 22  1  6  0  0  0
 23 21  1  0  0  0  0
 24 30  1  0  0  0  0
 24 23  1  0  0  0  0
 25 27  1  0  0  0  0
 25 28  1  0  0  0  0
 26 29  1  0  0  0  0
 29 31  1  0  0  0  0
 29 30  2  0  0  0  0
 30 28  1  0  0  0  0
 31 25  2  0  0  0  0
M  END
>  <MODEL>
6

>  <REMARK>
 VINA RESULT:      -9.8      2.785      5.335
  Name = 
  4 active torsions:
  status: ('A' for Active; 'I' for Inactive)
    1  A    between atoms: C_3  and  C_9
    2  A    between atoms: C_3  and  C_22
    3  A    between atoms: C_9  and  C_23
    4  A    between atoms: N_15  and  C_23
                            x       y       z     vdW  Elec       q    Type
                         _______ _______ _______ _____ _____    ______ ____

>  <TORSDO>
F 4

$$$$
=
 OpenBabel10262419193D

 31 35  0  0  1  0  0  0  0  0999 V2000
  191.0340  177.0060  144.9900 C   0  0  0  0  0  0  0  0  0  0  0  0
  187.6170  177.7120  143.4320 C   0  0  0  0  0  0  0  0  0  0  0  0
  186.6860  177.7860  144.5090 C   0  0  0  0  0  0  0  0  0  0  0  0
  186.9960  178.2470  146.9180 C   0  0  0  0  0  3  0  0  0  0  0  0
  189.0550  177.3230  143.6010 C   0  0  0  0  0  0  0  0  0  0  0  0
  191.7900  176.6950  143.8610 C   0  0  0  0  0  3  0  0  0  0  0  0
  187.0110  177.2060  145.8520 C   0  0  0  0  0  2  0  0  0  0  0  0
  188.0820  177.9050  141.0090 N   0  0  0  0  0  0  0  0  0  0  0  0
  191.6410  177.0030  146.2770 N   0  0  0  0  0  1  0  0  0  0  0  0
  184.9940  178.6280  142.9860 C   0  0  0  0  0  3  0  0  0  0  0  0
  185.8870  178.8900  147.2770 C   0  0  0  0  0  3  0  0  0  0  0  0
  189.2360  177.0170  141.0960 C   0  0  0  0  0  2  0  0  0  0  0  0
  187.1840  178.0500  142.1280 C   0  0  0  0  0  0  0  0  0  0  0  0
  189.6810  177.3240  144.8590 C   0  0  0  0  0  3  0  0  0  0  0  0
  184.5750  178.7230  146.6270 C   0  0  0  0  0  3  0  0  0  0  0  0
  189.8400  177.0370  142.4630 C   0  0  0  0  0  0  0  0  0  0  0  0
  191.1930  176.7090  142.6000 C   0  0  0  0  0  3  0  0  0  0  0  0
  185.8800  178.5120  141.9240 C   0  0  0  0  0  3  0  0  0  0  0  0
  185.3810  178.2810  144.2780 C   0  0  0  0  0  0  0  0  0  0  0  0
  184.3590  178.4510  145.3340 C   0  0  0  0  0  3  0  0  0  0  0  0
  187.7970  178.5100  139.7120 C   0  0  0  0  0  2  0  0  0  0  0  0
  189.1380  179.3260  137.9160 O   0  0  0  0  0  1  0  0  0  0  0  0
  188.9100  178.2090  138.7220 C   0  0  2  0  0  3  0  0  0  0  0  0
  188.5120  177.0250  137.8600 C   0  0  0  0  0  2  0  0  0  0  0  0
  191.8410  175.7540  136.1470 C   0  0  0  0  0  0  0  0  0  0  0  0
  188.7620  177.1570  134.8460 O   0  0  0  0  0  1  0  0  0  0  0  0
  193.2080  175.2120  135.9340 C   0  0  0  0  0  1  0  0  0  0  0  0
  191.0990  175.9320  137.6480 S   0  0  0  0  0  0  0  0  0  0  0  0
  189.7730  176.6550  135.6550 C   0  0  0  0  0  0  0  0  0  0  0  0
  189.6670  176.5670  137.0370 C   0  0  0  0  0  0  0  0  0  0  0  0
  190.9920  176.1960  135.1420 C   0  0  0  0  0  3  0  0  0  0  0  0
  1  9  1  0  0  0  0
  2  5  1  0  0  0  0
  2  3  1  0  0  0  0
  3  7  1  0  0  0  0
  4 11  2  0  0  0  0
  5 14  2  0  0  0  0
  6  1  2  0  0  0  0
  7  4  1  0  0  0  0
  8 12  1  0  0  0  0
  8 13  1  0  0  0  0
 10 19  1  0  0  0  0
 12 16  1  0  0  0  0
 13  2  2  0  0  0  0
 14  1  1  0  0  0  0
 15 11  1  0  0  0  0
 16 17  2  0  0  0  0
 16  5  1  0  0  0  0
 17  6  1  0  0  0  0
 18 13  1  0  0  0  0
 18 10  2  0  0  0  0
 19  3  2  0  0  0  0
 19 20  1  0  0  0  0
 20 15  2  0  0  0  0
 21  8  1  0  0  0  0
 23 22  1  6  0  0  0
 23 21  1  0  0  0  0
 24 23  1  0  0  0  0
 25 28  1  0  0  0  0
 26 29  1  0  0  0  0
 27 25  1  0  0  0  0
 29 30  2  0  0  0  0
 30 28  1  0  0  0  0
 30 24  1  0  0  0  0
 31 29  1  0  0  0  0
 31 25  2  0  0  0  0
M  END
>  <MODEL>
7

>  <REMARK>
 VINA RESULT:      -9.8      2.154      3.146
  Name = 
  4 active torsions:
  status: ('A' for Active; 'I' for Inactive)
    1  A    between atoms: C_3  and  C_9
    2  A    between atoms: C_3  and  C_22
    3  A    between atoms: C_9  and  C_23
    4  A    between atoms: N_15  and  C_23
                            x       y       z     vdW  Elec       q    Type
                         _______ _______ _______ _____ _____    ______ ____

>  <TORSDO>
F 4

$$$$
=
 OpenBabel10262419193D

 31 35  0  0  1  0  0  0  0  0999 V2000
  185.0920  178.4830  145.2770 C   0  0  0  0  0  0  0  0  0  0  0  0
  188.5290  177.7200  143.7900 C   0  0  0  0  0  0  0  0  0  0  0  0
  189.4160  177.5400  144.8910 C   0  0  0  0  0  0  0  0  0  0  0  0
  189.0010  176.9470  147.2560 C   0  0  0  0  0  3  0  0  0  0  0  0
  187.1040  178.1620  143.9360 C   0  0  0  0  0  0  0  0  0  0  0  0
  184.3900  178.8950  144.1450 C   0  0  0  0  0  3  0  0  0  0  0  0
  189.0690  178.0510  146.2560 C   0  0  0  0  0  2  0  0  0  0  0  0
  188.1420  177.6960  141.3460 N   0  0  0  0  0  0  0  0  0  0  0  0
  184.4400  178.4350  146.5400 N   0  0  0  0  0  1  0  0  0  0  0  0
  191.1240  176.7160  143.3750 C   0  0  0  0  0  3  0  0  0  0  0  0
  190.0690  176.2350  147.6090 C   0  0  0  0  0  3  0  0  0  0  0  0
  187.0240  178.6270  141.4500 C   0  0  0  0  0  2  0  0  0  0  0  0
  188.9920  177.4430  142.4830 C   0  0  0  0  0  0  0  0  0  0  0  0
  186.4340  178.1130  145.1700 C   0  0  0  0  0  3  0  0  0  0  0  0
  191.4090  176.3820  147.0140 C   0  0  0  0  0  3  0  0  0  0  0  0
  186.3720  178.5520  142.7930 C   0  0  0  0  0  0  0  0  0  0  0  0
  185.0300  178.9310  142.9060 C   0  0  0  0  0  3  0  0  0  0  0  0
  190.2820  176.9370  142.2940 C   0  0  0  0  0  3  0  0  0  0  0  0
  190.7070  177.0010  144.6720 C   0  0  0  0  0  0  0  0  0  0  0  0
  191.6820  176.7210  145.7490 C   0  0  0  0  0  3  0  0  0  0  0  0
  188.4470  177.1590  140.0240 C   0  0  0  0  0  2  0  0  0  0  0  0
  187.1780  177.8310  138.1180 O   0  0  0  0  0  1  0  0  0  0  0  0
  188.2310  178.2140  138.9520 C   0  0  2  0  0  3  0  0  0  0  0  0
  189.5020  178.3720  138.1370 C   0  0  0  0  0  2  0  0  0  0  0  0
  190.6030  174.7440  137.0140 C   0  0  0  0  0  0  0  0  0  0  0  0
  191.9660  177.1280  139.3820 O   0  0  0  0  0  1  0  0  0  0  0  0
  190.6430  173.4190  136.3440 C   0  0  0  0  0  1  0  0  0  0  0  0
  189.4420  175.9300  136.7340 S   0  0  0  0  0  0  0  0  0  0  0  0
  191.2080  176.4740  138.4180 C   0  0  0  0  0  0  0  0  0  0  0  0
  190.0880  177.0380  137.8220 C   0  0  0  0  0  0  0  0  0  0  0  0
  191.5100  175.1840  137.9690 C   0  0  0  0  0  3  0  0  0  0  0  0
  1  9  1  0  0  0  0
  2  5  1  0  0  0  0
  2  3  1  0  0  0  0
  3  7  1  0  0  0  0
  4 11  2  0  0  0  0
  5 14  2  0  0  0  0
  6  1  2  0  0  0  0
  7  4  1  0  0  0  0
  8 12  1  0  0  0  0
  8 13  1  0  0  0  0
 10 19  1  0  0  0  0
 12 16  1  0  0  0  0
 13  2  2  0  0  0  0
 14  1  1  0  0  0  0
 15 11  1  0  0  0  0
 16 17  2  0  0  0  0
 16  5  1  0  0  0  0
 17  6  1  0  0  0  0
 18 13  1  0  0  0  0
 18 10  2  0  0  0  0
 19  3  2  0  0  0  0
 19 20  1  0  0  0  0
 20 15  2  0  0  0  0
 21  8  1  0  0  0  0
 23 22  1  6  0  0  0
 23 21  1  0  0  0  0
 24 23  1  0  0  0  0
 25 31  2  0  0  0  0
 27 25  1  0  0  0  0
 28 25  1  0  0  0  0
 28 30  1  0  0  0  0
 29 26  1  0  0  0  0
 30 24  1  0  0  0  0
 30 29  2  0  0  0  0
 31 29  1  0  0  0  0
M  END
>  <MODEL>
8

>  <REMARK>
 VINA RESULT:      -9.7      2.366      4.944
  Name = 
  4 active torsions:
  status: ('A' for Active; 'I' for Inactive)
    1  A    between atoms: C_3  and  C_9
    2  A    between atoms: C_3  and  C_22
    3  A    between atoms: C_9  and  C_23
    4  A    between atoms: N_15  and  C_23
                            x       y       z     vdW  Elec       q    Type
                         _______ _______ _______ _____ _____    ______ ____

>  <TORSDO>
F 4

$$$$
=
 OpenBabel10262419193D

 31 35  0  0  1  0  0  0  0  0999 V2000
  185.0770  178.6240  144.7390 C   0  0  0  0  0  0  0  0  0  0  0  0
  188.5780  177.7980  143.4490 C   0  0  0  0  0  0  0  0  0  0  0  0
  189.4110  177.6550  144.5970 C   0  0  0  0  0  0  0  0  0  0  0  0
  188.8790  177.1470  146.9580 C   0  0  0  0  0  3  0  0  0  0  0  0
  187.1500  178.2500  143.5100 C   0  0  0  0  0  0  0  0  0  0  0  0
  184.4320  178.9980  143.5610 C   0  0  0  0  0  3  0  0  0  0  0  0
  189.0000  178.2150  145.9250 C   0  0  0  0  0  2  0  0  0  0  0  0
  188.3100  177.6890  140.9910 N   0  0  0  0  0  0  0  0  0  0  0  0
  184.3650  178.6220  145.9700 N   0  0  0  0  0  1  0  0  0  0  0  0
  191.1860  176.7730  143.1950 C   0  0  0  0  0  3  0  0  0  0  0  0
  189.9250  176.4450  147.3880 C   0  0  0  0  0  3  0  0  0  0  0  0
  187.1930  178.6270  141.0080 C   0  0  0  0  0  2  0  0  0  0  0  0
  189.1030  177.4740  142.1760 C   0  0  0  0  0  0  0  0  0  0  0  0
  186.4210  178.2470  144.7110 C   0  0  0  0  0  3  0  0  0  0  0  0
  191.2930  176.5670  146.8540 C   0  0  0  0  0  3  0  0  0  0  0  0
  186.4760  178.6010  142.3190 C   0  0  0  0  0  0  0  0  0  0  0  0
  185.1320  178.9880  142.3530 C   0  0  0  0  0  3  0  0  0  0  0  0
  190.3980  176.9570  142.0680 C   0  0  0  0  0  3  0  0  0  0  0  0
  190.7070  177.1050  144.4600 C   0  0  0  0  0  0  0  0  0  0  0  0
  191.6280  176.8600  145.5920 C   0  0  0  0  0  3  0  0  0  0  0  0
  188.6760  177.1040  139.7050 C   0  0  0  0  0  2  0  0  0  0  0  0
  189.0300  179.1760  138.5770 O   0  0  0  0  0  1  0  0  0  0  0  0
  189.6630  177.9970  138.9710 C   0  0  2  0  0  3  0  0  0  0  0  0
  190.1930  177.2640  137.7510 C   0  0  0  0  0  2  0  0  0  0  0  0
  187.0330  175.8730  135.8250 C   0  0  0  0  0  0  0  0  0  0  0  0
  189.7620  174.2710  137.5930 O   0  0  0  0  0  1  0  0  0  0  0  0
  185.7650  175.7920  135.0550 C   0  0  0  0  0  1  0  0  0  0  0  0
  187.8150  177.3040  136.2430 S   0  0  0  0  0  0  0  0  0  0  0  0
  188.8940  175.1810  137.0030 C   0  0  0  0  0  0  0  0  0  0  0  0
  189.0870  176.5550  137.0480 C   0  0  0  0  0  0  0  0  0  0  0  0
  187.7420  174.7840  136.3140 C   0  0  0  0  0  3  0  0  0  0  0  0
  1  9  1  0  0  0  0
  2  5  1  0  0  0  0
  2  3  1  0  0  0  0
  3  7  1  0  0  0  0
  4 11  2  0  0  0  0
  5 14  2  0  0  0  0
  6  1  2  0  0  0  0
  7  4  1  0  0  0  0
  8 12  1  0  0  0  0
  8 13  1  0  0  0  0
 10 19  1  0  0  0  0
 12 16  1  0  0  0  0
 13  2  2  0  0  0  0
 14  1  1  0  0  0  0
 15 11  1  0  0  0  0
 16 17  2  0  0  0  0
 16  5  1  0  0  0  0
 17  6  1  0  0  0  0
 18 13  1  0  0  0  0
 18 10  2  0  0  0  0
 19  3  2  0  0  0  0
 19 20  1  0  0  0  0
 20 15  2  0  0  0  0
 21  8  1  0  0  0  0
 23 22  1  6  0  0  0
 23 21  1  0  0  0  0
 24 23  1  0  0  0  0
 25 28  1  0  0  0  0
 25 31  2  0  0  0  0
 27 25  1  0  0  0  0
 28 30  1  0  0  0  0
 29 30  2  0  0  0  0
 29 26  1  0  0  0  0
 30 24  1  0  0  0  0
 31 29  1  0  0  0  0
M  END
>  <MODEL>
9

>  <REMARK>
 VINA RESULT:      -9.3      2.096      4.464
  Name = 
  4 active torsions:
  status: ('A' for Active; 'I' for Inactive)
    1  A    between atoms: C_3  and  C_9
    2  A    between atoms: C_3  and  C_22
    3  A    between atoms: C_9  and  C_23
    4  A    between atoms: N_15  and  C_23
                            x       y       z     vdW  Elec       q    Type
                         _______ _______ _______ _____ _____    ______ ____

>  <TORSDO>
F 4

$$$$
