=
 OpenBabel10262420423D

 28 33  0  0  1  0  0  0  0  0999 V2000
  185.6730  178.0670  144.4570 C   0  0  0  0  0  0  0  0  0  0  0  0
  188.8750  178.8340  142.5700 C   0  0  0  0  0  2  0  0  0  0  0  0
  189.3550  176.7620  147.2550 C   0  0  0  0  0  1  0  0  0  0  0  0
  191.5310  177.2000  141.8920 C   0  0  0  0  0  2  0  0  0  0  0  0
  188.9370  176.4600  143.5230 N   0  0  2  0  0  0  0  0  0  0  0  0
  189.7780  178.1140  140.4550 N   0  0  0  0  0  0  0  0  0  0  0  0
  189.6160  177.5300  142.7740 C   0  0  1  0  0  0  0  0  0  0  0  0
  191.3700  176.4520  144.5350 S   0  0  0  0  0  0  0  0  0  0  0  0
  190.0880  177.0620  141.4190 C   0  0  2  0  0  3  0  0  0  0  0  0
  187.7650  177.8790  145.6960 C   0  0  0  0  0  0  0  0  0  0  0  0
  187.4720  176.5240  143.5890 C   0  0  0  0  0  2  0  0  0  0  0  0
  191.0470  177.6990  143.2450 C   0  0  1  0  0  3  0  0  0  0  0  0
  186.0370  179.4130  146.4410 C   0  0  0  0  0  3  0  0  0  0  0  0
  189.1630  177.3430  145.8640 C   0  0  2  0  0  3  0  0  0  0  0  0
  187.2990  178.8450  146.5990 C   0  0  0  0  0  3  0  0  0  0  0  0
  189.1640  177.4710  139.3080 C   0  0  0  0  0  1  0  0  0  0  0  0
  188.7530  178.9560  141.0660 C   0  0  0  0  0  2  0  0  0  0  0  0
  189.5850  176.2930  144.8220 C   0  0  1  0  0  3  0  0  0  0  0  0
  185.2280  179.0260  145.3750 C   0  0  0  0  0  3  0  0  0  0  0  0
  186.9640  177.5150  144.5980 C   0  0  0  0  0  0  0  0  0  0  0  0
  184.7760  177.6870  143.3090 C   0  0  0  0  0  2  0  0  0  0  0  0
  183.9490  178.8500  142.7120 C   0  0  2  0  0  3  0  0  0  0  0  0
  181.7410  177.9300  141.0630 C   0  0  0  0  0  2  0  0  0  0  0  0
  182.5120  178.8940  143.2580 C   0  0  0  0  0  2  0  0  0  0  0  0
  185.3580  178.9140  140.7470 C   0  0  0  0  0  1  0  0  0  0  0  0
  183.9900  178.9740  141.2390 N   0  0  0  0  0  0  0  0  0  0  0  0
  183.2060  177.9170  140.5970 C   0  0  0  0  0  2  0  0  0  0  0  0
  181.4750  178.9860  142.1380 C   0  0  0  0  0  2  0  0  0  0  0  0
  1 20  2  0  0  0  0
  1 19  1  0  0  0  0
  5 11  1  1  0  0  0
  5 18  1  0  0  0  0
  6 17  1  0  0  0  0
  6  9  1  0  0  0  0
  7  2  1  6  0  0  0
  7 12  1  0  0  0  0
  7  5  1  0  0  0  0
  9  4  1  1  0  0  0
  9  7  1  0  0  0  0
 10 14  1  0  0  0  0
 10 15  2  0  0  0  0
 11 20  1  0  0  0  0
 12  4  1  6  0  0  0
 12  8  1  0  0  0  0
 13 15  1  0  0  0  0
 14  3  1  1  0  0  0
 16  6  1  0  0  0  0
 17  2  1  0  0  0  0
 18  8  1  6  0  0  0
 18 14  1  0  0  0  0
 19 13  2  0  0  0  0
 20 10  1  0  0  0  0
 21  1  1  0  0  0  0
 22 24  1  0  0  0  0
 22 21  1  6  0  0  0
 23 28  1  0  0  0  0
 25 26  1  0  0  0  0
 26 22  1  0  0  0  0
 27 23  1  0  0  0  0
 27 26  1  0  0  0  0
 28 24  1  0  0  0  0
M  END
>  <MODEL>
1

>  <REMARK>
 VINA RESULT:      -8.1      0.000      0.000
  Name = 
  2 active torsions:
  status: ('A' for Active; 'I' for Inactive)
    1  A    between atoms: C_1  and  C_2
    2  A    between atoms: C_2  and  C_3
                            x       y       z     vdW  Elec       q    Type
                         _______ _______ _______ _____ _____    ______ ____

>  <TORSDO>
F 2

$$$$
=
 OpenBabel10262420423D

 28 33  0  0  1  0  0  0  0  0999 V2000
  184.9690  178.2340  143.4660 C   0  0  0  0  0  0  0  0  0  0  0  0
  188.4830  178.8700  142.1830 C   0  0  0  0  0  2  0  0  0  0  0  0
  188.0070  177.4480  147.1050 C   0  0  0  0  0  1  0  0  0  0  0  0
  191.2390  177.2650  142.2870 C   0  0  0  0  0  2  0  0  0  0  0  0
  188.3730  176.6450  143.4420 N   0  0  2  0  0  0  0  0  0  0  0  0
  189.8110  177.9150  140.4140 N   0  0  0  0  0  0  0  0  0  0  0  0
  189.1800  177.6330  142.7080 C   0  0  1  0  0  0  0  0  0  0  0  0
  190.5440  176.8630  144.9180 S   0  0  0  0  0  0  0  0  0  0  0  0
  189.9270  177.0100  141.5540 C   0  0  2  0  0  3  0  0  0  0  0  0
  186.7620  178.2900  145.1180 C   0  0  0  0  0  0  0  0  0  0  0  0
  186.9250  176.6610  143.2000 C   0  0  0  0  0  2  0  0  0  0  0  0
  190.4810  177.9170  143.4330 C   0  0  1  0  0  3  0  0  0  0  0  0
  184.9010  179.8410  145.2810 C   0  0  0  0  0  3  0  0  0  0  0  0
  188.1010  177.8350  145.6380 C   0  0  2  0  0  3  0  0  0  0  0  0
  186.1090  179.3470  145.7680 C   0  0  0  0  0  3  0  0  0  0  0  0
  189.4550  177.1040  139.2640 C   0  0  0  0  0  1  0  0  0  0  0  0
  188.6730  178.7890  140.6830 C   0  0  0  0  0  2  0  0  0  0  0  0
  188.7400  176.6740  144.8560 C   0  0  1  0  0  3  0  0  0  0  0  0
  184.3340  179.2870  144.1350 C   0  0  0  0  0  3  0  0  0  0  0  0
  186.2090  177.7550  143.9400 C   0  0  0  0  0  0  0  0  0  0  0  0
  184.3330  177.6730  142.2230 C   0  0  0  0  0  2  0  0  0  0  0  0
  183.4590  178.6720  141.4270 C   0  0  2  0  0  3  0  0  0  0  0  0
  181.5880  177.3530  139.6380 C   0  0  0  0  0  2  0  0  0  0  0  0
  181.9700  178.5830  141.8010 C   0  0  0  0  0  2  0  0  0  0  0  0
  185.0830  178.7460  139.6360 C   0  0  0  0  0  1  0  0  0  0  0  0
  183.6660  178.6780  139.9630 N   0  0  0  0  0  0  0  0  0  0  0  0
  183.0910  177.4830  139.3420 C   0  0  0  0  0  2  0  0  0  0  0  0
  181.0750  178.4530  140.5690 C   0  0  0  0  0  2  0  0  0  0  0  0
  1 20  2  0  0  0  0
  1 19  1  0  0  0  0
  5 11  1  1  0  0  0
  5 18  1  0  0  0  0
  6 17  1  0  0  0  0
  6  9  1  0  0  0  0
  7  2  1  6  0  0  0
  7 12  1  0  0  0  0
  7  5  1  0  0  0  0
  9  4  1  1  0  0  0
  9  7  1  0  0  0  0
 10 14  1  0  0  0  0
 10 15  2  0  0  0  0
 11 20  1  0  0  0  0
 12  4  1  6  0  0  0
 12  8  1  0  0  0  0
 13 15  1  0  0  0  0
 14  3  1  1  0  0  0
 16  6  1  0  0  0  0
 17  2  1  0  0  0  0
 18  8  1  6  0  0  0
 18 14  1  0  0  0  0
 19 13  2  0  0  0  0
 20 10  1  0  0  0  0
 21  1  1  0  0  0  0
 22 24  1  0  0  0  0
 22 21  1  1  0  0  0
 23 28  1  0  0  0  0
 25 26  1  0  0  0  0
 26 22  1  0  0  0  0
 27 23  1  0  0  0  0
 27 26  1  0  0  0  0
 28 24  1  0  0  0  0
M  END
>  <MODEL>
2

>  <REMARK>
 VINA RESULT:      -7.2      0.925      1.130
  Name = 
  2 active torsions:
  status: ('A' for Active; 'I' for Inactive)
    1  A    between atoms: C_1  and  C_2
    2  A    between atoms: C_2  and  C_3
                            x       y       z     vdW  Elec       q    Type
                         _______ _______ _______ _____ _____    ______ ____

>  <TORSDO>
F 2

$$$$
=
 OpenBabel10262420423D

 28 33  0  0  1  0  0  0  0  0999 V2000
  190.9530  176.9750  143.1710 C   0  0  0  0  0  0  0  0  0  0  0  0
  187.5380  176.6880  144.8010 C   0  0  0  0  0  2  0  0  0  0  0  0
  191.6090  177.0160  147.9310 C   0  0  0  0  0  1  0  0  0  0  0  0
  186.0050  178.2810  147.1020 C   0  0  0  0  0  2  0  0  0  0  0  0
  188.8850  178.5900  145.8590 N   0  0  2  0  0  0  0  0  0  0  0  0
  185.5340  178.0220  144.7180 N   0  0  0  0  0  0  0  0  0  0  0  0
  187.6460  177.7960  145.8270 C   0  0  1  0  0  0  0  0  0  0  0  0
  188.4210  178.0990  148.4050 S   0  0  0  0  0  0  0  0  0  0  0  0
  186.4200  178.6640  145.6860 C   0  0  2  0  0  3  0  0  0  0  0  0
  190.9000  176.5980  145.5800 C   0  0  0  0  0  0  0  0  0  0  0  0
  189.6960  178.6020  144.6350 C   0  0  0  0  0  2  0  0  0  0  0  0
  187.2290  177.3860  147.2260 C   0  0  1  0  0  3  0  0  0  0  0  0
  192.0230  175.0160  144.1200 C   0  0  0  0  0  3  0  0  0  0  0  0
  190.4350  176.9540  146.9680 C   0  0  2  0  0  3  0  0  0  0  0  0
  191.6300  175.4150  145.3950 C   0  0  0  0  0  3  0  0  0  0  0  0
  185.0940  179.0540  143.7980 C   0  0  0  0  0  1  0  0  0  0  0  0
  186.3540  177.0910  143.9490 C   0  0  0  0  0  2  0  0  0  0  0  0
  189.6370  178.2650  147.0690 C   0  0  1  0  0  3  0  0  0  0  0  0
  191.6860  175.7920  143.0130 C   0  0  0  0  0  3  0  0  0  0  0  0
  190.5270  177.3630  144.4590 C   0  0  0  0  0  0  0  0  0  0  0  0
  190.5950  177.7780  141.9500 C   0  0  0  0  0  2  0  0  0  0  0  0
  189.7150  177.0370  140.9140 C   0  0  2  0  0  3  0  0  0  0  0  0
  189.9210  178.1710  138.2470 C   0  0  0  0  0  2  0  0  0  0  0  0
  190.5480  176.3220  139.8370 C   0  0  0  0  0  2  0  0  0  0  0  0
  187.8490  178.5070  141.3700 C   0  0  0  0  0  1  0  0  0  0  0  0
  188.6110  177.8280  140.3320 N   0  0  0  0  0  0  0  0  0  0  0  0
  189.1140  178.8230  139.3830 C   0  0  0  0  0  2  0  0  0  0  0  0
  190.0700  176.6590  138.4240 C   0  0  0  0  0  2  0  0  0  0  0  0
  1 20  1  0  0  0  0
  5 11  1  6  0  0  0
  5 18  1  0  0  0  0
  6  9  1  0  0  0  0
  7  2  1  6  0  0  0
  7  5  1  0  0  0  0
  7 12  1  0  0  0  0
  9  7  1  0  0  0  0
  9  4  1  1  0  0  0
 10 14  1  0  0  0  0
 12  4  1  1  0  0  0
 12  8  1  0  0  0  0
 13 15  2  0  0  0  0
 14 18  1  0  0  0  0
 14  3  1  1  0  0  0
 15 10  1  0  0  0  0
 16  6  1  0  0  0  0
 17  6  1  0  0  0  0
 17  2  1  0  0  0  0
 18  8  1  1  0  0  0
 19  1  2  0  0  0  0
 19 13  1  0  0  0  0
 20 11  1  0  0  0  0
 20 10  2  0  0  0  0
 21  1  1  0  0  0  0
 22 21  1  6  0  0  0
 23 28  1  0  0  0  0
 23 27  1  0  0  0  0
 24 22  1  0  0  0  0
 26 22  1  0  0  0  0
 26 25  1  0  0  0  0
 27 26  1  0  0  0  0
 28 24  1  0  0  0  0
M  END
>  <MODEL>
3

>  <REMARK>
 VINA RESULT:      -6.8      2.289      5.684
  Name = 
  2 active torsions:
  status: ('A' for Active; 'I' for Inactive)
    1  A    between atoms: C_1  and  C_2
    2  A    between atoms: C_2  and  C_3
                            x       y       z     vdW  Elec       q    Type
                         _______ _______ _______ _____ _____    ______ ____

>  <TORSDO>
F 2

$$$$
=
 OpenBabel10262420423D

 28 33  0  0  1  0  0  0  0  0999 V2000
  187.8620  177.9280  141.5620 C   0  0  0  0  0  0  0  0  0  0  0  0
  184.1070  177.3980  141.4200 C   0  0  0  0  0  2  0  0  0  0  0  0
  186.1280  178.6340  145.9880 C   0  0  0  0  0  1  0  0  0  0  0  0
  181.5650  179.0460  142.4240 C   0  0  0  0  0  2  0  0  0  0  0  0
  184.6640  179.5740  142.6460 N   0  0  2  0  0  0  0  0  0  0  0  0
  182.3220  178.4390  140.1810 N   0  0  0  0  0  0  0  0  0  0  0  0
  183.6420  178.6270  142.1720 C   0  0  1  0  0  0  0  0  0  0  0  0
  183.0540  179.3400  144.7190 S   0  0  0  0  0  0  0  0  0  0  0  0
  182.5910  179.3040  141.3270 C   0  0  2  0  0  3  0  0  0  0  0  0
  186.6700  177.8430  143.6890 C   0  0  0  0  0  0  0  0  0  0  0  0
  185.9640  179.5430  141.9650 C   0  0  0  0  0  2  0  0  0  0  0  0
  182.6230  178.3400  143.2580 C   0  0  1  0  0  3  0  0  0  0  0  0
  188.4470  176.2560  143.2190 C   0  0  0  0  0  3  0  0  0  0  0  0
  185.5720  178.3020  144.6120 C   0  0  2  0  0  3  0  0  0  0  0  0
  187.4630  176.7530  144.0710 C   0  0  0  0  0  3  0  0  0  0  0  0
  182.3250  179.2850  139.0020 C   0  0  0  0  0  1  0  0  0  0  0  0
  183.4630  177.5370  140.0570 C   0  0  0  0  0  2  0  0  0  0  0  0
  184.7530  179.5000  144.1030 C   0  0  1  0  0  3  0  0  0  0  0  0
  188.6450  176.8410  141.9700 C   0  0  0  0  0  3  0  0  0  0  0  0
  186.8440  178.4110  142.4130 C   0  0  0  0  0  0  0  0  0  0  0  0
  188.0950  178.5230  140.2000 C   0  0  0  0  0  2  0  0  0  0  0  0
  188.1520  177.5000  139.0400 C   0  0  2  0  0  3  0  0  0  0  0  0
  189.4310  178.5680  136.6600 C   0  0  0  0  0  2  0  0  0  0  0  0
  189.5910  177.0860  138.6890 C   0  0  0  0  0  2  0  0  0  0  0  0
  186.0130  178.2530  138.2000 C   0  0  0  0  0  1  0  0  0  0  0  0
  187.3640  177.8500  137.8400 N   0  0  0  0  0  0  0  0  0  0  0  0
  187.9990  178.9320  137.0850 C   0  0  0  0  0  2  0  0  0  0  0  0
  189.8730  177.2030  137.1910 C   0  0  0  0  0  2  0  0  0  0  0  0
  1 19  2  0  0  0  0
  1 20  1  0  0  0  0
  5 11  1  6  0  0  0
  5 18  1  0  0  0  0
  6  9  1  0  0  0  0
  7  2  1  6  0  0  0
  7  5  1  0  0  0  0
  7 12  1  0  0  0  0
  9  7  1  0  0  0  0
  9  4  1  1  0  0  0
 10 15  1  0  0  0  0
 10 14  1  0  0  0  0
 11 20  1  0  0  0  0
 12  4  1  6  0  0  0
 12  8  1  0  0  0  0
 13 15  2  0  0  0  0
 14  3  1  1  0  0  0
 16  6  1  0  0  0  0
 17  6  1  0  0  0  0
 17  2  1  0  0  0  0
 18 14  1  0  0  0  0
 18  8  1  1  0  0  0
 19 13  1  0  0  0  0
 20 10  2  0  0  0  0
 21  1  1  0  0  0  0
 22 21  1  1  0  0  0
 23 27  1  0  0  0  0
 23 28  1  0  0  0  0
 24 22  1  0  0  0  0
 26 25  1  0  0  0  0
 26 22  1  0  0  0  0
 27 26  1  0  0  0  0
 28 24  1  0  0  0  0
M  END
>  <MODEL>
4

>  <REMARK>
 VINA RESULT:      -6.8      2.601      6.222
  Name = 
  2 active torsions:
  status: ('A' for Active; 'I' for Inactive)
    1  A    between atoms: C_1  and  C_2
    2  A    between atoms: C_2  and  C_3
                            x       y       z     vdW  Elec       q    Type
                         _______ _______ _______ _____ _____    ______ ____

>  <TORSDO>
F 2

$$$$
=
 OpenBabel10262420423D

 28 33  0  0  1  0  0  0  0  0999 V2000
  190.9010  176.8270  140.4550 C   0  0  0  0  0  0  0  0  0  0  0  0
  189.2820  178.2450  137.3290 C   0  0  0  0  0  2  0  0  0  0  0  0
  193.2700  175.0630  136.6640 C   0  0  0  0  0  1  0  0  0  0  0  0
  188.2070  177.0030  134.5940 C   0  0  0  0  0  2  0  0  0  0  0  0
  189.5860  175.7140  137.1170 N   0  0  2  0  0  0  0  0  0  0  0  0
  187.0540  178.1520  136.4170 N   0  0  0  0  0  0  0  0  0  0  0  0
  189.1420  176.9790  136.5120 C   0  0  1  0  0  0  0  0  0  0  0  0
  190.5650  175.5890  134.6730 S   0  0  0  0  0  0  0  0  0  0  0  0
  187.7120  176.9070  136.0320 C   0  0  2  0  0  3  0  0  0  0  0  0
  192.0510  176.4490  138.3370 C   0  0  0  0  0  0  0  0  0  0  0  0
  189.6650  175.6700  138.5820 C   0  0  0  0  0  2  0  0  0  0  0  0
  189.6420  177.1050  135.0860 C   0  0  1  0  0  3  0  0  0  0  0  0
  193.1670  177.6320  140.1410 C   0  0  0  0  0  3  0  0  0  0  0  0
  192.0760  175.9720  136.9090 C   0  0  2  0  0  3  0  0  0  0  0  0
  193.1730  177.1190  138.8460 C   0  0  0  0  0  3  0  0  0  0  0  0
  185.7780  177.7930  137.0080 C   0  0  0  0  0  1  0  0  0  0  0  0
  187.8610  178.7450  137.4800 C   0  0  0  0  0  2  0  0  0  0  0  0
  190.7990  175.2550  136.4420 C   0  0  1  0  0  3  0  0  0  0  0  0
  192.0360  177.4870  140.9410 C   0  0  0  0  0  3  0  0  0  0  0  0
  190.8960  176.3350  139.1320 C   0  0  0  0  0  0  0  0  0  0  0  0
  189.6930  176.7040  141.3440 C   0  0  0  0  0  2  0  0  0  0  0  0
  189.4830  177.8800  142.3280 C   0  0  2  0  0  3  0  0  0  0  0  0
  187.8280  177.1580  144.6040 C   0  0  0  0  0  2  0  0  0  0  0  0
  190.1310  177.6240  143.7000 C   0  0  0  0  0  2  0  0  0  0  0  0
  187.4990  178.5890  141.1410 C   0  0  0  0  0  1  0  0  0  0  0  0
  188.0940  178.3710  142.4510 N   0  0  0  0  0  0  0  0  0  0  0  0
  187.2620  177.4270  143.2000 C   0  0  0  0  0  2  0  0  0  0  0  0
  189.1560  177.8760  144.8510 C   0  0  0  0  0  2  0  0  0  0  0  0
  1 19  1  0  0  0  0
  1 21  1  0  0  0  0
  2 17  1  0  0  0  0
  5 11  1  1  0  0  0
  6 16  1  0  0  0  0
  6 17  1  0  0  0  0
  7  5  1  0  0  0  0
  7  2  1  1  0  0  0
  8 12  1  0  0  0  0
  9  4  1  6  0  0  0
  9  6  1  0  0  0  0
  9  7  1  0  0  0  0
 10 15  2  0  0  0  0
 10 20  1  0  0  0  0
 11 20  1  0  0  0  0
 12  4  1  6  0  0  0
 12  7  1  0  0  0  0
 13 19  2  0  0  0  0
 14  3  1  1  0  0  0
 14 10  1  0  0  0  0
 15 13  1  0  0  0  0
 18  8  1  6  0  0  0
 18 14  1  0  0  0  0
 18  5  1  0  0  0  0
 20  1  2  0  0  0  0
 22 21  1  6  0  0  0
 22 26  1  0  0  0  0
 22 24  1  0  0  0  0
 23 28  1  0  0  0  0
 24 28  1  0  0  0  0
 25 26  1  0  0  0  0
 26 27  1  0  0  0  0
 27 23  1  0  0  0  0
M  END
>  <MODEL>
5

>  <REMARK>
 VINA RESULT:      -6.7      3.496      7.236
  Name = 
  2 active torsions:
  status: ('A' for Active; 'I' for Inactive)
    1  A    between atoms: C_1  and  C_2
    2  A    between atoms: C_2  and  C_3
                            x       y       z     vdW  Elec       q    Type
                         _______ _______ _______ _____ _____    ______ ____

>  <TORSDO>
F 2

$$$$
=
 OpenBabel10262420423D

 28 33  0  0  1  0  0  0  0  0999 V2000
  184.9290  178.8490  140.4500 C   0  0  0  0  0  0  0  0  0  0  0  0
  182.5640  176.0010  139.6160 C   0  0  0  0  0  2  0  0  0  0  0  0
  180.8840  179.5440  142.9490 C   0  0  0  0  0  1  0  0  0  0  0  0
  179.5060  175.8070  138.7270 C   0  0  0  0  0  2  0  0  0  0  0  0
  181.3600  178.2520  139.4410 N   0  0  2  0  0  0  0  0  0  0  0  0
  181.5720  175.2020  137.5710 N   0  0  0  0  0  0  0  0  0  0  0  0
  181.2970  176.7850  139.3490 C   0  0  1  0  0  0  0  0  0  0  0  0
  179.1330  177.6650  140.7200 S   0  0  0  0  0  0  0  0  0  0  0  0
  180.7520  176.3240  138.0190 C   0  0  2  0  0  3  0  0  0  0  0  0
  182.9060  178.6540  141.7980 C   0  0  0  0  0  0  0  0  0  0  0  0
  182.6840  178.8700  139.2960 C   0  0  0  0  0  2  0  0  0  0  0  0
  180.0740  176.2480  140.0660 C   0  0  1  0  0  3  0  0  0  0  0  0
  185.0920  178.5540  142.8520 C   0  0  0  0  0  3  0  0  0  0  0  0
  181.4110  178.5390  141.9360 C   0  0  2  0  0  3  0  0  0  0  0  0
  183.7030  178.5190  142.9440 C   0  0  0  0  0  3  0  0  0  0  0  0
  181.8970  175.4430  136.1770 C   0  0  0  0  0  1  0  0  0  0  0  0
  182.8270  175.2730  138.3160 C   0  0  0  0  0  2  0  0  0  0  0  0
  180.6240  178.6950  140.6240 C   0  0  1  0  0  3  0  0  0  0  0  0
  185.7020  178.7180  141.6100 C   0  0  0  0  0  3  0  0  0  0  0  0
  183.5220  178.7820  140.5400 C   0  0  0  0  0  0  0  0  0  0  0  0
  185.6250  179.0090  139.1250 C   0  0  0  0  0  2  0  0  0  0  0  0
  186.7080  177.9460  138.8220 C   0  0  2  0  0  3  0  0  0  0  0  0
  188.8640  178.9740  137.1690 C   0  0  0  0  0  2  0  0  0  0  0  0
  188.0660  178.2880  139.4560 C   0  0  0  0  0  2  0  0  0  0  0  0
  185.5390  177.2490  136.8230 C   0  0  0  0  0  1  0  0  0  0  0  0
  186.8390  177.5530  137.4030 N   0  0  0  0  0  0  0  0  0  0  0  0
  187.4760  178.6100  136.6170 C   0  0  0  0  0  2  0  0  0  0  0  0
  189.2100  178.2040  138.4450 C   0  0  0  0  0  2  0  0  0  0  0  0
  1 20  2  0  0  0  0
  1 19  1  0  0  0  0
  5 11  1  1  0  0  0
  5 18  1  0  0  0  0
  6  9  1  0  0  0  0
  6 17  1  0  0  0  0
  7  5  1  0  0  0  0
  7  2  1  1  0  0  0
  7 12  1  0  0  0  0
  9  4  1  1  0  0  0
  9  7  1  0  0  0  0
 10 14  1  0  0  0  0
 10 15  2  0  0  0  0
 11 20  1  0  0  0  0
 12  4  1  6  0  0  0
 12  8  1  0  0  0  0
 13 15  1  0  0  0  0
 14  3  1  1  0  0  0
 16  6  1  0  0  0  0
 17  2  1  0  0  0  0
 18  8  1  1  0  0  0
 18 14  1  0  0  0  0
 19 13  2  0  0  0  0
 20 10  1  0  0  0  0
 21  1  1  0  0  0  0
 22 21  1  6  0  0  0
 22 24  1  0  0  0  0
 23 28  1  0  0  0  0
 25 26  1  0  0  0  0
 26 22  1  0  0  0  0
 27 23  1  0  0  0  0
 27 26  1  0  0  0  0
 28 24  1  0  0  0  0
M  END
>  <MODEL>
6

>  <REMARK>
 VINA RESULT:      -6.5      4.217      7.910
  Name = 
  2 active torsions:
  status: ('A' for Active; 'I' for Inactive)
    1  A    between atoms: C_1  and  C_2
    2  A    between atoms: C_2  and  C_3
                            x       y       z     vdW  Elec       q    Type
                         _______ _______ _______ _____ _____    ______ ____

>  <TORSDO>
F 2

$$$$
=
 OpenBabel10262420423D

 28 33  0  0  1  0  0  0  0  0999 V2000
  185.9710  178.3060  142.4730 C   0  0  0  0  0  0  0  0  0  0  0  0
  189.4040  178.7880  144.0160 C   0  0  0  0  0  2  0  0  0  0  0  0
  185.5090  177.7910  147.2280 C   0  0  0  0  0  1  0  0  0  0  0  0
  191.1710  177.1620  146.1180 C   0  0  0  0  0  2  0  0  0  0  0  0
  188.2880  176.6790  144.9410 N   0  0  2  0  0  0  0  0  0  0  0  0
  191.5220  177.6700  143.7530 N   0  0  0  0  0  0  0  0  0  0  0  0
  189.4430  177.5910  144.9420 C   0  0  1  0  0  0  0  0  0  0  0  0
  188.8020  176.9930  147.5060 S   0  0  0  0  0  0  0  0  0  0  0  0
  190.7400  176.8640  144.6870 C   0  0  2  0  0  3  0  0  0  0  0  0
  186.0820  178.4780  144.9030 C   0  0  0  0  0  0  0  0  0  0  0  0
  187.4340  176.6910  143.7460 C   0  0  0  0  0  2  0  0  0  0  0  0
  189.8730  177.9180  146.3590 C   0  0  1  0  0  3  0  0  0  0  0  0
  184.7560  180.0610  143.6250 C   0  0  0  0  0  3  0  0  0  0  0  0
  186.6330  178.0520  146.2390 C   0  0  2  0  0  3  0  0  0  0  0  0
  185.2360  179.5940  144.8470 C   0  0  0  0  0  3  0  0  0  0  0  0
  192.0230  176.7700  142.7310 C   0  0  0  0  0  1  0  0  0  0  0  0
  190.5860  178.5780  143.0950 C   0  0  0  0  0  2  0  0  0  0  0  0
  187.5560  176.8220  146.1970 C   0  0  1  0  0  3  0  0  0  0  0  0
  185.1220  179.4200  142.4440 C   0  0  0  0  0  3  0  0  0  0  0  0
  186.4820  177.8530  143.7080 C   0  0  0  0  0  0  0  0  0  0  0  0
  186.3560  177.6500  141.1740 C   0  0  0  0  0  2  0  0  0  0  0  0
  186.3540  178.5870  139.9420 C   0  0  2  0  0  3  0  0  0  0  0  0
  186.2580  177.1360  137.4270 C   0  0  0  0  0  2  0  0  0  0  0  0
  185.0390  178.5130  139.1470 C   0  0  0  0  0  2  0  0  0  0  0  0
  188.7700  178.5510  139.8440 C   0  0  0  0  0  1  0  0  0  0  0  0
  187.5410  178.4940  139.0670 N   0  0  0  0  0  0  0  0  0  0  0  0
  187.5280  177.2560  138.2850 C   0  0  0  0  0  2  0  0  0  0  0  0
  185.2830  178.2930  137.6540 C   0  0  0  0  0  2  0  0  0  0  0  0
  1 20  1  0  0  0  0
  5 11  1  6  0  0  0
  5  7  1  0  0  0  0
  5 18  1  0  0  0  0
  6  9  1  0  0  0  0
  7  2  1  6  0  0  0
  7 12  1  0  0  0  0
  9  7  1  0  0  0  0
  9  4  1  1  0  0  0
 10 14  1  0  0  0  0
 12  4  1  6  0  0  0
 12  8  1  0  0  0  0
 13 15  2  0  0  0  0
 14  3  1  1  0  0  0
 15 10  1  0  0  0  0
 16  6  1  0  0  0  0
 17  6  1  0  0  0  0
 17  2  1  0  0  0  0
 18 14  1  0  0  0  0
 18  8  1  1  0  0  0
 19  1  2  0  0  0  0
 19 13  1  0  0  0  0
 20 11  1  0  0  0  0
 20 10  2  0  0  0  0
 21  1  1  0  0  0  0
 22 21  1  1  0  0  0
 23 28  1  0  0  0  0
 23 27  1  0  0  0  0
 24 22  1  0  0  0  0
 26 25  1  0  0  0  0
 26 22  1  0  0  0  0
 27 26  1  0  0  0  0
 28 24  1  0  0  0  0
M  END
>  <MODEL>
7

>  <REMARK>
 VINA RESULT:      -6.5      2.046      3.487
  Name = 
  2 active torsions:
  status: ('A' for Active; 'I' for Inactive)
    1  A    between atoms: C_1  and  C_2
    2  A    between atoms: C_2  and  C_3
                            x       y       z     vdW  Elec       q    Type
                         _______ _______ _______ _____ _____    ______ ____

>  <TORSDO>
F 2

$$$$
=
 OpenBabel10262420423D

 28 33  0  0  1  0  0  0  0  0999 V2000
  187.7640  177.9210  139.5230 C   0  0  0  0  0  0  0  0  0  0  0  0
  188.0480  176.4410  143.0050 C   0  0  0  0  0  2  0  0  0  0  0  0
  192.4390  177.6250  140.5980 C   0  0  0  0  0  1  0  0  0  0  0  0
  189.6300  177.2320  145.6620 C   0  0  0  0  0  2  0  0  0  0  0  0
  189.5120  178.5290  142.7920 N   0  0  2  0  0  0  0  0  0  0  0  0
  187.2380  177.1120  145.1740 N   0  0  0  0  0  0  0  0  0  0  0  0
  189.0380  177.4080  143.6190 C   0  0  1  0  0  0  0  0  0  0  0  0
  191.7200  177.6390  143.9210 S   0  0  0  0  0  0  0  0  0  0  0  0
  188.4580  177.8770  144.9310 C   0  0  2  0  0  3  0  0  0  0  0  0
  189.9920  177.2790  140.2790 C   0  0  0  0  0  0  0  0  0  0  0  0
  188.6650  178.9210  141.6580 C   0  0  0  0  0  2  0  0  0  0  0  0
  190.1930  176.7380  144.3380 C   0  0  1  0  0  3  0  0  0  0  0  0
  189.0460  176.2810  138.2780 C   0  0  0  0  0  3  0  0  0  0  0  0
  191.1150  177.3210  141.2820 C   0  0  2  0  0  3  0  0  0  0  0  0
  190.0900  176.3990  139.1920 C   0  0  0  0  0  3  0  0  0  0  0  0
  186.2160  178.0600  145.5760 C   0  0  0  0  0  1  0  0  0  0  0  0
  186.8220  176.5630  143.8860 C   0  0  0  0  0  2  0  0  0  0  0  0
  190.9140  178.3120  142.4410 C   0  0  1  0  0  3  0  0  0  0  0  0
  187.8880  177.0400  138.4420 C   0  0  0  0  0  3  0  0  0  0  0  0
  188.8090  178.0170  140.4670 C   0  0  0  0  0  0  0  0  0  0  0  0
  186.4920  178.7110  139.6760 C   0  0  0  0  0  2  0  0  0  0  0  0
  185.1900  177.8990  139.4810 C   0  0  2  0  0  3  0  0  0  0  0  0
  182.9490  179.5480  138.6470 C   0  0  0  0  0  2  0  0  0  0  0  0
  184.7220  177.8760  138.0160 C   0  0  0  0  0  2  0  0  0  0  0  0
  184.5610  178.2520  141.7890 C   0  0  0  0  0  1  0  0  0  0  0  0
  184.0890  178.2220  140.4130 N   0  0  0  0  0  0  0  0  0  0  0  0
  183.4820  179.5140  140.0890 C   0  0  0  0  0  2  0  0  0  0  0  0
  183.2490  178.2600  137.8780 C   0  0  0  0  0  2  0  0  0  0  0  0
  1 21  1  0  0  0  0
  1 20  1  0  0  0  0
  2 17  1  0  0  0  0
  5 11  1  6  0  0  0
  5  7  1  0  0  0  0
  6 16  1  0  0  0  0
  7  2  1  6  0  0  0
  7 12  1  0  0  0  0
  7  9  1  0  0  0  0
  8 12  1  0  0  0  0
  9  6  1  0  0  0  0
  9  4  1  1  0  0  0
 10 20  2  0  0  0  0
 10 14  1  0  0  0  0
 12  4  1  1  0  0  0
 13 19  1  0  0  0  0
 13 15  2  0  0  0  0
 14  3  1  6  0  0  0
 14 18  1  0  0  0  0
 15 10  1  0  0  0  0
 17  6  1  0  0  0  0
 18  5  1  0  0  0  0
 18  8  1  1  0  0  0
 19  1  2  0  0  0  0
 20 11  1  0  0  0  0
 22 21  1  6  0  0  0
 22 26  1  0  0  0  0
 23 27  1  0  0  0  0
 24 22  1  0  0  0  0
 26 25  1  0  0  0  0
 27 26  1  0  0  0  0
 28 24  1  0  0  0  0
 28 23  1  0  0  0  0
M  END
>  <MODEL>
8

>  <REMARK>
 VINA RESULT:      -6.2      1.574      4.807
  Name = 
  2 active torsions:
  status: ('A' for Active; 'I' for Inactive)
    1  A    between atoms: C_1  and  C_2
    2  A    between atoms: C_2  and  C_3
                            x       y       z     vdW  Elec       q    Type
                         _______ _______ _______ _____ _____    ______ ____

>  <TORSDO>
F 2

$$$$
=
 OpenBabel10262420423D

 28 33  0  0  1  0  0  0  0  0999 V2000
  182.4510  178.7770  141.9070 C   0  0  0  0  0  0  0  0  0  0  0  0
  181.0220  176.6250  139.1270 C   0  0  0  0  0  2  0  0  0  0  0  0
  180.0110  181.6670  138.9420 C   0  0  0  0  0  1  0  0  0  0  0  0
  180.9930  176.7970  135.9410 C   0  0  0  0  0  2  0  0  0  0  0  0
  182.1840  178.6900  138.1610 N   0  0  2  0  0  0  0  0  0  0  0  0
  182.0010  175.1770  137.4680 N   0  0  0  0  0  0  0  0  0  0  0  0
  181.4170  177.4560  137.9260 C   0  0  1  0  0  0  0  0  0  0  0  0
  180.3710  179.4370  136.4010 S   0  0  0  0  0  0  0  0  0  0  0  0
  182.1080  176.5370  136.9470 C   0  0  2  0  0  3  0  0  0  0  0  0
  180.8450  179.8280  140.4010 C   0  0  0  0  0  0  0  0  0  0  0  0
  182.9220  178.7800  139.4270 C   0  0  0  0  0  2  0  0  0  0  0  0
  180.2880  177.6990  136.9430 C   0  0  1  0  0  3  0  0  0  0  0  0
  180.3970  179.7230  142.7860 C   0  0  0  0  0  3  0  0  0  0  0  0
  180.3620  180.1900  139.0210 C   0  0  2  0  0  3  0  0  0  0  0  0
  180.0170  180.1000  141.4990 C   0  0  0  0  0  3  0  0  0  0  0  0
  183.3180  174.5780  137.3610 C   0  0  0  0  0  1  0  0  0  0  0  0
  181.7050  175.2940  138.8940 C   0  0  0  0  0  2  0  0  0  0  0  0
  181.3370  179.8470  137.8820 C   0  0  1  0  0  3  0  0  0  0  0  0
  181.6090  179.0650  142.9880 C   0  0  0  0  0  3  0  0  0  0  0  0
  182.0510  179.1300  140.6000 C   0  0  0  0  0  0  0  0  0  0  0  0
  183.7430  178.0510  142.1640 C   0  0  0  0  0  2  0  0  0  0  0  0
  184.9680  178.9630  142.4120 C   0  0  2  0  0  3  0  0  0  0  0  0
  187.4360  177.4660  142.7470 C   0  0  0  0  0  2  0  0  0  0  0  0
  185.9920  178.9010  141.2650 C   0  0  0  0  0  2  0  0  0  0  0  0
  184.6180  178.8740  144.8030 C   0  0  0  0  0  1  0  0  0  0  0  0
  185.6080  178.8280  143.7370 N   0  0  0  0  0  0  0  0  0  0  0  0
  186.3590  177.5760  143.8390 C   0  0  0  0  0  2  0  0  0  0  0  0
  187.4110  178.6470  141.7750 C   0  0  0  0  0  2  0  0  0  0  0  0
  1 21  1  0  0  0  0
  1 19  1  0  0  0  0
  5 11  1  1  0  0  0
  6 17  1  0  0  0  0
  7  5  1  0  0  0  0
  7  2  1  1  0  0  0
  8 12  1  0  0  0  0
  9  4  1  6  0  0  0
  9  6  1  0  0  0  0
  9  7  1  0  0  0  0
 10 20  1  0  0  0  0
 10 15  2  0  0  0  0
 11 20  1  0  0  0  0
 12  4  1  6  0  0  0
 12  7  1  0  0  0  0
 13 19  2  0  0  0  0
 14  3  1  1  0  0  0
 14 10  1  0  0  0  0
 15 13  1  0  0  0  0
 16  6  1  0  0  0  0
 17  2  1  0  0  0  0
 18  8  1  6  0  0  0
 18  5  1  0  0  0  0
 18 14  1  0  0  0  0
 20  1  2  0  0  0  0
 22 21  1  6  0  0  0
 22 26  1  0  0  0  0
 23 27  1  0  0  0  0
 24 28  1  0  0  0  0
 24 22  1  0  0  0  0
 26 27  1  0  0  0  0
 26 25  1  0  0  0  0
 28 23  1  0  0  0  0
M  END
>  <MODEL>
9

>  <REMARK>
 VINA RESULT:      -6.0      3.928      8.300
  Name = 
  2 active torsions:
  status: ('A' for Active; 'I' for Inactive)
    1  A    between atoms: C_1  and  C_2
    2  A    between atoms: C_2  and  C_3
                            x       y       z     vdW  Elec       q    Type
                         _______ _______ _______ _____ _____    ______ ____

>  <TORSDO>
F 2

$$$$
