=
 OpenBabel10262421343D

 32 35  0  0  1  0  0  0  0  0999 V2000
  186.5460  178.3610  142.1850 C   0  0  0  0  0  0  0  0  0  0  0  0
  182.0690  178.4190  144.1680 C   0  0  0  0  0  2  0  0  0  0  0  0
  181.5300  179.1310  142.9360 C   0  0  0  0  0  2  0  0  0  0  0  0
  188.3320  177.3710  143.5440 C   0  0  0  0  0  0  0  0  0  0  0  0
  186.2090  177.8900  144.6710 C   0  0  0  0  0  3  0  0  0  0  0  0
  183.4980  178.8670  144.4480 C   0  0  0  0  0  2  0  0  0  0  0  0
  185.6530  178.3170  143.3640 C   0  0  0  0  0  0  0  0  0  0  0  0
  184.3690  178.6940  143.2310 C   0  0  0  0  0  0  0  0  0  0  0  0
  184.6260  178.6590  140.7490 N   0  0  0  0  0  0  0  0  0  0  0  0
  189.0110  176.0340  143.3470 C   0  0  0  0  0  2  0  0  0  0  0  0
  187.4670  177.4500  144.7800 C   0  0  0  0  0  0  0  0  0  0  0  0
  189.8340  177.2680  143.6970 C   0  0  0  0  0  2  0  0  0  0  0  0
  182.3660  178.7390  141.7260 C   0  0  0  0  0  2  0  0  0  0  0  0
  183.8310  179.1750  141.8830 C   0  0  1  0  0  3  0  0  0  0  0  0
  187.8140  177.9540  142.2650 C   0  0  0  0  0  3  0  0  0  0  0  0
  186.0390  178.9900  140.9340 C   0  0  0  0  0  2  0  0  0  0  0  0
  187.9980  177.0850  146.1290 C   0  0  0  0  0  2  0  0  0  0  0  0
  188.2630  178.2390  146.8670 O   0  0  0  0  0  0  0  0  0  0  0  0
  189.3110  177.8810  147.7130 C   0  0  0  0  0  2  0  0  0  0  0  0
  189.8740  176.5420  147.2790 C   0  0  0  0  0  2  0  0  0  0  0  0
  191.3590  176.6150  147.2160 C   0  0  0  0  0  0  0  0  0  0  0  0
  192.0010  177.1640  148.1480 O   0  0  0  0  0  1  0  0  0  0  0  0
  192.0380  176.0520  146.1440 O   0  0  0  0  0  0  0  0  0  0  0  0
  184.2110  179.3680  139.5410 C   0  0  0  0  0  2  0  0  0  0  0  0
  184.1340  178.4250  138.3360 C   0  0  1  0  0  3  0  0  0  0  0  0
  186.5130  177.7720  137.7360 C   0  0  0  0  0  0  0  0  0  0  0  0
  187.6090  176.7720  137.8210 C   0  0  0  0  0  1  0  0  0  0  0  0
  185.2490  177.4850  138.3380 N   0  0  0  0  0  2  0  0  0  0  0  0
  186.7100  178.8830  137.1070 N   0  0  0  0  0  2  0  0  0  0  0  0
  182.8180  177.6560  138.3120 C   0  0  0  0  0  2  0  0  0  0  0  0
  183.0100  176.2180  138.7690 C   0  0  0  0  0  2  0  0  0  0  0  0
  181.7880  175.7350  139.5280 C   0  0  0  0  0  1  0  0  0  0  0  0
  1 15  2  0  0  0  0
  1  7  1  0  0  0  0
  2  6  1  0  0  0  0
  3  2  1  0  0  0  0
  4 12  1  0  0  0  0
  4 11  1  0  0  0  0
  5 11  2  0  0  0  0
  7  5  1  0  0  0  0
  8  7  2  0  0  0  0
  8  6  1  0  0  0  0
  9 16  1  0  0  0  0
  9 14  1  0  0  0  0
 10  4  1  0  0  0  0
 10 12  1  0  0  0  0
 11 17  1  0  0  0  0
 13  3  1  0  0  0  0
 14 13  1  6  0  0  0
 14  8  1  0  0  0  0
 15  4  1  0  0  0  0
 16  1  1  0  0  0  0
 17 18  1  0  0  0  0
 18 19  1  0  0  0  0
 20 19  1  0  0  0  0
 21 20  1  0  0  0  0
 21 22  1  0  0  0  0
 23 21  2  0  0  0  0
 24  9  1  0  0  0  0
 25 30  1  1  0  0  0
 25 28  1  0  0  0  0
 25 24  1  0  0  0  0
 26 27  1  0  0  0  0
 26 28  1  0  0  0  0
 29 26  2  0  0  0  0
 30 31  1  0  0  0  0
 31 32  1  0  0  0  0
M  END
>  <MODEL>
1

>  <REMARK>
 VINA RESULT:      -8.0      0.000      0.000
  Name = 
  10 active torsions:
  status: ('A' for Active; 'I' for Inactive)
    1  A    between atoms: C_1  and  C_10
    2  A    between atoms: O_2  and  C_12
    3  A    between atoms: O_2  and  C_24
    4  A    between atoms: C_6  and  C_7
    5  A    between atoms: C_7  and  C_32
    6  A    between atoms: C_10  and  C_24
    7  A    between atoms: C_12  and  C_21
    8  A    between atoms: N_16  and  C_27
    9  A    between atoms: N_22  and  C_32
   10  A    between atoms: C_27  and  C_32
                            x       y       z     vdW  Elec       q    Type
                         _______ _______ _______ _____ _____    ______ ____

>  <TORSDO>
F 10

$$$$
=
 OpenBabel10262421343D

 32 35  0  0  1  0  0  0  0  0999 V2000
  186.3060  178.3330  142.2210 C   0  0  0  0  0  0  0  0  0  0  0  0
  181.9330  178.4600  144.4230 C   0  0  0  0  0  2  0  0  0  0  0  0
  181.3410  179.1620  143.2090 C   0  0  0  0  0  2  0  0  0  0  0  0
  188.1470  177.3430  143.5020 C   0  0  0  0  0  0  0  0  0  0  0  0
  186.0880  177.8970  144.7270 C   0  0  0  0  0  3  0  0  0  0  0  0
  183.3790  178.8980  144.6250 C   0  0  0  0  0  2  0  0  0  0  0  0
  185.4720  178.3130  143.4430 C   0  0  0  0  0  0  0  0  0  0  0  0
  184.1860  178.7010  143.3690 C   0  0  0  0  0  0  0  0  0  0  0  0
  184.3190  178.6310  140.8780 N   0  0  0  0  0  0  0  0  0  0  0  0
  188.8040  175.9980  143.2900 C   0  0  0  0  0  2  0  0  0  0  0  0
  187.3460  177.4470  144.7790 C   0  0  0  0  0  0  0  0  0  0  0  0
  189.6540  177.2280  143.5820 C   0  0  0  0  0  2  0  0  0  0  0  0
  182.1120  178.7460  141.9640 C   0  0  0  0  0  2  0  0  0  0  0  0
  183.5870  179.1700  142.0430 C   0  0  1  0  0  3  0  0  0  0  0  0
  187.5720  177.9150  142.2430 C   0  0  0  0  0  3  0  0  0  0  0  0
  185.7420  178.9510  140.9890 C   0  0  0  0  0  2  0  0  0  0  0  0
  187.9400  177.0940  146.1050 C   0  0  0  0  0  2  0  0  0  0  0  0
  188.1090  178.2450  146.8740 O   0  0  0  0  0  0  0  0  0  0  0  0
  189.3040  178.0350  147.5610 C   0  0  0  0  0  2  0  0  0  0  0  0
  189.8230  176.6440  147.2550 C   0  0  0  0  0  2  0  0  0  0  0  0
  191.3070  176.6690  147.1550 C   0  0  0  0  0  0  0  0  0  0  0  0
  191.9990  176.9890  148.1560 O   0  0  0  0  0  1  0  0  0  0  0  0
  191.9310  176.3110  145.9680 O   0  0  0  0  0  0  0  0  0  0  0  0
  183.8510  179.3290  139.6820 C   0  0  0  0  0  2  0  0  0  0  0  0
  183.0370  178.4010  138.7750 C   0  0  1  0  0  3  0  0  0  0  0  0
  180.9750  179.1780  137.5140 C   0  0  0  0  0  0  0  0  0  0  0  0
  180.3980  180.0060  136.4220 C   0  0  0  0  0  1  0  0  0  0  0  0
  182.3920  179.1540  137.7060 N   0  0  0  0  0  2  0  0  0  0  0  0
  180.1930  178.4780  138.2670 N   0  0  0  0  0  2  0  0  0  0  0  0
  183.9070  177.3040  138.1730 C   0  0  0  0  0  2  0  0  0  0  0  0
  183.2300  175.9450  138.2710 C   0  0  0  0  0  2  0  0  0  0  0  0
  182.3640  175.8730  139.5150 C   0  0  0  0  0  1  0  0  0  0  0  0
  1 15  2  0  0  0  0
  1  7  1  0  0  0  0
  2  6  1  0  0  0  0
  3  2  1  0  0  0  0
  4 12  1  0  0  0  0
  4 11  1  0  0  0  0
  5 11  2  0  0  0  0
  7  5  1  0  0  0  0
  8  7  2  0  0  0  0
  8  6  1  0  0  0  0
  9 16  1  0  0  0  0
  9 14  1  0  0  0  0
 10  4  1  0  0  0  0
 10 12  1  0  0  0  0
 11 17  1  0  0  0  0
 13  3  1  0  0  0  0
 14 13  1  6  0  0  0
 14  8  1  0  0  0  0
 15  4  1  0  0  0  0
 16  1  1  0  0  0  0
 17 18  1  0  0  0  0
 18 19  1  0  0  0  0
 20 19  1  0  0  0  0
 21 20  1  0  0  0  0
 21 22  1  0  0  0  0
 23 21  2  0  0  0  0
 24  9  1  0  0  0  0
 25 30  1  6  0  0  0
 25 24  1  0  0  0  0
 26 28  1  0  0  0  0
 26 29  2  0  0  0  0
 27 26  1  0  0  0  0
 28 25  1  0  0  0  0
 30 31  1  0  0  0  0
 31 32  1  0  0  0  0
M  END
>  <MODEL>
2

>  <REMARK>
 VINA RESULT:      -7.8      1.401      2.217
  Name = 
  10 active torsions:
  status: ('A' for Active; 'I' for Inactive)
    1  A    between atoms: C_1  and  C_10
    2  A    between atoms: O_2  and  C_12
    3  A    between atoms: O_2  and  C_24
    4  A    between atoms: C_6  and  C_7
    5  A    between atoms: C_7  and  C_32
    6  A    between atoms: C_10  and  C_24
    7  A    between atoms: C_12  and  C_21
    8  A    between atoms: N_16  and  C_27
    9  A    between atoms: N_22  and  C_32
   10  A    between atoms: C_27  and  C_32
                            x       y       z     vdW  Elec       q    Type
                         _______ _______ _______ _____ _____    ______ ____

>  <TORSDO>
F 10

$$$$
=
 OpenBabel10262421343D

 32 35  0  0  1  0  0  0  0  0999 V2000
  186.3940  178.3220  142.2540 C   0  0  0  0  0  0  0  0  0  0  0  0
  181.9540  178.4790  144.3140 C   0  0  0  0  0  2  0  0  0  0  0  0
  181.3940  179.1350  143.0600 C   0  0  0  0  0  2  0  0  0  0  0  0
  188.2030  177.3920  143.6240 C   0  0  0  0  0  0  0  0  0  0  0  0
  186.1020  177.9660  144.7650 C   0  0  0  0  0  3  0  0  0  0  0  0
  183.3890  178.9370  144.5470 C   0  0  0  0  0  2  0  0  0  0  0  0
  185.5230  178.3340  143.4500 C   0  0  0  0  0  0  0  0  0  0  0  0
  184.2370  178.7070  143.3230 C   0  0  0  0  0  0  0  0  0  0  0  0
  184.4480  178.5570  140.8410 N   0  0  0  0  0  0  0  0  0  0  0  0
  188.8780  176.0470  143.4770 C   0  0  0  0  0  2  0  0  0  0  0  0
  187.3620  177.5300  144.8710 C   0  0  0  0  0  0  0  0  0  0  0  0
  189.7080  177.2940  143.7540 C   0  0  0  0  0  2  0  0  0  0  0  0
  182.2070  178.6860  141.8540 C   0  0  0  0  0  2  0  0  0  0  0  0
  183.6750  179.1270  141.9650 C   0  0  1  0  0  3  0  0  0  0  0  0
  187.6630  177.9170  142.3300 C   0  0  0  0  0  3  0  0  0  0  0  0
  185.8640  178.8940  140.9850 C   0  0  0  0  0  2  0  0  0  0  0  0
  187.9170  177.2260  146.2260 C   0  0  0  0  0  2  0  0  0  0  0  0
  188.4960  178.3720  146.7730 O   0  0  0  0  0  0  0  0  0  0  0  0
  189.3820  177.8910  147.7340 C   0  0  0  0  0  2  0  0  0  0  0  0
  189.9030  176.5330  147.3060 C   0  0  0  0  0  2  0  0  0  0  0  0
  191.3870  176.5710  147.2030 C   0  0  0  0  0  0  0  0  0  0  0  0
  192.0700  177.0470  148.1460 O   0  0  0  0  0  1  0  0  0  0  0  0
  192.0200  176.0530  146.0820 O   0  0  0  0  0  0  0  0  0  0  0  0
  184.0120  179.2110  139.6090 C   0  0  0  0  0  2  0  0  0  0  0  0
  183.7750  178.1940  138.4890 C   0  0  1  0  0  3  0  0  0  0  0  0
  181.3300  177.6040  138.1450 C   0  0  0  0  0  0  0  0  0  0  0  0
  180.0340  177.9170  137.4860 C   0  0  0  0  0  1  0  0  0  0  0  0
  182.4780  178.4060  137.8580 N   0  0  0  0  0  2  0  0  0  0  0  0
  181.4080  176.6020  138.9570 N   0  0  0  0  0  2  0  0  0  0  0  0
  184.8730  178.2600  137.4330 C   0  0  0  0  0  2  0  0  0  0  0  0
  185.8170  177.0720  137.5430 C   0  0  0  0  0  2  0  0  0  0  0  0
  187.2320  177.5430  137.8210 C   0  0  0  0  0  1  0  0  0  0  0  0
  1 15  2  0  0  0  0
  1  7  1  0  0  0  0
  2  6  1  0  0  0  0
  3  2  1  0  0  0  0
  4 12  1  0  0  0  0
  4 11  1  0  0  0  0
  5 11  2  0  0  0  0
  7  5  1  0  0  0  0
  8  7  2  0  0  0  0
  8  6  1  0  0  0  0
  9 16  1  0  0  0  0
  9 14  1  0  0  0  0
 10  4  1  0  0  0  0
 10 12  1  0  0  0  0
 11 17  1  0  0  0  0
 13  3  1  0  0  0  0
 14 13  1  6  0  0  0
 14  8  1  0  0  0  0
 15  4  1  0  0  0  0
 16  1  1  0  0  0  0
 17 18  1  0  0  0  0
 18 19  1  0  0  0  0
 20 19  1  0  0  0  0
 21 20  1  0  0  0  0
 21 22  1  0  0  0  0
 23 21  2  0  0  0  0
 24  9  1  0  0  0  0
 25 30  1  6  0  0  0
 25 24  1  0  0  0  0
 26 29  2  0  0  0  0
 27 26  1  0  0  0  0
 28 26  1  0  0  0  0
 28 25  1  0  0  0  0
 30 31  1  0  0  0  0
 31 32  1  0  0  0  0
M  END
>  <MODEL>
3

>  <REMARK>
 VINA RESULT:      -7.8      1.124      2.395
  Name = 
  10 active torsions:
  status: ('A' for Active; 'I' for Inactive)
    1  A    between atoms: C_1  and  C_10
    2  A    between atoms: O_2  and  C_12
    3  A    between atoms: O_2  and  C_24
    4  A    between atoms: C_6  and  C_7
    5  A    between atoms: C_7  and  C_32
    6  A    between atoms: C_10  and  C_24
    7  A    between atoms: C_12  and  C_21
    8  A    between atoms: N_16  and  C_27
    9  A    between atoms: N_22  and  C_32
   10  A    between atoms: C_27  and  C_32
                            x       y       z     vdW  Elec       q    Type
                         _______ _______ _______ _____ _____    ______ ____

>  <TORSDO>
F 10

$$$$
=
 OpenBabel10262421343D

 32 35  0  0  1  0  0  0  0  0999 V2000
  185.7240  178.2830  142.9880 C   0  0  0  0  0  0  0  0  0  0  0  0
  189.9310  177.6590  140.5590 C   0  0  0  0  0  2  0  0  0  0  0  0
  189.1760  177.6990  139.2380 C   0  0  0  0  0  2  0  0  0  0  0  0
  185.8680  178.3080  145.4360 C   0  0  0  0  0  0  0  0  0  0  0  0
  187.8300  177.4950  144.1970 C   0  0  0  0  0  3  0  0  0  0  0  0
  189.0700  177.0040  141.6330 C   0  0  0  0  0  2  0  0  0  0  0  0
  187.1280  177.8200  142.9320 C   0  0  0  0  0  0  0  0  0  0  0  0
  187.7250  177.6760  141.7350 C   0  0  0  0  0  0  0  0  0  0  0  0
  185.8410  178.9060  140.6570 N   0  0  0  0  0  0  0  0  0  0  0  0
  185.7430  179.5000  146.3580 C   0  0  0  0  0  2  0  0  0  0  0  0
  187.2540  177.7080  145.3850 C   0  0  0  0  0  0  0  0  0  0  0  0
  185.0560  178.1860  146.7080 C   0  0  0  0  0  2  0  0  0  0  0  0
  187.9300  178.5590  139.3990 C   0  0  0  0  0  2  0  0  0  0  0  0
  186.9660  177.9720  140.4410 C   0  0  1  0  0  3  0  0  0  0  0  0
  185.1110  178.4800  144.1560 C   0  0  0  0  0  3  0  0  0  0  0  0
  184.9640  178.4000  141.7130 C   0  0  0  0  0  2  0  0  0  0  0  0
  187.9800  177.3110  146.6300 C   0  0  0  0  0  2  0  0  0  0  0  0
  189.2960  177.7720  146.5830 O   0  0  0  0  0  0  0  0  0  0  0  0
  190.0550  176.7140  147.0790 C   0  0  0  0  0  2  0  0  0  0  0  0
  191.4710  176.8170  146.5470 C   0  0  0  0  0  2  0  0  0  0  0  0
  191.4450  177.0110  145.0720 C   0  0  0  0  0  0  0  0  0  0  0  0
  191.1610  176.0460  144.3170 O   0  0  0  0  0  0  0  0  0  0  0  0
  191.7020  178.2630  144.5310 O   0  0  0  0  0  1  0  0  0  0  0  0
  185.0250  178.9250  139.4440 C   0  0  0  0  0  2  0  0  0  0  0  0
  183.6560  178.2800  139.6800 C   0  0  1  0  0  3  0  0  0  0  0  0
  181.4720  179.4080  140.3130 C   0  0  0  0  0  0  0  0  0  0  0  0
  180.4410  180.4320  140.0000 C   0  0  0  0  0  1  0  0  0  0  0  0
  182.5810  179.2320  139.4290 N   0  0  0  0  0  2  0  0  0  0  0  0
  181.3470  178.6790  141.3720 N   0  0  0  0  0  2  0  0  0  0  0  0
  183.4620  177.0480  138.8040 C   0  0  0  0  0  2  0  0  0  0  0  0
  182.6870  175.9640  139.5390 C   0  0  0  0  0  2  0  0  0  0  0  0
  181.2850  175.8380  138.9730 C   0  0  0  0  0  1  0  0  0  0  0  0
  1 15  2  0  0  0  0
  2  6  1  0  0  0  0
  3 13  1  0  0  0  0
  3  2  1  0  0  0  0
  4 10  1  0  0  0  0
  4 12  1  0  0  0  0
  5 11  2  0  0  0  0
  6  8  1  0  0  0  0
  7  1  1  0  0  0  0
  7  5  1  0  0  0  0
  8  7  2  0  0  0  0
  9 16  1  0  0  0  0
 10 12  1  0  0  0  0
 11  4  1  0  0  0  0
 11 17  1  0  0  0  0
 14 13  1  6  0  0  0
 14  9  1  0  0  0  0
 14  8  1  0  0  0  0
 15  4  1  0  0  0  0
 16  1  1  0  0  0  0
 18 17  1  0  0  0  0
 18 19  1  0  0  0  0
 20 19  1  0  0  0  0
 21 20  1  0  0  0  0
 22 21  2  0  0  0  0
 23 21  1  0  0  0  0
 24 25  1  0  0  0  0
 24  9  1  0  0  0  0
 25 30  1  6  0  0  0
 26 29  2  0  0  0  0
 27 26  1  0  0  0  0
 28 25  1  0  0  0  0
 28 26  1  0  0  0  0
 30 31  1  0  0  0  0
 32 31  1  0  0  0  0
M  END
>  <MODEL>
4

>  <REMARK>
 VINA RESULT:      -7.7      1.743      4.174
  Name = 
  10 active torsions:
  status: ('A' for Active; 'I' for Inactive)
    1  A    between atoms: C_1  and  C_10
    2  A    between atoms: O_2  and  C_12
    3  A    between atoms: O_2  and  C_24
    4  A    between atoms: C_6  and  C_7
    5  A    between atoms: C_7  and  C_32
    6  A    between atoms: C_10  and  C_24
    7  A    between atoms: C_12  and  C_21
    8  A    between atoms: N_16  and  C_27
    9  A    between atoms: N_22  and  C_32
   10  A    between atoms: C_27  and  C_32
                            x       y       z     vdW  Elec       q    Type
                         _______ _______ _______ _____ _____    ______ ____

>  <TORSDO>
F 10

$$$$
=
 OpenBabel10262421343D

 32 35  0  0  1  0  0  0  0  0999 V2000
  186.1420  178.2990  141.6180 C   0  0  0  0  0  0  0  0  0  0  0  0
  190.9170  177.2410  141.8660 C   0  0  0  0  0  2  0  0  0  0  0  0
  190.9720  177.1270  140.3490 C   0  0  0  0  0  2  0  0  0  0  0  0
  184.9860  178.6440  143.7530 C   0  0  0  0  0  0  0  0  0  0  0  0
  187.2200  177.6190  143.8300 C   0  0  0  0  0  3  0  0  0  0  0  0
  189.5650  176.7580  142.3770 C   0  0  0  0  0  2  0  0  0  0  0  0
  187.3170  177.7940  142.3600 C   0  0  0  0  0  0  0  0  0  0  0  0
  188.4350  177.4750  141.6840 C   0  0  0  0  0  0  0  0  0  0  0  0
  187.5190  178.6050  139.6560 N   0  0  0  0  0  0  0  0  0  0  0  0
  184.5090  179.9510  144.3470 C   0  0  0  0  0  2  0  0  0  0  0  0
  186.1300  178.0040  144.5030 C   0  0  0  0  0  0  0  0  0  0  0  0
  183.6210  178.7140  144.4040 C   0  0  0  0  0  2  0  0  0  0  0  0
  189.9140  178.0360  139.7400 C   0  0  0  0  0  2  0  0  0  0  0  0
  188.4970  177.6190  140.1630 C   0  0  1  0  0  3  0  0  0  0  0  0
  185.0300  178.6670  142.2560 C   0  0  0  0  0  3  0  0  0  0  0  0
  186.1760  178.2680  140.1290 C   0  0  0  0  0  2  0  0  0  0  0  0
  186.0560  177.7550  145.9760 C   0  0  0  0  0  2  0  0  0  0  0  0
  187.1040  178.4100  146.6240 O   0  0  0  0  0  0  0  0  0  0  0  0
  187.6600  177.4420  147.4580 C   0  0  0  0  0  2  0  0  0  0  0  0
  189.0470  177.8810  147.8850 C   0  0  0  0  0  2  0  0  0  0  0  0
  190.0730  177.1550  147.0890 C   0  0  0  0  0  0  0  0  0  0  0  0
  189.9580  177.0740  145.8390 O   0  0  0  0  0  0  0  0  0  0  0  0
  191.1740  176.5930  147.7210 O   0  0  0  0  0  1  0  0  0  0  0  0
  187.4640  178.4870  138.2010 C   0  0  0  0  0  2  0  0  0  0  0  0
  186.8450  177.1530  137.7700 C   0  0  1  0  0  3  0  0  0  0  0  0
  184.4830  176.8320  136.8970 C   0  0  0  0  0  0  0  0  0  0  0  0
  183.4710  177.1280  135.8480 C   0  0  0  0  0  1  0  0  0  0  0  0
  185.8050  177.3610  136.7690 N   0  0  0  0  0  2  0  0  0  0  0  0
  184.1610  176.0890  137.9040 N   0  0  0  0  0  2  0  0  0  0  0  0
  187.9000  176.2010  137.2190 C   0  0  0  0  0  2  0  0  0  0  0  0
  188.9050  176.9340  136.3440 C   0  0  0  0  0  2  0  0  0  0  0  0
  190.2730  176.2890  136.4510 C   0  0  0  0  0  1  0  0  0  0  0  0
  1 15  2  0  0  0  0
  1  7  1  0  0  0  0
  2  6  1  0  0  0  0
  3  2  1  0  0  0  0
  4 10  1  0  0  0  0
  4 12  1  0  0  0  0
  4 11  1  0  0  0  0
  5 11  2  0  0  0  0
  7  5  1  0  0  0  0
  8  7  2  0  0  0  0
  8  6  1  0  0  0  0
  9 16  1  0  0  0  0
  9 14  1  0  0  0  0
 10 12  1  0  0  0  0
 11 17  1  0  0  0  0
 13  3  1  0  0  0  0
 14 13  1  1  0  0  0
 14  8  1  0  0  0  0
 15  4  1  0  0  0  0
 16  1  1  0  0  0  0
 17 18  1  0  0  0  0
 18 19  1  0  0  0  0
 19 20  1  0  0  0  0
 21 23  1  0  0  0  0
 21 20  1  0  0  0  0
 22 21  2  0  0  0  0
 24  9  1  0  0  0  0
 25 30  1  6  0  0  0
 25 24  1  0  0  0  0
 26 29  2  0  0  0  0
 27 26  1  0  0  0  0
 28 26  1  0  0  0  0
 28 25  1  0  0  0  0
 31 32  1  0  0  0  0
 31 30  1  0  0  0  0
M  END
>  <MODEL>
5

>  <REMARK>
 VINA RESULT:      -7.4      1.729      4.687
  Name = 
  10 active torsions:
  status: ('A' for Active; 'I' for Inactive)
    1  A    between atoms: C_1  and  C_10
    2  A    between atoms: O_2  and  C_12
    3  A    between atoms: O_2  and  C_24
    4  A    between atoms: C_6  and  C_7
    5  A    between atoms: C_7  and  C_32
    6  A    between atoms: C_10  and  C_24
    7  A    between atoms: C_12  and  C_21
    8  A    between atoms: N_16  and  C_27
    9  A    between atoms: N_22  and  C_32
   10  A    between atoms: C_27  and  C_32
                            x       y       z     vdW  Elec       q    Type
                         _______ _______ _______ _____ _____    ______ ____

>  <TORSDO>
F 10

$$$$
=
 OpenBabel10262421343D

 32 35  0  0  1  0  0  0  0  0999 V2000
  187.2560  178.2510  142.0190 C   0  0  0  0  0  0  0  0  0  0  0  0
  183.6630  178.4850  145.3390 C   0  0  0  0  0  2  0  0  0  0  0  0
  182.7420  179.1080  144.3000 C   0  0  0  0  0  2  0  0  0  0  0  0
  189.4020  177.3520  142.7920 C   0  0  0  0  0  0  0  0  0  0  0  0
  187.7510  177.9670  144.5070 C   0  0  0  0  0  3  0  0  0  0  0  0
  185.0980  178.9430  145.1060 C   0  0  0  0  0  2  0  0  0  0  0  0
  186.7940  178.3000  143.4240 C   0  0  0  0  0  0  0  0  0  0  0  0
  185.5300  178.6750  143.6880 C   0  0  0  0  0  0  0  0  0  0  0  0
  184.9690  178.4560  141.2670 N   0  0  0  0  0  0  0  0  0  0  0  0
  190.0050  176.0000  142.4810 C   0  0  0  0  0  2  0  0  0  0  0  0
  188.9840  177.5270  144.2330 C   0  0  0  0  0  0  0  0  0  0  0  0
  190.8750  177.2500  142.4560 C   0  0  0  0  0  2  0  0  0  0  0  0
  183.1470  178.6230  142.9160 C   0  0  0  0  0  2  0  0  0  0  0  0
  184.5760  179.0600  142.5570 C   0  0  1  0  0  3  0  0  0  0  0  0
  188.4880  177.8430  141.7120 C   0  0  0  0  0  3  0  0  0  0  0  0
  186.3590  178.7910  140.9590 C   0  0  0  0  0  2  0  0  0  0  0  0
  189.9300  177.2590  145.3590 C   0  0  0  0  0  2  0  0  0  0  0  0
  189.2370  176.7360  146.4510 O   0  0  0  0  0  0  0  0  0  0  0  0
  190.0130  177.0800  147.5560 C   0  0  0  0  0  2  0  0  0  0  0  0
  189.4500  178.3330  148.1970 C   0  0  0  0  0  2  0  0  0  0  0  0
  187.9960  178.1580  148.4570 C   0  0  0  0  0  0  0  0  0  0  0  0
  187.1670  178.9590  147.9510 O   0  0  0  0  0  0  0  0  0  0  0  0
  187.5500  177.0960  149.2310 O   0  0  0  0  0  1  0  0  0  0  0  0
  184.1720  179.0770  140.2110 C   0  0  0  0  0  2  0  0  0  0  0  0
  183.7660  178.0580  139.1420 C   0  0  1  0  0  3  0  0  0  0  0  0
  184.8600  177.2080  137.0140 C   0  0  0  0  0  0  0  0  0  0  0  0
  186.1030  176.7990  136.3080 C   0  0  0  0  0  1  0  0  0  0  0  0
  184.9280  177.6050  138.3860 N   0  0  0  0  0  2  0  0  0  0  0  0
  183.7320  177.1870  136.3860 N   0  0  0  0  0  2  0  0  0  0  0  0
  183.0570  176.8570  139.7570 C   0  0  0  0  0  2  0  0  0  0  0  0
  181.5850  177.1510  140.0040 C   0  0  0  0  0  2  0  0  0  0  0  0
  180.8950  177.5300  138.7080 C   0  0  0  0  0  1  0  0  0  0  0  0
  1  7  1  0  0  0  0
  3  2  1  0  0  0  0
  4 11  1  0  0  0  0
  6  2  1  0  0  0  0
  7  8  2  0  0  0  0
  7  5  1  0  0  0  0
  8  6  1  0  0  0  0
  9 14  1  0  0  0  0
 10  4  1  0  0  0  0
 11  5  2  0  0  0  0
 11 17  1  0  0  0  0
 12 10  1  0  0  0  0
 12  4  1  0  0  0  0
 13  3  1  0  0  0  0
 14 13  1  1  0  0  0
 14  8  1  0  0  0  0
 15  1  2  0  0  0  0
 15  4  1  0  0  0  0
 16  9  1  0  0  0  0
 16  1  1  0  0  0  0
 17 18  1  0  0  0  0
 18 19  1  0  0  0  0
 19 20  1  0  0  0  0
 20 21  1  0  0  0  0
 21 23  1  0  0  0  0
 22 21  2  0  0  0  0
 24  9  1  0  0  0  0
 25 30  1  1  0  0  0
 25 24  1  0  0  0  0
 26 28  1  0  0  0  0
 27 26  1  0  0  0  0
 28 25  1  0  0  0  0
 29 26  2  0  0  0  0
 30 31  1  0  0  0  0
 32 31  1  0  0  0  0
M  END
>  <MODEL>
6

>  <REMARK>
 VINA RESULT:      -7.2      1.433      2.156
  Name = 
  10 active torsions:
  status: ('A' for Active; 'I' for Inactive)
    1  A    between atoms: C_1  and  C_10
    2  A    between atoms: O_2  and  C_12
    3  A    between atoms: O_2  and  C_24
    4  A    between atoms: C_6  and  C_7
    5  A    between atoms: C_7  and  C_32
    6  A    between atoms: C_10  and  C_24
    7  A    between atoms: C_12  and  C_21
    8  A    between atoms: N_16  and  C_27
    9  A    between atoms: N_22  and  C_32
   10  A    between atoms: C_27  and  C_32
                            x       y       z     vdW  Elec       q    Type
                         _______ _______ _______ _____ _____    ______ ____

>  <TORSDO>
F 10

$$$$
=
 OpenBabel10262421343D

 32 35  0  0  1  0  0  0  0  0999 V2000
  187.6760  177.5220  142.2110 C   0  0  0  0  0  0  0  0  0  0  0  0
  183.6450  179.5890  144.0710 C   0  0  0  0  0  2  0  0  0  0  0  0
  183.9710  179.0000  145.4360 C   0  0  0  0  0  2  0  0  0  0  0  0
  188.0750  177.8650  139.8160 C   0  0  0  0  0  0  0  0  0  0  0  0
  185.8440  178.4280  140.6820 C   0  0  0  0  0  3  0  0  0  0  0  0
  184.0910  178.6350  142.9700 C   0  0  0  0  0  2  0  0  0  0  0  0
  186.3210  178.0920  142.0450 C   0  0  0  0  0  0  0  0  0  0  0  0
  185.5430  178.2640  143.1290 C   0  0  0  0  0  0  0  0  0  0  0  0
  187.5140  177.8470  144.6000 N   0  0  0  0  0  0  0  0  0  0  0  0
  189.1070  178.7610  139.1690 C   0  0  0  0  0  2  0  0  0  0  0  0
  186.6480  178.3210  139.6190 C   0  0  0  0  0  0  0  0  0  0  0  0
  188.8610  177.3600  138.6250 C   0  0  0  0  0  2  0  0  0  0  0  0
  185.4790  178.8410  145.5660 C   0  0  0  0  0  2  0  0  0  0  0  0
  186.0390  177.8660  144.5190 C   0  0  1  0  0  3  0  0  0  0  0  0
  188.4950  177.3770  141.1680 C   0  0  0  0  0  3  0  0  0  0  0  0
  188.0630  176.9910  143.5470 C   0  0  0  0  0  2  0  0  0  0  0  0
  186.1040  178.6170  138.2580 C   0  0  0  0  0  2  0  0  0  0  0  0
  185.0780  177.7230  137.9490 O   0  0  0  0  0  0  0  0  0  0  0  0
  185.4150  177.2240  136.6930 C   0  0  0  0  0  2  0  0  0  0  0  0
  186.0580  175.8600  136.8480 C   0  0  0  0  0  2  0  0  0  0  0  0
  186.9540  175.5890  135.6920 C   0  0  0  0  0  0  0  0  0  0  0  0
  186.8410  174.5130  135.0490 O   0  0  0  0  0  0  0  0  0  0  0  0
  187.8930  176.5340  135.3020 O   0  0  0  0  0  1  0  0  0  0  0  0
  187.8950  177.2120  145.8600 C   0  0  0  0  0  2  0  0  0  0  0  0
  189.4130  177.0360  145.9630 C   0  0  1  0  0  3  0  0  0  0  0  0
  191.1110  178.1590  144.4460 C   0  0  0  0  0  0  0  0  0  0  0  0
  191.7410  179.4170  143.9670 C   0  0  0  0  0  1  0  0  0  0  0  0
  190.1090  178.2160  145.4640 N   0  0  0  0  0  2  0  0  0  0  0  0
  191.4850  177.0270  143.9480 N   0  0  0  0  0  2  0  0  0  0  0  0
  189.8460  176.7560  147.3970 C   0  0  0  0  0  2  0  0  0  0  0  0
  191.3470  176.9370  147.5670 C   0  0  0  0  0  2  0  0  0  0  0  0
  192.0730  175.6350  147.2840 C   0  0  0  0  0  1  0  0  0  0  0  0
  1 16  1  0  0  0  0
  2  3  1  0  0  0  0
  3 13  1  0  0  0  0
  4 15  1  0  0  0  0
  5  7  1  0  0  0  0
  6  8  1  0  0  0  0
  6  2  1  0  0  0  0
  7  1  1  0  0  0  0
  7  8  2  0  0  0  0
  8 14  1  0  0  0  0
  9 24  1  0  0  0  0
 10  4  1  0  0  0  0
 11  4  1  0  0  0  0
 11  5  2  0  0  0  0
 12 10  1  0  0  0  0
 12  4  1  0  0  0  0
 14  9  1  0  0  0  0
 14 13  1  1  0  0  0
 15  1  2  0  0  0  0
 16  9  1  0  0  0  0
 17 11  1  0  0  0  0
 18 17  1  0  0  0  0
 19 20  1  0  0  0  0
 19 18  1  0  0  0  0
 21 20  1  0  0  0  0
 22 21  2  0  0  0  0
 23 21  1  0  0  0  0
 25 24  1  1  0  0  0
 25 30  1  0  0  0  0
 26 28  1  0  0  0  0
 27 26  1  0  0  0  0
 28 25  1  0  0  0  0
 29 26  2  0  0  0  0
 30 31  1  0  0  0  0
 32 31  1  0  0  0  0
M  END
>  <MODEL>
7

>  <REMARK>
 VINA RESULT:      -7.2      4.218      7.894
  Name = 
  10 active torsions:
  status: ('A' for Active; 'I' for Inactive)
    1  A    between atoms: C_1  and  C_10
    2  A    between atoms: O_2  and  C_12
    3  A    between atoms: O_2  and  C_24
    4  A    between atoms: C_6  and  C_7
    5  A    between atoms: C_7  and  C_32
    6  A    between atoms: C_10  and  C_24
    7  A    between atoms: C_12  and  C_21
    8  A    between atoms: N_16  and  C_27
    9  A    between atoms: N_22  and  C_32
   10  A    between atoms: C_27  and  C_32
                            x       y       z     vdW  Elec       q    Type
                         _______ _______ _______ _____ _____    ______ ____

>  <TORSDO>
F 10

$$$$
=
 OpenBabel10262421343D

 32 35  0  0  1  0  0  0  0  0999 V2000
  187.6090  178.0820  141.8550 C   0  0  0  0  0  0  0  0  0  0  0  0
  183.5280  178.5630  144.5200 C   0  0  0  0  0  2  0  0  0  0  0  0
  182.8170  179.1760  143.3230 C   0  0  0  0  0  2  0  0  0  0  0  0
  189.5610  177.1430  143.0030 C   0  0  0  0  0  0  0  0  0  0  0  0
  187.6740  177.8770  144.3990 C   0  0  0  0  0  3  0  0  0  0  0  0
  184.9980  178.9640  144.5150 C   0  0  0  0  0  2  0  0  0  0  0  0
  186.9230  178.2010  143.1610 C   0  0  0  0  0  0  0  0  0  0  0  0
  185.6480  178.6270  143.1980 C   0  0  0  0  0  0  0  0  0  0  0  0
  185.4870  178.3350  140.7260 N   0  0  0  0  0  0  0  0  0  0  0  0
  190.1530  175.7600  142.8420 C   0  0  0  0  0  2  0  0  0  0  0  0
  188.9170  177.3870  144.3480 C   0  0  0  0  0  0  0  0  0  0  0  0
  191.0630  176.9790  142.9210 C   0  0  0  0  0  2  0  0  0  0  0  0
  183.4260  178.6250  142.0410 C   0  0  0  0  0  2  0  0  0  0  0  0
  184.9100  179.0000  141.9130 C   0  0  1  0  0  3  0  0  0  0  0  0
  188.8580  177.6220  141.7710 C   0  0  0  0  0  3  0  0  0  0  0  0
  186.9220  178.6110  140.6440 C   0  0  0  0  0  2  0  0  0  0  0  0
  189.6530  177.1300  145.6240 C   0  0  0  0  0  2  0  0  0  0  0  0
  189.4000  178.1560  146.5360 O   0  0  0  0  0  0  0  0  0  0  0  0
  189.1120  177.4990  147.7310 C   0  0  0  0  0  2  0  0  0  0  0  0
  188.1050  178.3100  148.5220 C   0  0  0  0  0  2  0  0  0  0  0  0
  186.8280  178.4070  147.7660 C   0  0  0  0  0  0  0  0  0  0  0  0
  186.3320  177.3800  147.2360 O   0  0  0  0  0  0  0  0  0  0  0  0
  186.1660  179.6240  147.6690 O   0  0  0  0  0  1  0  0  0  0  0  0
  184.9010  178.9410  139.5320 C   0  0  0  0  0  2  0  0  0  0  0  0
  184.6060  177.8900  138.4570 C   0  0  1  0  0  3  0  0  0  0  0  0
  182.1820  177.1420  138.5440 C   0  0  0  0  0  0  0  0  0  0  0  0
  180.7860  177.3210  138.0660 C   0  0  0  0  0  1  0  0  0  0  0  0
  183.2190  177.9720  138.0160 N   0  0  0  0  0  2  0  0  0  0  0  0
  182.4450  176.2300  139.4190 N   0  0  0  0  0  2  0  0  0  0  0  0
  185.5340  178.0440  137.2570 C   0  0  0  0  0  2  0  0  0  0  0  0
  185.9270  176.6900  136.6860 C   0  0  0  0  0  2  0  0  0  0  0  0
  187.2850  176.2660  137.2130 C   0  0  0  0  0  1  0  0  0  0  0  0
  1  7  1  0  0  0  0
  3  2  1  0  0  0  0
  4 11  1  0  0  0  0
  6  2  1  0  0  0  0
  7  8  2  0  0  0  0
  7  5  1  0  0  0  0
  8  6  1  0  0  0  0
  9 14  1  0  0  0  0
 10 12  1  0  0  0  0
 10  4  1  0  0  0  0
 11  5  2  0  0  0  0
 11 17  1  0  0  0  0
 12  4  1  0  0  0  0
 13  3  1  0  0  0  0
 14 13  1  1  0  0  0
 14  8  1  0  0  0  0
 15  1  2  0  0  0  0
 15  4  1  0  0  0  0
 16  9  1  0  0  0  0
 16  1  1  0  0  0  0
 17 18  1  0  0  0  0
 18 19  1  0  0  0  0
 19 20  1  0  0  0  0
 21 20  1  0  0  0  0
 22 21  2  0  0  0  0
 23 21  1  0  0  0  0
 24  9  1  0  0  0  0
 25 30  1  6  0  0  0
 25 24  1  0  0  0  0
 26 29  2  0  0  0  0
 27 26  1  0  0  0  0
 28 25  1  0  0  0  0
 28 26  1  0  0  0  0
 31 32  1  0  0  0  0
 31 30  1  0  0  0  0
M  END
>  <MODEL>
8

>  <REMARK>
 VINA RESULT:      -7.1      1.551      3.095
  Name = 
  10 active torsions:
  status: ('A' for Active; 'I' for Inactive)
    1  A    between atoms: C_1  and  C_10
    2  A    between atoms: O_2  and  C_12
    3  A    between atoms: O_2  and  C_24
    4  A    between atoms: C_6  and  C_7
    5  A    between atoms: C_7  and  C_32
    6  A    between atoms: C_10  and  C_24
    7  A    between atoms: C_12  and  C_21
    8  A    between atoms: N_16  and  C_27
    9  A    between atoms: N_22  and  C_32
   10  A    between atoms: C_27  and  C_32
                            x       y       z     vdW  Elec       q    Type
                         _______ _______ _______ _____ _____    ______ ____

>  <TORSDO>
F 10

$$$$
=
 OpenBabel10262421343D

 32 35  0  0  1  0  0  0  0  0999 V2000
  189.3190  177.5730  140.8480 C   0  0  0  0  0  0  0  0  0  0  0  0
  184.5410  178.6410  140.7070 C   0  0  0  0  0  2  0  0  0  0  0  0
  184.6590  178.9790  139.2280 C   0  0  0  0  0  2  0  0  0  0  0  0
  190.2250  176.9010  143.0260 C   0  0  0  0  0  0  0  0  0  0  0  0
  187.9920  177.9300  143.0000 C   0  0  0  0  0  3  0  0  0  0  0  0
  185.8240  179.0260  141.4340 C   0  0  0  0  0  2  0  0  0  0  0  0
  188.0640  177.9770  141.5190 C   0  0  0  0  0  0  0  0  0  0  0  0
  187.0280  178.4060  140.7750 C   0  0  0  0  0  0  0  0  0  0  0  0
  188.1750  177.5790  138.7200 N   0  0  0  0  0  0  0  0  0  0  0  0
  190.6370  175.5140  143.4680 C   0  0  0  0  0  2  0  0  0  0  0  0
  189.0000  177.4370  143.7280 C   0  0  0  0  0  0  0  0  0  0  0  0
  191.5070  176.7180  143.8100 C   0  0  0  0  0  2  0  0  0  0  0  0
  185.7840  178.1580  138.6140 C   0  0  0  0  0  2  0  0  0  0  0  0
  187.1420  178.4910  139.2530 C   0  0  1  0  0  3  0  0  0  0  0  0
  190.3520  177.1010  141.5470 C   0  0  0  0  0  3  0  0  0  0  0  0
  189.4540  177.8250  139.3870 C   0  0  0  0  0  2  0  0  0  0  0  0
  188.9040  177.4630  145.2200 C   0  0  0  0  0  2  0  0  0  0  0  0
  187.5960  177.1840  145.6190 O   0  0  0  0  0  0  0  0  0  0  0  0
  187.5780  177.4720  146.9830 C   0  0  0  0  0  2  0  0  0  0  0  0
  186.8630  178.7890  147.2100 C   0  0  0  0  0  2  0  0  0  0  0  0
  185.5600  178.7880  146.4910 C   0  0  0  0  0  0  0  0  0  0  0  0
  184.5530  178.2490  147.0180 O   0  0  0  0  0  1  0  0  0  0  0  0
  185.4480  179.4070  145.2540 O   0  0  0  0  0  0  0  0  0  0  0  0
  188.3960  177.9110  137.3140 C   0  0  0  0  0  2  0  0  0  0  0  0
  188.5950  176.6510  136.4650 C   0  0  1  0  0  3  0  0  0  0  0  0
  186.3720  175.5240  135.9830 C   0  0  0  0  0  0  0  0  0  0  0  0
  185.2060  175.3650  135.0740 C   0  0  0  0  0  1  0  0  0  0  0  0
  187.4350  176.4060  135.6160 N   0  0  0  0  0  2  0  0  0  0  0  0
  186.4190  174.8520  137.0850 N   0  0  0  0  0  2  0  0  0  0  0  0
  189.8470  176.7520  135.6020 C   0  0  0  0  0  2  0  0  0  0  0  0
  190.8530  175.6670  135.9570 C   0  0  0  0  0  2  0  0  0  0  0  0
  190.3750  174.8750  137.1610 C   0  0  0  0  0  1  0  0  0  0  0  0
  1  7  1  0  0  0  0
  1 15  2  0  0  0  0
  2  6  1  0  0  0  0
  3  2  1  0  0  0  0
  4 10  1  0  0  0  0
  4 11  1  0  0  0  0
  4 12  1  0  0  0  0
  5 11  2  0  0  0  0
  7  5  1  0  0  0  0
  8  6  1  0  0  0  0
  8  7  2  0  0  0  0
  9 14  1  0  0  0  0
  9 16  1  0  0  0  0
 10 12  1  0  0  0  0
 11 17  1  0  0  0  0
 13  3  1  0  0  0  0
 14 13  1  6  0  0  0
 14  8  1  0  0  0  0
 15  4  1  0  0  0  0
 16  1  1  0  0  0  0
 17 18  1  0  0  0  0
 18 19  1  0  0  0  0
 19 20  1  0  0  0  0
 21 22  1  0  0  0  0
 21 20  1  0  0  0  0
 23 21  2  0  0  0  0
 24  9  1  0  0  0  0
 25 30  1  6  0  0  0
 25 24  1  0  0  0  0
 26 29  2  0  0  0  0
 27 26  1  0  0  0  0
 28 26  1  0  0  0  0
 28 25  1  0  0  0  0
 30 31  1  0  0  0  0
 31 32  1  0  0  0  0
M  END
>  <MODEL>
9

>  <REMARK>
 VINA RESULT:      -6.9      2.591      4.596
  Name = 
  10 active torsions:
  status: ('A' for Active; 'I' for Inactive)
    1  A    between atoms: C_1  and  C_10
    2  A    between atoms: O_2  and  C_12
    3  A    between atoms: O_2  and  C_24
    4  A    between atoms: C_6  and  C_7
    5  A    between atoms: C_7  and  C_32
    6  A    between atoms: C_10  and  C_24
    7  A    between atoms: C_12  and  C_21
    8  A    between atoms: N_16  and  C_27
    9  A    between atoms: N_22  and  C_32
   10  A    between atoms: C_27  and  C_32
                            x       y       z     vdW  Elec       q    Type
                         _______ _______ _______ _____ _____    ______ ____

>  <TORSDO>
F 10

$$$$
