=
 OpenBabel10262420493D

 28 32  0  0  1  0  0  0  0  0999 V2000
  190.0830  176.3800  143.8580 C   0  0  0  0  0  0  0  0  0  0  0  0
  185.3430  178.3190  142.8690 C   0  0  0  0  0  3  0  0  0  0  0  0
  188.3000  177.1890  148.2870 C   0  0  0  0  0  1  0  0  0  0  0  0
  184.4210  178.6260  145.0960 C   0  0  0  0  0  0  0  0  0  0  0  0
  186.9050  178.1230  144.8390 C   0  0  2  0  0  3  0  0  0  0  0  0
  182.9980  178.8450  143.1440 C   0  0  0  0  0  0  0  0  0  0  0  0
  185.5200  178.3120  144.2620 C   0  0  0  0  0  0  0  0  0  0  0  0
  185.9840  178.8490  147.0460 C   0  0  0  0  0  2  0  0  0  0  0  0
  183.1650  178.8700  144.5310 C   0  0  0  0  0  3  0  0  0  0  0  0
  189.3540  177.2630  146.0200 C   0  0  0  0  0  0  0  0  0  0  0  0
  187.6510  176.9780  144.1650 C   0  0  0  0  0  2  0  0  0  0  0  0
  184.5440  178.6280  146.5940 C   0  0  0  0  0  2  0  0  0  0  0  0
  191.6810  176.6570  145.6620 C   0  0  0  0  0  3  0  0  0  0  0  0
  188.3040  177.8780  146.9290 C   0  0  1  0  0  3  0  0  0  0  0  0
  190.6730  177.1630  146.4840 C   0  0  0  0  0  3  0  0  0  0  0  0
  181.7480  179.0910  142.5920 O   0  0  0  0  0  1  0  0  0  0  0  0
  184.0870  178.5760  142.3140 C   0  0  0  0  0  3  0  0  0  0  0  0
  186.8870  177.8440  146.3440 C   0  0  2  0  0  3  0  0  0  0  0  0
  191.3850  176.2620  144.3590 C   0  0  0  0  0  3  0  0  0  0  0  0
  189.0600  176.8880  144.6840 C   0  0  0  0  0  0  0  0  0  0  0  0
  189.8060  175.9460  142.4370 C   0  0  0  0  0  2  0  0  0  0  0  0
  189.7590  177.0460  141.4620 N   0  0  0  0  0  0  0  0  0  0  0  0
  189.2210  178.4920  139.1080 C   0  0  0  0  0  0  0  0  0  0  0  0
  188.3670  177.3770  141.1440 C   0  0  0  0  0  2  0  0  0  0  0  0
  190.4660  176.6760  140.2320 C   0  0  0  0  0  2  0  0  0  0  0  0
  190.5740  177.8780  139.2980 C   0  0  0  0  0  2  0  0  0  0  0  0
  188.9000  178.9420  138.0200 O   0  0  0  0  0  0  0  0  0  0  0  0
  188.3040  178.6380  140.2830 C   0  0  0  0  0  2  0  0  0  0  0  0
  1 19  2  0  0  0  0
  1 20  1  0  0  0  0
  2  7  1  0  0  0  0
  4 12  1  0  0  0  0
  5 11  1  6  0  0  0
  5 18  1  0  0  0  0
  6  9  2  0  0  0  0
  7  5  1  0  0  0  0
  7  4  2  0  0  0  0
  9  4  1  0  0  0  0
 10 15  1  0  0  0  0
 10 14  1  0  0  0  0
 11 20  1  0  0  0  0
 12  8  1  0  0  0  0
 13 15  2  0  0  0  0
 14  3  1  1  0  0  0
 16  6  1  0  0  0  0
 17  2  2  0  0  0  0
 17  6  1  0  0  0  0
 18 14  1  0  0  0  0
 18  8  1  1  0  0  0
 19 13  1  0  0  0  0
 20 10  2  0  0  0  0
 21  1  1  0  0  0  0
 22 21  1  0  0  0  0
 23 26  1  0  0  0  0
 23 28  1  0  0  0  0
 24 22  1  0  0  0  0
 25 22  1  0  0  0  0
 26 25  1  0  0  0  0
 27 23  2  0  0  0  0
 28 24  1  0  0  0  0
M  END
>  <MODEL>
1

>  <REMARK>
 VINA RESULT:     -12.5      0.000      0.000
  Name = 
  2 active torsions:
  status: ('A' for Active; 'I' for Inactive)
    1  A    between atoms: C_1  and  C_2
    2  A    between atoms: C_2  and  N_3
                            x       y       z     vdW  Elec       q    Type
                         _______ _______ _______ _____ _____    ______ ____

>  <TORSDO>
F 2

$$$$
=
 OpenBabel10262420493D

 28 32  0  0  1  0  0  0  0  0999 V2000
  187.0210  178.4600  140.9540 C   0  0  0  0  0  0  0  0  0  0  0  0
  190.2600  176.8260  144.7020 C   0  0  0  0  0  3  0  0  0  0  0  0
  184.4540  179.1850  144.9960 C   0  0  0  0  0  1  0  0  0  0  0  0
  189.0030  177.2880  146.7280 C   0  0  0  0  0  0  0  0  0  0  0  0
  187.8230  177.4290  144.4750 C   0  0  2  0  0  3  0  0  0  0  0  0
  191.3410  176.6550  146.8600 C   0  0  0  0  0  0  0  0  0  0  0  0
  189.0630  177.2250  145.3160 C   0  0  0  0  0  0  0  0  0  0  0  0
  186.5060  177.4870  146.5980 C   0  0  0  0  0  2  0  0  0  0  0  0
  190.1470  177.0230  147.4860 C   0  0  0  0  0  3  0  0  0  0  0  0
  185.5970  178.3360  142.9400 C   0  0  0  0  0  0  0  0  0  0  0  0
  188.1140  178.2390  143.2180 C   0  0  0  0  0  2  0  0  0  0  0  0
  187.7530  177.7150  147.4450 C   0  0  0  0  0  2  0  0  0  0  0  0
  184.6070  178.5610  140.7310 C   0  0  0  0  0  3  0  0  0  0  0  0
  185.3950  178.1300  144.4310 C   0  0  1  0  0  3  0  0  0  0  0  0
  184.4690  178.4280  142.1130 C   0  0  0  0  0  3  0  0  0  0  0  0
  192.4710  176.3900  147.6200 O   0  0  0  0  0  1  0  0  0  0  0  0
  191.3950  176.5510  145.4690 C   0  0  0  0  0  3  0  0  0  0  0  0
  186.7010  178.1390  145.2370 C   0  0  2  0  0  3  0  0  0  0  0  0
  185.8770  178.5830  140.1570 C   0  0  0  0  0  3  0  0  0  0  0  0
  186.8880  178.3290  142.3520 C   0  0  0  0  0  0  0  0  0  0  0  0
  188.3780  178.4820  140.2910 C   0  0  0  0  0  2  0  0  0  0  0  0
  188.3940  177.9610  138.9160 N   0  0  0  0  0  0  0  0  0  0  0  0
  189.3440  177.0380  136.4330 C   0  0  0  0  0  0  0  0  0  0  0  0
  189.1100  176.6840  138.8690 C   0  0  0  0  0  2  0  0  0  0  0  0
  189.0400  178.9170  138.0110 C   0  0  0  0  0  2  0  0  0  0  0  0
  188.8910  178.4600  136.5620 C   0  0  0  0  0  2  0  0  0  0  0  0
  189.9450  176.6740  135.4350 O   0  0  0  0  0  0  0  0  0  0  0  0
  188.9690  176.0450  137.4890 C   0  0  0  0  0  2  0  0  0  0  0  0
  1 20  1  0  0  0  0
  2  7  2  0  0  0  0
  2 17  1  0  0  0  0
  4 12  1  0  0  0  0
  4  9  2  0  0  0  0
  5 11  1  6  0  0  0
  5 18  1  0  0  0  0
  5  7  1  0  0  0  0
  6  9  1  0  0  0  0
  6 16  1  0  0  0  0
  7  4  1  0  0  0  0
  8 12  1  0  0  0  0
 10 14  1  0  0  0  0
 13 15  2  0  0  0  0
 14  3  1  1  0  0  0
 14 18  1  0  0  0  0
 15 10  1  0  0  0  0
 17  6  2  0  0  0  0
 18  8  1  1  0  0  0
 19 13  1  0  0  0  0
 19  1  2  0  0  0  0
 20 10  2  0  0  0  0
 20 11  1  0  0  0  0
 21  1  1  0  0  0  0
 22 21  1  0  0  0  0
 23 26  1  0  0  0  0
 23 28  1  0  0  0  0
 24 22  1  0  0  0  0
 25 22  1  0  0  0  0
 26 25  1  0  0  0  0
 27 23  2  0  0  0  0
 28 24  1  0  0  0  0
M  END
>  <MODEL>
2

>  <REMARK>
 VINA RESULT:     -11.3      2.574      5.465
  Name = 
  2 active torsions:
  status: ('A' for Active; 'I' for Inactive)
    1  A    between atoms: C_1  and  C_2
    2  A    between atoms: C_2  and  N_3
                            x       y       z     vdW  Elec       q    Type
                         _______ _______ _______ _____ _____    ______ ____

>  <TORSDO>
F 2

$$$$
=
 OpenBabel10262420493D

 28 32  0  0  1  0  0  0  0  0999 V2000
  189.9720  176.9000  143.0910 C   0  0  0  0  0  0  0  0  0  0  0  0
  185.0830  178.6940  142.7930 C   0  0  0  0  0  3  0  0  0  0  0  0
  188.5220  176.8600  147.7110 C   0  0  0  0  0  1  0  0  0  0  0  0
  184.3330  178.5740  145.1010 C   0  0  0  0  0  0  0  0  0  0  0  0
  186.8080  178.2670  144.5820 C   0  0  2  0  0  3  0  0  0  0  0  0
  182.7460  179.0270  143.3230 C   0  0  0  0  0  0  0  0  0  0  0  0
  185.3730  178.4670  144.1480 C   0  0  0  0  0  0  0  0  0  0  0  0
  186.0380  178.5630  146.9410 C   0  0  0  0  0  2  0  0  0  0  0  0
  183.0250  178.8330  144.6780 C   0  0  0  0  0  3  0  0  0  0  0  0
  189.3820  177.3700  145.4190 C   0  0  0  0  0  0  0  0  0  0  0  0
  187.5480  177.2950  143.6710 C   0  0  0  0  0  2  0  0  0  0  0  0
  184.5780  178.3350  146.5640 C   0  0  0  0  0  2  0  0  0  0  0  0
  191.6970  176.9690  144.7950 C   0  0  0  0  0  3  0  0  0  0  0  0
  188.3830  177.7630  146.4920 C   0  0  1  0  0  3  0  0  0  0  0  0
  190.7380  177.2730  145.7610 C   0  0  0  0  0  3  0  0  0  0  0  0
  181.4460  179.2870  142.9130 O   0  0  0  0  0  1  0  0  0  0  0  0
  183.7750  178.9640  142.3830 C   0  0  0  0  0  3  0  0  0  0  0  0
  186.9250  177.7430  146.0150 C   0  0  2  0  0  3  0  0  0  0  0  0
  191.3140  176.7780  143.4680 C   0  0  0  0  0  3  0  0  0  0  0  0
  188.9970  177.2040  144.0640 C   0  0  0  0  0  0  0  0  0  0  0  0
  189.6000  176.6920  141.6410 C   0  0  0  0  0  2  0  0  0  0  0  0
  190.7390  176.4210  140.7520 N   0  0  0  0  0  0  0  0  0  0  0  0
  192.6240  176.7090  138.6810 C   0  0  0  0  0  0  0  0  0  0  0  0
  191.7140  177.5110  140.8370 C   0  0  0  0  0  2  0  0  0  0  0  0
  190.2870  176.2770  139.3650 C   0  0  0  0  0  2  0  0  0  0  0  0
  191.4380  175.8150  138.4750 C   0  0  0  0  0  2  0  0  0  0  0  0
  193.3370  177.0080  137.7380 O   0  0  0  0  0  0  0  0  0  0  0  0
  192.9840  177.1510  140.0660 C   0  0  0  0  0  2  0  0  0  0  0  0
  1 19  2  0  0  0  0
  1 20  1  0  0  0  0
  2  7  1  0  0  0  0
  4 12  1  0  0  0  0
  5 11  1  6  0  0  0
  5 18  1  0  0  0  0
  6  9  2  0  0  0  0
  7  5  1  0  0  0  0
  7  4  2  0  0  0  0
  9  4  1  0  0  0  0
 10 15  1  0  0  0  0
 10 14  1  0  0  0  0
 11 20  1  0  0  0  0
 12  8  1  0  0  0  0
 13 15  2  0  0  0  0
 14  3  1  1  0  0  0
 16  6  1  0  0  0  0
 17  2  2  0  0  0  0
 17  6  1  0  0  0  0
 18 14  1  0  0  0  0
 18  8  1  1  0  0  0
 19 13  1  0  0  0  0
 20 10  2  0  0  0  0
 21  1  1  0  0  0  0
 22 24  1  0  0  0  0
 22 21  1  0  0  0  0
 23 28  1  0  0  0  0
 25 22  1  0  0  0  0
 26 23  1  0  0  0  0
 26 25  1  0  0  0  0
 27 23  2  0  0  0  0
 28 24  1  0  0  0  0
M  END
>  <MODEL>
3

>  <REMARK>
 VINA RESULT:     -11.3      1.389      1.795
  Name = 
  2 active torsions:
  status: ('A' for Active; 'I' for Inactive)
    1  A    between atoms: C_1  and  C_2
    2  A    between atoms: C_2  and  N_3
                            x       y       z     vdW  Elec       q    Type
                         _______ _______ _______ _____ _____    ______ ____

>  <TORSDO>
F 2

$$$$
=
 OpenBabel10262420493D

 28 32  0  0  1  0  0  0  0  0999 V2000
  189.1670  177.0810  146.3640 C   0  0  0  0  0  0  0  0  0  0  0  0
  187.8380  178.1940  141.4440 C   0  0  0  0  0  3  0  0  0  0  0  0
  184.4980  178.3030  146.7550 C   0  0  0  0  0  1  0  0  0  0  0  0
  185.4710  178.7070  141.6380 C   0  0  0  0  0  0  0  0  0  0  0  0
  186.8760  178.5090  143.7530 C   0  0  2  0  0  3  0  0  0  0  0  0
  186.4860  178.4340  139.4520 C   0  0  0  0  0  0  0  0  0  0  0  0
  186.7130  178.4210  142.2520 C   0  0  0  0  0  0  0  0  0  0  0  0
  184.5550  179.4300  143.8580 C   0  0  0  0  0  2  0  0  0  0  0  0
  185.3640  178.6910  140.2440 C   0  0  0  0  0  3  0  0  0  0  0  0
  186.9890  178.1750  146.5830 C   0  0  0  0  0  0  0  0  0  0  0  0
  187.7500  177.3860  144.2980 C   0  0  0  0  0  2  0  0  0  0  0  0
  184.2290  178.9520  142.4480 C   0  0  0  0  0  2  0  0  0  0  0  0
  188.3980  177.8400  148.5360 C   0  0  0  0  0  3  0  0  0  0  0  0
  185.7270  178.7730  145.9880 C   0  0  1  0  0  3  0  0  0  0  0  0
  187.2250  178.3240  147.9570 C   0  0  0  0  0  3  0  0  0  0  0  0
  186.3720  178.4240  138.0690 O   0  0  0  0  0  1  0  0  0  0  0  0
  187.7230  178.1920  140.0520 C   0  0  0  0  0  3  0  0  0  0  0  0
  185.5390  178.4610  144.4980 C   0  0  2  0  0  3  0  0  0  0  0  0
  189.3610  177.2160  147.7430 C   0  0  0  0  0  3  0  0  0  0  0  0
  187.9820  177.5660  145.7730 C   0  0  0  0  0  0  0  0  0  0  0  0
  190.2380  176.4040  145.5400 C   0  0  0  0  0  2  0  0  0  0  0  0
  190.3850  176.9360  144.1760 N   0  0  0  0  0  0  0  0  0  0  0  0
  191.4990  177.5360  141.6620 C   0  0  0  0  0  0  0  0  0  0  0  0
  190.6150  175.8400  143.2310 C   0  0  0  0  0  2  0  0  0  0  0  0
  191.5040  177.8810  144.1100 C   0  0  0  0  0  2  0  0  0  0  0  0
  191.5400  178.5680  142.7480 C   0  0  0  0  0  2  0  0  0  0  0  0
  192.1490  177.6940  140.6420 O   0  0  0  0  0  0  0  0  0  0  0  0
  190.5800  176.3610  141.7950 C   0  0  0  0  0  2  0  0  0  0  0  0
  1 19  1  0  0  0  0
  2  7  1  0  0  0  0
  4  7  2  0  0  0  0
  4 12  1  0  0  0  0
  5 11  1  1  0  0  0
  5 18  1  0  0  0  0
  6 17  1  0  0  0  0
  6  9  2  0  0  0  0
  7  5  1  0  0  0  0
  9  4  1  0  0  0  0
 10 15  2  0  0  0  0
 11 20  1  0  0  0  0
 12  8  1  0  0  0  0
 14 10  1  0  0  0  0
 14  3  1  1  0  0  0
 15 13  1  0  0  0  0
 16  6  1  0  0  0  0
 17  2  2  0  0  0  0
 18  8  1  6  0  0  0
 18 14  1  0  0  0  0
 19 13  2  0  0  0  0
 20  1  2  0  0  0  0
 20 10  1  0  0  0  0
 21  1  1  0  0  0  0
 22 21  1  0  0  0  0
 23 28  1  0  0  0  0
 23 26  1  0  0  0  0
 24 22  1  0  0  0  0
 25 22  1  0  0  0  0
 26 25  1  0  0  0  0
 27 23  2  0  0  0  0
 28 24  1  0  0  0  0
M  END
>  <MODEL>
4

>  <REMARK>
 VINA RESULT:     -10.6      1.835      3.657
  Name = 
  2 active torsions:
  status: ('A' for Active; 'I' for Inactive)
    1  A    between atoms: C_1  and  C_2
    2  A    between atoms: C_2  and  N_3
                            x       y       z     vdW  Elec       q    Type
                         _______ _______ _______ _____ _____    ______ ____

>  <TORSDO>
F 2

$$$$
=
 OpenBabel10262420493D

 28 32  0  0  1  0  0  0  0  0999 V2000
  188.5430  176.9380  144.1460 C   0  0  0  0  0  0  0  0  0  0  0  0
  184.7530  178.2250  140.8010 C   0  0  0  0  0  3  0  0  0  0  0  0
  184.9110  178.2380  147.0740 C   0  0  0  0  0  1  0  0  0  0  0  0
  182.9060  178.7780  142.2800 C   0  0  0  0  0  0  0  0  0  0  0  0
  185.2390  178.4880  143.2610 C   0  0  2  0  0  3  0  0  0  0  0  0
  182.5340  178.5520  139.8930 C   0  0  0  0  0  0  0  0  0  0  0  0
  184.2700  178.4490  142.1000 C   0  0  0  0  0  0  0  0  0  0  0  0
  183.3940  179.4500  144.6460 C   0  0  0  0  0  2  0  0  0  0  0  0
  182.0460  178.8060  141.1770 C   0  0  0  0  0  3  0  0  0  0  0  0
  186.8860  178.0670  145.5500 C   0  0  0  0  0  0  0  0  0  0  0  0
  186.2310  177.3330  143.2140 C   0  0  0  0  0  2  0  0  0  0  0  0
  182.3280  179.0220  143.6450 C   0  0  0  0  0  2  0  0  0  0  0  0
  189.1280  177.6460  146.3910 C   0  0  0  0  0  3  0  0  0  0  0  0
  185.5260  178.7070  145.7620 C   0  0  1  0  0  3  0  0  0  0  0  0
  187.8470  178.1700  146.5660 C   0  0  0  0  0  3  0  0  0  0  0  0
  181.6740  178.5850  138.8050 O   0  0  0  0  0  1  0  0  0  0  0  0
  183.8870  178.2670  139.7050 C   0  0  0  0  0  3  0  0  0  0  0  0
  184.5360  178.4440  144.6200 C   0  0  2  0  0  3  0  0  0  0  0  0
  189.4710  177.0280  145.1900 C   0  0  0  0  0  3  0  0  0  0  0  0
  187.2450  177.4640  144.3170 C   0  0  0  0  0  0  0  0  0  0  0  0
  188.9560  176.2660  142.8570 C   0  0  0  0  0  2  0  0  0  0  0  0
  189.9900  176.9870  142.0990 N   0  0  0  0  0  0  0  0  0  0  0  0
  192.2430  177.4860  140.4870 C   0  0  0  0  0  0  0  0  0  0  0  0
  189.9450  176.5920  140.6880 C   0  0  0  0  0  2  0  0  0  0  0  0
  191.3210  176.7030  142.6430 C   0  0  0  0  0  2  0  0  0  0  0  0
  192.3690  177.5900  141.9760 C   0  0  0  0  0  2  0  0  0  0  0  0
  193.2410  177.4960  139.7850 O   0  0  0  0  0  0  0  0  0  0  0  0
  190.8820  177.4710  139.8610 C   0  0  0  0  0  2  0  0  0  0  0  0
  1 20  2  0  0  0  0
  1 19  1  0  0  0  0
  2  7  1  0  0  0  0
  4 12  1  0  0  0  0
  5 11  1  6  0  0  0
  5 18  1  0  0  0  0
  6  9  2  0  0  0  0
  7  4  2  0  0  0  0
  7  5  1  0  0  0  0
  9  4  1  0  0  0  0
 10 14  1  0  0  0  0
 10 15  2  0  0  0  0
 11 20  1  0  0  0  0
 12  8  1  0  0  0  0
 13 15  1  0  0  0  0
 14  3  1  1  0  0  0
 16  6  1  0  0  0  0
 17  6  1  0  0  0  0
 17  2  2  0  0  0  0
 18  8  1  6  0  0  0
 18 14  1  0  0  0  0
 19 13  2  0  0  0  0
 20 10  1  0  0  0  0
 21  1  1  0  0  0  0
 22 25  1  0  0  0  0
 22 21  1  0  0  0  0
 23 26  1  0  0  0  0
 24 22  1  0  0  0  0
 26 25  1  0  0  0  0
 27 23  2  0  0  0  0
 28 23  1  0  0  0  0
 28 24  1  0  0  0  0
M  END
>  <MODEL>
5

>  <REMARK>
 VINA RESULT:     -10.1      1.768      2.899
  Name = 
  2 active torsions:
  status: ('A' for Active; 'I' for Inactive)
    1  A    between atoms: C_1  and  C_2
    2  A    between atoms: C_2  and  N_3
                            x       y       z     vdW  Elec       q    Type
                         _______ _______ _______ _____ _____    ______ ____

>  <TORSDO>
F 2

$$$$
=
 OpenBabel10262420493D

 28 32  0  0  1  0  0  0  0  0999 V2000
  184.0010  178.6590  142.3700 C   0  0  0  0  0  0  0  0  0  0  0  0
  188.8260  176.6860  142.5430 C   0  0  0  0  0  3  0  0  0  0  0  0
  185.2990  179.3780  146.9800 C   0  0  0  0  0  1  0  0  0  0  0  0
  189.5040  177.1430  144.8310 C   0  0  0  0  0  0  0  0  0  0  0  0
  187.0610  177.4430  144.1760 C   0  0  2  0  0  3  0  0  0  0  0  0
  191.1300  176.3650  143.2080 C   0  0  0  0  0  0  0  0  0  0  0  0
  188.5010  177.1310  143.8340 C   0  0  0  0  0  0  0  0  0  0  0  0
  187.7410  177.4970  146.5800 C   0  0  0  0  0  2  0  0  0  0  0  0
  190.8140  176.7790  144.5040 C   0  0  0  0  0  3  0  0  0  0  0  0
  184.4960  178.5430  144.7640 C   0  0  0  0  0  0  0  0  0  0  0  0
  186.3880  178.2830  143.0970 C   0  0  0  0  0  2  0  0  0  0  0  0
  189.2200  177.6160  146.2290 C   0  0  0  0  0  2  0  0  0  0  0  0
  182.2190  178.9140  143.9970 C   0  0  0  0  0  3  0  0  0  0  0  0
  185.4430  178.2910  145.9230 C   0  0  1  0  0  3  0  0  0  0  0  0
  183.1340  178.7360  145.0350 C   0  0  0  0  0  3  0  0  0  0  0  0
  192.4330  176.0030  142.8930 O   0  0  0  0  0  1  0  0  0  0  0  0
  190.1350  176.3130  142.2300 C   0  0  0  0  0  3  0  0  0  0  0  0
  186.9160  178.1900  145.5050 C   0  0  2  0  0  3  0  0  0  0  0  0
  182.6530  178.8820  142.6720 C   0  0  0  0  0  3  0  0  0  0  0  0
  184.9310  178.4810  143.4150 C   0  0  0  0  0  0  0  0  0  0  0  0
  184.4280  178.6250  140.9210 C   0  0  0  0  0  2  0  0  0  0  0  0
  183.3170  178.5730  139.9590 N   0  0  0  0  0  0  0  0  0  0  0  0
  181.9120  178.4910  137.5220 C   0  0  0  0  0  0  0  0  0  0  0  0
  183.4310  177.3760  139.1230 C   0  0  0  0  0  2  0  0  0  0  0  0
  183.3180  179.7660  139.1060 C   0  0  0  0  0  2  0  0  0  0  0  0
  182.0640  179.7990  138.2370 C   0  0  0  0  0  2  0  0  0  0  0  0
  181.4910  178.4640  136.3770 O   0  0  0  0  0  0  0  0  0  0  0  0
  182.1850  177.2140  138.2530 C   0  0  0  0  0  2  0  0  0  0  0  0
  1 19  2  0  0  0  0
  1 20  1  0  0  0  0
  2  7  1  0  0  0  0
  4 12  1  0  0  0  0
  5 11  1  6  0  0  0
  5 18  1  0  0  0  0
  6  9  2  0  0  0  0
  7  5  1  0  0  0  0
  7  4  2  0  0  0  0
  9  4  1  0  0  0  0
 10 15  1  0  0  0  0
 10 14  1  0  0  0  0
 11 20  1  0  0  0  0
 12  8  1  0  0  0  0
 13 15  2  0  0  0  0
 14  3  1  1  0  0  0
 16  6  1  0  0  0  0
 17  2  2  0  0  0  0
 17  6  1  0  0  0  0
 18 14  1  0  0  0  0
 18  8  1  1  0  0  0
 19 13  1  0  0  0  0
 20 10  2  0  0  0  0
 21  1  1  0  0  0  0
 22 21  1  0  0  0  0
 23 26  1  0  0  0  0
 23 28  1  0  0  0  0
 24 22  1  0  0  0  0
 25 22  1  0  0  0  0
 26 25  1  0  0  0  0
 27 23  2  0  0  0  0
 28 24  1  0  0  0  0
M  END
>  <MODEL>
6

>  <REMARK>
 VINA RESULT:     -10.0      2.932      6.436
  Name = 
  2 active torsions:
  status: ('A' for Active; 'I' for Inactive)
    1  A    between atoms: C_1  and  C_2
    2  A    between atoms: C_2  and  N_3
                            x       y       z     vdW  Elec       q    Type
                         _______ _______ _______ _____ _____    ______ ____

>  <TORSDO>
F 2

$$$$
=
 OpenBabel10262420493D

 28 32  0  0  1  0  0  0  0  0999 V2000
  185.0300  178.7620  143.9340 C   0  0  0  0  0  0  0  0  0  0  0  0
  188.2570  177.4260  140.0600 C   0  0  0  0  0  3  0  0  0  0  0  0
  189.1570  177.7630  146.2610 C   0  0  0  0  0  1  0  0  0  0  0  0
  190.3490  177.0250  141.2280 C   0  0  0  0  0  0  0  0  0  0  0  0
  188.2040  177.2850  142.5770 C   0  0  2  0  0  3  0  0  0  0  0  0
  190.3040  177.1280  138.8050 C   0  0  0  0  0  0  0  0  0  0  0  0
  188.9610  177.2930  141.2670 C   0  0  0  0  0  0  0  0  0  0  0  0
  190.2970  176.4710  143.6740 C   0  0  0  0  0  2  0  0  0  0  0  0
  191.0120  176.9650  139.9980 C   0  0  0  0  0  3  0  0  0  0  0  0
  186.9480  177.7760  145.0900 C   0  0  0  0  0  0  0  0  0  0  0  0
  187.1670  178.3990  142.6420 C   0  0  0  0  0  2  0  0  0  0  0  0
  191.1600  176.8810  142.4850 C   0  0  0  0  0  2  0  0  0  0  0  0
  184.8630  178.1620  146.2790 C   0  0  0  0  0  3  0  0  0  0  0  0
  188.3520  177.1980  145.0980 C   0  0  1  0  0  3  0  0  0  0  0  0
  186.1780  177.6950  146.2580 C   0  0  0  0  0  3  0  0  0  0  0  0
  190.9690  177.0640  137.5890 O   0  0  0  0  0  1  0  0  0  0  0  0
  188.9270  177.3520  138.8370 C   0  0  0  0  0  3  0  0  0  0  0  0
  189.1230  177.4320  143.7930 C   0  0  2  0  0  3  0  0  0  0  0  0
  184.2960  178.6980  145.1240 C   0  0  0  0  0  3  0  0  0  0  0  0
  186.3600  178.2940  143.9070 C   0  0  0  0  0  0  0  0  0  0  0  0
  184.3750  179.3440  142.7030 C   0  0  0  0  0  2  0  0  0  0  0  0
  183.4100  178.4500  142.0450 N   0  0  0  0  0  0  0  0  0  0  0  0
  181.4990  177.4810  140.2210 C   0  0  0  0  0  0  0  0  0  0  0  0
  183.8270  178.1870  140.6660 C   0  0  0  0  0  2  0  0  0  0  0  0
  182.0710  179.0480  142.0450 C   0  0  0  0  0  2  0  0  0  0  0  0
  181.0410  178.0450  141.5310 C   0  0  0  0  0  2  0  0  0  0  0  0
  180.6890  177.2470  139.3380 O   0  0  0  0  0  0  0  0  0  0  0  0
  182.9390  177.1140  140.0370 C   0  0  0  0  0  2  0  0  0  0  0  0
  1 19  1  0  0  0  0
  2  7  1  0  0  0  0
  4  7  2  0  0  0  0
  4 12  1  0  0  0  0
  5 11  1  6  0  0  0
  5 18  1  0  0  0  0
  6 17  1  0  0  0  0
  6  9  2  0  0  0  0
  7  5  1  0  0  0  0
  9  4  1  0  0  0  0
 10 14  1  0  0  0  0
 10 15  2  0  0  0  0
 11 20  1  0  0  0  0
 12  8  1  0  0  0  0
 14  3  1  1  0  0  0
 15 13  1  0  0  0  0
 16  6  1  0  0  0  0
 17  2  2  0  0  0  0
 18  8  1  6  0  0  0
 18 14  1  0  0  0  0
 19 13  2  0  0  0  0
 20  1  2  0  0  0  0
 20 10  1  0  0  0  0
 21  1  1  0  0  0  0
 22 21  1  0  0  0  0
 23 26  1  0  0  0  0
 24 22  1  0  0  0  0
 25 22  1  0  0  0  0
 26 25  1  0  0  0  0
 27 23  2  0  0  0  0
 28 23  1  0  0  0  0
 28 24  1  0  0  0  0
M  END
>  <MODEL>
7

>  <REMARK>
 VINA RESULT:     -10.0      2.053      6.425
  Name = 
  2 active torsions:
  status: ('A' for Active; 'I' for Inactive)
    1  A    between atoms: C_1  and  C_2
    2  A    between atoms: C_2  and  N_3
                            x       y       z     vdW  Elec       q    Type
                         _______ _______ _______ _____ _____    ______ ____

>  <TORSDO>
F 2

$$$$
=
 OpenBabel10262420493D

 28 32  0  0  1  0  0  0  0  0999 V2000
  189.5690  177.3170  141.9130 C   0  0  0  0  0  0  0  0  0  0  0  0
  184.6250  178.7080  142.8210 C   0  0  0  0  0  3  0  0  0  0  0  0
  189.2540  177.1030  146.7400 C   0  0  0  0  0  1  0  0  0  0  0  0
  184.4510  178.5000  145.2350 C   0  0  0  0  0  0  0  0  0  0  0  0
  186.7500  178.4020  144.1430 C   0  0  2  0  0  3  0  0  0  0  0  0
  182.4600  178.8430  143.8920 C   0  0  0  0  0  0  0  0  0  0  0  0
  185.2410  178.4900  144.0630 C   0  0  0  0  0  0  0  0  0  0  0  0
  186.5360  178.6060  146.6250 C   0  0  0  0  0  2  0  0  0  0  0  0
  183.0640  178.6560  145.1380 C   0  0  0  0  0  3  0  0  0  0  0  0
  189.5100  177.7080  144.3280 C   0  0  0  0  0  0  0  0  0  0  0  0
  187.3270  177.5050  143.0550 C   0  0  0  0  0  2  0  0  0  0  0  0
  185.0500  178.2640  146.5930 C   0  0  0  0  0  2  0  0  0  0  0  0
  191.6360  177.5060  143.1680 C   0  0  0  0  0  3  0  0  0  0  0  0
  188.7640  178.0060  145.6160 C   0  0  1  0  0  3  0  0  0  0  0  0
  190.9120  177.7180  144.3400 C   0  0  0  0  0  3  0  0  0  0  0  0
  181.0830  179.0010  143.8060 O   0  0  0  0  0  1  0  0  0  0  0  0
  183.2400  178.8750  142.7360 C   0  0  0  0  0  3  0  0  0  0  0  0
  187.2410  177.8720  145.4930 C   0  0  2  0  0  3  0  0  0  0  0  0
  190.9670  177.3000  141.9620 C   0  0  0  0  0  3  0  0  0  0  0  0
  188.8300  177.5280  143.0950 C   0  0  0  0  0  0  0  0  0  0  0  0
  188.8830  177.0960  140.5840 C   0  0  0  0  0  2  0  0  0  0  0  0
  189.7640  177.2240  139.4140 N   0  0  0  0  0  0  0  0  0  0  0  0
  190.9320  176.7430  136.8990 C   0  0  0  0  0  0  0  0  0  0  0  0
  188.9690  177.4790  138.2110 C   0  0  0  0  0  2  0  0  0  0  0  0
  190.5550  176.0040  139.2280 C   0  0  0  0  0  2  0  0  0  0  0  0
  191.5960  176.2060  138.1310 C   0  0  0  0  0  2  0  0  0  0  0  0
  191.3020  176.3780  135.7950 O   0  0  0  0  0  0  0  0  0  0  0  0
  189.8810  177.8020  137.0280 C   0  0  0  0  0  2  0  0  0  0  0  0
  1 19  2  0  0  0  0
  1 20  1  0  0  0  0
  2  7  1  0  0  0  0
  4 12  1  0  0  0  0
  5 11  1  6  0  0  0
  5 18  1  0  0  0  0
  6  9  2  0  0  0  0
  7  5  1  0  0  0  0
  7  4  2  0  0  0  0
  9  4  1  0  0  0  0
 10 15  1  0  0  0  0
 10 14  1  0  0  0  0
 11 20  1  0  0  0  0
 12  8  1  0  0  0  0
 13 15  2  0  0  0  0
 14  3  1  1  0  0  0
 16  6  1  0  0  0  0
 17  2  2  0  0  0  0
 17  6  1  0  0  0  0
 18 14  1  0  0  0  0
 18  8  1  1  0  0  0
 19 13  1  0  0  0  0
 20 10  2  0  0  0  0
 21  1  1  0  0  0  0
 22 21  1  0  0  0  0
 23 28  1  0  0  0  0
 23 26  1  0  0  0  0
 24 22  1  0  0  0  0
 25 22  1  0  0  0  0
 26 25  1  0  0  0  0
 27 23  2  0  0  0  0
 28 24  1  0  0  0  0
M  END
>  <MODEL>
8

>  <REMARK>
 VINA RESULT:     -10.0      1.551      1.996
  Name = 
  2 active torsions:
  status: ('A' for Active; 'I' for Inactive)
    1  A    between atoms: C_1  and  C_2
    2  A    between atoms: C_2  and  N_3
                            x       y       z     vdW  Elec       q    Type
                         _______ _______ _______ _____ _____    ______ ____

>  <TORSDO>
F 2

$$$$
=
 OpenBabel10262420493D

 28 32  0  0  1  0  0  0  0  0999 V2000
  186.9780  177.7070  145.3610 C   0  0  0  0  0  0  0  0  0  0  0  0
  188.4810  178.0850  140.3800 C   0  0  0  0  0  3  0  0  0  0  0  0
  182.8260  178.6280  143.0450 C   0  0  0  0  0  1  0  0  0  0  0  0
  186.3780  178.4450  139.2180 C   0  0  0  0  0  0  0  0  0  0  0  0
  186.4390  178.6210  141.7590 C   0  0  2  0  0  3  0  0  0  0  0  0
  188.4000  177.9710  137.9650 C   0  0  0  0  0  0  0  0  0  0  0  0
  187.1000  178.3310  140.4290 C   0  0  0  0  0  0  0  0  0  0  0  0
  184.4250  179.3770  140.4870 C   0  0  0  0  0  2  0  0  0  0  0  0
  187.0300  178.2440  137.9970 C   0  0  0  0  0  3  0  0  0  0  0  0
  185.0250  178.6590  144.2350 C   0  0  0  0  0  0  0  0  0  0  0  0
  186.8810  177.6430  142.8400 C   0  0  0  0  0  2  0  0  0  0  0  0
  184.8970  178.7010  139.2050 C   0  0  0  0  0  2  0  0  0  0  0  0
  185.1760  178.6790  146.6610 C   0  0  0  0  0  3  0  0  0  0  0  0
  184.2780  179.0840  142.9840 C   0  0  1  0  0  3  0  0  0  0  0  0
  184.4940  179.0000  145.4870 C   0  0  0  0  0  3  0  0  0  0  0  0
  189.0390  177.7760  136.7490 O   0  0  0  0  0  1  0  0  0  0  0  0
  189.1250  177.8970  139.1550 C   0  0  0  0  0  3  0  0  0  0  0  0
  184.9110  178.5720  141.6840 C   0  0  2  0  0  3  0  0  0  0  0  0
  186.4080  178.0310  146.5970 C   0  0  0  0  0  3  0  0  0  0  0  0
  186.2930  178.0260  144.1700 C   0  0  0  0  0  0  0  0  0  0  0  0
  188.3190  177.0110  145.3360 C   0  0  0  0  0  2  0  0  0  0  0  0
  189.1370  177.3060  144.1500 N   0  0  0  0  0  0  0  0  0  0  0  0
  191.3600  177.5020  142.4350 C   0  0  0  0  0  0  0  0  0  0  0  0
  189.7330  176.0730  143.6290 C   0  0  0  0  0  2  0  0  0  0  0  0
  190.2010  178.2590  144.4830 C   0  0  0  0  0  2  0  0  0  0  0  0
  190.9310  178.7050  143.2190 C   0  0  0  0  0  2  0  0  0  0  0  0
  192.4310  177.5030  141.8490 O   0  0  0  0  0  0  0  0  0  0  0  0
  190.4270  176.3400  142.2940 C   0  0  0  0  0  2  0  0  0  0  0  0
  1 19  1  0  0  0  0
  2  7  1  0  0  0  0
  4  7  2  0  0  0  0
  5 11  1  1  0  0  0
  6  9  2  0  0  0  0
  6 17  1  0  0  0  0
  7  5  1  0  0  0  0
  9  4  1  0  0  0  0
 10 15  2  0  0  0  0
 11 20  1  0  0  0  0
 12  4  1  0  0  0  0
 12  8  1  0  0  0  0
 14  3  1  1  0  0  0
 14 10  1  0  0  0  0
 15 13  1  0  0  0  0
 16  6  1  0  0  0  0
 17  2  2  0  0  0  0
 18  8  1  6  0  0  0
 18  5  1  0  0  0  0
 18 14  1  0  0  0  0
 19 13  2  0  0  0  0
 20 10  1  0  0  0  0
 20  1  2  0  0  0  0
 21  1  1  0  0  0  0
 22 25  1  0  0  0  0
 22 21  1  0  0  0  0
 23 26  1  0  0  0  0
 24 22  1  0  0  0  0
 26 25  1  0  0  0  0
 27 23  2  0  0  0  0
 28 23  1  0  0  0  0
 28 24  1  0  0  0  0
M  END
>  <MODEL>
9

>  <REMARK>
 VINA RESULT:      -9.8      2.284      5.473
  Name = 
  2 active torsions:
  status: ('A' for Active; 'I' for Inactive)
    1  A    between atoms: C_1  and  C_2
    2  A    between atoms: C_2  and  N_3
                            x       y       z     vdW  Elec       q    Type
                         _______ _______ _______ _____ _____    ______ ____

>  <TORSDO>
F 2

$$$$
