=
 OpenBabel10262419353D

 31 35  0  0  1  0  0  0  0  0999 V2000
  189.8290  177.3570  147.0980 C   0  0  0  0  0  0  0  0  0  0  0  0
  188.1350  177.5810  143.6790 C   0  0  0  0  0  0  0  0  0  0  0  0
  186.7450  177.7880  143.9180 C   0  0  0  0  0  0  0  0  0  0  0  0
  185.5320  178.7170  145.8630 C   0  0  0  0  0  3  0  0  0  0  0  0
  189.1260  177.2880  144.7660 C   0  0  0  0  0  0  0  0  0  0  0  0
  191.0720  176.8240  146.7490 C   0  0  0  0  0  3  0  0  0  0  0  0
  186.1430  177.4980  145.2600 C   0  0  0  0  0  2  0  0  0  0  0  0
  190.0900  177.4490  142.0550 C   0  0  2  0  0  3  0  0  0  0  0  0
  189.5390  177.6550  148.4590 N   0  0  0  0  0  1  0  0  0  0  0  0
  186.4010  178.2070  141.5510 C   0  0  0  0  0  3  0  0  0  0  0  0
  184.4750  179.3260  145.3320 C   0  0  0  0  0  3  0  0  0  0  0  0
  190.7100  176.4270  143.0040 C   0  0  0  0  0  2  0  0  0  0  0  0
  188.6160  177.6350  142.3450 C   0  0  0  0  0  0  0  0  0  0  0  0
  188.8690  177.5950  146.1120 C   0  0  0  0  0  3  0  0  0  0  0  0
  183.8350  178.9390  144.0620 C   0  0  0  0  0  3  0  0  0  0  0  0
  190.3960  176.7750  144.4240 C   0  0  0  0  0  0  0  0  0  0  0  0
  191.3540  176.5340  145.4130 C   0  0  0  0  0  3  0  0  0  0  0  0
  187.7460  177.9660  141.3030 C   0  0  0  0  0  3  0  0  0  0  0  0
  185.8890  178.1280  142.8430 C   0  0  0  0  0  0  0  0  0  0  0  0
  184.4470  178.4170  142.9920 C   0  0  0  0  0  3  0  0  0  0  0  0
  192.4900  177.8490  140.5890 O   0  0  0  0  0  0  0  0  0  0  0  0
  191.5550  177.2400  140.0000 C   0  0  0  0  0  0  0  0  0  0  0  0
  190.3140  177.0190  140.6780 N   0  0  0  0  0  2  0  0  0  0  0  0
  191.9710  175.8330  135.9670 C   0  0  0  0  0  0  0  0  0  0  0  0
  190.6200  176.7300  137.7590 C   0  0  0  0  0  3  0  0  0  0  0  0
  194.1180  176.3180  138.9210 O   0  0  0  0  0  1  0  0  0  0  0  0
  192.0900  175.3620  134.6300 N   0  0  0  0  0  1  0  0  0  0  0  0
  190.7370  176.2740  136.4440 C   0  0  0  0  0  3  0  0  0  0  0  0
  192.9790  176.3040  138.1230 C   0  0  0  0  0  0  0  0  0  0  0  0
  191.7310  176.7460  138.6150 C   0  0  0  0  0  0  0  0  0  0  0  0
  193.0890  175.8500  136.8040 C   0  0  0  0  0  3  0  0  0  0  0  0
  1  9  1  0  0  0  0
  2  3  1  0  0  0  0
  2  5  1  0  0  0  0
  3  7  1  0  0  0  0
  5 14  1  0  0  0  0
  6  1  1  0  0  0  0
  7  4  1  0  0  0  0
  8 23  1  6  0  0  0
  8 13  1  0  0  0  0
  8 12  1  0  0  0  0
 10 19  1  0  0  0  0
 11  4  2  0  0  0  0
 12 16  1  0  0  0  0
 13  2  2  0  0  0  0
 14  1  2  0  0  0  0
 15 11  1  0  0  0  0
 16  5  2  0  0  0  0
 16 17  1  0  0  0  0
 17  6  2  0  0  0  0
 18 10  2  0  0  0  0
 18 13  1  0  0  0  0
 19 20  1  0  0  0  0
 19  3  2  0  0  0  0
 20 15  2  0  0  0  0
 22 21  2  0  0  0  0
 22 23  1  0  0  0  0
 24 28  2  0  0  0  0
 24 31  1  0  0  0  0
 25 30  2  0  0  0  0
 27 24  1  0  0  0  0
 28 25  1  0  0  0  0
 29 30  1  0  0  0  0
 29 26  1  0  0  0  0
 30 22  1  0  0  0  0
 31 29  2  0  0  0  0
M  END
>  <MODEL>
1

>  <REMARK>
 VINA RESULT:     -11.8      0.000      0.000
  Name = 
  2 active torsions:
  status: ('A' for Active; 'I' for Inactive)
    1  A    between atoms: C_9  and  C_22
    2  A    between atoms: C_15  and  N_23
                            x       y       z     vdW  Elec       q    Type
                         _______ _______ _______ _____ _____    ______ ____

>  <TORSDO>
F 2

$$$$
=
 OpenBabel10262419353D

 31 35  0  0  1  0  0  0  0  0999 V2000
  191.3510  176.7150  146.6740 C   0  0  0  0  0  0  0  0  0  0  0  0
  188.2600  177.3560  144.5190 C   0  0  0  0  0  0  0  0  0  0  0  0
  187.1850  177.6440  145.4110 C   0  0  0  0  0  0  0  0  0  0  0  0
  187.1600  178.4900  147.7340 C   0  0  0  0  0  3  0  0  0  0  0  0
  189.6120  176.8990  144.9760 C   0  0  0  0  0  0  0  0  0  0  0  0
  192.2100  176.1240  145.7460 C   0  0  0  0  0  3  0  0  0  0  0  0
  187.2730  177.2860  146.8640 C   0  0  0  0  0  2  0  0  0  0  0  0
  189.1710  177.2190  142.1460 C   0  0  2  0  0  3  0  0  0  0  0  0
  191.7820  176.9160  148.0150 N   0  0  0  0  0  1  0  0  0  0  0  0
  185.7960  178.2880  143.5260 C   0  0  0  0  0  3  0  0  0  0  0  0
  186.0490  179.2190  147.8070 C   0  0  0  0  0  3  0  0  0  0  0  0
  190.0570  176.0770  142.6350 C   0  0  0  0  0  2  0  0  0  0  0  0
  188.0450  177.4870  143.1230 C   0  0  0  0  0  0  0  0  0  0  0  0
  190.0670  177.1070  146.2890 C   0  0  0  0  0  3  0  0  0  0  0  0
  184.8410  178.9910  146.9940 C   0  0  0  0  0  3  0  0  0  0  0  0
  190.5010  176.3240  144.0410 C   0  0  0  0  0  0  0  0  0  0  0  0
  191.7840  175.9290  144.4300 C   0  0  0  0  0  3  0  0  0  0  0  0
  186.8230  177.9700  142.6480 C   0  0  0  0  0  3  0  0  0  0  0  0
  185.9610  178.1370  144.9010 C   0  0  0  0  0  0  0  0  0  0  0  0
  184.8060  178.5180  145.7420 C   0  0  0  0  0  3  0  0  0  0  0  0
  188.9240  179.0570  139.9950 O   0  0  0  0  0  0  0  0  0  0  0  0
  188.5740  177.8650  139.7720 C   0  0  0  0  0  0  0  0  0  0  0  0
  188.6600  176.8930  140.8190 N   0  0  0  0  0  2  0  0  0  0  0  0
  187.2230  176.6390  135.8880 C   0  0  0  0  0  0  0  0  0  0  0  0
  188.8770  176.6160  137.6500 C   0  0  0  0  0  3  0  0  0  0  0  0
  185.9940  178.7120  138.6740 O   0  0  0  0  0  1  0  0  0  0  0  0
  186.7940  176.2300  134.5950 N   0  0  0  0  0  1  0  0  0  0  0  0
  188.4540  176.2080  136.3830 C   0  0  0  0  0  3  0  0  0  0  0  0
  186.8330  177.8900  137.9300 C   0  0  0  0  0  0  0  0  0  0  0  0
  188.0810  177.4630  138.4360 C   0  0  0  0  0  0  0  0  0  0  0  0
  186.4140  177.4760  136.6600 C   0  0  0  0  0  3  0  0  0  0  0  0
  1  9  1  0  0  0  0
  2  5  1  0  0  0  0
  2  3  1  0  0  0  0
  3  7  1  0  0  0  0
  4 11  2  0  0  0  0
  5 14  2  0  0  0  0
  6  1  2  0  0  0  0
  7  4  1  0  0  0  0
  8 23  1  6  0  0  0
  8 12  1  0  0  0  0
  8 13  1  0  0  0  0
 10 19  1  0  0  0  0
 12 16  1  0  0  0  0
 13  2  2  0  0  0  0
 14  1  1  0  0  0  0
 15 11  1  0  0  0  0
 16 17  2  0  0  0  0
 16  5  1  0  0  0  0
 17  6  1  0  0  0  0
 18 13  1  0  0  0  0
 18 10  2  0  0  0  0
 19  3  2  0  0  0  0
 19 20  1  0  0  0  0
 20 15  2  0  0  0  0
 22 21  2  0  0  0  0
 22 23  1  0  0  0  0
 24 28  2  0  0  0  0
 24 31  1  0  0  0  0
 25 30  2  0  0  0  0
 27 24  1  0  0  0  0
 28 25  1  0  0  0  0
 29 30  1  0  0  0  0
 29 26  1  0  0  0  0
 30 22  1  0  0  0  0
 31 29  2  0  0  0  0
M  END
>  <MODEL>
2

>  <REMARK>
 VINA RESULT:     -11.0      2.459      3.256
  Name = 
  2 active torsions:
  status: ('A' for Active; 'I' for Inactive)
    1  A    between atoms: C_9  and  C_22
    2  A    between atoms: C_15  and  N_23
                            x       y       z     vdW  Elec       q    Type
                         _______ _______ _______ _____ _____    ______ ____

>  <TORSDO>
F 2

$$$$
=
 OpenBabel10262419353D

 31 35  0  0  1  0  0  0  0  0999 V2000
  185.4270  178.5010  143.2730 C   0  0  0  0  0  0  0  0  0  0  0  0
  189.1080  177.4970  143.0280 C   0  0  0  0  0  0  0  0  0  0  0  0
  189.6260  177.4930  144.3560 C   0  0  0  0  0  0  0  0  0  0  0  0
  188.5150  177.2530  146.5530 C   0  0  0  0  0  3  0  0  0  0  0  0
  187.7340  177.9860  142.6780 C   0  0  0  0  0  0  0  0  0  0  0  0
  185.1390  178.7990  141.9410 C   0  0  0  0  0  3  0  0  0  0  0  0
  188.9050  178.1970  145.4660 C   0  0  0  0  0  2  0  0  0  0  0  0
  189.4060  176.9940  140.5510 C   0  0  2  0  0  3  0  0  0  0  0  0
  184.4130  178.6180  144.2640 N   0  0  0  0  0  1  0  0  0  0  0  0
  191.6760  176.4690  143.5530 C   0  0  0  0  0  3  0  0  0  0  0  0
  189.4100  176.6220  147.3080 C   0  0  0  0  0  3  0  0  0  0  0  0
  188.4810  178.1770  140.2780 C   0  0  0  0  0  2  0  0  0  0  0  0
  189.9320  177.0330  141.9700 C   0  0  0  0  0  0  0  0  0  0  0  0
  186.7120  178.0890  143.6360 C   0  0  0  0  0  3  0  0  0  0  0  0
  190.8700  176.7000  147.1200 C   0  0  0  0  0  3  0  0  0  0  0  0
  187.4220  178.2660  141.3300 C   0  0  0  0  0  0  0  0  0  0  0  0
  186.1360  178.6820  140.9700 C   0  0  0  0  0  3  0  0  0  0  0  0
  191.1960  176.5080  142.2500 C   0  0  0  0  0  3  0  0  0  0  0  0
  190.9070  176.9500  144.6100 C   0  0  0  0  0  0  0  0  0  0  0  0
  191.5120  176.8470  145.9560 C   0  0  0  0  0  3  0  0  0  0  0  0
  189.5980  175.2740  138.2990 O   0  0  0  0  0  0  0  0  0  0  0  0
  190.5230  176.1180  138.4550 C   0  0  0  0  0  0  0  0  0  0  0  0
  190.4940  177.0040  139.5780 N   0  0  0  0  0  2  0  0  0  0  0  0
  193.6870  176.3510  135.5650 C   0  0  0  0  0  0  0  0  0  0  0  0
  191.3660  175.9750  136.1250 C   0  0  0  0  0  3  0  0  0  0  0  0
  193.2790  176.7760  139.2010 O   0  0  0  0  0  1  0  0  0  0  0  0
  194.7260  176.4160  134.5950 N   0  0  0  0  0  1  0  0  0  0  0  0
  192.3840  176.0450  135.1710 C   0  0  0  0  0  3  0  0  0  0  0  0
  192.9580  176.5190  137.8730 C   0  0  0  0  0  0  0  0  0  0  0  0
  191.6370  176.2030  137.4830 C   0  0  0  0  0  0  0  0  0  0  0  0
  193.9720  176.5890  136.9110 C   0  0  0  0  0  3  0  0  0  0  0  0
  1 14  1  0  0  0  0
  1  9  1  0  0  0  0
  2  3  1  0  0  0  0
  3 19  2  0  0  0  0
  3  7  1  0  0  0  0
  4 11  2  0  0  0  0
  5  2  1  0  0  0  0
  5 14  2  0  0  0  0
  6  1  2  0  0  0  0
  7  4  1  0  0  0  0
  8 23  1  6  0  0  0
  8 13  1  0  0  0  0
 10 19  1  0  0  0  0
 12  8  1  0  0  0  0
 12 16  1  0  0  0  0
 13 18  1  0  0  0  0
 13  2  2  0  0  0  0
 15 11  1  0  0  0  0
 16  5  1  0  0  0  0
 17 16  2  0  0  0  0
 17  6  1  0  0  0  0
 18 10  2  0  0  0  0
 19 20  1  0  0  0  0
 20 15  2  0  0  0  0
 21 22  2  0  0  0  0
 22 23  1  0  0  0  0
 24 31  1  0  0  0  0
 25 30  2  0  0  0  0
 27 24  1  0  0  0  0
 28 24  2  0  0  0  0
 28 25  1  0  0  0  0
 29 26  1  0  0  0  0
 30 29  1  0  0  0  0
 30 22  1  0  0  0  0
 31 29  2  0  0  0  0
M  END
>  <MODEL>
3

>  <REMARK>
 VINA RESULT:     -10.4      1.775      4.298
  Name = 
  2 active torsions:
  status: ('A' for Active; 'I' for Inactive)
    1  A    between atoms: C_9  and  C_22
    2  A    between atoms: C_15  and  N_23
                            x       y       z     vdW  Elec       q    Type
                         _______ _______ _______ _____ _____    ______ ____

>  <TORSDO>
F 2

$$$$
=
 OpenBabel10262419353D

 31 35  0  0  1  0  0  0  0  0999 V2000
  185.4050  178.5380  143.3340 C   0  0  0  0  0  0  0  0  0  0  0  0
  189.0650  177.4750  143.0500 C   0  0  0  0  0  0  0  0  0  0  0  0
  189.6000  177.4710  144.3710 C   0  0  0  0  0  0  0  0  0  0  0  0
  188.5130  177.2630  146.5830 C   0  0  0  0  0  3  0  0  0  0  0  0
  187.6950  177.9830  142.7140 C   0  0  0  0  0  0  0  0  0  0  0  0
  185.1050  178.8320  142.0030 C   0  0  0  0  0  3  0  0  0  0  0  0
  188.9030  178.1930  145.4860 C   0  0  0  0  0  2  0  0  0  0  0  0
  189.3250  176.9510  140.5730 C   0  0  2  0  0  3  0  0  0  0  0  0
  184.4040  178.6780  144.3360 N   0  0  0  0  0  1  0  0  0  0  0  0
  191.6230  176.4100  143.5490 C   0  0  0  0  0  3  0  0  0  0  0  0
  189.4070  176.6220  147.3310 C   0  0  0  0  0  3  0  0  0  0  0  0
  188.4150  178.1470  140.3040 C   0  0  0  0  0  2  0  0  0  0  0  0
  189.8690  176.9910  141.9850 C   0  0  0  0  0  0  0  0  0  0  0  0
  186.6870  178.1090  143.6830 C   0  0  0  0  0  3  0  0  0  0  0  0
  190.8650  176.6760  147.1250 C   0  0  0  0  0  3  0  0  0  0  0  0
  187.3700  178.2590  141.3670 C   0  0  0  0  0  0  0  0  0  0  0  0
  186.0870  178.6930  141.0210 C   0  0  0  0  0  3  0  0  0  0  0  0
  191.1280  176.4480  142.2530 C   0  0  0  0  0  3  0  0  0  0  0  0
  190.8760  176.9090  144.6130 C   0  0  0  0  0  0  0  0  0  0  0  0
  191.4960  176.8060  145.9520 C   0  0  0  0  0  3  0  0  0  0  0  0
  189.4330  175.2550  138.2970 O   0  0  0  0  0  0  0  0  0  0  0  0
  190.3870  176.0660  138.4520 C   0  0  0  0  0  0  0  0  0  0  0  0
  190.4000  176.9380  139.5870 N   0  0  0  0  0  2  0  0  0  0  0  0
  193.6520  176.2470  135.6730 C   0  0  0  0  0  0  0  0  0  0  0  0
  192.8030  176.2950  137.9350 C   0  0  0  0  0  3  0  0  0  0  0  0
  189.9950  175.8200  135.5590 O   0  0  0  0  0  1  0  0  0  0  0  0
  194.7450  176.3170  134.7640 N   0  0  0  0  0  1  0  0  0  0  0  0
  193.8780  176.3570  137.0450 C   0  0  0  0  0  3  0  0  0  0  0  0
  191.2710  176.0090  136.0770 C   0  0  0  0  0  0  0  0  0  0  0  0
  191.4910  176.1270  137.4670 C   0  0  0  0  0  0  0  0  0  0  0  0
  192.3530  176.0710  135.1910 C   0  0  0  0  0  3  0  0  0  0  0  0
  1 14  1  0  0  0  0
  1  9  1  0  0  0  0
  2  3  1  0  0  0  0
  3 19  2  0  0  0  0
  3  7  1  0  0  0  0
  4 11  2  0  0  0  0
  5  2  1  0  0  0  0
  5 14  2  0  0  0  0
  6  1  2  0  0  0  0
  7  4  1  0  0  0  0
  8 23  1  6  0  0  0
  8 13  1  0  0  0  0
 10 19  1  0  0  0  0
 12  8  1  0  0  0  0
 12 16  1  0  0  0  0
 13 18  1  0  0  0  0
 13  2  2  0  0  0  0
 15 11  1  0  0  0  0
 16  5  1  0  0  0  0
 17 16  2  0  0  0  0
 17  6  1  0  0  0  0
 18 10  2  0  0  0  0
 19 20  1  0  0  0  0
 20 15  2  0  0  0  0
 21 22  2  0  0  0  0
 22 23  1  0  0  0  0
 24 28  1  0  0  0  0
 26 29  1  0  0  0  0
 27 24  1  0  0  0  0
 28 25  2  0  0  0  0
 29 30  2  0  0  0  0
 30 25  1  0  0  0  0
 30 22  1  0  0  0  0
 31 24  2  0  0  0  0
 31 29  1  0  0  0  0
M  END
>  <MODEL>
4

>  <REMARK>
 VINA RESULT:     -10.2      2.085      4.457
  Name = 
  2 active torsions:
  status: ('A' for Active; 'I' for Inactive)
    1  A    between atoms: C_9  and  C_22
    2  A    between atoms: C_15  and  N_23
                            x       y       z     vdW  Elec       q    Type
                         _______ _______ _______ _____ _____    ______ ____

>  <TORSDO>
F 2

$$$$
=
 OpenBabel10262419353D

 31 35  0  0  1  0  0  0  0  0999 V2000
  190.6990  177.4120  142.0410 C   0  0  0  0  0  0  0  0  0  0  0  0
  187.1720  178.1780  143.3000 C   0  0  0  0  0  0  0  0  0  0  0  0
  187.1630  177.9080  144.6990 C   0  0  0  0  0  0  0  0  0  0  0  0
  188.9860  177.8300  146.3690 C   0  0  0  0  0  3  0  0  0  0  0  0
  188.3300  177.8590  142.4040 C   0  0  0  0  0  0  0  0  0  0  0  0
  190.4920  177.3780  140.6610 C   0  0  0  0  0  3  0  0  0  0  0  0
  188.2360  177.0710  145.3280 C   0  0  0  0  0  2  0  0  0  0  0  0
  186.0060  179.0940  141.2310 C   0  0  2  0  0  3  0  0  0  0  0  0
  192.0010  177.1920  142.5710 N   0  0  0  0  0  1  0  0  0  0  0  0
  184.9590  178.9100  144.8790 C   0  0  0  0  0  3  0  0  0  0  0  0
  188.4180  178.2510  147.4970 C   0  0  0  0  0  3  0  0  0  0  0  0
  186.7750  178.0480  140.4290 C   0  0  0  0  0  2  0  0  0  0  0  0
  186.0230  178.7640  142.7090 C   0  0  0  0  0  0  0  0  0  0  0  0
  189.6280  177.6600  142.9030 C   0  0  0  0  0  3  0  0  0  0  0  0
  186.9880  178.1040  147.8220 C   0  0  0  0  0  3  0  0  0  0  0  0
  188.1410  177.8480  141.0040 C   0  0  0  0  0  0  0  0  0  0  0  0
  189.2130  177.5960  140.1440 C   0  0  0  0  0  3  0  0  0  0  0  0
  184.9410  179.1390  143.5090 C   0  0  0  0  0  3  0  0  0  0  0  0
  186.0560  178.3040  145.4860 C   0  0  0  0  0  0  0  0  0  0  0  0
  185.9720  178.1210  146.9510 C   0  0  0  0  0  3  0  0  0  0  0  0
  185.3050  179.3780  138.4930 O   0  0  0  0  0  0  0  0  0  0  0  0
  184.3560  179.3080  139.3220 C   0  0  0  0  0  0  0  0  0  0  0  0
  184.6420  179.1800  140.7190 N   0  0  0  0  0  2  0  0  0  0  0  0
  180.2830  179.5380  137.9900 C   0  0  0  0  0  0  0  0  0  0  0  0
  182.3270  180.6030  138.7190 C   0  0  0  0  0  3  0  0  0  0  0  0
  182.7900  176.9230  138.6570 O   0  0  0  0  0  1  0  0  0  0  0  0
  178.9310  179.6320  137.5570 N   0  0  0  0  0  1  0  0  0  0  0  0
  181.0010  180.6960  138.2880 C   0  0  0  0  0  3  0  0  0  0  0  0
  182.2170  178.1850  138.5530 C   0  0  0  0  0  0  0  0  0  0  0  0
  182.9490  179.3530  138.8630 C   0  0  0  0  0  0  0  0  0  0  0  0
  180.8900  178.2870  138.1200 C   0  0  0  0  0  3  0  0  0  0  0  0
  1  9  1  0  0  0  0
  1 14  1  0  0  0  0
  2  3  1  0  0  0  0
  3  7  1  0  0  0  0
  3 19  2  0  0  0  0
  4 11  2  0  0  0  0
  5 14  2  0  0  0  0
  5  2  1  0  0  0  0
  6  1  2  0  0  0  0
  7  4  1  0  0  0  0
  8 23  1  6  0  0  0
  8 13  1  0  0  0  0
 10 19  1  0  0  0  0
 11 15  1  0  0  0  0
 12 16  1  0  0  0  0
 12  8  1  0  0  0  0
 13  2  2  0  0  0  0
 13 18  1  0  0  0  0
 16  5  1  0  0  0  0
 17  6  1  0  0  0  0
 17 16  2  0  0  0  0
 18 10  2  0  0  0  0
 19 20  1  0  0  0  0
 20 15  2  0  0  0  0
 21 22  2  0  0  0  0
 22 23  1  0  0  0  0
 24 31  2  0  0  0  0
 24 28  1  0  0  0  0
 25 30  1  0  0  0  0
 27 24  1  0  0  0  0
 28 25  2  0  0  0  0
 29 26  1  0  0  0  0
 29 30  2  0  0  0  0
 30 22  1  0  0  0  0
 31 29  1  0  0  0  0
M  END
>  <MODEL>
5

>  <REMARK>
 VINA RESULT:      -9.9      4.303      7.055
  Name = 
  2 active torsions:
  status: ('A' for Active; 'I' for Inactive)
    1  A    between atoms: C_9  and  C_22
    2  A    between atoms: C_15  and  N_23
                            x       y       z     vdW  Elec       q    Type
                         _______ _______ _______ _____ _____    ______ ____

>  <TORSDO>
F 2

$$$$
=
 OpenBabel10262419353D

 31 35  0  0  1  0  0  0  0  0999 V2000
  187.4380  177.5360  147.1250 C   0  0  0  0  0  0  0  0  0  0  0  0
  187.3000  178.1510  143.3550 C   0  0  0  0  0  0  0  0  0  0  0  0
  188.6320  178.0240  142.8650 C   0  0  0  0  0  0  0  0  0  0  0  0
  190.6060  176.8350  143.7620 C   0  0  0  0  0  3  0  0  0  0  0  0
  186.9500  178.1320  144.8130 C   0  0  0  0  0  0  0  0  0  0  0  0
  186.1880  178.0160  147.5230 C   0  0  0  0  0  3  0  0  0  0  0  0
  189.8050  178.0910  143.7970 C   0  0  0  0  0  2  0  0  0  0  0  0
  184.8100  178.4320  142.9060 C   0  0  2  0  0  3  0  0  0  0  0  0
  188.3340  176.9980  148.0910 N   0  0  0  0  0  1  0  0  0  0  0  0
  187.8020  178.1180  140.5850 C   0  0  0  0  0  3  0  0  0  0  0  0
  191.2730  176.4400  142.6810 C   0  0  0  0  0  3  0  0  0  0  0  0
  184.7340  179.1850  144.2310 C   0  0  0  0  0  2  0  0  0  0  0  0
  186.2420  178.3230  142.4250 C   0  0  0  0  0  0  0  0  0  0  0  0
  187.8100  177.5860  145.7800 C   0  0  0  0  0  3  0  0  0  0  0  0
  191.2400  177.1280  141.3780 C   0  0  0  0  0  3  0  0  0  0  0  0
  185.6790  178.5890  145.2260 C   0  0  0  0  0  0  0  0  0  0  0  0
  185.3100  178.5420  146.5730 C   0  0  0  0  0  3  0  0  0  0  0  0
  186.5060  178.2850  141.0540 C   0  0  0  0  0  3  0  0  0  0  0  0
  188.8680  177.9820  141.4700 C   0  0  0  0  0  0  0  0  0  0  0  0
  190.2030  177.7980  140.8610 C   0  0  0  0  0  3  0  0  0  0  0  0
  183.1940  177.1280  140.9690 O   0  0  0  0  0  0  0  0  0  0  0  0
  183.1640  178.3890  140.9820 C   0  0  0  0  0  0  0  0  0  0  0  0
  183.9670  179.1080  141.9240 N   0  0  0  0  0  2  0  0  0  0  0  0
  180.5860  180.5040  138.2820 C   0  0  0  0  0  0  0  0  0  0  0  0
  180.9190  178.8990  140.0580 C   0  0  0  0  0  3  0  0  0  0  0  0
  184.1810  180.3640  139.0730 O   0  0  0  0  0  1  0  0  0  0  0  0
  179.7180  181.1900  137.3870 N   0  0  0  0  0  1  0  0  0  0  0  0
  180.0650  179.5770  139.1850 C   0  0  0  0  0  3  0  0  0  0  0  0
  182.8210  180.0770  139.1230 C   0  0  0  0  0  0  0  0  0  0  0  0
  182.3020  179.1330  140.0360 C   0  0  0  0  0  0  0  0  0  0  0  0
  181.9600  180.7540  138.2520 C   0  0  0  0  0  3  0  0  0  0  0  0
  1  6  1  0  0  0  0
  1  9  1  0  0  0  0
  2  5  1  0  0  0  0
  3  2  1  0  0  0  0
  3  7  1  0  0  0  0
  4  7  1  0  0  0  0
  5 16  2  0  0  0  0
  5 14  1  0  0  0  0
  8 23  1  6  0  0  0
  8 12  1  0  0  0  0
 10 18  2  0  0  0  0
 10 19  1  0  0  0  0
 11  4  2  0  0  0  0
 12 16  1  0  0  0  0
 13  8  1  0  0  0  0
 13  2  2  0  0  0  0
 14  1  2  0  0  0  0
 15 11  1  0  0  0  0
 16 17  1  0  0  0  0
 17  6  2  0  0  0  0
 18 13  1  0  0  0  0
 19  3  2  0  0  0  0
 20 15  2  0  0  0  0
 20 19  1  0  0  0  0
 21 22  2  0  0  0  0
 22 23  1  0  0  0  0
 24 28  1  0  0  0  0
 26 29  1  0  0  0  0
 27 24  1  0  0  0  0
 28 25  2  0  0  0  0
 29 30  2  0  0  0  0
 30 25  1  0  0  0  0
 30 22  1  0  0  0  0
 31 24  2  0  0  0  0
 31 29  1  0  0  0  0
M  END
>  <MODEL>
6

>  <REMARK>
 VINA RESULT:      -9.9      4.197      7.403
  Name = 
  2 active torsions:
  status: ('A' for Active; 'I' for Inactive)
    1  A    between atoms: C_9  and  C_22
    2  A    between atoms: C_15  and  N_23
                            x       y       z     vdW  Elec       q    Type
                         _______ _______ _______ _____ _____    ______ ____

>  <TORSDO>
F 2

$$$$
=
 OpenBabel10262419353D

 31 35  0  0  1  0  0  0  0  0999 V2000
  185.5100  178.4670  146.0510 C   0  0  0  0  0  0  0  0  0  0  0  0
  184.5450  178.5470  142.3530 C   0  0  0  0  0  0  0  0  0  0  0  0
  183.1230  178.6100  142.2970 C   0  0  0  0  0  0  0  0  0  0  0  0
  181.4470  179.3970  143.9370 C   0  0  0  0  0  3  0  0  0  0  0  0
  185.3140  178.3470  143.6250 C   0  0  0  0  0  0  0  0  0  0  0  0
  186.8450  178.0660  145.9740 C   0  0  0  0  0  3  0  0  0  0  0  0
  182.2880  178.2510  143.4900 C   0  0  0  0  0  2  0  0  0  0  0  0
  186.7980  178.6260  141.1700 C   0  0  2  0  0  3  0  0  0  0  0  0
  184.9170  178.7240  147.3190 N   0  0  0  0  0  1  0  0  0  0  0  0
  183.2350  179.0120  139.9050 C   0  0  0  0  0  3  0  0  0  0  0  0
  180.4670  179.9000  143.1920 C   0  0  0  0  0  3  0  0  0  0  0  0
  187.3070  177.6650  142.2400 C   0  0  0  0  0  2  0  0  0  0  0  0
  185.2840  178.6600  141.1470 C   0  0  0  0  0  0  0  0  0  0  0  0
  184.7560  178.6150  144.8860 C   0  0  0  0  0  3  0  0  0  0  0  0
  180.1450  179.4610  141.8220 C   0  0  0  0  0  3  0  0  0  0  0  0
  186.6730  177.9670  143.5600 C   0  0  0  0  0  0  0  0  0  0  0  0
  187.4250  177.8160  144.7290 C   0  0  0  0  0  3  0  0  0  0  0  0
  184.6200  178.9090  139.9440 C   0  0  0  0  0  3  0  0  0  0  0  0
  182.4780  178.8710  141.0650 C   0  0  0  0  0  0  0  0  0  0  0  0
  181.0140  179.0110  140.9090 C   0  0  0  0  0  3  0  0  0  0  0  0
  189.5570  178.2720  140.6000 O   0  0  0  0  0  0  0  0  0  0  0  0
  188.7470  178.0570  139.6580 C   0  0  0  0  0  0  0  0  0  0  0  0
  187.3430  178.2320  139.8750 N   0  0  0  0  0  2  0  0  0  0  0  0
  190.1840  176.7030  135.8480 C   0  0  0  0  0  0  0  0  0  0  0  0
  189.8670  176.3730  138.2210 C   0  0  0  0  0  3  0  0  0  0  0  0
  188.4320  179.6410  137.2140 O   0  0  0  0  0  1  0  0  0  0  0  0
  190.6750  176.2430  134.5940 N   0  0  0  0  0  1  0  0  0  0  0  0
  190.3420  175.9170  136.9890 C   0  0  0  0  0  3  0  0  0  0  0  0
  189.0710  178.4080  137.1680 C   0  0  0  0  0  0  0  0  0  0  0  0
  189.2340  177.6200  138.3300 C   0  0  0  0  0  0  0  0  0  0  0  0
  189.5490  177.9440  135.9370 C   0  0  0  0  0  3  0  0  0  0  0  0
  1  9  1  0  0  0  0
  2  5  1  0  0  0  0
  3  2  1  0  0  0  0
  3  7  1  0  0  0  0
  5 14  1  0  0  0  0
  6  1  1  0  0  0  0
  7  4  1  0  0  0  0
  8 23  1  6  0  0  0
  8 12  1  0  0  0  0
 10 18  2  0  0  0  0
 10 19  1  0  0  0  0
 11  4  2  0  0  0  0
 12 16  1  0  0  0  0
 13  8  1  0  0  0  0
 13  2  2  0  0  0  0
 14  1  2  0  0  0  0
 15 11  1  0  0  0  0
 16  5  2  0  0  0  0
 16 17  1  0  0  0  0
 17  6  2  0  0  0  0
 18 13  1  0  0  0  0
 19  3  2  0  0  0  0
 20 19  1  0  0  0  0
 20 15  2  0  0  0  0
 22 23  1  0  0  0  0
 22 21  2  0  0  0  0
 24 31  2  0  0  0  0
 24 28  1  0  0  0  0
 25 30  1  0  0  0  0
 27 24  1  0  0  0  0
 28 25  2  0  0  0  0
 29 26  1  0  0  0  0
 29 30  2  0  0  0  0
 30 22  1  0  0  0  0
 31 29  1  0  0  0  0
M  END
>  <MODEL>
7

>  <REMARK>
 VINA RESULT:      -9.4      2.548      3.904
  Name = 
  2 active torsions:
  status: ('A' for Active; 'I' for Inactive)
    1  A    between atoms: C_9  and  C_22
    2  A    between atoms: C_15  and  N_23
                            x       y       z     vdW  Elec       q    Type
                         _______ _______ _______ _____ _____    ______ ____

>  <TORSDO>
F 2

$$$$
=
 OpenBabel10262419353D

 31 35  0  0  1  0  0  0  0  0999 V2000
  187.3060  178.2680  136.4810 C   0  0  0  0  0  0  0  0  0  0  0  0
  186.3590  178.3400  140.1840 C   0  0  0  0  0  0  0  0  0  0  0  0
  184.9950  178.7480  140.2550 C   0  0  0  0  0  0  0  0  0  0  0  0
  183.1580  178.6370  138.6030 C   0  0  0  0  0  3  0  0  0  0  0  0
  187.1540  178.3330  138.9130 C   0  0  0  0  0  0  0  0  0  0  0  0
  188.6980  178.2010  136.5600 C   0  0  0  0  0  3  0  0  0  0  0  0
  184.3300  179.4190  139.0910 C   0  0  0  0  0  2  0  0  0  0  0  0
  188.4540  177.4650  141.3340 C   0  0  2  0  0  3  0  0  0  0  0  0
  186.6650  178.2820  135.2110 N   0  0  0  0  0  1  0  0  0  0  0  0
  184.9610  178.2210  142.6250 C   0  0  0  0  0  3  0  0  0  0  0  0
  182.0640  178.4520  139.3370 C   0  0  0  0  0  3  0  0  0  0  0  0
  189.2560  178.2530  140.3020 C   0  0  0  0  0  2  0  0  0  0  0  0
  187.0150  177.9330  141.3750 C   0  0  0  0  0  0  0  0  0  0  0  0
  186.5420  178.3240  137.6490 C   0  0  0  0  0  3  0  0  0  0  0  0
  181.9020  178.9090  140.7290 C   0  0  0  0  0  3  0  0  0  0  0  0
  188.5620  178.2390  138.9780 C   0  0  0  0  0  0  0  0  0  0  0  0
  189.3250  178.1870  137.8080 C   0  0  0  0  0  3  0  0  0  0  0  0
  186.3020  177.8620  142.5740 C   0  0  0  0  0  3  0  0  0  0  0  0
  184.2970  178.6580  141.4830 C   0  0  0  0  0  0  0  0  0  0  0  0
  182.8680  179.0030  141.6510 C   0  0  0  0  0  3  0  0  0  0  0  0
  188.7650  175.3630  143.2180 O   0  0  0  0  0  0  0  0  0  0  0  0
  189.2320  176.4910  143.5370 C   0  0  0  0  0  0  0  0  0  0  0  0
  189.0950  177.5960  142.6380 N   0  0  0  0  0  2  0  0  0  0  0  0
  191.3280  177.0150  147.2450 C   0  0  0  0  0  0  0  0  0  0  0  0
  191.2920  176.3720  144.9160 C   0  0  0  0  0  3  0  0  0  0  0  0
  187.9170  177.5150  145.9470 O   0  0  0  0  0  1  0  0  0  0  0  0
  192.0360  177.1760  148.4690 N   0  0  0  0  0  1  0  0  0  0  0  0
  191.9900  176.5350  146.1150 C   0  0  0  0  0  3  0  0  0  0  0  0
  189.2640  177.1730  145.9790 C   0  0  0  0  0  0  0  0  0  0  0  0
  189.9260  176.6800  144.8320 C   0  0  0  0  0  0  0  0  0  0  0  0
  189.9700  177.3350  147.1770 C   0  0  0  0  0  3  0  0  0  0  0  0
  1  6  2  0  0  0  0
  1 14  1  0  0  0  0
  2  3  2  0  0  0  0
  2 13  1  0  0  0  0
  3 19  1  0  0  0  0
  4  7  1  0  0  0  0
  4 11  2  0  0  0  0
  5 16  1  0  0  0  0
  5  2  1  0  0  0  0
  6 17  1  0  0  0  0
  7  3  1  0  0  0  0
  8 13  1  0  0  0  0
  8 23  1  1  0  0  0
  9  1  1  0  0  0  0
 11 15  1  0  0  0  0
 12  8  1  0  0  0  0
 13 18  2  0  0  0  0
 14  5  2  0  0  0  0
 15 20  2  0  0  0  0
 16 12  1  0  0  0  0
 17 16  2  0  0  0  0
 18 10  1  0  0  0  0
 19 20  1  0  0  0  0
 19 10  2  0  0  0  0
 21 22  2  0  0  0  0
 22 30  1  0  0  0  0
 23 22  1  0  0  0  0
 24 27  1  0  0  0  0
 25 28  1  0  0  0  0
 26 29  1  0  0  0  0
 28 24  2  0  0  0  0
 29 31  2  0  0  0  0
 30 25  2  0  0  0  0
 30 29  1  0  0  0  0
 31 24  1  0  0  0  0
M  END
>  <MODEL>
8

>  <REMARK>
 VINA RESULT:      -9.2      2.925      7.429
  Name = 
  2 active torsions:
  status: ('A' for Active; 'I' for Inactive)
    1  A    between atoms: C_9  and  C_22
    2  A    between atoms: C_15  and  N_23
                            x       y       z     vdW  Elec       q    Type
                         _______ _______ _______ _____ _____    ______ ____

>  <TORSDO>
F 2

$$$$
=
 OpenBabel10262419353D

 31 35  0  0  1  0  0  0  0  0999 V2000
  185.4790  178.2930  146.1410 C   0  0  0  0  0  0  0  0  0  0  0  0
  185.2320  178.3620  142.3270 C   0  0  0  0  0  0  0  0  0  0  0  0
  183.8460  178.4360  142.0020 C   0  0  0  0  0  0  0  0  0  0  0  0
  181.8970  179.2450  143.2930 C   0  0  0  0  0  3  0  0  0  0  0  0
  185.7450  178.1620  143.7210 C   0  0  0  0  0  0  0  0  0  0  0  0
  186.8010  177.8810  146.3180 C   0  0  0  0  0  3  0  0  0  0  0  0
  182.7980  178.0900  143.0170 C   0  0  0  0  0  2  0  0  0  0  0  0
  187.6680  178.4170  141.5900 C   0  0  2  0  0  3  0  0  0  0  0  0
  184.6590  178.5610  147.2720 N   0  0  0  0  0  1  0  0  0  0  0  0
  184.4120  178.8250  139.6730 C   0  0  0  0  0  3  0  0  0  0  0  0
  181.0800  179.7520  142.3740 C   0  0  0  0  0  3  0  0  0  0  0  0
  187.9570  177.4570  142.7410 C   0  0  0  0  0  2  0  0  0  0  0  0
  186.1860  178.4630  141.2810 C   0  0  0  0  0  0  0  0  0  0  0  0
  184.9600  178.4410  144.8530 C   0  0  0  0  0  3  0  0  0  0  0  0
  181.0190  179.3080  140.9700 C   0  0  0  0  0  3  0  0  0  0  0  0
  187.0880  177.7710  143.9160 C   0  0  0  0  0  0  0  0  0  0  0  0
  187.6040  177.6200  145.2060 C   0  0  0  0  0  3  0  0  0  0  0  0
  185.7630  178.7120  139.9730 C   0  0  0  0  0  3  0  0  0  0  0  0
  183.4480  178.6960  140.6690 C   0  0  0  0  0  0  0  0  0  0  0  0
  182.0410  178.8480  140.2390 C   0  0  0  0  0  3  0  0  0  0  0  0
  190.0910  176.9390  141.6750 O   0  0  0  0  0  0  0  0  0  0  0  0
  189.6530  177.2540  140.5340 C   0  0  0  0  0  0  0  0  0  0  0  0
  188.4440  178.0120  140.4230 N   0  0  0  0  0  2  0  0  0  0  0  0
  191.6600  176.0400  136.9410 C   0  0  0  0  0  0  0  0  0  0  0  0
  189.6390  176.3200  138.2350 C   0  0  0  0  0  3  0  0  0  0  0  0
  192.5530  177.4990  140.2030 O   0  0  0  0  0  1  0  0  0  0  0  0
  192.3110  175.6250  135.7450 N   0  0  0  0  0  1  0  0  0  0  0  0
  190.2750  175.9180  137.0590 C   0  0  0  0  0  3  0  0  0  0  0  0
  191.7760  176.9690  139.1790 C   0  0  0  0  0  0  0  0  0  0  0  0
  190.3750  176.8420  139.3090 C   0  0  0  0  0  0  0  0  0  0  0  0
  192.4080  176.5660  137.9970 C   0  0  0  0  0  3  0  0  0  0  0  0
  1  6  1  0  0  0  0
  1  9  1  0  0  0  0
  2  5  1  0  0  0  0
  3  2  1  0  0  0  0
  3  7  1  0  0  0  0
  5 16  2  0  0  0  0
  5 14  1  0  0  0  0
  7  4  1  0  0  0  0
  8 23  1  6  0  0  0
  8 12  1  0  0  0  0
 10 18  2  0  0  0  0
 10 19  1  0  0  0  0
 11  4  2  0  0  0  0
 12 16  1  0  0  0  0
 13  8  1  0  0  0  0
 13  2  2  0  0  0  0
 14  1  2  0  0  0  0
 15 11  1  0  0  0  0
 16 17  1  0  0  0  0
 17  6  2  0  0  0  0
 18 13  1  0  0  0  0
 19  3  2  0  0  0  0
 20 19  1  0  0  0  0
 20 15  2  0  0  0  0
 22 21  2  0  0  0  0
 23 22  1  0  0  0  0
 24 28  2  0  0  0  0
 24 31  1  0  0  0  0
 25 30  2  0  0  0  0
 27 24  1  0  0  0  0
 28 25  1  0  0  0  0
 29 30  1  0  0  0  0
 29 26  1  0  0  0  0
 30 22  1  0  0  0  0
 31 29  2  0  0  0  0
M  END
>  <MODEL>
9

>  <REMARK>
 VINA RESULT:      -9.0      2.000      3.207
  Name = 
  2 active torsions:
  status: ('A' for Active; 'I' for Inactive)
    1  A    between atoms: C_9  and  C_22
    2  A    between atoms: C_15  and  N_23
                            x       y       z     vdW  Elec       q    Type
                         _______ _______ _______ _____ _____    ______ ____

>  <TORSDO>
F 2

$$$$
