=
 OpenBabel10262421193D

 32 33  0  0  1  0  0  0  0  0999 V2000
  188.7670  177.4710  143.9060 C   0  0  1  0  0  3  0  0  0  0  0  0
  187.3200  177.8000  144.1030 C   0  0  0  0  0  0  0  0  0  0  0  0
  186.8540  178.1140  145.3890 C   0  0  0  0  0  3  0  0  0  0  0  0
  182.9140  178.7200  142.2990 C   0  0  0  0  0  3  0  0  0  0  0  0
  186.4490  177.8840  143.0060 C   0  0  0  0  0  3  0  0  0  0  0  0
  183.3200  178.9630  144.6810 C   0  0  0  0  0  3  0  0  0  0  0  0
  184.6510  178.5760  144.4940 C   0  0  0  0  0  0  0  0  0  0  0  0
  185.5230  178.4980  145.5850 C   0  0  0  0  0  3  0  0  0  0  0  0
  185.1170  178.2600  143.1950 C   0  0  0  0  0  0  0  0  0  0  0  0
  182.4530  179.0340  143.5840 C   0  0  0  0  0  3  0  0  0  0  0  0
  184.2450  178.3340  142.1040 C   0  0  0  0  0  3  0  0  0  0  0  0
  189.2160  177.9770  142.6790 O   0  0  0  0  0  0  0  0  0  0  0  0
  189.7160  176.8730  141.9770 C   0  0  0  0  0  2  0  0  0  0  0  0
  191.0100  177.2230  141.3190 C   0  0  0  0  0  0  0  0  0  0  0  0
  192.0570  177.2910  142.0150 O   0  0  0  0  0  0  0  0  0  0  0  0
  191.0550  177.4170  139.9370 O   0  0  0  0  0  0  0  0  0  0  0  0
  189.9050  177.7830  139.1810 C   0  0  0  0  0  2  0  0  0  0  0  0
  189.9940  177.2700  137.7400 C   0  0  1  0  0  3  0  0  0  0  0  0
  189.4910  175.8670  137.6260 C   0  0  0  0  0  0  0  0  0  0  0  0
  190.3290  174.7910  137.9020 O   0  0  0  0  0  1  0  0  0  0  0  0
  188.2510  175.6480  137.2790 C   0  0  0  0  0  0  0  0  0  0  0  0
  187.0760  175.4330  136.9500 O   0  0  0  0  0  0  0  0  0  0  0  0
  189.2680  178.1800  136.7510 C   0  0  0  0  0  2  0  0  0  0  0  0
  187.3570  179.3070  137.1720 O   0  0  0  0  0  1  0  0  0  0  0  0
  188.6840  179.3200  137.4400 N   0  0  0  0  0  2  0  0  0  0  0  0
  189.5570  178.0460  144.9900 N   0  0  0  0  0  2  0  0  0  0  0  0
  191.6640  177.3830  145.1120 O   0  0  0  0  0  1  0  0  0  0  0  0
  190.4050  177.0420  145.4770 N   0  0  0  0  0  0  0  0  0  0  0  0
  190.3610  177.1240  146.9270 C   0  0  0  0  0  2  0  0  0  0  0  0
  189.1910  176.3150  147.4710 C   0  0  0  0  0  2  0  0  0  0  0  0
  188.8730  178.5470  148.5290 C   0  0  0  0  0  1  0  0  0  0  0  0
  188.2610  177.1790  148.3030 C   0  0  0  0  0  2  0  0  0  0  0  0
  1 12  1  6  0  0  0
  1  2  1  0  0  0  0
  1 26  1  0  0  0  0
  2  3  1  0  0  0  0
  3  8  2  0  0  0  0
  4 10  1  0  0  0  0
  5  9  1  0  0  0  0
  5  2  2  0  0  0  0
  7  6  1  0  0  0  0
  7  8  1  0  0  0  0
  9  7  2  0  0  0  0
 10  6  2  0  0  0  0
 11  4  2  0  0  0  0
 11  9  1  0  0  0  0
 13 12  1  0  0  0  0
 14 13  1  0  0  0  0
 14 15  2  0  0  0  0
 16 14  1  0  0  0  0
 17 16  1  0  0  0  0
 18 23  1  6  0  0  0
 18 17  1  0  0  0  0
 19 18  1  0  0  0  0
 19 20  1  0  0  0  0
 21 19  2  0  0  0  0
 22 21  2  0  0  0  0
 23 25  1  0  0  0  0
 24 25  1  0  0  0  0
 26 28  1  0  0  0  0
 27 28  1  0  0  0  0
 28 29  1  0  0  0  0
 29 30  1  0  0  0  0
 30 32  1  0  0  0  0
 32 31  1  0  0  0  0
M  END
>  <MODEL>
1

>  <REMARK>
 VINA RESULT:      -7.8      0.000      0.000
  Name = 
  15 active torsions:
  status: ('A' for Active; 'I' for Inactive)
    1  A    between atoms: O_1  and  C_4
    2  A    between atoms: O_1  and  C_5
    3  A    between atoms: C_2  and  C_5
    4  A    between atoms: C_3  and  C_20
    5  A    between atoms: C_4  and  C_24
    6  A    between atoms: C_5  and  N_14
    7  A    between atoms: C_13  and  C_18
    8  A    between atoms: C_13  and  C_29
    9  A    between atoms: N_14  and  N_30
   10  A    between atoms: C_15  and  O_16
   11  A    between atoms: C_15  and  C_20
   12  A    between atoms: O_16  and  C_24
   13  A    between atoms: C_18  and  N_30
   14  A    between atoms: N_19  and  C_26
   15  A    between atoms: C_20  and  C_26
                            x       y       z     vdW  Elec       q    Type
                         _______ _______ _______ _____ _____    ______ ____

>  <TORSDO>
F 15

$$$$
=
 OpenBabel10262421193D

 32 33  0  0  1  0  0  0  0  0999 V2000
  188.8780  177.4140  142.1710 C   0  0  1  0  0  3  0  0  0  0  0  0
  187.7360  177.6450  143.1120 C   0  0  0  0  0  0  0  0  0  0  0  0
  187.9480  177.5270  144.4930 C   0  0  0  0  0  3  0  0  0  0  0  0
  183.1680  179.0410  143.9460 C   0  0  0  0  0  3  0  0  0  0  0  0
  186.4860  178.0650  142.6310 C   0  0  0  0  0  3  0  0  0  0  0  0
  184.6310  178.5150  145.8110 C   0  0  0  0  0  3  0  0  0  0  0  0
  185.6670  178.2240  144.9170 C   0  0  0  0  0  0  0  0  0  0  0  0
  186.9160  177.8120  145.3940 C   0  0  0  0  0  3  0  0  0  0  0  0
  185.4500  178.3450  143.5230 C   0  0  0  0  0  0  0  0  0  0  0  0
  183.3830  178.9220  145.3250 C   0  0  0  0  0  3  0  0  0  0  0  0
  184.2000  178.7540  143.0460 C   0  0  0  0  0  3  0  0  0  0  0  0
  188.7580  178.2460  141.0500 O   0  0  0  0  0  0  0  0  0  0  0  0
  188.8920  177.4020  139.9390 C   0  0  0  0  0  2  0  0  0  0  0  0
  188.6220  178.1590  138.6820 C   0  0  0  0  0  0  0  0  0  0  0  0
  189.5640  178.3710  137.8740 O   0  0  0  0  0  0  0  0  0  0  0  0
  187.3210  178.5760  138.3900 O   0  0  0  0  0  0  0  0  0  0  0  0
  186.4210  177.7840  137.6230 C   0  0  0  0  0  2  0  0  0  0  0  0
  184.9630  178.0530  138.0130 C   0  0  1  0  0  3  0  0  0  0  0  0
  184.1430  176.8040  137.9630 C   0  0  0  0  0  0  0  0  0  0  0  0
  183.0390  176.6510  138.7950 O   0  0  0  0  0  1  0  0  0  0  0  0
  184.4560  175.8560  137.1220 C   0  0  0  0  0  0  0  0  0  0  0  0
  184.7470  174.9510  136.3260 O   0  0  0  0  0  0  0  0  0  0  0  0
  184.8400  178.7190  139.3810 C   0  0  0  0  0  2  0  0  0  0  0  0
  183.1010  180.0440  138.8130 O   0  0  0  0  0  1  0  0  0  0  0  0
  184.3850  180.0940  139.2420 N   0  0  0  0  0  2  0  0  0  0  0  0
  190.1410  177.6870  142.8500 N   0  0  0  0  0  2  0  0  0  0  0  0
  192.1120  177.2330  141.9560 O   0  0  0  0  0  1  0  0  0  0  0  0
  191.0290  176.6530  142.5260 N   0  0  0  0  0  0  0  0  0  0  0  0
  191.4830  176.0820  143.7820 C   0  0  0  0  0  2  0  0  0  0  0  0
  191.4820  177.1410  144.8780 C   0  0  0  0  0  2  0  0  0  0  0  0
  190.4940  176.8400  147.1450 C   0  0  0  0  0  1  0  0  0  0  0  0
  191.6730  176.5180  146.2480 C   0  0  0  0  0  2  0  0  0  0  0  0
  1 12  1  6  0  0  0
  1 26  1  0  0  0  0
  1  2  1  0  0  0  0
  2  3  1  0  0  0  0
  3  8  2  0  0  0  0
  4 10  1  0  0  0  0
  5  2  2  0  0  0  0
  5  9  1  0  0  0  0
  7  8  1  0  0  0  0
  7  6  1  0  0  0  0
  9  7  2  0  0  0  0
 10  6  2  0  0  0  0
 11  9  1  0  0  0  0
 11  4  2  0  0  0  0
 13 12  1  0  0  0  0
 14 13  1  0  0  0  0
 15 14  2  0  0  0  0
 16 14  1  0  0  0  0
 17 16  1  0  0  0  0
 18 17  1  1  0  0  0
 18 23  1  0  0  0  0
 19 18  1  0  0  0  0
 19 20  1  0  0  0  0
 21 19  2  0  0  0  0
 22 21  2  0  0  0  0
 24 25  1  0  0  0  0
 25 23  1  0  0  0  0
 27 28  1  0  0  0  0
 28 26  1  0  0  0  0
 28 29  1  0  0  0  0
 29 30  1  0  0  0  0
 30 32  1  0  0  0  0
 32 31  1  0  0  0  0
M  END
>  <MODEL>
2

>  <REMARK>
 VINA RESULT:      -7.7      2.426      3.434
  Name = 
  15 active torsions:
  status: ('A' for Active; 'I' for Inactive)
    1  A    between atoms: O_1  and  C_4
    2  A    between atoms: O_1  and  C_5
    3  A    between atoms: C_2  and  C_5
    4  A    between atoms: C_3  and  C_20
    5  A    between atoms: C_4  and  C_24
    6  A    between atoms: C_5  and  N_14
    7  A    between atoms: C_13  and  C_18
    8  A    between atoms: C_13  and  C_29
    9  A    between atoms: N_14  and  N_30
   10  A    between atoms: C_15  and  O_16
   11  A    between atoms: C_15  and  C_20
   12  A    between atoms: O_16  and  C_24
   13  A    between atoms: C_18  and  N_30
   14  A    between atoms: N_19  and  C_26
   15  A    between atoms: C_20  and  C_26
                            x       y       z     vdW  Elec       q    Type
                         _______ _______ _______ _____ _____    ______ ____

>  <TORSDO>
F 15

$$$$
=
 OpenBabel10262421193D

 32 33  0  0  1  0  0  0  0  0999 V2000
  188.8730  177.0430  141.9560 C   0  0  1  0  0  3  0  0  0  0  0  0
  187.7870  177.3750  142.9320 C   0  0  0  0  0  0  0  0  0  0  0  0
  188.0510  177.2970  144.3080 C   0  0  0  0  0  3  0  0  0  0  0  0
  183.3430  179.0590  143.8960 C   0  0  0  0  0  3  0  0  0  0  0  0
  186.5430  177.8470  142.4860 C   0  0  0  0  0  3  0  0  0  0  0  0
  184.8540  178.5220  145.7190 C   0  0  0  0  0  3  0  0  0  0  0  0
  185.8330  178.1390  144.7960 C   0  0  0  0  0  0  0  0  0  0  0  0
  187.0770  177.6750  145.2380 C   0  0  0  0  0  3  0  0  0  0  0  0
  185.5630  178.2190  143.4090 C   0  0  0  0  0  0  0  0  0  0  0  0
  183.6110  178.9800  145.2690 C   0  0  0  0  0  3  0  0  0  0  0  0
  184.3180  178.6790  142.9670 C   0  0  0  0  0  3  0  0  0  0  0  0
  188.4200  177.2390  140.6440 O   0  0  0  0  0  0  0  0  0  0  0  0
  189.2100  178.2740  140.1240 C   0  0  0  0  0  2  0  0  0  0  0  0
  189.1780  178.2460  138.6320 C   0  0  0  0  0  0  0  0  0  0  0  0
  189.9530  177.4700  138.0130 O   0  0  0  0  0  0  0  0  0  0  0  0
  188.2570  179.0390  137.9430 O   0  0  0  0  0  0  0  0  0  0  0  0
  187.3680  178.5010  136.9700 C   0  0  0  0  0  2  0  0  0  0  0  0
  186.5090  177.3750  137.5570 C   0  0  1  0  0  3  0  0  0  0  0  0
  185.1410  177.8580  137.9140 C   0  0  0  0  0  0  0  0  0  0  0  0
  184.0170  177.3210  137.2930 O   0  0  0  0  0  1  0  0  0  0  0  0
  184.9960  178.7800  138.8270 C   0  0  0  0  0  0  0  0  0  0  0  0
  184.8510  179.6560  139.6920 O   0  0  0  0  0  0  0  0  0  0  0  0
  186.4230  176.1650  136.6290 C   0  0  0  0  0  2  0  0  0  0  0  0
  186.2320  174.0630  137.4350 O   0  0  0  0  0  1  0  0  0  0  0  0
  187.1450  175.0350  137.1940 N   0  0  0  0  0  2  0  0  0  0  0  0
  190.0360  177.8900  142.2030 N   0  0  0  0  0  2  0  0  0  0  0  0
  192.0950  177.3270  141.6260 O   0  0  0  0  0  1  0  0  0  0  0  0
  191.1130  177.0500  142.5160 N   0  0  0  0  0  0  0  0  0  0  0  0
  191.6070  177.4720  143.8150 C   0  0  0  0  0  2  0  0  0  0  0  0
  191.6360  176.2940  144.7810 C   0  0  0  0  0  2  0  0  0  0  0  0
  192.1020  175.7530  147.1670 C   0  0  0  0  0  1  0  0  0  0  0  0
  191.4740  176.7540  146.2180 C   0  0  0  0  0  2  0  0  0  0  0  0
  1 12  1  6  0  0  0
  1 26  1  0  0  0  0
  1  2  1  0  0  0  0
  2  3  1  0  0  0  0
  3  8  2  0  0  0  0
  4 10  1  0  0  0  0
  5  2  2  0  0  0  0
  5  9  1  0  0  0  0
  7  8  1  0  0  0  0
  7  6  1  0  0  0  0
  9  7  2  0  0  0  0
 10  6  2  0  0  0  0
 11  9  1  0  0  0  0
 11  4  2  0  0  0  0
 13 12  1  0  0  0  0
 14 13  1  0  0  0  0
 15 14  2  0  0  0  0
 16 14  1  0  0  0  0
 17 18  1  0  0  0  0
 17 16  1  0  0  0  0
 18 23  1  6  0  0  0
 18 19  1  0  0  0  0
 19 21  2  0  0  0  0
 20 19  1  0  0  0  0
 21 22  2  0  0  0  0
 23 25  1  0  0  0  0
 25 24  1  0  0  0  0
 26 28  1  0  0  0  0
 27 28  1  0  0  0  0
 28 29  1  0  0  0  0
 29 30  1  0  0  0  0
 30 32  1  0  0  0  0
 32 31  1  0  0  0  0
M  END
>  <MODEL>
3

>  <REMARK>
 VINA RESULT:      -7.6      2.160      3.451
  Name = 
  15 active torsions:
  status: ('A' for Active; 'I' for Inactive)
    1  A    between atoms: O_1  and  C_4
    2  A    between atoms: O_1  and  C_5
    3  A    between atoms: C_2  and  C_5
    4  A    between atoms: C_3  and  C_20
    5  A    between atoms: C_4  and  C_24
    6  A    between atoms: C_5  and  N_14
    7  A    between atoms: C_13  and  C_18
    8  A    between atoms: C_13  and  C_29
    9  A    between atoms: N_14  and  N_30
   10  A    between atoms: C_15  and  O_16
   11  A    between atoms: C_15  and  C_20
   12  A    between atoms: O_16  and  C_24
   13  A    between atoms: C_18  and  N_30
   14  A    between atoms: N_19  and  C_26
   15  A    between atoms: C_20  and  C_26
                            x       y       z     vdW  Elec       q    Type
                         _______ _______ _______ _____ _____    ______ ____

>  <TORSDO>
F 15

$$$$
=
 OpenBabel10262421193D

 32 33  0  0  1  0  0  0  0  0999 V2000
  189.0500  177.5110  143.6580 C   0  0  1  0  0  3  0  0  0  0  0  0
  187.6150  177.8000  143.9740 C   0  0  0  0  0  0  0  0  0  0  0  0
  187.2340  178.0120  145.3080 C   0  0  0  0  0  3  0  0  0  0  0  0
  183.0870  178.7720  142.5380 C   0  0  0  0  0  3  0  0  0  0  0  0
  186.6720  177.9480  142.9460 C   0  0  0  0  0  3  0  0  0  0  0  0
  183.6490  178.8480  144.8990 C   0  0  0  0  0  3  0  0  0  0  0  0
  184.9700  178.4990  144.5970 C   0  0  0  0  0  0  0  0  0  0  0  0
  185.9140  178.3580  145.6190 C   0  0  0  0  0  3  0  0  0  0  0  0
  185.3510  178.2860  143.2500 C   0  0  0  0  0  0  0  0  0  0  0  0
  182.7090  178.9830  143.8710 C   0  0  0  0  0  3  0  0  0  0  0  0
  184.4060  178.4240  142.2280 C   0  0  0  0  0  3  0  0  0  0  0  0
  189.4420  178.2080  142.5080 O   0  0  0  0  0  0  0  0  0  0  0  0
  190.3160  177.3500  141.8270 C   0  0  0  0  0  2  0  0  0  0  0  0
  189.9570  177.2910  140.3800 C   0  0  0  0  0  0  0  0  0  0  0  0
  190.8650  177.4040  139.5140 O   0  0  0  0  0  0  0  0  0  0  0  0
  188.6330  177.0570  140.0020 O   0  0  0  0  0  0  0  0  0  0  0  0
  187.8340  178.0520  139.3720 C   0  0  0  0  0  2  0  0  0  0  0  0
  187.6370  177.7530  137.8810 C   0  0  1  0  0  3  0  0  0  0  0  0
  188.6030  178.5190  137.0360 C   0  0  0  0  0  0  0  0  0  0  0  0
  189.0000  179.8010  137.4040 O   0  0  0  0  0  1  0  0  0  0  0  0
  189.0890  177.9780  135.9520 C   0  0  0  0  0  0  0  0  0  0  0  0
  189.5540  177.4690  134.9220 O   0  0  0  0  0  0  0  0  0  0  0  0
  187.7230  176.2600  137.5700 C   0  0  0  0  0  2  0  0  0  0  0  0
  186.4300  174.4310  137.2820 O   0  0  0  0  0  1  0  0  0  0  0  0
  186.4500  175.7690  137.0680 N   0  0  0  0  0  2  0  0  0  0  0  0
  189.8940  177.9090  144.7810 N   0  0  0  0  0  2  0  0  0  0  0  0
  191.7830  176.7760  144.5830 O   0  0  0  0  0  1  0  0  0  0  0  0
  190.5850  176.7700  145.2160 N   0  0  0  0  0  0  0  0  0  0  0  0
  190.8670  176.9660  146.6280 C   0  0  0  0  0  2  0  0  0  0  0  0
  189.5920  176.8250  147.4490 C   0  0  0  0  0  2  0  0  0  0  0  0
  187.9490  178.0530  148.8620 C   0  0  0  0  0  1  0  0  0  0  0  0
  189.3710  178.0350  148.3380 C   0  0  0  0  0  2  0  0  0  0  0  0
  1 12  1  6  0  0  0
  1  2  1  0  0  0  0
  1 26  1  0  0  0  0
  2  3  1  0  0  0  0
  3  8  2  0  0  0  0
  4 10  1  0  0  0  0
  5  9  1  0  0  0  0
  5  2  2  0  0  0  0
  7  6  1  0  0  0  0
  7  8  1  0  0  0  0
  9  7  2  0  0  0  0
 10  6  2  0  0  0  0
 11  4  2  0  0  0  0
 11  9  1  0  0  0  0
 13 12  1  0  0  0  0
 14 13  1  0  0  0  0
 15 14  2  0  0  0  0
 16 14  1  0  0  0  0
 17 16  1  0  0  0  0
 18 23  1  1  0  0  0
 18 17  1  0  0  0  0
 19 20  1  0  0  0  0
 19 18  1  0  0  0  0
 21 19  2  0  0  0  0
 22 21  2  0  0  0  0
 25 24  1  0  0  0  0
 25 23  1  0  0  0  0
 26 28  1  0  0  0  0
 27 28  1  0  0  0  0
 28 29  1  0  0  0  0
 29 30  1  0  0  0  0
 30 32  1  0  0  0  0
 32 31  1  0  0  0  0
M  END
>  <MODEL>
4

>  <REMARK>
 VINA RESULT:      -7.6      1.365      2.089
  Name = 
  15 active torsions:
  status: ('A' for Active; 'I' for Inactive)
    1  A    between atoms: O_1  and  C_4
    2  A    between atoms: O_1  and  C_5
    3  A    between atoms: C_2  and  C_5
    4  A    between atoms: C_3  and  C_20
    5  A    between atoms: C_4  and  C_24
    6  A    between atoms: C_5  and  N_14
    7  A    between atoms: C_13  and  C_18
    8  A    between atoms: C_13  and  C_29
    9  A    between atoms: N_14  and  N_30
   10  A    between atoms: C_15  and  O_16
   11  A    between atoms: C_15  and  C_20
   12  A    between atoms: O_16  and  C_24
   13  A    between atoms: C_18  and  N_30
   14  A    between atoms: N_19  and  C_26
   15  A    between atoms: C_20  and  C_26
                            x       y       z     vdW  Elec       q    Type
                         _______ _______ _______ _____ _____    ______ ____

>  <TORSDO>
F 15

$$$$
=
 OpenBabel10262421193D

 32 33  0  0  1  0  0  0  0  0999 V2000
  188.9080  177.4670  143.0010 C   0  0  1  0  0  3  0  0  0  0  0  0
  187.5530  177.7560  143.5690 C   0  0  0  0  0  0  0  0  0  0  0  0
  187.4070  177.9110  144.9560 C   0  0  0  0  0  3  0  0  0  0  0  0
  182.8640  178.8370  142.9690 C   0  0  0  0  0  3  0  0  0  0  0  0
  186.4510  177.9600  142.7240 C   0  0  0  0  0  3  0  0  0  0  0  0
  183.8210  178.8010  145.2010 C   0  0  0  0  0  3  0  0  0  0  0  0
  185.0650  178.4530  144.6630 C   0  0  0  0  0  0  0  0  0  0  0  0
  186.1660  178.2560  145.5020 C   0  0  0  0  0  3  0  0  0  0  0  0
  185.2080  178.2970  143.2640 C   0  0  0  0  0  0  0  0  0  0  0  0
  182.7230  178.9920  144.3550 C   0  0  0  0  0  3  0  0  0  0  0  0
  184.1050  178.4900  142.4240 C   0  0  0  0  0  3  0  0  0  0  0  0
  189.0750  178.1400  141.7830 O   0  0  0  0  0  0  0  0  0  0  0  0
  189.4160  177.1500  140.8510 C   0  0  0  0  0  2  0  0  0  0  0  0
  189.1890  177.6500  139.4630 C   0  0  0  0  0  0  0  0  0  0  0  0
  188.9010  178.8630  139.2830 O   0  0  0  0  0  0  0  0  0  0  0  0
  189.3500  176.7840  138.3780 O   0  0  0  0  0  0  0  0  0  0  0  0
  190.4940  176.8280  137.5330 C   0  0  0  0  0  2  0  0  0  0  0  0
  191.6410  175.9810  138.0960 C   0  0  1  0  0  3  0  0  0  0  0  0
  191.6150  174.5900  137.5500 C   0  0  0  0  0  0  0  0  0  0  0  0
  190.4360  173.8510  137.5540 O   0  0  0  0  0  1  0  0  0  0  0  0
  192.7030  174.0690  137.0500 C   0  0  0  0  0  0  0  0  0  0  0  0
  193.7320  173.5680  136.5740 O   0  0  0  0  0  0  0  0  0  0  0  0
  193.0070  176.6210  137.8640 C   0  0  0  0  0  2  0  0  0  0  0  0
  192.9440  177.3880  139.9870 O   0  0  0  0  0  1  0  0  0  0  0  0
  193.7420  176.7280  139.1150 N   0  0  0  0  0  2  0  0  0  0  0  0
  189.9400  177.8940  143.9410 N   0  0  0  0  0  2  0  0  0  0  0  0
  190.9870  175.9680  143.6500 O   0  0  0  0  0  1  0  0  0  0  0  0
  190.4170  176.7510  144.5960 N   0  0  0  0  0  0  0  0  0  0  0  0
  191.4930  177.1880  145.4690 C   0  0  0  0  0  2  0  0  0  0  0  0
  191.2450  176.7170  146.8960 C   0  0  0  0  0  2  0  0  0  0  0  0
  189.3670  177.8150  148.1100 C   0  0  0  0  0  1  0  0  0  0  0  0
  189.7610  176.6610  147.2090 C   0  0  0  0  0  2  0  0  0  0  0  0
  1 12  1  6  0  0  0
  1  2  1  0  0  0  0
  1 26  1  0  0  0  0
  2  3  1  0  0  0  0
  3  8  2  0  0  0  0
  4 10  1  0  0  0  0
  5  9  1  0  0  0  0
  5  2  2  0  0  0  0
  7  6  1  0  0  0  0
  7  8  1  0  0  0  0
  9  7  2  0  0  0  0
 10  6  2  0  0  0  0
 11  4  2  0  0  0  0
 11  9  1  0  0  0  0
 13 12  1  0  0  0  0
 14 13  1  0  0  0  0
 15 14  2  0  0  0  0
 16 14  1  0  0  0  0
 17 16  1  0  0  0  0
 18 17  1  6  0  0  0
 19 20  1  0  0  0  0
 19 18  1  0  0  0  0
 21 19  2  0  0  0  0
 22 21  2  0  0  0  0
 23 18  1  0  0  0  0
 23 25  1  0  0  0  0
 25 24  1  0  0  0  0
 26 28  1  0  0  0  0
 27 28  1  0  0  0  0
 28 29  1  0  0  0  0
 29 30  1  0  0  0  0
 30 32  1  0  0  0  0
 32 31  1  0  0  0  0
M  END
>  <MODEL>
5

>  <REMARK>
 VINA RESULT:      -7.5      1.943      2.740
  Name = 
  15 active torsions:
  status: ('A' for Active; 'I' for Inactive)
    1  A    between atoms: O_1  and  C_4
    2  A    between atoms: O_1  and  C_5
    3  A    between atoms: C_2  and  C_5
    4  A    between atoms: C_3  and  C_20
    5  A    between atoms: C_4  and  C_24
    6  A    between atoms: C_5  and  N_14
    7  A    between atoms: C_13  and  C_18
    8  A    between atoms: C_13  and  C_29
    9  A    between atoms: N_14  and  N_30
   10  A    between atoms: C_15  and  O_16
   11  A    between atoms: C_15  and  C_20
   12  A    between atoms: O_16  and  C_24
   13  A    between atoms: C_18  and  N_30
   14  A    between atoms: N_19  and  C_26
   15  A    between atoms: C_20  and  C_26
                            x       y       z     vdW  Elec       q    Type
                         _______ _______ _______ _____ _____    ______ ____

>  <TORSDO>
F 15

$$$$
=
 OpenBabel10262421193D

 32 33  0  0  1  0  0  0  0  0999 V2000
  188.0870  178.3850  141.5390 C   0  0  1  0  0  3  0  0  0  0  0  0
  188.8840  177.9480  142.7290 C   0  0  0  0  0  0  0  0  0  0  0  0
  190.2680  177.7640  142.5990 C   0  0  0  0  0  3  0  0  0  0  0  0
  189.2130  176.9870  147.4710 C   0  0  0  0  0  3  0  0  0  0  0  0
  188.2760  177.8100  143.9860 C   0  0  0  0  0  3  0  0  0  0  0  0
  191.2090  176.9520  146.0880 C   0  0  0  0  0  3  0  0  0  0  0  0
  190.4400  177.2830  144.9670 C   0  0  0  0  0  0  0  0  0  0  0  0
  191.0450  177.4290  143.7140 C   0  0  0  0  0  3  0  0  0  0  0  0
  189.0430  177.4690  145.1020 C   0  0  0  0  0  0  0  0  0  0  0  0
  190.5960  176.8040  147.3370 C   0  0  0  0  0  3  0  0  0  0  0  0
  188.4380  177.3200  146.3540 C   0  0  0  0  0  3  0  0  0  0  0  0
  188.4270  177.6140  140.4190 O   0  0  0  0  0  0  0  0  0  0  0  0
  188.6660  178.5330  139.3880 C   0  0  0  0  0  2  0  0  0  0  0  0
  187.9360  178.1230  138.1530 C   0  0  0  0  0  0  0  0  0  0  0  0
  186.8330  178.6670  137.8800 O   0  0  0  0  0  0  0  0  0  0  0  0
  188.5050  177.1850  137.2890 O   0  0  0  0  0  0  0  0  0  0  0  0
  189.8060  177.3490  136.7370 C   0  0  0  0  0  2  0  0  0  0  0  0
  190.6890  176.1250  137.0060 C   0  0  1  0  0  3  0  0  0  0  0  0
  191.8350  176.4620  137.9040 C   0  0  0  0  0  0  0  0  0  0  0  0
  191.6190  176.7560  139.2470 O   0  0  0  0  0  1  0  0  0  0  0  0
  193.0520  176.4660  137.4290 C   0  0  0  0  0  0  0  0  0  0  0  0
  194.2090  176.4730  136.9850 O   0  0  0  0  0  0  0  0  0  0  0  0
  189.8960  174.9480  137.5710 C   0  0  0  0  0  2  0  0  0  0  0  0
  190.8900  173.8050  135.8950 O   0  0  0  0  0  1  0  0  0  0  0  0
  190.5140  173.6870  137.1910 N   0  0  0  0  0  2  0  0  0  0  0  0
  186.6610  178.2410  141.8180 N   0  0  0  0  0  2  0  0  0  0  0  0
  185.1970  179.4140  140.6480 O   0  0  0  0  0  1  0  0  0  0  0  0
  186.0720  179.5040  141.6780 N   0  0  0  0  0  0  0  0  0  0  0  0
  185.2750  179.7280  142.8720 C   0  0  0  0  0  2  0  0  0  0  0  0
  184.3960  178.5170  143.1600 C   0  0  0  0  0  2  0  0  0  0  0  0
  184.9330  178.8980  145.5620 C   0  0  0  0  0  1  0  0  0  0  0  0
  183.8370  178.5630  144.5700 C   0  0  0  0  0  2  0  0  0  0  0  0
  1 12  1  6  0  0  0
  1 26  1  0  0  0  0
  1  2  1  0  0  0  0
  2  5  1  0  0  0  0
  3  2  2  0  0  0  0
  3  8  1  0  0  0  0
  5  9  2  0  0  0  0
  6 10  2  0  0  0  0
  7  9  1  0  0  0  0
  7  6  1  0  0  0  0
  8  7  2  0  0  0  0
  9 11  1  0  0  0  0
 10  4  1  0  0  0  0
 11  4  2  0  0  0  0
 13 12  1  0  0  0  0
 14 13  1  0  0  0  0
 15 14  2  0  0  0  0
 16 14  1  0  0  0  0
 17 16  1  0  0  0  0
 18 17  1  1  0  0  0
 18 23  1  0  0  0  0
 18 19  1  0  0  0  0
 19 20  1  0  0  0  0
 21 19  2  0  0  0  0
 22 21  2  0  0  0  0
 24 25  1  0  0  0  0
 25 23  1  0  0  0  0
 27 28  1  0  0  0  0
 28 26  1  0  0  0  0
 28 29  1  0  0  0  0
 29 30  1  0  0  0  0
 30 32  1  0  0  0  0
 32 31  1  0  0  0  0
M  END
>  <MODEL>
6

>  <REMARK>
 VINA RESULT:      -7.4      2.402      5.446
  Name = 
  15 active torsions:
  status: ('A' for Active; 'I' for Inactive)
    1  A    between atoms: O_1  and  C_4
    2  A    between atoms: O_1  and  C_5
    3  A    between atoms: C_2  and  C_5
    4  A    between atoms: C_3  and  C_20
    5  A    between atoms: C_4  and  C_24
    6  A    between atoms: C_5  and  N_14
    7  A    between atoms: C_13  and  C_18
    8  A    between atoms: C_13  and  C_29
    9  A    between atoms: N_14  and  N_30
   10  A    between atoms: C_15  and  O_16
   11  A    between atoms: C_15  and  C_20
   12  A    between atoms: O_16  and  C_24
   13  A    between atoms: C_18  and  N_30
   14  A    between atoms: N_19  and  C_26
   15  A    between atoms: C_20  and  C_26
                            x       y       z     vdW  Elec       q    Type
                         _______ _______ _______ _____ _____    ______ ____

>  <TORSDO>
F 15

$$$$
=
 OpenBabel10262421193D

 32 33  0  0  1  0  0  0  0  0999 V2000
  189.4440  177.6740  143.7810 C   0  0  1  0  0  3  0  0  0  0  0  0
  188.0060  177.9940  143.5150 C   0  0  0  0  0  0  0  0  0  0  0  0
  187.5390  178.0110  142.1920 C   0  0  0  0  0  3  0  0  0  0  0  0
  183.5020  178.8380  145.1020 C   0  0  0  0  0  3  0  0  0  0  0  0
  187.1070  178.1860  144.5750 C   0  0  0  0  0  3  0  0  0  0  0  0
  183.9300  178.6510  142.7180 C   0  0  0  0  0  3  0  0  0  0  0  0
  185.2870  178.4320  142.9780 C   0  0  0  0  0  0  0  0  0  0  0  0
  186.1840  178.2320  141.9240 C   0  0  0  0  0  3  0  0  0  0  0  0
  185.7540  178.4150  144.3140 C   0  0  0  0  0  0  0  0  0  0  0  0
  183.0400  178.8540  143.7790 C   0  0  0  0  0  3  0  0  0  0  0  0
  184.8580  178.6180  145.3690 C   0  0  0  0  0  3  0  0  0  0  0  0
  190.2680  178.3600  142.8790 O   0  0  0  0  0  0  0  0  0  0  0  0
  191.3260  177.4860  142.5950 C   0  0  0  0  0  2  0  0  0  0  0  0
  191.4730  177.3170  141.1200 C   0  0  0  0  0  0  0  0  0  0  0  0
  192.6060  177.4730  140.5910 O   0  0  0  0  0  0  0  0  0  0  0  0
  190.3710  176.9370  140.3510 O   0  0  0  0  0  0  0  0  0  0  0  0
  190.0480  177.5680  139.1170 C   0  0  0  0  0  2  0  0  0  0  0  0
  188.6720  177.1300  138.6040 C   0  0  1  0  0  3  0  0  0  0  0  0
  187.9230  178.2730  137.9990 C   0  0  0  0  0  0  0  0  0  0  0  0
  188.6070  179.3490  137.4420 O   0  0  0  0  0  1  0  0  0  0  0  0
  186.6180  178.2550  137.9770 C   0  0  0  0  0  0  0  0  0  0  0  0
  185.3790  178.2450  137.9540 O   0  0  0  0  0  0  0  0  0  0  0  0
  188.7610  175.9670  137.6190 C   0  0  0  0  0  2  0  0  0  0  0  0
  190.5340  174.5940  137.8900 O   0  0  0  0  0  1  0  0  0  0  0  0
  190.1440  175.7190  137.2440 N   0  0  0  0  0  2  0  0  0  0  0  0
  189.7920  178.0560  145.1470 N   0  0  0  0  0  2  0  0  0  0  0  0
  191.5120  177.1820  146.2280 O   0  0  0  0  0  1  0  0  0  0  0  0
  190.2560  176.9080  145.8030 N   0  0  0  0  0  0  0  0  0  0  0  0
  189.4440  176.7530  146.9980 C   0  0  0  0  0  2  0  0  0  0  0  0
  189.8300  177.7940  148.0420 C   0  0  0  0  0  2  0  0  0  0  0  0
  187.3460  177.9750  148.0510 C   0  0  0  0  0  1  0  0  0  0  0  0
  188.6180  178.2720  148.8200 C   0  0  0  0  0  2  0  0  0  0  0  0
  1 12  1  6  0  0  0
  1 26  1  0  0  0  0
  2  1  1  0  0  0  0
  2  5  1  0  0  0  0
  3  2  2  0  0  0  0
  4 11  2  0  0  0  0
  6  7  1  0  0  0  0
  6 10  2  0  0  0  0
  7  9  1  0  0  0  0
  8  3  1  0  0  0  0
  8  7  2  0  0  0  0
  9  5  2  0  0  0  0
  9 11  1  0  0  0  0
 10  4  1  0  0  0  0
 13 12  1  0  0  0  0
 14 13  1  0  0  0  0
 15 14  2  0  0  0  0
 16 14  1  0  0  0  0
 17 16  1  0  0  0  0
 18 23  1  6  0  0  0
 18 17  1  0  0  0  0
 19 18  1  0  0  0  0
 20 19  1  0  0  0  0
 21 19  2  0  0  0  0
 22 21  2  0  0  0  0
 25 23  1  0  0  0  0
 25 24  1  0  0  0  0
 26 28  1  0  0  0  0
 28 27  1  0  0  0  0
 28 29  1  0  0  0  0
 29 30  1  0  0  0  0
 30 32  1  0  0  0  0
 31 32  1  0  0  0  0
M  END
>  <MODEL>
7

>  <REMARK>
 VINA RESULT:      -7.4      1.340      2.411
  Name = 
  15 active torsions:
  status: ('A' for Active; 'I' for Inactive)
    1  A    between atoms: O_1  and  C_4
    2  A    between atoms: O_1  and  C_5
    3  A    between atoms: C_2  and  C_5
    4  A    between atoms: C_3  and  C_20
    5  A    between atoms: C_4  and  C_24
    6  A    between atoms: C_5  and  N_14
    7  A    between atoms: C_13  and  C_18
    8  A    between atoms: C_13  and  C_29
    9  A    between atoms: N_14  and  N_30
   10  A    between atoms: C_15  and  O_16
   11  A    between atoms: C_15  and  C_20
   12  A    between atoms: O_16  and  C_24
   13  A    between atoms: C_18  and  N_30
   14  A    between atoms: N_19  and  C_26
   15  A    between atoms: C_20  and  C_26
                            x       y       z     vdW  Elec       q    Type
                         _______ _______ _______ _____ _____    ______ ____

>  <TORSDO>
F 15

$$$$
=
 OpenBabel10262421193D

 32 33  0  0  1  0  0  0  0  0999 V2000
  187.9180  178.2230  141.7730 C   0  0  1  0  0  3  0  0  0  0  0  0
  188.8030  177.8110  142.9080 C   0  0  0  0  0  0  0  0  0  0  0  0
  190.1650  177.5750  142.6690 C   0  0  0  0  0  3  0  0  0  0  0  0
  189.5170  177.0430  147.6430 C   0  0  0  0  0  3  0  0  0  0  0  0
  188.3030  177.7460  144.2180 C   0  0  0  0  0  3  0  0  0  0  0  0
  191.3830  176.8830  146.0960 C   0  0  0  0  0  3  0  0  0  0  0  0
  190.5290  177.1910  145.0320 C   0  0  0  0  0  0  0  0  0  0  0  0
  191.0250  177.2630  143.7270 C   0  0  0  0  0  3  0  0  0  0  0  0
  189.1550  177.4280  145.2780 C   0  0  0  0  0  0  0  0  0  0  0  0
  190.8770  176.8080  147.3990 C   0  0  0  0  0  3  0  0  0  0  0  0
  188.6570  177.3530  146.5830 C   0  0  0  0  0  3  0  0  0  0  0  0
  188.2390  177.4930  140.6200 O   0  0  0  0  0  0  0  0  0  0  0  0
  188.6780  178.4400  139.6850 C   0  0  0  0  0  2  0  0  0  0  0  0
  189.7170  177.8430  138.7960 C   0  0  0  0  0  0  0  0  0  0  0  0
  190.7340  177.3060  139.3090 O   0  0  0  0  0  0  0  0  0  0  0  0
  189.5260  177.8380  137.4120 O   0  0  0  0  0  0  0  0  0  0  0  0
  188.4080  177.2040  136.8000 C   0  0  0  0  0  2  0  0  0  0  0  0
  188.3880  175.6980  137.0910 C   0  0  1  0  0  3  0  0  0  0  0  0
  187.1390  175.0580  136.5780 C   0  0  0  0  0  0  0  0  0  0  0  0
  186.5330  175.5220  135.4140 O   0  0  0  0  0  1  0  0  0  0  0  0
  186.6190  174.0450  137.2180 C   0  0  0  0  0  0  0  0  0  0  0  0
  186.1200  173.0840  137.8210 O   0  0  0  0  0  0  0  0  0  0  0  0
  189.6200  174.9830  136.5410 C   0  0  0  0  0  2  0  0  0  0  0  0
  191.3710  174.4610  137.8690 O   0  0  0  0  0  1  0  0  0  0  0  0
  190.1360  174.0320  137.5140 N   0  0  0  0  0  2  0  0  0  0  0  0
  186.5210  177.9900  142.1250 N   0  0  0  0  0  2  0  0  0  0  0  0
  185.5810  179.4530  140.7580 O   0  0  0  0  0  1  0  0  0  0  0  0
  185.8570  179.2230  142.0630 N   0  0  0  0  0  0  0  0  0  0  0  0
  184.5780  179.0420  142.7270 C   0  0  0  0  0  2  0  0  0  0  0  0
  184.5600  179.7830  144.0580 C   0  0  0  0  0  2  0  0  0  0  0  0
  185.0880  178.4910  146.1210 C   0  0  0  0  0  1  0  0  0  0  0  0
  183.9910  178.9150  145.1650 C   0  0  0  0  0  2  0  0  0  0  0  0
  1 12  1  6  0  0  0
  1 26  1  0  0  0  0
  1  2  1  0  0  0  0
  2  5  1  0  0  0  0
  3  2  2  0  0  0  0
  3  8  1  0  0  0  0
  5  9  2  0  0  0  0
  6 10  2  0  0  0  0
  7  9  1  0  0  0  0
  7  6  1  0  0  0  0
  8  7  2  0  0  0  0
  9 11  1  0  0  0  0
 10  4  1  0  0  0  0
 11  4  2  0  0  0  0
 13 12  1  0  0  0  0
 14 15  2  0  0  0  0
 14 13  1  0  0  0  0
 16 14  1  0  0  0  0
 17 18  1  0  0  0  0
 17 16  1  0  0  0  0
 18 23  1  6  0  0  0
 19 18  1  0  0  0  0
 19 21  2  0  0  0  0
 20 19  1  0  0  0  0
 21 22  2  0  0  0  0
 23 25  1  0  0  0  0
 25 24  1  0  0  0  0
 27 28  1  0  0  0  0
 28 26  1  0  0  0  0
 28 29  1  0  0  0  0
 29 30  1  0  0  0  0
 30 32  1  0  0  0  0
 32 31  1  0  0  0  0
M  END
>  <MODEL>
8

>  <REMARK>
 VINA RESULT:      -7.3      2.287      5.140
  Name = 
  15 active torsions:
  status: ('A' for Active; 'I' for Inactive)
    1  A    between atoms: O_1  and  C_4
    2  A    between atoms: O_1  and  C_5
    3  A    between atoms: C_2  and  C_5
    4  A    between atoms: C_3  and  C_20
    5  A    between atoms: C_4  and  C_24
    6  A    between atoms: C_5  and  N_14
    7  A    between atoms: C_13  and  C_18
    8  A    between atoms: C_13  and  C_29
    9  A    between atoms: N_14  and  N_30
   10  A    between atoms: C_15  and  O_16
   11  A    between atoms: C_15  and  C_20
   12  A    between atoms: O_16  and  C_24
   13  A    between atoms: C_18  and  N_30
   14  A    between atoms: N_19  and  C_26
   15  A    between atoms: C_20  and  C_26
                            x       y       z     vdW  Elec       q    Type
                         _______ _______ _______ _____ _____    ______ ____

>  <TORSDO>
F 15

$$$$
=
 OpenBabel10262421193D

 32 33  0  0  1  0  0  0  0  0999 V2000
  188.6710  177.6590  141.7200 C   0  0  1  0  0  3  0  0  0  0  0  0
  187.6220  177.8150  142.7770 C   0  0  0  0  0  0  0  0  0  0  0  0
  187.9690  177.6320  144.1230 C   0  0  0  0  0  3  0  0  0  0  0  0
  183.1300  179.0570  144.1170 C   0  0  0  0  0  3  0  0  0  0  0  0
  186.3240  178.2290  142.4400 C   0  0  0  0  0  3  0  0  0  0  0  0
  184.7770  178.4720  145.8030 C   0  0  0  0  0  3  0  0  0  0  0  0
  185.7270  178.2520  144.8000 C   0  0  0  0  0  0  0  0  0  0  0  0
  187.0240  177.8470  145.1320 C   0  0  0  0  0  3  0  0  0  0  0  0
  185.3730  178.4380  143.4420 C   0  0  0  0  0  0  0  0  0  0  0  0
  183.4800  178.8730  145.4610 C   0  0  0  0  0  3  0  0  0  0  0  0
  184.0750  178.8400  143.1080 C   0  0  0  0  0  3  0  0  0  0  0  0
  188.2640  178.2880  140.5360 O   0  0  0  0  0  0  0  0  0  0  0  0
  188.5390  177.3740  139.5100 C   0  0  0  0  0  2  0  0  0  0  0  0
  187.9310  177.8400  138.2290 C   0  0  0  0  0  0  0  0  0  0  0  0
  188.1800  179.0030  137.8150 O   0  0  0  0  0  0  0  0  0  0  0  0
  187.1400  176.9670  137.4780 O   0  0  0  0  0  0  0  0  0  0  0  0
  185.9520  177.3930  136.8190 C   0  0  0  0  0  2  0  0  0  0  0  0
  184.6980  176.9230  137.5640 C   0  0  1  0  0  3  0  0  0  0  0  0
  183.8930  178.0790  138.0640 C   0  0  0  0  0  0  0  0  0  0  0  0
  182.5710  178.2470  137.6620 O   0  0  0  0  0  1  0  0  0  0  0  0
  184.4270  178.9310  138.8970 C   0  0  0  0  0  0  0  0  0  0  0  0
  184.9290  179.7430  139.6870 O   0  0  0  0  0  0  0  0  0  0  0  0
  183.8300  175.9940  136.7180 C   0  0  0  0  0  2  0  0  0  0  0  0
  184.4920  174.2350  137.9700 O   0  0  0  0  0  1  0  0  0  0  0  0
  183.3820  174.8560  137.5050 N   0  0  0  0  0  2  0  0  0  0  0  0
  189.9270  178.2460  142.1790 N   0  0  0  0  0  2  0  0  0  0  0  0
  191.7340  177.5030  141.1430 O   0  0  0  0  0  1  0  0  0  0  0  0
  190.8960  177.2340  142.1720 N   0  0  0  0  0  0  0  0  0  0  0  0
  191.6750  177.3940  143.3880 C   0  0  0  0  0  2  0  0  0  0  0  0
  191.2980  176.3250  144.4060 C   0  0  0  0  0  2  0  0  0  0  0  0
  190.4440  176.8720  146.6810 C   0  0  0  0  0  1  0  0  0  0  0  0
  191.6810  176.7440  145.8140 C   0  0  0  0  0  2  0  0  0  0  0  0
  1 12  1  6  0  0  0
  1 26  1  0  0  0  0
  1  2  1  0  0  0  0
  2  3  1  0  0  0  0
  3  8  2  0  0  0  0
  4 10  1  0  0  0  0
  5  2  2  0  0  0  0
  5  9  1  0  0  0  0
  7  8  1  0  0  0  0
  7  6  1  0  0  0  0
  9  7  2  0  0  0  0
 10  6  2  0  0  0  0
 11  9  1  0  0  0  0
 11  4  2  0  0  0  0
 13 12  1  0  0  0  0
 14 13  1  0  0  0  0
 15 14  2  0  0  0  0
 16 14  1  0  0  0  0
 17 16  1  0  0  0  0
 17 18  1  0  0  0  0
 18 23  1  6  0  0  0
 18 19  1  0  0  0  0
 19 21  2  0  0  0  0
 20 19  1  0  0  0  0
 21 22  2  0  0  0  0
 23 25  1  0  0  0  0
 25 24  1  0  0  0  0
 27 28  1  0  0  0  0
 28 26  1  0  0  0  0
 28 29  1  0  0  0  0
 29 30  1  0  0  0  0
 30 32  1  0  0  0  0
 32 31  1  0  0  0  0
M  END
>  <MODEL>
9

>  <REMARK>
 VINA RESULT:      -7.3      2.639      4.113
  Name = 
  15 active torsions:
  status: ('A' for Active; 'I' for Inactive)
    1  A    between atoms: O_1  and  C_4
    2  A    between atoms: O_1  and  C_5
    3  A    between atoms: C_2  and  C_5
    4  A    between atoms: C_3  and  C_20
    5  A    between atoms: C_4  and  C_24
    6  A    between atoms: C_5  and  N_14
    7  A    between atoms: C_13  and  C_18
    8  A    between atoms: C_13  and  C_29
    9  A    between atoms: N_14  and  N_30
   10  A    between atoms: C_15  and  O_16
   11  A    between atoms: C_15  and  C_20
   12  A    between atoms: O_16  and  C_24
   13  A    between atoms: C_18  and  N_30
   14  A    between atoms: N_19  and  C_26
   15  A    between atoms: C_20  and  C_26
                            x       y       z     vdW  Elec       q    Type
                         _______ _______ _______ _____ _____    ______ ____

>  <TORSDO>
F 15

$$$$
