=
 OpenBabel10262420443D

 28 31  0  0  1  0  0  0  0  0999 V2000
  183.1220  179.0140  140.1660 C   0  0  2  0  0  3  0  0  0  0  0  0
  186.3650  177.4670  137.7850 C   0  0  0  0  0  1  0  0  0  0  0  0
  185.9130  178.3330  142.7000 C   0  0  0  0  0  0  0  0  0  0  0  0
  185.6300  178.4940  139.8950 N   0  0  0  0  0  0  0  0  0  0  0  0
  184.6150  178.6670  142.0730 C   0  0  0  0  0  3  0  0  0  0  0  0
  184.0920  178.4200  137.9340 C   0  0  0  0  0  2  0  0  0  0  0  0
  186.9760  178.6150  140.4690 C   0  0  0  0  0  2  0  0  0  0  0  0
  185.5270  178.5580  138.4290 C   0  0  2  0  0  3  0  0  0  0  0  0
  187.0050  178.2640  141.9300 C   0  0  0  0  0  3  0  0  0  0  0  0
  183.1870  179.3810  138.6830 C   0  0  0  0  0  2  0  0  0  0  0  0
  184.4850  178.7410  140.7460 C   0  0  0  0  0  0  0  0  0  0  0  0
  185.0790  178.6290  144.9600 C   0  0  0  0  0  3  0  0  0  0  0  0
  187.7010  177.3320  145.8520 C   0  0  0  0  0  3  0  0  0  0  0  0
  186.2400  178.9130  147.1030 C   0  0  0  0  0  0  0  0  0  0  0  0
  185.9930  178.0590  144.1600 C   0  0  0  0  0  0  0  0  0  0  0  0
  187.4640  176.1150  143.9170 F   0  0  0  0  0  0  0  0  0  0  0  0
  187.4350  178.3720  146.8640 C   0  0  0  0  0  3  0  0  0  0  0  0
  187.0490  177.1460  144.6940 C   0  0  0  0  0  0  0  0  0  0  0  0
  186.1290  179.8750  148.0490 F   0  0  0  0  0  0  0  0  0  0  0  0
  185.0050  178.4110  146.4340 C   0  0  0  0  0  2  0  0  0  0  0  0
  182.1110  177.8950  140.4810 C   0  0  2  0  0  3  0  0  0  0  0  0
  182.3670  176.6340  139.7050 C   0  0  0  0  0  3  0  0  0  0  0  0
  179.6410  177.3040  140.2100 N   0  0  0  0  0  0  0  0  0  0  0  0
  181.4290  175.6910  139.6880 C   0  0  0  0  0  3  0  0  0  0  0  0
  180.2790  179.3010  141.4670 C   0  0  0  0  0  1  0  0  0  0  0  0
  180.6520  178.3770  140.3220 C   0  0  1  0  0  3  0  0  0  0  0  0
  178.9470  177.3830  138.5840 S   0  0  0  0  0  1  0  0  0  0  0  0
  180.1520  175.9410  140.4390 C   0  0  0  0  0  2  0  0  0  0  0  0
  1 10  1  6  0  0  0
  1 21  1  0  0  0  0
  1 11  1  0  0  0  0
  3 15  1  0  0  0  0
  4  7  1  0  0  0  0
  4 11  1  0  0  0  0
  5  3  1  0  0  0  0
  6  8  1  0  0  0  0
  6 10  1  0  0  0  0
  7  9  1  0  0  0  0
  8  2  1  6  0  0  0
  8  4  1  0  0  0  0
  9  3  2  0  0  0  0
 11  5  2  0  0  0  0
 12 20  1  0  0  0  0
 13 17  1  0  0  0  0
 14 19  1  0  0  0  0
 15 18  1  0  0  0  0
 15 12  2  0  0  0  0
 16 18  1  0  0  0  0
 17 14  2  0  0  0  0
 18 13  2  0  0  0  0
 20 14  1  0  0  0  0
 21 22  1  6  0  0  0
 23 26  1  0  0  0  0
 23 28  1  0  0  0  0
 24 22  2  0  0  0  0
 24 28  1  0  0  0  0
 26 21  1  0  0  0  0
 26 25  1  1  0  0  0
 27 23  1  0  0  0  0
M  END
>  <MODEL>
1

>  <REMARK>
 VINA RESULT:      -8.7      0.000      0.000
  Name = 
  2 active torsions:
  status: ('A' for Active; 'I' for Inactive)
    1  A    between atoms: C_1  and  C_2
    2  A    between atoms: C_10  and  C_13
                            x       y       z     vdW  Elec       q    Type
                         _______ _______ _______ _____ _____    ______ ____

>  <TORSDO>
F 2

$$$$
=
 OpenBabel10262420443D

 28 31  0  0  1  0  0  0  0  0999 V2000
  188.0880  177.9730  138.1410 C   0  0  2  0  0  3  0  0  0  0  0  0
  191.8320  175.9320  137.5130 C   0  0  0  0  0  1  0  0  0  0  0  0
  189.3660  177.2350  141.6760 C   0  0  0  0  0  0  0  0  0  0  0  0
  190.3730  177.1940  139.0390 N   0  0  0  0  0  0  0  0  0  0  0  0
  188.5310  177.6400  140.5240 C   0  0  0  0  0  3  0  0  0  0  0  0
  189.8630  177.1070  136.5990 C   0  0  0  0  0  2  0  0  0  0  0  0
  191.3310  177.2310  140.1510 C   0  0  0  0  0  2  0  0  0  0  0  0
  190.9370  177.1470  137.6810 C   0  0  2  0  0  3  0  0  0  0  0  0
  190.6690  176.9990  141.4800 C   0  0  0  0  0  3  0  0  0  0  0  0
  188.8460  178.2090  136.8340 C   0  0  0  0  0  2  0  0  0  0  0  0
  189.0100  177.6180  139.2780 C   0  0  0  0  0  0  0  0  0  0  0  0
  187.4370  177.2680  143.1490 C   0  0  0  0  0  3  0  0  0  0  0  0
  189.4660  177.1530  145.4330 C   0  0  0  0  0  3  0  0  0  0  0  0
  187.1540  178.0750  145.4480 C   0  0  0  0  0  0  0  0  0  0  0  0
  188.7590  177.0750  143.0250 C   0  0  0  0  0  0  0  0  0  0  0  0
  190.6720  175.8660  143.9610 F   0  0  0  0  0  0  0  0  0  0  0  0
  188.3980  178.0430  145.9260 C   0  0  0  0  0  3  0  0  0  0  0  0
  189.6110  176.6780  144.1870 C   0  0  0  0  0  0  0  0  0  0  0  0
  186.2670  178.9520  145.9760 F   0  0  0  0  0  0  0  0  0  0  0  0
  186.6830  177.0980  144.4250 C   0  0  0  0  0  2  0  0  0  0  0  0
  186.9130  176.9860  138.0030 C   0  0  2  0  0  3  0  0  0  0  0  0
  187.2770  175.7400  137.2450 C   0  0  0  0  0  3  0  0  0  0  0  0
  184.6320  176.7430  136.8800 N   0  0  0  0  0  0  0  0  0  0  0  0
  186.3010  174.9330  136.8350 C   0  0  0  0  0  3  0  0  0  0  0  0
  185.0230  178.5760  138.4520 C   0  0  0  0  0  1  0  0  0  0  0  0
  185.6570  177.6660  137.4150 C   0  0  1  0  0  3  0  0  0  0  0  0
  184.5430  176.9920  135.1300 S   0  0  0  0  0  1  0  0  0  0  0  0
  184.8820  175.3150  137.1410 C   0  0  0  0  0  2  0  0  0  0  0  0
  1 10  1  6  0  0  0
  1 11  1  0  0  0  0
  3 15  1  0  0  0  0
  4 11  1  0  0  0  0
  4  7  1  0  0  0  0
  5  3  1  0  0  0  0
  6 10  1  0  0  0  0
  6  8  1  0  0  0  0
  7  9  1  0  0  0  0
  8  2  1  1  0  0  0
  8  4  1  0  0  0  0
  9  3  2  0  0  0  0
 11  5  2  0  0  0  0
 12 20  1  0  0  0  0
 13 17  1  0  0  0  0
 14 17  2  0  0  0  0
 14 19  1  0  0  0  0
 15 12  2  0  0  0  0
 15 18  1  0  0  0  0
 16 18  1  0  0  0  0
 18 13  2  0  0  0  0
 20 14  1  0  0  0  0
 21 22  1  6  0  0  0
 21  1  1  0  0  0  0
 23 28  1  0  0  0  0
 23 26  1  0  0  0  0
 24 28  1  0  0  0  0
 24 22  2  0  0  0  0
 26 21  1  0  0  0  0
 26 25  1  1  0  0  0
 27 23  1  0  0  0  0
M  END
>  <MODEL>
2

>  <REMARK>
 VINA RESULT:      -8.3      3.270      4.705
  Name = 
  2 active torsions:
  status: ('A' for Active; 'I' for Inactive)
    1  A    between atoms: C_1  and  C_2
    2  A    between atoms: C_10  and  C_13
                            x       y       z     vdW  Elec       q    Type
                         _______ _______ _______ _____ _____    ______ ____

>  <TORSDO>
F 2

$$$$
=
 OpenBabel10262420443D

 28 31  0  0  1  0  0  0  0  0999 V2000
  188.6840  177.4440  137.4760 C   0  0  2  0  0  3  0  0  0  0  0  0
  192.2610  175.0430  137.5870 C   0  0  0  0  0  1  0  0  0  0  0  0
  189.8370  177.6360  141.1230 C   0  0  0  0  0  0  0  0  0  0  0  0
  190.8830  176.7840  138.6430 N   0  0  0  0  0  0  0  0  0  0  0  0
  189.0570  177.7620  139.8730 C   0  0  0  0  0  3  0  0  0  0  0  0
  190.4100  176.0550  136.3060 C   0  0  0  0  0  2  0  0  0  0  0  0
  191.8210  177.0620  139.7370 C   0  0  0  0  0  2  0  0  0  0  0  0
  191.4640  176.3180  137.3740 C   0  0  2  0  0  3  0  0  0  0  0  0
  191.1200  177.2610  141.0510 C   0  0  0  0  0  3  0  0  0  0  0  0
  189.4800  177.2490  136.1840 C   0  0  0  0  0  2  0  0  0  0  0  0
  189.5550  177.3570  138.7010 C   0  0  0  0  0  0  0  0  0  0  0  0
  189.9890  178.0190  143.5150 C   0  0  0  0  0  3  0  0  0  0  0  0
  186.9580  177.6210  143.5390 C   0  0  0  0  0  3  0  0  0  0  0  0
  188.5920  177.2540  145.3810 C   0  0  0  0  0  0  0  0  0  0  0  0
  189.1960  177.9060  142.4390 C   0  0  0  0  0  0  0  0  0  0  0  0
  187.0620  178.6250  141.4760 F   0  0  0  0  0  0  0  0  0  0  0  0
  187.4280  176.9910  144.7880 C   0  0  0  0  0  3  0  0  0  0  0  0
  187.7140  178.0740  142.5290 C   0  0  0  0  0  0  0  0  0  0  0  0
  188.9170  176.5950  146.5180 F   0  0  0  0  0  0  0  0  0  0  0  0
  189.4960  178.3330  144.8880 C   0  0  0  0  0  2  0  0  0  0  0  0
  187.4360  176.5460  137.5710 C   0  0  2  0  0  3  0  0  0  0  0  0
  187.5950  175.2380  136.8500 C   0  0  0  0  0  3  0  0  0  0  0  0
  185.0020  176.4240  136.8080 N   0  0  0  0  0  0  0  0  0  0  0  0
  186.5160  174.4890  136.6370 C   0  0  0  0  0  3  0  0  0  0  0  0
  185.7480  178.3010  138.1870 C   0  0  0  0  0  1  0  0  0  0  0  0
  186.1560  177.2900  137.1290 C   0  0  1  0  0  3  0  0  0  0  0  0
  184.6710  176.5860  135.0770 S   0  0  0  0  0  1  0  0  0  0  0  0
  185.1880  174.9970  137.1210 C   0  0  0  0  0  2  0  0  0  0  0  0
  1 10  1  6  0  0  0
  1 21  1  0  0  0  0
  1 11  1  0  0  0  0
  3 15  1  0  0  0  0
  4 11  1  0  0  0  0
  4  7  1  0  0  0  0
  5  3  1  0  0  0  0
  6  8  1  0  0  0  0
  7  9  1  0  0  0  0
  8  2  1  1  0  0  0
  8  4  1  0  0  0  0
  9  3  2  0  0  0  0
 10  6  1  0  0  0  0
 11  5  2  0  0  0  0
 12 20  1  0  0  0  0
 13 17  1  0  0  0  0
 14 19  1  0  0  0  0
 15 18  1  0  0  0  0
 15 12  2  0  0  0  0
 16 18  1  0  0  0  0
 17 14  2  0  0  0  0
 18 13  2  0  0  0  0
 20 14  1  0  0  0  0
 21 22  1  6  0  0  0
 23 28  1  0  0  0  0
 23 26  1  0  0  0  0
 24 22  2  0  0  0  0
 24 28  1  0  0  0  0
 26 21  1  0  0  0  0
 26 25  1  1  0  0  0
 27 23  1  0  0  0  0
M  END
>  <MODEL>
3

>  <REMARK>
 VINA RESULT:      -8.0      3.684      5.409
  Name = 
  2 active torsions:
  status: ('A' for Active; 'I' for Inactive)
    1  A    between atoms: C_1  and  C_2
    2  A    between atoms: C_10  and  C_13
                            x       y       z     vdW  Elec       q    Type
                         _______ _______ _______ _____ _____    ______ ____

>  <TORSDO>
F 2

$$$$
=
 OpenBabel10262420443D

 28 31  0  0  1  0  0  0  0  0999 V2000
  187.1010  178.5230  137.9030 C   0  0  2  0  0  3  0  0  0  0  0  0
  189.5170  175.7870  135.6120 C   0  0  0  0  0  1  0  0  0  0  0  0
  189.7350  177.2800  140.3900 C   0  0  0  0  0  0  0  0  0  0  0  0
  189.2990  177.2160  137.6010 N   0  0  0  0  0  0  0  0  0  0  0  0
  188.5590  177.9350  139.7780 C   0  0  0  0  0  3  0  0  0  0  0  0
  187.6650  177.4150  135.7280 C   0  0  0  0  0  2  0  0  0  0  0  0
  190.6580  176.9700  138.1010 C   0  0  0  0  0  2  0  0  0  0  0  0
  189.1070  177.1490  136.1440 C   0  0  2  0  0  3  0  0  0  0  0  0
  190.6910  176.7890  139.5920 C   0  0  0  0  0  3  0  0  0  0  0  0
  187.1590  178.6880  136.3830 C   0  0  0  0  0  2  0  0  0  0  0  0
  188.3550  177.9010  138.4580 C   0  0  0  0  0  0  0  0  0  0  0  0
  188.7620  176.7350  142.5450 C   0  0  0  0  0  3  0  0  0  0  0  0
  191.2330  178.0770  143.7440 C   0  0  0  0  0  3  0  0  0  0  0  0
  188.9710  177.8000  144.7460 C   0  0  0  0  0  0  0  0  0  0  0  0
  189.8410  177.1560  141.8690 C   0  0  0  0  0  0  0  0  0  0  0  0
  192.2900  177.2100  141.8980 F   0  0  0  0  0  0  0  0  0  0  0  0
  190.1280  178.4530  144.6470 C   0  0  0  0  0  3  0  0  0  0  0  0
  191.1320  177.4640  142.5560 C   0  0  0  0  0  0  0  0  0  0  0  0
  188.0270  178.2560  145.6020 F   0  0  0  0  0  0  0  0  0  0  0  0
  188.7310  176.5190  144.0210 C   0  0  0  0  0  2  0  0  0  0  0  0
  185.8230  177.8200  138.3980 C   0  0  2  0  0  3  0  0  0  0  0  0
  185.0230  177.2000  137.2860 C   0  0  0  0  0  3  0  0  0  0  0  0
  183.5540  178.3180  139.4600 N   0  0  0  0  0  0  0  0  0  0  0  0
  183.7830  176.7910  137.5410 C   0  0  0  0  0  3  0  0  0  0  0  0
  185.6070  178.9460  140.6320 C   0  0  0  0  0  1  0  0  0  0  0  0
  184.9560  178.7510  139.2740 C   0  0  1  0  0  3  0  0  0  0  0  0
  182.5120  179.5050  138.6620 S   0  0  0  0  0  1  0  0  0  0  0  0
  183.2390  176.9820  138.9280 C   0  0  0  0  0  2  0  0  0  0  0  0
  1 10  1  6  0  0  0
  1 21  1  0  0  0  0
  1 11  1  0  0  0  0
  3 15  1  0  0  0  0
  4  7  1  0  0  0  0
  4 11  1  0  0  0  0
  5  3  1  0  0  0  0
  6  8  1  0  0  0  0
  6 10  1  0  0  0  0
  7  9  1  0  0  0  0
  8  2  1  1  0  0  0
  8  4  1  0  0  0  0
  9  3  2  0  0  0  0
 11  5  2  0  0  0  0
 12 20  1  0  0  0  0
 13 17  1  0  0  0  0
 14 19  1  0  0  0  0
 15 12  2  0  0  0  0
 15 18  1  0  0  0  0
 16 18  1  0  0  0  0
 17 14  2  0  0  0  0
 18 13  2  0  0  0  0
 20 14  1  0  0  0  0
 21 22  1  6  0  0  0
 21 26  1  0  0  0  0
 22 24  2  0  0  0  0
 24 28  1  0  0  0  0
 26 23  1  0  0  0  0
 26 25  1  1  0  0  0
 27 23  1  0  0  0  0
 28 23  1  0  0  0  0
M  END
>  <MODEL>
4

>  <REMARK>
 VINA RESULT:      -7.9      2.973      4.381
  Name = 
  2 active torsions:
  status: ('A' for Active; 'I' for Inactive)
    1  A    between atoms: C_1  and  C_2
    2  A    between atoms: C_10  and  C_13
                            x       y       z     vdW  Elec       q    Type
                         _______ _______ _______ _____ _____    ______ ____

>  <TORSDO>
F 2

$$$$
=
 OpenBabel10262420443D

 28 31  0  0  1  0  0  0  0  0999 V2000
  188.1180  178.0380  138.0510 C   0  0  2  0  0  3  0  0  0  0  0  0
  191.8590  176.2820  139.2740 C   0  0  0  0  0  1  0  0  0  0  0  0
  187.8990  177.9160  141.8730 C   0  0  0  0  0  0  0  0  0  0  0  0
  189.8760  177.6030  139.8820 N   0  0  0  0  0  0  0  0  0  0  0  0
  187.5810  178.0800  140.4380 C   0  0  0  0  0  3  0  0  0  0  0  0
  190.3850  177.1340  137.4860 C   0  0  0  0  0  2  0  0  0  0  0  0
  190.3080  177.8820  141.2570 C   0  0  0  0  0  2  0  0  0  0  0  0
  190.9360  177.4210  138.8780 C   0  0  2  0  0  3  0  0  0  0  0  0
  189.1780  177.7760  142.2420 C   0  0  0  0  0  3  0  0  0  0  0  0
  189.3270  178.1600  137.1220 C   0  0  0  0  0  2  0  0  0  0  0  0
  188.5190  177.9300  139.4980 C   0  0  0  0  0  0  0  0  0  0  0  0
  185.5830  178.2790  142.5030 C   0  0  0  0  0  3  0  0  0  0  0  0
  186.5520  177.9360  145.3830 C   0  0  0  0  0  3  0  0  0  0  0  0
  184.5710  179.1900  144.5440 C   0  0  0  0  0  0  0  0  0  0  0  0
  186.8090  177.8890  142.8850 C   0  0  0  0  0  0  0  0  0  0  0  0
  188.0210  176.4400  144.4440 F   0  0  0  0  0  0  0  0  0  0  0  0
  185.5210  178.9890  145.4580 C   0  0  0  0  0  3  0  0  0  0  0  0
  187.0860  177.4070  144.2730 C   0  0  0  0  0  0  0  0  0  0  0  0
  183.6910  180.2030  144.7190 F   0  0  0  0  0  0  0  0  0  0  0  0
  184.3850  178.2620  143.3910 C   0  0  0  0  0  2  0  0  0  0  0  0
  187.1250  176.9380  137.6290 C   0  0  2  0  0  3  0  0  0  0  0  0
  187.7290  175.9250  136.6970 C   0  0  0  0  0  3  0  0  0  0  0  0
  184.9890  176.5910  136.2730 N   0  0  0  0  0  0  0  0  0  0  0  0
  186.9230  175.0800  136.0610 C   0  0  0  0  0  3  0  0  0  0  0  0
  184.9820  178.1260  138.1760 C   0  0  0  0  0  1  0  0  0  0  0  0
  185.8180  177.5310  137.0570 C   0  0  1  0  0  3  0  0  0  0  0  0
  184.9760  177.1540  134.5950 S   0  0  0  0  0  1  0  0  0  0  0  0
  185.4440  175.1900  136.2960 C   0  0  0  0  0  2  0  0  0  0  0  0
  1 10  1  6  0  0  0
  1 11  1  0  0  0  0
  3  9  2  0  0  0  0
  3 15  1  0  0  0  0
  4  7  1  0  0  0  0
  5  3  1  0  0  0  0
  6  8  1  0  0  0  0
  7  9  1  0  0  0  0
  8  2  1  1  0  0  0
  8  4  1  0  0  0  0
 10  6  1  0  0  0  0
 11  4  1  0  0  0  0
 11  5  2  0  0  0  0
 12 15  2  0  0  0  0
 12 20  1  0  0  0  0
 13 17  1  0  0  0  0
 14 19  1  0  0  0  0
 14 17  2  0  0  0  0
 15 18  1  0  0  0  0
 18 16  1  0  0  0  0
 18 13  2  0  0  0  0
 20 14  1  0  0  0  0
 21 22  1  6  0  0  0
 21  1  1  0  0  0  0
 23 28  1  0  0  0  0
 23 26  1  0  0  0  0
 24 28  1  0  0  0  0
 24 22  2  0  0  0  0
 26 21  1  0  0  0  0
 26 25  1  1  0  0  0
 27 23  1  0  0  0  0
M  END
>  <MODEL>
5

>  <REMARK>
 VINA RESULT:      -7.8      3.219      4.760
  Name = 
  2 active torsions:
  status: ('A' for Active; 'I' for Inactive)
    1  A    between atoms: C_1  and  C_2
    2  A    between atoms: C_10  and  C_13
                            x       y       z     vdW  Elec       q    Type
                         _______ _______ _______ _____ _____    ______ ____

>  <TORSDO>
F 2

$$$$
=
 OpenBabel10262420443D

 28 31  0  0  1  0  0  0  0  0999 V2000
  187.9210  178.8030  139.7110 C   0  0  2  0  0  3  0  0  0  0  0  0
  191.0440  176.0020  138.7190 C   0  0  0  0  0  1  0  0  0  0  0  0
  189.0630  177.4230  143.0970 C   0  0  0  0  0  0  0  0  0  0  0  0
  189.9700  177.4130  140.4230 N   0  0  0  0  0  0  0  0  0  0  0  0
  188.3250  178.1310  142.0290 C   0  0  0  0  0  3  0  0  0  0  0  0
  189.3980  177.7010  138.0130 C   0  0  0  0  0  2  0  0  0  0  0  0
  190.9330  177.1060  141.4880 C   0  0  0  0  0  2  0  0  0  0  0  0
  190.4730  177.3720  139.0420 C   0  0  2  0  0  3  0  0  0  0  0  0
  190.2650  176.9040  142.8190 C   0  0  0  0  0  3  0  0  0  0  0  0
  188.6830  178.9840  138.3980 C   0  0  0  0  0  2  0  0  0  0  0  0
  188.7560  178.1240  140.7650 C   0  0  0  0  0  0  0  0  0  0  0  0
  187.1300  177.3080  144.5600 C   0  0  0  0  0  3  0  0  0  0  0  0
  189.1330  177.5960  146.8520 C   0  0  0  0  0  3  0  0  0  0  0  0
  186.7240  178.2200  146.8010 C   0  0  0  0  0  0  0  0  0  0  0  0
  188.4670  177.2750  144.4520 C   0  0  0  0  0  0  0  0  0  0  0  0
  190.5060  176.3780  145.4700 F   0  0  0  0  0  0  0  0  0  0  0  0
  187.9560  178.3750  147.2830 C   0  0  0  0  0  3  0  0  0  0  0  0
  189.3490  177.0640  145.6400 C   0  0  0  0  0  0  0  0  0  0  0  0
  185.7290  179.0100  147.2680 F   0  0  0  0  0  0  0  0  0  0  0  0
  186.3890  177.1280  145.8420 C   0  0  0  0  0  2  0  0  0  0  0  0
  186.5400  178.1440  139.5360 C   0  0  2  0  0  3  0  0  0  0  0  0
  186.2410  177.7710  138.1120 C   0  0  0  0  0  3  0  0  0  0  0  0
  184.0450  178.6680  139.6940 N   0  0  0  0  0  0  0  0  0  0  0  0
  184.9960  177.4350  137.7850 C   0  0  0  0  0  3  0  0  0  0  0  0
  185.4670  178.9330  141.6650 C   0  0  0  0  0  1  0  0  0  0  0  0
  185.4110  179.0030  140.1500 C   0  0  1  0  0  3  0  0  0  0  0  0
  183.4310  180.0470  138.7690 S   0  0  0  0  0  1  0  0  0  0  0  0
  183.9450  177.4590  138.8590 C   0  0  0  0  0  2  0  0  0  0  0  0
  1 10  1  6  0  0  0
  1 11  1  0  0  0  0
  3 15  1  0  0  0  0
  4 11  1  0  0  0  0
  4  7  1  0  0  0  0
  5  3  1  0  0  0  0
  6 10  1  0  0  0  0
  6  8  1  0  0  0  0
  7  9  1  0  0  0  0
  8  2  1  6  0  0  0
  8  4  1  0  0  0  0
  9  3  2  0  0  0  0
 11  5  2  0  0  0  0
 12 20  1  0  0  0  0
 13 17  1  0  0  0  0
 14 19  1  0  0  0  0
 14 17  2  0  0  0  0
 15 12  2  0  0  0  0
 15 18  1  0  0  0  0
 16 18  1  0  0  0  0
 18 13  2  0  0  0  0
 20 14  1  0  0  0  0
 21 22  1  6  0  0  0
 21  1  1  0  0  0  0
 21 26  1  0  0  0  0
 23 26  1  0  0  0  0
 24 22  2  0  0  0  0
 24 28  1  0  0  0  0
 26 25  1  1  0  0  0
 27 23  1  0  0  0  0
 28 23  1  0  0  0  0
M  END
>  <MODEL>
6

>  <REMARK>
 VINA RESULT:      -7.7      2.551      3.996
  Name = 
  2 active torsions:
  status: ('A' for Active; 'I' for Inactive)
    1  A    between atoms: C_1  and  C_2
    2  A    between atoms: C_10  and  C_13
                            x       y       z     vdW  Elec       q    Type
                         _______ _______ _______ _____ _____    ______ ____

>  <TORSDO>
F 2

$$$$
=
 OpenBabel10262420443D

 28 31  0  0  1  0  0  0  0  0999 V2000
  186.6560  178.2020  137.6820 C   0  0  2  0  0  3  0  0  0  0  0  0
  189.6430  175.4010  136.3380 C   0  0  0  0  0  1  0  0  0  0  0  0
  189.0060  177.8150  140.6820 C   0  0  0  0  0  0  0  0  0  0  0  0
  188.9940  177.1520  137.9380 N   0  0  0  0  0  0  0  0  0  0  0  0
  187.8730  178.1810  139.8050 C   0  0  0  0  0  3  0  0  0  0  0  0
  187.6420  176.7710  135.8780 C   0  0  0  0  0  2  0  0  0  0  0  0
  190.2810  177.1830  138.6430 C   0  0  0  0  0  2  0  0  0  0  0  0
  189.0260  176.7770  136.5160 C   0  0  2  0  0  3  0  0  0  0  0  0
  190.1130  177.3030  140.1310 C   0  0  0  0  0  3  0  0  0  0  0  0
  186.9210  178.0720  136.1820 C   0  0  0  0  0  2  0  0  0  0  0  0
  187.8700  177.8650  138.5070 C   0  0  0  0  0  0  0  0  0  0  0  0
  190.0230  178.2970  142.8330 C   0  0  0  0  0  3  0  0  0  0  0  0
  187.3900  177.3170  144.0400 C   0  0  0  0  0  3  0  0  0  0  0  0
  189.6610  177.3360  145.0610 C   0  0  0  0  0  0  0  0  0  0  0  0
  188.9050  177.9970  142.1560 C   0  0  0  0  0  0  0  0  0  0  0  0
  186.4690  178.2550  142.1560 F   0  0  0  0  0  0  0  0  0  0  0  0
  188.4310  176.8320  144.9670 C   0  0  0  0  0  3  0  0  0  0  0  0
  187.5790  177.8760  142.8360 C   0  0  0  0  0  0  0  0  0  0  0  0
  190.5320  176.7900  145.9410 F   0  0  0  0  0  0  0  0  0  0  0  0
  190.0690  178.5530  144.3020 C   0  0  0  0  0  2  0  0  0  0  0  0
  185.3950  177.4520  138.1520 C   0  0  2  0  0  3  0  0  0  0  0  0
  185.0250  176.3030  137.2570 C   0  0  0  0  0  3  0  0  0  0  0  0
  182.8760  177.7630  138.4330 N   0  0  0  0  0  0  0  0  0  0  0  0
  183.8280  175.7400  137.4010 C   0  0  0  0  0  3  0  0  0  0  0  0
  184.4210  179.2310  139.6320 C   0  0  0  0  0  1  0  0  0  0  0  0
  184.2040  178.4100  138.3730 C   0  0  1  0  0  3  0  0  0  0  0  0
  181.9490  178.3020  137.0250 S   0  0  0  0  0  1  0  0  0  0  0  0
  182.9000  176.2910  138.4450 C   0  0  0  0  0  2  0  0  0  0  0  0
  1 10  1  6  0  0  0
  1 21  1  0  0  0  0
  1 11  1  0  0  0  0
  3 15  1  0  0  0  0
  4 11  1  0  0  0  0
  4  7  1  0  0  0  0
  5  3  1  0  0  0  0
  6 10  1  0  0  0  0
  6  8  1  0  0  0  0
  7  9  1  0  0  0  0
  8  2  1  1  0  0  0
  8  4  1  0  0  0  0
  9  3  2  0  0  0  0
 11  5  2  0  0  0  0
 12 20  1  0  0  0  0
 13 17  1  0  0  0  0
 14 19  1  0  0  0  0
 15 12  2  0  0  0  0
 15 18  1  0  0  0  0
 16 18  1  0  0  0  0
 17 14  2  0  0  0  0
 18 13  2  0  0  0  0
 20 14  1  0  0  0  0
 21 22  1  6  0  0  0
 21 26  1  0  0  0  0
 22 24  2  0  0  0  0
 23 28  1  0  0  0  0
 24 28  1  0  0  0  0
 26 23  1  0  0  0  0
 26 25  1  1  0  0  0
 27 23  1  0  0  0  0
M  END
>  <MODEL>
7

>  <REMARK>
 VINA RESULT:      -7.6      2.686      4.023
  Name = 
  2 active torsions:
  status: ('A' for Active; 'I' for Inactive)
    1  A    between atoms: C_1  and  C_2
    2  A    between atoms: C_10  and  C_13
                            x       y       z     vdW  Elec       q    Type
                         _______ _______ _______ _____ _____    ______ ____

>  <TORSDO>
F 2

$$$$
=
 OpenBabel10262420443D

 28 31  0  0  1  0  0  0  0  0999 V2000
  185.3770  179.1770  142.5150 C   0  0  2  0  0  3  0  0  0  0  0  0
  181.5340  178.2530  144.2350 C   0  0  0  0  0  1  0  0  0  0  0  0
  183.3190  177.8500  139.5710 C   0  0  0  0  0  0  0  0  0  0  0  0
  182.8600  178.7190  142.2170 N   0  0  0  0  0  0  0  0  0  0  0  0
  184.4220  178.3440  140.4230 C   0  0  0  0  0  3  0  0  0  0  0  0
  183.8180  179.1580  144.4770 C   0  0  0  0  0  2  0  0  0  0  0  0
  181.7230  178.6780  141.2890 C   0  0  0  0  0  2  0  0  0  0  0  0
  182.5760  179.1530  143.5940 C   0  0  2  0  0  3  0  0  0  0  0  0
  182.0600  177.9680  140.0080 C   0  0  0  0  0  3  0  0  0  0  0  0
  184.9450  179.9070  143.7880 C   0  0  0  0  0  2  0  0  0  0  0  0
  184.2020  178.7540  141.6750 C   0  0  0  0  0  0  0  0  0  0  0  0
  182.6500  176.4720  137.6880 C   0  0  0  0  0  3  0  0  0  0  0  0
  185.6060  176.5030  136.9080 C   0  0  0  0  0  3  0  0  0  0  0  0
  183.8720  174.7980  136.3750 C   0  0  0  0  0  0  0  0  0  0  0  0
  183.6110  177.2140  138.2570 C   0  0  0  0  0  0  0  0  0  0  0  0
  185.5540  178.6280  137.7800 F   0  0  0  0  0  0  0  0  0  0  0  0
  185.1440  175.1430  136.5710 C   0  0  0  0  0  3  0  0  0  0  0  0
  184.9320  177.4380  137.5940 C   0  0  0  0  0  0  0  0  0  0  0  0
  183.5750  173.5090  136.0880 F   0  0  0  0  0  0  0  0  0  0  0  0
  182.7790  175.8130  136.3550 C   0  0  0  0  0  2  0  0  0  0  0  0
  186.3670  178.0250  142.7720 C   0  0  2  0  0  3  0  0  0  0  0  0
  186.4290  177.6120  144.2160 C   0  0  0  0  0  3  0  0  0  0  0  0
  188.8650  177.4950  142.7360 N   0  0  0  0  0  0  0  0  0  0  0  0
  187.4190  176.8160  144.6110 C   0  0  0  0  0  3  0  0  0  0  0  0
  187.7540  178.2420  140.6900 C   0  0  0  0  0  1  0  0  0  0  0  0
  187.7700  178.3350  142.2050 C   0  0  1  0  0  3  0  0  0  0  0  0
  189.9440  178.5420  143.6710 S   0  0  0  0  0  1  0  0  0  0  0  0
  188.4330  176.3780  143.5940 C   0  0  0  0  0  2  0  0  0  0  0  0
  1 21  1  0  0  0  0
  1 10  1  1  0  0  0
  3  9  2  0  0  0  0
  3  5  1  0  0  0  0
  4  8  1  0  0  0  0
  5 11  2  0  0  0  0
  7  4  1  0  0  0  0
  8  2  1  1  0  0  0
  8  6  1  0  0  0  0
  9  7  1  0  0  0  0
 10  6  1  0  0  0  0
 11  4  1  0  0  0  0
 11  1  1  0  0  0  0
 12 15  2  0  0  0  0
 13 18  2  0  0  0  0
 14 17  2  0  0  0  0
 15  3  1  0  0  0  0
 17 13  1  0  0  0  0
 18 16  1  0  0  0  0
 18 15  1  0  0  0  0
 19 14  1  0  0  0  0
 20 14  1  0  0  0  0
 20 12  1  0  0  0  0
 21 22  1  1  0  0  0
 22 24  2  0  0  0  0
 23 28  1  0  0  0  0
 23 27  1  0  0  0  0
 26 25  1  6  0  0  0
 26 23  1  0  0  0  0
 26 21  1  0  0  0  0
 28 24  1  0  0  0  0
M  END
>  <MODEL>
8

>  <REMARK>
 VINA RESULT:      -7.4      3.754      7.752
  Name = 
  2 active torsions:
  status: ('A' for Active; 'I' for Inactive)
    1  A    between atoms: C_1  and  C_2
    2  A    between atoms: C_10  and  C_13
                            x       y       z     vdW  Elec       q    Type
                         _______ _______ _______ _____ _____    ______ ____

>  <TORSDO>
F 2

$$$$
=
 OpenBabel10262420443D

 28 31  0  0  1  0  0  0  0  0999 V2000
  188.7610  178.0700  139.2250 C   0  0  2  0  0  3  0  0  0  0  0  0
  189.6330  175.9800  142.8920 C   0  0  0  0  0  1  0  0  0  0  0  0
  185.6090  178.5360  141.3500 C   0  0  0  0  0  0  0  0  0  0  0  0
  188.2640  177.6520  141.7180 N   0  0  0  0  0  0  0  0  0  0  0  0
  186.5830  178.5350  140.2370 C   0  0  0  0  0  3  0  0  0  0  0  0
  190.3470  176.7710  140.6660 C   0  0  0  0  0  2  0  0  0  0  0  0
  187.4950  178.0600  142.8990 C   0  0  0  0  0  2  0  0  0  0  0  0
  189.6350  177.1730  141.9520 C   0  0  2  0  0  3  0  0  0  0  0  0
  186.0390  178.2640  142.5870 C   0  0  0  0  0  3  0  0  0  0  0  0
  190.2230  177.8780  139.6340 C   0  0  0  0  0  2  0  0  0  0  0  0
  187.8380  178.1150  140.4140 C   0  0  0  0  0  0  0  0  0  0  0  0
  183.3000  178.6280  142.0920 C   0  0  0  0  0  3  0  0  0  0  0  0
  182.6020  178.9650  139.1350 C   0  0  0  0  0  3  0  0  0  0  0  0
  181.2000  178.0340  140.9700 C   0  0  0  0  0  0  0  0  0  0  0  0
  184.1700  178.8160  141.0900 C   0  0  0  0  0  0  0  0  0  0  0  0
  184.5870  180.1180  139.0570 F   0  0  0  0  0  0  0  0  0  0  0  0
  181.5230  178.1180  139.6790 C   0  0  0  0  0  3  0  0  0  0  0  0
  183.7360  179.3240  139.7530 C   0  0  0  0  0  0  0  0  0  0  0  0
  180.1990  177.2050  141.3460 F   0  0  0  0  0  0  0  0  0  0  0  0
  181.8380  178.9100  141.9950 C   0  0  0  0  0  2  0  0  0  0  0  0
  188.2880  177.0780  138.1460 C   0  0  2  0  0  3  0  0  0  0  0  0
  189.1740  175.8710  138.0260 C   0  0  0  0  0  3  0  0  0  0  0  0
  188.0150  176.8620  135.6160 N   0  0  0  0  0  0  0  0  0  0  0  0
  189.0280  175.0730  136.9710 C   0  0  0  0  0  3  0  0  0  0  0  0
  186.8250  178.6280  136.8170 C   0  0  0  0  0  1  0  0  0  0  0  0
  188.0770  177.7700  136.7800 C   0  0  1  0  0  3  0  0  0  0  0  0
  189.4300  177.1860  134.6030 S   0  0  0  0  0  1  0  0  0  0  0  0
  187.9900  175.4270  135.9450 C   0  0  0  0  0  2  0  0  0  0  0  0
  1 10  1  1  0  0  0
  1 11  1  0  0  0  0
  3  9  2  0  0  0  0
  4  8  1  0  0  0  0
  4  7  1  0  0  0  0
  5 11  2  0  0  0  0
  5  3  1  0  0  0  0
  6  8  1  0  0  0  0
  8  2  1  1  0  0  0
  9  7  1  0  0  0  0
 10  6  1  0  0  0  0
 11  4  1  0  0  0  0
 13 17  1  0  0  0  0
 13 18  2  0  0  0  0
 14 19  1  0  0  0  0
 14 20  1  0  0  0  0
 15  3  1  0  0  0  0
 15 12  2  0  0  0  0
 16 18  1  0  0  0  0
 17 14  2  0  0  0  0
 18 15  1  0  0  0  0
 20 12  1  0  0  0  0
 21 22  1  6  0  0  0
 21  1  1  0  0  0  0
 23 28  1  0  0  0  0
 23 26  1  0  0  0  0
 24 22  2  0  0  0  0
 26 25  1  1  0  0  0
 26 21  1  0  0  0  0
 27 23  1  0  0  0  0
 28 24  1  0  0  0  0
M  END
>  <MODEL>
9

>  <REMARK>
 VINA RESULT:      -7.0      4.023      6.791
  Name = 
  2 active torsions:
  status: ('A' for Active; 'I' for Inactive)
    1  A    between atoms: C_1  and  C_2
    2  A    between atoms: C_10  and  C_13
                            x       y       z     vdW  Elec       q    Type
                         _______ _______ _______ _____ _____    ______ ____

>  <TORSDO>
F 2

$$$$
