=
 OpenBabel10262420493D

 28 31  0  0  1  0  0  0  0  0999 V2000
  188.6690  177.7670  140.6400 C   0  0  0  0  0  0  0  0  0  0  0  0
  187.6750  178.4270  139.7030 C   0  0  2  0  0  3  0  0  0  0  0  0
  186.1520  178.7690  141.5150 C   0  0  1  0  0  3  0  0  0  0  0  0
  191.4380  176.0200  143.2800 O   0  0  0  0  0  1  0  0  0  0  0  0
  186.2990  178.2200  140.1670 N   0  0  0  0  0  2  0  0  0  0  0  0
  183.0960  179.1030  143.7760 C   0  0  0  0  0  1  0  0  0  0  0  0
  186.7680  177.9470  143.8450 C   0  0  0  0  0  0  0  0  0  0  0  0
  185.4200  178.3890  144.3830 C   0  0  2  0  0  3  0  0  0  0  0  0
  184.7080  178.6120  141.9650 C   0  0  0  0  0  2  0  0  0  0  0  0
  189.2620  177.0300  142.8940 C   0  0  0  0  0  0  0  0  0  0  0  0
  187.0900  178.0730  142.4750 C   0  0  0  0  0  0  0  0  0  0  0  0
  184.5570  179.1670  143.3720 C   0  0  1  0  0  3  0  0  0  0  0  0
  190.8500  176.7900  141.0790 C   0  0  0  0  0  3  0  0  0  0  0  0
  188.9140  176.8710  144.2390 C   0  0  0  0  0  3  0  0  0  0  0  0
  190.5160  176.6090  142.4230 C   0  0  0  0  0  0  0  0  0  0  0  0
  187.6770  177.3180  144.7060 C   0  0  0  0  0  3  0  0  0  0  0  0
  189.9390  177.3700  140.1950 C   0  0  0  0  0  3  0  0  0  0  0  0
  188.3400  177.6270  142.0030 C   0  0  0  0  0  0  0  0  0  0  0  0
  187.1740  176.9340  137.9210 O   0  0  0  0  0  0  0  0  0  0  0  0
  187.8030  177.9650  138.2790 C   0  0  0  0  0  0  0  0  0  0  0  0
  188.6380  178.6820  137.2960 C   0  0  0  0  0  0  0  0  0  0  0  0
  188.9670  179.8800  137.5050 O   0  0  0  0  0  0  0  0  0  0  0  0
  189.0810  178.0350  136.1070 N   0  0  0  0  0  1  0  0  0  0  0  0
  185.5490  179.1650  145.6990 C   0  0  0  0  0  2  0  0  0  0  0  0
  185.6280  178.2390  146.9030 C   0  0  0  0  0  2  0  0  0  0  0  0
  186.6550  178.7700  147.8800 C   0  0  0  0  0  2  0  0  0  0  0  0
  187.6080  177.6560  148.2620 C   0  0  0  0  0  2  0  0  0  0  0  0
  189.0340  178.1400  148.1100 C   0  0  0  0  0  1  0  0  0  0  0  0
  1 18  1  0  0  0  0
  2 20  1  6  0  0  0
  2  5  1  0  0  0  0
  2  1  1  0  0  0  0
  3  9  1  1  0  0  0
  3 11  1  0  0  0  0
  5  3  1  0  0  0  0
  7  8  1  0  0  0  0
  7 16  1  0  0  0  0
  8 24  1  1  0  0  0
  9 12  1  0  0  0  0
 10 14  1  0  0  0  0
 11  7  2  0  0  0  0
 12  6  1  1  0  0  0
 12  8  1  0  0  0  0
 13 15  2  0  0  0  0
 14 16  2  0  0  0  0
 15 10  1  0  0  0  0
 15  4  1  0  0  0  0
 17  1  2  0  0  0  0
 17 13  1  0  0  0  0
 18 11  1  0  0  0  0
 18 10  2  0  0  0  0
 19 20  2  0  0  0  0
 21 22  2  0  0  0  0
 21 20  1  0  0  0  0
 23 21  1  0  0  0  0
 24 25  1  0  0  0  0
 25 26  1  0  0  0  0
 26 27  1  0  0  0  0
 28 27  1  0  0  0  0
M  END
>  <MODEL>
1

>  <REMARK>
 VINA RESULT:      -9.3      0.000      0.000
  Name = 
  6 active torsions:
  status: ('A' for Active; 'I' for Inactive)
    1  A    between atoms: C_2  and  C_11
    2  A    between atoms: C_4  and  C_13
    3  A    between atoms: C_4  and  C_24
    4  A    between atoms: C_6  and  C_11
    5  A    between atoms: C_12  and  C_15
    6  A    between atoms: C_12  and  C_24
                            x       y       z     vdW  Elec       q    Type
                         _______ _______ _______ _____ _____    ______ ____

>  <TORSDO>
F 6

$$$$
=
 OpenBabel10262420493D

 28 31  0  0  1  0  0  0  0  0999 V2000
  184.9260  178.4210  142.4570 C   0  0  0  0  0  0  0  0  0  0  0  0
  185.1680  178.2620  140.9690 C   0  0  2  0  0  3  0  0  0  0  0  0
  187.4680  177.7460  141.3690 C   0  0  1  0  0  3  0  0  0  0  0  0
  184.2710  178.7720  146.5970 O   0  0  0  0  0  1  0  0  0  0  0  0
  186.5500  178.6050  140.6210 N   0  0  0  0  0  2  0  0  0  0  0  0
  191.2690  177.4220  141.2550 C   0  0  0  0  0  1  0  0  0  0  0  0
  188.3580  177.7480  143.7540 C   0  0  0  0  0  0  0  0  0  0  0  0
  189.7610  177.4550  143.2560 C   0  0  2  0  0  3  0  0  0  0  0  0
  188.8970  178.0600  140.9560 C   0  0  0  0  0  2  0  0  0  0  0  0
  185.7900  178.3690  144.7440 C   0  0  0  0  0  0  0  0  0  0  0  0
  187.2850  177.9440  142.8570 C   0  0  0  0  0  0  0  0  0  0  0  0
  189.8540  177.1790  141.7440 C   0  0  1  0  0  3  0  0  0  0  0  0
  183.4340  178.7770  144.3430 C   0  0  0  0  0  3  0  0  0  0  0  0
  186.8690  178.2160  145.6210 C   0  0  0  0  0  3  0  0  0  0  0  0
  184.5020  178.6420  145.2330 C   0  0  0  0  0  0  0  0  0  0  0  0
  188.1400  177.9170  145.1290 C   0  0  0  0  0  3  0  0  0  0  0  0
  183.6410  178.6610  142.9670 C   0  0  0  0  0  3  0  0  0  0  0  0
  186.0000  178.2420  143.3520 C   0  0  0  0  0  0  0  0  0  0  0  0
  184.6490  180.1070  139.5610 O   0  0  0  0  0  0  0  0  0  0  0  0
  184.2190  179.0650  140.1230 C   0  0  0  0  0  0  0  0  0  0  0  0
  182.8120  178.6660  139.9340 C   0  0  0  0  0  0  0  0  0  0  0  0
  181.9170  179.5470  139.8240 O   0  0  0  0  0  0  0  0  0  0  0  0
  182.4460  177.2910  139.8700 N   0  0  0  0  0  1  0  0  0  0  0  0
  190.4370  176.3350  144.0560 C   0  0  0  0  0  2  0  0  0  0  0  0
  191.6500  176.8350  144.8260 C   0  0  0  0  0  2  0  0  0  0  0  0
  191.3890  176.7150  146.3120 C   0  0  0  0  0  2  0  0  0  0  0  0
  192.0960  175.4880  146.8490 C   0  0  0  0  0  2  0  0  0  0  0  0
  192.7470  175.8210  148.1740 C   0  0  0  0  0  1  0  0  0  0  0  0
  1 17  2  0  0  0  0
  1 18  1  0  0  0  0
  2 20  1  6  0  0  0
  2  1  1  0  0  0  0
  3  9  1  6  0  0  0
  3 11  1  0  0  0  0
  5  2  1  0  0  0  0
  5  3  1  0  0  0  0
  7 16  1  0  0  0  0
  8  7  1  0  0  0  0
  8 24  1  1  0  0  0
  9 12  1  0  0  0  0
 10 15  1  0  0  0  0
 10 14  1  0  0  0  0
 11 18  1  0  0  0  0
 11  7  2  0  0  0  0
 12  6  1  6  0  0  0
 12  8  1  0  0  0  0
 13 15  2  0  0  0  0
 15  4  1  0  0  0  0
 16 14  2  0  0  0  0
 17 13  1  0  0  0  0
 18 10  2  0  0  0  0
 19 20  2  0  0  0  0
 21 20  1  0  0  0  0
 22 21  2  0  0  0  0
 23 21  1  0  0  0  0
 24 25  1  0  0  0  0
 25 26  1  0  0  0  0
 26 27  1  0  0  0  0
 27 28  1  0  0  0  0
M  END
>  <MODEL>
2

>  <REMARK>
 VINA RESULT:      -9.2      2.846      5.332
  Name = 
  6 active torsions:
  status: ('A' for Active; 'I' for Inactive)
    1  A    between atoms: C_2  and  C_11
    2  A    between atoms: C_4  and  C_13
    3  A    between atoms: C_4  and  C_24
    4  A    between atoms: C_6  and  C_11
    5  A    between atoms: C_12  and  C_15
    6  A    between atoms: C_12  and  C_24
                            x       y       z     vdW  Elec       q    Type
                         _______ _______ _______ _____ _____    ______ ____

>  <TORSDO>
F 6

$$$$
=
 OpenBabel10262420493D

 28 31  0  0  1  0  0  0  0  0999 V2000
  186.8270  178.4220  140.7370 C   0  0  0  0  0  0  0  0  0  0  0  0
  185.5270  179.1730  140.9500 C   0  0  2  0  0  3  0  0  0  0  0  0
  185.6830  178.8340  143.3110 C   0  0  1  0  0  3  0  0  0  0  0  0
  190.4780  176.4070  140.1930 O   0  0  0  0  0  1  0  0  0  0  0  0
  184.8230  178.6810  142.1390 N   0  0  0  0  0  2  0  0  0  0  0  0
  185.0310  178.1770  147.0140 C   0  0  0  0  0  1  0  0  0  0  0  0
  187.6420  177.5150  144.2630 C   0  0  0  0  0  0  0  0  0  0  0  0
  187.0690  177.6280  145.6630 C   0  0  2  0  0  3  0  0  0  0  0  0
  184.9260  178.3840  144.5510 C   0  0  0  0  0  2  0  0  0  0  0  0
  188.7250  177.2000  141.6760 C   0  0  0  0  0  0  0  0  0  0  0  0
  186.9560  178.0350  143.1430 C   0  0  0  0  0  0  0  0  0  0  0  0
  185.8240  178.5270  145.7690 C   0  0  1  0  0  3  0  0  0  0  0  0
  188.6230  177.6460  139.2960 C   0  0  0  0  0  3  0  0  0  0  0  0
  189.3740  176.6520  142.7870 C   0  0  0  0  0  3  0  0  0  0  0  0
  189.2790  177.0790  140.3910 C   0  0  0  0  0  0  0  0  0  0  0  0
  188.8330  176.8020  144.0650 C   0  0  0  0  0  3  0  0  0  0  0  0
  187.4110  178.3180  139.4660 C   0  0  0  0  0  3  0  0  0  0  0  0
  187.5030  177.8890  141.8530 C   0  0  0  0  0  0  0  0  0  0  0  0
  184.4210  180.1750  139.0980 O   0  0  0  0  0  0  0  0  0  0  0  0
  184.6090  179.1200  139.7610 C   0  0  0  0  0  0  0  0  0  0  0  0
  183.9300  177.8760  139.3510 C   0  0  0  0  0  0  0  0  0  0  0  0
  183.0220  177.3870  140.0740 O   0  0  0  0  0  0  0  0  0  0  0  0
  184.2880  177.2160  138.1410 N   0  0  0  0  0  1  0  0  0  0  0  0
  188.1290  178.0420  146.6910 C   0  0  0  0  0  2  0  0  0  0  0  0
  188.8440  176.8400  147.2900 C   0  0  0  0  0  2  0  0  0  0  0  0
  190.2570  177.2300  147.6660 C   0  0  0  0  0  2  0  0  0  0  0  0
  191.2310  176.5710  146.7130 C   0  0  0  0  0  2  0  0  0  0  0  0
  192.2220  175.7400  147.5000 C   0  0  0  0  0  1  0  0  0  0  0  0
  1  2  1  0  0  0  0
  1 18  1  0  0  0  0
  2 20  1  6  0  0  0
  2  5  1  0  0  0  0
  3  9  1  1  0  0  0
  4 15  1  0  0  0  0
  5  3  1  0  0  0  0
  7  8  1  0  0  0  0
  8 12  1  0  0  0  0
  8 24  1  1  0  0  0
  9 12  1  0  0  0  0
 10 18  2  0  0  0  0
 10 14  1  0  0  0  0
 11  3  1  0  0  0  0
 11  7  2  0  0  0  0
 12  6  1  1  0  0  0
 13 17  1  0  0  0  0
 13 15  2  0  0  0  0
 14 16  2  0  0  0  0
 15 10  1  0  0  0  0
 16  7  1  0  0  0  0
 17  1  2  0  0  0  0
 18 11  1  0  0  0  0
 19 20  2  0  0  0  0
 21 20  1  0  0  0  0
 21 22  2  0  0  0  0
 23 21  1  0  0  0  0
 24 25  1  0  0  0  0
 25 26  1  0  0  0  0
 27 28  1  0  0  0  0
 27 26  1  0  0  0  0
M  END
>  <MODEL>
3

>  <REMARK>
 VINA RESULT:      -9.2      2.106      3.287
  Name = 
  6 active torsions:
  status: ('A' for Active; 'I' for Inactive)
    1  A    between atoms: C_2  and  C_11
    2  A    between atoms: C_4  and  C_13
    3  A    between atoms: C_4  and  C_24
    4  A    between atoms: C_6  and  C_11
    5  A    between atoms: C_12  and  C_15
    6  A    between atoms: C_12  and  C_24
                            x       y       z     vdW  Elec       q    Type
                         _______ _______ _______ _____ _____    ______ ____

>  <TORSDO>
F 6

$$$$
=
 OpenBabel10262420493D

 28 31  0  0  1  0  0  0  0  0999 V2000
  189.2030  177.8150  145.1160 C   0  0  0  0  0  0  0  0  0  0  0  0
  189.6640  177.9510  143.6780 C   0  0  2  0  0  3  0  0  0  0  0  0
  187.4110  178.2980  142.9570 C   0  0  1  0  0  3  0  0  0  0  0  0
  187.8970  177.5310  149.1040 O   0  0  0  0  0  1  0  0  0  0  0  0
  188.6220  177.5060  142.7470 N   0  0  0  0  0  2  0  0  0  0  0  0
  184.0780  178.3420  141.0980 C   0  0  0  0  0  1  0  0  0  0  0  0
  185.5240  178.2410  144.6660 C   0  0  0  0  0  0  0  0  0  0  0  0
  184.4930  178.4270  143.5680 C   0  0  2  0  0  3  0  0  0  0  0  0
  186.3560  177.8790  141.9460 C   0  0  0  0  0  2  0  0  0  0  0  0
  187.3810  177.8130  146.7470 C   0  0  0  0  0  0  0  0  0  0  0  0
  186.9000  178.1200  144.3690 C   0  0  0  0  0  0  0  0  0  0  0  0
  185.0900  178.6900  142.1740 C   0  0  1  0  0  3  0  0  0  0  0  0
  189.6770  177.5780  147.4880 C   0  0  0  0  0  3  0  0  0  0  0  0
  186.0120  177.8900  147.0240 C   0  0  0  0  0  3  0  0  0  0  0  0
  188.3130  177.6380  147.7830 C   0  0  0  0  0  0  0  0  0  0  0  0
  185.0940  178.0940  145.9920 C   0  0  0  0  0  3  0  0  0  0  0  0
  190.1210  177.6730  146.1680 C   0  0  0  0  0  3  0  0  0  0  0  0
  187.8280  177.9190  145.4100 C   0  0  0  0  0  0  0  0  0  0  0  0
  191.9670  177.8850  143.0880 O   0  0  0  0  0  0  0  0  0  0  0  0
  190.9440  177.2160  143.3930 C   0  0  0  0  0  0  0  0  0  0  0  0
  191.0340  175.7460  143.4630 C   0  0  0  0  0  0  0  0  0  0  0  0
  190.2040  175.0330  142.8380 O   0  0  0  0  0  0  0  0  0  0  0  0
  192.0550  175.1150  144.2310 N   0  0  0  0  0  1  0  0  0  0  0  0
  183.4550  179.4980  143.9260 C   0  0  0  0  0  2  0  0  0  0  0  0
  182.1070  178.8900  144.2830 C   0  0  0  0  0  2  0  0  0  0  0  0
  181.1160  179.1760  143.1750 C   0  0  0  0  0  2  0  0  0  0  0  0
  179.8270  178.4290  143.4480 C   0  0  0  0  0  2  0  0  0  0  0  0
  178.9410  179.2630  144.3480 C   0  0  0  0  0  1  0  0  0  0  0  0
  1 18  2  0  0  0  0
  1 17  1  0  0  0  0
  2 20  1  1  0  0  0
  2  1  1  0  0  0  0
  3  9  1  6  0  0  0
  3 11  1  0  0  0  0
  5  3  1  0  0  0  0
  5  2  1  0  0  0  0
  7 16  1  0  0  0  0
  8 24  1  1  0  0  0
  8  7  1  0  0  0  0
  9 12  1  0  0  0  0
 10 14  1  0  0  0  0
 10 15  2  0  0  0  0
 11  7  2  0  0  0  0
 11 18  1  0  0  0  0
 12  6  1  6  0  0  0
 12  8  1  0  0  0  0
 13 15  1  0  0  0  0
 15  4  1  0  0  0  0
 16 14  2  0  0  0  0
 17 13  2  0  0  0  0
 18 10  1  0  0  0  0
 19 20  2  0  0  0  0
 20 21  1  0  0  0  0
 21 23  1  0  0  0  0
 22 21  2  0  0  0  0
 24 25  1  0  0  0  0
 26 27  1  0  0  0  0
 26 25  1  0  0  0  0
 27 28  1  0  0  0  0
M  END
>  <MODEL>
4

>  <REMARK>
 VINA RESULT:      -9.1      2.873      5.528
  Name = 
  6 active torsions:
  status: ('A' for Active; 'I' for Inactive)
    1  A    between atoms: C_2  and  C_11
    2  A    between atoms: C_4  and  C_13
    3  A    between atoms: C_4  and  C_24
    4  A    between atoms: C_6  and  C_11
    5  A    between atoms: C_12  and  C_15
    6  A    between atoms: C_12  and  C_24
                            x       y       z     vdW  Elec       q    Type
                         _______ _______ _______ _____ _____    ______ ____

>  <TORSDO>
F 6

$$$$
=
 OpenBabel10262420493D

 28 31  0  0  1  0  0  0  0  0999 V2000
  189.2050  177.0560  142.3380 C   0  0  0  0  0  0  0  0  0  0  0  0
  189.5150  176.4660  143.7000 C   0  0  2  0  0  3  0  0  0  0  0  0
  187.3850  177.1780  144.5230 C   0  0  1  0  0  3  0  0  0  0  0  0
  188.2810  178.6280  138.5470 O   0  0  0  0  0  1  0  0  0  0  0  0
  188.8280  177.2080  144.7620 N   0  0  0  0  0  2  0  0  0  0  0  0
  184.4630  178.4950  146.5930 C   0  0  0  0  0  1  0  0  0  0  0  0
  185.8110  178.4610  142.9870 C   0  0  0  0  0  0  0  0  0  0  0  0
  184.8120  178.6330  144.1160 C   0  0  2  0  0  3  0  0  0  0  0  0
  186.6730  177.8910  145.6610 C   0  0  0  0  0  2  0  0  0  0  0  0
  187.6590  178.2470  140.8650 C   0  0  0  0  0  0  0  0  0  0  0  0
  187.0540  177.8250  143.1960 C   0  0  0  0  0  0  0  0  0  0  0  0
  185.1740  177.8750  145.4060 C   0  0  1  0  0  3  0  0  0  0  0  0
  189.7690  177.4220  140.0020 C   0  0  0  0  0  3  0  0  0  0  0  0
  186.4430  178.9140  140.6810 C   0  0  0  0  0  3  0  0  0  0  0  0
  188.5660  178.1050  139.8030 C   0  0  0  0  0  0  0  0  0  0  0  0
  185.5340  179.0260  141.7340 C   0  0  0  0  0  3  0  0  0  0  0  0
  190.0840  176.8960  141.2560 C   0  0  0  0  0  3  0  0  0  0  0  0
  187.9710  177.7060  142.1340 C   0  0  0  0  0  0  0  0  0  0  0  0
  191.6390  175.4030  143.5920 O   0  0  0  0  0  0  0  0  0  0  0  0
  190.9860  176.4000  143.9990 C   0  0  0  0  0  0  0  0  0  0  0  0
  191.6800  177.4660  144.7470 C   0  0  0  0  0  0  0  0  0  0  0  0
  192.0550  177.2610  145.9320 O   0  0  0  0  0  0  0  0  0  0  0  0
  191.9370  178.7300  144.1440 N   0  0  0  0  0  1  0  0  0  0  0  0
  183.3800  178.3050  143.6760 C   0  0  0  0  0  2  0  0  0  0  0  0
  182.5030  179.5460  143.6140 C   0  0  0  0  0  2  0  0  0  0  0  0
  181.1950  179.2060  142.9320 C   0  0  0  0  0  2  0  0  0  0  0  0
  180.3910  178.2800  143.8210 C   0  0  0  0  0  2  0  0  0  0  0  0
  179.1760  179.0140  144.3450 C   0  0  0  0  0  1  0  0  0  0  0  0
  1  2  1  0  0  0  0
  2 20  1  1  0  0  0
  2  5  1  0  0  0  0
  3  5  1  0  0  0  0
  3  9  1  1  0  0  0
  4 15  1  0  0  0  0
  7 11  1  0  0  0  0
  7  8  1  0  0  0  0
  8 24  1  6  0  0  0
  8 12  1  0  0  0  0
 10 18  1  0  0  0  0
 11  3  1  0  0  0  0
 12  9  1  0  0  0  0
 12  6  1  1  0  0  0
 13 17  1  0  0  0  0
 14 10  2  0  0  0  0
 14 16  1  0  0  0  0
 15 13  2  0  0  0  0
 15 10  1  0  0  0  0
 16  7  2  0  0  0  0
 17  1  2  0  0  0  0
 18  1  1  0  0  0  0
 18 11  2  0  0  0  0
 19 20  2  0  0  0  0
 20 21  1  0  0  0  0
 21 22  2  0  0  0  0
 23 21  1  0  0  0  0
 25 24  1  0  0  0  0
 26 25  1  0  0  0  0
 26 27  1  0  0  0  0
 27 28  1  0  0  0  0
M  END
>  <MODEL>
5

>  <REMARK>
 VINA RESULT:      -8.7      2.374      5.368
  Name = 
  6 active torsions:
  status: ('A' for Active; 'I' for Inactive)
    1  A    between atoms: C_2  and  C_11
    2  A    between atoms: C_4  and  C_13
    3  A    between atoms: C_4  and  C_24
    4  A    between atoms: C_6  and  C_11
    5  A    between atoms: C_12  and  C_15
    6  A    between atoms: C_12  and  C_24
                            x       y       z     vdW  Elec       q    Type
                         _______ _______ _______ _____ _____    ______ ____

>  <TORSDO>
F 6

$$$$
=
 OpenBabel10262420493D

 28 31  0  0  1  0  0  0  0  0999 V2000
  190.1260  177.3380  139.6460 C   0  0  0  0  0  0  0  0  0  0  0  0
  191.3850  176.7520  140.2560 C   0  0  2  0  0  3  0  0  0  0  0  0
  190.4300  176.9020  142.4430 C   0  0  1  0  0  3  0  0  0  0  0  0
  186.5870  178.8850  137.9810 O   0  0  0  0  0  1  0  0  0  0  0  0
  191.5880  177.2490  141.6200 N   0  0  0  0  0  2  0  0  0  0  0  0
  189.7550  177.3800  146.1680 C   0  0  0  0  0  1  0  0  0  0  0  0
  188.0970  177.8810  142.7300 C   0  0  0  0  0  0  0  0  0  0  0  0
  188.2010  177.7480  144.2380 C   0  0  2  0  0  3  0  0  0  0  0  0
  190.6740  177.3600  143.8720 C   0  0  0  0  0  2  0  0  0  0  0  0
  187.8680  178.2290  139.9390 C   0  0  0  0  0  0  0  0  0  0  0  0
  189.1750  177.5360  141.8850 C   0  0  0  0  0  0  0  0  0  0  0  0
  189.4640  177.0150  144.7250 C   0  0  1  0  0  3  0  0  0  0  0  0
  188.7930  177.9670  137.7140 C   0  0  0  0  0  3  0  0  0  0  0  0
  186.8230  178.6080  140.7880 C   0  0  0  0  0  3  0  0  0  0  0  0
  187.7450  178.3650  138.5470 C   0  0  0  0  0  0  0  0  0  0  0  0
  186.9420  178.4430  142.1690 C   0  0  0  0  0  3  0  0  0  0  0  0
  189.9710  177.4510  138.2560 C   0  0  0  0  0  3  0  0  0  0  0  0
  189.0560  177.6970  140.4910 C   0  0  0  0  0  0  0  0  0  0  0  0
  193.4290  177.8880  139.8260 O   0  0  0  0  0  0  0  0  0  0  0  0
  192.6170  177.0080  139.4350 C   0  0  0  0  0  0  0  0  0  0  0  0
  192.9000  176.2600  138.1950 C   0  0  0  0  0  0  0  0  0  0  0  0
  193.6650  176.7530  137.3240 O   0  0  0  0  0  0  0  0  0  0  0  0
  192.3200  174.9800  137.9680 N   0  0  0  0  0  1  0  0  0  0  0  0
  186.9400  177.1270  144.8520 C   0  0  0  0  0  2  0  0  0  0  0  0
  186.4610  177.8960  146.0730 C   0  0  0  0  0  2  0  0  0  0  0  0
  185.6200  179.0730  145.6290 C   0  0  0  0  0  2  0  0  0  0  0  0
  184.1810  178.6300  145.4680 C   0  0  0  0  0  2  0  0  0  0  0  0
  183.6900  179.0030  144.0860 C   0  0  0  0  0  1  0  0  0  0  0  0
  1  2  1  0  0  0  0
  1 18  1  0  0  0  0
  2 20  1  6  0  0  0
  2  5  1  0  0  0  0
  3  9  1  1  0  0  0
  4 15  1  0  0  0  0
  5  3  1  0  0  0  0
  7  8  1  0  0  0  0
  8 12  1  0  0  0  0
  8 24  1  6  0  0  0
  9 12  1  0  0  0  0
 10 18  2  0  0  0  0
 10 14  1  0  0  0  0
 11  3  1  0  0  0  0
 11  7  2  0  0  0  0
 12  6  1  1  0  0  0
 13 17  1  0  0  0  0
 13 15  2  0  0  0  0
 14 16  2  0  0  0  0
 15 10  1  0  0  0  0
 16  7  1  0  0  0  0
 17  1  2  0  0  0  0
 18 11  1  0  0  0  0
 20 19  2  0  0  0  0
 21 20  1  0  0  0  0
 22 21  2  0  0  0  0
 23 21  1  0  0  0  0
 24 25  1  0  0  0  0
 26 25  1  0  0  0  0
 27 26  1  0  0  0  0
 28 27  1  0  0  0  0
M  END
>  <MODEL>
6

>  <REMARK>
 VINA RESULT:      -8.7      2.321      4.601
  Name = 
  6 active torsions:
  status: ('A' for Active; 'I' for Inactive)
    1  A    between atoms: C_2  and  C_11
    2  A    between atoms: C_4  and  C_13
    3  A    between atoms: C_4  and  C_24
    4  A    between atoms: C_6  and  C_11
    5  A    between atoms: C_12  and  C_15
    6  A    between atoms: C_12  and  C_24
                            x       y       z     vdW  Elec       q    Type
                         _______ _______ _______ _____ _____    ______ ____

>  <TORSDO>
F 6

$$$$
=
 OpenBabel10262420493D

 28 31  0  0  1  0  0  0  0  0999 V2000
  189.4520  177.2570  144.6840 C   0  0  0  0  0  0  0  0  0  0  0  0
  188.7450  177.1080  146.0180 C   0  0  2  0  0  3  0  0  0  0  0  0
  186.6580  177.6950  145.0100 C   0  0  1  0  0  3  0  0  0  0  0  0
  191.3630  177.5950  140.9530 O   0  0  0  0  0  1  0  0  0  0  0  0
  187.5850  178.0000  146.1000 N   0  0  0  0  0  2  0  0  0  0  0  0
  183.1980  179.0790  144.1870 C   0  0  0  0  0  1  0  0  0  0  0  0
  186.5790  178.2720  142.5310 C   0  0  0  0  0  0  0  0  0  0  0  0
  185.1000  178.5940  142.6290 C   0  0  2  0  0  3  0  0  0  0  0  0
  185.4260  178.5770  145.1380 C   0  0  0  0  0  2  0  0  0  0  0  0
  189.3450  177.7660  142.2950 C   0  0  0  0  0  0  0  0  0  0  0  0
  187.3290  177.9050  143.6710 C   0  0  0  0  0  0  0  0  0  0  0  0
  184.4690  178.2730  143.9970 C   0  0  1  0  0  3  0  0  0  0  0  0
  191.4360  177.0570  143.2960 C   0  0  0  0  0  3  0  0  0  0  0  0
  188.6020  178.1740  141.1830 C   0  0  0  0  0  3  0  0  0  0  0  0
  190.7140  177.4770  142.1760 C   0  0  0  0  0  0  0  0  0  0  0  0
  187.2360  178.4310  141.3030 C   0  0  0  0  0  3  0  0  0  0  0  0
  190.8110  176.9410  144.5380 C   0  0  0  0  0  3  0  0  0  0  0  0
  188.7070  177.6390  143.5500 C   0  0  0  0  0  0  0  0  0  0  0  0
  189.4070  178.3180  147.9550 O   0  0  0  0  0  0  0  0  0  0  0  0
  189.6470  177.3410  147.1970 C   0  0  0  0  0  0  0  0  0  0  0  0
  190.7950  176.4620  147.4900 C   0  0  0  0  0  0  0  0  0  0  0  0
  190.6710  175.2120  147.3930 O   0  0  0  0  0  0  0  0  0  0  0  0
  192.0500  177.0090  147.8810 N   0  0  0  0  0  1  0  0  0  0  0  0
  184.2920  177.9530  141.4940 C   0  0  0  0  0  2  0  0  0  0  0  0
  183.5070  178.9850  140.6980 C   0  0  0  0  0  2  0  0  0  0  0  0
  184.2570  179.3190  139.4270 C   0  0  0  0  0  2  0  0  0  0  0  0
  184.5210  178.0460  138.6500 C   0  0  0  0  0  2  0  0  0  0  0  0
  185.8370  178.1700  137.9120 C   0  0  0  0  0  1  0  0  0  0  0  0
  1  2  1  0  0  0  0
  2  5  1  0  0  0  0
  2 20  1  1  0  0  0
  3  9  1  6  0  0  0
  3  5  1  0  0  0  0
  4 15  1  0  0  0  0
  7  8  1  0  0  0  0
  7 11  2  0  0  0  0
  8 24  1  6  0  0  0
  8 12  1  0  0  0  0
 10 18  1  0  0  0  0
 11  3  1  0  0  0  0
 12  6  1  1  0  0  0
 12  9  1  0  0  0  0
 13 17  2  0  0  0  0
 14 16  2  0  0  0  0
 14 10  1  0  0  0  0
 15 10  2  0  0  0  0
 15 13  1  0  0  0  0
 16  7  1  0  0  0  0
 17  1  1  0  0  0  0
 18 11  1  0  0  0  0
 18  1  2  0  0  0  0
 20 21  1  0  0  0  0
 20 19  2  0  0  0  0
 21 23  1  0  0  0  0
 22 21  2  0  0  0  0
 25 24  1  0  0  0  0
 26 25  1  0  0  0  0
 27 26  1  0  0  0  0
 28 27  1  0  0  0  0
M  END
>  <MODEL>
7

>  <REMARK>
 VINA RESULT:      -8.6      2.972      6.336
  Name = 
  6 active torsions:
  status: ('A' for Active; 'I' for Inactive)
    1  A    between atoms: C_2  and  C_11
    2  A    between atoms: C_4  and  C_13
    3  A    between atoms: C_4  and  C_24
    4  A    between atoms: C_6  and  C_11
    5  A    between atoms: C_12  and  C_15
    6  A    between atoms: C_12  and  C_24
                            x       y       z     vdW  Elec       q    Type
                         _______ _______ _______ _____ _____    ______ ____

>  <TORSDO>
F 6

$$$$
=
 OpenBabel10262420493D

 28 31  0  0  1  0  0  0  0  0999 V2000
  188.2870  177.7330  145.8930 C   0  0  0  0  0  0  0  0  0  0  0  0
  189.7610  177.3810  145.9230 C   0  0  2  0  0  3  0  0  0  0  0  0
  189.8300  177.3440  143.5330 C   0  0  1  0  0  3  0  0  0  0  0  0
  184.2180  178.7930  145.7720 O   0  0  0  0  0  1  0  0  0  0  0  0
  190.1360  176.5890  144.7470 N   0  0  0  0  0  2  0  0  0  0  0  0
  190.4930  176.5710  139.8550 C   0  0  0  0  0  1  0  0  0  0  0  0
  187.7020  177.7920  142.2090 C   0  0  0  0  0  0  0  0  0  0  0  0
  188.4310  177.5330  140.9040 C   0  0  2  0  0  3  0  0  0  0  0  0
  190.2810  176.5460  142.3190 C   0  0  0  0  0  2  0  0  0  0  0  0
  186.2660  178.2100  144.6020 C   0  0  0  0  0  0  0  0  0  0  0  0
  188.3500  177.6440  143.4550 C   0  0  0  0  0  0  0  0  0  0  0  0
  189.9480  177.3220  141.0550 C   0  0  1  0  0  3  0  0  0  0  0  0
  186.2280  178.3620  147.0210 C   0  0  0  0  0  3  0  0  0  0  0  0
  185.6230  178.3110  143.3630 C   0  0  0  0  0  3  0  0  0  0  0  0
  185.5650  178.4530  145.7940 C   0  0  0  0  0  0  0  0  0  0  0  0
  186.3340  178.0960  142.1810 C   0  0  0  0  0  3  0  0  0  0  0  0
  187.5780  178.0120  147.0710 C   0  0  0  0  0  3  0  0  0  0  0  0
  187.6360  177.8650  144.6490 C   0  0  0  0  0  0  0  0  0  0  0  0
  189.2780  176.1490  147.8980 O   0  0  0  0  0  0  0  0  0  0  0  0
  190.1740  176.6580  147.1730 C   0  0  0  0  0  0  0  0  0  0  0  0
  191.5890  176.5260  147.5700 C   0  0  0  0  0  0  0  0  0  0  0  0
  192.0960  177.3490  148.3780 O   0  0  0  0  0  0  0  0  0  0  0  0
  192.3960  175.4740  147.0500 N   0  0  0  0  0  1  0  0  0  0  0  0
  188.1330  178.6090  139.8520 C   0  0  0  0  0  2  0  0  0  0  0  0
  187.4840  178.0250  138.6060 C   0  0  0  0  0  2  0  0  0  0  0  0
  188.3050  178.3950  137.3890 C   0  0  0  0  0  2  0  0  0  0  0  0
  188.5780  177.1510  136.5700 C   0  0  0  0  0  2  0  0  0  0  0  0
  187.8850  175.9660  137.2080 C   0  0  0  0  0  1  0  0  0  0  0  0
  1  2  1  0  0  0  0
  1 17  1  0  0  0  0
  2 20  1  1  0  0  0
  3  9  1  6  0  0  0
  3  5  1  0  0  0  0
  4 15  1  0  0  0  0
  5  2  1  0  0  0  0
  7 11  2  0  0  0  0
  8 24  1  6  0  0  0
  8 12  1  0  0  0  0
  8  7  1  0  0  0  0
 10 18  1  0  0  0  0
 10 15  2  0  0  0  0
 11  3  1  0  0  0  0
 11 18  1  0  0  0  0
 12  6  1  6  0  0  0
 12  9  1  0  0  0  0
 13 17  2  0  0  0  0
 14 10  1  0  0  0  0
 15 13  1  0  0  0  0
 16  7  1  0  0  0  0
 16 14  2  0  0  0  0
 18  1  2  0  0  0  0
 20 21  1  0  0  0  0
 20 19  2  0  0  0  0
 21 22  2  0  0  0  0
 23 21  1  0  0  0  0
 25 24  1  0  0  0  0
 26 25  1  0  0  0  0
 27 28  1  0  0  0  0
 27 26  1  0  0  0  0
M  END
>  <MODEL>
8

>  <REMARK>
 VINA RESULT:      -8.6      3.464      7.653
  Name = 
  6 active torsions:
  status: ('A' for Active; 'I' for Inactive)
    1  A    between atoms: C_2  and  C_11
    2  A    between atoms: C_4  and  C_13
    3  A    between atoms: C_4  and  C_24
    4  A    between atoms: C_6  and  C_11
    5  A    between atoms: C_12  and  C_15
    6  A    between atoms: C_12  and  C_24
                            x       y       z     vdW  Elec       q    Type
                         _______ _______ _______ _____ _____    ______ ____

>  <TORSDO>
F 6

$$$$
=
 OpenBabel10262420493D

 28 31  0  0  1  0  0  0  0  0999 V2000
  189.7760  177.2710  143.2460 C   0  0  0  0  0  0  0  0  0  0  0  0
  189.5860  177.0520  144.7340 C   0  0  2  0  0  3  0  0  0  0  0  0
  187.2760  177.6430  144.5560 C   0  0  1  0  0  3  0  0  0  0  0  0
  190.2470  177.8050  139.1000 O   0  0  0  0  0  1  0  0  0  0  0  0
  188.5270  177.9180  145.2620 N   0  0  0  0  0  2  0  0  0  0  0  0
  183.7460  178.9970  145.0710 C   0  0  0  0  0  1  0  0  0  0  0  0
  186.3260  178.3250  142.2940 C   0  0  0  0  0  0  0  0  0  0  0  0
  184.9760  178.6150  142.9220 C   0  0  2  0  0  3  0  0  0  0  0  0
  186.1670  178.4960  145.1510 C   0  0  0  0  0  2  0  0  0  0  0  0
  188.8320  177.8810  141.0740 C   0  0  0  0  0  0  0  0  0  0  0  0
  187.4300  177.9220  143.0770 C   0  0  0  0  0  0  0  0  0  0  0  0
  184.8690  178.2240  144.4070 C   0  0  1  0  0  3  0  0  0  0  0  0
  191.1430  177.1680  141.2390 C   0  0  0  0  0  3  0  0  0  0  0  0
  187.7430  178.3220  140.3160 C   0  0  0  0  0  3  0  0  0  0  0  0
  190.0710  177.6230  140.4670 C   0  0  0  0  0  0  0  0  0  0  0  0
  186.5070  178.5490  140.9220 C   0  0  0  0  0  3  0  0  0  0  0  0
  190.9970  176.9870  142.6150 C   0  0  0  0  0  3  0  0  0  0  0  0
  188.6780  177.6880  142.4670 C   0  0  0  0  0  0  0  0  0  0  0  0
  191.7070  178.0640  145.1000 O   0  0  0  0  0  0  0  0  0  0  0  0
  190.8460  177.2510  145.5300 C   0  0  0  0  0  0  0  0  0  0  0  0
  191.0970  176.5280  146.7910 C   0  0  0  0  0  0  0  0  0  0  0  0
  190.1610  176.3600  147.6180 O   0  0  0  0  0  0  0  0  0  0  0  0
  192.3900  176.0100  147.0880 N   0  0  0  0  0  1  0  0  0  0  0  0
  183.8210  178.0090  142.1150 C   0  0  0  0  0  2  0  0  0  0  0  0
  182.8870  179.0760  141.5640 C   0  0  0  0  0  2  0  0  0  0  0  0
  181.4520  178.6320  141.7470 C   0  0  0  0  0  2  0  0  0  0  0  0
  180.8270  179.4080  142.8880 C   0  0  0  0  0  2  0  0  0  0  0  0
  180.2280  178.4410  143.8860 C   0  0  0  0  0  1  0  0  0  0  0  0
  1  2  1  0  0  0  0
  2  5  1  0  0  0  0
  2 20  1  1  0  0  0
  3  9  1  1  0  0  0
  3  5  1  0  0  0  0
  4 15  1  0  0  0  0
  7  8  1  0  0  0  0
  7 11  2  0  0  0  0
  8 24  1  6  0  0  0
  8 12  1  0  0  0  0
 10 18  1  0  0  0  0
 11  3  1  0  0  0  0
 12  6  1  1  0  0  0
 12  9  1  0  0  0  0
 13 17  2  0  0  0  0
 14 16  2  0  0  0  0
 14 10  1  0  0  0  0
 15 10  2  0  0  0  0
 15 13  1  0  0  0  0
 16  7  1  0  0  0  0
 17  1  1  0  0  0  0
 18 11  1  0  0  0  0
 18  1  2  0  0  0  0
 19 20  2  0  0  0  0
 20 21  1  0  0  0  0
 21 23  1  0  0  0  0
 21 22  2  0  0  0  0
 25 26  1  0  0  0  0
 25 24  1  0  0  0  0
 26 27  1  0  0  0  0
 27 28  1  0  0  0  0
M  END
>  <MODEL>
9

>  <REMARK>
 VINA RESULT:      -8.4      2.722      5.854
  Name = 
  6 active torsions:
  status: ('A' for Active; 'I' for Inactive)
    1  A    between atoms: C_2  and  C_11
    2  A    between atoms: C_4  and  C_13
    3  A    between atoms: C_4  and  C_24
    4  A    between atoms: C_6  and  C_11
    5  A    between atoms: C_12  and  C_15
    6  A    between atoms: C_12  and  C_24
                            x       y       z     vdW  Elec       q    Type
                         _______ _______ _______ _____ _____    ______ ____

>  <TORSDO>
F 6

$$$$
