=
 OpenBabel10262421213D

 32 38  0  0  1  0  0  0  0  0999 V2000
  190.0410  177.2470  145.5560 C   0  0  0  0  0  0  0  0  0  0  0  0
  185.8450  178.1960  143.1220 C   0  0  0  0  0  0  0  0  0  0  0  0
  187.3250  178.2720  138.4590 C   0  0  0  0  0  3  0  0  0  0  0  0
  186.0230  178.5380  138.0450 C   0  0  0  0  0  3  0  0  0  0  0  0
  183.3980  178.6210  143.7100 C   0  0  0  0  0  0  0  0  0  0  0  0
  182.1730  178.8630  143.2500 C   0  0  0  0  0  0  0  0  0  0  0  0
  187.4080  177.7710  144.9590 C   0  0  0  0  0  0  0  0  0  0  0  0
  188.1420  177.8170  142.5560 C   0  0  0  0  0  3  0  0  0  0  0  0
  180.5250  179.3020  141.6750 C   0  0  2  0  0  3  0  0  0  0  0  0
  189.8790  177.3830  144.2700 C   0  0  0  0  0  3  0  0  0  0  0  0
  187.6070  178.1210  139.8160 C   0  0  0  0  0  3  0  0  0  0  0  0
  186.8800  178.0770  142.1600 C   0  0  0  0  0  0  0  0  0  0  0  0
  186.5920  178.2330  140.7870 C   0  0  0  0  0  0  0  0  0  0  0  0
  184.2310  178.6180  141.3190 C   0  0  0  0  0  0  0  0  0  0  0  0
  179.9290  179.3630  143.1020 C   0  0  0  0  0  3  0  0  0  0  0  0
  188.9480  177.3620  146.6160 C   0  0  0  0  0  0  0  0  0  0  0  0
  188.4810  177.6520  143.9360 N   0  0  0  0  0  0  0  0  0  0  0  0
  181.0230  179.0810  144.0350 N   0  0  0  0  0  0  0  0  0  0  0  0
  187.6760  177.6030  146.4410 C   0  0  0  0  0  3  0  0  0  0  0  0
  190.0510  176.4900  146.7540 C   0  0  2  0  0  3  0  0  0  0  0  0
  185.0030  178.6510  138.9900 C   0  0  0  0  0  3  0  0  0  0  0  0
  185.2660  178.5030  140.3670 C   0  0  0  0  0  0  0  0  0  0  0  0
  182.9680  178.8680  140.9130 C   0  0  0  0  0  3  0  0  0  0  0  0
  186.1670  178.0270  144.5590 C   0  0  0  0  0  3  0  0  0  0  0  0
  183.5960  178.5470  145.0500 F   0  0  0  0  0  0  0  0  0  0  0  0
  179.8380  178.2020  140.8890 C   0  0  0  0  0  1  0  0  0  0  0  0
  184.5170  178.4700  142.7120 C   0  0  0  0  0  0  0  0  0  0  0  0
  181.9220  178.9680  141.8790 N   0  0  0  0  0  0  0  0  0  0  0  0
  191.0550  177.0940  147.7180 C   0  0  0  0  0  2  0  0  0  0  0  0
  192.2510  176.2150  147.8290 C   0  0  0  0  0  0  0  0  0  0  0  0
  193.1570  176.4010  148.8650 O   0  0  0  0  0  1  0  0  0  0  0  0
  192.4260  175.2830  147.0020 O   0  0  0  0  0  0  0  0  0  0  0  0
  1 16  1  0  0  0  0
  1 20  1  0  0  0  0
  2 24  1  0  0  0  0
  3 11  1  0  0  0  0
  4  3  2  0  0  0  0
  4 21  1  0  0  0  0
  5 25  1  0  0  0  0
  6  5  2  0  0  0  0
  6 18  1  0  0  0  0
  7 19  1  0  0  0  0
  8 17  1  0  0  0  0
  9 26  1  6  0  0  0
  9 28  1  0  0  0  0
  9 15  1  0  0  0  0
 10  1  2  3  0  0  0
 11 13  2  0  0  0  0
 12  8  2  0  0  0  0
 12  2  1  0  0  0  0
 13 12  1  0  0  0  0
 14 27  1  0  0  0  0
 15 18  2  0  0  0  0
 16 20  1  0  0  0  0
 17 10  1  0  0  0  0
 17  7  1  0  0  0  0
 19 16  2  0  0  0  0
 20 29  1  1  0  0  0
 21 22  2  0  0  0  0
 22 13  1  0  0  0  0
 22 14  1  0  0  0  0
 23 14  2  0  0  0  0
 23 28  1  0  0  0  0
 24  7  2  0  0  0  0
 27  2  2  0  0  0  0
 27  5  1  0  0  0  0
 28  6  1  0  0  0  0
 29 30  1  0  0  0  0
 30 31  1  0  0  0  0
 32 30  2  0  0  0  0
M  END
>  <MODEL>
1

>  <REMARK>
 VINA RESULT:     -10.8      0.000      0.000
  Name = 
  2 active torsions:
  status: ('A' for Active; 'I' for Inactive)
    1  A    between atoms: C_1  and  C_10
    2  A    between atoms: C_10  and  C_24
                            x       y       z     vdW  Elec       q    Type
                         _______ _______ _______ _____ _____    ______ ____

>  <TORSDO>
F 2

$$$$
=
 OpenBabel10262421213D

 32 38  0  0  1  0  0  0  0  0999 V2000
  182.9070  178.9120  144.5700 C   0  0  0  0  0  0  0  0  0  0  0  0
  187.2200  177.9310  142.3630 C   0  0  0  0  0  0  0  0  0  0  0  0
  190.1910  177.1260  146.1670 C   0  0  0  0  0  3  0  0  0  0  0  0
  191.2500  176.8890  145.2950 C   0  0  0  0  0  3  0  0  0  0  0  0
  188.1100  177.7960  139.9760 C   0  0  0  0  0  0  0  0  0  0  0  0
  189.1590  177.5460  139.1950 C   0  0  0  0  0  0  0  0  0  0  0  0
  184.8560  178.4880  142.6760 C   0  0  0  0  0  0  0  0  0  0  0  0
  186.4040  178.0710  144.6110 C   0  0  0  0  0  3  0  0  0  0  0  0
  191.3640  177.0500  138.6660 C   0  0  2  0  0  3  0  0  0  0  0  0
  184.0480  178.6360  145.1370 C   0  0  0  0  0  3  0  0  0  0  0  0
  188.9300  177.4420  145.6610 C   0  0  0  0  0  3  0  0  0  0  0  0
  187.4270  177.8460  143.7640 C   0  0  0  0  0  0  0  0  0  0  0  0
  188.7050  177.5280  144.2730 C   0  0  0  0  0  0  0  0  0  0  0  0
  189.5820  177.3650  141.9900 C   0  0  0  0  0  0  0  0  0  0  0  0
  190.5570  177.3340  137.3770 C   0  0  0  0  0  3  0  0  0  0  0  0
  182.6500  179.0040  143.0670 C   0  0  0  0  0  0  0  0  0  0  0  0
  185.0920  178.3970  144.1410 N   0  0  0  0  0  0  0  0  0  0  0  0
  189.1850  177.6410  137.7890 N   0  0  0  0  0  0  0  0  0  0  0  0
  183.4980  178.8190  142.0900 C   0  0  0  0  0  3  0  0  0  0  0  0
  181.6700  178.5510  143.9790 C   0  0  2  0  0  3  0  0  0  0  0  0
  191.0480  176.9680  143.9170 C   0  0  0  0  0  3  0  0  0  0  0  0
  189.7820  177.2870  143.3850 C   0  0  0  0  0  0  0  0  0  0  0  0
  190.6100  177.1280  141.1480 C   0  0  0  0  0  3  0  0  0  0  0  0
  185.8710  178.2640  141.8480 C   0  0  0  0  0  3  0  0  0  0  0  0
  186.9340  178.1540  139.4030 F   0  0  0  0  0  0  0  0  0  0  0  0
  191.8910  175.6290  138.6280 C   0  0  0  0  0  1  0  0  0  0  0  0
  188.2930  177.6950  141.4680 C   0  0  0  0  0  0  0  0  0  0  0  0
  190.3970  177.1920  139.7390 N   0  0  0  0  0  0  0  0  0  0  0  0
  180.6600  179.6550  144.2240 C   0  0  0  0  0  2  0  0  0  0  0  0
  179.7430  179.7780  143.0560 C   0  0  0  0  0  0  0  0  0  0  0  0
  178.9310  178.7110  142.6950 O   0  0  0  0  0  1  0  0  0  0  0  0
  179.6800  180.8590  142.4160 O   0  0  0  0  0  0  0  0  0  0  0  0
  1 10  2  3  0  0  0
  2 12  1  0  0  0  0
  4  3  2  0  0  0  0
  5 27  1  0  0  0  0
  6 28  1  0  0  0  0
  6  5  2  0  0  0  0
  7 17  1  0  0  0  0
  9 26  1  6  0  0  0
  9 28  1  0  0  0  0
 11  3  1  0  0  0  0
 12 13  1  0  0  0  0
 12  8  2  0  0  0  0
 13 11  2  0  0  0  0
 14 22  1  0  0  0  0
 15 18  2  0  0  0  0
 15  9  1  0  0  0  0
 16 20  1  0  0  0  0
 16  1  1  0  0  0  0
 17  8  1  0  0  0  0
 17 10  1  0  0  0  0
 18  6  1  0  0  0  0
 19  7  1  0  0  0  0
 19 16  2  0  0  0  0
 20 29  1  1  0  0  0
 20  1  1  0  0  0  0
 21  4  1  0  0  0  0
 22 21  2  0  0  0  0
 22 13  1  0  0  0  0
 23 14  2  0  0  0  0
 24  2  1  0  0  0  0
 24  7  2  0  0  0  0
 25  5  1  0  0  0  0
 27 14  1  0  0  0  0
 27  2  2  0  0  0  0
 28 23  1  0  0  0  0
 30 29  1  0  0  0  0
 31 30  1  0  0  0  0
 32 30  2  0  0  0  0
M  END
>  <MODEL>
2

>  <REMARK>
 VINA RESULT:     -10.3      4.440      8.424
  Name = 
  2 active torsions:
  status: ('A' for Active; 'I' for Inactive)
    1  A    between atoms: C_1  and  C_10
    2  A    between atoms: C_10  and  C_24
                            x       y       z     vdW  Elec       q    Type
                         _______ _______ _______ _____ _____    ______ ____

>  <TORSDO>
F 2

$$$$
=
 OpenBabel10262421213D

 32 38  0  0  1  0  0  0  0  0999 V2000
  181.3610  179.1220  140.8210 C   0  0  0  0  0  0  0  0  0  0  0  0
  185.9300  178.2520  142.4950 C   0  0  0  0  0  0  0  0  0  0  0  0
  185.2980  178.2830  147.3470 C   0  0  0  0  0  3  0  0  0  0  0  0
  186.6540  178.0270  147.5300 C   0  0  0  0  0  3  0  0  0  0  0  0
  188.2450  177.8640  141.4950 C   0  0  0  0  0  0  0  0  0  0  0  0
  189.5280  177.6070  141.7350 C   0  0  0  0  0  0  0  0  0  0  0  0
  184.0620  178.6200  140.9550 C   0  0  0  0  0  0  0  0  0  0  0  0
  183.7660  178.6330  143.4500 C   0  0  0  0  0  3  0  0  0  0  0  0
  191.4400  177.2530  143.0050 C   0  0  2  0  0  3  0  0  0  0  0  0
  181.7530  179.0390  142.0610 C   0  0  0  0  0  3  0  0  0  0  0  0
  184.7800  178.4020  146.0580 C   0  0  0  0  0  3  0  0  0  0  0  0
  185.0790  178.3880  143.6230 C   0  0  0  0  0  0  0  0  0  0  0  0
  185.6080  178.2680  144.9260 C   0  0  0  0  0  0  0  0  0  0  0  0
  187.8380  177.8670  143.9940 C   0  0  0  0  0  0  0  0  0  0  0  0
  191.7950  177.2720  141.4980 C   0  0  0  0  0  3  0  0  0  0  0  0
  182.2490  178.9740  139.5870 C   0  0  0  0  0  0  0  0  0  0  0  0
  183.1860  178.7610  142.1490 N   0  0  0  0  0  0  0  0  0  0  0  0
  190.5470  177.5030  140.7660 N   0  0  0  0  0  0  0  0  0  0  0  0
  183.5320  178.7340  139.5400 C   0  0  0  0  0  3  0  0  0  0  0  0
  180.8960  178.5650  139.6030 C   0  0  2  0  0  3  0  0  0  0  0  0
  187.4910  177.8890  146.4220 C   0  0  0  0  0  3  0  0  0  0  0  0
  186.9880  178.0060  145.1110 C   0  0  0  0  0  0  0  0  0  0  0  0
  189.1510  177.6110  144.1750 C   0  0  0  0  0  3  0  0  0  0  0  0
  185.3560  178.3780  141.1340 C   0  0  0  0  0  3  0  0  0  0  0  0
  187.8340  178.0230  140.2120 F   0  0  0  0  0  0  0  0  0  0  0  0
  191.7890  175.8970  143.5870 C   0  0  0  0  0  1  0  0  0  0  0  0
  187.3120  177.9940  142.6710 C   0  0  0  0  0  0  0  0  0  0  0  0
  190.0030  177.4540  143.0410 N   0  0  0  0  0  0  0  0  0  0  0  0
  180.0490  179.5910  138.8760 C   0  0  0  0  0  2  0  0  0  0  0  0
  180.4260  179.6380  137.4360 C   0  0  0  0  0  0  0  0  0  0  0  0
  180.9430  180.8060  136.8910 O   0  0  0  0  0  1  0  0  0  0  0  0
  180.3060  178.6110  136.7200 O   0  0  0  0  0  0  0  0  0  0  0  0
  1 10  2  3  0  0  0
  2 27  2  0  0  0  0
  2 12  1  0  0  0  0
  3  4  1  0  0  0  0
  5  6  2  0  0  0  0
  5 27  1  0  0  0  0
  6 28  1  0  0  0  0
  7 24  2  0  0  0  0
  7 17  1  0  0  0  0
  8 12  2  0  0  0  0
  9 28  1  0  0  0  0
  9 26  1  6  0  0  0
 10 17  1  0  0  0  0
 11  3  2  0  0  0  0
 12 13  1  0  0  0  0
 13 22  2  0  0  0  0
 13 11  1  0  0  0  0
 14 23  2  0  0  0  0
 14 22  1  0  0  0  0
 15  9  1  0  0  0  0
 16 20  1  0  0  0  0
 16  1  1  0  0  0  0
 17  8  1  0  0  0  0
 18 15  2  0  0  0  0
 18  6  1  0  0  0  0
 19 16  2  0  0  0  0
 19  7  1  0  0  0  0
 20 29  1  6  0  0  0
 20  1  1  0  0  0  0
 21  4  2  0  0  0  0
 22 21  1  0  0  0  0
 24  2  1  0  0  0  0
 25  5  1  0  0  0  0
 27 14  1  0  0  0  0
 28 23  1  0  0  0  0
 30 29  1  0  0  0  0
 31 30  1  0  0  0  0
 32 30  2  0  0  0  0
M  END
>  <MODEL>
3

>  <REMARK>
 VINA RESULT:     -10.2      4.746      9.275
  Name = 
  2 active torsions:
  status: ('A' for Active; 'I' for Inactive)
    1  A    between atoms: C_1  and  C_10
    2  A    between atoms: C_10  and  C_24
                            x       y       z     vdW  Elec       q    Type
                         _______ _______ _______ _____ _____    ______ ____

>  <TORSDO>
F 2

$$$$
=
 OpenBabel10262421213D

 32 38  0  0  1  0  0  0  0  0999 V2000
  190.4600  177.0770  140.3890 C   0  0  0  0  0  0  0  0  0  0  0  0
  185.8850  178.1040  141.9570 C   0  0  0  0  0  0  0  0  0  0  0  0
  186.4380  178.2130  146.8170 C   0  0  0  0  0  3  0  0  0  0  0  0
  185.0850  178.5060  146.9680 C   0  0  0  0  0  3  0  0  0  0  0  0
  183.5970  178.5120  140.9050 C   0  0  0  0  0  0  0  0  0  0  0  0
  182.3160  178.8060  141.1150 C   0  0  0  0  0  0  0  0  0  0  0  0
  187.7700  177.6440  140.4600 C   0  0  0  0  0  0  0  0  0  0  0  0
  188.0240  177.7050  142.9600 C   0  0  0  0  0  3  0  0  0  0  0  0
  180.3930  179.2440  142.3400 C   0  0  2  0  0  3  0  0  0  0  0  0
  190.0490  177.2090  141.6190 C   0  0  0  0  0  3  0  0  0  0  0  0
  186.9740  178.0410  145.5410 C   0  0  0  0  0  3  0  0  0  0  0  0
  186.7140  177.9850  143.1020 C   0  0  0  0  0  0  0  0  0  0  0  0
  186.1680  178.1580  144.3920 C   0  0  0  0  0  0  0  0  0  0  0  0
  183.9620  178.5800  143.4090 C   0  0  0  0  0  0  0  0  0  0  0  0
  180.0620  179.1840  140.8290 C   0  0  0  0  0  3  0  0  0  0  0  0
  189.5960  177.2060  139.1350 C   0  0  0  0  0  0  0  0  0  0  0  0
  188.6220  177.5220  141.6730 N   0  0  0  0  0  0  0  0  0  0  0  0
  181.3160  178.9030  140.1270 N   0  0  0  0  0  0  0  0  0  0  0  0
  188.3190  177.4730  139.0590 C   0  0  0  0  0  3  0  0  0  0  0  0
  190.9570  177.5850  139.1620 C   0  0  2  0  0  3  0  0  0  0  0  0
  184.2700  178.6270  145.8430 C   0  0  0  0  0  3  0  0  0  0  0  0
  184.7910  178.4570  144.5450 C   0  0  0  0  0  0  0  0  0  0  0  0
  182.6530  178.8720  143.5600 C   0  0  0  0  0  3  0  0  0  0  0  0
  186.4780  177.9210  140.6100 C   0  0  0  0  0  3  0  0  0  0  0  0
  184.0240  178.3030  139.6350 F   0  0  0  0  0  0  0  0  0  0  0  0
  180.0650  180.6250  142.8740 C   0  0  0  0  0  1  0  0  0  0  0  0
  184.5070  178.3980  142.1000 C   0  0  0  0  0  0  0  0  0  0  0  0
  181.8240  179.0120  142.4080 N   0  0  0  0  0  0  0  0  0  0  0  0
  191.7920  176.5170  138.4820 C   0  0  0  0  0  2  0  0  0  0  0  0
  193.2320  176.8930  138.5180 C   0  0  0  0  0  0  0  0  0  0  0  0
  193.8290  177.2420  139.7220 O   0  0  0  0  0  1  0  0  0  0  0  0
  193.9180  176.8620  137.4640 O   0  0  0  0  0  0  0  0  0  0  0  0
  1 10  2  3  0  0  0
  2 27  2  0  0  0  0
  2 12  1  0  0  0  0
  3  4  1  0  0  0  0
  5  6  2  0  0  0  0
  5 27  1  0  0  0  0
  6 28  1  0  0  0  0
  7 24  2  0  0  0  0
  7 17  1  0  0  0  0
  8 12  2  0  0  0  0
  9 28  1  0  0  0  0
  9 26  1  6  0  0  0
 10 17  1  0  0  0  0
 11  3  2  0  0  0  0
 12 13  1  0  0  0  0
 13 22  2  0  0  0  0
 13 11  1  0  0  0  0
 14 23  2  0  0  0  0
 14 22  1  0  0  0  0
 15  9  1  0  0  0  0
 16 20  1  0  0  0  0
 16  1  1  0  0  0  0
 17  8  1  0  0  0  0
 18 15  2  0  0  0  0
 18  6  1  0  0  0  0
 19 16  2  0  0  0  0
 19  7  1  0  0  0  0
 20 29  1  6  0  0  0
 20  1  1  0  0  0  0
 21  4  2  0  0  0  0
 22 21  1  0  0  0  0
 24  2  1  0  0  0  0
 25  5  1  0  0  0  0
 27 14  1  0  0  0  0
 28 23  1  0  0  0  0
 29 30  1  0  0  0  0
 30 31  1  0  0  0  0
 32 30  2  0  0  0  0
M  END
>  <MODEL>
4

>  <REMARK>
 VINA RESULT:      -9.7      3.103      5.453
  Name = 
  2 active torsions:
  status: ('A' for Active; 'I' for Inactive)
    1  A    between atoms: C_1  and  C_10
    2  A    between atoms: C_10  and  C_24
                            x       y       z     vdW  Elec       q    Type
                         _______ _______ _______ _____ _____    ______ ____

>  <TORSDO>
F 2

$$$$
=
 OpenBabel10262421213D

 32 38  0  0  1  0  0  0  0  0999 V2000
  190.5610  176.8390  137.0120 C   0  0  0  0  0  0  0  0  0  0  0  0
  189.4360  177.3700  141.7960 C   0  0  0  0  0  0  0  0  0  0  0  0
  184.8350  179.0270  141.6190 C   0  0  0  0  0  3  0  0  0  0  0  0
  184.7940  179.0750  143.0100 C   0  0  0  0  0  3  0  0  0  0  0  0
  190.6020  177.0290  144.0400 C   0  0  0  0  0  0  0  0  0  0  0  0
  190.4960  177.0840  145.3650 C   0  0  0  0  0  0  0  0  0  0  0  0
  190.6960  176.8590  139.7590 C   0  0  0  0  0  0  0  0  0  0  0  0
  188.3330  177.7130  139.6970 C   0  0  0  0  0  3  0  0  0  0  0  0
  189.4990  177.5190  147.4170 C   0  0  2  0  0  3  0  0  0  0  0  0
  189.4420  177.2680  137.5250 C   0  0  0  0  0  3  0  0  0  0  0  0
  185.9920  178.5940  140.9720 C   0  0  0  0  0  3  0  0  0  0  0  0
  188.2980  177.7600  141.0430 C   0  0  0  0  0  0  0  0  0  0  0  0
  187.1300  178.2000  141.7020 C   0  0  0  0  0  0  0  0  0  0  0  0
  188.2160  177.8570  143.8730 C   0  0  0  0  0  0  0  0  0  0  0  0
  190.9630  177.0560  147.6210 C   0  0  0  0  0  3  0  0  0  0  0  0
  191.7990  176.4060  137.7940 C   0  0  0  0  0  0  0  0  0  0  0  0
  189.4950  177.2740  138.9870 N   0  0  0  0  0  0  0  0  0  0  0  0
  191.5220  176.8070  146.2900 N   0  0  0  0  0  0  0  0  0  0  0  0
  191.9660  176.3750  139.0900 C   0  0  0  0  0  3  0  0  0  0  0  0
  191.4340  175.8170  136.5620 C   0  0  2  0  0  3  0  0  0  0  0  0
  185.9100  178.6880  143.7520 C   0  0  0  0  0  3  0  0  0  0  0  0
  187.0890  178.2470  143.1180 C   0  0  0  0  0  0  0  0  0  0  0  0
  188.1690  177.8970  145.2210 C   0  0  0  0  0  3  0  0  0  0  0  0
  190.6530  176.9090  141.0870 C   0  0  0  0  0  3  0  0  0  0  0  0
  191.7830  176.6520  143.4900 F   0  0  0  0  0  0  0  0  0  0  0  0
  188.5620  176.5350  148.0900 C   0  0  0  0  0  1  0  0  0  0  0  0
  189.4050  177.4180  143.2120 C   0  0  0  0  0  0  0  0  0  0  0  0
  189.3050  177.4850  145.9790 N   0  0  0  0  0  0  0  0  0  0  0  0
  192.3180  176.3660  135.4590 C   0  0  0  0  0  2  0  0  0  0  0  0
  193.7360  175.9800  135.6990 C   0  0  0  0  0  0  0  0  0  0  0  0
  194.6720  176.9480  136.0410 O   0  0  0  0  0  1  0  0  0  0  0  0
  194.0810  174.7730  135.6260 O   0  0  0  0  0  0  0  0  0  0  0  0
  1 10  2  3  0  0  0
  1 16  1  0  0  0  0
  2 27  2  0  0  0  0
  3  4  1  0  0  0  0
  4 21  2  0  0  0  0
  5  6  2  0  0  0  0
  6 28  1  0  0  0  0
  6 18  1  0  0  0  0
  7 24  2  0  0  0  0
  8 12  2  0  0  0  0
  9 15  1  0  0  0  0
  9 26  1  1  0  0  0
 10 17  1  0  0  0  0
 11  3  2  0  0  0  0
 11 13  1  0  0  0  0
 12 13  1  0  0  0  0
 12  2  1  0  0  0  0
 13 22  2  0  0  0  0
 14 23  2  0  0  0  0
 16 19  2  0  0  0  0
 17  8  1  0  0  0  0
 17  7  1  0  0  0  0
 18 15  2  0  0  0  0
 19  7  1  0  0  0  0
 20 29  1  6  0  0  0
 20  1  1  0  0  0  0
 20 16  1  0  0  0  0
 22 21  1  0  0  0  0
 22 14  1  0  0  0  0
 23 28  1  0  0  0  0
 24  2  1  0  0  0  0
 25  5  1  0  0  0  0
 27 14  1  0  0  0  0
 27  5  1  0  0  0  0
 28  9  1  0  0  0  0
 29 30  1  0  0  0  0
 30 31  1  0  0  0  0
 32 30  2  0  0  0  0
M  END
>  <MODEL>
5

>  <REMARK>
 VINA RESULT:      -9.6      4.439      8.069
  Name = 
  2 active torsions:
  status: ('A' for Active; 'I' for Inactive)
    1  A    between atoms: C_1  and  C_10
    2  A    between atoms: C_10  and  C_24
                            x       y       z     vdW  Elec       q    Type
                         _______ _______ _______ _____ _____    ______ ____

>  <TORSDO>
F 2

$$$$
=
 OpenBabel10262421213D

 32 38  0  0  1  0  0  0  0  0999 V2000
  183.9980  178.9770  138.7610 C   0  0  0  0  0  0  0  0  0  0  0  0
  186.9340  178.1070  142.6400 C   0  0  0  0  0  0  0  0  0  0  0  0
  191.2910  177.4050  140.5280 C   0  0  0  0  0  3  0  0  0  0  0  0
  191.8690  177.2000  141.7780 C   0  0  0  0  0  3  0  0  0  0  0  0
  186.6840  177.9450  145.1750 C   0  0  0  0  0  0  0  0  0  0  0  0
  187.2980  177.7540  146.3400 C   0  0  0  0  0  0  0  0  0  0  0  0
  184.9320  178.6040  141.3200 C   0  0  0  0  0  0  0  0  0  0  0  0
  187.1810  178.2370  140.2610 C   0  0  0  0  0  3  0  0  0  0  0  0
  189.0540  177.2790  147.7820 C   0  0  2  0  0  3  0  0  0  0  0  0
  185.2740  178.7150  138.7510 C   0  0  0  0  0  3  0  0  0  0  0  0
  189.9280  177.6800  140.4280 C   0  0  0  0  0  3  0  0  0  0  0  0
  187.7360  178.0370  141.4720 C   0  0  0  0  0  0  0  0  0  0  0  0
  189.1150  177.7560  141.5770 C   0  0  0  0  0  0  0  0  0  0  0  0
  188.9110  177.6210  144.0150 C   0  0  0  0  0  0  0  0  0  0  0  0
  187.7340  177.4220  148.5770 C   0  0  0  0  0  3  0  0  0  0  0  0
  183.1080  179.0670  139.9990 C   0  0  0  0  0  0  0  0  0  0  0  0
  185.7880  178.5240  140.1070 N   0  0  0  0  0  0  0  0  0  0  0  0
  186.6780  177.7150  147.6050 N   0  0  0  0  0  0  0  0  0  0  0  0
  183.4500  178.9100  141.2510 C   0  0  0  0  0  3  0  0  0  0  0  0
  182.8900  179.8580  138.8490 C   0  0  2  0  0  3  0  0  0  0  0  0
  191.0830  177.2730  142.9280 C   0  0  0  0  0  3  0  0  0  0  0  0
  189.7030  177.5490  142.8490 C   0  0  0  0  0  0  0  0  0  0  0  0
  189.4770  177.4300  145.2260 C   0  0  0  0  0  3  0  0  0  0  0  0
  185.4880  178.4050  142.5110 C   0  0  0  0  0  3  0  0  0  0  0  0
  185.3430  178.1500  145.1630 F   0  0  0  0  0  0  0  0  0  0  0  0
  190.0370  178.3380  148.2430 C   0  0  0  0  0  1  0  0  0  0  0  0
  187.5120  177.8970  143.9170 C   0  0  0  0  0  0  0  0  0  0  0  0
  188.6750  177.5200  146.4020 N   0  0  0  0  0  0  0  0  0  0  0  0
  181.7320  179.2840  138.0540 C   0  0  0  0  0  2  0  0  0  0  0  0
  181.1630  180.3240  137.1540 C   0  0  0  0  0  0  0  0  0  0  0  0
  181.1630  181.6570  137.5450 O   0  0  0  0  0  1  0  0  0  0  0  0
  180.7130  180.0010  136.0240 O   0  0  0  0  0  0  0  0  0  0  0  0
  1 20  1  0  0  0  0
  1 16  1  0  0  0  0
  2 27  2  0  0  0  0
  3  4  1  0  0  0  0
  4 21  2  0  0  0  0
  5  6  2  0  0  0  0
  6 28  1  0  0  0  0
  6 18  1  0  0  0  0
  7 24  2  0  0  0  0
  8 12  2  0  0  0  0
  9 26  1  1  0  0  0
  9 15  1  0  0  0  0
 10  1  2  3  0  0  0
 10 17  1  0  0  0  0
 11  3  2  0  0  0  0
 11 13  1  0  0  0  0
 12 13  1  0  0  0  0
 12  2  1  0  0  0  0
 13 22  2  0  0  0  0
 14 23  2  0  0  0  0
 16 19  2  0  0  0  0
 17  8  1  0  0  0  0
 17  7  1  0  0  0  0
 18 15  2  0  0  0  0
 19  7  1  0  0  0  0
 20 29  1  6  0  0  0
 20 16  1  0  0  0  0
 22 21  1  0  0  0  0
 22 14  1  0  0  0  0
 23 28  1  0  0  0  0
 24  2  1  0  0  0  0
 25  5  1  0  0  0  0
 27 14  1  0  0  0  0
 27  5  1  0  0  0  0
 28  9  1  0  0  0  0
 30 31  1  0  0  0  0
 30 29  1  0  0  0  0
 32 30  2  0  0  0  0
M  END
>  <MODEL>
6

>  <REMARK>
 VINA RESULT:      -9.5      4.681      8.424
  Name = 
  2 active torsions:
  status: ('A' for Active; 'I' for Inactive)
    1  A    between atoms: C_1  and  C_10
    2  A    between atoms: C_10  and  C_24
                            x       y       z     vdW  Elec       q    Type
                         _______ _______ _______ _____ _____    ______ ____

>  <TORSDO>
F 2

$$$$
=
 OpenBabel10262421213D

 32 38  0  0  1  0  0  0  0  0999 V2000
  191.3770  176.9040  145.7170 C   0  0  0  0  0  0  0  0  0  0  0  0
  188.4200  177.7560  141.8490 C   0  0  0  0  0  0  0  0  0  0  0  0
  191.3380  176.7530  138.0520 C   0  0  0  0  0  3  0  0  0  0  0  0
  190.3040  177.0570  137.1710 C   0  0  0  0  0  3  0  0  0  0  0  0
  186.0180  178.5270  141.4660 C   0  0  0  0  0  0  0  0  0  0  0  0
  185.0670  178.7910  140.5750 C   0  0  0  0  0  0  0  0  0  0  0  0
  189.2060  177.5540  144.1600 C   0  0  0  0  0  0  0  0  0  0  0  0
  190.6830  177.0470  142.1920 C   0  0  0  0  0  3  0  0  0  0  0  0
  184.1190  179.0670  138.4730 C   0  0  2  0  0  3  0  0  0  0  0  0
  191.6690  176.7960  144.4520 C   0  0  0  0  0  3  0  0  0  0  0  0
  191.1320  176.8490  139.4270 C   0  0  0  0  0  3  0  0  0  0  0  0
  189.6800  177.3460  141.3430 C   0  0  0  0  0  0  0  0  0  0  0  0
  189.8860  177.2510  139.9500 C   0  0  0  0  0  0  0  0  0  0  0  0
  187.5760  177.9650  139.5520 C   0  0  0  0  0  0  0  0  0  0  0  0
  183.1070  179.4700  139.5720 C   0  0  0  0  0  3  0  0  0  0  0  0
  190.0300  177.3350  146.2950 C   0  0  0  0  0  0  0  0  0  0  0  0
  190.5200  177.1280  143.6110 N   0  0  0  0  0  0  0  0  0  0  0  0
  183.7740  179.2740  140.8620 N   0  0  0  0  0  0  0  0  0  0  0  0
  188.9420  177.6600  145.6480 C   0  0  0  0  0  3  0  0  0  0  0  0
  190.8720  176.4040  146.9440 C   0  0  2  0  0  3  0  0  0  0  0  0
  189.0630  177.4570  137.6670 C   0  0  0  0  0  3  0  0  0  0  0  0
  188.8330  177.5610  139.0540 C   0  0  0  0  0  0  0  0  0  0  0  0
  186.5730  178.2520  138.6940 C   0  0  0  0  0  3  0  0  0  0  0  0
  188.2220  177.8460  143.3160 C   0  0  0  0  0  3  0  0  0  0  0  0
  185.7520  178.7030  142.7850 F   0  0  0  0  0  0  0  0  0  0  0  0
  183.5600  177.9050  137.6750 C   0  0  0  0  0  1  0  0  0  0  0  0
  187.3620  178.0710  140.9610 C   0  0  0  0  0  0  0  0  0  0  0  0
  185.3000  178.6440  139.2040 N   0  0  0  0  0  0  0  0  0  0  0  0
  191.5880  177.0870  148.0940 C   0  0  0  0  0  2  0  0  0  0  0  0
  192.8060  176.3170  148.4690 C   0  0  0  0  0  0  0  0  0  0  0  0
  193.6100  176.7530  149.5140 O   0  0  0  0  0  1  0  0  0  0  0  0
  193.0900  175.2530  147.8600 O   0  0  0  0  0  0  0  0  0  0  0  0
  1 16  1  0  0  0  0
  1 20  1  0  0  0  0
  2 24  1  0  0  0  0
  3 11  1  0  0  0  0
  4 21  1  0  0  0  0
  4  3  2  0  0  0  0
  5 25  1  0  0  0  0
  6 18  1  0  0  0  0
  6  5  2  0  0  0  0
  7 19  1  0  0  0  0
  8 17  1  0  0  0  0
  9 26  1  1  0  0  0
  9 28  1  0  0  0  0
  9 15  1  0  0  0  0
 10  1  2  3  0  0  0
 11 13  2  0  0  0  0
 12  2  1  0  0  0  0
 12  8  2  0  0  0  0
 13 12  1  0  0  0  0
 14 27  1  0  0  0  0
 15 18  2  0  0  0  0
 16 20  1  0  0  0  0
 17  7  1  0  0  0  0
 17 10  1  0  0  0  0
 19 16  2  0  0  0  0
 20 29  1  1  0  0  0
 21 22  2  0  0  0  0
 22 14  1  0  0  0  0
 22 13  1  0  0  0  0
 23 28  1  0  0  0  0
 23 14  2  0  0  0  0
 24  7  2  0  0  0  0
 27  5  1  0  0  0  0
 27  2  2  0  0  0  0
 28  6  1  0  0  0  0
 29 30  1  0  0  0  0
 30 31  1  0  0  0  0
 32 30  2  0  0  0  0
M  END
>  <MODEL>
7

>  <REMARK>
 VINA RESULT:      -9.4      2.117      3.266
  Name = 
  2 active torsions:
  status: ('A' for Active; 'I' for Inactive)
    1  A    between atoms: C_1  and  C_10
    2  A    between atoms: C_10  and  C_24
                            x       y       z     vdW  Elec       q    Type
                         _______ _______ _______ _____ _____    ______ ____

>  <TORSDO>
F 2

$$$$
=
 OpenBabel10262421213D

 32 38  0  0  1  0  0  0  0  0999 V2000
  188.2160  177.6360  137.8120 C   0  0  0  0  0  0  0  0  0  0  0  0
  187.5790  177.9420  142.7040 C   0  0  0  0  0  0  0  0  0  0  0  0
  182.8210  179.0200  143.0820 C   0  0  0  0  0  3  0  0  0  0  0  0
  182.9310  179.0390  144.4700 C   0  0  0  0  0  3  0  0  0  0  0  0
  189.0230  177.7100  144.7960 C   0  0  0  0  0  0  0  0  0  0  0  0
  189.0600  177.7290  146.1250 C   0  0  0  0  0  0  0  0  0  0  0  0
  188.6550  177.6260  140.5270 C   0  0  0  0  0  0  0  0  0  0  0  0
  186.2150  178.1820  140.7500 C   0  0  0  0  0  3  0  0  0  0  0  0
  188.2550  178.0020  148.2860 C   0  0  2  0  0  3  0  0  0  0  0  0
  187.1180  177.9150  138.4570 C   0  0  0  0  0  3  0  0  0  0  0  0
  183.9420  178.7450  142.2990 C   0  0  0  0  0  3  0  0  0  0  0  0
  186.3260  178.2020  142.0930 C   0  0  0  0  0  0  0  0  0  0  0  0
  185.1950  178.4820  142.8880 C   0  0  0  0  0  0  0  0  0  0  0  0
  186.5500  178.2390  144.9160 C   0  0  0  0  0  0  0  0  0  0  0  0
  189.7770  177.7200  148.3150 C   0  0  0  0  0  3  0  0  0  0  0  0
  189.5780  177.3460  138.4400 C   0  0  0  0  0  0  0  0  0  0  0  0
  187.3340  177.9020  139.9040 N   0  0  0  0  0  0  0  0  0  0  0  0
  190.2100  177.5640  146.9240 N   0  0  0  0  0  0  0  0  0  0  0  0
  189.8910  177.3140  139.7080 C   0  0  0  0  0  3  0  0  0  0  0  0
  189.1500  176.7380  137.2380 C   0  0  2  0  0  3  0  0  0  0  0  0
  184.1620  178.7800  145.0740 C   0  0  0  0  0  3  0  0  0  0  0  0
  185.3070  178.5000  144.3010 C   0  0  0  0  0  0  0  0  0  0  0  0
  186.6510  178.2500  146.2620 C   0  0  0  0  0  3  0  0  0  0  0  0
  188.7560  177.6470  141.8520 C   0  0  0  0  0  3  0  0  0  0  0  0
  190.1720  177.4910  144.1080 F   0  0  0  0  0  0  0  0  0  0  0  0
  187.5250  176.8980  149.0270 C   0  0  0  0  0  1  0  0  0  0  0  0
  187.7020  177.9620  144.1160 C   0  0  0  0  0  0  0  0  0  0  0  0
  187.9060  177.9690  146.8780 N   0  0  0  0  0  0  0  0  0  0  0  0
  189.8320  177.4110  136.0620 C   0  0  0  0  0  2  0  0  0  0  0  0
  190.2470  176.3910  135.0590 C   0  0  0  0  0  0  0  0  0  0  0  0
  189.3280  175.4600  134.5940 O   0  0  0  0  0  0  0  0  0  0  0  0
  191.4220  176.3930  134.6090 O   0  0  0  0  0  1  0  0  0  0  0  0
  1 16  1  0  0  0  0
  1 10  2  3  0  0  0
  2 27  2  0  0  0  0
  3  4  1  0  0  0  0
  4 21  2  0  0  0  0
  5  6  2  0  0  0  0
  6 28  1  0  0  0  0
  6 18  1  0  0  0  0
  7 24  2  0  0  0  0
  8 12  2  0  0  0  0
  9 15  1  0  0  0  0
  9 26  1  1  0  0  0
 10 17  1  0  0  0  0
 11 13  1  0  0  0  0
 11  3  2  0  0  0  0
 12  2  1  0  0  0  0
 12 13  1  0  0  0  0
 13 22  2  0  0  0  0
 14 23  2  0  0  0  0
 16 19  2  0  0  0  0
 17  7  1  0  0  0  0
 17  8  1  0  0  0  0
 18 15  2  0  0  0  0
 19  7  1  0  0  0  0
 20 29  1  6  0  0  0
 20  1  1  0  0  0  0
 20 16  1  0  0  0  0
 22 14  1  0  0  0  0
 22 21  1  0  0  0  0
 23 28  1  0  0  0  0
 24  2  1  0  0  0  0
 25  5  1  0  0  0  0
 27  5  1  0  0  0  0
 27 14  1  0  0  0  0
 28  9  1  0  0  0  0
 30 29  1  0  0  0  0
 31 30  2  0  0  0  0
 32 30  1  0  0  0  0
M  END
>  <MODEL>
8

>  <REMARK>
 VINA RESULT:      -9.3      4.236      7.817
  Name = 
  2 active torsions:
  status: ('A' for Active; 'I' for Inactive)
    1  A    between atoms: C_1  and  C_10
    2  A    between atoms: C_10  and  C_24
                            x       y       z     vdW  Elec       q    Type
                         _______ _______ _______ _____ _____    ______ ____

>  <TORSDO>
F 2

$$$$
=
 OpenBabel10262421213D

 32 38  0  0  1  0  0  0  0  0999 V2000
  189.0640  177.5980  145.5760 C   0  0  0  0  0  0  0  0  0  0  0  0
  185.8090  178.3070  141.9240 C   0  0  0  0  0  0  0  0  0  0  0  0
  188.6650  178.2970  137.9510 C   0  0  0  0  0  3  0  0  0  0  0  0
  187.5490  178.4990  137.1430 C   0  0  0  0  0  3  0  0  0  0  0  0
  183.2900  178.6530  141.7060 C   0  0  0  0  0  0  0  0  0  0  0  0
  182.2630  178.8320  140.8800 C   0  0  0  0  0  0  0  0  0  0  0  0
  186.7340  178.0000  144.1710 C   0  0  0  0  0  0  0  0  0  0  0  0
  188.1780  178.0010  142.1140 C   0  0  0  0  0  3  0  0  0  0  0  0
  181.1760  179.1580  138.8540 C   0  0  2  0  0  3  0  0  0  0  0  0
  189.3060  177.6880  144.2990 C   0  0  0  0  0  3  0  0  0  0  0  0
  188.5140  178.1990  139.3340 C   0  0  0  0  0  3  0  0  0  0  0  0
  187.0960  178.1990  141.3360 C   0  0  0  0  0  0  0  0  0  0  0  0
  187.2440  178.3010  139.9360 C   0  0  0  0  0  0  0  0  0  0  0  0
  184.8250  178.6090  139.6930 C   0  0  0  0  0  0  0  0  0  0  0  0
  180.1640  179.2390  140.0230 C   0  0  0  0  0  3  0  0  0  0  0  0
  187.6920  177.7020  146.2400 C   0  0  0  0  0  0  0  0  0  0  0  0
  188.0750  177.8910  143.5370 N   0  0  0  0  0  0  0  0  0  0  0  0
  180.9200  179.0290  141.2600 N   0  0  0  0  0  0  0  0  0  0  0  0
  186.5310  177.8880  145.6680 C   0  0  0  0  0  3  0  0  0  0  0  0
  188.7210  176.8790  146.7490 C   0  0  2  0  0  3  0  0  0  0  0  0
  186.2830  178.6010  137.7190 C   0  0  0  0  0  3  0  0  0  0  0  0
  186.1080  178.5050  139.1150 C   0  0  0  0  0  0  0  0  0  0  0  0
  183.7450  178.7970  138.9060 C   0  0  0  0  0  3  0  0  0  0  0  0
  185.6720  178.1950  143.3960 C   0  0  0  0  0  3  0  0  0  0  0  0
  183.0630  178.6280  143.0430 F   0  0  0  0  0  0  0  0  0  0  0  0
  180.7980  178.0080  137.9400 C   0  0  0  0  0  1  0  0  0  0  0  0
  184.6670  178.5150  141.1110 C   0  0  0  0  0  0  0  0  0  0  0  0
  182.4490  178.8850  139.4950 N   0  0  0  0  0  0  0  0  0  0  0  0
  189.3570  177.5520  147.9500 C   0  0  0  0  0  2  0  0  0  0  0  0
  190.7680  177.1000  148.1030 C   0  0  0  0  0  0  0  0  0  0  0  0
  191.1780  175.9010  147.5350 O   0  0  0  0  0  0  0  0  0  0  0  0
  191.5960  177.8190  148.7180 O   0  0  0  0  0  1  0  0  0  0  0  0
  1 16  1  0  0  0  0
  1 20  1  0  0  0  0
  2 24  1  0  0  0  0
  3 11  1  0  0  0  0
  4 21  1  0  0  0  0
  4  3  2  0  0  0  0
  5 25  1  0  0  0  0
  6 18  1  0  0  0  0
  6  5  2  0  0  0  0
  7 19  1  0  0  0  0
  8 17  1  0  0  0  0
  9 26  1  6  0  0  0
  9 28  1  0  0  0  0
  9 15  1  0  0  0  0
 10  1  2  3  0  0  0
 11 13  2  0  0  0  0
 12  2  1  0  0  0  0
 12  8  2  0  0  0  0
 13 12  1  0  0  0  0
 14 27  1  0  0  0  0
 15 18  2  0  0  0  0
 16 20  1  0  0  0  0
 17  7  1  0  0  0  0
 17 10  1  0  0  0  0
 19 16  2  0  0  0  0
 20 29  1  1  0  0  0
 21 22  2  0  0  0  0
 22 14  1  0  0  0  0
 22 13  1  0  0  0  0
 23 28  1  0  0  0  0
 23 14  2  0  0  0  0
 24  7  2  0  0  0  0
 27  5  1  0  0  0  0
 27  2  2  0  0  0  0
 28  6  1  0  0  0  0
 29 30  1  0  0  0  0
 30 32  1  0  0  0  0
 31 30  2  0  0  0  0
M  END
>  <MODEL>
9

>  <REMARK>
 VINA RESULT:      -9.1      1.355      1.883
  Name = 
  2 active torsions:
  status: ('A' for Active; 'I' for Inactive)
    1  A    between atoms: C_1  and  C_10
    2  A    between atoms: C_10  and  C_24
                            x       y       z     vdW  Elec       q    Type
                         _______ _______ _______ _____ _____    ______ ____

>  <TORSDO>
F 2

$$$$
