=
 OpenBabel10262421343D

 32 36  0  0  1  0  0  0  0  0999 V2000
  184.5740  178.3760  145.2860 C   0  0  2  0  0  3  0  0  0  0  0  0
  187.0290  178.3270  141.6830 C   0  0  0  0  0  0  0  0  0  0  0  0
  191.0150  176.9020  144.3230 C   0  0  0  0  0  3  0  0  0  0  0  0
  191.7080  176.9660  143.1860 C   0  0  0  0  0  3  0  0  0  0  0  0
  184.7620  178.4200  142.7770 C   0  0  1  0  0  3  0  0  0  0  0  0
  186.7410  177.8380  144.2060 C   0  0  0  0  0  2  0  0  0  0  0  0
  185.1050  178.8870  146.4570 F   0  0  0  0  0  0  0  0  0  0  0  0
  189.5250  177.1130  144.3800 C   0  0  0  0  0  3  0  0  0  0  0  0
  187.6300  177.9430  142.9930 C   0  0  0  0  0  0  0  0  0  0  0  0
  188.9260  177.5780  143.0710 C   0  0  0  0  0  0  0  0  0  0  0  0
  189.1320  177.9070  140.5820 N   0  0  0  0  0  0  0  0  0  0  0  0
  182.6930  178.5540  143.6790 C   0  0  1  0  0  3  0  0  0  0  0  0
  185.4900  178.7070  144.1050 C   0  0  2  0  0  3  0  0  0  0  0  0
  183.5460  179.1250  142.7190 O   0  0  0  0  0  0  0  0  0  0  0  0
  183.1710  178.9340  145.0780 C   0  0  0  0  0  2  0  0  0  0  0  0
  191.0570  177.2840  141.9070 C   0  0  0  0  0  3  0  0  0  0  0  0
  189.7540  177.5730  141.8370 C   0  0  1  0  0  3  0  0  0  0  0  0
  185.6310  178.8590  141.6020 C   0  0  0  0  0  2  0  0  0  0  0  0
  187.7590  178.3140  140.5660 C   0  0  0  0  0  3  0  0  0  0  0  0
  181.2950  179.0300  143.4660 C   0  0  0  0  0  0  0  0  0  0  0  0
  180.2100  178.2780  144.0050 N   0  0  0  0  0  2  0  0  0  0  0  0
  181.0740  180.0940  142.8280 O   0  0  0  0  0  0  0  0  0  0  0  0
  178.9310  178.6860  143.8360 O   0  0  0  0  0  1  0  0  0  0  0  0
  189.8490  177.8260  139.3140 C   0  0  0  0  0  2  0  0  0  0  0  0
  186.6140  174.5370  136.7900 S   0  0  0  0  0  1  0  0  0  0  0  0
  188.2770  176.3570  138.0350 C   0  0  0  0  0  3  0  0  0  0  0  0
  188.6180  178.6310  137.2680 C   0  0  0  0  0  0  0  0  0  0  0  0
  187.7330  178.4020  136.2110 C   0  0  0  0  0  3  0  0  0  0  0  0
  187.1210  177.1540  136.0630 C   0  0  0  0  0  3  0  0  0  0  0  0
  187.3930  176.1320  136.9760 C   0  0  0  0  0  0  0  0  0  0  0  0
  189.1960  179.8510  137.4000 F   0  0  0  0  0  0  0  0  0  0  0  0
  188.8930  177.6040  138.1860 C   0  0  0  0  0  0  0  0  0  0  0  0
  1  7  1  1  0  0  0
  2  9  1  0  0  0  0
  3  8  2  0  0  0  0
  4  3  1  0  0  0  0
  5 18  1  6  0  0  0
  5 13  1  0  0  0  0
  9 10  2  0  0  0  0
  9  6  1  0  0  0  0
 10  8  1  0  0  0  0
 11 17  1  0  0  0  0
 12 20  1  6  0  0  0
 12 15  1  0  0  0  0
 13  6  1  1  0  0  0
 13  1  1  0  0  0  0
 14  5  1  0  0  0  0
 14 12  1  0  0  0  0
 15  1  1  0  0  0  0
 16  4  2  0  0  0  0
 17 16  1  1  0  0  0
 17 10  1  0  0  0  0
 18  2  1  0  0  0  0
 19 11  1  0  0  0  0
 19  2  2  0  0  0  0
 20 21  1  0  0  0  0
 22 20  2  0  0  0  0
 23 21  1  0  0  0  0
 24 11  1  0  0  0  0
 25 30  1  0  0  0  0
 26 32  1  0  0  0  0
 27 31  1  0  0  0  0
 27 32  2  0  0  0  0
 28 27  1  0  0  0  0
 29 28  2  0  0  0  0
 29 30  1  0  0  0  0
 30 26  2  0  0  0  0
 32 24  1  0  0  0  0
M  END
>  <MODEL>
1

>  <REMARK>
 VINA RESULT:     -10.4      0.000      0.000
  Name = 
  3 active torsions:
  status: ('A' for Active; 'I' for Inactive)
    1  A    between atoms: C_1  and  C_19
    2  A    between atoms: N_16  and  C_27
    3  A    between atoms: C_27  and  C_32
                            x       y       z     vdW  Elec       q    Type
                         _______ _______ _______ _____ _____    ______ ____

>  <TORSDO>
F 3

$$$$
=
 OpenBabel10262421343D

 32 36  0  0  1  0  0  0  0  0999 V2000
  187.2820  177.5830  146.5130 C   0  0  2  0  0  3  0  0  0  0  0  0
  186.2780  178.2680  142.3250 C   0  0  0  0  0  0  0  0  0  0  0  0
  181.4960  179.0440  143.5170 C   0  0  0  0  0  3  0  0  0  0  0  0
  181.2620  179.1840  142.2110 C   0  0  0  0  0  3  0  0  0  0  0  0
  188.0040  178.0250  144.1420 C   0  0  1  0  0  3  0  0  0  0  0  0
  185.6000  178.2630  144.8210 C   0  0  0  0  0  2  0  0  0  0  0  0
  186.4210  176.8400  147.3000 F   0  0  0  0  0  0  0  0  0  0  0  0
  182.8810  178.8660  144.0810 C   0  0  0  0  0  3  0  0  0  0  0  0
  185.2160  178.3730  143.3670 C   0  0  0  0  0  0  0  0  0  0  0  0
  183.9490  178.6810  143.0240 C   0  0  0  0  0  0  0  0  0  0  0  0
  184.6740  178.8390  140.6180 N   0  0  0  0  0  0  0  0  0  0  0  0
  189.6200  177.7730  145.7050 C   0  0  1  0  0  3  0  0  0  0  0  0
  186.8820  177.4650  145.0390 C   0  0  2  0  0  3  0  0  0  0  0  0
  189.2230  177.3770  144.4160 O   0  0  0  0  0  0  0  0  0  0  0  0
  188.7140  177.1140  146.7430 C   0  0  0  0  0  2  0  0  0  0  0  0
  182.3530  179.1390  141.2280 C   0  0  0  0  0  3  0  0  0  0  0  0
  183.6170  178.9050  141.5940 C   0  0  1  0  0  3  0  0  0  0  0  0
  187.6570  177.8000  142.6740 C   0  0  0  0  0  2  0  0  0  0  0  0
  185.9960  178.4800  141.0380 C   0  0  0  0  0  3  0  0  0  0  0  0
  191.0410  177.3850  145.9430 C   0  0  0  0  0  0  0  0  0  0  0  0
  191.3740  176.6290  147.1040 N   0  0  0  0  0  2  0  0  0  0  0  0
  191.9370  177.7120  145.1190 O   0  0  0  0  0  0  0  0  0  0  0  0
  192.6540  176.2570  147.3460 O   0  0  0  0  0  1  0  0  0  0  0  0
  184.4520  179.1460  139.2090 C   0  0  0  0  0  2  0  0  0  0  0  0
  182.1610  174.7140  137.5450 S   0  0  0  0  0  1  0  0  0  0  0  0
  183.4630  177.0160  138.3430 C   0  0  0  0  0  3  0  0  0  0  0  0
  185.7090  177.6140  137.6540 C   0  0  0  0  0  0  0  0  0  0  0  0
  185.7850  176.4410  136.8980 C   0  0  0  0  0  3  0  0  0  0  0  0
  184.7030  175.5560  136.8630 C   0  0  0  0  0  3  0  0  0  0  0  0
  183.5430  175.8440  137.5860 C   0  0  0  0  0  0  0  0  0  0  0  0
  186.7650  178.4650  137.6690 F   0  0  0  0  0  0  0  0  0  0  0  0
  184.5440  177.9040  138.3810 C   0  0  0  0  0  0  0  0  0  0  0  0
  1 15  1  0  0  0  0
  1  7  1  1  0  0  0
  2 18  1  0  0  0  0
  2  9  1  0  0  0  0
  3  8  2  0  0  0  0
  4  3  1  0  0  0  0
  5 18  1  6  0  0  0
  5 14  1  0  0  0  0
  5 13  1  0  0  0  0
  9  6  1  0  0  0  0
 10  9  2  0  0  0  0
 10  8  1  0  0  0  0
 11 19  1  0  0  0  0
 11 17  1  0  0  0  0
 12 20  1  1  0  0  0
 12 15  1  0  0  0  0
 13  6  1  1  0  0  0
 13  1  1  0  0  0  0
 14 12  1  0  0  0  0
 16  4  2  0  0  0  0
 17 16  1  6  0  0  0
 17 10  1  0  0  0  0
 19  2  2  0  0  0  0
 20 21  1  0  0  0  0
 21 23  1  0  0  0  0
 22 20  2  0  0  0  0
 24 11  1  0  0  0  0
 25 30  1  0  0  0  0
 26 32  1  0  0  0  0
 27 31  1  0  0  0  0
 27 32  2  0  0  0  0
 28 27  1  0  0  0  0
 29 28  2  0  0  0  0
 29 30  1  0  0  0  0
 30 26  2  0  0  0  0
 32 24  1  0  0  0  0
M  END
>  <MODEL>
2

>  <REMARK>
 VINA RESULT:      -9.9      3.691      6.432
  Name = 
  3 active torsions:
  status: ('A' for Active; 'I' for Inactive)
    1  A    between atoms: C_1  and  C_19
    2  A    between atoms: N_16  and  C_27
    3  A    between atoms: C_27  and  C_32
                            x       y       z     vdW  Elec       q    Type
                         _______ _______ _______ _____ _____    ______ ____

>  <TORSDO>
F 3

$$$$
=
 OpenBabel10262421343D

 32 36  0  0  1  0  0  0  0  0999 V2000
  187.8440  177.6000  146.1260 C   0  0  2  0  0  3  0  0  0  0  0  0
  188.8360  177.5170  141.8810 C   0  0  0  0  0  0  0  0  0  0  0  0
  184.2310  179.0250  140.6950 C   0  0  0  0  0  3  0  0  0  0  0  0
  184.5970  178.9200  139.4170 C   0  0  0  0  0  3  0  0  0  0  0  0
  189.5620  177.4680  144.2920 C   0  0  1  0  0  3  0  0  0  0  0  0
  187.1850  178.0950  143.7860 C   0  0  0  0  0  2  0  0  0  0  0  0
  186.6100  177.1300  146.5400 F   0  0  0  0  0  0  0  0  0  0  0  0
  185.1920  178.8190  141.8360 C   0  0  0  0  0  3  0  0  0  0  0  0
  187.4740  177.9460  142.3140 C   0  0  0  0  0  0  0  0  0  0  0  0
  186.5490  178.3100  141.4030 C   0  0  0  0  0  0  0  0  0  0  0  0
  188.2330  177.8940  139.5770 N   0  0  0  0  0  0  0  0  0  0  0  0
  190.2950  177.3700  146.4290 C   0  0  1  0  0  3  0  0  0  0  0  0
  188.0850  177.2260  144.6610 C   0  0  2  0  0  3  0  0  0  0  0  0
  190.4100  176.7640  145.1660 O   0  0  0  0  0  0  0  0  0  0  0  0
  188.9330  177.0380  147.0330 C   0  0  0  0  0  2  0  0  0  0  0  0
  185.9710  178.5580  139.0400 C   0  0  0  0  0  3  0  0  0  0  0  0
  186.8970  178.2700  139.9600 C   0  0  1  0  0  3  0  0  0  0  0  0
  189.8280  176.9860  142.8690 C   0  0  0  0  0  2  0  0  0  0  0  0
  189.1650  177.4900  140.5880 C   0  0  0  0  0  3  0  0  0  0  0  0
  191.3860  176.8910  147.3270 C   0  0  0  0  0  0  0  0  0  0  0  0
  192.1500  175.7470  146.9520 N   0  0  0  0  0  2  0  0  0  0  0  0
  191.6390  177.4980  148.4020 O   0  0  0  0  0  0  0  0  0  0  0  0
  193.1500  175.2910  147.7420 O   0  0  0  0  0  1  0  0  0  0  0  0
  188.6840  177.9290  138.1900 C   0  0  0  0  0  2  0  0  0  0  0  0
  192.6060  174.5190  137.3840 S   0  0  0  0  0  1  0  0  0  0  0  0
  190.4630  176.2180  137.7740 C   0  0  0  0  0  3  0  0  0  0  0  0
  188.1620  175.6380  137.2800 C   0  0  0  0  0  0  0  0  0  0  0  0
  188.5770  174.3740  136.8520 C   0  0  0  0  0  3  0  0  0  0  0  0
  189.9330  174.0310  136.8830 C   0  0  0  0  0  3  0  0  0  0  0  0
  190.8750  174.9540  137.3450 C   0  0  0  0  0  0  0  0  0  0  0  0
  186.8430  175.9490  137.2500 F   0  0  0  0  0  0  0  0  0  0  0  0
  189.1080  176.5660  137.7430 C   0  0  0  0  0  0  0  0  0  0  0  0
  1  7  1  1  0  0  0
  1 15  1  0  0  0  0
  2  9  1  0  0  0  0
  2 18  1  0  0  0  0
  3  8  2  0  0  0  0
  4  3  1  0  0  0  0
  5 18  1  6  0  0  0
  5 13  1  0  0  0  0
  5 14  1  0  0  0  0
  9  6  1  0  0  0  0
 10  8  1  0  0  0  0
 10  9  2  0  0  0  0
 11 17  1  0  0  0  0
 11 19  1  0  0  0  0
 12 15  1  0  0  0  0
 12 20  1  1  0  0  0
 13  6  1  6  0  0  0
 13  1  1  0  0  0  0
 14 12  1  0  0  0  0
 16  4  2  0  0  0  0
 17 16  1  6  0  0  0
 17 10  1  0  0  0  0
 19  2  2  0  0  0  0
 20 22  2  0  0  0  0
 21 20  1  0  0  0  0
 21 23  1  0  0  0  0
 24 11  1  0  0  0  0
 27 32  2  0  0  0  0
 28 29  2  0  0  0  0
 28 27  1  0  0  0  0
 29 30  1  0  0  0  0
 30 25  1  0  0  0  0
 30 26  2  0  0  0  0
 31 27  1  0  0  0  0
 32 26  1  0  0  0  0
 32 24  1  0  0  0  0
M  END
>  <MODEL>
3

>  <REMARK>
 VINA RESULT:      -9.8      4.074      6.250
  Name = 
  3 active torsions:
  status: ('A' for Active; 'I' for Inactive)
    1  A    between atoms: C_1  and  C_19
    2  A    between atoms: N_16  and  C_27
    3  A    between atoms: C_27  and  C_32
                            x       y       z     vdW  Elec       q    Type
                         _______ _______ _______ _____ _____    ______ ____

>  <TORSDO>
F 3

$$$$
=
 OpenBabel10262421343D

 32 36  0  0  1  0  0  0  0  0999 V2000
  187.3880  177.5860  146.5590 C   0  0  2  0  0  3  0  0  0  0  0  0
  186.3200  178.2530  142.3840 C   0  0  0  0  0  0  0  0  0  0  0  0
  181.5510  179.0030  143.6420 C   0  0  0  0  0  3  0  0  0  0  0  0
  181.2980  179.1380  142.3390 C   0  0  0  0  0  3  0  0  0  0  0  0
  188.0730  178.0250  144.1770 C   0  0  1  0  0  3  0  0  0  0  0  0
  185.6780  178.2510  144.8890 C   0  0  0  0  0  2  0  0  0  0  0  0
  186.5420  176.8400  147.3600 F   0  0  0  0  0  0  0  0  0  0  0  0
  182.9450  178.8350  144.1860 C   0  0  0  0  0  3  0  0  0  0  0  0
  185.2720  178.3540  143.4410 C   0  0  0  0  0  0  0  0  0  0  0  0
  183.9980  178.6540  143.1150 C   0  0  0  0  0  0  0  0  0  0  0  0
  184.6890  178.8080  140.6980 N   0  0  0  0  0  0  0  0  0  0  0  0
  189.7130  177.7870  145.7170 C   0  0  1  0  0  3  0  0  0  0  0  0
  186.9680  177.4610  145.0920 C   0  0  2  0  0  3  0  0  0  0  0  0
  189.3000  177.3850  144.4350 O   0  0  0  0  0  0  0  0  0  0  0  0
  188.8260  177.1260  146.7700 C   0  0  0  0  0  2  0  0  0  0  0  0
  182.3750  179.0970  141.3400 C   0  0  0  0  0  3  0  0  0  0  0  0
  183.6460  178.8710  141.6890 C   0  0  1  0  0  3  0  0  0  0  0  0
  187.7070  177.7940  142.7150 C   0  0  0  0  0  2  0  0  0  0  0  0
  186.0190  178.4590  141.1010 C   0  0  0  0  0  3  0  0  0  0  0  0
  191.1390  177.4090  145.9370 C   0  0  0  0  0  0  0  0  0  0  0  0
  191.4930  176.6550  147.0930 N   0  0  0  0  0  2  0  0  0  0  0  0
  192.0220  177.7410  145.1010 O   0  0  0  0  0  0  0  0  0  0  0  0
  192.7780  176.2910  147.3180 O   0  0  0  0  0  1  0  0  0  0  0  0
  184.4440  179.1110  139.2920 C   0  0  0  0  0  2  0  0  0  0  0  0
  187.7730  176.7230  135.9940 S   0  0  0  0  0  1  0  0  0  0  0  0
  185.9500  177.8730  137.7210 C   0  0  0  0  0  3  0  0  0  0  0  0
  183.8400  176.8560  138.3430 C   0  0  0  0  0  0  0  0  0  0  0  0
  184.1340  175.7580  137.5310 C   0  0  0  0  0  3  0  0  0  0  0  0
  185.3340  175.7160  136.8140 C   0  0  0  0  0  3  0  0  0  0  0  0
  186.2410  176.7730  136.9100 C   0  0  0  0  0  0  0  0  0  0  0  0
  182.6750  176.8760  139.0380 F   0  0  0  0  0  0  0  0  0  0  0  0
  184.7500  177.9200  138.4400 C   0  0  0  0  0  0  0  0  0  0  0  0
  1 15  1  0  0  0  0
  1  7  1  1  0  0  0
  2 18  1  0  0  0  0
  2  9  1  0  0  0  0
  3  8  2  0  0  0  0
  4  3  1  0  0  0  0
  5 18  1  6  0  0  0
  5 14  1  0  0  0  0
  5 13  1  0  0  0  0
  9  6  1  0  0  0  0
 10  9  2  0  0  0  0
 10  8  1  0  0  0  0
 11 19  1  0  0  0  0
 11 17  1  0  0  0  0
 12 20  1  1  0  0  0
 12 15  1  0  0  0  0
 13  6  1  1  0  0  0
 13  1  1  0  0  0  0
 14 12  1  0  0  0  0
 16  4  2  0  0  0  0
 17 16  1  6  0  0  0
 17 10  1  0  0  0  0
 19  2  2  0  0  0  0
 20 21  1  0  0  0  0
 21 23  1  0  0  0  0
 22 20  2  0  0  0  0
 24 11  1  0  0  0  0
 25 30  1  0  0  0  0
 26 32  1  0  0  0  0
 27 32  2  0  0  0  0
 27 31  1  0  0  0  0
 28 27  1  0  0  0  0
 29 30  1  0  0  0  0
 29 28  2  0  0  0  0
 30 26  2  0  0  0  0
 32 24  1  0  0  0  0
M  END
>  <MODEL>
4

>  <REMARK>
 VINA RESULT:      -9.8      3.792      6.524
  Name = 
  3 active torsions:
  status: ('A' for Active; 'I' for Inactive)
    1  A    between atoms: C_1  and  C_19
    2  A    between atoms: N_16  and  C_27
    3  A    between atoms: C_27  and  C_32
                            x       y       z     vdW  Elec       q    Type
                         _______ _______ _______ _____ _____    ______ ____

>  <TORSDO>
F 3

$$$$
=
 OpenBabel10262421343D

 32 36  0  0  1  0  0  0  0  0999 V2000
  185.6910  178.3340  146.6170 C   0  0  2  0  0  3  0  0  0  0  0  0
  184.9720  178.2400  142.3170 C   0  0  0  0  0  0  0  0  0  0  0  0
  180.2210  179.6000  143.0010 C   0  0  0  0  0  3  0  0  0  0  0  0
  180.0700  179.4930  141.6810 C   0  0  0  0  0  3  0  0  0  0  0  0
  186.5720  178.2360  144.2620 C   0  0  1  0  0  3  0  0  0  0  0  0
  184.1660  178.7870  144.7130 C   0  0  0  0  0  2  0  0  0  0  0  0
  184.7270  177.8320  147.4730 F   0  0  0  0  0  0  0  0  0  0  0  0
  181.5540  179.4340  143.6830 C   0  0  0  0  0  3  0  0  0  0  0  0
  183.8700  178.6320  143.2430 C   0  0  0  0  0  0  0  0  0  0  0  0
  182.6550  178.9600  142.7600 C   0  0  0  0  0  0  0  0  0  0  0  0
  183.5170  178.5760  140.4250 N   0  0  0  0  0  0  0  0  0  0  0  0
  188.0750  178.1800  145.9510 C   0  0  1  0  0  3  0  0  0  0  0  0
  185.3600  177.9540  145.1710 C   0  0  2  0  0  3  0  0  0  0  0  0
  187.7130  177.5650  144.7400 O   0  0  0  0  0  0  0  0  0  0  0  0
  187.0620  177.8140  147.0330 C   0  0  0  0  0  2  0  0  0  0  0  0
  181.2030  179.1690  140.8030 C   0  0  0  0  0  3  0  0  0  0  0  0
  182.4200  178.9170  141.2940 C   0  0  1  0  0  3  0  0  0  0  0  0
  186.2840  177.7480  142.8450 C   0  0  0  0  0  2  0  0  0  0  0  0
  184.7780  178.2100  140.9970 C   0  0  0  0  0  3  0  0  0  0  0  0
  189.4420  177.7410  146.3580 C   0  0  0  0  0  0  0  0  0  0  0  0
  190.4820  177.6980  145.3840 N   0  0  0  0  0  2  0  0  0  0  0  0
  189.6790  177.4250  147.5550 O   0  0  0  0  0  0  0  0  0  0  0  0
  191.7340  177.3100  145.7240 O   0  0  0  0  0  1  0  0  0  0  0  0
  183.3970  178.6110  138.9710 C   0  0  0  0  0  2  0  0  0  0  0  0
  186.7580  175.9210  135.9500 S   0  0  0  0  0  1  0  0  0  0  0  0
  184.9330  177.2240  137.5640 C   0  0  0  0  0  3  0  0  0  0  0  0
  183.0440  176.1400  138.6280 C   0  0  0  0  0  0  0  0  0  0  0  0
  183.4260  174.9230  138.0560 C   0  0  0  0  0  3  0  0  0  0  0  0
  184.5580  174.8550  137.2400 C   0  0  0  0  0  3  0  0  0  0  0  0
  185.3120  176.0050  136.9940 C   0  0  0  0  0  0  0  0  0  0  0  0
  181.9470  176.1860  139.4240 F   0  0  0  0  0  0  0  0  0  0  0  0
  183.8000  177.2970  138.3810 C   0  0  0  0  0  0  0  0  0  0  0  0
  1 15  1  0  0  0  0
  1  7  1  1  0  0  0
  2 18  1  0  0  0  0
  2  9  1  0  0  0  0
  3  8  2  0  0  0  0
  4  3  1  0  0  0  0
  5 18  1  6  0  0  0
  5 14  1  0  0  0  0
  5 13  1  0  0  0  0
  9  6  1  0  0  0  0
 10  9  2  0  0  0  0
 10  8  1  0  0  0  0
 11 19  1  0  0  0  0
 11 17  1  0  0  0  0
 12 20  1  1  0  0  0
 12 15  1  0  0  0  0
 13  6  1  6  0  0  0
 13  1  1  0  0  0  0
 14 12  1  0  0  0  0
 16  4  2  0  0  0  0
 17 16  1  1  0  0  0
 17 10  1  0  0  0  0
 19  2  2  0  0  0  0
 20 22  2  0  0  0  0
 21 23  1  0  0  0  0
 21 20  1  0  0  0  0
 24 11  1  0  0  0  0
 25 30  1  0  0  0  0
 26 32  1  0  0  0  0
 27 31  1  0  0  0  0
 28 27  1  0  0  0  0
 29 28  2  0  0  0  0
 30 29  1  0  0  0  0
 30 26  2  0  0  0  0
 32 27  2  0  0  0  0
 32 24  1  0  0  0  0
M  END
>  <MODEL>
5

>  <REMARK>
 VINA RESULT:      -9.2      3.780      6.618
  Name = 
  3 active torsions:
  status: ('A' for Active; 'I' for Inactive)
    1  A    between atoms: C_1  and  C_19
    2  A    between atoms: N_16  and  C_27
    3  A    between atoms: C_27  and  C_32
                            x       y       z     vdW  Elec       q    Type
                         _______ _______ _______ _____ _____    ______ ____

>  <TORSDO>
F 3

$$$$
=
 OpenBabel10262421343D

 32 36  0  0  1  0  0  0  0  0999 V2000
  187.7600  177.6320  143.8870 C   0  0  2  0  0  3  0  0  0  0  0  0
  190.4160  176.9590  140.4950 C   0  0  0  0  0  0  0  0  0  0  0  0
  186.8030  178.2530  137.3080 C   0  0  0  0  0  3  0  0  0  0  0  0
  187.6600  177.9710  136.3260 C   0  0  0  0  0  3  0  0  0  0  0  0
  190.0740  177.2550  142.9730 C   0  0  1  0  0  3  0  0  0  0  0  0
  188.1570  177.7880  141.4430 C   0  0  0  0  0  2  0  0  0  0  0  0
  186.4430  177.2160  143.8050 F   0  0  0  0  0  0  0  0  0  0  0  0
  187.1920  178.2170  138.7620 C   0  0  0  0  0  3  0  0  0  0  0  0
  189.0220  177.4350  140.2600 C   0  0  0  0  0  0  0  0  0  0  0  0
  188.5780  177.6610  139.0070 C   0  0  0  0  0  0  0  0  0  0  0  0
  190.8430  177.0040  138.1230 N   0  0  0  0  0  0  0  0  0  0  0  0
  189.8490  177.4640  145.2130 C   0  0  1  0  0  3  0  0  0  0  0  0
  188.5660  177.0570  142.7190 C   0  0  2  0  0  3  0  0  0  0  0  0
  190.4450  176.6870  144.2050 O   0  0  0  0  0  0  0  0  0  0  0  0
  188.3430  177.2110  145.2310 C   0  0  0  0  0  2  0  0  0  0  0  0
  189.0450  177.5700  136.6080 C   0  0  0  0  0  3  0  0  0  0  0  0
  189.4900  177.4210  137.8590 C   0  0  1  0  0  3  0  0  0  0  0  0
  190.8800  176.5790  141.8680 C   0  0  0  0  0  2  0  0  0  0  0  0
  191.2490  176.7530  139.4740 C   0  0  0  0  0  3  0  0  0  0  0  0
  190.4420  177.1230  146.5390 C   0  0  0  0  0  0  0  0  0  0  0  0
  191.8070  176.7180  146.6120 N   0  0  0  0  0  2  0  0  0  0  0  0
  189.7480  177.2050  147.5880 O   0  0  0  0  0  0  0  0  0  0  0  0
  192.3760  176.4080  147.8010 O   0  0  0  0  0  1  0  0  0  0  0  0
  191.8290  176.8460  137.0590 C   0  0  0  0  0  2  0  0  0  0  0  0
  195.5180  173.3230  138.3400 S   0  0  0  0  0  1  0  0  0  0  0  0
  193.5130  175.0790  137.6150 C   0  0  0  0  0  3  0  0  0  0  0  0
  191.5690  174.4560  136.3080 C   0  0  0  0  0  0  0  0  0  0  0  0
  192.0380  173.1410  136.2440 C   0  0  0  0  0  3  0  0  0  0  0  0
  193.2420  172.7940  136.8640 C   0  0  0  0  0  3  0  0  0  0  0  0
  193.9790  173.7630  137.5490 C   0  0  0  0  0  0  0  0  0  0  0  0
  190.3940  174.7720  135.7070 F   0  0  0  0  0  0  0  0  0  0  0  0
  192.3080  175.4310  136.9950 C   0  0  0  0  0  0  0  0  0  0  0  0
  1  7  1  6  0  0  0
  1 15  1  0  0  0  0
  2 18  1  0  0  0  0
  3  8  2  0  0  0  0
  4 16  2  0  0  0  0
  4  3  1  0  0  0  0
  5 18  1  6  0  0  0
  5 14  1  0  0  0  0
  8 10  1  0  0  0  0
  9  2  1  0  0  0  0
  9  6  1  0  0  0  0
 10  9  2  0  0  0  0
 11 19  1  0  0  0  0
 12 15  1  0  0  0  0
 12 20  1  1  0  0  0
 13  6  1  6  0  0  0
 13  5  1  0  0  0  0
 13  1  1  0  0  0  0
 14 12  1  0  0  0  0
 17 16  1  6  0  0  0
 17 11  1  0  0  0  0
 17 10  1  0  0  0  0
 19  2  2  0  0  0  0
 20 21  1  0  0  0  0
 20 22  2  0  0  0  0
 21 23  1  0  0  0  0
 24 11  1  0  0  0  0
 27 32  1  0  0  0  0
 28 27  2  0  0  0  0
 28 29  1  0  0  0  0
 29 30  2  0  0  0  0
 30 26  1  0  0  0  0
 30 25  1  0  0  0  0
 31 27  1  0  0  0  0
 32 24  1  0  0  0  0
 32 26  2  0  0  0  0
M  END
>  <MODEL>
6

>  <REMARK>
 VINA RESULT:      -9.1      4.763      6.697
  Name = 
  3 active torsions:
  status: ('A' for Active; 'I' for Inactive)
    1  A    between atoms: C_1  and  C_19
    2  A    between atoms: N_16  and  C_27
    3  A    between atoms: C_27  and  C_32
                            x       y       z     vdW  Elec       q    Type
                         _______ _______ _______ _____ _____    ______ ____

>  <TORSDO>
F 3

$$$$
=
 OpenBabel10262421343D

 32 36  0  0  1  0  0  0  0  0999 V2000
  190.7000  176.8550  144.2590 C   0  0  2  0  0  3  0  0  0  0  0  0
  188.2660  177.9190  140.8010 C   0  0  0  0  0  0  0  0  0  0  0  0
  191.8420  176.3470  137.7000 C   0  0  0  0  0  3  0  0  0  0  0  0
  191.0600  176.7500  136.6980 C   0  0  0  0  0  3  0  0  0  0  0  0
  188.4760  177.5080  143.2770 C   0  0  1  0  0  3  0  0  0  0  0  0
  190.3840  176.8210  141.7980 C   0  0  0  0  0  2  0  0  0  0  0  0
  192.0560  177.1290  144.2390 F   0  0  0  0  0  0  0  0  0  0  0  0
  191.4020  176.3780  139.1390 C   0  0  0  0  0  3  0  0  0  0  0  0
  189.6090  177.3040  140.5980 C   0  0  0  0  0  0  0  0  0  0  0  0
  190.0750  177.0710  139.3550 C   0  0  0  0  0  0  0  0  0  0  0  0
  187.9300  177.9970  138.4150 N   0  0  0  0  0  0  0  0  0  0  0  0
  188.5900  177.2040  145.5150 C   0  0  1  0  0  3  0  0  0  0  0  0
  190.0050  177.5500  143.0850 C   0  0  2  0  0  3  0  0  0  0  0  0
  188.1200  178.0730  144.5150 O   0  0  0  0  0  0  0  0  0  0  0  0
  190.1120  177.2930  145.5950 C   0  0  0  0  0  2  0  0  0  0  0  0
  189.7150  177.2890  136.9450 C   0  0  0  0  0  3  0  0  0  0  0  0
  189.2400  177.4460  138.1850 C   0  0  1  0  0  3  0  0  0  0  0  0
  187.7910  178.3020  142.1690 C   0  0  0  0  0  2  0  0  0  0  0  0
  187.5000  178.2470  139.7590 C   0  0  0  0  0  3  0  0  0  0  0  0
  187.9840  177.5640  146.8300 C   0  0  0  0  0  0  0  0  0  0  0  0
  188.8000  177.5650  147.9990 N   0  0  0  0  0  2  0  0  0  0  0  0
  186.7660  177.8780  146.9060 O   0  0  0  0  0  0  0  0  0  0  0  0
  188.2820  177.8930  149.2060 O   0  0  0  0  0  1  0  0  0  0  0  0
  187.0080  178.2950  137.3230 C   0  0  0  0  0  2  0  0  0  0  0  0
  185.1390  173.5090  136.2000 S   0  0  0  0  0  1  0  0  0  0  0  0
  186.0080  176.0500  136.8430 C   0  0  0  0  0  3  0  0  0  0  0  0
  184.6040  177.7530  137.8460 C   0  0  0  0  0  0  0  0  0  0  0  0
  183.5280  176.8610  137.8430 C   0  0  0  0  0  3  0  0  0  0  0  0
  183.6900  175.5660  137.3420 C   0  0  0  0  0  3  0  0  0  0  0  0
  184.9300  175.1620  136.8420 C   0  0  0  0  0  0  0  0  0  0  0  0
  184.4300  179.0030  138.3440 F   0  0  0  0  0  0  0  0  0  0  0  0
  185.8510  177.3480  137.3430 C   0  0  0  0  0  0  0  0  0  0  0  0
  1  7  1  1  0  0  0
  1 15  1  0  0  0  0
  2 18  1  0  0  0  0
  3  8  2  0  0  0  0
  4 16  2  0  0  0  0
  4  3  1  0  0  0  0
  5 18  1  6  0  0  0
  5 14  1  0  0  0  0
  8 10  1  0  0  0  0
  9  2  1  0  0  0  0
  9  6  1  0  0  0  0
 10  9  2  0  0  0  0
 11 19  1  0  0  0  0
 12 15  1  0  0  0  0
 12 20  1  1  0  0  0
 13  6  1  6  0  0  0
 13  5  1  0  0  0  0
 13  1  1  0  0  0  0
 14 12  1  0  0  0  0
 17 16  1  1  0  0  0
 17 11  1  0  0  0  0
 17 10  1  0  0  0  0
 19  2  2  0  0  0  0
 20 22  2  0  0  0  0
 20 21  1  0  0  0  0
 21 23  1  0  0  0  0
 24 32  1  0  0  0  0
 24 11  1  0  0  0  0
 25 30  1  0  0  0  0
 26 32  1  0  0  0  0
 27 31  1  0  0  0  0
 28 27  1  0  0  0  0
 29 28  2  0  0  0  0
 30 26  2  0  0  0  0
 30 29  1  0  0  0  0
 32 27  2  0  0  0  0
M  END
>  <MODEL>
7

>  <REMARK>
 VINA RESULT:      -9.1      3.920      5.331
  Name = 
  3 active torsions:
  status: ('A' for Active; 'I' for Inactive)
    1  A    between atoms: C_1  and  C_19
    2  A    between atoms: N_16  and  C_27
    3  A    between atoms: C_27  and  C_32
                            x       y       z     vdW  Elec       q    Type
                         _______ _______ _______ _____ _____    ______ ____

>  <TORSDO>
F 3

$$$$
=
 OpenBabel10262421343D

 32 36  0  0  1  0  0  0  0  0999 V2000
  190.6890  176.8740  144.1890 C   0  0  2  0  0  3  0  0  0  0  0  0
  188.2650  177.8550  140.6990 C   0  0  0  0  0  0  0  0  0  0  0  0
  191.8620  176.2320  137.6470 C   0  0  0  0  0  3  0  0  0  0  0  0
  191.0820  176.6120  136.6340 C   0  0  0  0  0  3  0  0  0  0  0  0
  188.4670  177.4980  143.1840 C   0  0  1  0  0  3  0  0  0  0  0  0
  190.3840  176.7870  141.7290 C   0  0  0  0  0  2  0  0  0  0  0  0
  192.0440  177.1530  144.1690 F   0  0  0  0  0  0  0  0  0  0  0  0
  191.4150  176.2920  139.0840 C   0  0  0  0  0  3  0  0  0  0  0  0
  189.6120  177.2410  140.5160 C   0  0  0  0  0  0  0  0  0  0  0  0
  190.0840  176.9850  139.2790 C   0  0  0  0  0  0  0  0  0  0  0  0
  187.9400  177.8820  138.3110 N   0  0  0  0  0  0  0  0  0  0  0  0
  188.5720  177.2420  145.4290 C   0  0  1  0  0  3  0  0  0  0  0  0
  189.9970  177.5420  142.9980 C   0  0  2  0  0  3  0  0  0  0  0  0
  188.1030  178.0870  144.4090 O   0  0  0  0  0  0  0  0  0  0  0  0
  190.0930  177.3380  145.5130 C   0  0  0  0  0  2  0  0  0  0  0  0
  189.7340  177.1500  136.8640 C   0  0  0  0  0  3  0  0  0  0  0  0
  189.2530  177.3310  138.0980 C   0  0  1  0  0  3  0  0  0  0  0  0
  187.7840  178.2660  142.0570 C   0  0  0  0  0  2  0  0  0  0  0  0
  187.5030  178.1580  139.6470 C   0  0  0  0  0  3  0  0  0  0  0  0
  187.9600  177.6270  146.7340 C   0  0  0  0  0  0  0  0  0  0  0  0
  188.7770  177.6860  147.9000 N   0  0  0  0  0  2  0  0  0  0  0  0
  186.7340  177.9100  146.8030 O   0  0  0  0  0  0  0  0  0  0  0  0
  188.2530  178.0390  149.0980 O   0  0  0  0  0  1  0  0  0  0  0  0
  187.0220  178.1530  137.2090 C   0  0  0  0  0  2  0  0  0  0  0  0
  181.9570  177.6680  138.5420 S   0  0  0  0  0  1  0  0  0  0  0  0
  184.6140  177.8020  137.7990 C   0  0  0  0  0  3  0  0  0  0  0  0
  185.8770  175.9270  136.9240 C   0  0  0  0  0  0  0  0  0  0  0  0
  184.7430  175.1170  137.0360 C   0  0  0  0  0  3  0  0  0  0  0  0
  183.5470  175.6470  137.5290 C   0  0  0  0  0  3  0  0  0  0  0  0
  183.4830  176.9890  137.9100 C   0  0  0  0  0  0  0  0  0  0  0  0
  187.0260  175.3970  136.4360 F   0  0  0  0  0  0  0  0  0  0  0  0
  185.8140  177.2760  137.3070 C   0  0  0  0  0  0  0  0  0  0  0  0
  1  7  1  1  0  0  0
  1 15  1  0  0  0  0
  2 18  1  0  0  0  0
  3  8  2  0  0  0  0
  4 16  2  0  0  0  0
  4  3  1  0  0  0  0
  5 18  1  6  0  0  0
  5 14  1  0  0  0  0
  8 10  1  0  0  0  0
  9  2  1  0  0  0  0
  9  6  1  0  0  0  0
 10  9  2  0  0  0  0
 11 19  1  0  0  0  0
 12 15  1  0  0  0  0
 12 20  1  1  0  0  0
 13  6  1  6  0  0  0
 13  5  1  0  0  0  0
 13  1  1  0  0  0  0
 14 12  1  0  0  0  0
 17 16  1  6  0  0  0
 17 11  1  0  0  0  0
 17 10  1  0  0  0  0
 19  2  2  0  0  0  0
 20 22  2  0  0  0  0
 20 21  1  0  0  0  0
 21 23  1  0  0  0  0
 24 32  1  0  0  0  0
 24 11  1  0  0  0  0
 26 30  1  0  0  0  0
 27 28  2  0  0  0  0
 27 32  1  0  0  0  0
 28 29  1  0  0  0  0
 29 30  2  0  0  0  0
 30 25  1  0  0  0  0
 31 27  1  0  0  0  0
 32 26  2  0  0  0  0
M  END
>  <MODEL>
8

>  <REMARK>
 VINA RESULT:      -9.1      4.022      5.468
  Name = 
  3 active torsions:
  status: ('A' for Active; 'I' for Inactive)
    1  A    between atoms: C_1  and  C_19
    2  A    between atoms: N_16  and  C_27
    3  A    between atoms: C_27  and  C_32
                            x       y       z     vdW  Elec       q    Type
                         _______ _______ _______ _____ _____    ______ ____

>  <TORSDO>
F 3

$$$$
=
 OpenBabel10262421343D

 32 36  0  0  1  0  0  0  0  0999 V2000
  190.8820  177.1960  143.4240 C   0  0  2  0  0  3  0  0  0  0  0  0
  187.2110  178.2720  141.3310 C   0  0  0  0  0  0  0  0  0  0  0  0
  189.4610  177.6820  136.9180 C   0  0  0  0  0  3  0  0  0  0  0  0
  188.3170  178.0740  136.3570 C   0  0  0  0  0  3  0  0  0  0  0  0
  188.3990  177.6010  143.4490 C   0  0  1  0  0  3  0  0  0  0  0  0
  189.6510  177.4130  141.2820 C   0  0  0  0  0  2  0  0  0  0  0  0
  192.0910  177.6830  142.9600 F   0  0  0  0  0  0  0  0  0  0  0  0
  189.6080  177.4660  138.4010 C   0  0  0  0  0  2  0  0  0  0  0  0
  188.4290  177.9080  140.5500 C   0  0  0  0  0  0  0  0  0  0  0  0
  188.4020  177.9070  139.2020 C   0  0  0  0  0  0  0  0  0  0  0  0
  185.9780  178.5860  139.2840 N   0  0  0  0  0  0  0  0  0  0  0  0
  189.3940  177.0480  145.4030 C   0  0  1  0  0  3  0  0  0  0  0  0
  189.7230  177.9100  142.7230 C   0  0  2  0  0  3  0  0  0  0  0  0
  188.4900  177.9460  144.8090 O   0  0  0  0  0  0  0  0  0  0  0  0
  190.8120  177.3680  144.9370 C   0  0  0  0  0  2  0  0  0  0  0  0
  187.1230  178.3570  137.1660 C   0  0  0  0  0  3  0  0  0  0  0  0
  187.1480  178.2830  138.5000 C   0  0  0  0  0  0  0  0  0  0  0  0
  187.2630  178.4050  142.8220 C   0  0  0  0  0  2  0  0  0  0  0  0
  186.0750  178.5980  140.7130 C   0  0  0  0  0  3  0  0  0  0  0  0
  189.3080  177.1430  146.8890 C   0  0  0  0  0  0  0  0  0  0  0  0
  188.0650  177.4870  147.4970 N   0  0  0  0  0  2  0  0  0  0  0  0
  190.3200  176.9090  147.6020 O   0  0  0  0  0  0  0  0  0  0  0  0
  187.9530  177.5750  148.8440 O   0  0  0  0  0  1  0  0  0  0  0  0
  184.6830  178.8640  138.6720 C   0  0  0  0  0  2  0  0  0  0  0  0
  183.2640  174.0310  137.1560 S   0  0  0  0  0  1  0  0  0  0  0  0
  183.9200  176.5630  138.0440 C   0  0  0  0  0  3  0  0  0  0  0  0
  182.7300  177.7390  139.7990 C   0  0  0  0  0  0  0  0  0  0  0  0
  181.8680  176.6480  139.9390 C   0  0  0  0  0  3  0  0  0  0  0  0
  182.0300  175.5160  139.1340 C   0  0  0  0  0  3  0  0  0  0  0  0
  183.0560  175.4750  138.1870 C   0  0  0  0  0  0  0  0  0  0  0  0
  182.5630  178.8240  140.5940 F   0  0  0  0  0  0  0  0  0  0  0  0
  183.7610  177.6990  138.8470 C   0  0  0  0  0  0  0  0  0  0  0  0
  1  7  1  6  0  0  0
  1 15  1  0  0  0  0
  2 18  1  0  0  0  0
  3  8  1  0  0  0  0
  4  3  2  0  0  0  0
  4 16  1  0  0  0  0
  5 18  1  6  0  0  0
  5 14  1  0  0  0  0
  8 10  1  0  0  0  0
  9  6  1  0  0  0  0
  9  2  1  0  0  0  0
 10  9  2  0  0  0  0
 11 19  1  0  0  0  0
 12 20  1  1  0  0  0
 13  6  1  6  0  0  0
 13  1  1  0  0  0  0
 13  5  1  0  0  0  0
 14 12  1  0  0  0  0
 15 12  1  0  0  0  0
 16 17  2  0  0  0  0
 17 10  1  0  0  0  0
 17 11  1  0  0  0  0
 19  2  2  0  0  0  0
 20 21  1  0  0  0  0
 20 22  2  0  0  0  0
 21 23  1  0  0  0  0
 24 32  1  0  0  0  0
 24 11  1  0  0  0  0
 25 30  1  0  0  0  0
 26 30  2  0  0  0  0
 26 32  1  0  0  0  0
 27 28  1  0  0  0  0
 27 31  1  0  0  0  0
 29 28  2  0  0  0  0
 30 29  1  0  0  0  0
 32 27  2  0  0  0  0
M  END
>  <MODEL>
9

>  <REMARK>
 VINA RESULT:      -9.0      3.791      6.188
  Name = 
  3 active torsions:
  status: ('A' for Active; 'I' for Inactive)
    1  A    between atoms: C_1  and  C_19
    2  A    between atoms: N_16  and  C_27
    3  A    between atoms: C_27  and  C_32
                            x       y       z     vdW  Elec       q    Type
                         _______ _______ _______ _____ _____    ______ ____

>  <TORSDO>
F 3

$$$$
