=
 OpenBabel10262422163D

 43 46  0  0  1  0  0  0  0  0999 V2000
  183.4020  178.4760  138.9840 C   0  0  1  0  0  3  0  0  0  0  0  0
  184.6840  178.1100  142.5430 C   0  0  0  0  0  3  0  0  0  0  0  0
  186.0670  178.1900  142.3620 C   0  0  0  0  0  0  0  0  0  0  0  0
  188.0700  178.3980  140.8100 C   0  0  0  0  0  2  0  0  0  0  0  0
  183.8190  178.1880  141.4490 C   0  0  0  0  0  0  0  0  0  0  0  0
  186.9490  178.1870  143.5810 C   0  0  0  0  0  2  0  0  0  0  0  0
  185.7240  178.4370  139.9730 C   0  0  0  0  0  3  0  0  0  0  0  0
  182.4470  178.1000  141.6570 O   0  0  0  0  0  1  0  0  0  0  0  0
  188.4260  177.9260  143.2650 C   0  0  2  0  0  3  0  0  0  0  0  0
  184.3360  178.3650  140.1560 C   0  0  0  0  0  0  0  0  0  0  0  0
  188.8700  178.7560  142.0620 C   0  0  0  0  0  2  0  0  0  0  0  0
  186.5910  178.3720  141.0650 C   0  0  0  0  0  0  0  0  0  0  0  0
  188.7040  176.4430  143.0460 C   0  0  0  0  0  2  0  0  0  0  0  0
  190.0850  176.2450  142.4520 C   0  0  0  0  0  2  0  0  0  0  0  0
  191.0710  175.9380  143.5600 C   0  0  0  0  0  2  0  0  0  0  0  0
  191.5140  177.4670  144.4340 S   0  0  0  0  0  0  0  0  0  0  0  0
  191.3500  176.6880  146.0650 C   0  0  0  0  0  2  0  0  0  0  0  0
  190.0680  177.1530  146.7200 C   0  0  0  0  0  1  0  0  0  0  0  0
  182.6920  179.8020  138.9580 C   0  0  0  0  0  0  0  0  0  0  0  0
  183.3260  180.8480  138.9670 O   0  0  0  0  0  0  0  0  0  0  0  0
  181.1900  179.8230  139.0240 C   0  0  1  0  0  3  0  0  0  0  0  0
  179.7780  183.6670  137.6760 C   0  0  0  0  0  0  0  0  0  0  0  0
  179.6960  181.8500  139.2770 C   0  0  0  0  0  0  0  0  0  0  0  0
  180.7420  182.9770  136.9370 C   0  0  0  0  0  3  0  0  0  0  0  0
  179.2240  185.2370  137.1380 Cl  0  0  0  0  0  0  0  0  0  0  0  0
  180.6690  181.1510  138.5390 C   0  0  0  0  0  0  0  0  0  0  0  0
  179.2570  183.1030  138.8420 C   0  0  0  0  0  3  0  0  0  0  0  0
  181.1880  181.7260  137.3670 C   0  0  0  0  0  3  0  0  0  0  0  0
  179.0040  181.1860  140.7490 Cl  0  0  0  0  0  0  0  0  0  0  0  0
  180.5340  178.6120  138.3290 C   0  0  0  0  0  3  0  0  0  0  0  0
  179.4640  177.9660  139.2030 C   0  0  0  0  0  2  0  0  0  0  0  0
  180.0400  176.7690  139.9350 C   0  0  0  0  0  1  0  0  0  0  0  0
  180.7900  178.4540  135.8060 C   0  0  0  0  0  1  0  0  0  0  0  0
  179.9440  178.9690  136.9610 C   0  0  0  0  0  2  0  0  0  0  0  0
  184.1130  178.1480  137.6720 C   0  0  0  0  0  2  0  0  0  0  0  0
  184.2630  174.8410  135.7210 C   0  0  0  0  0  2  0  0  0  0  0  0
  183.6840  173.8910  136.7770 C   0  0  1  0  0  0  0  0  0  0  0  0
  183.0970  172.8220  136.1280 F   0  0  0  0  0  0  0  0  0  0  0  0
  183.1290  175.9080  138.2100 C   0  0  0  0  0  2  0  0  0  0  0  0
  184.7560  176.1500  136.3370 C   0  0  0  0  0  2  0  0  0  0  0  0
  183.6230  176.8280  137.0970 C   0  0  2  0  0  3  0  0  0  0  0  0
  184.7910  173.3570  137.6710 C   0  0  0  0  0  1  0  0  0  0  0  0
  182.6140  174.5980  137.6150 C   0  0  0  0  0  2  0  0  0  0  0  0
  1 35  1  6  0  0  0
  1 10  1  0  0  0  0
  3  2  1  0  0  0  0
  3  6  1  0  0  0  0
  4 12  1  0  0  0  0
  4 11  1  0  0  0  0
  5  8  1  0  0  0  0
  5  2  2  0  0  0  0
  7 10  2  0  0  0  0
  7 12  1  0  0  0  0
  9 13  1  6  0  0  0
  9  6  1  0  0  0  0
 10  5  1  0  0  0  0
 11  9  1  0  0  0  0
 12  3  2  0  0  0  0
 14 13  1  0  0  0  0
 14 15  1  0  0  0  0
 15 16  1  0  0  0  0
 16 17  1  0  0  0  0
 17 18  1  0  0  0  0
 19 20  2  0  0  0  0
 19  1  1  0  0  0  0
 19 21  1  0  0  0  0
 21 30  1  6  0  0  0
 22 27  1  0  0  0  0
 23 29  1  0  0  0  0
 24 28  1  0  0  0  0
 24 22  2  0  0  0  0
 25 22  1  0  0  0  0
 26 21  1  0  0  0  0
 26 23  1  0  0  0  0
 27 23  2  0  0  0  0
 28 26  2  0  0  0  0
 30 31  1  0  0  0  0
 31 32  1  0  0  0  0
 33 34  1  0  0  0  0
 34 30  1  0  0  0  0
 36 40  1  0  0  0  0
 36 37  1  0  0  0  0
 37 43  1  0  0  0  0
 37 42  1  1  0  0  0
 38 37  1  0  0  0  0
 40 41  1  0  0  0  0
 41 35  1  1  0  0  0
 41 39  1  0  0  0  0
 43 39  1  0  0  0  0
M  END
>  <MODEL>
1

>  <REMARK>
 VINA RESULT:      -6.3      0.000      0.000
  Name = 
  14 active torsions:
  status: ('A' for Active; 'I' for Inactive)
    1  A    between atoms: C_1  and  C_34
    2  A    between atoms: C_1  and  C_35
    3  A    between atoms: C_2  and  C_27
    4  A    between atoms: C_8  and  C_30
    5  A    between atoms: C_8  and  C_34
    6  A    between atoms: C_11  and  C_22
    7  A    between atoms: C_11  and  C_36
    8  A    between atoms: C_13  and  C_27
    9  A    between atoms: C_21  and  C_30
   10  A    between atoms: C_26  and  S_31
   11  A    between atoms: C_27  and  C_30
   12  A    between atoms: C_29  and  S_31
   13  A    between atoms: C_29  and  C_36
   14  A    between atoms: C_34  and  C_38
                            x       y       z     vdW  Elec       q    Type
                         _______ _______ _______ _____ _____    ______ ____

>  <TORSDO>
F 14

$$$$
=
 OpenBabel10262422163D

 43 46  0  0  1  0  0  0  0  0999 V2000
  187.6170  178.7210  141.2580 C   0  0  1  0  0  3  0  0  0  0  0  0
  183.9510  178.7780  142.2550 C   0  0  0  0  0  3  0  0  0  0  0  0
  183.3120  178.6470  141.0190 C   0  0  0  0  0  0  0  0  0  0  0  0
  183.4480  178.4560  138.4880 C   0  0  0  0  0  2  0  0  0  0  0  0
  185.3440  178.8160  142.3340 C   0  0  0  0  0  0  0  0  0  0  0  0
  181.8130  178.5240  140.9980 C   0  0  0  0  0  2  0  0  0  0  0  0
  185.4770  178.5840  139.9260 C   0  0  0  0  0  3  0  0  0  0  0  0
  185.9530  178.9530  143.5770 O   0  0  0  0  0  1  0  0  0  0  0  0
  181.2030  178.7380  139.6080 C   0  0  2  0  0  3  0  0  0  0  0  0
  186.1180  178.7060  141.1680 C   0  0  0  0  0  0  0  0  0  0  0  0
  181.9990  177.9740  138.5520 C   0  0  0  0  0  2  0  0  0  0  0  0
  184.0850  178.5320  139.8440 C   0  0  0  0  0  0  0  0  0  0  0  0
  181.0980  180.2190  139.2580 C   0  0  0  0  0  2  0  0  0  0  0  0
  180.2930  180.4060  137.9870 C   0  0  0  0  0  2  0  0  0  0  0  0
  180.9140  181.5110  137.1570 C   0  0  0  0  0  2  0  0  0  0  0  0
  179.6190  182.4010  136.2480 S   0  0  0  0  0  0  0  0  0  0  0  0
  180.8110  183.5350  135.4810 C   0  0  0  0  0  2  0  0  0  0  0  0
  181.1820  184.6210  136.4680 C   0  0  0  0  0  1  0  0  0  0  0  0
  188.1430  177.5440  142.0350 C   0  0  0  0  0  0  0  0  0  0  0  0
  187.4880  176.5150  142.1240 O   0  0  0  0  0  0  0  0  0  0  0  0
  189.4370  177.6890  142.7850 C   0  0  1  0  0  3  0  0  0  0  0  0
  188.6310  177.7230  147.0200 C   0  0  0  0  0  0  0  0  0  0  0  0
  190.0250  178.3760  145.1500 C   0  0  0  0  0  0  0  0  0  0  0  0
  187.7890  177.0240  146.1540 C   0  0  0  0  0  3  0  0  0  0  0  0
  188.2880  177.7530  148.7360 Cl  0  0  0  0  0  0  0  0  0  0  0  0
  189.1790  177.6760  144.2700 C   0  0  0  0  0  0  0  0  0  0  0  0
  189.7460  178.3960  146.5190 C   0  0  0  0  0  3  0  0  0  0  0  0
  188.0590  177.0020  144.7840 C   0  0  0  0  0  3  0  0  0  0  0  0
  191.4440  179.2370  144.5720 Cl  0  0  0  0  0  0  0  0  0  0  0  0
  190.5150  176.6810  142.3380 C   0  0  0  0  0  3  0  0  0  0  0  0
  191.8990  177.3200  142.2730 C   0  0  0  0  0  2  0  0  0  0  0  0
  192.3400  177.4640  140.8290 C   0  0  0  0  0  1  0  0  0  0  0  0
  191.8500  175.3280  144.0240 C   0  0  0  0  0  1  0  0  0  0  0  0
  190.5580  175.4340  143.2270 C   0  0  0  0  0  2  0  0  0  0  0  0
  188.2570  178.8650  139.8780 C   0  0  0  0  0  2  0  0  0  0  0  0
  187.7880  175.9710  137.3930 C   0  0  0  0  0  2  0  0  0  0  0  0
  189.2510  175.7220  137.0080 C   0  0  1  0  0  0  0  0  0  0  0  0
  189.3830  174.4010  136.6240 F   0  0  0  0  0  0  0  0  0  0  0  0
  189.9520  177.3550  138.8170 C   0  0  0  0  0  2  0  0  0  0  0  0
  187.5890  177.3510  138.0210 C   0  0  0  0  0  2  0  0  0  0  0  0
  188.4920  177.5050  139.2380 C   0  0  2  0  0  3  0  0  0  0  0  0
  189.6470  176.6010  135.8340 C   0  0  0  0  0  1  0  0  0  0  0  0
  190.1780  175.9750  138.2020 C   0  0  0  0  0  2  0  0  0  0  0  0
  1 35  1  6  0  0  0
  1 19  1  0  0  0  0
  2  5  1  0  0  0  0
  3  2  2  0  0  0  0
  4 11  1  0  0  0  0
  4 12  1  0  0  0  0
  5  8  1  0  0  0  0
  6  3  1  0  0  0  0
  7 10  1  0  0  0  0
  9 13  1  6  0  0  0
  9  6  1  0  0  0  0
 10  1  1  0  0  0  0
 10  5  2  0  0  0  0
 11  9  1  0  0  0  0
 12  7  2  0  0  0  0
 12  3  1  0  0  0  0
 14 13  1  0  0  0  0
 15 14  1  0  0  0  0
 16 15  1  0  0  0  0
 17 16  1  0  0  0  0
 17 18  1  0  0  0  0
 19 20  2  0  0  0  0
 21 19  1  6  0  0  0
 21 26  1  0  0  0  0
 22 25  1  0  0  0  0
 23 27  2  0  0  0  0
 24 22  2  0  0  0  0
 26 28  2  0  0  0  0
 26 23  1  0  0  0  0
 27 22  1  0  0  0  0
 28 24  1  0  0  0  0
 29 23  1  0  0  0  0
 30 21  1  0  0  0  0
 30 34  1  0  0  0  0
 31 30  1  0  0  0  0
 32 31  1  0  0  0  0
 34 33  1  0  0  0  0
 36 40  1  0  0  0  0
 37 42  1  6  0  0  0
 37 36  1  0  0  0  0
 37 43  1  0  0  0  0
 38 37  1  0  0  0  0
 39 41  1  0  0  0  0
 40 41  1  0  0  0  0
 41 35  1  6  0  0  0
 43 39  1  0  0  0  0
M  END
>  <MODEL>
2

>  <REMARK>
 VINA RESULT:      -5.9      4.529      9.733
  Name = 
  14 active torsions:
  status: ('A' for Active; 'I' for Inactive)
    1  A    between atoms: C_1  and  C_34
    2  A    between atoms: C_1  and  C_35
    3  A    between atoms: C_2  and  C_27
    4  A    between atoms: C_8  and  C_30
    5  A    between atoms: C_8  and  C_34
    6  A    between atoms: C_11  and  C_22
    7  A    between atoms: C_11  and  C_36
    8  A    between atoms: C_13  and  C_27
    9  A    between atoms: C_21  and  C_30
   10  A    between atoms: C_26  and  S_31
   11  A    between atoms: C_27  and  C_30
   12  A    between atoms: C_29  and  S_31
   13  A    between atoms: C_29  and  C_36
   14  A    between atoms: C_34  and  C_38
                            x       y       z     vdW  Elec       q    Type
                         _______ _______ _______ _____ _____    ______ ____

>  <TORSDO>
F 14

$$$$
=
 OpenBabel10262422163D

 43 46  0  0  1  0  0  0  0  0999 V2000
  182.4490  178.6540  138.8930 C   0  0  1  0  0  3  0  0  0  0  0  0
  181.7860  178.4040  142.6260 C   0  0  0  0  0  3  0  0  0  0  0  0
  183.0010  178.8320  143.1660 C   0  0  0  0  0  0  0  0  0  0  0  0
  185.3950  179.6210  142.8320 C   0  0  0  0  0  2  0  0  0  0  0  0
  181.6090  178.3320  141.2430 C   0  0  0  0  0  0  0  0  0  0  0  0
  183.1110  178.9740  144.6590 C   0  0  0  0  0  2  0  0  0  0  0  0
  183.8730  179.1300  140.9220 C   0  0  0  0  0  3  0  0  0  0  0  0
  180.3910  177.8950  140.7330 O   0  0  0  0  0  1  0  0  0  0  0  0
  184.5550  179.1050  145.1560 C   0  0  2  0  0  3  0  0  0  0  0  0
  182.6510  178.7080  140.3800 C   0  0  0  0  0  0  0  0  0  0  0  0
  185.3320  180.0900  144.2850 C   0  0  0  0  0  2  0  0  0  0  0  0
  184.0500  179.2160  142.3040 C   0  0  0  0  0  0  0  0  0  0  0  0
  185.2550  177.7520  145.2220 C   0  0  0  0  0  2  0  0  0  0  0  0
  186.4970  177.8410  146.0860 C   0  0  0  0  0  2  0  0  0  0  0  0
  187.6840  177.2910  145.3210 C   0  0  0  0  0  2  0  0  0  0  0  0
  189.2090  177.5720  146.2630 S   0  0  0  0  0  0  0  0  0  0  0  0
  190.2630  177.2880  144.8130 C   0  0  0  0  0  2  0  0  0  0  0  0
  189.6590  177.9740  143.6080 C   0  0  0  0  0  1  0  0  0  0  0  0
  181.8990  179.9480  138.3560 C   0  0  0  0  0  0  0  0  0  0  0  0
  182.6160  180.9330  138.2500 O   0  0  0  0  0  0  0  0  0  0  0  0
  180.4300  180.0410  138.0490 C   0  0  1  0  0  3  0  0  0  0  0  0
  179.3530  184.1980  137.6630 C   0  0  0  0  0  0  0  0  0  0  0  0
  179.4720  182.1820  139.0020 C   0  0  0  0  0  0  0  0  0  0  0  0
  179.8940  183.5110  136.5740 C   0  0  0  0  0  3  0  0  0  0  0  0
  178.9370  185.8910  137.5100 Cl  0  0  0  0  0  0  0  0  0  0  0  0
  180.0210  181.4850  137.9100 C   0  0  0  0  0  0  0  0  0  0  0  0
  179.1420  183.5330  138.8730 C   0  0  0  0  0  3  0  0  0  0  0  0
  180.2290  182.1620  136.6960 C   0  0  0  0  0  3  0  0  0  0  0  0
  179.1830  181.3930  140.5450 Cl  0  0  0  0  0  0  0  0  0  0  0  0
  180.0010  179.1610  136.8570 C   0  0  0  0  0  3  0  0  0  0  0  0
  181.2000  178.6810  136.0440 C   0  0  0  0  0  2  0  0  0  0  0  0
  181.1580  179.2770  134.6500 C   0  0  0  0  0  1  0  0  0  0  0  0
  179.9630  176.6810  137.4090 C   0  0  0  0  0  1  0  0  0  0  0  0
  179.1510  177.9620  137.2890 C   0  0  0  0  0  2  0  0  0  0  0  0
  183.7170  178.1960  138.1740 C   0  0  0  0  0  2  0  0  0  0  0  0
  184.3980  175.3280  135.7080 C   0  0  0  0  0  2  0  0  0  0  0  0
  184.2170  174.1310  136.6480 C   0  0  1  0  0  0  0  0  0  0  0  0
  183.8240  173.0410  135.8960 F   0  0  0  0  0  0  0  0  0  0  0  0
  183.3880  175.7260  138.4370 C   0  0  0  0  0  2  0  0  0  0  0  0
  184.6370  176.6280  136.4770 C   0  0  0  0  0  2  0  0  0  0  0  0
  183.4880  176.8810  137.4440 C   0  0  2  0  0  3  0  0  0  0  0  0
  185.5300  173.7900  137.3310 C   0  0  0  0  0  1  0  0  0  0  0  0
  183.1300  174.4180  137.6910 C   0  0  0  0  0  2  0  0  0  0  0  0
  1 35  1  6  0  0  0
  1 10  1  0  0  0  0
  2  3  1  0  0  0  0
  3  6  1  0  0  0  0
  4 11  1  0  0  0  0
  5  2  2  0  0  0  0
  6  9  1  0  0  0  0
  7 12  1  0  0  0  0
  8  5  1  0  0  0  0
  9 13  1  6  0  0  0
 10  7  2  0  0  0  0
 10  5  1  0  0  0  0
 11  9  1  0  0  0  0
 12  4  1  0  0  0  0
 12  3  2  0  0  0  0
 13 14  1  0  0  0  0
 15 14  1  0  0  0  0
 15 16  1  0  0  0  0
 17 16  1  0  0  0  0
 18 17  1  0  0  0  0
 19  1  1  0  0  0  0
 20 19  2  0  0  0  0
 21 30  1  6  0  0  0
 21 19  1  0  0  0  0
 22 27  1  0  0  0  0
 23 29  1  0  0  0  0
 24 28  1  0  0  0  0
 24 22  2  0  0  0  0
 25 22  1  0  0  0  0
 26 21  1  0  0  0  0
 26 23  1  0  0  0  0
 27 23  2  0  0  0  0
 28 26  2  0  0  0  0
 30 34  1  0  0  0  0
 31 30  1  0  0  0  0
 32 31  1  0  0  0  0
 34 33  1  0  0  0  0
 36 40  1  0  0  0  0
 36 37  1  0  0  0  0
 37 42  1  1  0  0  0
 37 43  1  0  0  0  0
 38 37  1  0  0  0  0
 40 41  1  0  0  0  0
 41 35  1  1  0  0  0
 41 39  1  0  0  0  0
 43 39  1  0  0  0  0
M  END
>  <MODEL>
3

>  <REMARK>
 VINA RESULT:      -5.8      1.537      2.519
  Name = 
  14 active torsions:
  status: ('A' for Active; 'I' for Inactive)
    1  A    between atoms: C_1  and  C_34
    2  A    between atoms: C_1  and  C_35
    3  A    between atoms: C_2  and  C_27
    4  A    between atoms: C_8  and  C_30
    5  A    between atoms: C_8  and  C_34
    6  A    between atoms: C_11  and  C_22
    7  A    between atoms: C_11  and  C_36
    8  A    between atoms: C_13  and  C_27
    9  A    between atoms: C_21  and  C_30
   10  A    between atoms: C_26  and  S_31
   11  A    between atoms: C_27  and  C_30
   12  A    between atoms: C_29  and  S_31
   13  A    between atoms: C_29  and  C_36
   14  A    between atoms: C_34  and  C_38
                            x       y       z     vdW  Elec       q    Type
                         _______ _______ _______ _____ _____    ______ ____

>  <TORSDO>
F 14

$$$$
=
 OpenBabel10262422163D

 43 46  0  0  1  0  0  0  0  0999 V2000
  182.1440  177.5240  138.9540 C   0  0  1  0  0  3  0  0  0  0  0  0
  181.4470  178.5440  142.5480 C   0  0  0  0  0  3  0  0  0  0  0  0
  182.7240  178.8770  143.0080 C   0  0  0  0  0  0  0  0  0  0  0  0
  185.2260  179.0600  142.5970 C   0  0  0  0  0  2  0  0  0  0  0  0
  181.2580  178.0920  141.2400 C   0  0  0  0  0  0  0  0  0  0  0  0
  182.8600  179.4400  144.3960 C   0  0  0  0  0  2  0  0  0  0  0  0
  183.6360  178.3120  140.8320 C   0  0  0  0  0  3  0  0  0  0  0  0
  179.9780  177.7610  140.8120 O   0  0  0  0  0  1  0  0  0  0  0  0
  184.3020  179.4390  144.9160 C   0  0  2  0  0  3  0  0  0  0  0  0
  182.3530  177.9850  140.3680 C   0  0  0  0  0  0  0  0  0  0  0  0
  185.2590  179.9490  143.8400 C   0  0  0  0  0  2  0  0  0  0  0  0
  183.8270  178.7770  142.1340 C   0  0  0  0  0  0  0  0  0  0  0  0
  184.7200  178.0620  145.4210 C   0  0  0  0  0  2  0  0  0  0  0  0
  185.6350  178.1950  146.6220 C   0  0  0  0  0  2  0  0  0  0  0  0
  187.0080  177.6590  146.2710 C   0  0  0  0  0  2  0  0  0  0  0  0
  188.1210  177.8340  147.6940 S   0  0  0  0  0  0  0  0  0  0  0  0
  189.6030  177.5540  146.6840 C   0  0  0  0  0  2  0  0  0  0  0  0
  190.5390  176.6130  147.4100 C   0  0  0  0  0  1  0  0  0  0  0  0
  181.9520  178.6810  138.0120 C   0  0  0  0  0  0  0  0  0  0  0  0
  182.9030  179.3700  137.6690 O   0  0  0  0  0  0  0  0  0  0  0  0
  180.5580  179.0410  137.5780 C   0  0  1  0  0  3  0  0  0  0  0  0
  180.5360  183.1320  136.2180 C   0  0  0  0  0  0  0  0  0  0  0  0
  180.4240  181.5290  138.0300 C   0  0  0  0  0  0  0  0  0  0  0  0
  180.6230  182.0890  135.2940 C   0  0  0  0  0  3  0  0  0  0  0  0
  180.5490  184.7920  135.6640 Cl  0  0  0  0  0  0  0  0  0  0  0  0
  180.5160  180.4720  137.1060 C   0  0  0  0  0  0  0  0  0  0  0  0
  180.4350  182.8520  137.5820 C   0  0  0  0  0  3  0  0  0  0  0  0
  180.6160  180.7640  135.7350 C   0  0  0  0  0  3  0  0  0  0  0  0
  180.2930  181.2320  139.7570 Cl  0  0  0  0  0  0  0  0  0  0  0  0
  179.9570  178.0410  136.5690 C   0  0  0  0  0  3  0  0  0  0  0  0
  181.0380  177.2260  135.8650 C   0  0  0  0  0  2  0  0  0  0  0  0
  181.4830  177.9330  134.5990 C   0  0  0  0  0  1  0  0  0  0  0  0
  179.3820  175.6480  137.2000 C   0  0  0  0  0  1  0  0  0  0  0  0
  178.9320  177.1020  137.2130 C   0  0  0  0  0  2  0  0  0  0  0  0
  183.2470  176.5650  138.5120 C   0  0  0  0  0  2  0  0  0  0  0  0
  186.4740  178.1720  137.1810 C   0  0  0  0  0  2  0  0  0  0  0  0
  186.6410  177.3790  135.8800 C   0  0  1  0  0  0  0  0  0  0  0  0
  187.3420  178.1580  134.9800 F   0  0  0  0  0  0  0  0  0  0  0  0
  184.3570  176.3500  136.2760 C   0  0  0  0  0  2  0  0  0  0  0  0
  185.5370  177.4690  138.1650 C   0  0  0  0  0  2  0  0  0  0  0  0
  184.1830  177.2280  137.5130 C   0  0  2  0  0  3  0  0  0  0  0  0
  187.4360  176.1090  136.1330 C   0  0  0  0  0  1  0  0  0  0  0  0
  185.2760  177.0430  135.2700 C   0  0  0  0  0  2  0  0  0  0  0  0
  1 35  1  6  0  0  0
  1 10  1  0  0  0  0
  2  3  1  0  0  0  0
  3  6  1  0  0  0  0
  4 11  1  0  0  0  0
  5  2  2  0  0  0  0
  6  9  1  0  0  0  0
  7 12  1  0  0  0  0
  8  5  1  0  0  0  0
  9 13  1  6  0  0  0
 10  7  2  0  0  0  0
 10  5  1  0  0  0  0
 11  9  1  0  0  0  0
 12  4  1  0  0  0  0
 12  3  2  0  0  0  0
 13 14  1  0  0  0  0
 15 14  1  0  0  0  0
 15 16  1  0  0  0  0
 17 18  1  0  0  0  0
 17 16  1  0  0  0  0
 19  1  1  0  0  0  0
 20 19  2  0  0  0  0
 21 30  1  6  0  0  0
 21 19  1  0  0  0  0
 22 27  1  0  0  0  0
 23 29  1  0  0  0  0
 24 28  1  0  0  0  0
 24 22  2  0  0  0  0
 25 22  1  0  0  0  0
 26 21  1  0  0  0  0
 26 23  1  0  0  0  0
 27 23  2  0  0  0  0
 28 26  2  0  0  0  0
 30 34  1  0  0  0  0
 31 30  1  0  0  0  0
 32 31  1  0  0  0  0
 33 34  1  0  0  0  0
 36 40  1  0  0  0  0
 37 42  1  1  0  0  0
 37 36  1  0  0  0  0
 38 37  1  0  0  0  0
 39 41  1  0  0  0  0
 41 40  1  0  0  0  0
 41 35  1  1  0  0  0
 43 37  1  0  0  0  0
 43 39  1  0  0  0  0
M  END
>  <MODEL>
4

>  <REMARK>
 VINA RESULT:      -5.8      2.417      3.364
  Name = 
  14 active torsions:
  status: ('A' for Active; 'I' for Inactive)
    1  A    between atoms: C_1  and  C_34
    2  A    between atoms: C_1  and  C_35
    3  A    between atoms: C_2  and  C_27
    4  A    between atoms: C_8  and  C_30
    5  A    between atoms: C_8  and  C_34
    6  A    between atoms: C_11  and  C_22
    7  A    between atoms: C_11  and  C_36
    8  A    between atoms: C_13  and  C_27
    9  A    between atoms: C_21  and  C_30
   10  A    between atoms: C_26  and  S_31
   11  A    between atoms: C_27  and  C_30
   12  A    between atoms: C_29  and  S_31
   13  A    between atoms: C_29  and  C_36
   14  A    between atoms: C_34  and  C_38
                            x       y       z     vdW  Elec       q    Type
                         _______ _______ _______ _____ _____    ______ ____

>  <TORSDO>
F 14

$$$$
=
 OpenBabel10262422163D

 43 46  0  0  1  0  0  0  0  0999 V2000
  186.6680  178.9820  142.1900 C   0  0  1  0  0  3  0  0  0  0  0  0
  183.5150  179.0380  144.3110 C   0  0  0  0  0  3  0  0  0  0  0  0
  182.5220  178.7880  143.3610 C   0  0  0  0  0  0  0  0  0  0  0  0
  181.8490  178.3850  140.9420 C   0  0  0  0  0  2  0  0  0  0  0  0
  184.8570  179.1150  143.9330 C   0  0  0  0  0  0  0  0  0  0  0  0
  181.1030  178.6290  143.8340 C   0  0  0  0  0  2  0  0  0  0  0  0
  184.2230  178.6820  141.6350 C   0  0  0  0  0  3  0  0  0  0  0  0
  185.8240  179.3720  144.8990 O   0  0  0  0  0  1  0  0  0  0  0  0
  180.0700  178.7100  142.7040 C   0  0  2  0  0  3  0  0  0  0  0  0
  185.2210  178.9250  142.5900 C   0  0  0  0  0  0  0  0  0  0  0  0
  180.5230  177.8770  141.5060 C   0  0  0  0  0  2  0  0  0  0  0  0
  182.8820  178.5910  142.0110 C   0  0  0  0  0  0  0  0  0  0  0  0
  179.7860  180.1520  142.3000 C   0  0  0  0  0  2  0  0  0  0  0  0
  179.0130  180.1930  140.9970 C   0  0  0  0  0  2  0  0  0  0  0  0
  179.5460  181.3160  140.1300 C   0  0  0  0  0  2  0  0  0  0  0  0
  179.3690  180.8800  138.3770 S   0  0  0  0  0  0  0  0  0  0  0  0
  181.1650  180.8240  138.1180 C   0  0  0  0  0  2  0  0  0  0  0  0
  181.5550  179.4660  137.5750 C   0  0  0  0  0  1  0  0  0  0  0  0
  187.3830  177.6930  142.4900 C   0  0  0  0  0  0  0  0  0  0  0  0
  186.7800  176.6290  142.4780 O   0  0  0  0  0  0  0  0  0  0  0  0
  188.8260  177.7430  142.9060 C   0  0  1  0  0  3  0  0  0  0  0  0
  189.0620  177.8590  147.2090 C   0  0  0  0  0  0  0  0  0  0  0  0
  189.9840  178.4420  145.0460 C   0  0  0  0  0  0  0  0  0  0  0  0
  188.0170  177.1760  146.5840 C   0  0  0  0  0  3  0  0  0  0  0  0
  189.1430  177.9230  148.9560 Cl  0  0  0  0  0  0  0  0  0  0  0  0
  188.9320  177.7580  144.4090 C   0  0  0  0  0  0  0  0  0  0  0  0
  190.0430  178.4890  146.4410 C   0  0  0  0  0  3  0  0  0  0  0  0
  187.9500  177.1270  145.1900 C   0  0  0  0  0  3  0  0  0  0  0  0
  191.2460  179.2490  144.1280 Cl  0  0  0  0  0  0  0  0  0  0  0  0
  189.6900  176.6530  142.2380 C   0  0  0  0  0  3  0  0  0  0  0  0
  190.9230  177.2410  141.5600 C   0  0  0  0  0  2  0  0  0  0  0  0
  191.0130  176.7540  140.1260 C   0  0  0  0  0  1  0  0  0  0  0  0
  191.5820  175.6330  143.5930 C   0  0  0  0  0  1  0  0  0  0  0  0
  190.1090  175.5530  143.2190 C   0  0  0  0  0  2  0  0  0  0  0  0
  186.8270  179.4350  140.7400 C   0  0  0  0  0  2  0  0  0  0  0  0
  185.5390  177.2810  137.8290 C   0  0  0  0  0  2  0  0  0  0  0  0
  186.8650  176.9920  137.1150 C   0  0  1  0  0  0  0  0  0  0  0  0
  186.7430  175.7960  136.4350 F   0  0  0  0  0  0  0  0  0  0  0  0
  188.0870  178.0690  139.0590 C   0  0  0  0  0  2  0  0  0  0  0  0
  185.6450  178.4820  138.7700 C   0  0  0  0  0  2  0  0  0  0  0  0
  186.7570  178.2530  139.7850 C   0  0  2  0  0  3  0  0  0  0  0  0
  187.1710  178.0860  136.1060 C   0  0  0  0  0  1  0  0  0  0  0  0
  188.0090  176.8610  138.1260 C   0  0  0  0  0  2  0  0  0  0  0  0
  1 35  1  6  0  0  0
  1 19  1  0  0  0  0
  1 10  1  0  0  0  0
  3  6  1  0  0  0  0
  3  2  2  0  0  0  0
  4 11  1  0  0  0  0
  4 12  1  0  0  0  0
  5  2  1  0  0  0  0
  5  8  1  0  0  0  0
  7 12  2  0  0  0  0
  7 10  1  0  0  0  0
  9 13  1  6  0  0  0
  9  6  1  0  0  0  0
 10  5  2  0  0  0  0
 11  9  1  0  0  0  0
 12  3  1  0  0  0  0
 14 13  1  0  0  0  0
 15 14  1  0  0  0  0
 16 15  1  0  0  0  0
 17 16  1  0  0  0  0
 18 17  1  0  0  0  0
 19 21  1  0  0  0  0
 20 19  2  0  0  0  0
 21 30  1  1  0  0  0
 21 26  1  0  0  0  0
 22 25  1  0  0  0  0
 23 27  1  0  0  0  0
 24 22  1  0  0  0  0
 26 23  2  0  0  0  0
 26 28  1  0  0  0  0
 27 22  2  0  0  0  0
 28 24  2  0  0  0  0
 29 23  1  0  0  0  0
 30 34  1  0  0  0  0
 31 30  1  0  0  0  0
 32 31  1  0  0  0  0
 34 33  1  0  0  0  0
 36 40  1  0  0  0  0
 37 42  1  6  0  0  0
 37 36  1  0  0  0  0
 37 43  1  0  0  0  0
 38 37  1  0  0  0  0
 39 41  1  0  0  0  0
 40 41  1  0  0  0  0
 41 35  1  1  0  0  0
 43 39  1  0  0  0  0
M  END
>  <MODEL>
5

>  <REMARK>
 VINA RESULT:      -5.7      4.401      9.345
  Name = 
  14 active torsions:
  status: ('A' for Active; 'I' for Inactive)
    1  A    between atoms: C_1  and  C_34
    2  A    between atoms: C_1  and  C_35
    3  A    between atoms: C_2  and  C_27
    4  A    between atoms: C_8  and  C_30
    5  A    between atoms: C_8  and  C_34
    6  A    between atoms: C_11  and  C_22
    7  A    between atoms: C_11  and  C_36
    8  A    between atoms: C_13  and  C_27
    9  A    between atoms: C_21  and  C_30
   10  A    between atoms: C_26  and  S_31
   11  A    between atoms: C_27  and  C_30
   12  A    between atoms: C_29  and  S_31
   13  A    between atoms: C_29  and  C_36
   14  A    between atoms: C_34  and  C_38
                            x       y       z     vdW  Elec       q    Type
                         _______ _______ _______ _____ _____    ______ ____

>  <TORSDO>
F 14

$$$$
=
 OpenBabel10262422163D

 43 46  0  0  1  0  0  0  0  0999 V2000
  185.6610  178.9100  140.2850 C   0  0  1  0  0  3  0  0  0  0  0  0
  189.2090  177.8360  139.4500 C   0  0  0  0  0  3  0  0  0  0  0  0
  189.0380  177.2060  138.2150 C   0  0  0  0  0  0  0  0  0  0  0  0
  187.5050  176.4140  136.3490 C   0  0  0  0  0  2  0  0  0  0  0  0
  188.1150  178.3760  140.1300 C   0  0  0  0  0  0  0  0  0  0  0  0
  190.2600  176.7180  137.4860 C   0  0  0  0  0  2  0  0  0  0  0  0
  186.6590  177.6660  138.3290 C   0  0  0  0  0  3  0  0  0  0  0  0
  188.3130  178.9920  141.3610 O   0  0  0  0  0  1  0  0  0  0  0  0
  189.9410  175.7520  136.3390 C   0  0  2  0  0  3  0  0  0  0  0  0
  186.8320  178.3050  139.5650 C   0  0  0  0  0  0  0  0  0  0  0  0
  188.7730  176.2770  135.5070 C   0  0  0  0  0  2  0  0  0  0  0  0
  187.7520  177.1360  137.6400 C   0  0  0  0  0  0  0  0  0  0  0  0
  189.6680  174.3410  136.8490 C   0  0  0  0  0  2  0  0  0  0  0  0
  190.6050  173.3500  136.1870 C   0  0  0  0  0  2  0  0  0  0  0  0
  191.8830  174.0570  135.7840 C   0  0  0  0  0  2  0  0  0  0  0  0
  193.2180  172.8450  135.5740 S   0  0  0  0  0  0  0  0  0  0  0  0
  194.4450  173.9270  136.3610 C   0  0  0  0  0  2  0  0  0  0  0  0
  193.8440  174.5530  137.6000 C   0  0  0  0  0  1  0  0  0  0  0  0
  184.5460  179.2670  139.3390 C   0  0  0  0  0  0  0  0  0  0  0  0
  184.4450  180.4030  138.8960 O   0  0  0  0  0  0  0  0  0  0  0  0
  183.4990  178.2350  139.0280 C   0  0  1  0  0  3  0  0  0  0  0  0
  180.2390  178.6350  141.8210 C   0  0  0  0  0  0  0  0  0  0  0  0
  181.6340  177.2360  140.4180 C   0  0  0  0  0  0  0  0  0  0  0  0
  180.9300  179.7670  141.3860 C   0  0  0  0  0  3  0  0  0  0  0  0
  178.9310  178.7980  142.9720 Cl  0  0  0  0  0  0  0  0  0  0  0  0
  182.3370  178.3720  139.9780 C   0  0  0  0  0  0  0  0  0  0  0  0
  180.5910  177.3730  141.3370 C   0  0  0  0  0  3  0  0  0  0  0  0
  181.9760  179.6380  140.4700 C   0  0  0  0  0  3  0  0  0  0  0  0
  182.0320  175.6260  139.8390 Cl  0  0  0  0  0  0  0  0  0  0  0  0
  183.0820  178.2200  137.5420 C   0  0  0  0  0  3  0  0  0  0  0  0
  183.4010  176.8850  136.8760 C   0  0  0  0  0  2  0  0  0  0  0  0
  183.9540  177.1160  135.4830 C   0  0  0  0  0  1  0  0  0  0  0  0
  180.7740  177.3530  136.9290 C   0  0  0  0  0  1  0  0  0  0  0  0
  181.6020  178.5600  137.3440 C   0  0  0  0  0  2  0  0  0  0  0  0
  185.2040  178.0290  141.4460 C   0  0  0  0  0  2  0  0  0  0  0  0
  184.5960  179.9340  144.7280 C   0  0  0  0  0  2  0  0  0  0  0  0
  185.2800  178.9780  145.7130 C   0  0  1  0  0  0  0  0  0  0  0  0
  185.7080  179.7080  146.8040 F   0  0  0  0  0  0  0  0  0  0  0  0
  186.1460  177.6460  143.7360 C   0  0  0  0  0  2  0  0  0  0  0  0
  184.2680  179.2500  143.4000 C   0  0  0  0  0  2  0  0  0  0  0  0
  185.5350  178.6720  142.7850 C   0  0  2  0  0  3  0  0  0  0  0  0
  184.2980  177.9250  146.1980 C   0  0  0  0  0  1  0  0  0  0  0  0
  186.5000  178.3130  145.0650 C   0  0  0  0  0  2  0  0  0  0  0  0
  1 35  1  1  0  0  0
  2  5  1  0  0  0  0
  3  2  2  0  0  0  0
  4 12  1  0  0  0  0
  5  8  1  0  0  0  0
  6  3  1  0  0  0  0
  7 10  1  0  0  0  0
  9 13  1  1  0  0  0
  9  6  1  0  0  0  0
 10  5  2  0  0  0  0
 10  1  1  0  0  0  0
 11  9  1  0  0  0  0
 11  4  1  0  0  0  0
 12  3  1  0  0  0  0
 12  7  2  0  0  0  0
 14 13  1  0  0  0  0
 15 14  1  0  0  0  0
 16 15  1  0  0  0  0
 16 17  1  0  0  0  0
 17 18  1  0  0  0  0
 19  1  1  0  0  0  0
 20 19  2  0  0  0  0
 21 30  1  6  0  0  0
 21 19  1  0  0  0  0
 21 26  1  0  0  0  0
 22 25  1  0  0  0  0
 23 27  1  0  0  0  0
 24 22  1  0  0  0  0
 26 23  2  0  0  0  0
 26 28  1  0  0  0  0
 27 22  2  0  0  0  0
 28 24  2  0  0  0  0
 29 23  1  0  0  0  0
 31 30  1  0  0  0  0
 32 31  1  0  0  0  0
 33 34  1  0  0  0  0
 34 30  1  0  0  0  0
 36 37  1  0  0  0  0
 37 42  1  1  0  0  0
 37 38  1  0  0  0  0
 39 43  1  0  0  0  0
 40 36  1  0  0  0  0
 41 35  1  6  0  0  0
 41 40  1  0  0  0  0
 41 39  1  0  0  0  0
 43 37  1  0  0  0  0
M  END
>  <MODEL>
6

>  <REMARK>
 VINA RESULT:      -5.7      4.161      6.620
  Name = 
  14 active torsions:
  status: ('A' for Active; 'I' for Inactive)
    1  A    between atoms: C_1  and  C_34
    2  A    between atoms: C_1  and  C_35
    3  A    between atoms: C_2  and  C_27
    4  A    between atoms: C_8  and  C_30
    5  A    between atoms: C_8  and  C_34
    6  A    between atoms: C_11  and  C_22
    7  A    between atoms: C_11  and  C_36
    8  A    between atoms: C_13  and  C_27
    9  A    between atoms: C_21  and  C_30
   10  A    between atoms: C_26  and  S_31
   11  A    between atoms: C_27  and  C_30
   12  A    between atoms: C_29  and  S_31
   13  A    between atoms: C_29  and  C_36
   14  A    between atoms: C_34  and  C_38
                            x       y       z     vdW  Elec       q    Type
                         _______ _______ _______ _____ _____    ______ ____

>  <TORSDO>
F 14

$$$$
=
 OpenBabel10262422163D

 43 46  0  0  1  0  0  0  0  0999 V2000
  182.3950  178.5320  140.2740 C   0  0  1  0  0  3  0  0  0  0  0  0
  185.2070  178.7690  137.7290 C   0  0  0  0  0  3  0  0  0  0  0  0
  185.3260  177.4430  137.3050 C   0  0  0  0  0  0  0  0  0  0  0  0
  184.6070  175.0110  137.4750 C   0  0  0  0  0  2  0  0  0  0  0  0
  184.2680  179.1220  138.7010 C   0  0  0  0  0  0  0  0  0  0  0  0
  186.2920  177.1310  136.1950 C   0  0  0  0  0  2  0  0  0  0  0  0
  183.5470  176.8130  138.8290 C   0  0  0  0  0  3  0  0  0  0  0  0
  184.1760  180.4480  139.1100 O   0  0  0  0  0  1  0  0  0  0  0  0
  186.5970  175.6360  136.0530 C   0  0  2  0  0  3  0  0  0  0  0  0
  183.4220  178.1450  139.2490 C   0  0  0  0  0  0  0  0  0  0  0  0
  185.3090  174.8190  136.1310 C   0  0  0  0  0  2  0  0  0  0  0  0
  184.4750  176.4580  137.8480 C   0  0  0  0  0  0  0  0  0  0  0  0
  187.6150  175.1660  137.0860 C   0  0  0  0  0  2  0  0  0  0  0  0
  188.6950  176.2120  137.2790 C   0  0  0  0  0  2  0  0  0  0  0  0
  188.9010  176.4550  138.7610 C   0  0  0  0  0  2  0  0  0  0  0  0
  189.3670  178.1870  139.0430 S   0  0  0  0  0  0  0  0  0  0  0  0
  188.3200  178.3210  140.5200 C   0  0  0  0  0  2  0  0  0  0  0  0
  188.7290  177.2650  141.5250 C   0  0  0  0  0  1  0  0  0  0  0  0
  180.9940  178.3950  139.7430 C   0  0  0  0  0  0  0  0  0  0  0  0
  180.1020  177.9430  140.4480 O   0  0  0  0  0  0  0  0  0  0  0  0
  180.7290  178.7240  138.3010 C   0  0  1  0  0  3  0  0  0  0  0  0
  179.5860  175.1200  136.2290 C   0  0  0  0  0  0  0  0  0  0  0  0
  180.9620  177.1090  136.3640 C   0  0  0  0  0  0  0  0  0  0  0  0
  178.9330  175.4860  137.4070 C   0  0  0  0  0  3  0  0  0  0  0  0
  179.1340  173.6450  135.4020 Cl  0  0  0  0  0  0  0  0  0  0  0  0
  180.3100  177.4830  137.5550 C   0  0  0  0  0  0  0  0  0  0  0  0
  180.5960  175.9310  135.7090 C   0  0  0  0  0  3  0  0  0  0  0  0
  179.2940  176.6610  138.0700 C   0  0  0  0  0  3  0  0  0  0  0  0
  182.2370  178.0950  135.6660 Cl  0  0  0  0  0  0  0  0  0  0  0  0
  179.7600  179.9100  138.1160 C   0  0  0  0  0  3  0  0  0  0  0  0
  180.3250  181.2010  138.7010 C   0  0  0  0  0  2  0  0  0  0  0  0
  179.4210  181.7120  139.8060 C   0  0  0  0  0  1  0  0  0  0  0  0
  180.3790  180.9870  135.8990 C   0  0  0  0  0  1  0  0  0  0  0  0
  179.3720  180.1290  136.6500 C   0  0  0  0  0  2  0  0  0  0  0  0
  182.6150  177.7890  141.5910 C   0  0  0  0  0  2  0  0  0  0  0  0
  183.6020  179.3520  144.9600 C   0  0  0  0  0  2  0  0  0  0  0  0
  185.1020  179.0350  144.9620 C   0  0  1  0  0  0  0  0  0  0  0  0
  185.7480  179.9840  145.7320 F   0  0  0  0  0  0  0  0  0  0  0  0
  184.8800  178.2170  142.5720 C   0  0  0  0  0  2  0  0  0  0  0  0
  182.8330  178.4750  143.9720 C   0  0  0  0  0  2  0  0  0  0  0  0
  183.4120  178.6350  142.5720 C   0  0  2  0  0  3  0  0  0  0  0  0
  185.3540  177.6690  145.5780 C   0  0  0  0  0  1  0  0  0  0  0  0
  185.6720  179.0940  143.5400 C   0  0  0  0  0  2  0  0  0  0  0  0
  1 35  1  1  0  0  0
  2  5  1  0  0  0  0
  3  2  2  0  0  0  0
  3 12  1  0  0  0  0
  4 12  1  0  0  0  0
  5  8  1  0  0  0  0
  5 10  2  0  0  0  0
  6  3  1  0  0  0  0
  7 10  1  0  0  0  0
  9 11  1  0  0  0  0
  9  6  1  0  0  0  0
  9 13  1  1  0  0  0
 10  1  1  0  0  0  0
 11  4  1  0  0  0  0
 12  7  2  0  0  0  0
 13 14  1  0  0  0  0
 14 15  1  0  0  0  0
 15 16  1  0  0  0  0
 16 17  1  0  0  0  0
 17 18  1  0  0  0  0
 19  1  1  0  0  0  0
 19 20  2  0  0  0  0
 21 30  1  1  0  0  0
 21 19  1  0  0  0  0
 22 24  1  0  0  0  0
 23 26  2  0  0  0  0
 24 28  2  0  0  0  0
 25 22  1  0  0  0  0
 26 28  1  0  0  0  0
 26 21  1  0  0  0  0
 27 22  2  0  0  0  0
 27 23  1  0  0  0  0
 29 23  1  0  0  0  0
 30 31  1  0  0  0  0
 31 32  1  0  0  0  0
 33 34  1  0  0  0  0
 34 30  1  0  0  0  0
 36 37  1  0  0  0  0
 37 42  1  1  0  0  0
 37 38  1  0  0  0  0
 39 41  1  0  0  0  0
 39 43  1  0  0  0  0
 40 36  1  0  0  0  0
 41 35  1  6  0  0  0
 41 40  1  0  0  0  0
 43 37  1  0  0  0  0
M  END
>  <MODEL>
7

>  <REMARK>
 VINA RESULT:      -5.7      3.269      6.285
  Name = 
  14 active torsions:
  status: ('A' for Active; 'I' for Inactive)
    1  A    between atoms: C_1  and  C_34
    2  A    between atoms: C_1  and  C_35
    3  A    between atoms: C_2  and  C_27
    4  A    between atoms: C_8  and  C_30
    5  A    between atoms: C_8  and  C_34
    6  A    between atoms: C_11  and  C_22
    7  A    between atoms: C_11  and  C_36
    8  A    between atoms: C_13  and  C_27
    9  A    between atoms: C_21  and  C_30
   10  A    between atoms: C_26  and  S_31
   11  A    between atoms: C_27  and  C_30
   12  A    between atoms: C_29  and  S_31
   13  A    between atoms: C_29  and  C_36
   14  A    between atoms: C_34  and  C_38
                            x       y       z     vdW  Elec       q    Type
                         _______ _______ _______ _____ _____    ______ ____

>  <TORSDO>
F 14

$$$$
=
 OpenBabel10262422163D

 43 46  0  0  1  0  0  0  0  0999 V2000
  189.3350  177.2420  140.0320 C   0  0  1  0  0  3  0  0  0  0  0  0
  188.3250  176.3610  143.5880 C   0  0  0  0  0  3  0  0  0  0  0  0
  187.1760  177.1370  143.7630 C   0  0  0  0  0  0  0  0  0  0  0  0
  185.5290  178.8540  142.8680 C   0  0  0  0  0  2  0  0  0  0  0  0
  189.0340  176.4040  142.3850 C   0  0  0  0  0  0  0  0  0  0  0  0
  186.4020  176.9890  145.0440 C   0  0  0  0  0  2  0  0  0  0  0  0
  187.4370  178.0020  141.5120 C   0  0  0  0  0  3  0  0  0  0  0  0
  190.1780  175.6260  142.2400 O   0  0  0  0  0  1  0  0  0  0  0  0
  185.3870  178.1130  145.2780 C   0  0  2  0  0  3  0  0  0  0  0  0
  188.5850  177.2180  141.3330 C   0  0  0  0  0  0  0  0  0  0  0  0
  184.6040  178.4010  143.9970 C   0  0  0  0  0  2  0  0  0  0  0  0
  186.7180  177.9530  142.7080 C   0  0  0  0  0  0  0  0  0  0  0  0
  186.0550  179.3750  145.8140 C   0  0  0  0  0  2  0  0  0  0  0  0
  186.3120  179.2460  147.3020 C   0  0  0  0  0  2  0  0  0  0  0  0
  187.8060  179.2270  147.5550 C   0  0  0  0  0  2  0  0  0  0  0  0
  188.3140  177.5790  148.1210 S   0  0  0  0  0  0  0  0  0  0  0  0
  189.5210  177.3910  146.7790 C   0  0  0  0  0  2  0  0  0  0  0  0
  190.7580  176.6970  147.3050 C   0  0  0  0  0  1  0  0  0  0  0  0
  188.6340  178.0810  138.9980 C   0  0  0  0  0  0  0  0  0  0  0  0
  188.5450  179.2930  139.1360 O   0  0  0  0  0  0  0  0  0  0  0  0
  187.9550  177.3970  137.8450 C   0  0  1  0  0  3  0  0  0  0  0  0
  183.6820  177.6970  138.3360 C   0  0  0  0  0  0  0  0  0  0  0  0
  185.6210  176.4480  137.5930 C   0  0  0  0  0  0  0  0  0  0  0  0
  184.5070  178.7550  138.7220 C   0  0  0  0  0  3  0  0  0  0  0  0
  181.9500  177.8130  138.5570 Cl  0  0  0  0  0  0  0  0  0  0  0  0
  186.4590  177.5100  137.9830 C   0  0  0  0  0  0  0  0  0  0  0  0
  184.2390  176.5480  137.7720 C   0  0  0  0  0  3  0  0  0  0  0  0
  185.8890  178.6620  138.5490 C   0  0  0  0  0  3  0  0  0  0  0  0
  186.2690  174.9810  136.8750 Cl  0  0  0  0  0  0  0  0  0  0  0  0
  188.4840  177.8540  136.4690 C   0  0  0  0  0  3  0  0  0  0  0  0
  188.9710  176.6780  135.6280 C   0  0  0  0  0  2  0  0  0  0  0  0
  190.0940  177.1230  134.7110 C   0  0  0  0  0  1  0  0  0  0  0  0
  186.7700  177.8470  134.5940 C   0  0  0  0  0  1  0  0  0  0  0  0
  187.4490  178.6640  135.6830 C   0  0  0  0  0  2  0  0  0  0  0  0
  190.7960  177.6360  140.2370 C   0  0  0  0  0  2  0  0  0  0  0  0
  192.0740  174.9040  137.8550 C   0  0  0  0  0  2  0  0  0  0  0  0
  193.5030  175.4100  137.6260 C   0  0  1  0  0  0  0  0  0  0  0  0
  194.3060  174.3280  137.3180 F   0  0  0  0  0  0  0  0  0  0  0  0
  193.1150  177.1640  139.4150 C   0  0  0  0  0  2  0  0  0  0  0  0
  191.1590  176.0030  138.3960 C   0  0  0  0  0  2  0  0  0  0  0  0
  191.7340  176.5730  139.6860 C   0  0  2  0  0  3  0  0  0  0  0  0
  193.5410  176.3790  136.4560 C   0  0  0  0  0  1  0  0  0  0  0  0
  194.0540  176.0780  138.8910 C   0  0  0  0  0  2  0  0  0  0  0  0
  1 35  1  1  0  0  0
  1 10  1  0  0  0  0
  2  3  1  0  0  0  0
  3  6  1  0  0  0  0
  4 11  1  0  0  0  0
  5  2  2  0  0  0  0
  6  9  1  0  0  0  0
  7 12  1  0  0  0  0
  8  5  1  0  0  0  0
  9 13  1  6  0  0  0
 10  7  2  0  0  0  0
 10  5  1  0  0  0  0
 11  9  1  0  0  0  0
 12  4  1  0  0  0  0
 12  3  2  0  0  0  0
 13 14  1  0  0  0  0
 14 15  1  0  0  0  0
 15 16  1  0  0  0  0
 17 18  1  0  0  0  0
 17 16  1  0  0  0  0
 19 20  2  0  0  0  0
 19  1  1  0  0  0  0
 21 30  1  6  0  0  0
 21 26  1  0  0  0  0
 21 19  1  0  0  0  0
 22 25  1  0  0  0  0
 22 24  1  0  0  0  0
 23 27  1  0  0  0  0
 23 26  2  0  0  0  0
 26 28  1  0  0  0  0
 27 22  2  0  0  0  0
 28 24  2  0  0  0  0
 29 23  1  0  0  0  0
 31 30  1  0  0  0  0
 32 31  1  0  0  0  0
 33 34  1  0  0  0  0
 34 30  1  0  0  0  0
 36 40  1  0  0  0  0
 37 42  1  6  0  0  0
 37 36  1  0  0  0  0
 37 43  1  0  0  0  0
 38 37  1  0  0  0  0
 39 41  1  0  0  0  0
 40 41  1  0  0  0  0
 41 35  1  6  0  0  0
 43 39  1  0  0  0  0
M  END
>  <MODEL>
8

>  <REMARK>
 VINA RESULT:      -5.7      4.170      7.074
  Name = 
  14 active torsions:
  status: ('A' for Active; 'I' for Inactive)
    1  A    between atoms: C_1  and  C_34
    2  A    between atoms: C_1  and  C_35
    3  A    between atoms: C_2  and  C_27
    4  A    between atoms: C_8  and  C_30
    5  A    between atoms: C_8  and  C_34
    6  A    between atoms: C_11  and  C_22
    7  A    between atoms: C_11  and  C_36
    8  A    between atoms: C_13  and  C_27
    9  A    between atoms: C_21  and  C_30
   10  A    between atoms: C_26  and  S_31
   11  A    between atoms: C_27  and  C_30
   12  A    between atoms: C_29  and  S_31
   13  A    between atoms: C_29  and  C_36
   14  A    between atoms: C_34  and  C_38
                            x       y       z     vdW  Elec       q    Type
                         _______ _______ _______ _____ _____    ______ ____

>  <TORSDO>
F 14

$$$$
=
 OpenBabel10262422163D

 43 46  0  0  1  0  0  0  0  0999 V2000
  189.2110  176.3700  137.2920 C   0  0  1  0  0  3  0  0  0  0  0  0
  188.3800  178.6520  140.2140 C   0  0  0  0  0  3  0  0  0  0  0  0
  188.9790  177.9820  141.2840 C   0  0  0  0  0  0  0  0  0  0  0  0
  190.2730  175.9840  142.1750 C   0  0  0  0  0  2  0  0  0  0  0  0
  188.4410  178.1250  138.9230 C   0  0  0  0  0  0  0  0  0  0  0  0
  188.9580  178.6360  142.6390 C   0  0  0  0  0  2  0  0  0  0  0  0
  189.7180  176.2450  139.7610 C   0  0  0  0  0  3  0  0  0  0  0  0
  187.8300  178.8100  137.8780 O   0  0  0  0  0  1  0  0  0  0  0  0
  189.3190  177.6810  143.7830 C   0  0  2  0  0  3  0  0  0  0  0  0
  189.1230  176.9210  138.6860 C   0  0  0  0  0  0  0  0  0  0  0  0
  190.5400  176.8410  143.4120 C   0  0  0  0  0  2  0  0  0  0  0  0
  189.6700  176.7750  141.0520 C   0  0  0  0  0  0  0  0  0  0  0  0
  188.1400  176.7990  144.1770 C   0  0  0  0  0  2  0  0  0  0  0  0
  186.9720  177.6510  144.6350 C   0  0  0  0  0  2  0  0  0  0  0  0
  187.1210  177.9560  146.1120 C   0  0  0  0  0  2  0  0  0  0  0  0
  185.5730  178.6520  146.7570 S   0  0  0  0  0  0  0  0  0  0  0  0
  184.9710  179.0810  145.0990 C   0  0  0  0  0  2  0  0  0  0  0  0
  183.4610  178.9910  145.0710 C   0  0  0  0  0  1  0  0  0  0  0  0
  187.8760  176.3910  136.5970 C   0  0  0  0  0  0  0  0  0  0  0  0
  187.6950  177.1010  135.6180 O   0  0  0  0  0  0  0  0  0  0  0  0
  186.7380  175.6050  137.1860 C   0  0  1  0  0  3  0  0  0  0  0  0
  183.0610  177.8550  137.0970 C   0  0  0  0  0  0  0  0  0  0  0  0
  184.6280  176.3610  136.0090 C   0  0  0  0  0  0  0  0  0  0  0  0
  183.8920  177.9160  138.2180 C   0  0  0  0  0  3  0  0  0  0  0  0
  181.5580  178.7510  137.0740 Cl  0  0  0  0  0  0  0  0  0  0  0  0
  185.4680  176.4160  137.1370 C   0  0  0  0  0  0  0  0  0  0  0  0
  183.4300  177.0800  135.9960 C   0  0  0  0  0  3  0  0  0  0  0  0
  185.0890  177.1990  138.2400 C   0  0  0  0  0  3  0  0  0  0  0  0
  185.0460  175.4060  134.5960 Cl  0  0  0  0  0  0  0  0  0  0  0  0
  186.5930  174.1950  136.5780 C   0  0  0  0  0  3  0  0  0  0  0  0
  187.8970  173.7100  135.9520 C   0  0  0  0  0  2  0  0  0  0  0  0
  188.1060  172.2390  136.2560 C   0  0  0  0  0  1  0  0  0  0  0  0
  184.6280  172.8000  137.3800 C   0  0  0  0  0  1  0  0  0  0  0  0
  186.0890  173.1660  137.5950 C   0  0  0  0  0  2  0  0  0  0  0  0
  190.3170  177.0540  136.4900 C   0  0  0  0  0  2  0  0  0  0  0  0
  193.8040  175.5740  135.8460 C   0  0  0  0  0  2  0  0  0  0  0  0
  193.6000  174.1690  136.4230 C   0  0  1  0  0  0  0  0  0  0  0  0
  194.4660  173.3030  135.7830 F   0  0  0  0  0  0  0  0  0  0  0  0
  191.1330  174.6930  136.6870 C   0  0  0  0  0  2  0  0  0  0  0  0
  192.7500  176.5600  136.3510 C   0  0  0  0  0  2  0  0  0  0  0  0
  191.3550  176.0480  136.0190 C   0  0  2  0  0  3  0  0  0  0  0  0
  193.9210  174.1540  137.9080 C   0  0  0  0  0  1  0  0  0  0  0  0
  192.1650  173.6860  136.1820 C   0  0  0  0  0  2  0  0  0  0  0  0
  1 35  1  6  0  0  0
  1 10  1  0  0  0  0
  2  3  1  0  0  0  0
  3  6  1  0  0  0  0
  4 11  1  0  0  0  0
  5  2  2  0  0  0  0
  6  9  1  0  0  0  0
  7 12  1  0  0  0  0
  8  5  1  0  0  0  0
  9 13  1  6  0  0  0
 10  5  1  0  0  0  0
 10  7  2  0  0  0  0
 11  9  1  0  0  0  0
 12  3  2  0  0  0  0
 12  4  1  0  0  0  0
 13 14  1  0  0  0  0
 14 15  1  0  0  0  0
 15 16  1  0  0  0  0
 17 16  1  0  0  0  0
 18 17  1  0  0  0  0
 19 21  1  0  0  0  0
 19  1  1  0  0  0  0
 20 19  2  0  0  0  0
 21 30  1  6  0  0  0
 22 24  1  0  0  0  0
 23 26  2  0  0  0  0
 24 28  2  0  0  0  0
 25 22  1  0  0  0  0
 26 21  1  0  0  0  0
 26 28  1  0  0  0  0
 27 23  1  0  0  0  0
 27 22  2  0  0  0  0
 29 23  1  0  0  0  0
 30 34  1  0  0  0  0
 31 32  1  0  0  0  0
 31 30  1  0  0  0  0
 33 34  1  0  0  0  0
 36 40  1  0  0  0  0
 36 37  1  0  0  0  0
 37 42  1  1  0  0  0
 38 37  1  0  0  0  0
 41 40  1  0  0  0  0
 41 35  1  1  0  0  0
 41 39  1  0  0  0  0
 43 37  1  0  0  0  0
 43 39  1  0  0  0  0
M  END
>  <MODEL>
9

>  <REMARK>
 VINA RESULT:      -5.6      4.438      7.009
  Name = 
  14 active torsions:
  status: ('A' for Active; 'I' for Inactive)
    1  A    between atoms: C_1  and  C_34
    2  A    between atoms: C_1  and  C_35
    3  A    between atoms: C_2  and  C_27
    4  A    between atoms: C_8  and  C_30
    5  A    between atoms: C_8  and  C_34
    6  A    between atoms: C_11  and  C_22
    7  A    between atoms: C_11  and  C_36
    8  A    between atoms: C_13  and  C_27
    9  A    between atoms: C_21  and  C_30
   10  A    between atoms: C_26  and  S_31
   11  A    between atoms: C_27  and  C_30
   12  A    between atoms: C_29  and  S_31
   13  A    between atoms: C_29  and  C_36
   14  A    between atoms: C_34  and  C_38
                            x       y       z     vdW  Elec       q    Type
                         _______ _______ _______ _____ _____    ______ ____

>  <TORSDO>
F 14

$$$$
