=
 OpenBabel10262421443D

 30 32  0  0  1  0  0  0  0  0999 V2000
  187.7480  177.7220  141.7460 C   0  0  1  0  0  3  0  0  0  0  0  0
  189.2670  176.8790  140.0650 C   0  0  2  0  0  3  0  0  0  0  0  0
  187.8390  178.1250  143.1900 C   0  0  1  0  0  3  0  0  0  0  0  0
  186.8890  178.7690  141.0610 C   0  0  0  0  0  2  0  0  0  0  0  0
  184.0900  178.5350  143.5960 O   0  0  0  0  0  1  0  0  0  0  0  0
  185.3590  178.4490  143.0320 C   0  0  0  0  0  0  0  0  0  0  0  0
  185.5300  178.8400  141.7440 C   0  0  0  0  0  0  0  0  0  0  0  0
  186.5000  177.8540  143.8630 C   0  0  2  0  0  3  0  0  0  0  0  0
  190.7430  176.5160  139.7670 C   0  0  0  0  0  2  0  0  0  0  0  0
  188.7600  177.6040  138.9840 O   0  0  0  0  0  1  0  0  0  0  0  0
  191.9120  176.3260  143.1210 O   0  0  0  0  0  0  0  0  0  0  0  0
  191.9440  177.4890  140.7580 S   0  0  0  0  0  0  0  0  0  0  0  0
  189.1280  177.6640  141.3000 N   0  0  2  0  0  0  0  0  0  0  0  0
  189.0660  177.3950  143.7120 C   0  0  1  0  0  3  0  0  0  0  0  0
  191.2230  176.8920  142.2890 C   0  0  0  0  0  0  0  0  0  0  0  0
  189.7280  176.9190  142.4080 C   0  0  2  0  0  3  0  0  0  0  0  0
  185.2720  179.1200  145.7000 C   0  0  0  0  0  1  0  0  0  0  0  0
  186.5290  178.3470  145.3170 C   0  0  1  0  0  3  0  0  0  0  0  0
  186.7900  177.1980  146.2830 C   0  0  0  0  0  2  0  0  0  0  0  0
  187.2240  177.7150  147.6450 C   0  0  0  0  0  2  0  0  0  0  0  0
  188.1570  176.8470  148.2150 O   0  0  0  0  0  1  0  0  0  0  0  0
  184.4280  179.3480  141.0480 O   0  0  0  0  0  0  0  0  0  0  0  0
  183.9390  178.7530  139.8550 C   0  0  0  0  0  2  0  0  0  0  0  0
  183.0820  177.5550  140.2030 C   0  0  0  0  0  1  0  0  0  0  0  0
  189.9200  178.3090  144.4850 N   0  0  0  0  0  0  0  0  0  0  0  0
  190.7170  179.3020  143.8220 C   0  0  0  0  0  3  0  0  0  0  0  0
  191.8890  179.7060  144.2970 C   0  0  0  0  0  2  0  0  0  0  0  0
  190.1460  178.0860  145.8080 O   0  0  0  0  0  0  0  0  0  0  0  0
  191.8870  176.8140  146.5470 O   0  0  0  0  0  1  0  0  0  0  0  0
  190.6560  176.7860  145.8950 C   0  0  0  0  0  2  0  0  0  0  0  0
  1  4  1  6  0  0  0
  1  3  1  0  0  0  0
  2 10  1  6  0  0  0
  2 13  1  0  0  0  0
  3 14  1  0  0  0  0
  3  8  1  0  0  0  0
  4  7  1  0  0  0  0
  6  5  1  0  0  0  0
  6  8  1  0  0  0  0
  7  6  2  0  0  0  0
  8 18  1  0  0  0  0
  9  2  1  0  0  0  0
  9 12  1  0  0  0  0
 12 15  1  0  0  0  0
 13  1  1  0  0  0  0
 13 16  1  0  0  0  0
 14 25  1  0  0  0  0
 15 16  1  0  0  0  0
 15 11  2  0  0  0  0
 16 14  1  0  0  0  0
 18 17  1  0  0  0  0
 18 19  1  0  0  0  0
 19 20  1  0  0  0  0
 20 21  1  0  0  0  0
 22  7  1  0  0  0  0
 23 24  1  0  0  0  0
 23 22  1  0  0  0  0
 25 28  1  0  0  0  0
 26 27  2  0  0  0  0
 26 25  1  0  0  0  0
 28 30  1  0  0  0  0
 30 29  1  0  0  0  0
M  END
>  <MODEL>
1

>  <REMARK>
 VINA RESULT:      -7.2      0.000      0.000
  Name = 
  9 active torsions:
  status: ('A' for Active; 'I' for Inactive)
    1  A    between atoms: C_7  and  C_16
    2  A    between atoms: C_7  and  C_30
    3  A    between atoms: O_9  and  C_12
    4  A    between atoms: O_9  and  C_17
    5  A    between atoms: C_10  and  N_25
    6  A    between atoms: C_11  and  O_24
    7  A    between atoms: C_13  and  C_30
    8  A    between atoms: C_23  and  N_25
    9  A    between atoms: O_24  and  N_25
                            x       y       z     vdW  Elec       q    Type
                         _______ _______ _______ _____ _____    ______ ____

>  <TORSDO>
F 9

$$$$
=
 OpenBabel10262421443D

 30 32  0  0  1  0  0  0  0  0999 V2000
  187.0500  177.9610  142.4080 C   0  0  1  0  0  3  0  0  0  0  0  0
  186.9260  177.9110  139.9940 C   0  0  2  0  0  3  0  0  0  0  0  0
  188.1190  177.7770  143.4450 C   0  0  1  0  0  3  0  0  0  0  0  0
  186.2160  179.1480  142.8550 C   0  0  0  0  0  2  0  0  0  0  0  0
  185.6850  177.8120  146.3550 O   0  0  0  0  0  1  0  0  0  0  0  0
  186.2520  178.0140  145.1000 C   0  0  0  0  0  0  0  0  0  0  0  0
  185.6540  178.8820  144.2450 C   0  0  0  0  0  0  0  0  0  0  0  0
  187.4890  177.2010  144.7070 C   0  0  2  0  0  3  0  0  0  0  0  0
  187.7520  177.7650  138.6920 C   0  0  0  0  0  2  0  0  0  0  0  0
  186.0320  178.9730  139.8370 O   0  0  0  0  0  1  0  0  0  0  0  0
  190.6930  176.3470  140.1050 O   0  0  0  0  0  0  0  0  0  0  0  0
  189.4880  178.3360  138.8650 S   0  0  0  0  0  0  0  0  0  0  0  0
  187.7800  178.1480  141.1670 N   0  0  2  0  0  0  0  0  0  0  0  0
  189.1940  176.9630  142.7440 C   0  0  1  0  0  3  0  0  0  0  0  0
  189.7840  177.1570  140.1870 C   0  0  0  0  0  0  0  0  0  0  0  0
  188.7550  177.0620  141.2730 C   0  0  2  0  0  3  0  0  0  0  0  0
  189.2460  178.4160  146.0940 C   0  0  0  0  0  1  0  0  0  0  0  0
  188.5390  177.0920  145.8220 C   0  0  1  0  0  3  0  0  0  0  0  0
  187.9330  176.5140  147.0950 C   0  0  0  0  0  2  0  0  0  0  0  0
  188.5740  177.1220  148.3320 C   0  0  0  0  0  2  0  0  0  0  0  0
  187.6530  177.9270  149.0060 O   0  0  0  0  0  1  0  0  0  0  0  0
  184.5120  179.5640  144.6750 O   0  0  0  0  0  0  0  0  0  0  0  0
  183.3660  179.7280  143.8530 C   0  0  0  0  0  2  0  0  0  0  0  0
  182.3520  178.6530  144.1820 C   0  0  0  0  0  1  0  0  0  0  0  0
  190.5230  177.5470  142.9850 N   0  0  0  0  0  0  0  0  0  0  0  0
  190.6890  178.9690  143.0790 C   0  0  0  0  0  3  0  0  0  0  0  0
  191.5230  179.5310  143.9470 C   0  0  0  0  0  2  0  0  0  0  0  0
  191.6390  176.7760  142.8940 O   0  0  0  0  0  0  0  0  0  0  0  0
  191.8200  176.1780  145.0870 O   0  0  0  0  0  1  0  0  0  0  0  0
  191.4630  175.7370  143.8130 C   0  0  0  0  0  2  0  0  0  0  0  0
  1  4  1  1  0  0  0
  1  3  1  0  0  0  0
  2 10  1  6  0  0  0
  2 13  1  0  0  0  0
  3  8  1  0  0  0  0
  4  7  1  0  0  0  0
  6  5  1  0  0  0  0
  7 22  1  0  0  0  0
  7  6  2  0  0  0  0
  8  6  1  0  0  0  0
  8 18  1  0  0  0  0
  9 12  1  0  0  0  0
  9  2  1  0  0  0  0
 11 15  2  0  0  0  0
 12 15  1  0  0  0  0
 13 16  1  0  0  0  0
 13  1  1  0  0  0  0
 14 25  1  0  0  0  0
 14  3  1  0  0  0  0
 15 16  1  0  0  0  0
 16 14  1  0  0  0  0
 18 17  1  0  0  0  0
 18 19  1  0  0  0  0
 19 20  1  0  0  0  0
 20 21  1  0  0  0  0
 23 24  1  0  0  0  0
 23 22  1  0  0  0  0
 25 26  1  0  0  0  0
 26 27  2  0  0  0  0
 28 25  1  0  0  0  0
 28 30  1  0  0  0  0
 30 29  1  0  0  0  0
M  END
>  <MODEL>
2

>  <REMARK>
 VINA RESULT:      -6.9      1.772      2.538
  Name = 
  9 active torsions:
  status: ('A' for Active; 'I' for Inactive)
    1  A    between atoms: C_7  and  C_16
    2  A    between atoms: C_7  and  C_30
    3  A    between atoms: O_9  and  C_12
    4  A    between atoms: O_9  and  C_17
    5  A    between atoms: C_10  and  N_25
    6  A    between atoms: C_11  and  O_24
    7  A    between atoms: C_13  and  C_30
    8  A    between atoms: C_23  and  N_25
    9  A    between atoms: O_24  and  N_25
                            x       y       z     vdW  Elec       q    Type
                         _______ _______ _______ _____ _____    ______ ____

>  <TORSDO>
F 9

$$$$
=
 OpenBabel10262421443D

 30 32  0  0  1  0  0  0  0  0999 V2000
  187.7210  178.1300  143.7360 C   0  0  1  0  0  3  0  0  0  0  0  0
  187.9780  178.2010  146.1390 C   0  0  2  0  0  3  0  0  0  0  0  0
  188.5960  177.8150  142.5570 C   0  0  1  0  0  3  0  0  0  0  0  0
  186.3820  177.4650  143.4680 C   0  0  0  0  0  2  0  0  0  0  0  0
  186.0270  178.9380  140.0010 O   0  0  0  0  0  1  0  0  0  0  0  0
  186.6110  178.4820  141.1790 C   0  0  0  0  0  0  0  0  0  0  0  0
  185.8130  177.9760  142.1520 C   0  0  0  0  0  0  0  0  0  0  0  0
  188.1250  178.6320  141.3610 C   0  0  2  0  0  3  0  0  0  0  0  0
  188.9560  177.9360  147.3100 C   0  0  0  0  0  2  0  0  0  0  0  0
  186.7310  177.6680  146.4700 O   0  0  0  0  0  1  0  0  0  0  0  0
  191.9850  177.8610  145.4460 O   0  0  0  0  0  0  0  0  0  0  0  0
  190.1960  176.6330  146.9400 S   0  0  0  0  0  0  0  0  0  0  0  0
  188.4530  177.6130  144.8770 N   0  0  2  0  0  0  0  0  0  0  0  0
  190.0110  178.0350  143.0650 C   0  0  1  0  0  3  0  0  0  0  0  0
  190.8050  177.5610  145.5290 C   0  0  0  0  0  0  0  0  0  0  0  0
  189.7900  178.1310  144.5840 C   0  0  2  0  0  3  0  0  0  0  0  0
  188.6210  176.8580  139.6010 C   0  0  0  0  0  1  0  0  0  0  0  0
  188.9380  178.2600  140.1120 C   0  0  1  0  0  3  0  0  0  0  0  0
  188.7710  179.3020  139.0150 C   0  0  0  0  0  2  0  0  0  0  0  0
  188.7610  178.6540  137.6390 C   0  0  0  0  0  2  0  0  0  0  0  0
  187.7520  179.2120  136.8520 O   0  0  0  0  0  1  0  0  0  0  0  0
  184.4370  177.9000  141.9140 O   0  0  0  0  0  0  0  0  0  0  0  0
  183.5400  178.9380  142.2820 C   0  0  0  0  0  2  0  0  0  0  0  0
  183.1410  178.7700  143.7320 C   0  0  0  0  0  1  0  0  0  0  0  0
  190.8770  176.9090  142.6830 N   0  0  0  0  0  0  0  0  0  0  0  0
  190.4900  175.5580  142.9730 C   0  0  0  0  0  3  0  0  0  0  0  0
  191.2410  174.7450  143.7070 C   0  0  0  0  0  2  0  0  0  0  0  0
  192.1510  177.1340  142.2610 O   0  0  0  0  0  0  0  0  0  0  0  0
  193.2970  177.2800  140.2960 O   0  0  0  0  0  1  0  0  0  0  0  0
  192.0540  177.4520  140.9030 C   0  0  0  0  0  2  0  0  0  0  0  0
  1  4  1  6  0  0  0
  1 13  1  0  0  0  0
  2 10  1  1  0  0  0
  2  9  1  0  0  0  0
  3 14  1  0  0  0  0
  3  1  1  0  0  0  0
  5  6  1  0  0  0  0
  6  8  1  0  0  0  0
  6  7  2  0  0  0  0
  7  4  1  0  0  0  0
  8  3  1  0  0  0  0
 11 15  2  0  0  0  0
 12  9  1  0  0  0  0
 13  2  1  0  0  0  0
 14 16  1  0  0  0  0
 15 12  1  0  0  0  0
 16 13  1  0  0  0  0
 16 15  1  0  0  0  0
 17 18  1  0  0  0  0
 18  8  1  0  0  0  0
 19 18  1  0  0  0  0
 20 19  1  0  0  0  0
 21 20  1  0  0  0  0
 22  7  1  0  0  0  0
 22 23  1  0  0  0  0
 23 24  1  0  0  0  0
 25 26  1  0  0  0  0
 25 14  1  0  0  0  0
 26 27  2  0  0  0  0
 28 25  1  0  0  0  0
 29 30  1  0  0  0  0
 30 28  1  0  0  0  0
M  END
>  <MODEL>
3

>  <REMARK>
 VINA RESULT:      -6.6      2.164      5.263
  Name = 
  9 active torsions:
  status: ('A' for Active; 'I' for Inactive)
    1  A    between atoms: C_7  and  C_16
    2  A    between atoms: C_7  and  C_30
    3  A    between atoms: O_9  and  C_12
    4  A    between atoms: O_9  and  C_17
    5  A    between atoms: C_10  and  N_25
    6  A    between atoms: C_11  and  O_24
    7  A    between atoms: C_13  and  C_30
    8  A    between atoms: C_23  and  N_25
    9  A    between atoms: O_24  and  N_25
                            x       y       z     vdW  Elec       q    Type
                         _______ _______ _______ _____ _____    ______ ____

>  <TORSDO>
F 9

$$$$
=
 OpenBabel10262421443D

 30 32  0  0  1  0  0  0  0  0999 V2000
  187.9060  177.6670  141.6660 C   0  0  1  0  0  3  0  0  0  0  0  0
  189.7450  177.0980  140.2030 C   0  0  2  0  0  3  0  0  0  0  0  0
  187.6760  177.7300  143.1480 C   0  0  1  0  0  3  0  0  0  0  0  0
  187.2580  178.9070  141.0760 C   0  0  0  0  0  2  0  0  0  0  0  0
  183.9470  178.3460  142.8180 O   0  0  0  0  0  1  0  0  0  0  0  0
  185.3090  178.2830  142.5380 C   0  0  0  0  0  0  0  0  0  0  0  0
  185.7820  178.9360  141.4460 C   0  0  0  0  0  0  0  0  0  0  0  0
  186.2100  177.4270  143.4330 C   0  0  2  0  0  3  0  0  0  0  0  0
  191.2380  176.6900  140.1550 C   0  0  0  0  0  2  0  0  0  0  0  0
  189.5220  178.0840  139.2400 O   0  0  0  0  0  1  0  0  0  0  0  0
  191.6000  175.6640  143.5420 O   0  0  0  0  0  0  0  0  0  0  0  0
  192.2080  177.3170  141.5830 S   0  0  0  0  0  0  0  0  0  0  0  0
  189.3500  177.5970  141.5280 N   0  0  2  0  0  0  0  0  0  0  0  0
  188.7270  176.8050  143.7360 C   0  0  1  0  0  3  0  0  0  0  0  0
  191.1370  176.4550  142.7370 C   0  0  0  0  0  0  0  0  0  0  0  0
  189.6570  176.5770  142.5320 C   0  0  2  0  0  3  0  0  0  0  0  0
  186.5180  176.4510  145.7650 C   0  0  0  0  0  1  0  0  0  0  0  0
  185.9190  177.5800  144.9330 C   0  0  1  0  0  3  0  0  0  0  0  0
  186.3640  178.9440  145.4440 C   0  0  0  0  0  2  0  0  0  0  0  0
  185.8950  179.1730  146.8730 C   0  0  0  0  0  2  0  0  0  0  0  0
  184.5690  178.7620  147.0160 O   0  0  0  0  0  1  0  0  0  0  0  0
  184.8850  179.6740  140.6680 O   0  0  0  0  0  0  0  0  0  0  0  0
  184.4270  179.2270  139.4000 C   0  0  0  0  0  2  0  0  0  0  0  0
  182.9320  178.9990  139.4550 C   0  0  0  0  0  1  0  0  0  0  0  0
  189.4080  177.4510  144.8690 N   0  0  0  0  0  0  0  0  0  0  0  0
  189.6440  176.7300  146.0870 C   0  0  0  0  0  3  0  0  0  0  0  0
  189.4510  177.2730  147.2840 C   0  0  0  0  0  2  0  0  0  0  0  0
  189.6180  178.7940  144.8690 O   0  0  0  0  0  0  0  0  0  0  0  0
  191.2480  180.0610  143.9020 O   0  0  0  0  0  1  0  0  0  0  0  0
  190.9990  178.9660  144.7280 C   0  0  0  0  0  2  0  0  0  0  0  0
  1  4  1  6  0  0  0
  1  3  1  0  0  0  0
  2 10  1  6  0  0  0
  2 13  1  0  0  0  0
  3  8  1  0  0  0  0
  3 14  1  0  0  0  0
  4  7  1  0  0  0  0
  6  5  1  0  0  0  0
  6  8  1  0  0  0  0
  7  6  2  0  0  0  0
  8 18  1  0  0  0  0
  9  2  1  0  0  0  0
  9 12  1  0  0  0  0
 12 15  1  0  0  0  0
 13  1  1  0  0  0  0
 13 16  1  0  0  0  0
 14 25  1  0  0  0  0
 15 11  2  0  0  0  0
 16 15  1  0  0  0  0
 16 14  1  0  0  0  0
 18 19  1  0  0  0  0
 18 17  1  0  0  0  0
 19 20  1  0  0  0  0
 20 21  1  0  0  0  0
 22  7  1  0  0  0  0
 23 24  1  0  0  0  0
 23 22  1  0  0  0  0
 25 28  1  0  0  0  0
 25 26  1  0  0  0  0
 26 27  2  0  0  0  0
 29 30  1  0  0  0  0
 30 28  1  0  0  0  0
M  END
>  <MODEL>
4

>  <REMARK>
 VINA RESULT:      -6.4      1.303      1.887
  Name = 
  9 active torsions:
  status: ('A' for Active; 'I' for Inactive)
    1  A    between atoms: C_7  and  C_16
    2  A    between atoms: C_7  and  C_30
    3  A    between atoms: O_9  and  C_12
    4  A    between atoms: O_9  and  C_17
    5  A    between atoms: C_10  and  N_25
    6  A    between atoms: C_11  and  O_24
    7  A    between atoms: C_13  and  C_30
    8  A    between atoms: C_23  and  N_25
    9  A    between atoms: O_24  and  N_25
                            x       y       z     vdW  Elec       q    Type
                         _______ _______ _______ _____ _____    ______ ____

>  <TORSDO>
F 9

$$$$
=
 OpenBabel10262421443D

 30 32  0  0  1  0  0  0  0  0999 V2000
  188.2910  178.0170  140.6510 C   0  0  1  0  0  3  0  0  0  0  0  0
  190.6850  177.7160  140.5000 C   0  0  2  0  0  3  0  0  0  0  0  0
  187.1160  177.8680  139.7280 C   0  0  1  0  0  3  0  0  0  0  0  0
  187.8680  177.4260  141.9840 C   0  0  0  0  0  2  0  0  0  0  0  0
  184.6560  179.4170  142.1650 O   0  0  0  0  0  1  0  0  0  0  0  0
  185.7740  178.7760  141.6400 C   0  0  0  0  0  0  0  0  0  0  0  0
  186.6230  178.1430  142.4880 C   0  0  0  0  0  0  0  0  0  0  0  0
  186.0400  178.8670  140.1340 C   0  0  2  0  0  3  0  0  0  0  0  0
  191.8420  177.2570  139.5800 C   0  0  0  0  0  2  0  0  0  0  0  0
  190.8770  177.1630  141.7680 O   0  0  0  0  0  1  0  0  0  0  0  0
  190.1180  177.4070  136.4710 O   0  0  0  0  0  0  0  0  0  0  0  0
  191.3300  176.0010  138.3410 S   0  0  0  0  0  0  0  0  0  0  0  0
  189.3700  177.3180  139.9770 N   0  0  2  0  0  0  0  0  0  0  0  0
  187.7110  177.9810  138.3340 C   0  0  1  0  0  3  0  0  0  0  0  0
  190.1040  177.1210  137.6570 C   0  0  0  0  0  0  0  0  0  0  0  0
  189.2160  177.8480  138.6220 C   0  0  2  0  0  3  0  0  0  0  0  0
  183.8640  177.5830  139.8090 C   0  0  0  0  0  1  0  0  0  0  0  0
  184.7840  178.6740  139.2710 C   0  0  1  0  0  3  0  0  0  0  0  0
  184.0380  179.9880  139.0820 C   0  0  0  0  0  2  0  0  0  0  0  0
  182.5350  179.7630  139.0440 C   0  0  0  0  0  2  0  0  0  0  0  0
  181.9700  180.4680  137.9800 O   0  0  0  0  0  1  0  0  0  0  0  0
  186.3190  178.1310  143.8530 O   0  0  0  0  0  0  0  0  0  0  0  0
  186.8030  177.1280  144.7330 C   0  0  0  0  0  2  0  0  0  0  0  0
  187.7700  177.7460  145.7200 C   0  0  0  0  0  1  0  0  0  0  0  0
  187.1980  176.9100  137.4660 N   0  0  0  0  0  0  0  0  0  0  0  0
  186.5540  177.2220  136.2230 C   0  0  0  0  0  3  0  0  0  0  0  0
  186.9090  178.2630  135.4790 C   0  0  0  0  0  2  0  0  0  0  0  0
  187.1190  175.6320  137.9250 O   0  0  0  0  0  0  0  0  0  0  0  0
  188.4890  174.1270  136.8970 O   0  0  0  0  0  1  0  0  0  0  0  0
  187.2780  174.8110  136.8040 C   0  0  0  0  0  2  0  0  0  0  0  0
  1  4  1  1  0  0  0
  2 10  1  1  0  0  0
  3  8  1  0  0  0  0
  3  1  1  0  0  0  0
  4  7  1  0  0  0  0
  6  5  1  0  0  0  0
  6  7  2  0  0  0  0
  7 22  1  0  0  0  0
  8  6  1  0  0  0  0
  9  2  1  0  0  0  0
 11 15  2  0  0  0  0
 12  9  1  0  0  0  0
 13  2  1  0  0  0  0
 13  1  1  0  0  0  0
 14 16  1  0  0  0  0
 14  3  1  0  0  0  0
 15 12  1  0  0  0  0
 15 16  1  0  0  0  0
 16 13  1  0  0  0  0
 18 17  1  0  0  0  0
 18  8  1  0  0  0  0
 19 18  1  0  0  0  0
 20 19  1  0  0  0  0
 21 20  1  0  0  0  0
 22 23  1  0  0  0  0
 23 24  1  0  0  0  0
 25 28  1  0  0  0  0
 25 14  1  0  0  0  0
 26 25  1  0  0  0  0
 27 26  2  0  0  0  0
 30 29  1  0  0  0  0
 30 28  1  0  0  0  0
M  END
>  <MODEL>
5

>  <REMARK>
 VINA RESULT:      -6.1      2.561      6.372
  Name = 
  9 active torsions:
  status: ('A' for Active; 'I' for Inactive)
    1  A    between atoms: C_7  and  C_16
    2  A    between atoms: C_7  and  C_30
    3  A    between atoms: O_9  and  C_12
    4  A    between atoms: O_9  and  C_17
    5  A    between atoms: C_10  and  N_25
    6  A    between atoms: C_11  and  O_24
    7  A    between atoms: C_13  and  C_30
    8  A    between atoms: C_23  and  N_25
    9  A    between atoms: O_24  and  N_25
                            x       y       z     vdW  Elec       q    Type
                         _______ _______ _______ _____ _____    ______ ____

>  <TORSDO>
F 9

$$$$
=
 OpenBabel10262421443D

 30 32  0  0  1  0  0  0  0  0999 V2000
  185.1410  178.6310  140.9870 C   0  0  1  0  0  3  0  0  0  0  0  0
  187.4790  178.6280  140.3690 C   0  0  2  0  0  3  0  0  0  0  0  0
  183.8390  178.3010  140.3170 C   0  0  1  0  0  3  0  0  0  0  0  0
  185.0670  178.0430  142.3850 C   0  0  0  0  0  2  0  0  0  0  0  0
  181.7200  179.6200  143.1730 O   0  0  0  0  0  1  0  0  0  0  0  0
  182.7880  179.1050  142.4450 C   0  0  0  0  0  0  0  0  0  0  0  0
  183.8620  178.6170  143.1160 C   0  0  0  0  0  0  0  0  0  0  0  0
  182.7420  179.1710  140.9150 C   0  0  2  0  0  3  0  0  0  0  0  0
  188.4850  178.2830  139.2430 C   0  0  0  0  0  2  0  0  0  0  0  0
  187.9850  178.1520  141.5800 O   0  0  0  0  0  1  0  0  0  0  0  0
  186.1830  178.0970  136.5360 O   0  0  0  0  0  0  0  0  0  0  0  0
  187.9090  176.9270  138.1460 S   0  0  0  0  0  0  0  0  0  0  0  0
  186.1500  178.0480  140.1220 N   0  0  2  0  0  0  0  0  0  0  0  0
  184.1310  178.4340  138.8320 C   0  0  1  0  0  3  0  0  0  0  0  0
  186.4390  177.8560  137.7050 C   0  0  0  0  0  0  0  0  0  0  0  0
  185.6680  178.5020  138.8170 C   0  0  2  0  0  3  0  0  0  0  0  0
  180.8780  177.4370  140.8190 C   0  0  0  0  0  1  0  0  0  0  0  0
  181.3780  178.7890  140.3200 C   0  0  1  0  0  3  0  0  0  0  0  0
  180.3470  179.8850  140.5570 C   0  0  0  0  0  2  0  0  0  0  0  0
  179.9920  180.5920  139.2590 C   0  0  0  0  0  2  0  0  0  0  0  0
  180.8960  181.6260  139.0110 O   0  0  0  0  0  1  0  0  0  0  0  0
  183.8330  178.6180  144.5140 O   0  0  0  0  0  0  0  0  0  0  0  0
  184.9500  179.0070  145.3000 C   0  0  0  0  0  2  0  0  0  0  0  0
  184.9310  178.2530  146.6120 C   0  0  0  0  0  1  0  0  0  0  0  0
  183.6040  177.2740  138.0960 N   0  0  0  0  0  0  0  0  0  0  0  0
  182.8360  177.4570  136.8970 C   0  0  0  0  0  3  0  0  0  0  0  0
  181.9290  178.4190  136.7730 C   0  0  0  0  0  2  0  0  0  0  0  0
  183.6360  176.0340  138.6530 O   0  0  0  0  0  0  0  0  0  0  0  0
  184.9690  174.6110  137.4730 O   0  0  0  0  0  1  0  0  0  0  0  0
  183.6820  175.1340  137.5840 C   0  0  0  0  0  2  0  0  0  0  0  0
  1  4  1  1  0  0  0
  2 10  1  1  0  0  0
  3  8  1  0  0  0  0
  3  1  1  0  0  0  0
  4  7  1  0  0  0  0
  6  7  2  0  0  0  0
  6  5  1  0  0  0  0
  7 22  1  0  0  0  0
  8  6  1  0  0  0  0
  9  2  1  0  0  0  0
 11 15  2  0  0  0  0
 12  9  1  0  0  0  0
 13  2  1  0  0  0  0
 13  1  1  0  0  0  0
 14  3  1  0  0  0  0
 15 12  1  0  0  0  0
 15 16  1  0  0  0  0
 16 14  1  0  0  0  0
 16 13  1  0  0  0  0
 18 19  1  0  0  0  0
 18 17  1  0  0  0  0
 18  8  1  0  0  0  0
 20 19  1  0  0  0  0
 21 20  1  0  0  0  0
 22 23  1  0  0  0  0
 23 24  1  0  0  0  0
 25 28  1  0  0  0  0
 25 14  1  0  0  0  0
 26 25  1  0  0  0  0
 27 26  2  0  0  0  0
 29 30  1  0  0  0  0
 30 28  1  0  0  0  0
M  END
>  <MODEL>
6

>  <REMARK>
 VINA RESULT:      -6.0      3.626      7.322
  Name = 
  9 active torsions:
  status: ('A' for Active; 'I' for Inactive)
    1  A    between atoms: C_7  and  C_16
    2  A    between atoms: C_7  and  C_30
    3  A    between atoms: O_9  and  C_12
    4  A    between atoms: O_9  and  C_17
    5  A    between atoms: C_10  and  N_25
    6  A    between atoms: C_11  and  O_24
    7  A    between atoms: C_13  and  C_30
    8  A    between atoms: C_23  and  N_25
    9  A    between atoms: O_24  and  N_25
                            x       y       z     vdW  Elec       q    Type
                         _______ _______ _______ _____ _____    ______ ____

>  <TORSDO>
F 9

$$$$
=
 OpenBabel10262421443D

 30 32  0  0  1  0  0  0  0  0999 V2000
  185.9970  178.3870  138.5040 C   0  0  1  0  0  3  0  0  0  0  0  0
  188.2990  178.6960  137.8320 C   0  0  2  0  0  3  0  0  0  0  0  0
  184.8490  177.5170  138.0820 C   0  0  1  0  0  3  0  0  0  0  0  0
  185.9880  178.4050  140.0220 C   0  0  0  0  0  2  0  0  0  0  0  0
  182.3240  179.3160  140.2680 O   0  0  0  0  0  1  0  0  0  0  0  0
  183.5230  178.8260  139.7580 C   0  0  0  0  0  0  0  0  0  0  0  0
  184.6430  178.9160  140.5180 C   0  0  0  0  0  0  0  0  0  0  0  0
  183.5450  178.2640  138.3330 C   0  0  2  0  0  3  0  0  0  0  0  0
  189.4180  178.1830  136.8920 C   0  0  0  0  0  2  0  0  0  0  0  0
  188.8370  178.8770  139.1080 O   0  0  0  0  0  1  0  0  0  0  0  0
  187.3780  176.3910  134.5940 O   0  0  0  0  0  0  0  0  0  0  0  0
  189.2410  176.4080  136.4560 S   0  0  0  0  0  0  0  0  0  0  0  0
  187.1610  177.7670  137.8980 N   0  0  2  0  0  0  0  0  0  0  0  0
  185.1820  177.1130  136.6550 C   0  0  1  0  0  3  0  0  0  0  0  0
  187.6180  176.7040  135.7480 C   0  0  0  0  0  0  0  0  0  0  0  0
  186.6570  177.5350  136.5440 C   0  0  2  0  0  3  0  0  0  0  0  0
  182.0750  176.3260  139.0880 C   0  0  0  0  0  1  0  0  0  0  0  0
  182.3460  177.3630  138.0030 C   0  0  1  0  0  3  0  0  0  0  0  0
  181.1030  178.1890  137.7020 C   0  0  0  0  0  2  0  0  0  0  0  0
  181.3550  179.1640  136.5620 C   0  0  0  0  0  2  0  0  0  0  0  0
  181.1050  180.4710  136.9820 O   0  0  0  0  0  1  0  0  0  0  0  0
  184.5380  179.4670  141.7990 O   0  0  0  0  0  0  0  0  0  0  0  0
  184.2230  178.6860  142.9420 C   0  0  0  0  0  2  0  0  0  0  0  0
  184.9130  179.2680  144.1570 C   0  0  0  0  0  1  0  0  0  0  0  0
  184.9850  175.6670  136.4680 N   0  0  0  0  0  0  0  0  0  0  0  0
  184.1350  175.1750  135.4230 C   0  0  0  0  0  3  0  0  0  0  0  0
  183.3140  175.9660  134.7410 C   0  0  0  0  0  2  0  0  0  0  0  0
  185.4150  174.7880  137.4120 O   0  0  0  0  0  0  0  0  0  0  0  0
  184.9200  172.6400  137.9950 O   0  0  0  0  0  1  0  0  0  0  0  0
  184.3860  173.8530  137.5630 C   0  0  0  0  0  2  0  0  0  0  0  0
  1  4  1  1  0  0  0
  2 13  1  0  0  0  0
  2 10  1  1  0  0  0
  3  8  1  0  0  0  0
  3  1  1  0  0  0  0
  4  7  1  0  0  0  0
  6  5  1  0  0  0  0
  6  7  2  0  0  0  0
  7 22  1  0  0  0  0
  8  6  1  0  0  0  0
  9  2  1  0  0  0  0
 11 15  2  0  0  0  0
 12  9  1  0  0  0  0
 13  1  1  0  0  0  0
 14  3  1  0  0  0  0
 15 12  1  0  0  0  0
 15 16  1  0  0  0  0
 16 14  1  0  0  0  0
 16 13  1  0  0  0  0
 18  8  1  0  0  0  0
 18 17  1  0  0  0  0
 19 18  1  0  0  0  0
 20 21  1  0  0  0  0
 20 19  1  0  0  0  0
 22 23  1  0  0  0  0
 23 24  1  0  0  0  0
 25 14  1  0  0  0  0
 25 28  1  0  0  0  0
 26 25  1  0  0  0  0
 27 26  2  0  0  0  0
 28 30  1  0  0  0  0
 30 29  1  0  0  0  0
M  END
>  <MODEL>
7

>  <REMARK>
 VINA RESULT:      -5.8      4.473      7.817
  Name = 
  9 active torsions:
  status: ('A' for Active; 'I' for Inactive)
    1  A    between atoms: C_7  and  C_16
    2  A    between atoms: C_7  and  C_30
    3  A    between atoms: O_9  and  C_12
    4  A    between atoms: O_9  and  C_17
    5  A    between atoms: C_10  and  N_25
    6  A    between atoms: C_11  and  O_24
    7  A    between atoms: C_13  and  C_30
    8  A    between atoms: C_23  and  N_25
    9  A    between atoms: O_24  and  N_25
                            x       y       z     vdW  Elec       q    Type
                         _______ _______ _______ _____ _____    ______ ____

>  <TORSDO>
F 9

$$$$
=
 OpenBabel10262421443D

 30 32  0  0  1  0  0  0  0  0999 V2000
  187.6820  177.9620  141.7500 C   0  0  1  0  0  3  0  0  0  0  0  0
  188.1720  178.2990  139.4070 C   0  0  2  0  0  3  0  0  0  0  0  0
  186.4680  178.0440  142.6300 C   0  0  1  0  0  3  0  0  0  0  0  0
  188.4320  176.7110  142.1690 C   0  0  0  0  0  2  0  0  0  0  0  0
  188.4300  177.6020  145.8460 O   0  0  0  0  0  1  0  0  0  0  0  0
  188.0600  177.5660  144.5050 C   0  0  0  0  0  0  0  0  0  0  0  0
  188.7770  176.7950  143.6500 C   0  0  0  0  0  0  0  0  0  0  0  0
  186.9010  178.4500  144.0330 C   0  0  2  0  0  3  0  0  0  0  0  0
  187.5550  178.6200  138.0230 C   0  0  0  0  0  2  0  0  0  0  0  0
  189.0750  177.2440  139.2580 O   0  0  0  0  0  1  0  0  0  0  0  0
  184.4400  179.9250  139.1400 O   0  0  0  0  0  0  0  0  0  0  0  0
  185.8100  178.0730  137.8620 S   0  0  0  0  0  0  0  0  0  0  0  0
  187.1480  177.9420  140.4010 N   0  0  2  0  0  0  0  0  0  0  0  0
  185.5160  178.9610  141.8800 C   0  0  1  0  0  3  0  0  0  0  0  0
  185.3220  179.0900  139.2580 C   0  0  0  0  0  0  0  0  0  0  0  0
  186.1730  179.0300  140.4910 C   0  0  2  0  0  3  0  0  0  0  0  0
  185.6080  177.1770  145.8200 C   0  0  0  0  0  1  0  0  0  0  0  0
  185.6940  178.4480  144.9820 C   0  0  1  0  0  3  0  0  0  0  0  0
  185.6800  179.6930  145.8580 C   0  0  0  0  0  2  0  0  0  0  0  0
  185.7650  179.3270  147.3320 C   0  0  0  0  0  2  0  0  0  0  0  0
  186.0550  180.4600  148.0930 O   0  0  0  0  0  1  0  0  0  0  0  0
  189.8370  176.0390  144.1610 O   0  0  0  0  0  0  0  0  0  0  0  0
  191.1900  176.2850  143.8070 C   0  0  0  0  0  2  0  0  0  0  0  0
  191.6790  177.5280  144.5190 C   0  0  0  0  0  1  0  0  0  0  0  0
  184.1630  178.3840  141.8440 N   0  0  0  0  0  0  0  0  0  0  0  0
  183.0810  179.0150  142.5420 C   0  0  0  0  0  3  0  0  0  0  0  0
  182.7880  178.7310  143.8060 C   0  0  0  0  0  2  0  0  0  0  0  0
  183.9630  177.1340  141.3460 O   0  0  0  0  0  0  0  0  0  0  0  0
  182.9560  176.3840  139.4440 O   0  0  0  0  0  1  0  0  0  0  0  0
  182.8150  177.2170  140.5520 C   0  0  0  0  0  2  0  0  0  0  0  0
  1  4  1  1  0  0  0
  1  3  1  0  0  0  0
  2 10  1  6  0  0  0
  2 13  1  0  0  0  0
  3  8  1  0  0  0  0
  4  7  1  0  0  0  0
  6  5  1  0  0  0  0
  7 22  1  0  0  0  0
  7  6  2  0  0  0  0
  8  6  1  0  0  0  0
  8 18  1  0  0  0  0
  9  2  1  0  0  0  0
 11 15  2  0  0  0  0
 12  9  1  0  0  0  0
 12 15  1  0  0  0  0
 13 16  1  0  0  0  0
 13  1  1  0  0  0  0
 14  3  1  0  0  0  0
 15 16  1  0  0  0  0
 16 14  1  0  0  0  0
 18 17  1  0  0  0  0
 18 19  1  0  0  0  0
 19 20  1  0  0  0  0
 20 21  1  0  0  0  0
 23 22  1  0  0  0  0
 23 24  1  0  0  0  0
 25 14  1  0  0  0  0
 25 26  1  0  0  0  0
 26 27  2  0  0  0  0
 28 25  1  0  0  0  0
 29 30  1  0  0  0  0
 30 28  1  0  0  0  0
M  END
>  <MODEL>
8

>  <REMARK>
 VINA RESULT:      -5.6      2.407      5.844
  Name = 
  9 active torsions:
  status: ('A' for Active; 'I' for Inactive)
    1  A    between atoms: C_7  and  C_16
    2  A    between atoms: C_7  and  C_30
    3  A    between atoms: O_9  and  C_12
    4  A    between atoms: O_9  and  C_17
    5  A    between atoms: C_10  and  N_25
    6  A    between atoms: C_11  and  O_24
    7  A    between atoms: C_13  and  C_30
    8  A    between atoms: C_23  and  N_25
    9  A    between atoms: O_24  and  N_25
                            x       y       z     vdW  Elec       q    Type
                         _______ _______ _______ _____ _____    ______ ____

>  <TORSDO>
F 9

$$$$
=
 OpenBabel10262421443D

 30 32  0  0  1  0  0  0  0  0999 V2000
  183.5100  178.0430  140.1070 C   0  0  1  0  0  3  0  0  0  0  0  0
  183.2470  178.5570  142.4550 C   0  0  2  0  0  3  0  0  0  0  0  0
  182.5990  177.7980  138.9390 C   0  0  1  0  0  3  0  0  0  0  0  0
  184.6340  178.9280  139.5990 C   0  0  0  0  0  2  0  0  0  0  0  0
  185.4050  176.7170  136.6260 O   0  0  0  0  0  1  0  0  0  0  0  0
  184.7070  177.3090  137.6750 C   0  0  0  0  0  0  0  0  0  0  0  0
  185.3340  178.2430  138.4330 C   0  0  0  0  0  0  0  0  0  0  0  0
  183.2810  176.8370  137.9740 C   0  0  2  0  0  3  0  0  0  0  0  0
  182.2180  178.8700  143.5690 C   0  0  0  0  0  2  0  0  0  0  0  0
  184.3090  179.4560  142.5630 O   0  0  0  0  0  1  0  0  0  0  0  0
  179.2980  177.6760  141.9260 O   0  0  0  0  0  0  0  0  0  0  0  0
  180.6890  179.6700  142.9410 S   0  0  0  0  0  0  0  0  0  0  0  0
  182.6530  178.6450  141.1120 N   0  0  2  0  0  0  0  0  0  0  0  0
  181.2820  177.3730  139.5660 C   0  0  1  0  0  3  0  0  0  0  0  0
  180.3590  178.2750  141.8600 C   0  0  0  0  0  0  0  0  0  0  0  0
  181.5000  177.7480  141.0420 C   0  0  2  0  0  3  0  0  0  0  0  0
  182.5440  177.7980  135.7340 C   0  0  0  0  0  1  0  0  0  0  0  0
  182.4160  176.6420  136.7200 C   0  0  1  0  0  3  0  0  0  0  0  0
  182.7090  175.3060  136.0500 C   0  0  0  0  0  2  0  0  0  0  0  0
  182.7760  174.1830  137.0740 C   0  0  0  0  0  2  0  0  0  0  0  0
  181.4890  173.7890  137.4410 O   0  0  0  0  0  1  0  0  0  0  0  0
  186.6470  178.5970  138.1060 O   0  0  0  0  0  0  0  0  0  0  0  0
  187.7700  177.8380  138.5290 C   0  0  0  0  0  2  0  0  0  0  0  0
  188.2390  178.3400  139.8780 C   0  0  0  0  0  1  0  0  0  0  0  0
  180.1590  178.0980  138.9520 N   0  0  0  0  0  0  0  0  0  0  0  0
  178.9590  177.4070  138.5790 C   0  0  0  0  0  3  0  0  0  0  0  0
  178.9660  176.1480  138.1550 C   0  0  0  0  0  2  0  0  0  0  0  0
  180.3220  179.3780  138.5200 O   0  0  0  0  0  0  0  0  0  0  0  0
  179.5600  181.1000  139.8040 O   0  0  0  0  0  1  0  0  0  0  0  0
  179.1830  180.0720  138.9420 C   0  0  0  0  0  2  0  0  0  0  0  0
  1  4  1  6  0  0  0
  1 13  1  0  0  0  0
  2 10  1  6  0  0  0
  2  9  1  0  0  0  0
  3 14  1  0  0  0  0
  3  1  1  0  0  0  0
  5  6  1  0  0  0  0
  6  8  1  0  0  0  0
  6  7  2  0  0  0  0
  7  4  1  0  0  0  0
  8  3  1  0  0  0  0
 12  9  1  0  0  0  0
 13  2  1  0  0  0  0
 14 16  1  0  0  0  0
 15 11  2  0  0  0  0
 15 12  1  0  0  0  0
 16 13  1  0  0  0  0
 16 15  1  0  0  0  0
 17 18  1  0  0  0  0
 18  8  1  0  0  0  0
 19 18  1  0  0  0  0
 19 20  1  0  0  0  0
 20 21  1  0  0  0  0
 22  7  1  0  0  0  0
 22 23  1  0  0  0  0
 23 24  1  0  0  0  0
 25 14  1  0  0  0  0
 26 25  1  0  0  0  0
 27 26  2  0  0  0  0
 28 30  1  0  0  0  0
 28 25  1  0  0  0  0
 30 29  1  0  0  0  0
M  END
>  <MODEL>
9

>  <REMARK>
 VINA RESULT:      -5.5      5.160      9.607
  Name = 
  9 active torsions:
  status: ('A' for Active; 'I' for Inactive)
    1  A    between atoms: C_7  and  C_16
    2  A    between atoms: C_7  and  C_30
    3  A    between atoms: O_9  and  C_12
    4  A    between atoms: O_9  and  C_17
    5  A    between atoms: C_10  and  N_25
    6  A    between atoms: C_11  and  O_24
    7  A    between atoms: C_13  and  C_30
    8  A    between atoms: C_23  and  N_25
    9  A    between atoms: O_24  and  N_25
                            x       y       z     vdW  Elec       q    Type
                         _______ _______ _______ _____ _____    ______ ____

>  <TORSDO>
F 9

$$$$
