=
 OpenBabel10262421403D

 32 36  0  0  1  0  0  0  0  0999 V2000
  187.6870  177.7600  143.8850 C   0  0  0  0  0  0  0  0  0  0  0  0
  184.1110  178.8230  140.4730 C   0  0  0  0  0  0  0  0  0  0  0  0
  183.5520  178.1810  138.0930 C   0  0  0  0  0  0  0  0  0  0  0  0
  182.5740  178.1470  136.9990 C   0  0  0  0  0  0  0  0  0  0  0  0
  186.2340  178.5470  141.6160 C   0  0  0  0  0  0  0  0  0  0  0  0
  184.1670  177.9500  142.7430 C   0  0  0  0  0  3  0  0  0  0  0  0
  180.6990  178.2020  134.9220 C   0  0  0  0  0  3  0  0  0  0  0  0
  186.2860  177.6550  143.8760 C   0  0  0  0  0  3  0  0  0  0  0  0
  183.4320  178.3380  141.6140 C   0  0  0  0  0  0  0  0  0  0  0  0
  181.9280  178.3030  141.6780 C   0  0  2  0  0  3  0  0  0  0  0  0
  181.9290  179.4630  139.5000 N   0  0  2  0  0  0  0  0  0  0  0  0
  181.8460  177.4110  134.8060 C   0  0  0  0  0  3  0  0  0  0  0  0
  188.3490  178.2580  142.7570 C   0  0  0  0  0  3  0  0  0  0  0  0
  185.5580  178.0450  142.7490 C   0  0  0  0  0  0  0  0  0  0  0  0
  182.7860  177.3830  135.8430 C   0  0  0  0  0  3  0  0  0  0  0  0
  187.6270  178.6510  141.6250 C   0  0  0  0  0  3  0  0  0  0  0  0
  181.2830  178.4000  140.2940 C   0  0  1  0  0  3  0  0  0  0  0  0
  181.1930  179.6770  138.3140 N   0  0  0  0  0  2  0  0  0  0  0  0
  185.5080  178.9300  140.4870 C   0  0  0  0  0  3  0  0  0  0  0  0
  184.5740  177.4420  138.0540 O   0  0  0  0  0  0  0  0  0  0  0  0
  180.4850  178.9610  136.0770 C   0  0  0  0  0  3  0  0  0  0  0  0
  183.3580  179.1840  139.2140 C   0  0  1  0  0  3  0  0  0  0  0  0
  181.4160  178.9240  137.1170 C   0  0  0  0  0  0  0  0  0  0  0  0
  181.0330  180.2460  143.2020 N   0  0  0  0  0  0  0  0  0  0  0  0
  181.4280  179.3900  142.5300 C   0  0  0  0  0  0  0  0  0  0  0  0
  180.1520  176.5150  140.0140 C   0  0  0  0  0  1  0  0  0  0  0  0
  181.3350  177.1580  139.6490 O   0  0  0  0  0  0  0  0  0  0  0  0
  188.0580  177.5290  146.2460 C   0  0  0  0  0  3  0  0  0  0  0  0
  188.4620  177.3690  145.0250 N   0  0  0  0  0  0  0  0  0  0  0  0
  188.9120  177.1020  147.3870 C   0  0  0  0  0  3  0  0  0  0  0  0
  188.8080  178.1230  148.5000 C   0  0  0  0  0  1  0  0  0  0  0  0
  190.3580  176.9920  146.9440 C   0  0  0  0  0  1  0  0  0  0  0  0
  1 29  1  0  0  0  0
  2 19  2  0  0  0  0
  2  9  1  0  0  0  0
  4 23  1  0  0  0  0
  4  3  1  0  0  0  0
  5 16  2  0  0  0  0
  5 14  1  0  0  0  0
  6 14  1  0  0  0  0
  7 21  1  0  0  0  0
  8  1  1  0  0  0  0
  9 10  1  0  0  0  0
  9  6  2  0  0  0  0
 10 25  1  1  0  0  0
 11 18  1  6  0  0  0
 11 17  1  0  0  0  0
 12  7  2  0  0  0  0
 12 15  1  0  0  0  0
 13  1  2  0  0  0  0
 14  8  2  0  0  0  0
 15  4  2  0  0  0  0
 16 13  1  0  0  0  0
 17 27  1  6  0  0  0
 17 10  1  0  0  0  0
 19  5  1  0  0  0  0
 20  3  2  0  0  0  0
 21 23  2  0  0  0  0
 22  3  1  6  0  0  0
 22 11  1  0  0  0  0
 22  2  1  0  0  0  0
 23 18  1  0  0  0  0
 25 24  3  0  0  0  0
 27 26  1  0  0  0  0
 28 30  1  0  0  0  0
 29 28  2  0  0  0  0
 30 31  1  0  0  0  0
 32 30  1  0  0  0  0
M  END
>  <MODEL>
1

>  <REMARK>
 VINA RESULT:      -7.7      0.000      0.000
  Name = 
  4 active torsions:
  status: ('A' for Active; 'I' for Inactive)
    1  A    between atoms: C_1  and  C_10
    2  A    between atoms: C_2  and  N_24
    3  A    between atoms: C_13  and  C_15
    4  A    between atoms: O_25  and  C_26
                            x       y       z     vdW  Elec       q    Type
                         _______ _______ _______ _____ _____    ______ ____

>  <TORSDO>
F 4

$$$$
=
 OpenBabel10262421403D

 32 36  0  0  1  0  0  0  0  0999 V2000
  189.7810  177.6040  143.0070 C   0  0  0  0  0  0  0  0  0  0  0  0
  192.3480  176.7070  138.7430 C   0  0  0  0  0  0  0  0  0  0  0  0
  194.4270  175.4490  138.0460 C   0  0  0  0  0  0  0  0  0  0  0  0
  195.2430  174.8720  136.9710 C   0  0  0  0  0  0  0  0  0  0  0  0
  191.7190  177.3880  140.9860 C   0  0  0  0  0  0  0  0  0  0  0  0
  190.0660  176.3790  139.5200 C   0  0  0  0  0  3  0  0  0  0  0  0
  196.8030  173.8820  134.8690 C   0  0  0  0  0  3  0  0  0  0  0  0
  189.4430  177.0400  141.7640 C   0  0  0  0  0  3  0  0  0  0  0  0
  191.0270  176.2650  138.5060 C   0  0  0  0  0  0  0  0  0  0  0  0
  190.6020  175.7460  137.1580 C   0  0  2  0  0  3  0  0  0  0  0  0
  192.8450  176.3760  136.3440 N   0  0  2  0  0  0  0  0  0  0  0  0
  197.0890  173.5110  136.1870 C   0  0  0  0  0  3  0  0  0  0  0  0
  191.0890  178.0540  143.2260 C   0  0  0  0  0  3  0  0  0  0  0  0
  190.4040  176.9300  140.7560 C   0  0  0  0  0  0  0  0  0  0  0  0
  196.3110  174.0060  137.2390 C   0  0  0  0  0  3  0  0  0  0  0  0
  192.0550  177.9480  142.2210 C   0  0  0  0  0  3  0  0  0  0  0  0
  191.7940  175.3430  136.2870 C   0  0  1  0  0  3  0  0  0  0  0  0
  193.8390  176.0900  135.3820 N   0  0  0  0  0  2  0  0  0  0  0  0
  192.6810  177.2720  139.9820 C   0  0  0  0  0  3  0  0  0  0  0  0
  194.6160  175.0990  139.2430 O   0  0  0  0  0  0  0  0  0  0  0  0
  195.7350  174.7430  134.6000 C   0  0  0  0  0  3  0  0  0  0  0  0
  193.4260  176.5360  137.6990 C   0  0  1  0  0  3  0  0  0  0  0  0
  194.9500  175.2280  135.6490 C   0  0  0  0  0  0  0  0  0  0  0  0
  189.1660  177.5490  135.8980 N   0  0  0  0  0  0  0  0  0  0  0  0
  189.7980  176.7540  136.4530 C   0  0  0  0  0  0  0  0  0  0  0  0
  191.5970  173.1770  135.8590 C   0  0  0  0  0  1  0  0  0  0  0  0
  192.2720  174.0850  136.6760 O   0  0  0  0  0  0  0  0  0  0  0  0
  189.1470  177.8170  145.3120 C   0  0  0  0  0  3  0  0  0  0  0  0
  188.8200  177.7300  144.0610 N   0  0  0  0  0  0  0  0  0  0  0  0
  188.0990  177.9450  146.3610 C   0  0  0  0  0  3  0  0  0  0  0  0
  188.4650  177.0750  147.5430 C   0  0  0  0  0  1  0  0  0  0  0  0
  186.7550  177.5040  145.8120 C   0  0  0  0  0  1  0  0  0  0  0  0
  1 13  1  0  0  0  0
  1 29  1  0  0  0  0
  2 19  1  0  0  0  0
  3 20  2  0  0  0  0
  4 15  1  0  0  0  0
  4  3  1  0  0  0  0
  5 16  1  0  0  0  0
  6 14  2  0  0  0  0
  7 12  1  0  0  0  0
  8  1  2  0  0  0  0
  9  2  2  0  0  0  0
  9  6  1  0  0  0  0
 10 25  1  6  0  0  0
 10  9  1  0  0  0  0
 11 18  1  6  0  0  0
 11 22  1  0  0  0  0
 12 15  2  0  0  0  0
 14  5  1  0  0  0  0
 14  8  1  0  0  0  0
 16 13  2  0  0  0  0
 17 11  1  0  0  0  0
 17 27  1  1  0  0  0
 17 10  1  0  0  0  0
 18 23  1  0  0  0  0
 19  5  2  0  0  0  0
 21  7  2  0  0  0  0
 21 23  1  0  0  0  0
 22  3  1  1  0  0  0
 22  2  1  0  0  0  0
 23  4  2  0  0  0  0
 24 25  3  0  0  0  0
 26 27  1  0  0  0  0
 28 30  1  0  0  0  0
 29 28  2  0  0  0  0
 30 31  1  0  0  0  0
 32 30  1  0  0  0  0
M  END
>  <MODEL>
2

>  <REMARK>
 VINA RESULT:      -6.9      7.269      9.948
  Name = 
  4 active torsions:
  status: ('A' for Active; 'I' for Inactive)
    1  A    between atoms: C_1  and  C_10
    2  A    between atoms: C_2  and  N_24
    3  A    between atoms: C_13  and  C_15
    4  A    between atoms: O_25  and  C_26
                            x       y       z     vdW  Elec       q    Type
                         _______ _______ _______ _____ _____    ______ ____

>  <TORSDO>
F 4

$$$$
=
 OpenBabel10262421403D

 32 36  0  0  1  0  0  0  0  0999 V2000
  186.7280  178.1200  143.0620 C   0  0  0  0  0  0  0  0  0  0  0  0
  182.9120  178.8020  139.8150 C   0  0  0  0  0  0  0  0  0  0  0  0
  182.1500  177.8450  137.6030 C   0  0  0  0  0  0  0  0  0  0  0  0
  181.0870  177.6870  136.6030 C   0  0  0  0  0  0  0  0  0  0  0  0
  185.1130  178.6220  140.8210 C   0  0  0  0  0  0  0  0  0  0  0  0
  183.1320  178.2590  142.1770 C   0  0  0  0  0  3  0  0  0  0  0  0
  179.0530  177.5070  134.6900 C   0  0  0  0  0  3  0  0  0  0  0  0
  185.3280  178.0600  143.1750 C   0  0  0  0  0  3  0  0  0  0  0  0
  182.3170  178.5050  141.0630 C   0  0  0  0  0  0  0  0  0  0  0  0
  180.8230  178.5280  141.2470 C   0  0  2  0  0  3  0  0  0  0  0  0
  180.6730  179.3660  138.9310 N   0  0  2  0  0  0  0  0  0  0  0  0
  180.1700  176.6710  134.6020 C   0  0  0  0  0  3  0  0  0  0  0  0
  187.3070  178.4310  141.8260 C   0  0  0  0  0  3  0  0  0  0  0  0
  184.5210  178.3090  142.0620 C   0  0  0  0  0  0  0  0  0  0  0  0
  181.1890  176.7610  135.5570 C   0  0  0  0  0  3  0  0  0  0  0  0
  186.5040  178.6810  140.7080 C   0  0  0  0  0  3  0  0  0  0  0  0
  180.0710  178.4480  139.9160 C   0  0  1  0  0  3  0  0  0  0  0  0
  179.8480  179.4330  137.7850 N   0  0  0  0  0  2  0  0  0  0  0  0
  184.3080  178.8640  139.7070 C   0  0  0  0  0  3  0  0  0  0  0  0
  183.1500  177.0750  137.5930 O   0  0  0  0  0  0  0  0  0  0  0  0
  178.9480  178.4290  135.7360 C   0  0  0  0  0  3  0  0  0  0  0  0
  182.0680  179.0040  138.5790 C   0  0  1  0  0  3  0  0  0  0  0  0
  179.9590  178.5100  136.6970 C   0  0  0  0  0  0  0  0  0  0  0  0
  180.0940  180.6970  142.5360 N   0  0  0  0  0  0  0  0  0  0  0  0
  180.4160  179.7410  141.9690 C   0  0  0  0  0  0  0  0  0  0  0  0
  178.9980  176.5240  140.1550 C   0  0  0  0  0  1  0  0  0  0  0  0
  180.0450  177.1260  139.4560 O   0  0  0  0  0  0  0  0  0  0  0  0
  188.8690  178.0350  144.1440 C   0  0  0  0  0  3  0  0  0  0  0  0
  187.5840  177.8700  144.1830 N   0  0  0  0  0  0  0  0  0  0  0  0
  189.7030  177.7550  145.3450 C   0  0  0  0  0  3  0  0  0  0  0  0
  190.8170  176.8020  144.9700 C   0  0  0  0  0  1  0  0  0  0  0  0
  188.8550  177.1290  146.4350 C   0  0  0  0  0  1  0  0  0  0  0  0
  1  8  1  0  0  0  0
  1 29  1  0  0  0  0
  2  9  1  0  0  0  0
  4 23  1  0  0  0  0
  4  3  1  0  0  0  0
  5 14  1  0  0  0  0
  7 21  1  0  0  0  0
  9 10  1  0  0  0  0
  9  6  2  0  0  0  0
 10 25  1  6  0  0  0
 11 18  1  6  0  0  0
 11 17  1  0  0  0  0
 12  7  2  0  0  0  0
 12 15  1  0  0  0  0
 13  1  2  0  0  0  0
 14  6  1  0  0  0  0
 14  8  2  0  0  0  0
 15  4  2  0  0  0  0
 16  5  2  0  0  0  0
 16 13  1  0  0  0  0
 17 27  1  6  0  0  0
 17 10  1  0  0  0  0
 19  2  2  0  0  0  0
 19  5  1  0  0  0  0
 20  3  2  0  0  0  0
 21 23  2  0  0  0  0
 22  3  1  1  0  0  0
 22 11  1  0  0  0  0
 22  2  1  0  0  0  0
 23 18  1  0  0  0  0
 25 24  3  0  0  0  0
 27 26  1  0  0  0  0
 28 29  2  0  0  0  0
 28 30  1  0  0  0  0
 30 32  1  0  0  0  0
 31 30  1  0  0  0  0
M  END
>  <MODEL>
3

>  <REMARK>
 VINA RESULT:      -6.8      1.216      1.662
  Name = 
  4 active torsions:
  status: ('A' for Active; 'I' for Inactive)
    1  A    between atoms: C_1  and  C_10
    2  A    between atoms: C_2  and  N_24
    3  A    between atoms: C_13  and  C_15
    4  A    between atoms: O_25  and  C_26
                            x       y       z     vdW  Elec       q    Type
                         _______ _______ _______ _____ _____    ______ ____

>  <TORSDO>
F 4

$$$$
=
 OpenBabel10262421403D

 32 36  0  0  1  0  0  0  0  0999 V2000
  181.8460  178.7050  142.0010 C   0  0  0  0  0  0  0  0  0  0  0  0
  186.6580  178.4660  143.5340 C   0  0  0  0  0  0  0  0  0  0  0  0
  187.9480  177.5220  145.4920 C   0  0  0  0  0  0  0  0  0  0  0  0
  189.2390  177.1340  146.0750 C   0  0  0  0  0  0  0  0  0  0  0  0
  184.2710  178.8830  143.4040 C   0  0  0  0  0  0  0  0  0  0  0  0
  185.4140  177.8100  141.5490 C   0  0  0  0  0  3  0  0  0  0  0  0
  191.7380  176.5080  147.1680 C   0  0  0  0  0  3  0  0  0  0  0  0
  183.0290  178.2080  141.4280 C   0  0  0  0  0  3  0  0  0  0  0  0
  186.6290  177.8920  142.2430 C   0  0  0  0  0  0  0  0  0  0  0  0
  187.8900  177.4380  141.5560 C   0  0  2  0  0  3  0  0  0  0  0  0
  189.1290  178.3920  143.4650 N   0  0  2  0  0  0  0  0  0  0  0  0
  190.5700  176.0670  147.7980 C   0  0  0  0  0  3  0  0  0  0  0  0
  181.8880  179.2870  143.2740 C   0  0  0  0  0  3  0  0  0  0  0  0
  184.2380  178.2940  142.1220 C   0  0  0  0  0  0  0  0  0  0  0  0
  189.3190  176.3800  147.2540 C   0  0  0  0  0  3  0  0  0  0  0  0
  183.0950  179.3770  143.9740 C   0  0  0  0  0  3  0  0  0  0  0  0
  189.0510  177.2500  142.5350 C   0  0  1  0  0  3  0  0  0  0  0  0
  190.3200  178.3030  144.2200 N   0  0  0  0  0  2  0  0  0  0  0  0
  185.4770  178.9630  144.1020 C   0  0  0  0  0  3  0  0  0  0  0  0
  186.8720  177.1010  145.9970 O   0  0  0  0  0  0  0  0  0  0  0  0
  191.6590  177.2570  145.9900 C   0  0  0  0  0  3  0  0  0  0  0  0
  187.9360  178.5080  144.3390 C   0  0  1  0  0  3  0  0  0  0  0  0
  190.4110  177.5590  145.4390 C   0  0  0  0  0  0  0  0  0  0  0  0
  188.5840  179.1560  139.6940 N   0  0  0  0  0  0  0  0  0  0  0  0
  188.2770  178.3990  140.5140 C   0  0  0  0  0  0  0  0  0  0  0  0
  190.0790  175.3190  142.8940 C   0  0  0  0  0  1  0  0  0  0  0  0
  188.9200  176.0300  143.2090 O   0  0  0  0  0  0  0  0  0  0  0  0
  180.3970  177.8920  140.2700 C   0  0  0  0  0  3  0  0  0  0  0  0
  180.5900  178.6320  141.3150 N   0  0  0  0  0  0  0  0  0  0  0  0
  179.0670  177.8610  139.6000 C   0  0  0  0  0  3  0  0  0  0  0  0
  178.9310  176.5750  138.8160 C   0  0  0  0  0  1  0  0  0  0  0  0
  178.9310  179.0400  138.6570 C   0  0  0  0  0  1  0  0  0  0  0  0
  1 13  1  0  0  0  0
  2 19  1  0  0  0  0
  3 20  2  0  0  0  0
  3  4  1  0  0  0  0
  4 15  1  0  0  0  0
  5 16  1  0  0  0  0
  5 19  2  0  0  0  0
  6 14  2  0  0  0  0
  6  9  1  0  0  0  0
  7 12  1  0  0  0  0
  8  1  2  0  0  0  0
  8 14  1  0  0  0  0
  9  2  2  0  0  0  0
 10 25  1  6  0  0  0
 10  9  1  0  0  0  0
 10 17  1  0  0  0  0
 11 18  1  1  0  0  0
 11 22  1  0  0  0  0
 13 16  2  0  0  0  0
 14  5  1  0  0  0  0
 15 12  2  0  0  0  0
 17 27  1  1  0  0  0
 17 11  1  0  0  0  0
 18 23  1  0  0  0  0
 21  7  2  0  0  0  0
 22  2  1  6  0  0  0
 22  3  1  0  0  0  0
 23 21  1  0  0  0  0
 23  4  2  0  0  0  0
 24 25  3  0  0  0  0
 26 27  1  0  0  0  0
 28 29  2  0  0  0  0
 29  1  1  0  0  0  0
 30 28  1  0  0  0  0
 31 30  1  0  0  0  0
 32 30  1  0  0  0  0
M  END
>  <MODEL>
4

>  <REMARK>
 VINA RESULT:      -6.7      2.997      9.504
  Name = 
  4 active torsions:
  status: ('A' for Active; 'I' for Inactive)
    1  A    between atoms: C_1  and  C_10
    2  A    between atoms: C_2  and  N_24
    3  A    between atoms: C_13  and  C_15
    4  A    between atoms: O_25  and  C_26
                            x       y       z     vdW  Elec       q    Type
                         _______ _______ _______ _____ _____    ______ ____

>  <TORSDO>
F 4

$$$$
=
 OpenBabel10262421403D

 32 36  0  0  1  0  0  0  0  0999 V2000
  189.7590  177.8340  144.5210 C   0  0  0  0  0  0  0  0  0  0  0  0
  191.0600  177.1950  139.6760 C   0  0  0  0  0  0  0  0  0  0  0  0
  192.8950  176.0450  138.3730 C   0  0  0  0  0  0  0  0  0  0  0  0
  193.3950  175.5400  137.0880 C   0  0  0  0  0  0  0  0  0  0  0  0
  191.0620  177.7680  142.0350 C   0  0  0  0  0  0  0  0  0  0  0  0
  189.0930  176.7510  141.0390 C   0  0  0  0  0  3  0  0  0  0  0  0
  194.3340  174.6890  134.5940 C   0  0  0  0  0  3  0  0  0  0  0  0
  189.1030  177.3040  143.3960 C   0  0  0  0  0  3  0  0  0  0  0  0
  189.7370  176.7110  139.7940 C   0  0  0  0  0  0  0  0  0  0  0  0
  188.9670  176.2260  138.5940 C   0  0  2  0  0  3  0  0  0  0  0  0
  190.8770  176.9720  137.2200 N   0  0  2  0  0  0  0  0  0  0  0  0
  194.9860  174.2800  135.7620 C   0  0  0  0  0  3  0  0  0  0  0  0
  191.0630  178.3270  144.3900 C   0  0  0  0  0  3  0  0  0  0  0  0
  189.7480  177.2680  142.1570 C   0  0  0  0  0  0  0  0  0  0  0  0
  194.5180  174.7060  137.0100 C   0  0  0  0  0  3  0  0  0  0  0  0
  191.7130  178.2950  143.1520 C   0  0  0  0  0  3  0  0  0  0  0  0
  189.8800  175.9010  137.4090 C   0  0  1  0  0  3  0  0  0  0  0  0
  191.5710  176.7600  136.0080 N   0  0  0  0  0  2  0  0  0  0  0  0
  191.7090  177.7260  140.7990 C   0  0  0  0  0  3  0  0  0  0  0  0
  193.4190  175.6590  139.4540 O   0  0  0  0  0  0  0  0  0  0  0  0
  193.2100  175.5170  134.6710 C   0  0  0  0  0  3  0  0  0  0  0  0
  191.8090  177.1040  138.3670 C   0  0  1  0  0  3  0  0  0  0  0  0
  192.7360  175.9320  135.9180 C   0  0  0  0  0  0  0  0  0  0  0  0
  187.1890  178.0160  137.8650 N   0  0  0  0  0  0  0  0  0  0  0  0
  187.9730  177.2280  138.1870 C   0  0  0  0  0  0  0  0  0  0  0  0
  189.6840  173.7610  136.8710 C   0  0  0  0  0  1  0  0  0  0  0  0
  190.4810  174.6500  137.5920 O   0  0  0  0  0  0  0  0  0  0  0  0
  187.8550  177.6950  145.9760 C   0  0  0  0  0  3  0  0  0  0  0  0
  189.1260  177.8850  145.8040 N   0  0  0  0  0  0  0  0  0  0  0  0
  187.2570  177.7630  147.3380 C   0  0  0  0  0  3  0  0  0  0  0  0
  186.3970  179.0030  147.4460 C   0  0  0  0  0  1  0  0  0  0  0  0
  188.3520  177.8200  148.3860 C   0  0  0  0  0  1  0  0  0  0  0  0
  1 29  1  0  0  0  0
  2  9  2  0  0  0  0
  2 19  1  0  0  0  0
  3 20  2  0  0  0  0
  4  3  1  0  0  0  0
  5 14  1  0  0  0  0
  5 16  1  0  0  0  0
  6 14  2  0  0  0  0
  7 21  2  0  0  0  0
  7 12  1  0  0  0  0
  8  1  2  0  0  0  0
  9  6  1  0  0  0  0
 10 25  1  6  0  0  0
 10  9  1  0  0  0  0
 11 18  1  6  0  0  0
 11 17  1  0  0  0  0
 11 22  1  0  0  0  0
 12 15  2  0  0  0  0
 13  1  1  0  0  0  0
 14  8  1  0  0  0  0
 15  4  1  0  0  0  0
 16 13  2  0  0  0  0
 17 27  1  1  0  0  0
 17 10  1  0  0  0  0
 19  5  2  0  0  0  0
 21 23  1  0  0  0  0
 22  3  1  1  0  0  0
 22  2  1  0  0  0  0
 23 18  1  0  0  0  0
 23  4  2  0  0  0  0
 24 25  3  0  0  0  0
 26 27  1  0  0  0  0
 28 30  1  0  0  0  0
 29 28  2  0  0  0  0
 30 31  1  0  0  0  0
 30 32  1  0  0  0  0
M  END
>  <MODEL>
5

>  <REMARK>
 VINA RESULT:      -6.3      5.925      8.278
  Name = 
  4 active torsions:
  status: ('A' for Active; 'I' for Inactive)
    1  A    between atoms: C_1  and  C_10
    2  A    between atoms: C_2  and  N_24
    3  A    between atoms: C_13  and  C_15
    4  A    between atoms: O_25  and  C_26
                            x       y       z     vdW  Elec       q    Type
                         _______ _______ _______ _____ _____    ______ ____

>  <TORSDO>
F 4

$$$$
=
 OpenBabel10262421403D

 32 36  0  0  1  0  0  0  0  0999 V2000
  189.8220  177.1730  138.0770 C   0  0  0  0  0  0  0  0  0  0  0  0
  184.8380  177.8320  138.6260 C   0  0  0  0  0  0  0  0  0  0  0  0
  183.2210  179.7660  138.8130 C   0  0  0  0  0  0  0  0  0  0  0  0
  181.8360  180.2520  138.7710 C   0  0  0  0  0  0  0  0  0  0  0  0
  187.2450  177.8870  138.9340 C   0  0  0  0  0  0  0  0  0  0  0  0
  186.2940  176.6810  137.0520 C   0  0  0  0  0  3  0  0  0  0  0  0
  179.1690  181.1000  138.7780 C   0  0  0  0  0  3  0  0  0  0  0  0
  188.6950  176.7530  137.3480 C   0  0  0  0  0  3  0  0  0  0  0  0
  185.0040  177.0350  137.4700 C   0  0  0  0  0  0  0  0  0  0  0  0
  183.8200  176.4840  136.7190 C   0  0  2  0  0  3  0  0  0  0  0  0
  182.4030  177.4200  138.5100 N   0  0  2  0  0  0  0  0  0  0  0  0
  180.2020  182.0420  138.7310 C   0  0  0  0  0  3  0  0  0  0  0  0
  189.6470  177.9490  139.2290 C   0  0  0  0  0  3  0  0  0  0  0  0
  187.4120  177.1070  137.7700 C   0  0  0  0  0  0  0  0  0  0  0  0
  181.5360  181.6200  138.7290 C   0  0  0  0  0  3  0  0  0  0  0  0
  188.3640  178.3050  139.6580 C   0  0  0  0  0  3  0  0  0  0  0  0
  182.5230  177.2250  137.0520 C   0  0  1  0  0  3  0  0  0  0  0  0
  181.1150  177.9160  138.8130 N   0  0  0  0  0  2  0  0  0  0  0  0
  185.9630  178.2460  139.3520 C   0  0  0  0  0  3  0  0  0  0  0  0
  184.1820  180.5770  138.7180 O   0  0  0  0  0  0  0  0  0  0  0  0
  179.4680  179.7350  138.8150 C   0  0  0  0  0  3  0  0  0  0  0  0
  183.4680  178.2900  139.0660 C   0  0  1  0  0  3  0  0  0  0  0  0
  180.8000  179.3120  138.8010 C   0  0  0  0  0  0  0  0  0  0  0  0
  183.5260  173.9250  137.2310 N   0  0  0  0  0  0  0  0  0  0  0  0
  183.6550  175.0530  137.0050 C   0  0  0  0  0  0  0  0  0  0  0  0
  181.6700  178.1710  135.2390 C   0  0  0  0  0  1  0  0  0  0  0  0
  182.4670  178.4370  136.3530 O   0  0  0  0  0  0  0  0  0  0  0  0
  191.8790  175.9570  138.2950 C   0  0  0  0  0  3  0  0  0  0  0  0
  191.1510  176.8290  137.6700 N   0  0  0  0  0  0  0  0  0  0  0  0
  193.2560  175.6450  137.8220 C   0  0  0  0  0  3  0  0  0  0  0  0
  193.5190  176.3780  136.5250 C   0  0  0  0  0  1  0  0  0  0  0  0
  193.4030  174.1530  137.5930 C   0  0  0  0  0  1  0  0  0  0  0  0
  1 13  1  0  0  0  0
  2 19  1  0  0  0  0
  3 22  1  0  0  0  0
  4 23  1  0  0  0  0
  4  3  1  0  0  0  0
  5 19  2  0  0  0  0
  5 16  1  0  0  0  0
  6  9  1  0  0  0  0
  6 14  2  0  0  0  0
  7 21  1  0  0  0  0
  8 14  1  0  0  0  0
  8  1  2  0  0  0  0
  9  2  2  0  0  0  0
 10 25  1  1  0  0  0
 10 17  1  0  0  0  0
 10  9  1  0  0  0  0
 11 18  1  6  0  0  0
 11 22  1  0  0  0  0
 12  7  2  0  0  0  0
 13 16  2  0  0  0  0
 14  5  1  0  0  0  0
 15 12  1  0  0  0  0
 15  4  2  0  0  0  0
 17 27  1  6  0  0  0
 17 11  1  0  0  0  0
 20  3  2  0  0  0  0
 22  2  1  6  0  0  0
 23 18  1  0  0  0  0
 23 21  2  0  0  0  0
 25 24  3  0  0  0  0
 26 27  1  0  0  0  0
 29  1  1  0  0  0  0
 29 28  2  0  0  0  0
 30 28  1  0  0  0  0
 31 30  1  0  0  0  0
 32 30  1  0  0  0  0
M  END
>  <MODEL>
6

>  <REMARK>
 VINA RESULT:      -5.5      4.009      5.859
  Name = 
  4 active torsions:
  status: ('A' for Active; 'I' for Inactive)
    1  A    between atoms: C_1  and  C_10
    2  A    between atoms: C_2  and  N_24
    3  A    between atoms: C_13  and  C_15
    4  A    between atoms: O_25  and  C_26
                            x       y       z     vdW  Elec       q    Type
                         _______ _______ _______ _____ _____    ______ ____

>  <TORSDO>
F 4

$$$$
=
 OpenBabel10262421403D

 32 36  0  0  1  0  0  0  0  0999 V2000
  182.3820  178.2690  137.7560 C   0  0  0  0  0  0  0  0  0  0  0  0
  186.3470  178.6800  140.8670 C   0  0  0  0  0  0  0  0  0  0  0  0
  186.9450  178.0030  143.2280 C   0  0  0  0  0  0  0  0  0  0  0  0
  187.9770  177.8010  144.2520 C   0  0  0  0  0  0  0  0  0  0  0  0
  184.1310  178.8070  139.8850 C   0  0  0  0  0  0  0  0  0  0  0  0
  185.9460  177.7750  138.6440 C   0  0  0  0  0  3  0  0  0  0  0  0
  189.9760  177.5340  146.1920 C   0  0  0  0  0  3  0  0  0  0  0  0
  183.7320  177.8830  137.6730 C   0  0  0  0  0  3  0  0  0  0  0  0
  186.8260  178.0370  139.7030 C   0  0  0  0  0  0  0  0  0  0  0  0
  188.2840  177.6970  139.5370 C   0  0  2  0  0  3  0  0  0  0  0  0
  188.6790  178.8920  141.6600 N   0  0  2  0  0  0  0  0  0  0  0  0
  188.7070  176.9940  146.4190 C   0  0  0  0  0  3  0  0  0  0  0  0
  181.9200  178.9200  138.9060 C   0  0  0  0  0  3  0  0  0  0  0  0
  184.6050  178.1480  138.7300 C   0  0  0  0  0  0  0  0  0  0  0  0
  187.7050  177.1280  145.4510 C   0  0  0  0  0  3  0  0  0  0  0  0
  182.7900  179.1890  139.9670 C   0  0  0  0  0  3  0  0  0  0  0  0
  189.0380  177.7000  140.8690 C   0  0  1  0  0  3  0  0  0  0  0  0
  189.5310  178.9860  142.7830 N   0  0  0  0  0  2  0  0  0  0  0  0
  185.0020  179.0660  140.9450 C   0  0  0  0  0  3  0  0  0  0  0  0
  185.8020  177.4860  143.3680 O   0  0  0  0  0  0  0  0  0  0  0  0
  190.2500  178.2020  144.9940 C   0  0  0  0  0  3  0  0  0  0  0  0
  187.2500  178.9150  142.0550 C   0  0  1  0  0  3  0  0  0  0  0  0
  189.2530  178.3250  144.0220 C   0  0  0  0  0  0  0  0  0  0  0  0
  189.4300  179.3780  137.8760 N   0  0  0  0  0  0  0  0  0  0  0  0
  188.9250  178.6380  138.6080 C   0  0  0  0  0  0  0  0  0  0  0  0
  190.0520  176.0020  141.8700 C   0  0  0  0  0  1  0  0  0  0  0  0
  188.7890  176.5120  141.5670 O   0  0  0  0  0  0  0  0  0  0  0  0
  181.1860  178.8780  135.7660 C   0  0  0  0  0  3  0  0  0  0  0  0
  181.4610  178.0110  136.6900 N   0  0  0  0  0  0  0  0  0  0  0  0
  180.2160  178.5490  134.6850 C   0  0  0  0  0  3  0  0  0  0  0  0
  179.0210  179.4710  134.7870 C   0  0  0  0  0  1  0  0  0  0  0  0
  179.7530  177.1110  134.8200 C   0  0  0  0  0  1  0  0  0  0  0  0
  1 13  1  0  0  0  0
  2 19  1  0  0  0  0
  3 20  2  0  0  0  0
  3  4  1  0  0  0  0
  4 15  1  0  0  0  0
  5 16  1  0  0  0  0
  5 19  2  0  0  0  0
  6 14  2  0  0  0  0
  6  9  1  0  0  0  0
  7 12  1  0  0  0  0
  8  1  2  0  0  0  0
  8 14  1  0  0  0  0
  9  2  2  0  0  0  0
 10 25  1  6  0  0  0
 10  9  1  0  0  0  0
 10 17  1  0  0  0  0
 11 22  1  0  0  0  0
 11 18  1  1  0  0  0
 13 16  2  0  0  0  0
 14  5  1  0  0  0  0
 15 12  2  0  0  0  0
 17 27  1  1  0  0  0
 17 11  1  0  0  0  0
 18 23  1  0  0  0  0
 21  7  2  0  0  0  0
 22  2  1  6  0  0  0
 22  3  1  0  0  0  0
 23  4  2  0  0  0  0
 23 21  1  0  0  0  0
 24 25  3  0  0  0  0
 27 26  1  0  0  0  0
 28 29  2  0  0  0  0
 29  1  1  0  0  0  0
 30 31  1  0  0  0  0
 30 32  1  0  0  0  0
 30 28  1  0  0  0  0
M  END
>  <MODEL>
7

>  <REMARK>
 VINA RESULT:      -5.4      2.547      9.473
  Name = 
  4 active torsions:
  status: ('A' for Active; 'I' for Inactive)
    1  A    between atoms: C_1  and  C_10
    2  A    between atoms: C_2  and  N_24
    3  A    between atoms: C_13  and  C_15
    4  A    between atoms: O_25  and  C_26
                            x       y       z     vdW  Elec       q    Type
                         _______ _______ _______ _____ _____    ______ ____

>  <TORSDO>
F 4

$$$$
=
 OpenBabel10262421403D

 32 36  0  0  1  0  0  0  0  0999 V2000
  184.6290  178.4920  144.0690 C   0  0  0  0  0  0  0  0  0  0  0  0
  181.7350  178.6460  139.9250 C   0  0  0  0  0  0  0  0  0  0  0  0
  180.8450  180.3970  138.3340 C   0  0  0  0  0  0  0  0  0  0  0  0
  180.2210  180.7200  137.0450 C   0  0  0  0  0  0  0  0  0  0  0  0
  182.6450  178.9970  142.1470 C   0  0  0  0  0  0  0  0  0  0  0  0
  183.7810  177.5120  140.5960 C   0  0  0  0  0  3  0  0  0  0  0  0
  178.9390  181.2640  134.6180 C   0  0  0  0  0  3  0  0  0  0  0  0
  184.7000  177.8790  142.8050 C   0  0  0  0  0  3  0  0  0  0  0  0
  182.7970  177.7610  139.6290 C   0  0  0  0  0  0  0  0  0  0  0  0
  182.8550  177.0100  138.3250 C   0  0  2  0  0  3  0  0  0  0  0  0
  180.6320  177.9570  137.8210 N   0  0  2  0  0  0  0  0  0  0  0  0
  179.5150  182.3050  135.3520 C   0  0  0  0  0  3  0  0  0  0  0  0
  183.5640  179.3540  144.3580 C   0  0  0  0  0  3  0  0  0  0  0  0
  183.7160  178.1280  141.8460 C   0  0  0  0  0  0  0  0  0  0  0  0
  180.1550  182.0360  136.5660 C   0  0  0  0  0  3  0  0  0  0  0  0
  182.5750  179.6070  143.4020 C   0  0  0  0  0  3  0  0  0  0  0  0
  181.9550  177.6330  137.2550 C   0  0  1  0  0  3  0  0  0  0  0  0
  179.7540  178.3350  136.7810 N   0  0  0  0  0  2  0  0  0  0  0  0
  181.6660  179.2520  141.1860 C   0  0  0  0  0  3  0  0  0  0  0  0
  181.4240  181.2970  139.0020 O   0  0  0  0  0  0  0  0  0  0  0  0
  179.0070  179.9510  135.0930 C   0  0  0  0  0  3  0  0  0  0  0  0
  180.6960  178.9900  138.8840 C   0  0  1  0  0  3  0  0  0  0  0  0
  179.6570  179.6790  136.2990 C   0  0  0  0  0  0  0  0  0  0  0  0
  182.1790  174.4980  138.6870 N   0  0  0  0  0  0  0  0  0  0  0  0
  182.4780  175.6050  138.5270 C   0  0  0  0  0  0  0  0  0  0  0  0
  183.2860  178.2620  135.5980 C   0  0  0  0  0  1  0  0  0  0  0  0
  182.5770  178.7550  136.6940 O   0  0  0  0  0  0  0  0  0  0  0  0
  186.6650  177.5150  144.8790 C   0  0  0  0  0  3  0  0  0  0  0  0
  185.6220  178.2580  145.0740 N   0  0  0  0  0  0  0  0  0  0  0  0
  187.6610  177.3090  145.9670 C   0  0  0  0  0  3  0  0  0  0  0  0
  187.1950  178.0280  147.2140 C   0  0  0  0  0  1  0  0  0  0  0  0
  189.0120  177.8570  145.5480 C   0  0  0  0  0  1  0  0  0  0  0  0
  1 13  1  0  0  0  0
  1 29  1  0  0  0  0
  2 19  1  0  0  0  0
  3 20  2  0  0  0  0
  4  3  1  0  0  0  0
  5 16  1  0  0  0  0
  6 14  2  0  0  0  0
  7 21  2  0  0  0  0
  7 12  1  0  0  0  0
  8  1  2  0  0  0  0
  9  2  2  0  0  0  0
  9  6  1  0  0  0  0
 10 25  1  1  0  0  0
 10  9  1  0  0  0  0
 11 18  1  6  0  0  0
 11 22  1  0  0  0  0
 12 15  2  0  0  0  0
 14  5  1  0  0  0  0
 14  8  1  0  0  0  0
 15  4  1  0  0  0  0
 16 13  2  0  0  0  0
 17 27  1  1  0  0  0
 17 11  1  0  0  0  0
 17 10  1  0  0  0  0
 19  5  2  0  0  0  0
 21 23  1  0  0  0  0
 22  3  1  6  0  0  0
 22  2  1  0  0  0  0
 23 18  1  0  0  0  0
 23  4  2  0  0  0  0
 25 24  3  0  0  0  0
 26 27  1  0  0  0  0
 28 29  2  0  0  0  0
 28 30  1  0  0  0  0
 30 31  1  0  0  0  0
 32 30  1  0  0  0  0
M  END
>  <MODEL>
8

>  <REMARK>
 VINA RESULT:      -5.1      2.173      3.746
  Name = 
  4 active torsions:
  status: ('A' for Active; 'I' for Inactive)
    1  A    between atoms: C_1  and  C_10
    2  A    between atoms: C_2  and  N_24
    3  A    between atoms: C_13  and  C_15
    4  A    between atoms: O_25  and  C_26
                            x       y       z     vdW  Elec       q    Type
                         _______ _______ _______ _____ _____    ______ ____

>  <TORSDO>
F 4

$$$$
=
 OpenBabel10262421403D

 32 36  0  0  1  0  0  0  0  0999 V2000
  192.9370  176.3120  136.8890 C   0  0  0  0  0  0  0  0  0  0  0  0
  187.9100  176.2120  137.4240 C   0  0  0  0  0  0  0  0  0  0  0  0
  186.0910  177.7570  138.2590 C   0  0  0  0  0  0  0  0  0  0  0  0
  184.6620  178.0820  138.3420 C   0  0  0  0  0  0  0  0  0  0  0  0
  190.2950  176.3850  137.8360 C   0  0  0  0  0  0  0  0  0  0  0  0
  189.4870  175.9020  135.5970 C   0  0  0  0  0  3  0  0  0  0  0  0
  181.9180  178.5940  138.5520 C   0  0  0  0  0  3  0  0  0  0  0  0
  191.8650  176.0930  136.0050 C   0  0  0  0  0  3  0  0  0  0  0  0
  188.1650  175.9380  136.0610 C   0  0  0  0  0  0  0  0  0  0  0  0
  187.0510  175.6020  135.1050 C   0  0  2  0  0  3  0  0  0  0  0  0
  185.5340  175.6370  137.0520 N   0  0  2  0  0  0  0  0  0  0  0  0
  182.8420  179.5790  138.9130 C   0  0  0  0  0  3  0  0  0  0  0  0
  192.6750  176.5670  138.2400 C   0  0  0  0  0  3  0  0  0  0  0  0
  190.5500  176.1290  136.4720 C   0  0  0  0  0  0  0  0  0  0  0  0
  184.2140  179.3250  138.8100 C   0  0  0  0  0  3  0  0  0  0  0  0
  191.3600  176.6030  138.7140 C   0  0  0  0  0  3  0  0  0  0  0  0
  185.6790  176.0270  135.6360 C   0  0  1  0  0  3  0  0  0  0  0  0
  184.1990  175.8480  137.4620 N   0  0  0  0  0  2  0  0  0  0  0  0
  188.9800  176.4270  138.3020 C   0  0  0  0  0  3  0  0  0  0  0  0
  186.9580  178.6340  138.5220 O   0  0  0  0  0  0  0  0  0  0  0  0
  182.3640  177.3540  138.0820 C   0  0  0  0  0  3  0  0  0  0  0  0
  186.4960  176.3290  137.9440 C   0  0  1  0  0  3  0  0  0  0  0  0
  183.7330  177.1040  137.9670 C   0  0  0  0  0  0  0  0  0  0  0  0
  187.0330  173.0260  134.5940 N   0  0  0  0  0  0  0  0  0  0  0  0
  187.0410  174.1610  134.8190 C   0  0  0  0  0  0  0  0  0  0  0  0
  184.3830  177.5020  134.6100 C   0  0  0  0  0  1  0  0  0  0  0  0
  185.4940  177.4020  135.4480 O   0  0  0  0  0  0  0  0  0  0  0  0
  194.6320  176.3180  135.1900 C   0  0  0  0  0  3  0  0  0  0  0  0
  194.2970  176.2830  136.4410 N   0  0  0  0  0  0  0  0  0  0  0  0
  196.0660  176.2830  134.7900 C   0  0  0  0  0  3  0  0  0  0  0  0
  196.8530  175.4960  135.8160 C   0  0  0  0  0  1  0  0  0  0  0  0
  196.6200  177.6920  134.7070 C   0  0  0  0  0  1  0  0  0  0  0  0
  1 13  1  0  0  0  0
  2 19  1  0  0  0  0
  3  4  1  0  0  0  0
  3 20  2  0  0  0  0
  4 15  1  0  0  0  0
  5 19  2  0  0  0  0
  5 16  1  0  0  0  0
  6  9  1  0  0  0  0
  6 14  2  0  0  0  0
  7 12  1  0  0  0  0
  8 14  1  0  0  0  0
  8  1  2  0  0  0  0
  9  2  2  0  0  0  0
 10 25  1  1  0  0  0
 10 17  1  0  0  0  0
 10  9  1  0  0  0  0
 11 18  1  1  0  0  0
 11 22  1  0  0  0  0
 13 16  2  0  0  0  0
 14  5  1  0  0  0  0
 15 12  2  0  0  0  0
 17 27  1  1  0  0  0
 17 11  1  0  0  0  0
 18 23  1  0  0  0  0
 21  7  2  0  0  0  0
 22  2  1  6  0  0  0
 22  3  1  0  0  0  0
 23 21  1  0  0  0  0
 23  4  2  0  0  0  0
 24 25  3  0  0  0  0
 26 27  1  0  0  0  0
 28 29  2  0  0  0  0
 29  1  1  0  0  0  0
 30 28  1  0  0  0  0
 30 31  1  0  0  0  0
 32 30  1  0  0  0  0
M  END
>  <MODEL>
9

>  <REMARK>
 VINA RESULT:      -5.0      6.142      8.114
  Name = 
  4 active torsions:
  status: ('A' for Active; 'I' for Inactive)
    1  A    between atoms: C_1  and  C_10
    2  A    between atoms: C_2  and  N_24
    3  A    between atoms: C_13  and  C_15
    4  A    between atoms: O_25  and  C_26
                            x       y       z     vdW  Elec       q    Type
                         _______ _______ _______ _____ _____    ______ ____

>  <TORSDO>
F 4

$$$$
