=
 OpenBabel10262422023D

 30 34  0  0  1  0  0  0  0  0999 V2000
  183.1370  177.2640  138.7080 C   0  0  1  0  0  3  0  0  0  0  0  0
  180.4120  174.7420  139.3050 C   0  0  0  0  0  2  0  0  0  0  0  0
  180.7370  175.5320  134.5940 C   0  0  0  0  0  1  0  0  0  0  0  0
  184.5290  176.8660  138.1170 C   0  0  2  0  0  3  0  0  0  0  0  0
  182.7940  178.7430  138.5040 C   0  0  0  0  0  2  0  0  0  0  0  0
  188.9920  176.8770  137.4420 C   0  0  0  0  0  2  0  0  0  0  0  0
  185.3070  179.2370  138.7050 C   0  0  2  0  0  3  0  0  0  0  0  0
  185.8290  175.5200  136.3360 C   0  0  0  0  0  2  0  0  0  0  0  0
  183.6280  177.0820  135.0410 C   0  0  0  0  0  1  0  0  0  0  0  0
  183.8780  179.6510  139.0860 C   0  0  0  0  0  2  0  0  0  0  0  0
  185.3210  178.1090  137.6600 C   0  0  1  0  0  3  0  0  0  0  0  0
  179.9480  173.9420  138.2570 O   0  0  0  0  0  0  0  0  0  0  0  0
  186.5700  176.8050  135.9350 C   0  0  2  0  0  3  0  0  0  0  0  0
  188.6840  175.9230  136.2900 C   0  0  0  0  0  2  0  0  0  0  0  0
  181.8610  175.1250  139.0440 C   0  0  0  0  0  2  0  0  0  0  0  0
  181.9590  176.2420  136.6830 C   0  0  1  0  0  3  0  0  0  0  0  0
  178.9310  174.6710  137.6220 C   0  0  0  0  0  2  0  0  0  0  0  0
  181.9610  176.4130  138.2260 C   0  0  2  0  0  3  0  0  0  0  0  0
  184.2280  174.5310  137.7070 O   0  0  0  0  0  1  0  0  0  0  0  0
  183.3330  175.9670  136.0350 C   0  0  2  0  0  3  0  0  0  0  0  0
  184.4790  175.7340  137.0490 C   0  0  1  0  0  0  0  0  0  0  0  0
  187.8280  176.5320  135.3410 O   0  0  0  0  0  0  0  0  0  0  0  0
  187.6880  177.2500  138.1340 C   0  0  0  0  0  2  0  0  0  0  0  0
  180.8290  175.3740  136.1010 C   0  0  1  0  0  3  0  0  0  0  0  0
  179.4850  175.7660  136.7040 C   0  0  0  0  0  2  0  0  0  0  0  0
  186.7060  177.7940  137.0960 C   0  0  2  0  0  3  0  0  0  0  0  0
  185.9900  178.8510  139.8620 O   0  0  0  0  0  0  0  0  0  0  0  0
  185.3370  179.4770  140.8710 N   0  0  0  0  0  2  0  0  0  0  0  0
  185.6960  178.7820  142.0940 C   0  0  0  0  0  2  0  0  0  0  0  0
  184.4420  178.2630  142.7640 C   0  0  0  0  0  1  0  0  0  0  0  0
  1  5  1  6  0  0  0
  3 24  1  0  0  0  0
  4  1  1  0  0  0  0
  5 10  1  0  0  0  0
  6 23  1  0  0  0  0
  7 10  1  0  0  0  0
  7 27  1  0  0  0  0
  8 21  1  0  0  0  0
  9 20  1  0  0  0  0
 11  4  1  0  0  0  0
 11  7  1  0  0  0  0
 12  2  1  0  0  0  0
 13  8  1  0  0  0  0
 13 26  1  0  0  0  0
 14  6  1  0  0  0  0
 15  2  1  0  0  0  0
 16 18  1  0  0  0  0
 17 12  1  0  0  0  0
 18  1  1  0  0  0  0
 18 15  1  0  0  0  0
 20 16  1  0  0  0  0
 20 21  1  0  0  0  0
 21 19  1  0  0  0  0
 21  4  1  0  0  0  0
 22 13  1  0  0  0  0
 22 14  1  0  0  0  0
 24 16  1  0  0  0  0
 24 25  1  0  0  0  0
 25 17  1  0  0  0  0
 26 11  1  0  0  0  0
 26 23  1  0  0  0  0
 27 28  1  0  0  0  0
 28 29  1  0  0  0  0
 29 30  1  0  0  0  0
M  END
>  <MODEL>
1

>  <REMARK>
 VINA RESULT:      -5.2      0.000      0.000
  Name = 
  3 active torsions:
  status: ('A' for Active; 'I' for Inactive)
    1  A    between atoms: O_6  and  C_8
    2  A    between atoms: O_6  and  N_21
    3  A    between atoms: C_9  and  N_21
                            x       y       z     vdW  Elec       q    Type
                         _______ _______ _______ _____ _____    ______ ____

>  <TORSDO>
F 3

$$$$
=
 OpenBabel10262422023D

 30 34  0  0  1  0  0  0  0  0999 V2000
  181.2280  177.5090  139.2580 C   0  0  1  0  0  3  0  0  0  0  0  0
  179.0960  180.1610  140.8570 C   0  0  0  0  0  2  0  0  0  0  0  0
  182.7980  179.2480  143.7520 C   0  0  0  0  0  1  0  0  0  0  0  0
  182.6110  177.8310  138.6010 C   0  0  2  0  0  3  0  0  0  0  0  0
  181.0850  176.0420  139.6750 C   0  0  0  0  0  2  0  0  0  0  0  0
  186.0690  177.6090  135.7090 C   0  0  0  0  0  2  0  0  0  0  0  0
  182.5750  175.4430  137.6700 C   0  0  2  0  0  3  0  0  0  0  0  0
  184.8660  179.0770  138.7870 C   0  0  0  0  0  2  0  0  0  0  0  0
  184.3050  177.5830  141.3190 C   0  0  0  0  0  1  0  0  0  0  0  0
  181.3250  175.1010  138.4940 C   0  0  0  0  0  2  0  0  0  0  0  0
  183.4190  176.5450  138.3330 C   0  0  1  0  0  3  0  0  0  0  0  0
  179.6100  180.9560  141.8850 O   0  0  0  0  0  0  0  0  0  0  0  0
  185.5970  177.7510  138.5200 C   0  0  2  0  0  3  0  0  0  0  0  0
  186.7710  178.5480  136.6870 C   0  0  0  0  0  2  0  0  0  0  0  0
  180.2320  179.7100  139.9530 C   0  0  0  0  0  2  0  0  0  0  0  0
  182.0110  178.5330  141.4640 C   0  0  1  0  0  3  0  0  0  0  0  0
  179.3770  180.2580  143.0810 C   0  0  0  0  0  2  0  0  0  0  0  0
  180.8500  178.3990  140.4420 C   0  0  2  0  0  3  0  0  0  0  0  0
  182.8270  180.1680  139.0580 O   0  0  0  0  0  1  0  0  0  0  0  0
  183.4180  178.7330  140.8610 C   0  0  2  0  0  3  0  0  0  0  0  0
  183.4290  178.9390  139.3270 C   0  0  1  0  0  0  0  0  0  0  0  0
  186.8870  177.9550  137.9670 O   0  0  0  0  0  0  0  0  0  0  0  0
  184.6710  177.3100  136.2330 C   0  0  0  0  0  2  0  0  0  0  0  0
  181.7390  179.4360  142.6810 C   0  0  1  0  0  3  0  0  0  0  0  0
  180.3800  179.1190  143.2930 C   0  0  0  0  0  2  0  0  0  0  0  0
  184.7730  176.7850  137.6650 C   0  0  2  0  0  3  0  0  0  0  0  0
  182.1790  175.8260  136.3850 O   0  0  0  0  0  0  0  0  0  0  0  0
  180.9200  175.3440  136.2550 N   0  0  0  0  0  2  0  0  0  0  0  0
  180.2730  176.1390  135.2280 C   0  0  0  0  0  2  0  0  0  0  0  0
  180.5720  177.6040  135.4620 C   0  0  0  0  0  1  0  0  0  0  0  0
  1  5  1  1  0  0  0
  1 18  1  0  0  0  0
  2 12  1  0  0  0  0
  4  1  1  0  0  0  0
  4 21  1  0  0  0  0
  6 23  1  0  0  0  0
  6 14  1  0  0  0  0
  7 11  1  0  0  0  0
  7 10  1  0  0  0  0
  8 21  1  0  0  0  0
 10  5  1  0  0  0  0
 11  4  1  0  0  0  0
 12 17  1  0  0  0  0
 13  8  1  0  0  0  0
 14 22  1  0  0  0  0
 15 18  1  0  0  0  0
 15  2  1  0  0  0  0
 16 24  1  0  0  0  0
 17 25  1  0  0  0  0
 18 16  1  0  0  0  0
 19 21  1  0  0  0  0
 20  9  1  0  0  0  0
 20 16  1  0  0  0  0
 21 20  1  0  0  0  0
 22 13  1  0  0  0  0
 23 26  1  0  0  0  0
 24 25  1  0  0  0  0
 24  3  1  0  0  0  0
 26 11  1  0  0  0  0
 26 13  1  0  0  0  0
 27  7  1  0  0  0  0
 28 27  1  0  0  0  0
 29 30  1  0  0  0  0
 29 28  1  0  0  0  0
M  END
>  <MODEL>
2

>  <REMARK>
 VINA RESULT:      -5.1      2.981      5.666
  Name = 
  3 active torsions:
  status: ('A' for Active; 'I' for Inactive)
    1  A    between atoms: O_6  and  C_8
    2  A    between atoms: O_6  and  N_21
    3  A    between atoms: C_9  and  N_21
                            x       y       z     vdW  Elec       q    Type
                         _______ _______ _______ _____ _____    ______ ____

>  <TORSDO>
F 3

$$$$
=
 OpenBabel10262422023D

 30 34  0  0  1  0  0  0  0  0999 V2000
  191.6960  176.4170  137.6030 C   0  0  1  0  0  3  0  0  0  0  0  0
  194.9600  176.1080  135.7620 C   0  0  0  0  0  2  0  0  0  0  0  0
  192.8100  171.8300  135.7570 C   0  0  0  0  0  1  0  0  0  0  0  0
  190.3180  176.4280  136.8640 C   0  0  2  0  0  3  0  0  0  0  0  0
  191.5920  175.9970  139.0720 C   0  0  0  0  0  2  0  0  0  0  0  0
  186.0350  177.4980  135.9290 C   0  0  0  0  0  2  0  0  0  0  0  0
  189.2730  177.1020  139.1060 C   0  0  2  0  0  3  0  0  0  0  0  0
  188.8210  175.3710  135.0440 C   0  0  0  0  0  2  0  0  0  0  0  0
  189.9910  173.2330  136.7820 C   0  0  0  0  0  1  0  0  0  0  0  0
  190.6060  176.8820  139.8350 C   0  0  0  0  0  2  0  0  0  0  0  0
  189.1500  176.2210  137.8510 C   0  0  1  0  0  3  0  0  0  0  0  0
  195.1940  175.0210  134.9150 O   0  0  0  0  0  0  0  0  0  0  0  0
  187.7090  175.1930  136.0900 C   0  0  2  0  0  3  0  0  0  0  0  0
  186.1250  176.3840  134.8880 C   0  0  0  0  0  2  0  0  0  0  0  0
  193.4680  176.3910  135.8190 C   0  0  0  0  0  2  0  0  0  0  0  0
  192.2810  174.1720  136.5300 C   0  0  1  0  0  3  0  0  0  0  0  0
  195.7210  173.9980  135.7190 C   0  0  0  0  0  2  0  0  0  0  0  0
  192.7870  175.5850  136.9270 C   0  0  2  0  0  3  0  0  0  0  0  0
  190.9870  176.0970  134.5940 O   0  0  0  0  0  1  0  0  0  0  0  0
  190.8700  174.1150  135.9040 C   0  0  2  0  0  3  0  0  0  0  0  0
  190.2470  175.5020  135.6150 C   0  0  1  0  0  0  0  0  0  0  0  0
  186.4220  175.1420  135.4980 O   0  0  0  0  0  0  0  0  0  0  0  0
  187.3740  177.6150  136.6410 C   0  0  0  0  0  2  0  0  0  0  0  0
  193.2990  173.2670  135.8140 C   0  0  1  0  0  3  0  0  0  0  0  0
  194.6390  173.2860  136.5390 C   0  0  0  0  0  2  0  0  0  0  0  0
  187.7680  176.2480  137.1990 C   0  0  2  0  0  3  0  0  0  0  0  0
  189.1550  178.4550  138.7760 O   0  0  0  0  0  0  0  0  0  0  0  0
  188.6590  179.0390  139.8940 N   0  0  0  0  0  2  0  0  0  0  0  0
  187.4440  178.3230  140.2350 C   0  0  0  0  0  2  0  0  0  0  0  0
  187.0260  178.6820  141.6440 C   0  0  0  0  0  1  0  0  0  0  0  0
  1  5  1  1  0  0  0
  2 15  1  0  0  0  0
  3 24  1  0  0  0  0
  4  1  1  0  0  0  0
  4 11  1  0  0  0  0
  5 10  1  0  0  0  0
  6 23  1  0  0  0  0
  7 10  1  0  0  0  0
  8 21  1  0  0  0  0
  8 13  1  0  0  0  0
 11  7  1  0  0  0  0
 12 17  1  0  0  0  0
 12  2  1  0  0  0  0
 13 26  1  0  0  0  0
 14 22  1  0  0  0  0
 14  6  1  0  0  0  0
 15 18  1  0  0  0  0
 16 18  1  0  0  0  0
 17 25  1  0  0  0  0
 18  1  1  0  0  0  0
 19 21  1  0  0  0  0
 20 16  1  0  0  0  0
 20  9  1  0  0  0  0
 21 20  1  0  0  0  0
 21  4  1  0  0  0  0
 22 13  1  0  0  0  0
 23 26  1  0  0  0  0
 24 16  1  0  0  0  0
 24 25  1  0  0  0  0
 26 11  1  0  0  0  0
 27  7  1  0  0  0  0
 27 28  1  0  0  0  0
 28 29  1  0  0  0  0
 29 30  1  0  0  0  0
M  END
>  <MODEL>
3

>  <REMARK>
 VINA RESULT:      -5.1      4.054      8.705
  Name = 
  3 active torsions:
  status: ('A' for Active; 'I' for Inactive)
    1  A    between atoms: O_6  and  C_8
    2  A    between atoms: O_6  and  N_21
    3  A    between atoms: C_9  and  N_21
                            x       y       z     vdW  Elec       q    Type
                         _______ _______ _______ _____ _____    ______ ____

>  <TORSDO>
F 3

$$$$
=
 OpenBabel10262422023D

 30 34  0  0  1  0  0  0  0  0999 V2000
  179.9550  176.9990  139.5770 C   0  0  1  0  0  3  0  0  0  0  0  0
  179.1380  173.5900  138.2170 C   0  0  0  0  0  2  0  0  0  0  0  0
  181.5150  176.0300  134.8520 C   0  0  0  0  0  1  0  0  0  0  0  0
  181.4020  177.3970  140.0190 C   0  0  2  0  0  3  0  0  0  0  0  0
  179.0760  178.2030  139.2300 C   0  0  0  0  0  2  0  0  0  0  0  0
  184.7060  179.3510  142.3930 C   0  0  0  0  0  2  0  0  0  0  0  0
  180.3670  179.5180  141.0200 C   0  0  2  0  0  3  0  0  0  0  0  0
  183.9270  177.3630  139.4750 C   0  0  0  0  0  2  0  0  0  0  0  0
  182.3740  178.3080  137.0960 C   0  0  0  0  0  1  0  0  0  0  0  0
  179.0030  179.1930  140.3930 C   0  0  0  0  0  2  0  0  0  0  0  0
  181.5300  178.9230  140.2090 C   0  0  1  0  0  3  0  0  0  0  0  0
  179.8180  173.0920  137.1010 O   0  0  0  0  0  0  0  0  0  0  0  0
  183.9690  178.8870  139.6750 C   0  0  2  0  0  3  0  0  0  0  0  0
  185.6250  178.8180  141.2960 C   0  0  0  0  0  2  0  0  0  0  0  0
  180.0370  174.5620  138.9630 C   0  0  0  0  0  2  0  0  0  0  0  0
  180.8130  176.3790  137.2500 C   0  0  1  0  0  3  0  0  0  0  0  0
  179.1160  173.5470  135.9740 C   0  0  0  0  0  2  0  0  0  0  0  0
  179.8830  175.9880  138.4310 C   0  0  2  0  0  3  0  0  0  0  0  0
  182.6340  175.4260  139.4640 O   0  0  0  0  0  1  0  0  0  0  0  0
  182.2150  176.8950  137.6400 C   0  0  2  0  0  3  0  0  0  0  0  0
  182.5370  176.7810  139.1490 C   0  0  1  0  0  0  0  0  0  0  0  0
  185.2640  179.3420  140.0320 O   0  0  0  0  0  0  0  0  0  0  0  0
  183.2770  178.9290  142.0840 C   0  0  0  0  0  2  0  0  0  0  0  0
  180.8340  175.4060  136.0580 C   0  0  1  0  0  3  0  0  0  0  0  0
  179.4160  175.0160  135.6560 C   0  0  0  0  0  2  0  0  0  0  0  0
  182.9140  179.3810  140.6690 C   0  0  2  0  0  3  0  0  0  0  0  0
  180.3850  179.0470  142.3350 O   0  0  0  0  0  0  0  0  0  0  0  0
  179.4370  179.7730  142.9740 N   0  0  0  0  0  2  0  0  0  0  0  0
  179.1990  179.1200  144.2480 C   0  0  0  0  0  2  0  0  0  0  0  0
  180.0550  177.8760  144.3430 C   0  0  0  0  0  1  0  0  0  0  0  0
  1  5  1  6  0  0  0
  1  4  1  0  0  0  0
  2 15  1  0  0  0  0
  3 24  1  0  0  0  0
  4 11  1  0  0  0  0
  5 10  1  0  0  0  0
  7 27  1  0  0  0  0
  8 13  1  0  0  0  0
  9 20  1  0  0  0  0
 10  7  1  0  0  0  0
 11 26  1  0  0  0  0
 11  7  1  0  0  0  0
 12  2  1  0  0  0  0
 13 22  1  0  0  0  0
 13 26  1  0  0  0  0
 14  6  1  0  0  0  0
 16 20  1  0  0  0  0
 16 18  1  0  0  0  0
 17 12  1  0  0  0  0
 18 15  1  0  0  0  0
 18  1  1  0  0  0  0
 20 21  1  0  0  0  0
 21 19  1  0  0  0  0
 21  8  1  0  0  0  0
 21  4  1  0  0  0  0
 22 14  1  0  0  0  0
 23  6  1  0  0  0  0
 24 16  1  0  0  0  0
 25 17  1  0  0  0  0
 25 24  1  0  0  0  0
 26 23  1  0  0  0  0
 27 28  1  0  0  0  0
 28 29  1  0  0  0  0
 29 30  1  0  0  0  0
M  END
>  <MODEL>
4

>  <REMARK>
 VINA RESULT:      -4.9      2.943      4.282
  Name = 
  3 active torsions:
  status: ('A' for Active; 'I' for Inactive)
    1  A    between atoms: O_6  and  C_8
    2  A    between atoms: O_6  and  N_21
    3  A    between atoms: C_9  and  N_21
                            x       y       z     vdW  Elec       q    Type
                         _______ _______ _______ _____ _____    ______ ____

>  <TORSDO>
F 3

$$$$
=
 OpenBabel10262422023D

 30 34  0  0  1  0  0  0  0  0999 V2000
  182.2430  177.9630  141.5370 C   0  0  1  0  0  3  0  0  0  0  0  0
  179.7890  176.0490  139.4260 C   0  0  0  0  0  2  0  0  0  0  0  0
  181.5060  179.6850  136.8270 C   0  0  0  0  0  1  0  0  0  0  0  0
  183.7890  177.8750  141.3090 C   0  0  2  0  0  3  0  0  0  0  0  0
  181.8120  179.2410  142.2630 C   0  0  0  0  0  2  0  0  0  0  0  0
  188.1980  177.7480  142.2610 C   0  0  0  0  0  2  0  0  0  0  0  0
  184.0510  179.1510  143.5170 C   0  0  2  0  0  3  0  0  0  0  0  0
  185.7380  177.8740  139.6150 C   0  0  0  0  0  2  0  0  0  0  0  0
  183.8980  180.1700  139.0640 C   0  0  0  0  0  1  0  0  0  0  0  0
  182.5370  179.3940  143.5990 C   0  0  0  0  0  2  0  0  0  0  0  0
  184.5320  178.9960  142.0640 C   0  0  1  0  0  3  0  0  0  0  0  0
  179.7820  176.2020  138.0370 O   0  0  0  0  0  0  0  0  0  0  0  0
  186.4120  178.9970  140.4200 C   0  0  2  0  0  3  0  0  0  0  0  0
  188.3890  177.8340  140.7490 C   0  0  0  0  0  2  0  0  0  0  0  0
  181.1890  176.3170  139.9560 C   0  0  0  0  0  2  0  0  0  0  0  0
  181.9040  178.6850  139.1080 C   0  0  1  0  0  3  0  0  0  0  0  0
  178.9420  177.2920  137.7620 C   0  0  0  0  0  2  0  0  0  0  0  0
  181.3930  177.7990  140.2760 C   0  0  2  0  0  3  0  0  0  0  0  0
  183.9120  176.4460  139.3970 O   0  0  0  0  0  1  0  0  0  0  0  0
  183.4350  178.7270  138.9170 C   0  0  2  0  0  3  0  0  0  0  0  0
  184.2160  177.7400  139.8180 C   0  0  1  0  0  0  0  0  0  0  0  0
  187.8160  179.0200  140.2310 O   0  0  0  0  0  0  0  0  0  0  0  0
  186.7080  177.7400  142.5680 C   0  0  0  0  0  2  0  0  0  0  0  0
  181.1300  178.5670  137.7830 C   0  0  1  0  0  3  0  0  0  0  0  0
  179.6270  178.6360  138.0300 C   0  0  0  0  0  2  0  0  0  0  0  0
  186.0520  178.9530  141.9080 C   0  0  2  0  0  3  0  0  0  0  0  0
  184.3690  178.0160  144.2690 O   0  0  0  0  0  0  0  0  0  0  0  0
  184.1650  178.3890  145.5560 N   0  0  0  0  0  2  0  0  0  0  0  0
  185.4260  178.9140  146.0430 C   0  0  0  0  0  2  0  0  0  0  0  0
  186.4030  177.7740  146.2430 C   0  0  0  0  0  1  0  0  0  0  0  0
  1  5  1  6  0  0  0
  2 15  1  0  0  0  0
  3 24  1  0  0  0  0
  4  1  1  0  0  0  0
  4 11  1  0  0  0  0
  5 10  1  0  0  0  0
  6 23  1  0  0  0  0
  7 10  1  0  0  0  0
  7 27  1  0  0  0  0
  8 21  1  0  0  0  0
  8 13  1  0  0  0  0
 11  7  1  0  0  0  0
 12  2  1  0  0  0  0
 13 26  1  0  0  0  0
 14  6  1  0  0  0  0
 15 18  1  0  0  0  0
 16 18  1  0  0  0  0
 17 25  1  0  0  0  0
 17 12  1  0  0  0  0
 18  1  1  0  0  0  0
 19 21  1  0  0  0  0
 20  9  1  0  0  0  0
 20 16  1  0  0  0  0
 20 21  1  0  0  0  0
 21  4  1  0  0  0  0
 22 13  1  0  0  0  0
 22 14  1  0  0  0  0
 24 25  1  0  0  0  0
 24 16  1  0  0  0  0
 26 11  1  0  0  0  0
 26 23  1  0  0  0  0
 27 28  1  0  0  0  0
 28 29  1  0  0  0  0
 29 30  1  0  0  0  0
M  END
>  <MODEL>
5

>  <REMARK>
 VINA RESULT:      -4.8      2.936      4.041
  Name = 
  3 active torsions:
  status: ('A' for Active; 'I' for Inactive)
    1  A    between atoms: O_6  and  C_8
    2  A    between atoms: O_6  and  N_21
    3  A    between atoms: C_9  and  N_21
                            x       y       z     vdW  Elec       q    Type
                         _______ _______ _______ _____ _____    ______ ____

>  <TORSDO>
F 3

$$$$
=
 OpenBabel10262422023D

 30 34  0  0  1  0  0  0  0  0999 V2000
  185.5930  177.5380  137.8400 C   0  0  1  0  0  3  0  0  0  0  0  0
  182.4720  178.3540  139.7730 C   0  0  0  0  0  2  0  0  0  0  0  0
  181.2760  177.6710  135.1870 C   0  0  0  0  0  1  0  0  0  0  0  0
  185.9090  176.0910  137.3360 C   0  0  2  0  0  3  0  0  0  0  0  0
  186.3220  178.6270  137.0480 C   0  0  0  0  0  2  0  0  0  0  0  0
  188.3090  172.4280  136.2440 C   0  0  0  0  0  2  0  0  0  0  0  0
  188.2480  176.9550  136.7390 C   0  0  2  0  0  3  0  0  0  0  0  0
  185.0290  173.9480  136.1940 C   0  0  0  0  0  2  0  0  0  0  0  0
  184.2570  176.3570  134.5940 C   0  0  0  0  0  1  0  0  0  0  0  0
  187.8340  178.4000  137.0520 C   0  0  0  0  0  2  0  0  0  0  0  0
  187.0510  176.0960  136.2980 C   0  0  1  0  0  3  0  0  0  0  0  0
  181.2140  178.0630  139.2390 O   0  0  0  0  0  0  0  0  0  0  0  0
  186.1930  174.0270  135.1930 C   0  0  2  0  0  3  0  0  0  0  0  0
  186.9960  171.9060  135.6670 C   0  0  0  0  0  2  0  0  0  0  0  0
  183.4950  177.3760  139.2160 C   0  0  0  0  0  2  0  0  0  0  0  0
  183.3540  177.5030  136.6080 C   0  0  1  0  0  3  0  0  0  0  0  0
  180.8460  179.1740  138.4630 C   0  0  0  0  0  2  0  0  0  0  0  0
  184.1060  177.8890  137.9100 C   0  0  2  0  0  3  0  0  0  0  0  0
  183.9530  174.9030  138.0250 O   0  0  0  0  0  1  0  0  0  0  0  0
  183.7200  176.1310  136.0010 C   0  0  2  0  0  3  0  0  0  0  0  0
  184.6620  175.2770  136.8840 C   0  0  1  0  0  0  0  0  0  0  0  0
  186.5140  172.7590  134.6470 O   0  0  0  0  0  0  0  0  0  0  0  0
  188.0690  173.8080  136.8400 C   0  0  0  0  0  2  0  0  0  0  0  0
  181.8420  177.7890  136.5920 C   0  0  1  0  0  3  0  0  0  0  0  0
  181.5550  179.1960  137.1050 C   0  0  0  0  0  2  0  0  0  0  0  0
  187.4310  174.7080  135.7820 C   0  0  2  0  0  3  0  0  0  0  0  0
  188.8660  176.4060  137.8660 O   0  0  0  0  0  0  0  0  0  0  0  0
  189.6070  177.4180  138.3780 N   0  0  0  0  0  2  0  0  0  0  0  0
  189.7900  177.1280  139.7880 C   0  0  0  0  0  2  0  0  0  0  0  0
  188.6810  177.7820  140.5850 C   0  0  0  0  0  1  0  0  0  0  0  0
  1  5  1  6  0  0  0
  1 18  1  0  0  0  0
  3 24  1  0  0  0  0
  4  1  1  0  0  0  0
  5 10  1  0  0  0  0
  6 23  1  0  0  0  0
  7 10  1  0  0  0  0
  7 27  1  0  0  0  0
  8 21  1  0  0  0  0
  9 20  1  0  0  0  0
 11  7  1  0  0  0  0
 11  4  1  0  0  0  0
 12  2  1  0  0  0  0
 13 26  1  0  0  0  0
 13  8  1  0  0  0  0
 14  6  1  0  0  0  0
 15  2  1  0  0  0  0
 16 18  1  0  0  0  0
 17 12  1  0  0  0  0
 18 15  1  0  0  0  0
 20 16  1  0  0  0  0
 20 21  1  0  0  0  0
 21  4  1  0  0  0  0
 21 19  1  0  0  0  0
 22 13  1  0  0  0  0
 22 14  1  0  0  0  0
 24 16  1  0  0  0  0
 24 25  1  0  0  0  0
 25 17  1  0  0  0  0
 26 11  1  0  0  0  0
 26 23  1  0  0  0  0
 27 28  1  0  0  0  0
 28 29  1  0  0  0  0
 29 30  1  0  0  0  0
M  END
>  <MODEL>
6

>  <REMARK>
 VINA RESULT:      -4.6      2.509      3.522
  Name = 
  3 active torsions:
  status: ('A' for Active; 'I' for Inactive)
    1  A    between atoms: O_6  and  C_8
    2  A    between atoms: O_6  and  N_21
    3  A    between atoms: C_9  and  N_21
                            x       y       z     vdW  Elec       q    Type
                         _______ _______ _______ _____ _____    ______ ____

>  <TORSDO>
F 3

$$$$
=
 OpenBabel10262422023D

 30 34  0  0  1  0  0  0  0  0999 V2000
  184.2120  176.6590  137.9040 C   0  0  1  0  0  3  0  0  0  0  0  0
  182.6190  178.9610  140.4140 C   0  0  0  0  0  2  0  0  0  0  0  0
  179.9820  179.0240  136.4180 C   0  0  0  0  0  1  0  0  0  0  0  0
  183.6060  175.2610  137.5500 C   0  0  2  0  0  3  0  0  0  0  0  0
  185.1230  177.2180  136.8070 C   0  0  0  0  0  2  0  0  0  0  0  0
  183.4350  170.8910  136.4350 C   0  0  0  0  0  2  0  0  0  0  0  0
  185.7780  174.7930  136.2720 C   0  0  2  0  0  3  0  0  0  0  0  0
  181.4910  173.8900  136.9850 C   0  0  0  0  0  2  0  0  0  0  0  0
  181.5970  176.3600  135.2970 C   0  0  0  0  0  1  0  0  0  0  0  0
  186.2490  176.2420  136.4670 C   0  0  0  0  0  2  0  0  0  0  0  0
  184.2440  174.6800  136.2720 C   0  0  1  0  0  3  0  0  0  0  0  0
  181.2900  179.3680  140.2580 O   0  0  0  0  0  0  0  0  0  0  0  0
  182.1960  173.3610  135.7250 C   0  0  2  0  0  3  0  0  0  0  0  0
  181.9340  171.1280  136.2840 C   0  0  0  0  0  2  0  0  0  0  0  0
  182.8090  177.5990  139.7670 C   0  0  0  0  0  2  0  0  0  0  0  0
  182.0070  177.7960  137.2860 C   0  0  1  0  0  3  0  0  0  0  0  0
  181.3190  180.5130  139.4470 C   0  0  0  0  0  2  0  0  0  0  0  0
  183.1890  177.7290  138.2910 C   0  0  2  0  0  3  0  0  0  0  0  0
  181.6130  175.2530  138.8690 O   0  0  0  0  0  1  0  0  0  0  0  0
  181.4510  176.4360  136.8120 C   0  0  2  0  0  3  0  0  0  0  0  0
  182.0500  175.2130  137.5450 C   0  0  1  0  0  0  0  0  0  0  0  0
  181.6710  172.1140  135.3040 O   0  0  0  0  0  0  0  0  0  0  0  0
  184.0960  172.1920  136.8660 C   0  0  0  0  0  2  0  0  0  0  0  0
  180.9070  178.8240  137.6060 C   0  0  1  0  0  3  0  0  0  0  0  0
  181.5190  180.1720  137.9660 C   0  0  0  0  0  2  0  0  0  0  0  0
  183.7170  173.2990  135.8820 C   0  0  2  0  0  3  0  0  0  0  0  0
  186.3350  173.9970  137.2770 O   0  0  0  0  0  0  0  0  0  0  0  0
  187.5890  173.7240  136.8440 N   0  0  0  0  0  2  0  0  0  0  0  0
  187.8010  172.3030  137.0480 C   0  0  0  0  0  2  0  0  0  0  0  0
  187.6060  171.5710  135.7370 C   0  0  0  0  0  1  0  0  0  0  0  0
  1  5  1  6  0  0  0
  1 18  1  0  0  0  0
  3 24  1  0  0  0  0
  4  1  1  0  0  0  0
  6 23  1  0  0  0  0
  7 11  1  0  0  0  0
  7 10  1  0  0  0  0
  7 27  1  0  0  0  0
  8 21  1  0  0  0  0
  9 20  1  0  0  0  0
 10  5  1  0  0  0  0
 11  4  1  0  0  0  0
 12  2  1  0  0  0  0
 13 26  1  0  0  0  0
 13  8  1  0  0  0  0
 14  6  1  0  0  0  0
 15  2  1  0  0  0  0
 16 24  1  0  0  0  0
 16 18  1  0  0  0  0
 17 12  1  0  0  0  0
 18 15  1  0  0  0  0
 20 16  1  0  0  0  0
 20 21  1  0  0  0  0
 21  4  1  0  0  0  0
 21 19  1  0  0  0  0
 22 13  1  0  0  0  0
 22 14  1  0  0  0  0
 24 25  1  0  0  0  0
 25 17  1  0  0  0  0
 26 11  1  0  0  0  0
 26 23  1  0  0  0  0
 28 29  1  0  0  0  0
 28 27  1  0  0  0  0
 30 29  1  0  0  0  0
M  END
>  <MODEL>
7

>  <REMARK>
 VINA RESULT:      -4.6      2.903      5.339
  Name = 
  3 active torsions:
  status: ('A' for Active; 'I' for Inactive)
    1  A    between atoms: O_6  and  C_8
    2  A    between atoms: O_6  and  N_21
    3  A    between atoms: C_9  and  N_21
                            x       y       z     vdW  Elec       q    Type
                         _______ _______ _______ _____ _____    ______ ____

>  <TORSDO>
F 3

$$$$
=
 OpenBabel10262422023D

 30 34  0  0  1  0  0  0  0  0999 V2000
  181.5940  176.5360  139.0590 C   0  0  1  0  0  3  0  0  0  0  0  0
  183.9410  173.9130  137.7350 C   0  0  0  0  0  2  0  0  0  0  0  0
  180.1570  174.1730  134.8120 C   0  0  0  0  0  1  0  0  0  0  0  0
  181.4410  177.9380  138.3830 C   0  0  2  0  0  3  0  0  0  0  0  0
  180.3810  176.1370  139.9040 C   0  0  0  0  0  2  0  0  0  0  0  0
  180.8300  182.3920  137.9840 C   0  0  0  0  0  2  0  0  0  0  0  0
  180.0730  178.6310  140.4370 C   0  0  2  0  0  3  0  0  0  0  0  0
  181.1810  179.2740  136.1870 C   0  0  0  0  0  2  0  0  0  0  0  0
  179.2270  177.0070  136.2490 C   0  0  0  0  0  1  0  0  0  0  0  0
  180.0730  177.1900  140.9680 C   0  0  0  0  0  2  0  0  0  0  0  0
  180.1920  178.6790  138.9040 C   0  0  1  0  0  3  0  0  0  0  0  0
  183.8340  173.4710  136.4130 O   0  0  0  0  0  0  0  0  0  0  0  0
  179.9400  179.9640  136.7780 C   0  0  2  0  0  3  0  0  0  0  0  0
  180.7600  182.1110  136.4840 C   0  0  0  0  0  2  0  0  0  0  0  0
  183.4360  175.3440  137.8310 C   0  0  0  0  0  2  0  0  0  0  0  0
  181.0110  175.3830  136.8540 C   0  0  1  0  0  3  0  0  0  0  0  0
  182.9010  172.4220  136.4190 C   0  0  0  0  0  2  0  0  0  0  0  0
  181.9320  175.3900  138.1040 C   0  0  2  0  0  3  0  0  0  0  0  0
  182.8890  177.7220  136.4930 O   0  0  0  0  0  1  0  0  0  0  0  0
  180.7300  176.7610  136.2190 C   0  0  2  0  0  3  0  0  0  0  0  0
  181.5510  177.9220  136.8300 C   0  0  1  0  0  0  0  0  0  0  0  0
  179.6980  181.2270  136.1820 O   0  0  0  0  0  0  0  0  0  0  0  0
  181.0680  181.0800  138.7180 C   0  0  0  0  0  2  0  0  0  0  0  0
  181.2920  174.2820  135.8160 C   0  0  1  0  0  3  0  0  0  0  0  0
  181.4570  172.9290  136.4980 C   0  0  0  0  0  2  0  0  0  0  0  0
  179.9960  180.0710  138.3040 C   0  0  2  0  0  3  0  0  0  0  0  0
  181.1180  179.3360  141.0400 O   0  0  0  0  0  0  0  0  0  0  0  0
  181.2810  178.7430  142.2470 N   0  0  0  0  0  2  0  0  0  0  0  0
  182.6480  179.0030  142.6580 C   0  0  0  0  0  2  0  0  0  0  0  0
  183.6000  178.4450  141.6210 C   0  0  0  0  0  1  0  0  0  0  0  0
  1  5  1  6  0  0  0
  2 15  1  0  0  0  0
  3 24  1  0  0  0  0
  4 11  1  0  0  0  0
  4  1  1  0  0  0  0
  5 10  1  0  0  0  0
  6 23  1  0  0  0  0
  7 10  1  0  0  0  0
  7 27  1  0  0  0  0
  8 13  1  0  0  0  0
  8 21  1  0  0  0  0
 11  7  1  0  0  0  0
 12 17  1  0  0  0  0
 12  2  1  0  0  0  0
 13 26  1  0  0  0  0
 14  6  1  0  0  0  0
 15 18  1  0  0  0  0
 16 18  1  0  0  0  0
 17 25  1  0  0  0  0
 18  1  1  0  0  0  0
 19 21  1  0  0  0  0
 20  9  1  0  0  0  0
 20 21  1  0  0  0  0
 20 16  1  0  0  0  0
 21  4  1  0  0  0  0
 22 14  1  0  0  0  0
 22 13  1  0  0  0  0
 24 25  1  0  0  0  0
 24 16  1  0  0  0  0
 26 23  1  0  0  0  0
 26 11  1  0  0  0  0
 27 28  1  0  0  0  0
 28 29  1  0  0  0  0
 30 29  1  0  0  0  0
M  END
>  <MODEL>
8

>  <REMARK>
 VINA RESULT:      -4.5      3.112      5.130
  Name = 
  3 active torsions:
  status: ('A' for Active; 'I' for Inactive)
    1  A    between atoms: O_6  and  C_8
    2  A    between atoms: O_6  and  N_21
    3  A    between atoms: C_9  and  N_21
                            x       y       z     vdW  Elec       q    Type
                         _______ _______ _______ _____ _____    ______ ____

>  <TORSDO>
F 3

$$$$
=
 OpenBabel10262422023D

 30 34  0  0  1  0  0  0  0  0999 V2000
  185.3820  177.5490  138.1020 C   0  0  1  0  0  3  0  0  0  0  0  0
  182.6760  178.7680  140.4110 C   0  0  0  0  0  2  0  0  0  0  0  0
  180.9140  178.6200  135.9610 C   0  0  0  0  0  1  0  0  0  0  0  0
  185.3760  176.1070  137.4950 C   0  0  2  0  0  3  0  0  0  0  0  0
  186.2120  178.5450  137.2870 C   0  0  0  0  0  2  0  0  0  0  0  0
  186.9450  172.1630  135.9630 C   0  0  0  0  0  2  0  0  0  0  0  0
  187.7590  176.5860  136.6810 C   0  0  2  0  0  3  0  0  0  0  0  0
  184.0080  174.2350  136.3570 C   0  0  0  0  0  2  0  0  0  0  0  0
  183.5280  176.8450  134.9730 C   0  0  0  0  0  1  0  0  0  0  0  0
  187.6500  178.0560  137.1090 C   0  0  0  0  0  2  0  0  0  0  0  0
  186.3870  175.9820  136.3370 C   0  0  1  0  0  3  0  0  0  0  0  0
  181.3370  178.7400  140.0080 O   0  0  0  0  0  0  0  0  0  0  0  0
  185.0590  174.1770  135.2360 C   0  0  2  0  0  3  0  0  0  0  0  0
  185.5060  171.9200  135.5130 C   0  0  0  0  0  2  0  0  0  0  0  0
  183.4410  177.6660  139.6950 C   0  0  0  0  0  2  0  0  0  0  0  0
  183.0600  177.9930  137.1290 C   0  0  1  0  0  3  0  0  0  0  0  0
  181.1010  179.9490  139.3340 C   0  0  0  0  0  2  0  0  0  0  0  0
  183.9990  178.1510  138.3560 C   0  0  2  0  0  3  0  0  0  0  0  0
  183.3170  175.2380  138.3420 O   0  0  0  0  0  1  0  0  0  0  0  0
  183.1060  176.6220  136.4190 C   0  0  2  0  0  3  0  0  0  0  0  0
  183.9620  175.5580  137.1470 C   0  0  1  0  0  0  0  0  0  0  0  0
  185.0860  172.9120  134.5960 O   0  0  0  0  0  0  0  0  0  0  0  0
  187.0220  173.5190  136.6480 C   0  0  0  0  0  2  0  0  0  0  0  0
  181.6320  178.5410  137.2970 C   0  0  1  0  0  3  0  0  0  0  0  0
  181.6590  179.9380  137.9070 C   0  0  0  0  0  2  0  0  0  0  0  0
  186.4540  174.5880  135.7140 C   0  0  2  0  0  3  0  0  0  0  0  0
  188.3790  175.8610  137.7040 O   0  0  0  0  0  0  0  0  0  0  0  0
  189.6830  176.2200  137.6380 N   0  0  0  0  0  2  0  0  0  0  0  0
  190.2840  175.4180  136.5880 C   0  0  0  0  0  2  0  0  0  0  0  0
  190.6600  174.0610  137.1450 C   0  0  0  0  0  1  0  0  0  0  0  0
  1  5  1  6  0  0  0
  1 18  1  0  0  0  0
  3 24  1  0  0  0  0
  4  1  1  0  0  0  0
  6 23  1  0  0  0  0
  7 10  1  0  0  0  0
  7 27  1  0  0  0  0
  8 21  1  0  0  0  0
  9 20  1  0  0  0  0
 10  5  1  0  0  0  0
 11  7  1  0  0  0  0
 11  4  1  0  0  0  0
 12  2  1  0  0  0  0
 13 26  1  0  0  0  0
 13  8  1  0  0  0  0
 14  6  1  0  0  0  0
 15  2  1  0  0  0  0
 16 24  1  0  0  0  0
 16 18  1  0  0  0  0
 17 12  1  0  0  0  0
 18 15  1  0  0  0  0
 20 16  1  0  0  0  0
 20 21  1  0  0  0  0
 21  4  1  0  0  0  0
 21 19  1  0  0  0  0
 22 13  1  0  0  0  0
 22 14  1  0  0  0  0
 24 25  1  0  0  0  0
 25 17  1  0  0  0  0
 26 11  1  0  0  0  0
 26 23  1  0  0  0  0
 28 27  1  0  0  0  0
 29 30  1  0  0  0  0
 29 28  1  0  0  0  0
M  END
>  <MODEL>
9

>  <REMARK>
 VINA RESULT:      -4.5      2.596      4.291
  Name = 
  3 active torsions:
  status: ('A' for Active; 'I' for Inactive)
    1  A    between atoms: O_6  and  C_8
    2  A    between atoms: O_6  and  N_21
    3  A    between atoms: C_9  and  N_21
                            x       y       z     vdW  Elec       q    Type
                         _______ _______ _______ _____ _____    ______ ____

>  <TORSDO>
F 3

$$$$
