=
 OpenBabel10262421053D

 32 36  0  0  1  0  0  0  0  0999 V2000
  181.5020  178.0840  138.4090 C   0  0  2  0  0  3  0  0  0  0  0  0
  180.8330  174.3490  135.9450 C   0  0  0  0  0  2  0  0  0  0  0  0
  182.4970  177.5090  137.3810 C   0  0  1  0  0  3  0  0  0  0  0  0
  182.3980  173.3250  137.1190 O   0  0  0  0  0  0  0  0  0  0  0  0
  182.5810  174.6610  137.3060 C   0  0  0  0  0  0  0  0  0  0  0  0
  183.7180  176.7520  137.9690 C   0  0  1  0  0  3  0  0  0  0  0  0
  183.6010  175.2440  137.9260 C   0  0  0  0  0  3  0  0  0  0  0  0
  181.5670  175.3700  136.6770 N   0  0  0  0  0  0  0  0  0  0  0  0
  181.3200  173.0640  136.3480 O   0  0  0  0  0  0  0  0  0  0  0  0
  181.7610  176.7500  136.2670 C   0  0  0  0  0  2  0  0  0  0  0  0
  185.0000  177.1750  137.2660 C   0  0  0  0  0  2  0  0  0  0  0  0
  185.6980  178.2980  138.0170 C   0  0  0  0  0  2  0  0  0  0  0  0
  187.1390  177.9260  138.3100 C   0  0  0  0  0  1  0  0  0  0  0  0
  181.3600  179.6240  138.3350 C   0  0  0  0  0  0  0  0  0  0  0  0
  182.6290  180.3130  138.8050 C   0  0  0  0  0  1  0  0  0  0  0  0
  180.1900  180.1110  139.1720 C   0  0  0  0  0  1  0  0  0  0  0  0
  181.0900  180.0500  136.9030 C   0  0  0  0  0  1  0  0  0  0  0  0
  180.2340  176.7930  140.2550 N   0  0  0  0  0  0  0  0  0  0  0  0
  181.3450  176.0790  139.8260 O   0  0  0  0  0  0  0  0  0  0  0  0
  181.4730  177.4320  139.8280 C   0  0  1  0  0  0  0  0  0  0  0  0
  182.4650  179.1760  143.0990 C   0  0  0  0  0  3  0  0  0  0  0  0
  184.4430  178.2740  142.0440 C   0  0  0  0  0  3  0  0  0  0  0  0
  182.2700  177.9780  140.9900 C   0  0  0  0  0  0  0  0  0  0  0  0
  183.8520  178.9780  143.0990 C   0  0  0  0  0  0  0  0  0  0  0  0
  183.6590  177.7890  140.9960 C   0  0  0  0  0  3  0  0  0  0  0  0
  181.6760  178.6970  142.0500 C   0  0  0  0  0  0  0  0  0  0  0  0
  180.3140  178.9600  142.0690 O   0  0  0  0  0  1  0  0  0  0  0  0
  184.6820  179.4500  144.2540 C   0  0  0  0  0  3  0  0  0  0  0  0
  185.5700  178.3270  144.7650 C   0  0  0  0  0  2  0  0  0  0  0  0
  184.3130  178.6920  145.5180 C   0  0  0  0  0  2  0  0  0  0  0  0
  179.2470  176.6640  139.1900 C   0  0  0  0  0  2  0  0  0  0  0  0
  178.9320  175.3180  139.0090 O   0  0  0  0  0  1  0  0  0  0  0  0
  1 14  1  1  0  0  0
  2  9  1  0  0  0  0
  2  8  1  0  0  0  0
  3  6  1  0  0  0  0
  3  1  1  1  0  0  0
  4  5  1  0  0  0  0
  5  7  2  0  0  0  0
  6 11  1  6  0  0  0
  7  6  1  0  0  0  0
  8  5  1  0  0  0  0
  9  4  1  0  0  0  0
 10  8  1  0  0  0  0
 10  3  1  0  0  0  0
 11 12  1  0  0  0  0
 12 13  1  0  0  0  0
 14 15  1  0  0  0  0
 14 16  1  0  0  0  0
 17 14  1  0  0  0  0
 19 20  1  0  0  0  0
 19 18  1  0  0  0  0
 20  1  1  6  0  0  0
 20 18  1  0  0  0  0
 20 23  1  0  0  0  0
 21 24  1  0  0  0  0
 22 24  2  0  0  0  0
 23 25  2  0  0  0  0
 23 26  1  0  0  0  0
 24 28  1  0  0  0  0
 25 22  1  0  0  0  0
 26 27  1  0  0  0  0
 26 21  2  0  0  0  0
 28 29  1  0  0  0  0
 28 30  1  0  0  0  0
 29 30  1  0  0  0  0
 31 18  1  0  0  0  0
 32 31  1  0  0  0  0
M  END
>  <MODEL>
1

>  <REMARK>
 VINA RESULT:      -5.9      0.000      0.000
  Name = 
  8 active torsions:
  status: ('A' for Active; 'I' for Inactive)
    1  A    between atoms: N_1  and  C_4
    2  A    between atoms: C_2  and  C_5
    3  A    between atoms: C_5  and  C_10
    4  A    between atoms: C_5  and  C_27
    5  A    between atoms: C_6  and  C_13
    6  A    between atoms: C_6  and  C_25
    7  A    between atoms: C_7  and  C_19
    8  A    between atoms: C_16  and  C_27
                            x       y       z     vdW  Elec       q    Type
                         _______ _______ _______ _____ _____    ______ ____

>  <TORSDO>
F 8

$$$$
=
 OpenBabel10262421053D

 32 36  0  0  1  0  0  0  0  0999 V2000
  181.2340  176.9990  137.5340 C   0  0  2  0  0  3  0  0  0  0  0  0
  181.3370  172.9450  135.5290 C   0  0  0  0  0  2  0  0  0  0  0  0
  182.4130  176.4470  136.7070 C   0  0  1  0  0  3  0  0  0  0  0  0
  182.8520  172.2870  136.9940 O   0  0  0  0  0  0  0  0  0  0  0  0
  182.8480  173.6480  137.0210 C   0  0  0  0  0  0  0  0  0  0  0  0
  183.6320  175.9370  137.5220 C   0  0  1  0  0  3  0  0  0  0  0  0
  183.7040  174.4320  137.6670 C   0  0  0  0  0  3  0  0  0  0  0  0
  181.8440  174.1340  136.1960 N   0  0  0  0  0  0  0  0  0  0  0  0
  181.9200  171.7940  136.1510 O   0  0  0  0  0  0  0  0  0  0  0  0
  181.9200  175.4700  135.6300 C   0  0  0  0  0  2  0  0  0  0  0  0
  184.9320  176.4440  136.9150 C   0  0  0  0  0  2  0  0  0  0  0  0
  185.2530  177.8520  137.3920 C   0  0  0  0  0  2  0  0  0  0  0  0
  186.5940  177.8810  138.0990 C   0  0  0  0  0  1  0  0  0  0  0  0
  180.8980  178.4770  137.2180 C   0  0  0  0  0  0  0  0  0  0  0  0
  180.9270  178.7360  135.7230 C   0  0  0  0  0  1  0  0  0  0  0  0
  181.8680  179.4220  137.9060 C   0  0  0  0  0  1  0  0  0  0  0  0
  179.5090  178.8120  137.7320 C   0  0  0  0  0  1  0  0  0  0  0  0
  179.9110  175.8390  139.4280 N   0  0  0  0  0  0  0  0  0  0  0  0
  181.1220  175.1970  139.2060 O   0  0  0  0  0  0  0  0  0  0  0  0
  181.1210  176.5440  139.0240 C   0  0  1  0  0  0  0  0  0  0  0  0
  181.6160  178.8510  142.0510 C   0  0  0  0  0  3  0  0  0  0  0  0
  183.7520  177.9370  141.3870 C   0  0  0  0  0  3  0  0  0  0  0  0
  181.7420  177.3220  140.1610 C   0  0  0  0  0  0  0  0  0  0  0  0
  183.0010  178.7550  142.2370 C   0  0  0  0  0  0  0  0  0  0  0  0
  183.1280  177.2370  140.3530 C   0  0  0  0  0  3  0  0  0  0  0  0
  180.9870  178.1560  141.0140 C   0  0  0  0  0  0  0  0  0  0  0  0
  179.6200  178.3220  140.8370 O   0  0  0  0  0  1  0  0  0  0  0  0
  183.6590  179.4620  143.3830 C   0  0  0  0  0  3  0  0  0  0  0  0
  184.6970  178.5650  144.0370 C   0  0  0  0  0  2  0  0  0  0  0  0
  183.3490  178.7550  144.6930 C   0  0  0  0  0  2  0  0  0  0  0  0
  179.0530  175.4640  138.3100 C   0  0  0  0  0  2  0  0  0  0  0  0
  178.9310  174.0760  138.2640 O   0  0  0  0  0  1  0  0  0  0  0  0
  1 14  1  1  0  0  0
  2  9  1  0  0  0  0
  2  8  1  0  0  0  0
  3  6  1  0  0  0  0
  3  1  1  1  0  0  0
  4  5  1  0  0  0  0
  5  7  2  0  0  0  0
  6 11  1  6  0  0  0
  6  7  1  0  0  0  0
  8  5  1  0  0  0  0
  9  4  1  0  0  0  0
 10  8  1  0  0  0  0
 10  3  1  0  0  0  0
 11 12  1  0  0  0  0
 12 13  1  0  0  0  0
 14 17  1  0  0  0  0
 14 16  1  0  0  0  0
 15 14  1  0  0  0  0
 19 18  1  0  0  0  0
 20  1  1  6  0  0  0
 20 19  1  0  0  0  0
 20 18  1  0  0  0  0
 20 23  1  0  0  0  0
 21 24  1  0  0  0  0
 22 24  2  0  0  0  0
 23 25  2  0  0  0  0
 23 26  1  0  0  0  0
 24 28  1  0  0  0  0
 25 22  1  0  0  0  0
 26 21  2  0  0  0  0
 27 26  1  0  0  0  0
 28 29  1  0  0  0  0
 28 30  1  0  0  0  0
 29 30  1  0  0  0  0
 31 18  1  0  0  0  0
 32 31  1  0  0  0  0
M  END
>  <MODEL>
2

>  <REMARK>
 VINA RESULT:      -4.9      1.178      1.477
  Name = 
  8 active torsions:
  status: ('A' for Active; 'I' for Inactive)
    1  A    between atoms: N_1  and  C_4
    2  A    between atoms: C_2  and  C_5
    3  A    between atoms: C_5  and  C_10
    4  A    between atoms: C_5  and  C_27
    5  A    between atoms: C_6  and  C_13
    6  A    between atoms: C_6  and  C_25
    7  A    between atoms: C_7  and  C_19
    8  A    between atoms: C_16  and  C_27
                            x       y       z     vdW  Elec       q    Type
                         _______ _______ _______ _____ _____    ______ ____

>  <TORSDO>
F 8

$$$$
=
 OpenBabel10262421053D

 32 36  0  0  1  0  0  0  0  0999 V2000
  181.4350  177.7310  140.0950 C   0  0  2  0  0  3  0  0  0  0  0  0
  184.9890  176.8490  137.4390 C   0  0  0  0  0  2  0  0  0  0  0  0
  181.8640  178.5740  138.8770 C   0  0  1  0  0  3  0  0  0  0  0  0
  186.0110  178.6270  138.2570 O   0  0  0  0  0  0  0  0  0  0  0  0
  184.6860  178.7750  138.5330 C   0  0  0  0  0  0  0  0  0  0  0  0
  182.5920  179.9070  139.1970 C   0  0  1  0  0  3  0  0  0  0  0  0
  184.0960  179.8550  139.0360 C   0  0  0  0  0  3  0  0  0  0  0  0
  183.9900  177.6430  138.1370 N   0  0  0  0  0  0  0  0  0  0  0  0
  186.2720  177.4520  137.6430 O   0  0  0  0  0  0  0  0  0  0  0  0
  182.5720  177.7040  137.8280 C   0  0  0  0  0  2  0  0  0  0  0  0
  182.0370  181.0390  138.3440 C   0  0  0  0  0  2  0  0  0  0  0  0
  181.1780  180.5040  137.2080 C   0  0  0  0  0  2  0  0  0  0  0  0
  180.4170  181.6340  136.5400 C   0  0  0  0  0  1  0  0  0  0  0  0
  180.4420  176.5980  139.7420 C   0  0  0  0  0  0  0  0  0  0  0  0
  179.4570  177.0470  138.6770 C   0  0  0  0  0  1  0  0  0  0  0  0
  179.6720  176.1370  140.9680 C   0  0  0  0  0  1  0  0  0  0  0  0
  181.1980  175.3930  139.2120 C   0  0  0  0  0  1  0  0  0  0  0  0
  180.2800  179.5990  141.4580 N   0  0  0  0  0  0  0  0  0  0  0  0
  179.9640  178.3480  141.9690 O   0  0  0  0  0  0  0  0  0  0  0  0
  181.2130  178.4800  141.4490 C   0  0  1  0  0  0  0  0  0  0  0  0
  183.0800  178.9950  144.7620 C   0  0  0  0  0  3  0  0  0  0  0  0
  184.6840  178.6880  142.9820 C   0  0  0  0  0  3  0  0  0  0  0  0
  182.3030  178.6280  142.4840 C   0  0  0  0  0  0  0  0  0  0  0  0
  184.4110  178.9160  144.3340 C   0  0  0  0  0  0  0  0  0  0  0  0
  183.6390  178.5560  142.0660 C   0  0  0  0  0  3  0  0  0  0  0  0
  182.0290  178.8680  143.8490 C   0  0  0  0  0  0  0  0  0  0  0  0
  180.7270  179.0030  144.3100 O   0  0  0  0  0  1  0  0  0  0  0  0
  185.5290  179.0010  145.3280 C   0  0  0  0  0  3  0  0  0  0  0  0
  186.6420  178.0320  144.9620 C   0  0  0  0  0  2  0  0  0  0  0  0
  185.6790  177.6840  146.0730 C   0  0  0  0  0  2  0  0  0  0  0  0
  179.5110  179.7290  140.2260 C   0  0  0  0  0  2  0  0  0  0  0  0
  179.0390  181.0360  140.1090 O   0  0  0  0  0  1  0  0  0  0  0  0
  1 14  1  6  0  0  0
  2  9  1  0  0  0  0
  2  8  1  0  0  0  0
  3  6  1  0  0  0  0
  3  1  1  1  0  0  0
  4  5  1  0  0  0  0
  5  7  2  0  0  0  0
  6 11  1  6  0  0  0
  7  6  1  0  0  0  0
  8  5  1  0  0  0  0
  9  4  1  0  0  0  0
 10  8  1  0  0  0  0
 10  3  1  0  0  0  0
 12 11  1  0  0  0  0
 13 12  1  0  0  0  0
 14 16  1  0  0  0  0
 15 14  1  0  0  0  0
 17 14  1  0  0  0  0
 18 19  1  0  0  0  0
 20  1  1  6  0  0  0
 20 18  1  0  0  0  0
 20 19  1  0  0  0  0
 20 23  1  0  0  0  0
 22 24  2  0  0  0  0
 23 26  1  0  0  0  0
 24 21  1  0  0  0  0
 24 28  1  0  0  0  0
 25 23  2  0  0  0  0
 25 22  1  0  0  0  0
 26 27  1  0  0  0  0
 26 21  2  0  0  0  0
 28 30  1  0  0  0  0
 29 28  1  0  0  0  0
 29 30  1  0  0  0  0
 31 18  1  0  0  0  0
 32 31  1  0  0  0  0
M  END
>  <MODEL>
3

>  <REMARK>
 VINA RESULT:      -4.2      2.387      3.884
  Name = 
  8 active torsions:
  status: ('A' for Active; 'I' for Inactive)
    1  A    between atoms: N_1  and  C_4
    2  A    between atoms: C_2  and  C_5
    3  A    between atoms: C_5  and  C_10
    4  A    between atoms: C_5  and  C_27
    5  A    between atoms: C_6  and  C_13
    6  A    between atoms: C_6  and  C_25
    7  A    between atoms: C_7  and  C_19
    8  A    between atoms: C_16  and  C_27
                            x       y       z     vdW  Elec       q    Type
                         _______ _______ _______ _____ _____    ______ ____

>  <TORSDO>
F 8

$$$$
=
 OpenBabel10262421053D

 32 36  0  0  1  0  0  0  0  0999 V2000
  180.5530  177.7900  138.8590 C   0  0  2  0  0  3  0  0  0  0  0  0
  179.5270  182.1960  138.8180 C   0  0  0  0  0  2  0  0  0  0  0  0
  181.2040  178.8610  139.7580 C   0  0  1  0  0  3  0  0  0  0  0  0
  181.5020  182.6220  137.9270 O   0  0  0  0  0  0  0  0  0  0  0  0
  181.5830  181.3810  138.4810 C   0  0  0  0  0  0  0  0  0  0  0  0
  182.6300  179.3170  139.3470 C   0  0  1  0  0  3  0  0  0  0  0  0
  182.6790  180.6420  138.6170 C   0  0  0  0  0  3  0  0  0  0  0  0
  180.3430  181.0010  138.9740 N   0  0  0  0  0  0  0  0  0  0  0  0
  180.2650  183.1500  138.0460 O   0  0  0  0  0  0  0  0  0  0  0  0
  180.2280  180.0140  140.0340 C   0  0  0  0  0  2  0  0  0  0  0  0
  183.5420  179.3810  140.5630 C   0  0  0  0  0  2  0  0  0  0  0  0
  183.7280  178.0070  141.1870 C   0  0  0  0  0  2  0  0  0  0  0  0
  184.6590  178.0880  142.3830 C   0  0  0  0  0  1  0  0  0  0  0  0
  180.1110  176.5230  139.6310 C   0  0  0  0  0  0  0  0  0  0  0  0
  181.2820  175.5840  139.8570 C   0  0  0  0  0  1  0  0  0  0  0  0
  179.0140  175.7800  138.8890 C   0  0  0  0  0  1  0  0  0  0  0  0
  179.5460  176.9140  140.9850 C   0  0  0  0  0  1  0  0  0  0  0  0
  180.2850  177.8200  136.2880 N   0  0  0  0  0  0  0  0  0  0  0  0
  181.2630  178.7180  136.6930 O   0  0  0  0  0  0  0  0  0  0  0  0
  181.1560  177.5820  137.4320 C   0  0  1  0  0  0  0  0  0  0  0  0
  182.9530  174.3700  136.3480 C   0  0  0  0  0  3  0  0  0  0  0  0
  184.5750  175.9390  137.2110 C   0  0  0  0  0  3  0  0  0  0  0  0
  182.2210  176.5510  137.1420 C   0  0  0  0  0  0  0  0  0  0  0  0
  184.2810  174.6860  136.6620 C   0  0  0  0  0  0  0  0  0  0  0  0
  183.5520  176.8560  137.4570 C   0  0  0  0  0  3  0  0  0  0  0  0
  181.9250  175.2830  136.5970 C   0  0  0  0  0  0  0  0  0  0  0  0
  180.6190  174.9060  136.3160 O   0  0  0  0  0  1  0  0  0  0  0  0
  185.3830  173.7220  136.3430 C   0  0  0  0  0  3  0  0  0  0  0  0
  184.9030  172.2900  136.5150 C   0  0  0  0  0  2  0  0  0  0  0  0
  185.7660  172.9260  137.5800 C   0  0  0  0  0  2  0  0  0  0  0  0
  179.0110  178.4360  136.6420 C   0  0  0  0  0  2  0  0  0  0  0  0
  178.9330  179.7040  136.0660 O   0  0  0  0  0  1  0  0  0  0  0  0
  1 14  1  1  0  0  0
  2  8  1  0  0  0  0
  3  1  1  6  0  0  0
  3 10  1  0  0  0  0
  4  9  1  0  0  0  0
  4  5  1  0  0  0  0
  5  7  2  0  0  0  0
  5  8  1  0  0  0  0
  6  3  1  0  0  0  0
  6 11  1  1  0  0  0
  7  6  1  0  0  0  0
  8 10  1  0  0  0  0
  9  2  1  0  0  0  0
 11 12  1  0  0  0  0
 12 13  1  0  0  0  0
 14 15  1  0  0  0  0
 14 17  1  0  0  0  0
 16 14  1  0  0  0  0
 18 31  1  0  0  0  0
 18 19  1  0  0  0  0
 18 20  1  0  0  0  0
 19 20  1  0  0  0  0
 20  1  1  1  0  0  0
 21 26  2  0  0  0  0
 21 24  1  0  0  0  0
 22 25  1  0  0  0  0
 23 20  1  0  0  0  0
 23 25  2  0  0  0  0
 24 22  2  0  0  0  0
 26 23  1  0  0  0  0
 27 26  1  0  0  0  0
 28 29  1  0  0  0  0
 28 24  1  0  0  0  0
 28 30  1  0  0  0  0
 29 30  1  0  0  0  0
 32 31  1  0  0  0  0
M  END
>  <MODEL>
4

>  <REMARK>
 VINA RESULT:      -4.2      2.573      6.190
  Name = 
  8 active torsions:
  status: ('A' for Active; 'I' for Inactive)
    1  A    between atoms: N_1  and  C_4
    2  A    between atoms: C_2  and  C_5
    3  A    between atoms: C_5  and  C_10
    4  A    between atoms: C_5  and  C_27
    5  A    between atoms: C_6  and  C_13
    6  A    between atoms: C_6  and  C_25
    7  A    between atoms: C_7  and  C_19
    8  A    between atoms: C_16  and  C_27
                            x       y       z     vdW  Elec       q    Type
                         _______ _______ _______ _____ _____    ______ ____

>  <TORSDO>
F 8

$$$$
=
 OpenBabel10262421053D

 32 36  0  0  1  0  0  0  0  0999 V2000
  181.5230  177.0620  137.9110 C   0  0  2  0  0  3  0  0  0  0  0  0
  178.9310  180.7690  138.0020 C   0  0  0  0  0  2  0  0  0  0  0  0
  181.2150  177.9000  139.1690 C   0  0  1  0  0  3  0  0  0  0  0  0
  180.7320  181.9890  138.3760 O   0  0  0  0  0  0  0  0  0  0  0  0
  181.0570  180.7050  138.6920 C   0  0  0  0  0  0  0  0  0  0  0  0
  182.3550  178.8360  139.6560 C   0  0  1  0  0  3  0  0  0  0  0  0
  182.1760  180.2900  139.2760 C   0  0  0  0  0  3  0  0  0  0  0  0
  180.0010  179.8610  138.3840 N   0  0  0  0  0  0  0  0  0  0  0  0
  179.4730  182.0900  137.8980 O   0  0  0  0  0  0  0  0  0  0  0  0
  179.8440  178.5810  139.0550 C   0  0  0  0  0  2  0  0  0  0  0  0
  182.5270  178.7300  141.1640 C   0  0  0  0  0  2  0  0  0  0  0  0
  183.8260  178.0260  141.5230 C   0  0  0  0  0  2  0  0  0  0  0  0
  184.9720  179.0200  141.5760 C   0  0  0  0  0  1  0  0  0  0  0  0
  181.6680  175.5480  138.1990 C   0  0  0  0  0  0  0  0  0  0  0  0
  183.0130  175.2390  138.8320 C   0  0  0  0  0  1  0  0  0  0  0  0
  181.5170  174.7280  136.9290 C   0  0  0  0  0  1  0  0  0  0  0  0
  180.5780  175.0960  139.1530 C   0  0  0  0  0  1  0  0  0  0  0  0
  181.9920  177.8190  135.4840 N   0  0  0  0  0  0  0  0  0  0  0  0
  182.0910  178.8890  136.3630 O   0  0  0  0  0  0  0  0  0  0  0  0
  182.4860  177.6830  136.8480 C   0  0  1  0  0  0  0  0  0  0  0  0
  186.0650  176.5040  136.1250 C   0  0  0  0  0  3  0  0  0  0  0  0
  186.0950  178.0520  137.9790 C   0  0  0  0  0  3  0  0  0  0  0  0
  183.9850  177.4980  136.9040 C   0  0  0  0  0  0  0  0  0  0  0  0
  186.7810  177.2020  137.1060 C   0  0  0  0  0  0  0  0  0  0  0  0
  184.7090  178.1890  137.8840 C   0  0  0  0  0  3  0  0  0  0  0  0
  184.6780  176.6330  136.0290 C   0  0  0  0  0  0  0  0  0  0  0  0
  184.0050  175.8820  135.0740 O   0  0  0  0  0  1  0  0  0  0  0  0
  188.2750  177.0980  137.1690 C   0  0  0  0  0  3  0  0  0  0  0  0
  188.8360  178.0840  138.1800 C   0  0  0  0  0  2  0  0  0  0  0  0
  188.9180  178.3940  136.7040 C   0  0  0  0  0  2  0  0  0  0  0  0
  180.5650  177.5480  135.3500 C   0  0  0  0  0  2  0  0  0  0  0  0
  179.8940  178.7330  135.0480 O   0  0  0  0  0  1  0  0  0  0  0  0
  1 14  1  1  0  0  0
  2  8  1  0  0  0  0
  3  1  1  6  0  0  0
  3  6  1  0  0  0  0
  4  5  1  0  0  0  0
  5  7  2  0  0  0  0
  6 11  1  1  0  0  0
  7  6  1  0  0  0  0
  8  5  1  0  0  0  0
  8 10  1  0  0  0  0
  9  2  1  0  0  0  0
  9  4  1  0  0  0  0
 10  3  1  0  0  0  0
 11 12  1  0  0  0  0
 12 13  1  0  0  0  0
 14 15  1  0  0  0  0
 14 17  1  0  0  0  0
 16 14  1  0  0  0  0
 18 19  1  0  0  0  0
 18 20  1  0  0  0  0
 19 20  1  0  0  0  0
 20 23  1  0  0  0  0
 20  1  1  1  0  0  0
 21 24  1  0  0  0  0
 23 25  2  0  0  0  0
 24 28  1  0  0  0  0
 24 22  2  0  0  0  0
 25 22  1  0  0  0  0
 26 21  2  0  0  0  0
 26 23  1  0  0  0  0
 27 26  1  0  0  0  0
 28 29  1  0  0  0  0
 30 28  1  0  0  0  0
 30 29  1  0  0  0  0
 31 18  1  0  0  0  0
 32 31  1  0  0  0  0
M  END
>  <MODEL>
5

>  <REMARK>
 VINA RESULT:      -4.1      2.438      5.912
  Name = 
  8 active torsions:
  status: ('A' for Active; 'I' for Inactive)
    1  A    between atoms: N_1  and  C_4
    2  A    between atoms: C_2  and  C_5
    3  A    between atoms: C_5  and  C_10
    4  A    between atoms: C_5  and  C_27
    5  A    between atoms: C_6  and  C_13
    6  A    between atoms: C_6  and  C_25
    7  A    between atoms: C_7  and  C_19
    8  A    between atoms: C_16  and  C_27
                            x       y       z     vdW  Elec       q    Type
                         _______ _______ _______ _____ _____    ______ ____

>  <TORSDO>
F 8

$$$$
=
 OpenBabel10262421053D

 32 36  0  0  1  0  0  0  0  0999 V2000
  189.7670  177.4680  143.8690 C   0  0  2  0  0  3  0  0  0  0  0  0
  189.0560  178.2520  148.2680 C   0  0  0  0  0  2  0  0  0  0  0  0
  188.5710  178.2500  144.4490 C   0  0  1  0  0  3  0  0  0  0  0  0
  187.3380  176.8660  148.2110 O   0  0  0  0  0  0  0  0  0  0  0  0
  187.5960  177.2220  146.9230 C   0  0  0  0  0  0  0  0  0  0  0  0
  187.2190  177.4860  144.4950 C   0  0  1  0  0  3  0  0  0  0  0  0
  186.8560  176.9360  145.8570 C   0  0  0  0  0  3  0  0  0  0  0  0
  188.7320  178.0160  146.8690 N   0  0  0  0  0  0  0  0  0  0  0  0
  188.2220  177.4120  149.0740 O   0  0  0  0  0  0  0  0  0  0  0  0
  188.9510  178.9380  145.7680 C   0  0  0  0  0  2  0  0  0  0  0  0
  186.0880  178.3710  143.9940 C   0  0  0  0  0  2  0  0  0  0  0  0
  185.1900  178.8200  145.1360 C   0  0  0  0  0  2  0  0  0  0  0  0
  183.7640  179.0020  144.6510 C   0  0  0  0  0  1  0  0  0  0  0  0
  191.0990  178.2560  143.9160 C   0  0  0  0  0  0  0  0  0  0  0  0
  190.8470  179.7530  143.9450 C   0  0  0  0  0  1  0  0  0  0  0  0
  191.9790  177.9240  142.7240 C   0  0  0  0  0  1  0  0  0  0  0  0
  191.8790  177.8810  145.1630 C   0  0  0  0  0  1  0  0  0  0  0  0
  190.0920  175.2450  142.5910 N   0  0  0  0  0  0  0  0  0  0  0  0
  188.7470  175.4770  142.8440 O   0  0  0  0  0  0  0  0  0  0  0  0
  189.5070  176.5800  142.6110 C   0  0  1  0  0  0  0  0  0  0  0  0
  190.0290  177.4180  138.9020 C   0  0  0  0  0  3  0  0  0  0  0  0
  188.1130  178.6330  139.7330 C   0  0  0  0  0  3  0  0  0  0  0  0
  189.3480  177.1600  141.2250 C   0  0  0  0  0  0  0  0  0  0  0  0
  188.9800  178.3180  138.6810 C   0  0  0  0  0  0  0  0  0  0  0  0
  188.3030  178.0660  140.9940 C   0  0  0  0  0  3  0  0  0  0  0  0
  190.2280  176.8520  140.1640 C   0  0  0  0  0  0  0  0  0  0  0  0
  191.3110  176.0040  140.3500 O   0  0  0  0  0  1  0  0  0  0  0  0
  188.7430  178.8800  137.3120 C   0  0  0  0  0  3  0  0  0  0  0  0
  187.3100  178.6270  136.8720 C   0  0  0  0  0  2  0  0  0  0  0  0
  188.4250  177.7660  136.3280 C   0  0  0  0  0  2  0  0  0  0  0  0
  190.6700  174.8420  143.8680 C   0  0  0  0  0  2  0  0  0  0  0  0
  192.0570  174.7580  143.7430 O   0  0  0  0  0  1  0  0  0  0  0  0
  1 14  1  6  0  0  0
  2  9  1  0  0  0  0
  3  1  1  1  0  0  0
  3  6  1  0  0  0  0
  3 10  1  0  0  0  0
  4  9  1  0  0  0  0
  5  4  1  0  0  0  0
  6 11  1  1  0  0  0
  6  7  1  0  0  0  0
  7  5  2  0  0  0  0
  8  5  1  0  0  0  0
  8  2  1  0  0  0  0
 10  8  1  0  0  0  0
 11 12  1  0  0  0  0
 13 12  1  0  0  0  0
 14 15  1  0  0  0  0
 14 17  1  0  0  0  0
 16 14  1  0  0  0  0
 18 20  1  0  0  0  0
 18 19  1  0  0  0  0
 18 31  1  0  0  0  0
 20 19  1  0  0  0  0
 20  1  1  1  0  0  0
 21 26  1  0  0  0  0
 22 25  2  0  0  0  0
 23 20  1  0  0  0  0
 24 21  2  0  0  0  0
 24 22  1  0  0  0  0
 25 23  1  0  0  0  0
 26 27  1  0  0  0  0
 26 23  2  0  0  0  0
 28 24  1  0  0  0  0
 29 28  1  0  0  0  0
 30 29  1  0  0  0  0
 30 28  1  0  0  0  0
 32 31  1  0  0  0  0
M  END
>  <MODEL>
6

>  <REMARK>
 VINA RESULT:      -3.8      6.131     10.228
  Name = 
  8 active torsions:
  status: ('A' for Active; 'I' for Inactive)
    1  A    between atoms: N_1  and  C_4
    2  A    between atoms: C_2  and  C_5
    3  A    between atoms: C_5  and  C_10
    4  A    between atoms: C_5  and  C_27
    5  A    between atoms: C_6  and  C_13
    6  A    between atoms: C_6  and  C_25
    7  A    between atoms: C_7  and  C_19
    8  A    between atoms: C_16  and  C_27
                            x       y       z     vdW  Elec       q    Type
                         _______ _______ _______ _____ _____    ______ ____

>  <TORSDO>
F 8

$$$$
=
 OpenBabel10262421053D

 32 36  0  0  1  0  0  0  0  0999 V2000
  181.4120  178.1340  138.5760 C   0  0  2  0  0  3  0  0  0  0  0  0
  178.9320  179.7510  141.9970 C   0  0  0  0  0  2  0  0  0  0  0  0
  180.0240  177.6060  138.9940 C   0  0  1  0  0  3  0  0  0  0  0  0
  179.3010  177.8830  143.1150 O   0  0  0  0  0  0  0  0  0  0  0  0
  179.5700  177.6160  141.8070 C   0  0  0  0  0  0  0  0  0  0  0  0
  180.0150  176.2700  139.7840 C   0  0  1  0  0  3  0  0  0  0  0  0
  179.8320  176.4260  141.2780 C   0  0  0  0  0  3  0  0  0  0  0  0
  179.4580  178.7760  141.0550 N   0  0  0  0  0  0  0  0  0  0  0  0
  178.9620  179.1760  143.3080 O   0  0  0  0  0  0  0  0  0  0  0  0
  179.1800  178.7210  139.6300 C   0  0  0  0  0  2  0  0  0  0  0  0
  178.9430  175.3350  139.2430 C   0  0  0  0  0  2  0  0  0  0  0  0
  179.2750  173.8820  139.5410 C   0  0  0  0  0  2  0  0  0  0  0  0
  179.9080  173.2210  138.3310 C   0  0  0  0  0  1  0  0  0  0  0  0
  182.3700  177.0230  138.0830 C   0  0  0  0  0  0  0  0  0  0  0  0
  181.6880  176.1220  137.0700 C   0  0  0  0  0  1  0  0  0  0  0  0
  182.8760  176.1770  139.2390 C   0  0  0  0  0  1  0  0  0  0  0  0
  183.5870  177.6460  137.4220 C   0  0  0  0  0  1  0  0  0  0  0  0
  182.1970  180.5870  138.7950 N   0  0  0  0  0  0  0  0  0  0  0  0
  181.1820  180.3110  139.7000 O   0  0  0  0  0  0  0  0  0  0  0  0
  182.0330  179.2860  139.4300 C   0  0  1  0  0  0  0  0  0  0  0  0
  185.3490  179.0100  141.3400 C   0  0  0  0  0  3  0  0  0  0  0  0
  183.5430  178.2790  142.7690 C   0  0  0  0  0  3  0  0  0  0  0  0
  183.0630  179.0350  140.5070 C   0  0  0  0  0  0  0  0  0  0  0  0
  184.9080  178.5100  142.5720 C   0  0  0  0  0  0  0  0  0  0  0  0
  182.6330  178.5300  141.7410 C   0  0  0  0  0  3  0  0  0  0  0  0
  184.4430  179.2580  140.3060 C   0  0  0  0  0  0  0  0  0  0  0  0
  184.9310  179.7060  139.0870 O   0  0  0  0  0  1  0  0  0  0  0  0
  185.8810  178.2970  143.6920 C   0  0  0  0  0  3  0  0  0  0  0  0
  187.3000  178.2030  143.1550 C   0  0  0  0  0  2  0  0  0  0  0  0
  186.5630  176.9450  143.5530 C   0  0  0  0  0  2  0  0  0  0  0  0
  181.5480  180.6870  137.4920 C   0  0  0  0  0  2  0  0  0  0  0  0
  181.1730  182.0100  137.2610 O   0  0  0  0  0  1  0  0  0  0  0  0
  1 14  1  1  0  0  0
  2  9  1  0  0  0  0
  3  1  1  1  0  0  0
  3 10  1  0  0  0  0
  3  6  1  0  0  0  0
  4  9  1  0  0  0  0
  5  4  1  0  0  0  0
  6 11  1  6  0  0  0
  6  7  1  0  0  0  0
  7  5  2  0  0  0  0
  8  5  1  0  0  0  0
  8  2  1  0  0  0  0
 10  8  1  0  0  0  0
 11 12  1  0  0  0  0
 13 12  1  0  0  0  0
 14 16  1  0  0  0  0
 15 14  1  0  0  0  0
 17 14  1  0  0  0  0
 18 20  1  0  0  0  0
 18 19  1  0  0  0  0
 20  1  1  6  0  0  0
 20 19  1  0  0  0  0
 20 23  1  0  0  0  0
 21 24  1  0  0  0  0
 23 25  2  0  0  0  0
 24 22  2  0  0  0  0
 24 28  1  0  0  0  0
 25 22  1  0  0  0  0
 26 23  1  0  0  0  0
 26 21  2  0  0  0  0
 27 26  1  0  0  0  0
 29 30  1  0  0  0  0
 29 28  1  0  0  0  0
 30 28  1  0  0  0  0
 31 18  1  0  0  0  0
 32 31  1  0  0  0  0
M  END
>  <MODEL>
7

>  <REMARK>
 VINA RESULT:      -3.8      2.852      5.066
  Name = 
  8 active torsions:
  status: ('A' for Active; 'I' for Inactive)
    1  A    between atoms: N_1  and  C_4
    2  A    between atoms: C_2  and  C_5
    3  A    between atoms: C_5  and  C_10
    4  A    between atoms: C_5  and  C_27
    5  A    between atoms: C_6  and  C_13
    6  A    between atoms: C_6  and  C_25
    7  A    between atoms: C_7  and  C_19
    8  A    between atoms: C_16  and  C_27
                            x       y       z     vdW  Elec       q    Type
                         _______ _______ _______ _____ _____    ______ ____

>  <TORSDO>
F 8

$$$$
=
 OpenBabel10262421053D

 32 36  0  0  1  0  0  0  0  0999 V2000
  181.2910  178.0160  137.8450 C   0  0  2  0  0  3  0  0  0  0  0  0
  179.6350  180.8870  140.9250 C   0  0  0  0  0  2  0  0  0  0  0  0
  180.1090  177.7190  138.7910 C   0  0  1  0  0  3  0  0  0  0  0  0
  180.4440  179.5980  142.5250 O   0  0  0  0  0  0  0  0  0  0  0  0
  180.3920  178.8360  141.3970 C   0  0  0  0  0  0  0  0  0  0  0  0
  180.4230  176.7980  140.0010 C   0  0  1  0  0  3  0  0  0  0  0  0
  180.6150  177.5290  141.3120 C   0  0  0  0  0  3  0  0  0  0  0  0
  179.9870  179.6110  140.3210 N   0  0  0  0  0  0  0  0  0  0  0  0
  180.0510  180.8700  142.2950 O   0  0  0  0  0  0  0  0  0  0  0  0
  179.3600  179.0090  139.1570 C   0  0  0  0  0  2  0  0  0  0  0  0
  179.3370  175.7460  140.1690 C   0  0  0  0  0  2  0  0  0  0  0  0
  178.9900  175.0930  138.8400 C   0  0  0  0  0  2  0  0  0  0  0  0
  179.2630  173.6020  138.8930 C   0  0  0  0  0  1  0  0  0  0  0  0
  180.8720  178.1650  136.3630 C   0  0  0  0  0  0  0  0  0  0  0  0
  182.0700  178.4780  135.4850 C   0  0  0  0  0  1  0  0  0  0  0  0
  179.8310  179.2580  136.1910 C   0  0  0  0  0  1  0  0  0  0  0  0
  180.2460  176.8730  135.8700 C   0  0  0  0  0  1  0  0  0  0  0  0
  183.7740  178.1160  138.5580 N   0  0  0  0  0  0  0  0  0  0  0  0
  183.0390  177.3300  139.4360 O   0  0  0  0  0  0  0  0  0  0  0  0
  182.6460  177.2950  138.1350 C   0  0  1  0  0  0  0  0  0  0  0  0
  184.5260  174.8740  135.8250 C   0  0  0  0  0  3  0  0  0  0  0  0
  182.7200  173.6960  136.9160 C   0  0  0  0  0  3  0  0  0  0  0  0
  183.0820  176.0550  137.3900 C   0  0  0  0  0  0  0  0  0  0  0  0
  183.8000  173.6930  136.0270 C   0  0  0  0  0  0  0  0  0  0  0  0
  182.3600  174.8690  137.5810 C   0  0  0  0  0  3  0  0  0  0  0  0
  184.1670  176.0530  136.4850 C   0  0  0  0  0  0  0  0  0  0  0  0
  184.8830  177.2100  136.2150 O   0  0  0  0  0  1  0  0  0  0  0  0
  184.2240  172.4220  135.3560 C   0  0  0  0  0  3  0  0  0  0  0  0
  184.0820  171.2450  136.3060 C   0  0  0  0  0  2  0  0  0  0  0  0
  185.4460  171.8390  136.0470 C   0  0  0  0  0  2  0  0  0  0  0  0
  183.4100  179.4950  138.8620 C   0  0  0  0  0  2  0  0  0  0  0  0
  184.5680  180.2450  139.0670 O   0  0  0  0  0  1  0  0  0  0  0  0
  1 14  1  6  0  0  0
  2  9  1  0  0  0  0
  3  1  1  1  0  0  0
  3 10  1  0  0  0  0
  3  6  1  0  0  0  0
  5  4  1  0  0  0  0
  6 11  1  1  0  0  0
  6  7  1  0  0  0  0
  7  5  2  0  0  0  0
  8  2  1  0  0  0  0
  8  5  1  0  0  0  0
  9  4  1  0  0  0  0
 10  8  1  0  0  0  0
 12 13  1  0  0  0  0
 12 11  1  0  0  0  0
 15 14  1  0  0  0  0
 16 14  1  0  0  0  0
 17 14  1  0  0  0  0
 18 31  1  0  0  0  0
 18 19  1  0  0  0  0
 20  1  1  6  0  0  0
 20 18  1  0  0  0  0
 20 19  1  0  0  0  0
 21 24  2  0  0  0  0
 21 26  1  0  0  0  0
 22 25  2  0  0  0  0
 23 25  1  0  0  0  0
 23 20  1  0  0  0  0
 24 22  1  0  0  0  0
 26 23  2  0  0  0  0
 27 26  1  0  0  0  0
 28 24  1  0  0  0  0
 28 30  1  0  0  0  0
 28 29  1  0  0  0  0
 30 29  1  0  0  0  0
 31 32  1  0  0  0  0
M  END
>  <MODEL>
8

>  <REMARK>
 VINA RESULT:      -3.8      3.035      6.721
  Name = 
  8 active torsions:
  status: ('A' for Active; 'I' for Inactive)
    1  A    between atoms: N_1  and  C_4
    2  A    between atoms: C_2  and  C_5
    3  A    between atoms: C_5  and  C_10
    4  A    between atoms: C_5  and  C_27
    5  A    between atoms: C_6  and  C_13
    6  A    between atoms: C_6  and  C_25
    7  A    between atoms: C_7  and  C_19
    8  A    between atoms: C_16  and  C_27
                            x       y       z     vdW  Elec       q    Type
                         _______ _______ _______ _____ _____    ______ ____

>  <TORSDO>
F 8

$$$$
=
 OpenBabel10262421053D

 32 36  0  0  1  0  0  0  0  0999 V2000
  181.7190  178.3790  139.0550 C   0  0  2  0  0  3  0  0  0  0  0  0
  178.9310  175.7180  141.4240 C   0  0  0  0  0  2  0  0  0  0  0  0
  180.6270  177.4740  138.4490 C   0  0  1  0  0  3  0  0  0  0  0  0
  179.9810  173.9470  140.6240 O   0  0  0  0  0  0  0  0  0  0  0  0
  180.2870  174.9890  139.8020 C   0  0  0  0  0  0  0  0  0  0  0  0
  181.1240  176.1570  137.7920 C   0  0  1  0  0  3  0  0  0  0  0  0
  180.9430  174.9230  138.6480 C   0  0  0  0  0  3  0  0  0  0  0  0
  179.7430  176.1620  140.3020 N   0  0  0  0  0  0  0  0  0  0  0  0
  179.2060  174.3320  141.6610 O   0  0  0  0  0  0  0  0  0  0  0  0
  179.4590  177.2880  139.4290 C   0  0  0  0  0  2  0  0  0  0  0  0
  180.4430  175.9390  136.4490 C   0  0  0  0  0  2  0  0  0  0  0  0
  180.5340  174.4860  136.0130 C   0  0  0  0  0  2  0  0  0  0  0  0
  179.9520  174.3100  134.6230 C   0  0  0  0  0  1  0  0  0  0  0  0
  181.7130  179.8180  138.4860 C   0  0  0  0  0  0  0  0  0  0  0  0
  181.5210  179.8090  136.9790 C   0  0  0  0  0  1  0  0  0  0  0  0
  183.0020  180.5480  138.8180 C   0  0  0  0  0  1  0  0  0  0  0  0
  180.5780  180.6140  139.1040 C   0  0  0  0  0  1  0  0  0  0  0  0
  183.6060  177.7840  140.7180 N   0  0  0  0  0  0  0  0  0  0  0  0
  183.0680  176.6370  140.1520 O   0  0  0  0  0  0  0  0  0  0  0  0
  183.1110  177.7320  139.3480 C   0  0  1  0  0  0  0  0  0  0  0  0
  186.4890  178.2340  137.5980 C   0  0  0  0  0  3  0  0  0  0  0  0
  184.9810  177.0810  136.1050 C   0  0  0  0  0  3  0  0  0  0  0  0
  184.2270  177.7110  138.3310 C   0  0  0  0  0  0  0  0  0  0  0  0
  186.2370  177.6420  136.3540 C   0  0  0  0  0  0  0  0  0  0  0  0
  183.9840  177.1250  137.0810 C   0  0  0  0  0  3  0  0  0  0  0  0
  185.4940  178.2860  138.5780 C   0  0  0  0  0  0  0  0  0  0  0  0
  185.7730  178.9270  139.7770 O   0  0  0  0  0  1  0  0  0  0  0  0
  187.3270  177.5450  135.3300 C   0  0  0  0  0  3  0  0  0  0  0  0
  187.2490  176.2170  134.5950 C   0  0  0  0  0  2  0  0  0  0  0  0
  188.2830  176.4160  135.6780 C   0  0  0  0  0  2  0  0  0  0  0  0
  182.6160  178.2530  141.6800 C   0  0  0  0  0  2  0  0  0  0  0  0
  183.2490  179.0080  142.6670 O   0  0  0  0  0  1  0  0  0  0  0  0
  1 14  1  6  0  0  0
  2  9  1  0  0  0  0
  3  1  1  1  0  0  0
  3 10  1  0  0  0  0
  4  9  1  0  0  0  0
  5  8  1  0  0  0  0
  5  4  1  0  0  0  0
  6 11  1  6  0  0  0
  6  3  1  0  0  0  0
  6  7  1  0  0  0  0
  7  5  2  0  0  0  0
  8  2  1  0  0  0  0
 10  8  1  0  0  0  0
 12 11  1  0  0  0  0
 13 12  1  0  0  0  0
 14 16  1  0  0  0  0
 14 17  1  0  0  0  0
 15 14  1  0  0  0  0
 18 31  1  0  0  0  0
 19 18  1  0  0  0  0
 20  1  1  6  0  0  0
 20 19  1  0  0  0  0
 20 18  1  0  0  0  0
 21 26  1  0  0  0  0
 22 24  1  0  0  0  0
 22 25  2  0  0  0  0
 23 26  2  0  0  0  0
 23 20  1  0  0  0  0
 24 21  2  0  0  0  0
 25 23  1  0  0  0  0
 26 27  1  0  0  0  0
 28 30  1  0  0  0  0
 28 24  1  0  0  0  0
 29 28  1  0  0  0  0
 29 30  1  0  0  0  0
 31 32  1  0  0  0  0
M  END
>  <MODEL>
9

>  <REMARK>
 VINA RESULT:      -3.8      2.226      5.441
  Name = 
  8 active torsions:
  status: ('A' for Active; 'I' for Inactive)
    1  A    between atoms: N_1  and  C_4
    2  A    between atoms: C_2  and  C_5
    3  A    between atoms: C_5  and  C_10
    4  A    between atoms: C_5  and  C_27
    5  A    between atoms: C_6  and  C_13
    6  A    between atoms: C_6  and  C_25
    7  A    between atoms: C_7  and  C_19
    8  A    between atoms: C_16  and  C_27
                            x       y       z     vdW  Elec       q    Type
                         _______ _______ _______ _____ _____    ______ ____

>  <TORSDO>
F 8

$$$$
