=
 OpenBabel10262419493D

 25 28  0  0  0  0  0  0  0  0999 V2000
  187.1560  177.9690  145.8040 C   0  0  0  0  0  0  0  0  0  0  0  0
  188.4770  177.5200  145.6730 C   0  0  0  0  0  0  0  0  0  0  0  0
  187.4860  178.2570  148.2060 C   0  0  0  0  0  3  0  0  0  0  0  0
  186.1510  178.1690  144.9660 C   0  0  0  0  0  0  0  0  0  0  0  0
  183.7490  178.7730  143.7100 C   0  0  0  0  0  3  0  0  0  0  0  0
  188.8190  177.8040  148.0730 C   0  0  0  0  0  3  0  0  0  0  0  0
  185.0750  178.6420  145.7080 C   0  0  0  0  0  0  0  0  0  0  0  0
  183.8600  178.9510  145.1010 C   0  0  0  0  0  3  0  0  0  0  0  0
  190.5240  176.7430  145.1730 N   0  0  0  0  0  0  0  0  0  0  0  0
  190.5530  176.9550  146.4290 N   0  0  0  0  0  0  0  0  0  0  0  0
  184.8430  178.2970  142.9590 C   0  0  0  0  0  3  0  0  0  0  0  0
  186.6840  178.3270  147.0540 C   0  0  0  0  0  0  0  0  0  0  0  0
  185.3280  178.7600  146.9750 N   0  0  0  0  0  0  0  0  0  0  0  0
  189.2300  177.0950  144.6660 C   0  0  0  0  0  0  0  0  0  0  0  0
  186.0620  177.9910  143.5860 C   0  0  0  0  0  3  0  0  0  0  0  0
  189.2730  177.4490  146.7930 C   0  0  0  0  0  0  0  0  0  0  0  0
  188.8270  176.9020  143.2420 C   0  0  0  0  0  2  0  0  0  0  0  0
  189.9710  176.3060  142.4310 C   0  0  0  0  0  2  0  0  0  0  0  0
  190.3610  177.2100  141.2680 C   0  0  0  0  0  2  0  0  0  0  0  0
  189.5550  176.8900  140.0160 C   0  0  0  0  0  2  0  0  0  0  0  0
  189.2910  178.5010  138.0640 N   0  0  0  0  0  0  0  0  0  0  0  0
  188.7800  179.6620  137.5330 O   0  0  0  0  0  0  0  0  0  0  0  0
  190.0120  177.7690  137.3560 O   0  0  0  0  0  0  0  0  0  0  0  0
  188.9860  178.1350  139.4130 C   0  0  0  0  0  0  0  0  0  0  0  0
  188.2450  178.8750  140.1130 O   0  0  0  0  0  0  0  0  0  0  0  0
  1 12  1  0  0  0  0
  2  1  1  0  0  0  0
  2 16  1  0  0  0  0
  4  7  1  0  0  0  0
  4  1  2  0  0  0  0
  5  8  2  0  0  0  0
  6  3  1  0  0  0  0
  7 13  2  0  0  0  0
  8  7  1  0  0  0  0
  9 10  2  0  0  0  0
 10 16  1  0  0  0  0
 11 15  2  0  0  0  0
 11  5  1  0  0  0  0
 12  3  2  0  0  0  0
 13 12  1  0  0  0  0
 14  9  1  0  0  0  0
 14  2  2  0  0  0  0
 15  4  1  0  0  0  0
 16  6  2  0  0  0  0
 17 14  1  0  0  0  0
 18 17  1  0  0  0  0
 19 18  1  0  0  0  0
 20 19  1  0  0  0  0
 21 24  1  0  0  0  0
 22 21  2  0  0  0  0
 23 21  2  0  0  0  0
 24 20  1  0  0  0  0
 24 25  2  0  0  0  0
M  END
>  <MODEL>
1

>  <REMARK>
 VINA RESULT:     -10.2      0.000      0.000
  Name = 
  5 active torsions:
  status: ('A' for Active; 'I' for Inactive)
    1  A    between atoms: C_6  and  C_15
    2  A    between atoms: C_6  and  C_23
    3  A    between atoms: C_15  and  C_21
    4  A    between atoms: C_16  and  C_20
    5  A    between atoms: C_16  and  C_23
                            x       y       z     vdW  Elec       q    Type
                         _______ _______ _______ _____ _____    ______ ____

>  <TORSDO>
F 5

$$$$
=
 OpenBabel10262419493D

 25 28  0  0  0  0  0  0  0  0999 V2000
  186.9880  177.9740  145.6510 C   0  0  0  0  0  0  0  0  0  0  0  0
  188.2870  177.5180  145.3960 C   0  0  0  0  0  0  0  0  0  0  0  0
  187.5210  178.1780  148.0260 C   0  0  0  0  0  3  0  0  0  0  0  0
  185.9180  178.2110  144.9080 C   0  0  0  0  0  0  0  0  0  0  0  0
  183.4270  178.8770  143.8800 C   0  0  0  0  0  3  0  0  0  0  0  0
  188.8330  177.7180  147.7660 C   0  0  0  0  0  3  0  0  0  0  0  0
  184.9140  178.6680  145.7540 C   0  0  0  0  0  0  0  0  0  0  0  0
  183.6550  179.0070  145.2610 C   0  0  0  0  0  3  0  0  0  0  0  0
  190.2760  176.7400  144.6990 N   0  0  0  0  0  0  0  0  0  0  0  0
  190.4130  176.9090  145.9550 N   0  0  0  0  0  0  0  0  0  0  0  0
  184.4480  178.4170  143.0240 C   0  0  0  0  0  3  0  0  0  0  0  0
  186.6260  178.2940  146.9480 C   0  0  0  0  0  0  0  0  0  0  0  0
  185.2740  178.7420  146.9980 N   0  0  0  0  0  0  0  0  0  0  0  0
  188.9480  177.1200  144.3140 C   0  0  0  0  0  0  0  0  0  0  0  0
  185.7110  178.0800  143.5350 C   0  0  0  0  0  3  0  0  0  0  0  0
  189.1740  177.4020  146.4410 C   0  0  0  0  0  0  0  0  0  0  0  0
  188.4250  176.9780  142.9250 C   0  0  0  0  0  2  0  0  0  0  0  0
  189.1010  177.9710  141.9870 C   0  0  0  0  0  2  0  0  0  0  0  0
  188.2160  178.3010  140.7920 C   0  0  0  0  0  2  0  0  0  0  0  0
  189.0270  178.4090  139.5070 C   0  0  0  0  0  2  0  0  0  0  0  0
  190.5250  176.4110  139.0210 N   0  0  0  0  0  0  0  0  0  0  0  0
  190.7270  175.1820  138.4380 O   0  0  0  0  0  0  0  0  0  0  0  0
  191.4540  176.9470  139.6590 O   0  0  0  0  0  0  0  0  0  0  0  0
  189.2550  177.0600  138.9030 C   0  0  0  0  0  0  0  0  0  0  0  0
  188.3200  176.5030  138.2700 O   0  0  0  0  0  0  0  0  0  0  0  0
  1 12  1  0  0  0  0
  2  1  1  0  0  0  0
  2 16  1  0  0  0  0
  4  1  2  0  0  0  0
  4  7  1  0  0  0  0
  5  8  2  0  0  0  0
  6  3  1  0  0  0  0
  7 13  2  0  0  0  0
  8  7  1  0  0  0  0
  9 10  2  0  0  0  0
 10 16  1  0  0  0  0
 11 15  2  0  0  0  0
 11  5  1  0  0  0  0
 12 13  1  0  0  0  0
 12  3  2  0  0  0  0
 14  9  1  0  0  0  0
 14  2  2  0  0  0  0
 15  4  1  0  0  0  0
 16  6  2  0  0  0  0
 17 14  1  0  0  0  0
 18 17  1  0  0  0  0
 19 18  1  0  0  0  0
 20 19  1  0  0  0  0
 21 23  2  0  0  0  0
 22 21  2  0  0  0  0
 24 21  1  0  0  0  0
 24 20  1  0  0  0  0
 25 24  2  0  0  0  0
M  END
>  <MODEL>
2

>  <REMARK>
 VINA RESULT:     -10.1      1.283      1.609
  Name = 
  5 active torsions:
  status: ('A' for Active; 'I' for Inactive)
    1  A    between atoms: C_6  and  C_15
    2  A    between atoms: C_6  and  C_23
    3  A    between atoms: C_15  and  C_21
    4  A    between atoms: C_16  and  C_20
    5  A    between atoms: C_16  and  C_23
                            x       y       z     vdW  Elec       q    Type
                         _______ _______ _______ _____ _____    ______ ____

>  <TORSDO>
F 5

$$$$
=
 OpenBabel10262419493D

 25 28  0  0  0  0  0  0  0  0999 V2000
  188.3560  177.5990  145.7180 C   0  0  0  0  0  0  0  0  0  0  0  0
  187.1080  178.0880  146.1260 C   0  0  0  0  0  0  0  0  0  0  0  0
  189.1720  177.7520  148.0150 C   0  0  0  0  0  3  0  0  0  0  0  0
  188.8730  177.2020  144.5660 C   0  0  0  0  0  0  0  0  0  0  0  0
  190.4520  176.2610  142.4850 C   0  0  0  0  0  3  0  0  0  0  0  0
  187.9120  178.2460  148.4250 C   0  0  0  0  0  3  0  0  0  0  0  0
  190.1840  176.8090  144.8070 C   0  0  0  0  0  0  0  0  0  0  0  0
  190.9960  176.3350  143.7790 C   0  0  0  0  0  3  0  0  0  0  0  0
  185.0350  178.8740  146.4830 N   0  0  0  0  0  0  0  0  0  0  0  0
  185.5910  178.8870  147.6300 N   0  0  0  0  0  0  0  0  0  0  0  0
  189.1210  176.6560  142.2430 C   0  0  0  0  0  3  0  0  0  0  0  0
  189.3590  177.4390  146.6570 C   0  0  0  0  0  0  0  0  0  0  0  0
  190.5430  176.9270  146.0490 N   0  0  0  0  0  0  0  0  0  0  0  0
  185.9640  178.3710  145.5140 C   0  0  0  0  0  0  0  0  0  0  0  0
  188.3140  177.1320  143.2900 C   0  0  0  0  0  3  0  0  0  0  0  0
  186.9110  178.3960  147.4520 C   0  0  0  0  0  0  0  0  0  0  0  0
  185.6640  178.2910  144.0550 C   0  0  0  0  0  2  0  0  0  0  0  0
  184.6680  179.3690  143.6460 C   0  0  0  0  0  2  0  0  0  0  0  0
  183.3770  178.7630  143.1100 C   0  0  0  0  0  2  0  0  0  0  0  0
  183.6160  177.9880  141.8200 C   0  0  0  0  0  2  0  0  0  0  0  0
  184.5030  179.4920  139.9690 N   0  0  0  0  0  0  0  0  0  0  0  0
  184.2840  180.3110  138.8870 O   0  0  0  0  0  0  0  0  0  0  0  0
  185.6700  179.2970  140.3650 O   0  0  0  0  0  0  0  0  0  0  0  0
  183.3990  178.8610  140.6250 C   0  0  0  0  0  0  0  0  0  0  0  0
  182.2260  179.0530  140.2070 O   0  0  0  0  0  0  0  0  0  0  0  0
  1  2  1  0  0  0  0
  1 12  1  0  0  0  0
  2 16  1  0  0  0  0
  3  6  1  0  0  0  0
  4  7  1  0  0  0  0
  4  1  2  0  0  0  0
  5  8  2  0  0  0  0
  7 13  2  0  0  0  0
  8  7  1  0  0  0  0
  9 10  2  0  0  0  0
 11  5  1  0  0  0  0
 11 15  2  0  0  0  0
 12  3  2  0  0  0  0
 13 12  1  0  0  0  0
 14  2  2  0  0  0  0
 14  9  1  0  0  0  0
 15  4  1  0  0  0  0
 16 10  1  0  0  0  0
 16  6  2  0  0  0  0
 17 14  1  0  0  0  0
 18 17  1  0  0  0  0
 19 18  1  0  0  0  0
 20 19  1  0  0  0  0
 21 23  2  0  0  0  0
 21 24  1  0  0  0  0
 22 21  2  0  0  0  0
 24 20  1  0  0  0  0
 25 24  2  0  0  0  0
M  END
>  <MODEL>
3

>  <REMARK>
 VINA RESULT:      -9.8      2.102      4.931
  Name = 
  5 active torsions:
  status: ('A' for Active; 'I' for Inactive)
    1  A    between atoms: C_6  and  C_15
    2  A    between atoms: C_6  and  C_23
    3  A    between atoms: C_15  and  C_21
    4  A    between atoms: C_16  and  C_20
    5  A    between atoms: C_16  and  C_23
                            x       y       z     vdW  Elec       q    Type
                         _______ _______ _______ _____ _____    ______ ____

>  <TORSDO>
F 5

$$$$
=
 OpenBabel10262419493D

 25 28  0  0  0  0  0  0  0  0999 V2000
  185.7360  178.4510  144.7110 C   0  0  0  0  0  0  0  0  0  0  0  0
  185.5450  178.5240  143.3250 C   0  0  0  0  0  0  0  0  0  0  0  0
  183.3800  178.9840  145.0700 C   0  0  0  0  0  3  0  0  0  0  0  0
  186.7660  178.1860  145.4990 C   0  0  0  0  0  0  0  0  0  0  0  0
  188.5200  177.7080  147.5980 C   0  0  0  0  0  3  0  0  0  0  0  0
  183.1880  179.0570  143.6710 C   0  0  0  0  0  3  0  0  0  0  0  0
  186.3190  178.2590  146.8130 C   0  0  0  0  0  0  0  0  0  0  0  0
  187.1800  178.0240  147.8830 C   0  0  0  0  0  3  0  0  0  0  0  0
  185.5400  178.6030  141.0810 N   0  0  0  0  0  0  0  0  0  0  0  0
  184.3380  178.8580  141.4190 N   0  0  0  0  0  0  0  0  0  0  0  0
  188.9710  177.6310  146.2650 C   0  0  0  0  0  3  0  0  0  0  0  0
  184.6640  178.6790  145.5550 C   0  0  0  0  0  0  0  0  0  0  0  0
  185.0590  178.5530  146.9190 N   0  0  0  0  0  0  0  0  0  0  0  0
  186.3250  178.3830  142.2600 C   0  0  0  0  0  0  0  0  0  0  0  0
  188.0910  177.8690  145.1970 C   0  0  0  0  0  3  0  0  0  0  0  0
  184.2930  178.8190  142.8370 C   0  0  0  0  0  0  0  0  0  0  0  0
  187.7950  178.1330  142.2310 C   0  0  0  0  0  2  0  0  0  0  0  0
  188.2850  177.9440  140.8010 C   0  0  0  0  0  2  0  0  0  0  0  0
  189.5190  177.0510  140.7470 C   0  0  0  0  0  2  0  0  0  0  0  0
  190.6070  177.5400  141.6940 C   0  0  0  0  0  2  0  0  0  0  0  0
  191.5660  176.9300  143.9700 N   0  0  0  0  0  0  0  0  0  0  0  0
  191.7930  176.0060  144.9630 O   0  0  0  0  0  0  0  0  0  0  0  0
  191.9890  178.0960  144.1090 O   0  0  0  0  0  0  0  0  0  0  0  0
  190.8400  176.5560  142.7960 C   0  0  0  0  0  0  0  0  0  0  0  0
  190.4040  175.3810  142.6730 O   0  0  0  0  0  0  0  0  0  0  0  0
  1  4  1  0  0  0  0
  1 12  1  0  0  0  0
  2  1  2  0  0  0  0
  3 12  1  0  0  0  0
  4  7  1  0  0  0  0
  5  8  1  0  0  0  0
  6  3  2  0  0  0  0
  7 13  1  0  0  0  0
  7  8  2  0  0  0  0
  9 10  1  0  0  0  0
  9 14  2  0  0  0  0
 10 16  2  0  0  0  0
 11  5  2  0  0  0  0
 12 13  2  0  0  0  0
 14  2  1  0  0  0  0
 15  4  2  0  0  0  0
 15 11  1  0  0  0  0
 16  2  1  0  0  0  0
 16  6  1  0  0  0  0
 17 14  1  0  0  0  0
 18 17  1  0  0  0  0
 19 18  1  0  0  0  0
 19 20  1  0  0  0  0
 20 24  1  0  0  0  0
 21 23  2  0  0  0  0
 21 22  2  0  0  0  0
 24 21  1  0  0  0  0
 25 24  2  0  0  0  0
M  END
>  <MODEL>
4

>  <REMARK>
 VINA RESULT:      -9.7      2.610      4.902
  Name = 
  5 active torsions:
  status: ('A' for Active; 'I' for Inactive)
    1  A    between atoms: C_6  and  C_15
    2  A    between atoms: C_6  and  C_23
    3  A    between atoms: C_15  and  C_21
    4  A    between atoms: C_16  and  C_20
    5  A    between atoms: C_16  and  C_23
                            x       y       z     vdW  Elec       q    Type
                         _______ _______ _______ _____ _____    ______ ____

>  <TORSDO>
F 5

$$$$
=
 OpenBabel10262419493D

 25 28  0  0  0  0  0  0  0  0999 V2000
  188.5290  177.5030  146.0700 C   0  0  0  0  0  0  0  0  0  0  0  0
  187.1980  177.9260  145.9570 C   0  0  0  0  0  0  0  0  0  0  0  0
  188.5070  178.0530  148.4490 C   0  0  0  0  0  3  0  0  0  0  0  0
  189.4220  176.9990  145.2340 C   0  0  0  0  0  0  0  0  0  0  0  0
  191.6520  175.9270  143.9740 C   0  0  0  0  0  3  0  0  0  0  0  0
  187.1640  178.4800  148.3340 C   0  0  0  0  0  3  0  0  0  0  0  0
  190.5880  176.7680  145.9550 C   0  0  0  0  0  0  0  0  0  0  0  0
  191.7200  176.2320  145.3450 C   0  0  0  0  0  3  0  0  0  0  0  0
  185.0970  178.5570  145.4760 N   0  0  0  0  0  0  0  0  0  0  0  0
  185.2280  178.7830  146.7230 N   0  0  0  0  0  0  0  0  0  0  0  0
  190.4690  176.1580  143.2450 C   0  0  0  0  0  3  0  0  0  0  0  0
  189.1580  177.5720  147.3000 C   0  0  0  0  0  0  0  0  0  0  0  0
  190.4980  177.0920  147.2080 N   0  0  0  0  0  0  0  0  0  0  0  0
  186.3200  178.0120  144.9640 C   0  0  0  0  0  0  0  0  0  0  0  0
  189.3350  176.6980  143.8750 C   0  0  0  0  0  3  0  0  0  0  0  0
  186.5480  178.3970  147.0740 C   0  0  0  0  0  0  0  0  0  0  0  0
  186.5380  177.7010  143.5220 C   0  0  0  0  0  2  0  0  0  0  0  0
  185.5500  178.4620  142.6470 C   0  0  0  0  0  2  0  0  0  0  0  0
  186.2170  178.9940  141.3850 C   0  0  0  0  0  2  0  0  0  0  0  0
  187.6110  178.4090  141.1980 C   0  0  0  0  0  2  0  0  0  0  0  0
  189.2700  177.9470  139.3250 N   0  0  0  0  0  0  0  0  0  0  0  0
  189.5610  177.8400  137.9850 O   0  0  0  0  0  0  0  0  0  0  0  0
  190.1730  177.7570  140.1650 O   0  0  0  0  0  0  0  0  0  0  0  0
  187.9390  178.2620  139.7460 C   0  0  0  0  0  0  0  0  0  0  0  0
  187.0320  178.4350  138.8890 O   0  0  0  0  0  0  0  0  0  0  0  0
  1 12  1  0  0  0  0
  2  1  1  0  0  0  0
  2 16  1  0  0  0  0
  4  7  1  0  0  0  0
  4  1  2  0  0  0  0
  5  8  2  0  0  0  0
  6  3  1  0  0  0  0
  7 13  2  0  0  0  0
  8  7  1  0  0  0  0
  9 10  2  0  0  0  0
 10 16  1  0  0  0  0
 11 15  2  0  0  0  0
 11  5  1  0  0  0  0
 12  3  2  0  0  0  0
 13 12  1  0  0  0  0
 14  9  1  0  0  0  0
 14  2  2  0  0  0  0
 15  4  1  0  0  0  0
 16  6  2  0  0  0  0
 17 14  1  0  0  0  0
 18 17  1  0  0  0  0
 19 18  1  0  0  0  0
 20 19  1  0  0  0  0
 21 24  1  0  0  0  0
 21 23  2  0  0  0  0
 22 21  2  0  0  0  0
 24 20  1  0  0  0  0
 25 24  2  0  0  0  0
M  END
>  <MODEL>
5

>  <REMARK>
 VINA RESULT:      -9.7      1.334      4.187
  Name = 
  5 active torsions:
  status: ('A' for Active; 'I' for Inactive)
    1  A    between atoms: C_6  and  C_15
    2  A    between atoms: C_6  and  C_23
    3  A    between atoms: C_15  and  C_21
    4  A    between atoms: C_16  and  C_20
    5  A    between atoms: C_16  and  C_23
                            x       y       z     vdW  Elec       q    Type
                         _______ _______ _______ _____ _____    ______ ____

>  <TORSDO>
F 5

$$$$
=
 OpenBabel10262419493D

 25 28  0  0  0  0  0  0  0  0999 V2000
  189.1010  177.2190  145.8510 C   0  0  0  0  0  0  0  0  0  0  0  0
  189.8610  176.8110  144.7470 C   0  0  0  0  0  0  0  0  0  0  0  0
  190.9880  176.7500  147.3290 C   0  0  0  0  0  3  0  0  0  0  0  0
  187.8730  177.6820  146.0200 C   0  0  0  0  0  0  0  0  0  0  0  0
  185.4580  178.6790  146.9600 C   0  0  0  0  0  3  0  0  0  0  0  0
  191.7540  176.3390  146.2130 C   0  0  0  0  0  3  0  0  0  0  0  0
  187.6980  177.9210  147.3780 C   0  0  0  0  0  0  0  0  0  0  0  0
  186.4950  178.4200  147.8740 C   0  0  0  0  0  3  0  0  0  0  0  0
  190.8220  176.1930  142.8140 N   0  0  0  0  0  0  0  0  0  0  0  0
  191.7200  176.0090  143.6990 N   0  0  0  0  0  0  0  0  0  0  0  0
  185.6390  178.4400  145.5830 C   0  0  0  0  0  3  0  0  0  0  0  0
  189.6680  177.1830  147.1120 C   0  0  0  0  0  0  0  0  0  0  0  0
  188.7420  177.6410  148.0950 N   0  0  0  0  0  0  0  0  0  0  0  0
  189.6390  176.7040  143.4410 C   0  0  0  0  0  0  0  0  0  0  0  0
  186.8570  177.9370  145.0980 C   0  0  0  0  0  3  0  0  0  0  0  0
  191.1550  176.3870  144.9440 C   0  0  0  0  0  0  0  0  0  0  0  0
  188.3680  176.9630  142.7060 C   0  0  0  0  0  2  0  0  0  0  0  0
  188.4570  178.2580  141.9080 C   0  0  0  0  0  2  0  0  0  0  0  0
  187.2260  178.4610  141.0340 C   0  0  0  0  0  2  0  0  0  0  0  0
  186.0390  178.9640  141.8450 C   0  0  0  0  0  2  0  0  0  0  0  0
  183.5260  178.7350  141.5240 N   0  0  0  0  0  0  0  0  0  0  0  0
  182.4120  178.8090  140.7210 O   0  0  0  0  0  0  0  0  0  0  0  0
  183.4000  178.3880  142.7160 O   0  0  0  0  0  0  0  0  0  0  0  0
  184.8130  179.0660  140.9940 C   0  0  0  0  0  0  0  0  0  0  0  0
  184.9250  179.4300  139.7940 O   0  0  0  0  0  0  0  0  0  0  0  0
  1  4  1  0  0  0  0
  1 12  1  0  0  0  0
  2 16  1  0  0  0  0
  2  1  2  0  0  0  0
  4  7  1  0  0  0  0
  5  8  1  0  0  0  0
  6  3  2  0  0  0  0
  7  8  2  0  0  0  0
  7 13  1  0  0  0  0
  9 14  2  0  0  0  0
  9 10  1  0  0  0  0
 10 16  2  0  0  0  0
 11  5  2  0  0  0  0
 12  3  1  0  0  0  0
 12 13  2  0  0  0  0
 14  2  1  0  0  0  0
 15 11  1  0  0  0  0
 15  4  2  0  0  0  0
 16  6  1  0  0  0  0
 17 14  1  0  0  0  0
 18 17  1  0  0  0  0
 19 20  1  0  0  0  0
 19 18  1  0  0  0  0
 21 23  2  0  0  0  0
 22 21  2  0  0  0  0
 24 21  1  0  0  0  0
 24 20  1  0  0  0  0
 25 24  2  0  0  0  0
M  END
>  <MODEL>
6

>  <REMARK>
 VINA RESULT:      -9.5      2.577      3.902
  Name = 
  5 active torsions:
  status: ('A' for Active; 'I' for Inactive)
    1  A    between atoms: C_6  and  C_15
    2  A    between atoms: C_6  and  C_23
    3  A    between atoms: C_15  and  C_21
    4  A    between atoms: C_16  and  C_20
    5  A    between atoms: C_16  and  C_23
                            x       y       z     vdW  Elec       q    Type
                         _______ _______ _______ _____ _____    ______ ____

>  <TORSDO>
F 5

$$$$
=
 OpenBabel10262419493D

 25 28  0  0  0  0  0  0  0  0999 V2000
  189.7470  177.2320  144.6900 C   0  0  0  0  0  0  0  0  0  0  0  0
  188.9760  177.3740  145.8510 C   0  0  0  0  0  0  0  0  0  0  0  0
  191.6800  176.6070  146.0440 C   0  0  0  0  0  3  0  0  0  0  0  0
  189.5160  177.3670  143.3930 C   0  0  0  0  0  0  0  0  0  0  0  0
  189.6160  177.4840  140.6210 C   0  0  0  0  0  3  0  0  0  0  0  0
  190.9010  176.7500  147.2150 C   0  0  0  0  0  3  0  0  0  0  0  0
  190.7000  177.0770  142.7250 C   0  0  0  0  0  0  0  0  0  0  0  0
  190.7750  177.1300  141.3340 C   0  0  0  0  0  3  0  0  0  0  0  0
  187.5200  177.7060  147.5280 N   0  0  0  0  0  0  0  0  0  0  0  0
  188.6020  177.3530  148.1010 N   0  0  0  0  0  0  0  0  0  0  0  0
  188.4160  177.7740  141.3010 C   0  0  0  0  0  3  0  0  0  0  0  0
  191.0730  176.8550  144.8010 C   0  0  0  0  0  0  0  0  0  0  0  0
  191.6800  176.7600  143.5140 N   0  0  0  0  0  0  0  0  0  0  0  0
  187.7210  177.7240  146.1090 C   0  0  0  0  0  0  0  0  0  0  0  0
  188.3560  177.7160  142.7030 C   0  0  0  0  0  3  0  0  0  0  0  0
  189.5570  177.1310  147.0740 C   0  0  0  0  0  0  0  0  0  0  0  0
  186.6770  178.1650  145.1390 C   0  0  0  0  0  2  0  0  0  0  0  0
  185.3710  178.4830  145.8550 C   0  0  0  0  0  2  0  0  0  0  0  0
  184.3290  179.0430  144.8940 C   0  0  0  0  0  2  0  0  0  0  0  0
  184.9040  179.2370  143.4960 C   0  0  0  0  0  2  0  0  0  0  0  0
  184.1900  179.0690  141.0600 N   0  0  0  0  0  0  0  0  0  0  0  0
  183.2240  178.8300  140.1110 O   0  0  0  0  0  0  0  0  0  0  0  0
  185.3430  179.3780  140.6960 O   0  0  0  0  0  0  0  0  0  0  0  0
  183.8730  178.9530  142.4500 C   0  0  0  0  0  0  0  0  0  0  0  0
  182.7090  178.6260  142.8050 O   0  0  0  0  0  0  0  0  0  0  0  0
  1 12  1  0  0  0  0
  1  2  1  0  0  0  0
  2 14  2  0  0  0  0
  2 16  1  0  0  0  0
  3  6  1  0  0  0  0
  4  1  2  0  0  0  0
  5 11  1  0  0  0  0
  5  8  2  0  0  0  0
  7  4  1  0  0  0  0
  7 13  2  0  0  0  0
  8  7  1  0  0  0  0
  9 10  2  0  0  0  0
 11 15  2  0  0  0  0
 12  3  2  0  0  0  0
 13 12  1  0  0  0  0
 14  9  1  0  0  0  0
 15  4  1  0  0  0  0
 16  6  2  0  0  0  0
 16 10  1  0  0  0  0
 17 18  1  0  0  0  0
 17 14  1  0  0  0  0
 19 18  1  0  0  0  0
 20 19  1  0  0  0  0
 21 24  1  0  0  0  0
 22 21  2  0  0  0  0
 23 21  2  0  0  0  0
 24 25  2  0  0  0  0
 24 20  1  0  0  0  0
M  END
>  <MODEL>
7

>  <REMARK>
 VINA RESULT:      -9.5      2.458      5.150
  Name = 
  5 active torsions:
  status: ('A' for Active; 'I' for Inactive)
    1  A    between atoms: C_6  and  C_15
    2  A    between atoms: C_6  and  C_23
    3  A    between atoms: C_15  and  C_21
    4  A    between atoms: C_16  and  C_20
    5  A    between atoms: C_16  and  C_23
                            x       y       z     vdW  Elec       q    Type
                         _______ _______ _______ _____ _____    ______ ____

>  <TORSDO>
F 5

$$$$
=
 OpenBabel10262419493D

 25 28  0  0  0  0  0  0  0  0999 V2000
  188.4380  177.4630  145.5100 C   0  0  0  0  0  0  0  0  0  0  0  0
  189.4410  177.0940  144.6040 C   0  0  0  0  0  0  0  0  0  0  0  0
  189.9860  177.1320  147.3680 C   0  0  0  0  0  3  0  0  0  0  0  0
  187.1760  177.8470  145.4000 C   0  0  0  0  0  0  0  0  0  0  0  0
  184.5590  178.6950  145.7760 C   0  0  0  0  0  3  0  0  0  0  0  0
  190.9980  176.7600  146.4530 C   0  0  0  0  0  3  0  0  0  0  0  0
  186.6980  178.0870  146.6820 C   0  0  0  0  0  0  0  0  0  0  0  0
  185.3880  178.5120  146.8970 C   0  0  0  0  0  3  0  0  0  0  0  0
  190.8330  176.5210  142.9370 N   0  0  0  0  0  0  0  0  0  0  0  0
  191.5280  176.4030  143.9990 N   0  0  0  0  0  0  0  0  0  0  0  0
  185.0470  178.4540  144.4760 C   0  0  0  0  0  3  0  0  0  0  0  0
  188.7210  177.4760  146.8630 C   0  0  0  0  0  0  0  0  0  0  0  0
  187.5780  177.8820  147.6130 N   0  0  0  0  0  0  0  0  0  0  0  0
  189.5140  176.9600  143.2840 C   0  0  0  0  0  0  0  0  0  0  0  0
  186.3690  178.0270  144.2760 C   0  0  0  0  0  3  0  0  0  0  0  0
  190.6850  176.7570  145.0840 C   0  0  0  0  0  0  0  0  0  0  0  0
  188.4170  177.1290  142.2880 C   0  0  0  0  0  2  0  0  0  0  0  0
  188.7150  178.2890  141.3460 C   0  0  0  0  0  2  0  0  0  0  0  0
  188.1790  178.0220  139.9440 C   0  0  0  0  0  2  0  0  0  0  0  0
  189.2600  178.2080  138.8870 C   0  0  0  0  0  2  0  0  0  0  0  0
  190.3250  175.9250  138.5330 N   0  0  0  0  0  0  0  0  0  0  0  0
  190.5030  174.7940  137.7710 O   0  0  0  0  0  0  0  0  0  0  0  0
  190.9290  176.0330  139.6190 O   0  0  0  0  0  0  0  0  0  0  0  0
  189.4440  176.9600  138.0840 C   0  0  0  0  0  0  0  0  0  0  0  0
  188.8280  176.8320  136.9930 O   0  0  0  0  0  0  0  0  0  0  0  0
  1 12  1  0  0  0  0
  2 16  1  0  0  0  0
  2  1  2  0  0  0  0
  4  1  1  0  0  0  0
  4  7  1  0  0  0  0
  5  8  1  0  0  0  0
  6  3  2  0  0  0  0
  7  8  2  0  0  0  0
  7 13  1  0  0  0  0
  9 14  2  0  0  0  0
  9 10  1  0  0  0  0
 10 16  2  0  0  0  0
 11  5  2  0  0  0  0
 12  3  1  0  0  0  0
 12 13  2  0  0  0  0
 14  2  1  0  0  0  0
 15 11  1  0  0  0  0
 15  4  2  0  0  0  0
 16  6  1  0  0  0  0
 17 14  1  0  0  0  0
 18 17  1  0  0  0  0
 19 18  1  0  0  0  0
 20 19  1  0  0  0  0
 21 23  2  0  0  0  0
 22 21  2  0  0  0  0
 24 21  1  0  0  0  0
 24 20  1  0  0  0  0
 25 24  2  0  0  0  0
M  END
>  <MODEL>
8

>  <REMARK>
 VINA RESULT:      -9.4      1.678      2.449
  Name = 
  5 active torsions:
  status: ('A' for Active; 'I' for Inactive)
    1  A    between atoms: C_6  and  C_15
    2  A    between atoms: C_6  and  C_23
    3  A    between atoms: C_15  and  C_21
    4  A    between atoms: C_16  and  C_20
    5  A    between atoms: C_16  and  C_23
                            x       y       z     vdW  Elec       q    Type
                         _______ _______ _______ _____ _____    ______ ____

>  <TORSDO>
F 5

$$$$
=
 OpenBabel10262419493D

 25 28  0  0  0  0  0  0  0  0999 V2000
  187.8740  177.6350  145.6540 C   0  0  0  0  0  0  0  0  0  0  0  0
  186.9190  177.8600  144.6540 C   0  0  0  0  0  0  0  0  0  0  0  0
  186.2640  178.3300  147.3540 C   0  0  0  0  0  3  0  0  0  0  0  0
  189.1270  177.2070  145.6700 C   0  0  0  0  0  0  0  0  0  0  0  0
  191.6990  176.3770  146.3070 C   0  0  0  0  0  3  0  0  0  0  0  0
  185.3020  178.5560  146.3430 C   0  0  0  0  0  3  0  0  0  0  0  0
  189.5460  177.1880  146.9950 C   0  0  0  0  0  0  0  0  0  0  0  0
  190.8320  176.7770  147.3390 C   0  0  0  0  0  3  0  0  0  0  0  0
  185.6130  178.1600  142.8520 N   0  0  0  0  0  0  0  0  0  0  0  0
  184.8800  178.4810  143.8440 N   0  0  0  0  0  0  0  0  0  0  0  0
  191.2700  176.3930  144.9640 C   0  0  0  0  0  3  0  0  0  0  0  0
  187.5380  177.8700  146.9750 C   0  0  0  0  0  0  0  0  0  0  0  0
  188.6360  177.5770  147.8350 N   0  0  0  0  0  0  0  0  0  0  0  0
  186.9030  177.7580  143.3290 C   0  0  0  0  0  0  0  0  0  0  0  0
  189.9710  176.8100  144.6330 C   0  0  0  0  0  3  0  0  0  0  0  0
  185.6680  178.3070  145.0110 C   0  0  0  0  0  0  0  0  0  0  0  0
  188.0330  177.3880  142.4280 C   0  0  0  0  0  2  0  0  0  0  0  0
  188.3780  178.5380  141.4910 C   0  0  0  0  0  2  0  0  0  0  0  0
  187.9230  178.2530  140.0650 C   0  0  0  0  0  2  0  0  0  0  0  0
  189.0550  178.4520  139.0650 C   0  0  0  0  0  2  0  0  0  0  0  0
  190.6160  176.4430  139.0610 N   0  0  0  0  0  0  0  0  0  0  0  0
  191.0320  175.2530  138.5110 O   0  0  0  0  0  0  0  0  0  0  0  0
  191.2110  176.8970  140.0600 O   0  0  0  0  0  0  0  0  0  0  0  0
  189.5040  177.1430  138.4970 C   0  0  0  0  0  0  0  0  0  0  0  0
  188.9020  176.6670  137.4980 O   0  0  0  0  0  0  0  0  0  0  0  0
  1  4  1  0  0  0  0
  1 12  1  0  0  0  0
  2 16  1  0  0  0  0
  2  1  2  0  0  0  0
  4  7  1  0  0  0  0
  5  8  1  0  0  0  0
  6  3  2  0  0  0  0
  7  8  2  0  0  0  0
  7 13  1  0  0  0  0
  9 14  2  0  0  0  0
  9 10  1  0  0  0  0
 10 16  2  0  0  0  0
 11  5  2  0  0  0  0
 12  3  1  0  0  0  0
 12 13  2  0  0  0  0
 14  2  1  0  0  0  0
 15 11  1  0  0  0  0
 15  4  2  0  0  0  0
 16  6  1  0  0  0  0
 17 14  1  0  0  0  0
 18 17  1  0  0  0  0
 19 18  1  0  0  0  0
 20 19  1  0  0  0  0
 21 23  2  0  0  0  0
 22 21  2  0  0  0  0
 24 21  1  0  0  0  0
 24 20  1  0  0  0  0
 25 24  2  0  0  0  0
M  END
>  <MODEL>
9

>  <REMARK>
 VINA RESULT:      -9.4      1.941      4.227
  Name = 
  5 active torsions:
  status: ('A' for Active; 'I' for Inactive)
    1  A    between atoms: C_6  and  C_15
    2  A    between atoms: C_6  and  C_23
    3  A    between atoms: C_15  and  C_21
    4  A    between atoms: C_16  and  C_20
    5  A    between atoms: C_16  and  C_23
                            x       y       z     vdW  Elec       q    Type
                         _______ _______ _______ _____ _____    ______ ____

>  <TORSDO>
F 5

$$$$
