=
 OpenBabel10262423033D

 37 37  0  0  1  0  0  0  0  0999 V2000
  188.6470  178.0350  140.7900 C   0  0  2  0  0  3  0  0  0  0  0  0
  189.2850  178.0080  139.3950 C   0  0  1  0  0  3  0  0  0  0  0  0
  190.3610  176.9400  139.3390 C   0  0  0  0  0  1  0  0  0  0  0  0
  188.2570  177.7730  138.2930 C   0  0  0  0  0  2  0  0  0  0  0  0
  188.8420  179.7790  137.2000 O   0  0  0  0  0  0  0  0  0  0  0  0
  188.5710  178.5930  137.0840 C   0  0  0  0  0  0  0  0  0  0  0  0
  188.5820  177.9380  135.7380 C   0  0  2  0  0  3  0  0  0  0  0  0
  187.3380  178.0930  135.1250 O   0  0  0  0  0  1  0  0  0  0  0  0
  190.2770  176.2900  136.0060 F   0  0  0  0  0  0  0  0  0  0  0  0
  188.9130  176.4590  135.8550 C   0  0  0  0  0  2  0  0  0  0  0  0
  189.2210  177.1090  141.6720 O   0  0  0  0  0  0  0  0  0  0  0  0
  189.5970  177.8600  142.7910 C   0  0  2  0  0  3  0  0  0  0  0  0
  191.6010  176.9150  142.7370 C   0  0  0  0  0  1  0  0  0  0  0  0
  190.9630  178.1560  142.7270 O   0  0  0  0  0  0  0  0  0  0  0  0
  189.2570  177.1070  144.0800 C   0  0  2  0  0  3  0  0  0  0  0  0
  187.7650  176.8070  144.1110 C   0  0  0  0  0  2  0  0  0  0  0  0
  186.9860  177.9580  144.6630 C   0  0  0  0  0  3  0  0  0  0  0  0
  185.9120  177.7590  145.4230 C   0  0  0  0  0  2  0  0  0  0  0  0
  189.7010  177.9490  145.4210 C   0  0  0  0  0  2  0  0  0  0  0  0
  190.3150  177.0620  146.5220 C   0  0  0  0  0  2  0  0  0  0  0  0
  190.0020  178.1760  146.0260 O   0  0  0  0  0  0  0  0  0  0  0  0
  189.5830  176.5210  147.6260 N   0  0  0  0  0  2  0  0  0  0  0  0
  188.2460  176.9600  148.0020 C   0  0  0  0  0  2  0  0  0  0  0  0
  188.3320  178.1660  148.9180 C   0  0  0  0  0  1  0  0  0  0  0  0
  187.1200  177.9230  140.7640 C   0  0  0  0  0  2  0  0  0  0  0  0
  186.3790  179.1160  141.3740 C   0  0  0  0  0  2  0  0  0  0  0  0
  184.8560  179.0230  141.2700 C   0  0  1  0  0  3  0  0  0  0  0  0
  184.4100  178.7520  139.8440 C   0  0  2  0  0  3  0  0  0  0  0  0
  184.6930  179.8750  139.0480 O   0  0  0  0  0  0  0  0  0  0  0  0
  183.3550  179.7090  139.4500 C   0  0  1  0  0  3  0  0  0  0  0  0
  182.5560  179.1380  138.2890 C   0  0  0  0  0  2  0  0  0  0  0  0
  181.1920  179.8120  138.1300 C   0  0  1  0  0  3  0  0  0  0  0  0
  180.3210  179.5830  139.3520 C   0  0  0  0  0  1  0  0  0  0  0  0
  180.5170  181.6760  136.6100 C   0  0  0  0  0  1  0  0  0  0  0  0
  181.3160  181.3030  137.8450 C   0  0  0  0  0  2  0  0  0  0  0  0
  184.3480  178.0530  142.1380 O   0  0  0  0  0  0  0  0  0  0  0  0
  183.4740  178.7440  142.9790 C   0  0  0  0  0  1  0  0  0  0  0  0
  1 25  1  6  0  0  0
  1 11  1  0  0  0  0
  2  3  1  1  0  0  0
  2  1  1  0  0  0  0
  4  2  1  0  0  0  0
  6  5  2  0  0  0  0
  6  4  1  0  0  0  0
  7  8  1  1  0  0  0
  7 10  1  0  0  0  0
  7  6  1  0  0  0  0
 10  9  1  0  0  0  0
 12 11  1  6  0  0  0
 12 15  1  0  0  0  0
 14 13  1  0  0  0  0
 14 12  1  0  0  0  0
 15 16  1  1  0  0  0
 15 19  1  0  0  0  0
 16 17  1  0  0  0  0
 17 18  2  0  0  0  0
 19 21  1  0  0  0  0
 20 22  1  0  0  0  0
 21 20  1  0  0  0  0
 22 23  1  0  0  0  0
 23 24  1  0  0  0  0
 25 26  1  0  0  0  0
 27 26  1  6  0  0  0
 27 36  1  0  0  0  0
 28 27  1  1  0  0  0
 29 30  1  0  0  0  0
 29 28  1  0  0  0  0
 30 31  1  6  0  0  0
 30 28  1  0  0  0  0
 32 31  1  0  0  0  0
 32 33  1  1  0  0  0
 34 35  1  0  0  0  0
 35 32  1  0  0  0  0
 36 37  1  0  0  0  0
M  END
>  <MODEL>
1

>  <REMARK>
 VINA RESULT:      -6.0      0.000      0.000
  Name = 
  22 active torsions:
  status: ('A' for Active; 'I' for Inactive)
    1  A    between atoms: C_1  and  C_5
    2  A    between atoms: C_1  and  C_36
    3  A    between atoms: C_2  and  C_19
    4  A    between atoms: C_2  and  C_35
    5  A    between atoms: C_3  and  N_32
    6  A    between atoms: C_4  and  O_10
    7  A    between atoms: C_4  and  C_13
    8  A    between atoms: C_4  and  O_28
    9  A    between atoms: C_5  and  C_23
   10  A    between atoms: C_6  and  C_31
   11  A    between atoms: C_6  and  C_35
   12  A    between atoms: C_7  and  C_14
   13  A    between atoms: C_7  and  C_27
   14  A    between atoms: C_9  and  C_13
   15  A    between atoms: C_9  and  C_16
   16  A    between atoms: O_10  and  C_14
   17  A    between atoms: O_11  and  C_33
   18  A    between atoms: C_13  and  C_20
   19  A    between atoms: C_14  and  C_31
   20  A    between atoms: C_20  and  C_21
   21  A    between atoms: C_26  and  C_33
   22  A    between atoms: C_27  and  C_33
                            x       y       z     vdW  Elec       q    Type
                         _______ _______ _______ _____ _____    ______ ____

>  <TORSDO>
F 22

$$$$
=
 OpenBabel10262423033D

 37 37  0  0  1  0  0  0  0  0999 V2000
  187.1050  177.8360  142.5780 C   0  0  2  0  0  3  0  0  0  0  0  0
  185.5880  178.0650  142.5870 C   0  0  1  0  0  3  0  0  0  0  0  0
  185.1110  178.3140  144.0050 C   0  0  0  0  0  1  0  0  0  0  0  0
  185.1720  179.2220  141.6840 C   0  0  0  0  0  2  0  0  0  0  0  0
  182.9240  178.7840  141.1210 O   0  0  0  0  0  0  0  0  0  0  0  0
  184.0870  178.8050  140.7460 C   0  0  0  0  0  0  0  0  0  0  0  0
  184.4370  178.4470  139.3350 C   0  0  2  0  0  3  0  0  0  0  0  0
  185.1540  179.4880  138.7460 O   0  0  0  0  0  1  0  0  0  0  0  0
  182.6880  179.3370  137.9890 F   0  0  0  0  0  0  0  0  0  0  0  0
  183.1870  178.1620  138.5190 C   0  0  0  0  0  2  0  0  0  0  0  0
  187.7020  178.0760  143.8240 O   0  0  0  0  0  0  0  0  0  0  0  0
  188.8330  177.2520  143.8480 C   0  0  2  0  0  3  0  0  0  0  0  0
  189.7750  175.5600  142.7690 C   0  0  0  0  0  1  0  0  0  0  0  0
  188.5440  176.0310  143.2270 O   0  0  0  0  0  0  0  0  0  0  0  0
  189.3080  177.0380  145.2870 C   0  0  2  0  0  3  0  0  0  0  0  0
  188.4180  177.8300  146.2360 C   0  0  0  0  0  2  0  0  0  0  0  0
  189.0390  177.9580  147.5900 C   0  0  0  0  0  3  0  0  0  0  0  0
  188.2910  177.9650  148.6900 C   0  0  0  0  0  2  0  0  0  0  0  0
  190.8830  177.4680  145.4860 C   0  0  0  0  0  2  0  0  0  0  0  0
  191.8410  176.2620  145.5500 C   0  0  0  0  0  2  0  0  0  0  0  0
  191.5950  177.4960  145.4880 O   0  0  0  0  0  0  0  0  0  0  0  0
  192.3150  175.6700  146.7630 N   0  0  0  0  0  2  0  0  0  0  0  0
  192.1790  176.2920  148.0730 C   0  0  0  0  0  2  0  0  0  0  0  0
  193.2660  175.7870  149.0030 C   0  0  0  0  0  1  0  0  0  0  0  0
  187.8270  178.5790  141.4500 C   0  0  0  0  0  2  0  0  0  0  0  0
  188.0420  177.7580  140.1770 C   0  0  0  0  0  2  0  0  0  0  0  0
  189.3160  178.1180  139.4100 C   0  0  1  0  0  3  0  0  0  0  0  0
  189.8030  176.9560  138.5620 C   0  0  2  0  0  3  0  0  0  0  0  0
  190.4180  176.0020  139.3920 O   0  0  0  0  0  0  0  0  0  0  0  0
  191.2740  176.8410  138.6550 C   0  0  1  0  0  3  0  0  0  0  0  0
  191.8030  176.0750  137.4520 C   0  0  0  0  0  2  0  0  0  0  0  0
  193.3160  176.2190  137.2860 C   0  0  1  0  0  3  0  0  0  0  0  0
  194.0580  175.1590  138.0790 C   0  0  0  0  0  1  0  0  0  0  0  0
  192.5480  175.9070  134.9300 C   0  0  0  0  0  1  0  0  0  0  0  0
  193.7430  176.1770  135.8250 C   0  0  0  0  0  2  0  0  0  0  0  0
  189.1260  179.2570  138.6220 O   0  0  0  0  0  0  0  0  0  0  0  0
  188.5910  178.7810  137.4240 C   0  0  0  0  0  1  0  0  0  0  0  0
  1 25  1  6  0  0  0
  1  2  1  0  0  0  0
  1 11  1  0  0  0  0
  2  3  1  1  0  0  0
  4  2  1  0  0  0  0
  6  5  2  0  0  0  0
  6  4  1  0  0  0  0
  7  8  1  6  0  0  0
  7  6  1  0  0  0  0
  9 10  1  0  0  0  0
 10  7  1  0  0  0  0
 11 12  1  0  0  0  0
 12 14  1  1  0  0  0
 12 15  1  0  0  0  0
 13 14  1  0  0  0  0
 15 19  1  6  0  0  0
 15 16  1  0  0  0  0
 16 17  1  0  0  0  0
 17 18  2  0  0  0  0
 19 21  1  0  0  0  0
 20 22  1  0  0  0  0
 21 20  1  0  0  0  0
 22 23  1  0  0  0  0
 23 24  1  0  0  0  0
 26 25  1  0  0  0  0
 27 26  1  6  0  0  0
 28 30  1  0  0  0  0
 28 29  1  0  0  0  0
 28 27  1  1  0  0  0
 30 31  1  6  0  0  0
 30 29  1  0  0  0  0
 32 31  1  0  0  0  0
 32 33  1  1  0  0  0
 34 35  1  0  0  0  0
 35 32  1  0  0  0  0
 36 27  1  0  0  0  0
 37 36  1  0  0  0  0
M  END
>  <MODEL>
2

>  <REMARK>
 VINA RESULT:      -6.0      2.550      6.553
  Name = 
  22 active torsions:
  status: ('A' for Active; 'I' for Inactive)
    1  A    between atoms: C_1  and  C_5
    2  A    between atoms: C_1  and  C_36
    3  A    between atoms: C_2  and  C_19
    4  A    between atoms: C_2  and  C_35
    5  A    between atoms: C_3  and  N_32
    6  A    between atoms: C_4  and  O_10
    7  A    between atoms: C_4  and  C_13
    8  A    between atoms: C_4  and  O_28
    9  A    between atoms: C_5  and  C_23
   10  A    between atoms: C_6  and  C_31
   11  A    between atoms: C_6  and  C_35
   12  A    between atoms: C_7  and  C_14
   13  A    between atoms: C_7  and  C_27
   14  A    between atoms: C_9  and  C_13
   15  A    between atoms: C_9  and  C_16
   16  A    between atoms: O_10  and  C_14
   17  A    between atoms: O_11  and  C_33
   18  A    between atoms: C_13  and  C_20
   19  A    between atoms: C_14  and  C_31
   20  A    between atoms: C_20  and  C_21
   21  A    between atoms: C_26  and  C_33
   22  A    between atoms: C_27  and  C_33
                            x       y       z     vdW  Elec       q    Type
                         _______ _______ _______ _____ _____    ______ ____

>  <TORSDO>
F 22

$$$$
=
 OpenBabel10262423033D

 37 36  0  0  1  0  0  0  0  0999 V2000
  188.6390  178.2830  141.3670 C   0  0  2  0  0  3  0  0  0  0  0  0
  189.1410  178.2690  139.9180 C   0  0  1  0  0  3  0  0  0  0  0  0
  190.2330  177.2290  139.7590 C   0  0  0  0  0  1  0  0  0  0  0  0
  188.0190  178.0060  138.9190 C   0  0  0  0  0  2  0  0  0  0  0  0
  188.8320  179.5990  137.3820 O   0  0  0  0  0  0  0  0  0  0  0  0
  188.4010  178.4680  137.5500 C   0  0  0  0  0  0  0  0  0  0  0  0
  188.2820  177.5200  136.3980 C   0  0  2  0  0  3  0  0  0  0  0  0
  189.2700  177.7950  135.4530 O   0  0  0  0  0  1  0  0  0  0  0  0
  186.9000  178.6470  134.8220 F   0  0  0  0  0  0  0  0  0  0  0  0
  186.9110  177.6220  135.7490 C   0  0  0  0  0  2  0  0  0  0  0  0
  189.4000  177.4690  142.2180 O   0  0  0  0  0  0  0  0  0  0  0  0
  189.7690  178.3010  143.2810 C   0  0  2  0  0  3  0  0  0  0  0  0
  191.2830  179.6780  144.1330 C   0  0  0  0  0  1  0  0  0  0  0  0
  191.0180  178.8760  143.0220 O   0  0  0  0  0  0  0  0  0  0  0  0
  189.7870  177.5150  144.5940 C   0  0  0  0  0  2  0  0  0  0  0  0
  190.5350  176.2050  144.3890 C   0  0  0  0  0  2  0  0  0  0  0  0
  191.7250  176.1070  145.2900 C   0  0  0  0  0  3  0  0  0  0  0  0
  191.6780  176.5600  146.5400 C   0  0  0  0  0  2  0  0  0  0  0  0
  188.2700  177.2250  145.1600 C   0  0  0  0  0  1  0  0  0  0  0  0
  188.1090  177.5380  146.6600 C   0  0  0  0  0  2  0  0  0  0  0  0
  188.5030  177.8100  145.4960 O   0  0  0  0  0  0  0  0  0  0  0  0
  186.9840  178.2140  147.2290 N   0  0  0  0  0  2  0  0  0  0  0  0
  185.9900  178.9320  146.4430 C   0  0  0  0  0  2  0  0  0  0  0  0
  184.6460  178.2360  146.5430 C   0  0  0  0  0  1  0  0  0  0  0  0
  187.1400  177.9940  141.4960 C   0  0  0  0  0  2  0  0  0  0  0  0
  186.2810  179.2100  141.8490 C   0  0  0  0  0  2  0  0  0  0  0  0
  184.7960  179.0410  141.5220 C   0  0  1  0  0  3  0  0  0  0  0  0
  184.5830  178.6990  140.0580 C   0  0  2  0  0  3  0  0  0  0  0  0
  184.8770  179.8260  139.2720 O   0  0  0  0  0  0  0  0  0  0  0  0
  183.5150  179.5480  139.4890 C   0  0  1  0  0  3  0  0  0  0  0  0
  182.9420  178.8810  138.2470 C   0  0  0  0  0  2  0  0  0  0  0  0
  181.5330  179.3760  137.9160 C   0  0  1  0  0  3  0  0  0  0  0  0
  181.4490  180.8890  138.0020 C   0  0  0  0  0  1  0  0  0  0  0  0
  180.6720  180.0830  135.6810 C   0  0  0  0  0  1  0  0  0  0  0  0
  181.0620  178.9010  136.5480 C   0  0  0  0  0  2  0  0  0  0  0  0
  184.2050  178.0770  142.3440 O   0  0  0  0  0  0  0  0  0  0  0  0
  183.3230  178.7890  143.1580 C   0  0  0  0  0  1  0  0  0  0  0  0
  1 25  1  6  0  0  0
  1 11  1  0  0  0  0
  2  3  1  1  0  0  0
  2  1  1  0  0  0  0
  4  2  1  0  0  0  0
  5  6  2  0  0  0  0
  6  4  1  0  0  0  0
  7  8  1  6  0  0  0
  7  6  1  0  0  0  0
  9 10  1  0  0  0  0
 10  7  1  0  0  0  0
 11 12  1  0  0  0  0
 12 15  1  1  0  0  0
 14 12  1  0  0  0  0
 14 13  1  0  0  0  0
 16 15  1  0  0  0  0
 16 17  1  0  0  0  0
 17 18  2  0  0  0  0
 19 21  1  0  0  0  0
 20 22  1  0  0  0  0
 21 20  1  0  0  0  0
 23 24  1  0  0  0  0
 23 22  1  0  0  0  0
 25 26  1  0  0  0  0
 27 26  1  6  0  0  0
 27 36  1  0  0  0  0
 28 27  1  1  0  0  0
 29 30  1  0  0  0  0
 29 28  1  0  0  0  0
 30 31  1  6  0  0  0
 30 28  1  0  0  0  0
 32 33  1  6  0  0  0
 32 31  1  0  0  0  0
 34 35  1  0  0  0  0
 35 32  1  0  0  0  0
 36 37  1  0  0  0  0
M  END
>  <MODEL>
3

>  <REMARK>
 VINA RESULT:      -6.0      1.439      2.211
  Name = 
  22 active torsions:
  status: ('A' for Active; 'I' for Inactive)
    1  A    between atoms: C_1  and  C_5
    2  A    between atoms: C_1  and  C_36
    3  A    between atoms: C_2  and  C_19
    4  A    between atoms: C_2  and  C_35
    5  A    between atoms: C_3  and  N_32
    6  A    between atoms: C_4  and  O_10
    7  A    between atoms: C_4  and  C_13
    8  A    between atoms: C_4  and  O_28
    9  A    between atoms: C_5  and  C_23
   10  A    between atoms: C_6  and  C_31
   11  A    between atoms: C_6  and  C_35
   12  A    between atoms: C_7  and  C_14
   13  A    between atoms: C_7  and  C_27
   14  A    between atoms: C_9  and  C_13
   15  A    between atoms: C_9  and  C_16
   16  A    between atoms: O_10  and  C_14
   17  A    between atoms: O_11  and  C_33
   18  A    between atoms: C_13  and  C_20
   19  A    between atoms: C_14  and  C_31
   20  A    between atoms: C_20  and  C_21
   21  A    between atoms: C_26  and  C_33
   22  A    between atoms: C_27  and  C_33
                            x       y       z     vdW  Elec       q    Type
                         _______ _______ _______ _____ _____    ______ ____

>  <TORSDO>
F 22

$$$$
=
 OpenBabel10262423033D

 37 37  0  0  1  0  0  0  0  0999 V2000
  186.6920  178.2520  140.4720 C   0  0  2  0  0  3  0  0  0  0  0  0
  188.1920  177.9530  140.3700 C   0  0  1  0  0  3  0  0  0  0  0  0
  188.7870  178.6850  139.1830 C   0  0  0  0  0  1  0  0  0  0  0  0
  188.9450  178.3240  141.6450 C   0  0  0  0  0  2  0  0  0  0  0  0
  189.8440  176.1440  141.6240 O   0  0  0  0  0  0  0  0  0  0  0  0
  189.9940  177.3080  141.9620 C   0  0  0  0  0  0  0  0  0  0  0  0
  191.2410  177.7410  142.6680 C   0  0  2  0  0  3  0  0  0  0  0  0
  191.8580  176.6400  143.2610 O   0  0  0  0  0  1  0  0  0  0  0  0
  192.1050  179.3500  144.1940 F   0  0  0  0  0  0  0  0  0  0  0  0
  190.9320  178.7850  143.7280 C   0  0  0  0  0  2  0  0  0  0  0  0
  186.1890  178.9180  139.3450 O   0  0  0  0  0  0  0  0  0  0  0  0
  185.4870  177.9420  138.6300 C   0  0  2  0  0  3  0  0  0  0  0  0
  186.2380  176.5500  137.0760 C   0  0  0  0  0  1  0  0  0  0  0  0
  185.9490  177.8960  137.3100 O   0  0  0  0  0  0  0  0  0  0  0  0
  183.9830  178.2220  138.6770 C   0  0  2  0  0  3  0  0  0  0  0  0
  183.7530  179.6920  138.9980 C   0  0  0  0  0  2  0  0  0  0  0  0
  182.3080  180.0590  138.8800 C   0  0  0  0  0  3  0  0  0  0  0  0
  181.9390  181.2620  138.4470 C   0  0  0  0  0  2  0  0  0  0  0  0
  183.2130  177.2690  139.7740 C   0  0  0  0  0  2  0  0  0  0  0  0
  182.4170  176.1170  139.1290 C   0  0  0  0  0  2  0  0  0  0  0  0
  182.9420  176.7030  140.1120 O   0  0  0  0  0  0  0  0  0  0  0  0
  180.9980  176.1160  138.9490 N   0  0  0  0  0  2  0  0  0  0  0  0
  180.1010  177.0650  139.5940 C   0  0  0  0  0  2  0  0  0  0  0  0
  179.4600  176.4290  140.8130 C   0  0  0  0  0  1  0  0  0  0  0  0
  186.2980  178.9590  141.7720 C   0  0  0  0  0  2  0  0  0  0  0  0
  185.2430  178.2270  142.6060 C   0  0  0  0  0  2  0  0  0  0  0  0
  185.5850  178.1260  144.0940 C   0  0  1  0  0  3  0  0  0  0  0  0
  187.0840  178.1790  144.3260 C   0  0  2  0  0  3  0  0  0  0  0  0
  187.5670  176.8750  144.5320 O   0  0  0  0  0  0  0  0  0  0  0  0
  187.4060  177.6760  145.6780 C   0  0  1  0  0  3  0  0  0  0  0  0
  188.7670  178.2040  146.1080 C   0  0  0  0  0  2  0  0  0  0  0  0
  189.2150  177.6380  147.4560 C   0  0  1  0  0  3  0  0  0  0  0  0
  188.0370  177.4690  148.3990 C   0  0  0  0  0  1  0  0  0  0  0  0
  191.4600  176.5580  147.2880 C   0  0  0  0  0  1  0  0  0  0  0  0
  189.9620  176.3200  147.3080 C   0  0  0  0  0  2  0  0  0  0  0  0
  184.9370  179.1220  144.8290 O   0  0  0  0  0  0  0  0  0  0  0  0
  183.5980  179.0440  144.4420 C   0  0  0  0  0  1  0  0  0  0  0  0
  1 25  1  1  0  0  0
  2  3  1  6  0  0  0
  2  1  1  0  0  0  0
  2  4  1  0  0  0  0
  4  6  1  0  0  0  0
  5  6  2  0  0  0  0
  6  7  1  0  0  0  0
  7  8  1  1  0  0  0
  7 10  1  0  0  0  0
 10  9  1  0  0  0  0
 11  1  1  0  0  0  0
 12 14  1  6  0  0  0
 12 15  1  0  0  0  0
 12 11  1  0  0  0  0
 13 14  1  0  0  0  0
 15 16  1  1  0  0  0
 15 19  1  0  0  0  0
 17 16  1  0  0  0  0
 18 17  2  0  0  0  0
 19 21  1  0  0  0  0
 20 21  1  0  0  0  0
 22 20  1  0  0  0  0
 22 23  1  0  0  0  0
 23 24  1  0  0  0  0
 25 26  1  0  0  0  0
 27 26  1  6  0  0  0
 27 36  1  0  0  0  0
 28 27  1  1  0  0  0
 28 29  1  0  0  0  0
 28 30  1  0  0  0  0
 29 30  1  0  0  0  0
 30 31  1  6  0  0  0
 31 32  1  0  0  0  0
 32 33  1  1  0  0  0
 34 35  1  0  0  0  0
 35 32  1  0  0  0  0
 37 36  1  0  0  0  0
M  END
>  <MODEL>
4

>  <REMARK>
 VINA RESULT:      -5.8      3.036      8.250
  Name = 
  22 active torsions:
  status: ('A' for Active; 'I' for Inactive)
    1  A    between atoms: C_1  and  C_5
    2  A    between atoms: C_1  and  C_36
    3  A    between atoms: C_2  and  C_19
    4  A    between atoms: C_2  and  C_35
    5  A    between atoms: C_3  and  N_32
    6  A    between atoms: C_4  and  O_10
    7  A    between atoms: C_4  and  C_13
    8  A    between atoms: C_4  and  O_28
    9  A    between atoms: C_5  and  C_23
   10  A    between atoms: C_6  and  C_31
   11  A    between atoms: C_6  and  C_35
   12  A    between atoms: C_7  and  C_14
   13  A    between atoms: C_7  and  C_27
   14  A    between atoms: C_9  and  C_13
   15  A    between atoms: C_9  and  C_16
   16  A    between atoms: O_10  and  C_14
   17  A    between atoms: O_11  and  C_33
   18  A    between atoms: C_13  and  C_20
   19  A    between atoms: C_14  and  C_31
   20  A    between atoms: C_20  and  C_21
   21  A    between atoms: C_26  and  C_33
   22  A    between atoms: C_27  and  C_33
                            x       y       z     vdW  Elec       q    Type
                         _______ _______ _______ _____ _____    ______ ____

>  <TORSDO>
F 22

$$$$
=
 OpenBabel10262423033D

 37 37  0  0  1  0  0  0  0  0999 V2000
  187.9500  177.7300  138.3150 C   0  0  2  0  0  3  0  0  0  0  0  0
  188.9130  177.2670  137.2140 C   0  0  1  0  0  3  0  0  0  0  0  0
  188.9200  178.2710  136.0780 C   0  0  0  0  0  1  0  0  0  0  0  0
  190.3310  177.0560  137.7360 C   0  0  0  0  0  2  0  0  0  0  0  0
  189.9660  174.7260  137.7760 O   0  0  0  0  0  0  0  0  0  0  0  0
  190.7570  175.6340  137.5680 C   0  0  0  0  0  0  0  0  0  0  0  0
  192.1510  175.3380  137.1110 C   0  0  2  0  0  3  0  0  0  0  0  0
  192.4980  174.0330  137.4580 O   0  0  0  0  0  1  0  0  0  0  0  0
  193.8410  176.9710  136.7300 F   0  0  0  0  0  0  0  0  0  0  0  0
  193.1440  176.3110  137.7250 C   0  0  0  0  0  2  0  0  0  0  0  0
  186.8490  178.4400  137.8150 O   0  0  0  0  0  0  0  0  0  0  0  0
  185.8520  177.4770  137.6270 C   0  0  2  0  0  3  0  0  0  0  0  0
  185.6870  176.1540  135.8560 C   0  0  0  0  0  1  0  0  0  0  0  0
  185.4550  177.4610  136.2850 O   0  0  0  0  0  0  0  0  0  0  0  0
  184.6620  177.7520  138.5490 C   0  0  2  0  0  3  0  0  0  0  0  0
  183.3840  177.8040  137.7230 C   0  0  0  0  0  2  0  0  0  0  0  0
  182.3780  176.8090  138.2070 C   0  0  0  0  0  3  0  0  0  0  0  0
  182.7250  175.5500  138.4580 C   0  0  0  0  0  2  0  0  0  0  0  0
  184.8510  179.1470  139.4000 C   0  0  0  0  0  2  0  0  0  0  0  0
  184.9010  178.9290  140.9250 C   0  0  0  0  0  2  0  0  0  0  0  0
  184.7940  179.6520  139.9000 O   0  0  0  0  0  0  0  0  0  0  0  0
  183.7600  178.6370  141.7380 N   0  0  0  0  0  2  0  0  0  0  0  0
  182.3850  178.7830  141.2820 C   0  0  0  0  0  2  0  0  0  0  0  0
  181.4530  178.9090  142.4720 C   0  0  0  0  0  1  0  0  0  0  0  0
  188.6430  178.4840  139.4540 C   0  0  0  0  0  2  0  0  0  0  0  0
  188.3040  177.9760  140.8570 C   0  0  0  0  0  2  0  0  0  0  0  0
  189.5210  177.8100  141.7700 C   0  0  1  0  0  3  0  0  0  0  0  0
  189.2020  176.9340  142.9690 C   0  0  2  0  0  3  0  0  0  0  0  0
  187.8090  176.8750  143.1430 O   0  0  0  0  0  0  0  0  0  0  0  0
  188.5160  177.7280  144.0100 C   0  0  1  0  0  3  0  0  0  0  0  0
  188.6730  177.0430  145.3590 C   0  0  0  0  0  2  0  0  0  0  0  0
  187.8740  177.7380  146.4640 C   0  0  1  0  0  3  0  0  0  0  0  0
  186.3850  177.6980  146.1710 C   0  0  0  0  0  1  0  0  0  0  0  0
  188.6500  178.2210  148.7880 C   0  0  0  0  0  1  0  0  0  0  0  0
  188.1550  177.1460  147.8380 C   0  0  0  0  0  2  0  0  0  0  0  0
  190.6150  177.3000  141.0660 O   0  0  0  0  0  0  0  0  0  0  0  0
  191.6880  177.3880  141.9540 C   0  0  0  0  0  1  0  0  0  0  0  0
  1 25  1  1  0  0  0
  2  3  1  6  0  0  0
  2  4  1  0  0  0  0
  2  1  1  0  0  0  0
  6  4  1  0  0  0  0
  6  5  2  0  0  0  0
  7  8  1  1  0  0  0
  7  6  1  0  0  0  0
  7 10  1  0  0  0  0
  9 10  1  0  0  0  0
 11  1  1  0  0  0  0
 12 14  1  6  0  0  0
 12 11  1  0  0  0  0
 12 15  1  0  0  0  0
 13 14  1  0  0  0  0
 15 16  1  6  0  0  0
 15 19  1  0  0  0  0
 16 17  1  0  0  0  0
 17 18  2  0  0  0  0
 19 21  1  0  0  0  0
 20 22  1  0  0  0  0
 21 20  1  0  0  0  0
 23 22  1  0  0  0  0
 23 24  1  0  0  0  0
 25 26  1  0  0  0  0
 27 26  1  6  0  0  0
 28 27  1  6  0  0  0
 28 29  1  0  0  0  0
 28 30  1  0  0  0  0
 29 30  1  0  0  0  0
 30 31  1  1  0  0  0
 31 32  1  0  0  0  0
 32 33  1  6  0  0  0
 32 35  1  0  0  0  0
 35 34  1  0  0  0  0
 36 27  1  0  0  0  0
 36 37  1  0  0  0  0
M  END
>  <MODEL>
5

>  <REMARK>
 VINA RESULT:      -5.7      2.634      7.405
  Name = 
  22 active torsions:
  status: ('A' for Active; 'I' for Inactive)
    1  A    between atoms: C_1  and  C_5
    2  A    between atoms: C_1  and  C_36
    3  A    between atoms: C_2  and  C_19
    4  A    between atoms: C_2  and  C_35
    5  A    between atoms: C_3  and  N_32
    6  A    between atoms: C_4  and  O_10
    7  A    between atoms: C_4  and  C_13
    8  A    between atoms: C_4  and  O_28
    9  A    between atoms: C_5  and  C_23
   10  A    between atoms: C_6  and  C_31
   11  A    between atoms: C_6  and  C_35
   12  A    between atoms: C_7  and  C_14
   13  A    between atoms: C_7  and  C_27
   14  A    between atoms: C_9  and  C_13
   15  A    between atoms: C_9  and  C_16
   16  A    between atoms: O_10  and  C_14
   17  A    between atoms: O_11  and  C_33
   18  A    between atoms: C_13  and  C_20
   19  A    between atoms: C_14  and  C_31
   20  A    between atoms: C_20  and  C_21
   21  A    between atoms: C_26  and  C_33
   22  A    between atoms: C_27  and  C_33
                            x       y       z     vdW  Elec       q    Type
                         _______ _______ _______ _____ _____    ______ ____

>  <TORSDO>
F 22

$$$$
=
 OpenBabel10262423033D

 37 37  0  0  1  0  0  0  0  0999 V2000
  188.3670  178.2120  140.6970 C   0  0  2  0  0  3  0  0  0  0  0  0
  188.5660  177.7350  139.2530 C   0  0  1  0  0  3  0  0  0  0  0  0
  189.0120  178.8930  138.3820 C   0  0  0  0  0  1  0  0  0  0  0  0
  189.5700  176.5900  139.1540 C   0  0  0  0  0  2  0  0  0  0  0  0
  188.5700  175.6570  137.2330 O   0  0  0  0  0  0  0  0  0  0  0  0
  189.6030  176.0240  137.7710 C   0  0  0  0  0  0  0  0  0  0  0  0
  190.9100  175.9450  137.0450 C   0  0  2  0  0  3  0  0  0  0  0  0
  190.6870  175.8990  135.6690 O   0  0  0  0  0  1  0  0  0  0  0  0
  190.9220  173.5840  137.3420 F   0  0  0  0  0  0  0  0  0  0  0  0
  191.6990  174.7190  137.4760 C   0  0  0  0  0  2  0  0  0  0  0  0
  188.4770  177.1760  141.6350 O   0  0  0  0  0  0  0  0  0  0  0  0
  189.2110  177.7230  142.6940 C   0  0  2  0  0  3  0  0  0  0  0  0
  190.8830  176.2690  142.6380 C   0  0  0  0  0  1  0  0  0  0  0  0
  190.5800  177.6150  142.4280 O   0  0  0  0  0  0  0  0  0  0  0  0
  188.8500  177.0300  144.0090 C   0  0  2  0  0  3  0  0  0  0  0  0
  187.3570  176.7300  144.0300 C   0  0  0  0  0  2  0  0  0  0  0  0
  186.6520  177.5290  145.0790 C   0  0  0  0  0  3  0  0  0  0  0  0
  185.6800  178.3790  144.7570 C   0  0  0  0  0  2  0  0  0  0  0  0
  189.2700  177.9340  145.3180 C   0  0  0  0  0  2  0  0  0  0  0  0
  190.1820  177.1840  146.3090 C   0  0  0  0  0  2  0  0  0  0  0  0
  189.8830  178.1740  145.5900 O   0  0  0  0  0  0  0  0  0  0  0  0
  190.0540  177.2460  147.7320 N   0  0  0  0  0  2  0  0  0  0  0  0
  189.2350  178.2300  148.4270 C   0  0  0  0  0  2  0  0  0  0  0  0
  187.8330  177.6880  148.6310 C   0  0  0  0  0  1  0  0  0  0  0  0
  187.0850  179.0260  140.8980 C   0  0  0  0  0  2  0  0  0  0  0  0
  185.8190  178.1890  141.0980 C   0  0  0  0  0  2  0  0  0  0  0  0
  184.7550  178.4010  140.0200 C   0  0  1  0  0  3  0  0  0  0  0  0
  183.6150  179.2680  140.5250 C   0  0  2  0  0  3  0  0  0  0  0  0
  183.1490  178.7550  141.7470 O   0  0  0  0  0  0  0  0  0  0  0  0
  182.3720  178.4740  140.6080 C   0  0  1  0  0  3  0  0  0  0  0  0
  181.1690  179.4050  140.5870 C   0  0  0  0  0  2  0  0  0  0  0  0
  180.0270  178.9060  141.4730 C   0  0  1  0  0  3  0  0  0  0  0  0
  179.9540  177.3900  141.4700 C   0  0  0  0  0  1  0  0  0  0  0  0
  180.0330  178.2780  143.8900 C   0  0  0  0  0  1  0  0  0  0  0  0
  180.1350  179.4240  142.9010 C   0  0  0  0  0  2  0  0  0  0  0  0
  185.3120  178.9470  138.8600 O   0  0  0  0  0  0  0  0  0  0  0  0
  185.1860  177.9480  137.8950 C   0  0  0  0  0  1  0  0  0  0  0  0
  1 25  1  6  0  0  0
  1 11  1  0  0  0  0
  2  3  1  6  0  0  0
  2  1  1  0  0  0  0
  4  2  1  0  0  0  0
  5  6  2  0  0  0  0
  6  4  1  0  0  0  0
  7  8  1  6  0  0  0
  7 10  1  0  0  0  0
  7  6  1  0  0  0  0
  9 10  1  0  0  0  0
 12 11  1  6  0  0  0
 12 15  1  0  0  0  0
 14 13  1  0  0  0  0
 14 12  1  0  0  0  0
 15 16  1  6  0  0  0
 15 19  1  0  0  0  0
 16 17  1  0  0  0  0
 18 17  2  0  0  0  0
 19 21  1  0  0  0  0
 20 22  1  0  0  0  0
 21 20  1  0  0  0  0
 22 23  1  0  0  0  0
 23 24  1  0  0  0  0
 25 26  1  0  0  0  0
 27 26  1  1  0  0  0
 28 27  1  6  0  0  0
 28 30  1  0  0  0  0
 28 29  1  0  0  0  0
 30 31  1  1  0  0  0
 30 29  1  0  0  0  0
 31 32  1  0  0  0  0
 32 33  1  1  0  0  0
 32 35  1  0  0  0  0
 35 34  1  0  0  0  0
 36 27  1  0  0  0  0
 37 36  1  0  0  0  0
M  END
>  <MODEL>
6

>  <REMARK>
 VINA RESULT:      -5.6      1.836      2.765
  Name = 
  22 active torsions:
  status: ('A' for Active; 'I' for Inactive)
    1  A    between atoms: C_1  and  C_5
    2  A    between atoms: C_1  and  C_36
    3  A    between atoms: C_2  and  C_19
    4  A    between atoms: C_2  and  C_35
    5  A    between atoms: C_3  and  N_32
    6  A    between atoms: C_4  and  O_10
    7  A    between atoms: C_4  and  C_13
    8  A    between atoms: C_4  and  O_28
    9  A    between atoms: C_5  and  C_23
   10  A    between atoms: C_6  and  C_31
   11  A    between atoms: C_6  and  C_35
   12  A    between atoms: C_7  and  C_14
   13  A    between atoms: C_7  and  C_27
   14  A    between atoms: C_9  and  C_13
   15  A    between atoms: C_9  and  C_16
   16  A    between atoms: O_10  and  C_14
   17  A    between atoms: O_11  and  C_33
   18  A    between atoms: C_13  and  C_20
   19  A    between atoms: C_14  and  C_31
   20  A    between atoms: C_20  and  C_21
   21  A    between atoms: C_26  and  C_33
   22  A    between atoms: C_27  and  C_33
                            x       y       z     vdW  Elec       q    Type
                         _______ _______ _______ _____ _____    ______ ____

>  <TORSDO>
F 22

$$$$
=
 OpenBabel10262423033D

 37 37  0  0  1  0  0  0  0  0999 V2000
  185.9810  178.2550  143.8650 C   0  0  2  0  0  3  0  0  0  0  0  0
  185.4670  178.6620  145.2510 C   0  0  1  0  0  3  0  0  0  0  0  0
  183.9610  178.8420  145.2120 C   0  0  0  0  0  1  0  0  0  0  0  0
  185.8460  177.6520  146.3290 C   0  0  0  0  0  2  0  0  0  0  0  0
  186.5770  179.3960  147.7380 O   0  0  0  0  0  0  0  0  0  0  0  0
  186.7720  178.2610  147.3320 C   0  0  0  0  0  0  0  0  0  0  0  0
  187.9180  177.4520  147.8540 C   0  0  2  0  0  3  0  0  0  0  0  0
  188.5240  178.1190  148.9180 O   0  0  0  0  0  1  0  0  0  0  0  0
  189.2960  178.3840  146.1510 F   0  0  0  0  0  0  0  0  0  0  0  0
  188.9440  177.1940  146.7620 C   0  0  0  0  0  2  0  0  0  0  0  0
  187.3780  178.3190  143.7590 O   0  0  0  0  0  0  0  0  0  0  0  0
  187.7130  177.3490  142.8070 C   0  0  2  0  0  3  0  0  0  0  0  0
  189.0240  175.5750  143.0200 C   0  0  0  0  0  1  0  0  0  0  0  0
  187.7910  176.0930  143.4180 O   0  0  0  0  0  0  0  0  0  0  0  0
  189.0320  177.7090  142.1190 C   0  0  2  0  0  3  0  0  0  0  0  0
  189.7560  178.7700  142.9370 C   0  0  0  0  0  2  0  0  0  0  0  0
  191.2060  178.4420  143.1010 C   0  0  0  0  0  3  0  0  0  0  0  0
  191.6130  177.5720  144.0220 C   0  0  0  0  0  2  0  0  0  0  0  0
  188.8000  178.2340  140.5780 C   0  0  0  0  0  2  0  0  0  0  0  0
  189.4600  177.3280  139.5200 C   0  0  0  0  0  2  0  0  0  0  0  0
  188.4660  177.7670  140.1560 O   0  0  0  0  0  0  0  0  0  0  0  0
  189.6840  177.7060  138.1580 N   0  0  0  0  0  2  0  0  0  0  0  0
  189.0750  178.8720  137.5330 C   0  0  0  0  0  2  0  0  0  0  0  0
  187.8670  178.4540  136.7180 C   0  0  0  0  0  1  0  0  0  0  0  0
  185.2910  178.9970  142.7160 C   0  0  0  0  0  2  0  0  0  0  0  0
  184.3290  178.1420  141.8870 C   0  0  0  0  0  2  0  0  0  0  0  0
  183.1040  178.9010  141.3740 C   0  0  1  0  0  3  0  0  0  0  0  0
  182.6870  178.4190  139.9960 C   0  0  2  0  0  3  0  0  0  0  0  0
  183.7830  178.5120  139.1210 O   0  0  0  0  0  0  0  0  0  0  0  0
  182.8060  179.5190  139.0160 C   0  0  1  0  0  3  0  0  0  0  0  0
  181.9220  179.2280  137.8120 C   0  0  0  0  0  2  0  0  0  0  0  0
  180.9430  180.3650  137.5170 C   0  0  1  0  0  3  0  0  0  0  0  0
  181.3690  181.6480  138.2050 C   0  0  0  0  0  1  0  0  0  0  0  0
  180.5000  182.0700  135.7470 C   0  0  0  0  0  1  0  0  0  0  0  0
  180.7700  180.6030  136.0230 C   0  0  0  0  0  2  0  0  0  0  0  0
  182.0370  178.8050  142.2720 O   0  0  0  0  0  0  0  0  0  0  0  0
  180.9880  178.2610  141.5290 C   0  0  0  0  0  1  0  0  0  0  0  0
  1 25  1  6  0  0  0
  1  2  1  0  0  0  0
  2  3  1  6  0  0  0
  2  4  1  0  0  0  0
  4  6  1  0  0  0  0
  6  5  2  0  0  0  0
  6  7  1  0  0  0  0
  7  8  1  1  0  0  0
  9 10  1  0  0  0  0
 10  7  1  0  0  0  0
 11  1  1  0  0  0  0
 12 14  1  1  0  0  0
 12 11  1  0  0  0  0
 13 14  1  0  0  0  0
 15 19  1  6  0  0  0
 15 12  1  0  0  0  0
 15 16  1  0  0  0  0
 16 17  1  0  0  0  0
 17 18  2  0  0  0  0
 20 21  1  0  0  0  0
 21 19  1  0  0  0  0
 22 20  1  0  0  0  0
 23 22  1  0  0  0  0
 24 23  1  0  0  0  0
 26 25  1  0  0  0  0
 27 26  1  1  0  0  0
 27 36  1  0  0  0  0
 28 27  1  1  0  0  0
 29 28  1  0  0  0  0
 30 31  1  6  0  0  0
 30 29  1  0  0  0  0
 30 28  1  0  0  0  0
 32 31  1  0  0  0  0
 32 33  1  1  0  0  0
 34 35  1  0  0  0  0
 35 32  1  0  0  0  0
 37 36  1  0  0  0  0
M  END
>  <MODEL>
7

>  <REMARK>
 VINA RESULT:      -5.6      2.963      6.633
  Name = 
  22 active torsions:
  status: ('A' for Active; 'I' for Inactive)
    1  A    between atoms: C_1  and  C_5
    2  A    between atoms: C_1  and  C_36
    3  A    between atoms: C_2  and  C_19
    4  A    between atoms: C_2  and  C_35
    5  A    between atoms: C_3  and  N_32
    6  A    between atoms: C_4  and  O_10
    7  A    between atoms: C_4  and  C_13
    8  A    between atoms: C_4  and  O_28
    9  A    between atoms: C_5  and  C_23
   10  A    between atoms: C_6  and  C_31
   11  A    between atoms: C_6  and  C_35
   12  A    between atoms: C_7  and  C_14
   13  A    between atoms: C_7  and  C_27
   14  A    between atoms: C_9  and  C_13
   15  A    between atoms: C_9  and  C_16
   16  A    between atoms: O_10  and  C_14
   17  A    between atoms: O_11  and  C_33
   18  A    between atoms: C_13  and  C_20
   19  A    between atoms: C_14  and  C_31
   20  A    between atoms: C_20  and  C_21
   21  A    between atoms: C_26  and  C_33
   22  A    between atoms: C_27  and  C_33
                            x       y       z     vdW  Elec       q    Type
                         _______ _______ _______ _____ _____    ______ ____

>  <TORSDO>
F 22

$$$$
=
 OpenBabel10262423033D

 37 37  0  0  1  0  0  0  0  0999 V2000
  184.6040  179.1270  142.0680 C   0  0  2  0  0  3  0  0  0  0  0  0
  185.1880  179.2590  143.4800 C   0  0  1  0  0  3  0  0  0  0  0  0
  184.2970  180.1470  144.3270 C   0  0  0  0  0  1  0  0  0  0  0  0
  185.3740  177.9050  144.1580 C   0  0  0  0  0  2  0  0  0  0  0  0
  187.6490  178.0890  144.7520 O   0  0  0  0  0  0  0  0  0  0  0  0
  186.4990  177.9490  145.1400 C   0  0  0  0  0  0  0  0  0  0  0  0
  186.1970  177.8520  146.6030 C   0  0  2  0  0  3  0  0  0  0  0  0
  185.3080  178.8610  146.9720 O   0  0  0  0  0  1  0  0  0  0  0  0
  187.9450  176.7040  147.7390 F   0  0  0  0  0  0  0  0  0  0  0  0
  187.4680  177.9640  147.4300 C   0  0  0  0  0  2  0  0  0  0  0  0
  183.6400  178.1140  141.9660 O   0  0  0  0  0  0  0  0  0  0  0  0
  182.4710  178.7660  141.5610 C   0  0  2  0  0  3  0  0  0  0  0  0
  180.3740  179.2990  142.0460 C   0  0  0  0  0  1  0  0  0  0  0  0
  181.4450  178.5160  142.4790 O   0  0  0  0  0  0  0  0  0  0  0  0
  182.0700  178.3200  140.1530 C   0  0  2  0  0  3  0  0  0  0  0  0
  182.6390  176.9340  139.8810 C   0  0  0  0  0  2  0  0  0  0  0  0
  181.5690  175.9730  139.4700 C   0  0  0  0  0  3  0  0  0  0  0  0
  180.3110  176.1360  139.8700 C   0  0  0  0  0  2  0  0  0  0  0  0
  182.5740  179.3820  139.0020 C   0  0  0  0  0  2  0  0  0  0  0  0
  181.5050  180.4260  138.6260 C   0  0  0  0  0  2  0  0  0  0  0  0
  182.6900  180.0020  138.6700 O   0  0  0  0  0  0  0  0  0  0  0  0
  180.7730  180.4270  137.3970 N   0  0  0  0  0  2  0  0  0  0  0  0
  181.1330  179.6170  136.2410 C   0  0  0  0  0  2  0  0  0  0  0  0
  180.8080  180.3640  134.9620 C   0  0  0  0  0  1  0  0  0  0  0  0
  185.6710  179.0070  140.9760 C   0  0  0  0  0  2  0  0  0  0  0  0
  187.0690  178.6440  141.4830 C   0  0  0  0  0  2  0  0  0  0  0  0
  188.1440  178.6310  140.3950 C   0  0  1  0  0  3  0  0  0  0  0  0
  189.2310  177.6150  140.6960 C   0  0  2  0  0  3  0  0  0  0  0  0
  188.8040  176.7760  141.7410 O   0  0  0  0  0  0  0  0  0  0  0  0
  189.7200  177.7900  142.0790 C   0  0  1  0  0  3  0  0  0  0  0  0
  191.1080  177.1800  142.2100 C   0  0  0  0  0  2  0  0  0  0  0  0
  191.7350  177.4410  143.5800 C   0  0  1  0  0  3  0  0  0  0  0  0
  191.3960  178.8340  144.0810 C   0  0  0  0  0  1  0  0  0  0  0  0
  191.0110  177.0600  145.9400 C   0  0  0  0  0  1  0  0  0  0  0  0
  191.3260  176.3980  144.6110 C   0  0  0  0  0  2  0  0  0  0  0  0
  187.5850  178.3960  139.1350 O   0  0  0  0  0  0  0  0  0  0  0  0
  188.6760  178.1800  138.2920 C   0  0  0  0  0  1  0  0  0  0  0  0
  1 25  1  6  0  0  0
  1  2  1  0  0  0  0
  2  4  1  0  0  0  0
  2  3  1  1  0  0  0
  4  6  1  0  0  0  0
  5  6  2  0  0  0  0
  6  7  1  0  0  0  0
  7  8  1  1  0  0  0
  7 10  1  0  0  0  0
 10  9  1  0  0  0  0
 11  1  1  0  0  0  0
 12 11  1  1  0  0  0
 12 14  1  0  0  0  0
 13 14  1  0  0  0  0
 15 19  1  6  0  0  0
 15 12  1  0  0  0  0
 16 15  1  0  0  0  0
 17 18  2  0  0  0  0
 17 16  1  0  0  0  0
 20 21  1  0  0  0  0
 21 19  1  0  0  0  0
 22 20  1  0  0  0  0
 23 22  1  0  0  0  0
 24 23  1  0  0  0  0
 25 26  1  0  0  0  0
 27 26  1  1  0  0  0
 28 27  1  1  0  0  0
 28 29  1  0  0  0  0
 28 30  1  0  0  0  0
 29 30  1  0  0  0  0
 30 31  1  6  0  0  0
 31 32  1  0  0  0  0
 32 33  1  1  0  0  0
 32 35  1  0  0  0  0
 35 34  1  0  0  0  0
 36 27  1  0  0  0  0
 37 36  1  0  0  0  0
M  END
>  <MODEL>
8

>  <REMARK>
 VINA RESULT:      -5.5      3.590      9.544
  Name = 
  22 active torsions:
  status: ('A' for Active; 'I' for Inactive)
    1  A    between atoms: C_1  and  C_5
    2  A    between atoms: C_1  and  C_36
    3  A    between atoms: C_2  and  C_19
    4  A    between atoms: C_2  and  C_35
    5  A    between atoms: C_3  and  N_32
    6  A    between atoms: C_4  and  O_10
    7  A    between atoms: C_4  and  C_13
    8  A    between atoms: C_4  and  O_28
    9  A    between atoms: C_5  and  C_23
   10  A    between atoms: C_6  and  C_31
   11  A    between atoms: C_6  and  C_35
   12  A    between atoms: C_7  and  C_14
   13  A    between atoms: C_7  and  C_27
   14  A    between atoms: C_9  and  C_13
   15  A    between atoms: C_9  and  C_16
   16  A    between atoms: O_10  and  C_14
   17  A    between atoms: O_11  and  C_33
   18  A    between atoms: C_13  and  C_20
   19  A    between atoms: C_14  and  C_31
   20  A    between atoms: C_20  and  C_21
   21  A    between atoms: C_26  and  C_33
   22  A    between atoms: C_27  and  C_33
                            x       y       z     vdW  Elec       q    Type
                         _______ _______ _______ _____ _____    ______ ____

>  <TORSDO>
F 22

$$$$
=
 OpenBabel10262423033D

 37 37  0  0  1  0  0  0  0  0999 V2000
  188.6980  177.7890  141.3810 C   0  0  2  0  0  3  0  0  0  0  0  0
  188.9590  177.3850  139.9250 C   0  0  1  0  0  3  0  0  0  0  0  0
  187.8440  177.9010  139.0360 C   0  0  0  0  0  1  0  0  0  0  0  0
  190.3080  177.8860  139.4170 C   0  0  0  0  0  2  0  0  0  0  0  0
  192.3140  176.6580  139.2520 O   0  0  0  0  0  0  0  0  0  0  0  0
  191.1450  176.7550  138.9140 C   0  0  0  0  0  0  0  0  0  0  0  0
  190.5240  175.7270  138.0200 C   0  0  2  0  0  3  0  0  0  0  0  0
  191.3560  174.6120  137.9290 O   0  0  0  0  0  1  0  0  0  0  0  0
  189.8370  175.2920  135.7830 F   0  0  0  0  0  0  0  0  0  0  0  0
  190.2740  176.2930  136.6320 C   0  0  0  0  0  2  0  0  0  0  0  0
  189.5070  177.0990  142.2940 O   0  0  0  0  0  0  0  0  0  0  0  0
  189.8470  178.0470  143.2660 C   0  0  2  0  0  3  0  0  0  0  0  0
  191.2900  179.6070  143.8980 C   0  0  0  0  0  1  0  0  0  0  0  0
  191.1420  178.5230  143.0310 O   0  0  0  0  0  0  0  0  0  0  0  0
  189.7290  177.4430  144.6670 C   0  0  2  0  0  3  0  0  0  0  0  0
  190.7900  176.3660  144.8440 C   0  0  0  0  0  2  0  0  0  0  0  0
  191.6780  176.6580  146.0120 C   0  0  0  0  0  3  0  0  0  0  0  0
  191.6450  175.9000  147.1050 C   0  0  0  0  0  2  0  0  0  0  0  0
  188.2310  176.8230  144.9460 C   0  0  0  0  0  2  0  0  0  0  0  0
  187.2430  177.8540  145.5270 C   0  0  0  0  0  2  0  0  0  0  0  0
  187.5700  176.6900  145.1750 O   0  0  0  0  0  0  0  0  0  0  0  0
  187.1620  178.2050  146.9110 N   0  0  0  0  0  2  0  0  0  0  0  0
  187.7990  177.4430  147.9770 C   0  0  0  0  0  2  0  0  0  0  0  0
  189.0300  178.1760  148.4750 C   0  0  0  0  0  1  0  0  0  0  0  0
  187.2190  177.7290  141.7750 C   0  0  0  0  0  2  0  0  0  0  0  0
  186.4970  179.0780  141.7620 C   0  0  0  0  0  2  0  0  0  0  0  0
  184.9730  178.9690  141.6880 C   0  0  1  0  0  3  0  0  0  0  0  0
  184.5020  178.6990  140.2700 C   0  0  2  0  0  3  0  0  0  0  0  0
  184.6220  179.8750  139.5100 O   0  0  0  0  0  0  0  0  0  0  0  0
  183.3300  179.5430  139.9550 C   0  0  1  0  0  3  0  0  0  0  0  0
  182.5520  178.9250  138.8020 C   0  0  0  0  0  2  0  0  0  0  0  0
  181.3200  179.7470  138.4210 C   0  0  1  0  0  3  0  0  0  0  0  0
  180.0430  178.9630  138.6610 C   0  0  0  0  0  1  0  0  0  0  0  0
  181.5240  182.2260  138.1990 C   0  0  0  0  0  1  0  0  0  0  0  0
  181.2640  181.0790  139.1570 C   0  0  0  0  0  2  0  0  0  0  0  0
  184.4930  177.9890  142.5610 O   0  0  0  0  0  0  0  0  0  0  0  0
  184.0230  178.6930  143.6710 C   0  0  0  0  0  1  0  0  0  0  0  0
  1 25  1  1  0  0  0
  1 11  1  0  0  0  0
  2  3  1  6  0  0  0
  2  1  1  0  0  0  0
  4  2  1  0  0  0  0
  6  5  2  0  0  0  0
  6  4  1  0  0  0  0
  7  8  1  6  0  0  0
  7  6  1  0  0  0  0
  9 10  1  0  0  0  0
 10  7  1  0  0  0  0
 12 11  1  6  0  0  0
 12 15  1  0  0  0  0
 14 12  1  0  0  0  0
 14 13  1  0  0  0  0
 15 16  1  6  0  0  0
 15 19  1  0  0  0  0
 16 17  1  0  0  0  0
 17 18  2  0  0  0  0
 19 21  1  0  0  0  0
 20 22  1  0  0  0  0
 21 20  1  0  0  0  0
 22 23  1  0  0  0  0
 23 24  1  0  0  0  0
 26 25  1  0  0  0  0
 27 26  1  6  0  0  0
 27 36  1  0  0  0  0
 28 27  1  1  0  0  0
 29 30  1  0  0  0  0
 29 28  1  0  0  0  0
 30 31  1  6  0  0  0
 30 28  1  0  0  0  0
 32 33  1  1  0  0  0
 32 31  1  0  0  0  0
 32 35  1  0  0  0  0
 34 35  1  0  0  0  0
 36 37  1  0  0  0  0
M  END
>  <MODEL>
9

>  <REMARK>
 VINA RESULT:      -5.4      1.741      2.526
  Name = 
  22 active torsions:
  status: ('A' for Active; 'I' for Inactive)
    1  A    between atoms: C_1  and  C_5
    2  A    between atoms: C_1  and  C_36
    3  A    between atoms: C_2  and  C_19
    4  A    between atoms: C_2  and  C_35
    5  A    between atoms: C_3  and  N_32
    6  A    between atoms: C_4  and  O_10
    7  A    between atoms: C_4  and  C_13
    8  A    between atoms: C_4  and  O_28
    9  A    between atoms: C_5  and  C_23
   10  A    between atoms: C_6  and  C_31
   11  A    between atoms: C_6  and  C_35
   12  A    between atoms: C_7  and  C_14
   13  A    between atoms: C_7  and  C_27
   14  A    between atoms: C_9  and  C_13
   15  A    between atoms: C_9  and  C_16
   16  A    between atoms: O_10  and  C_14
   17  A    between atoms: O_11  and  C_33
   18  A    between atoms: C_13  and  C_20
   19  A    between atoms: C_14  and  C_31
   20  A    between atoms: C_20  and  C_21
   21  A    between atoms: C_26  and  C_33
   22  A    between atoms: C_27  and  C_33
                            x       y       z     vdW  Elec       q    Type
                         _______ _______ _______ _____ _____    ______ ____

>  <TORSDO>
F 22

$$$$
