=
 OpenBabel10262422063D

 43 48  0  0  1  0  0  0  0  0999 V2000
  187.7940  177.2240  147.5800 C   0  0  1  0  0  3  0  0  0  0  0  0
  185.5190  178.7250  143.2870 C   0  0  0  0  0  0  0  0  0  0  0  0
  187.3320  178.0970  141.1900 C   0  0  0  0  0  0  0  0  0  0  0  0
  186.3480  178.4530  145.9530 C   0  0  0  0  0  0  0  0  0  0  0  0
  188.8320  177.1570  146.4920 C   0  0  0  0  0  3  0  0  0  0  0  0
  188.4160  177.3320  148.8220 O   0  0  0  0  0  1  0  0  0  0  0  0
  187.2040  178.0530  144.9090 C   0  0  0  0  0  0  0  0  0  0  0  0
  186.8270  178.3960  147.3770 C   0  0  0  0  0  2  0  0  0  0  0  0
  188.5340  177.5050  145.2370 C   0  0  0  0  0  3  0  0  0  0  0  0
  187.6530  177.8520  142.5290 O   0  0  0  0  0  0  0  0  0  0  0  0
  186.7940  178.2030  143.5750 C   0  0  2  0  0  3  0  0  0  0  0  0
  184.6800  179.1270  144.3350 C   0  0  0  0  0  3  0  0  0  0  0  0
  185.0400  178.8290  141.8630 C   0  0  0  0  0  0  0  0  0  0  0  0
  186.1330  178.5870  140.8520 C   0  0  0  0  0  3  0  0  0  0  0  0
  185.0970  179.0010  145.6620 C   0  0  0  0  0  3  0  0  0  0  0  0
  188.3680  177.8320  140.1450 C   0  0  1  0  0  3  0  0  0  0  0  0
  188.7400  179.0180  139.5080 O   0  0  0  0  0  1  0  0  0  0  0  0
  189.5860  177.1520  140.7530 C   0  0  0  0  0  2  0  0  0  0  0  0
  190.7860  177.2650  139.8270 C   0  0  1  0  0  3  0  0  0  0  0  0
  192.0420  177.4210  140.6610 C   0  0  0  0  0  1  0  0  0  0  0  0
  190.8900  176.1110  139.0420 O   0  0  0  0  0  0  0  0  0  0  0  0
  191.3140  176.5580  137.7820 C   0  0  2  0  0  3  0  0  0  0  0  0
  190.7240  174.7500  136.2850 C   0  0  0  0  0  2  0  0  0  0  0  0
  190.1020  177.0070  136.9890 C   0  0  0  0  0  2  0  0  0  0  0  0
  191.9090  175.4190  136.9600 C   0  0  1  0  0  0  0  0  0  0  0  0
  192.7400  175.9570  135.9910 F   0  0  0  0  0  0  0  0  0  0  0  0
  189.6210  175.7930  136.2130 C   0  0  0  0  0  2  0  0  0  0  0  0
  192.6990  174.4290  137.8170 C   0  0  0  0  0  2  0  0  0  0  0  0
  194.1150  174.4550  137.4750 N   0  0  0  0  0  0  0  0  0  0  0  0
  196.3830  175.2090  140.2270 N   0  0  0  0  0  1  0  0  0  0  0  0
  195.5620  173.3740  138.9500 N   0  0  0  0  0  0  0  0  0  0  0  0
  195.5880  174.6290  139.2000 C   0  0  0  0  0  0  0  0  0  0  0  0
  194.6630  173.2240  137.8910 N   0  0  0  0  0  2  0  0  0  0  0  0
  194.7300  175.3680  138.3510 N   0  0  0  0  0  2  0  0  0  0  0  0
  183.9000  177.8460  141.6270 C   0  0  0  0  0  2  0  0  0  0  0  0
  180.4680  178.6150  140.1410 C   0  0  0  0  0  2  0  0  0  0  0  0
  180.3180  177.1930  139.5780 C   0  0  0  0  0  0  0  0  0  0  0  0
  179.2940  176.4400  140.4040 C   0  0  0  0  0  1  0  0  0  0  0  0
  182.8490  177.3110  139.4220 C   0  0  0  0  0  2  0  0  0  0  0  0
  181.5870  178.7000  141.1750 C   0  0  0  0  0  2  0  0  0  0  0  0
  182.9470  178.3470  140.5520 C   0  0  0  0  0  3  0  0  0  0  0  0
  179.8100  177.2880  138.1540 C   0  0  0  0  0  1  0  0  0  0  0  0
  181.6340  176.4000  139.5910 C   0  0  0  0  0  2  0  0  0  0  0  0
  1  6  1  1  0  0  0
  2 11  1  0  0  0  0
  2 12  1  0  0  0  0
  3 10  1  0  0  0  0
  4  8  1  0  0  0  0
  5  1  1  0  0  0  0
  7  9  1  0  0  0  0
  7  4  2  0  0  0  0
  8  1  1  0  0  0  0
  9  5  2  0  0  0  0
 11 10  1  6  0  0  0
 11  7  1  0  0  0  0
 12 15  2  0  0  0  0
 13  2  2  0  0  0  0
 14  3  2  0  0  0  0
 14 13  1  0  0  0  0
 15  4  1  0  0  0  0
 16 17  1  1  0  0  0
 16 18  1  0  0  0  0
 16  3  1  0  0  0  0
 19 20  1  1  0  0  0
 19 18  1  0  0  0  0
 21 19  1  0  0  0  0
 22 21  1  1  0  0  0
 23 25  1  0  0  0  0
 24 22  1  0  0  0  0
 25 26  1  6  0  0  0
 25 22  1  0  0  0  0
 25 28  1  0  0  0  0
 27 23  1  0  0  0  0
 27 24  1  0  0  0  0
 29 28  1  0  0  0  0
 29 33  1  0  0  0  0
 29 34  1  0  0  0  0
 31 32  2  0  0  0  0
 32 30  1  0  0  0  0
 33 31  1  0  0  0  0
 34 32  1  0  0  0  0
 35 13  1  0  0  0  0
 36 40  1  0  0  0  0
 37 43  1  0  0  0  0
 37 36  1  0  0  0  0
 37 38  1  0  0  0  0
 39 43  1  0  0  0  0
 39 41  1  0  0  0  0
 41 40  1  0  0  0  0
 41 35  1  0  0  0  0
 42 37  1  0  0  0  0
M  END
>  <MODEL>
1

>  <REMARK>
 VINA RESULT:     -10.1      0.000      0.000
  Name = 
  9 active torsions:
  status: ('A' for Active; 'I' for Inactive)
    1  A    between atoms: C_1  and  C_34
    2  A    between atoms: C_1  and  C_35
    3  A    between atoms: C_2  and  C_6
    4  A    between atoms: C_2  and  C_13
    5  A    between atoms: O_3  and  C_4
    6  A    between atoms: O_3  and  C_12
    7  A    between atoms: C_6  and  C_12
    8  A    between atoms: N_11  and  C_14
    9  A    between atoms: C_14  and  C_22
                            x       y       z     vdW  Elec       q    Type
                         _______ _______ _______ _____ _____    ______ ____

>  <TORSDO>
F 9

$$$$
=
 OpenBabel10262422063D

 43 48  0  0  1  0  0  0  0  0999 V2000
  187.6110  177.3520  147.5250 C   0  0  1  0  0  3  0  0  0  0  0  0
  185.3630  178.7510  143.1830 C   0  0  0  0  0  0  0  0  0  0  0  0
  187.2990  178.3410  141.1420 C   0  0  0  0  0  0  0  0  0  0  0  0
  186.1180  178.4870  145.8730 C   0  0  0  0  0  0  0  0  0  0  0  0
  188.6890  177.4060  146.4760 C   0  0  0  0  0  3  0  0  0  0  0  0
  188.1760  177.4840  148.7920 O   0  0  0  0  0  1  0  0  0  0  0  0
  187.0440  178.1920  144.8520 C   0  0  0  0  0  0  0  0  0  0  0  0
  186.5490  178.4370  147.3120 C   0  0  0  0  0  2  0  0  0  0  0  0
  188.4050  177.7580  145.2180 C   0  0  0  0  0  3  0  0  0  0  0  0
  187.5930  178.0930  142.4870 O   0  0  0  0  0  0  0  0  0  0  0  0
  186.6690  178.3380  143.5080 C   0  0  2  0  0  3  0  0  0  0  0  0
  184.4540  179.0490  144.2070 C   0  0  0  0  0  3  0  0  0  0  0  0
  184.9270  178.8470  141.7450 C   0  0  0  0  0  0  0  0  0  0  0  0
  186.0730  178.7300  140.7710 C   0  0  0  0  0  3  0  0  0  0  0  0
  184.8340  178.9270  145.5460 C   0  0  0  0  0  3  0  0  0  0  0  0
  188.3910  178.1970  140.1320 C   0  0  1  0  0  3  0  0  0  0  0  0
  189.5460  177.6830  140.7260 O   0  0  0  0  0  1  0  0  0  0  0  0
  187.9470  177.3080  138.9790 C   0  0  0  0  0  2  0  0  0  0  0  0
  188.8390  177.5120  137.7660 C   0  0  1  0  0  3  0  0  0  0  0  0
  189.2010  178.9800  137.6590 C   0  0  0  0  0  1  0  0  0  0  0  0
  190.0070  176.7530  137.9020 O   0  0  0  0  0  0  0  0  0  0  0  0
  190.2550  176.2240  136.6280 C   0  0  2  0  0  3  0  0  0  0  0  0
  190.3140  173.8310  136.9830 C   0  0  0  0  0  2  0  0  0  0  0  0
  188.9630  175.6540  136.0740 C   0  0  0  0  0  2  0  0  0  0  0  0
  191.2010  175.0290  136.6970 C   0  0  1  0  0  0  0  0  0  0  0  0
  191.8010  174.8660  135.4590 F   0  0  0  0  0  0  0  0  0  0  0  0
  188.9230  174.1940  136.4910 C   0  0  0  0  0  2  0  0  0  0  0  0
  192.2790  175.1990  137.7670 C   0  0  0  0  0  2  0  0  0  0  0  0
  193.6040  174.9310  137.2230 N   0  0  0  0  0  0  0  0  0  0  0  0
  196.3130  174.8310  139.6620 N   0  0  0  0  0  1  0  0  0  0  0  0
  194.9140  173.3880  138.3830 N   0  0  0  0  0  0  0  0  0  0  0  0
  195.2790  174.5680  138.7220 C   0  0  0  0  0  0  0  0  0  0  0  0
  193.8800  173.5690  137.4600 N   0  0  0  0  0  2  0  0  0  0  0  0
  194.5300  175.5750  138.0660 N   0  0  0  0  0  2  0  0  0  0  0  0
  183.8900  177.7710  141.4450 C   0  0  0  0  0  2  0  0  0  0  0  0
  180.3440  178.5720  140.2770 C   0  0  0  0  0  2  0  0  0  0  0  0
  180.1170  177.1410  139.7670 C   0  0  0  0  0  0  0  0  0  0  0  0
  179.1650  176.4270  140.7060 C   0  0  0  0  0  1  0  0  0  0  0  0
  182.6230  177.2070  139.3650 C   0  0  0  0  0  2  0  0  0  0  0  0
  181.5590  178.6600  141.1970 C   0  0  0  0  0  2  0  0  0  0  0  0
  182.8460  178.2660  140.4540 C   0  0  0  0  0  3  0  0  0  0  0  0
  179.4740  177.2140  138.3970 C   0  0  0  0  0  1  0  0  0  0  0  0
  181.4140  176.3230  139.6720 C   0  0  0  0  0  2  0  0  0  0  0  0
  1  6  1  1  0  0  0
  2 11  1  0  0  0  0
  2 12  1  0  0  0  0
  3 10  1  0  0  0  0
  4  8  1  0  0  0  0
  5  1  1  0  0  0  0
  7  9  1  0  0  0  0
  7  4  2  0  0  0  0
  8  1  1  0  0  0  0
  9  5  2  0  0  0  0
 11 10  1  1  0  0  0
 11  7  1  0  0  0  0
 12 15  2  0  0  0  0
 13  2  2  0  0  0  0
 14  3  2  0  0  0  0
 14 13  1  0  0  0  0
 15  4  1  0  0  0  0
 16 17  1  1  0  0  0
 16  3  1  0  0  0  0
 18 16  1  0  0  0  0
 19 20  1  1  0  0  0
 19 21  1  0  0  0  0
 19 18  1  0  0  0  0
 22 25  1  0  0  0  0
 22 21  1  1  0  0  0
 24 27  1  0  0  0  0
 24 22  1  0  0  0  0
 25 26  1  6  0  0  0
 25 23  1  0  0  0  0
 25 28  1  0  0  0  0
 27 23  1  0  0  0  0
 29 33  1  0  0  0  0
 29 28  1  0  0  0  0
 29 34  1  0  0  0  0
 31 32  2  0  0  0  0
 32 30  1  0  0  0  0
 33 31  1  0  0  0  0
 34 32  1  0  0  0  0
 35 13  1  0  0  0  0
 36 40  1  0  0  0  0
 37 36  1  0  0  0  0
 37 38  1  0  0  0  0
 39 43  1  0  0  0  0
 39 41  1  0  0  0  0
 41 40  1  0  0  0  0
 41 35  1  0  0  0  0
 42 37  1  0  0  0  0
 43 37  1  0  0  0  0
M  END
>  <MODEL>
2

>  <REMARK>
 VINA RESULT:      -9.4      0.985      1.178
  Name = 
  9 active torsions:
  status: ('A' for Active; 'I' for Inactive)
    1  A    between atoms: C_1  and  C_34
    2  A    between atoms: C_1  and  C_35
    3  A    between atoms: C_2  and  C_6
    4  A    between atoms: C_2  and  C_13
    5  A    between atoms: O_3  and  C_4
    6  A    between atoms: O_3  and  C_12
    7  A    between atoms: C_6  and  C_12
    8  A    between atoms: N_11  and  C_14
    9  A    between atoms: C_14  and  C_22
                            x       y       z     vdW  Elec       q    Type
                         _______ _______ _______ _____ _____    ______ ____

>  <TORSDO>
F 9

$$$$
=
 OpenBabel10262422063D

 43 48  0  0  1  0  0  0  0  0999 V2000
  191.6730  176.8560  146.9960 C   0  0  1  0  0  3  0  0  0  0  0  0
  189.1650  177.0400  142.5770 C   0  0  0  0  0  0  0  0  0  0  0  0
  186.5590  177.9870  143.2040 C   0  0  0  0  0  0  0  0  0  0  0  0
  190.9330  176.3890  144.6550 C   0  0  0  0  0  0  0  0  0  0  0  0
  190.2240  177.0890  147.3290 C   0  0  0  0  0  3  0  0  0  0  0  0
  192.3270  176.2960  148.0920 O   0  0  0  0  0  1  0  0  0  0  0  0
  189.6750  176.9490  144.9540 C   0  0  0  0  0  0  0  0  0  0  0  0
  191.8410  175.9520  145.7700 C   0  0  0  0  0  2  0  0  0  0  0  0
  189.3030  177.1750  146.3630 C   0  0  0  0  0  3  0  0  0  0  0  0
  187.5180  177.7760  144.2000 O   0  0  0  0  0  0  0  0  0  0  0  0
  188.7870  177.2620  143.9140 C   0  0  0  0  0  0  0  0  0  0  0  0
  190.4150  176.4750  142.2930 C   0  0  0  0  0  2  0  0  0  0  0  0
  188.2490  177.4330  141.4480 C   0  0  0  0  0  0  0  0  0  0  0  0
  186.8620  177.8000  141.9130 C   0  0  0  0  0  3  0  0  0  0  0  0
  191.2910  176.1400  143.3290 C   0  0  0  0  0  3  0  0  0  0  0  0
  185.1800  178.3940  143.6120 C   0  0  1  0  0  3  0  0  0  0  0  0
  185.2140  179.1280  144.8000 O   0  0  0  0  0  1  0  0  0  0  0  0
  184.5060  179.2000  142.5110 C   0  0  0  0  0  2  0  0  0  0  0  0
  183.2110  178.5370  142.0720 C   0  0  1  0  0  3  0  0  0  0  0  0
  182.1130  178.9010  143.0520 C   0  0  0  0  0  1  0  0  0  0  0  0
  182.8590  178.9830  140.7930 O   0  0  0  0  0  0  0  0  0  0  0  0
  182.1030  177.9430  140.2340 C   0  0  2  0  0  3  0  0  0  0  0  0
  182.4750  178.1570  137.8530 C   0  0  0  0  0  2  0  0  0  0  0  0
  183.0390  176.8230  139.8220 C   0  0  0  0  0  2  0  0  0  0  0  0
  181.4330  178.3790  138.9340 C   0  0  1  0  0  0  0  0  0  0  0  0
  180.3460  177.5550  138.6960 F   0  0  0  0  0  0  0  0  0  0  0  0
  183.4270  177.0950  138.3790 C   0  0  0  0  0  2  0  0  0  0  0  0
  180.9690  179.8350  138.9760 C   0  0  0  0  0  2  0  0  0  0  0  0
  181.5460  180.6010  137.8780 N   0  0  0  0  0  0  0  0  0  0  0  0
  179.3330  183.0580  136.3430 N   0  0  0  0  0  1  0  0  0  0  0  0
  181.1410  182.8980  137.8840 N   0  0  0  0  0  0  0  0  0  0  0  0
  180.3170  182.3410  137.0780 C   0  0  0  0  0  0  0  0  0  0  0  0
  181.9180  181.8560  138.4010 N   0  0  0  0  0  2  0  0  0  0  0  0
  180.4870  180.9370  137.0140 N   0  0  0  0  0  2  0  0  0  0  0  0
  188.8510  178.5990  140.6720 C   0  0  0  0  0  2  0  0  0  0  0  0
  189.0400  178.5220  136.8600 C   0  0  0  0  0  2  0  0  0  0  0  0
  187.9720  177.4220  136.7610 C   0  0  0  0  0  0  0  0  0  0  0  0
  186.6850  178.0280  136.2380 C   0  0  0  0  0  1  0  0  0  0  0  0
  188.9100  176.7270  139.0160 C   0  0  0  0  0  2  0  0  0  0  0  0
  189.0610  179.1710  138.2410 C   0  0  0  0  0  2  0  0  0  0  0  0
  189.4090  178.1450  139.3310 C   0  0  0  0  0  3  0  0  0  0  0  0
  188.4460  176.3750  135.7740 C   0  0  0  0  0  1  0  0  0  0  0  0
  187.6790  176.7460  138.1100 C   0  0  0  0  0  2  0  0  0  0  0  0
  1  5  1  0  0  0  0
  1  6  1  1  0  0  0
  2 11  1  0  0  0  0
  3 16  1  0  0  0  0
  3 10  1  0  0  0  0
  4  7  1  0  0  0  0
  4  8  1  0  0  0  0
  7  9  1  0  0  0  0
  8  1  1  0  0  0  0
  9  5  2  0  0  0  0
 11 10  1  0  0  0  0
 11  7  2  0  0  0  0
 12  2  1  0  0  0  0
 12 15  1  0  0  0  0
 13 14  1  0  0  0  0
 13  2  2  0  0  0  0
 14  3  2  0  0  0  0
 15  4  2  0  0  0  0
 16 17  1  1  0  0  0
 18 16  1  0  0  0  0
 19 18  1  0  0  0  0
 19 20  1  1  0  0  0
 21 19  1  0  0  0  0
 22 21  1  6  0  0  0
 23 27  1  0  0  0  0
 23 25  1  0  0  0  0
 24 22  1  0  0  0  0
 25 26  1  6  0  0  0
 25 28  1  0  0  0  0
 25 22  1  0  0  0  0
 27 24  1  0  0  0  0
 29 33  1  0  0  0  0
 29 28  1  0  0  0  0
 30 32  1  0  0  0  0
 31 33  1  0  0  0  0
 32 31  2  0  0  0  0
 34 32  1  0  0  0  0
 34 29  1  0  0  0  0
 35 13  1  0  0  0  0
 36 40  1  0  0  0  0
 37 36  1  0  0  0  0
 37 43  1  0  0  0  0
 38 37  1  0  0  0  0
 39 41  1  0  0  0  0
 40 41  1  0  0  0  0
 41 35  1  0  0  0  0
 42 37  1  0  0  0  0
 43 39  1  0  0  0  0
M  END
>  <MODEL>
3

>  <REMARK>
 VINA RESULT:      -9.2      5.995      8.981
  Name = 
  9 active torsions:
  status: ('A' for Active; 'I' for Inactive)
    1  A    between atoms: C_1  and  C_34
    2  A    between atoms: C_1  and  C_35
    3  A    between atoms: C_2  and  C_6
    4  A    between atoms: C_2  and  C_13
    5  A    between atoms: O_3  and  C_4
    6  A    between atoms: O_3  and  C_12
    7  A    between atoms: C_6  and  C_12
    8  A    between atoms: N_11  and  C_14
    9  A    between atoms: C_14  and  C_22
                            x       y       z     vdW  Elec       q    Type
                         _______ _______ _______ _____ _____    ______ ____

>  <TORSDO>
F 9

$$$$
=
 OpenBabel10262422063D

 43 48  0  0  1  0  0  0  0  0999 V2000
  187.8510  177.1580  147.2410 C   0  0  1  0  0  3  0  0  0  0  0  0
  185.5360  178.6470  142.9660 C   0  0  0  0  0  0  0  0  0  0  0  0
  187.4470  178.3020  140.8900 C   0  0  0  0  0  0  0  0  0  0  0  0
  186.3280  178.3220  145.6370 C   0  0  0  0  0  0  0  0  0  0  0  0
  188.9140  177.2450  146.1790 C   0  0  0  0  0  3  0  0  0  0  0  0
  188.4320  177.2620  148.5030 O   0  0  0  0  0  1  0  0  0  0  0  0
  187.2420  178.0590  144.5980 C   0  0  0  0  0  0  0  0  0  0  0  0
  186.7790  178.2390  147.0690 C   0  0  0  0  0  2  0  0  0  0  0  0
  188.6110  177.6260  144.9350 C   0  0  0  0  0  3  0  0  0  0  0  0
  187.7610  178.0220  142.2240 O   0  0  0  0  0  0  0  0  0  0  0  0
  186.8490  178.2350  143.2630 C   0  0  2  0  0  3  0  0  0  0  0  0
  184.6390  178.9130  144.0080 C   0  0  0  0  0  3  0  0  0  0  0  0
  185.0800  178.7750  141.5360 C   0  0  0  0  0  0  0  0  0  0  0  0
  186.2130  178.6910  140.5450 C   0  0  0  0  0  3  0  0  0  0  0  0
  185.0370  178.7610  145.3390 C   0  0  0  0  0  3  0  0  0  0  0  0
  188.5270  178.1900  139.8620 C   0  0  1  0  0  3  0  0  0  0  0  0
  189.7370  177.8240  140.4560 O   0  0  0  0  0  1  0  0  0  0  0  0
  188.1430  177.1900  138.7810 C   0  0  0  0  0  2  0  0  0  0  0  0
  187.9590  177.8850  137.4420 C   0  0  1  0  0  3  0  0  0  0  0  0
  188.8780  179.0880  137.3800 C   0  0  0  0  0  1  0  0  0  0  0  0
  188.2750  177.0040  136.4020 O   0  0  0  0  0  0  0  0  0  0  0  0
  189.0970  176.0280  136.9820 C   0  0  2  0  0  3  0  0  0  0  0  0
  189.6100  174.5260  135.1550 C   0  0  0  0  0  2  0  0  0  0  0  0
  190.5340  176.2900  136.5730 C   0  0  0  0  0  2  0  0  0  0  0  0
  188.7890  174.6400  136.4270 C   0  0  1  0  0  0  0  0  0  0  0  0
  189.2250  173.6910  137.3360 F   0  0  0  0  0  0  0  0  0  0  0  0
  190.7710  175.4970  135.2990 C   0  0  0  0  0  2  0  0  0  0  0  0
  187.2990  174.4380  136.1540 C   0  0  0  0  0  2  0  0  0  0  0  0
  186.5520  174.3020  137.3970 N   0  0  0  0  0  0  0  0  0  0  0  0
  182.9250  174.1880  137.0470 N   0  0  0  0  0  1  0  0  0  0  0  0
  184.8000  172.7620  137.3980 N   0  0  0  0  0  0  0  0  0  0  0  0
  184.3130  173.9330  137.2200 C   0  0  0  0  0  0  0  0  0  0  0  0
  186.1810  172.9470  137.5110 N   0  0  0  0  0  2  0  0  0  0  0  0
  185.3110  174.9370  137.2000 N   0  0  0  0  0  2  0  0  0  0  0  0
  184.0470  177.7000  141.2230 C   0  0  0  0  0  2  0  0  0  0  0  0
  180.3930  178.5040  140.4600 C   0  0  0  0  0  2  0  0  0  0  0  0
  180.1470  177.1190  139.8420 C   0  0  0  0  0  0  0  0  0  0  0  0
  179.3000  176.2970  140.7930 C   0  0  0  0  0  1  0  0  0  0  0  0
  182.6030  177.2900  139.2230 C   0  0  0  0  0  2  0  0  0  0  0  0
  181.6860  178.5420  141.2690 C   0  0  0  0  0  2  0  0  0  0  0  0
  182.9070  178.2530  140.3810 C   0  0  0  0  0  3  0  0  0  0  0  0
  179.3790  177.2970  138.5480 C   0  0  0  0  0  1  0  0  0  0  0  0
  181.4460  176.3490  139.5550 C   0  0  0  0  0  2  0  0  0  0  0  0
  1  6  1  1  0  0  0
  2 11  1  0  0  0  0
  2 12  1  0  0  0  0
  3 10  1  0  0  0  0
  4  8  1  0  0  0  0
  5  1  1  0  0  0  0
  7  9  1  0  0  0  0
  7  4  2  0  0  0  0
  8  1  1  0  0  0  0
  9  5  2  0  0  0  0
 11 10  1  1  0  0  0
 11  7  1  0  0  0  0
 12 15  2  0  0  0  0
 13  2  2  0  0  0  0
 14  3  2  0  0  0  0
 14 13  1  0  0  0  0
 15  4  1  0  0  0  0
 16 17  1  1  0  0  0
 16  3  1  0  0  0  0
 18 16  1  0  0  0  0
 19 20  1  1  0  0  0
 19 18  1  0  0  0  0
 21 19  1  0  0  0  0
 22 21  1  6  0  0  0
 23 27  1  0  0  0  0
 23 25  1  0  0  0  0
 24 22  1  0  0  0  0
 25 22  1  0  0  0  0
 25 26  1  1  0  0  0
 27 24  1  0  0  0  0
 28 25  1  0  0  0  0
 28 29  1  0  0  0  0
 29 33  1  0  0  0  0
 30 32  1  0  0  0  0
 31 33  1  0  0  0  0
 32 31  2  0  0  0  0
 34 32  1  0  0  0  0
 34 29  1  0  0  0  0
 35 13  1  0  0  0  0
 36 40  1  0  0  0  0
 37 36  1  0  0  0  0
 37 38  1  0  0  0  0
 39 43  1  0  0  0  0
 39 41  1  0  0  0  0
 41 35  1  0  0  0  0
 41 40  1  0  0  0  0
 42 37  1  0  0  0  0
 43 37  1  0  0  0  0
M  END
>  <MODEL>
4

>  <REMARK>
 VINA RESULT:      -9.1      3.419      4.314
  Name = 
  9 active torsions:
  status: ('A' for Active; 'I' for Inactive)
    1  A    between atoms: C_1  and  C_34
    2  A    between atoms: C_1  and  C_35
    3  A    between atoms: C_2  and  C_6
    4  A    between atoms: C_2  and  C_13
    5  A    between atoms: O_3  and  C_4
    6  A    between atoms: O_3  and  C_12
    7  A    between atoms: C_6  and  C_12
    8  A    between atoms: N_11  and  C_14
    9  A    between atoms: C_14  and  C_22
                            x       y       z     vdW  Elec       q    Type
                         _______ _______ _______ _____ _____    ______ ____

>  <TORSDO>
F 9

$$$$
=
 OpenBabel10262422063D

 43 48  0  0  1  0  0  0  0  0999 V2000
  184.3730  177.0140  135.6530 C   0  0  1  0  0  3  0  0  0  0  0  0
  189.2040  177.0640  137.2390 C   0  0  0  0  0  0  0  0  0  0  0  0
  189.0930  177.5140  140.0430 C   0  0  0  0  0  0  0  0  0  0  0  0
  186.8580  177.2750  135.7150 C   0  0  0  0  0  0  0  0  0  0  0  0
  184.3590  177.5170  137.0710 C   0  0  0  0  0  3  0  0  0  0  0  0
  183.2240  177.4370  134.9880 O   0  0  0  0  0  1  0  0  0  0  0  0
  186.7970  177.4010  137.1170 C   0  0  0  0  0  0  0  0  0  0  0  0
  185.6180  177.4810  134.8910 C   0  0  0  0  0  2  0  0  0  0  0  0
  185.4950  177.6530  137.7620 C   0  0  0  0  0  3  0  0  0  0  0  0
  187.9320  177.4770  139.2640 O   0  0  0  0  0  0  0  0  0  0  0  0
  187.9740  177.3080  137.8760 C   0  0  0  0  0  0  0  0  0  0  0  0
  189.2530  176.9490  135.8430 C   0  0  0  0  0  2  0  0  0  0  0  0
  190.4630  176.8960  138.0470 C   0  0  0  0  0  0  0  0  0  0  0  0
  190.2930  177.2820  139.4950 C   0  0  0  0  0  3  0  0  0  0  0  0
  188.0860  177.0640  135.0840 C   0  0  0  0  0  3  0  0  0  0  0  0
  188.9710  177.8500  141.4940 C   0  0  1  0  0  3  0  0  0  0  0  0
  187.6660  178.2420  141.8010 O   0  0  0  0  0  1  0  0  0  0  0  0
  189.3860  176.6680  142.3590 C   0  0  0  0  0  2  0  0  0  0  0  0
  189.9540  177.1440  143.6870 C   0  0  1  0  0  3  0  0  0  0  0  0
  190.3160  178.6110  143.5730 C   0  0  0  0  0  1  0  0  0  0  0  0
  189.0000  176.9770  144.6970 O   0  0  0  0  0  0  0  0  0  0  0  0
  189.4240  177.8040  145.7470 C   0  0  2  0  0  3  0  0  0  0  0  0
  189.0310  176.4840  147.7360 C   0  0  0  0  0  2  0  0  0  0  0  0
  190.7740  177.3180  146.2390 C   0  0  0  0  0  2  0  0  0  0  0  0
  188.5070  177.6790  146.9590 C   0  0  1  0  0  0  0  0  0  0  0  0
  188.6380  178.8180  147.7350 F   0  0  0  0  0  0  0  0  0  0  0  0
  190.4940  176.3260  147.3550 C   0  0  0  0  0  2  0  0  0  0  0  0
  187.0410  177.4950  146.5670 C   0  0  0  0  0  2  0  0  0  0  0  0
  186.4340  178.7670  146.1990 N   0  0  0  0  0  0  0  0  0  0  0  0
  183.7090  178.5680  143.7860 N   0  0  0  0  0  1  0  0  0  0  0  0
  184.1040  178.8250  146.1200 N   0  0  0  0  0  0  0  0  0  0  0  0
  184.5480  178.6800  144.9280 C   0  0  0  0  0  0  0  0  0  0  0  0
  185.2370  178.8820  146.9360 N   0  0  0  0  0  2  0  0  0  0  0  0
  185.9620  178.6290  144.8810 N   0  0  0  0  0  2  0  0  0  0  0  0
  190.9490  175.4540  137.9570 C   0  0  0  0  0  2  0  0  0  0  0  0
  193.9060  173.6510  136.3490 C   0  0  0  0  0  2  0  0  0  0  0  0
  194.8770  174.1300  137.4390 C   0  0  0  0  0  0  0  0  0  0  0  0
  195.2290  172.9590  138.3360 C   0  0  0  0  0  1  0  0  0  0  0  0
  193.3170  176.1310  137.5290 C   0  0  0  0  0  2  0  0  0  0  0  0
  192.4490  173.8380  136.7660 C   0  0  0  0  0  2  0  0  0  0  0  0
  192.1240  175.3210  137.0000 C   0  0  0  0  0  3  0  0  0  0  0  0
  196.1460  174.6220  136.7730 C   0  0  0  0  0  1  0  0  0  0  0  0
  194.2970  175.2550  138.3100 C   0  0  0  0  0  2  0  0  0  0  0  0
  1  6  1  6  0  0  0
  1  5  1  0  0  0  0
  2 11  1  0  0  0  0
  2 13  2  0  0  0  0
  3 16  1  0  0  0  0
  4  7  1  0  0  0  0
  5  9  2  0  0  0  0
  7  9  1  0  0  0  0
  7 11  2  0  0  0  0
  8  1  1  0  0  0  0
  8  4  1  0  0  0  0
 10  3  1  0  0  0  0
 11 10  1  0  0  0  0
 12  2  1  0  0  0  0
 13 14  1  0  0  0  0
 14  3  2  0  0  0  0
 15  4  2  0  0  0  0
 15 12  1  0  0  0  0
 16 17  1  6  0  0  0
 16 18  1  0  0  0  0
 18 19  1  0  0  0  0
 19 20  1  6  0  0  0
 19 21  1  0  0  0  0
 22 21  1  6  0  0  0
 22 24  1  0  0  0  0
 22 25  1  0  0  0  0
 24 27  1  0  0  0  0
 25 26  1  1  0  0  0
 25 23  1  0  0  0  0
 27 23  1  0  0  0  0
 28 25  1  0  0  0  0
 29 28  1  0  0  0  0
 29 33  1  0  0  0  0
 30 32  1  0  0  0  0
 31 33  1  0  0  0  0
 32 31  2  0  0  0  0
 34 32  1  0  0  0  0
 34 29  1  0  0  0  0
 35 13  1  0  0  0  0
 36 40  1  0  0  0  0
 36 37  1  0  0  0  0
 37 43  1  0  0  0  0
 37 38  1  0  0  0  0
 39 43  1  0  0  0  0
 40 41  1  0  0  0  0
 41 39  1  0  0  0  0
 41 35  1  0  0  0  0
 42 37  1  0  0  0  0
M  END
>  <MODEL>
5

>  <REMARK>
 VINA RESULT:      -9.1      5.216     10.585
  Name = 
  9 active torsions:
  status: ('A' for Active; 'I' for Inactive)
    1  A    between atoms: C_1  and  C_34
    2  A    between atoms: C_1  and  C_35
    3  A    between atoms: C_2  and  C_6
    4  A    between atoms: C_2  and  C_13
    5  A    between atoms: O_3  and  C_4
    6  A    between atoms: O_3  and  C_12
    7  A    between atoms: C_6  and  C_12
    8  A    between atoms: N_11  and  C_14
    9  A    between atoms: C_14  and  C_22
                            x       y       z     vdW  Elec       q    Type
                         _______ _______ _______ _____ _____    ______ ____

>  <TORSDO>
F 9

$$$$
=
 OpenBabel10262422063D

 43 48  0  0  1  0  0  0  0  0999 V2000
  193.3980  174.5460  136.4500 C   0  0  1  0  0  3  0  0  0  0  0  0
  190.6350  177.4970  139.5340 C   0  0  0  0  0  0  0  0  0  0  0  0
  188.1510  177.8900  138.2090 C   0  0  0  0  0  0  0  0  0  0  0  0
  192.7360  176.2280  138.1770 C   0  0  0  0  0  0  0  0  0  0  0  0
  192.1960  174.9920  135.6620 C   0  0  0  0  0  3  0  0  0  0  0  0
  194.4270  174.1850  135.5820 O   0  0  0  0  0  1  0  0  0  0  0  0
  191.4730  176.3420  137.5640 C   0  0  0  0  0  0  0  0  0  0  0  0
  193.8870  175.6330  137.4140 C   0  0  0  0  0  2  0  0  0  0  0  0
  191.2790  175.7970  136.2070 C   0  0  0  0  0  3  0  0  0  0  0  0
  189.1810  177.1470  137.6230 O   0  0  0  0  0  0  0  0  0  0  0  0
  190.4270  176.9890  138.2390 C   0  0  2  0  0  3  0  0  0  0  0  0
  191.8980  177.3860  140.1300 C   0  0  0  0  0  3  0  0  0  0  0  0
  189.5030  178.1350  140.2960 C   0  0  0  0  0  0  0  0  0  0  0  0
  188.2880  178.3940  139.4420 C   0  0  0  0  0  3  0  0  0  0  0  0
  192.9480  176.7630  139.4490 C   0  0  0  0  0  3  0  0  0  0  0  0
  186.9070  178.1380  137.4180 C   0  0  1  0  0  3  0  0  0  0  0  0
  187.0770  179.2290  136.5620 O   0  0  0  0  0  1  0  0  0  0  0  0
  186.5150  176.8990  136.6260 C   0  0  0  0  0  2  0  0  0  0  0  0
  185.0180  176.6510  136.7180 C   0  0  1  0  0  3  0  0  0  0  0  0
  184.7810  175.2280  137.1840 C   0  0  0  0  0  1  0  0  0  0  0  0
  184.4450  177.5410  137.6320 O   0  0  0  0  0  0  0  0  0  0  0  0
  183.1090  177.1350  137.7560 C   0  0  2  0  0  3  0  0  0  0  0  0
  182.0020  179.0420  138.7530 C   0  0  0  0  0  2  0  0  0  0  0  0
  182.2910  177.8020  136.6660 C   0  0  0  0  0  2  0  0  0  0  0  0
  182.4930  177.6390  139.0580 C   0  0  1  0  0  0  0  0  0  0  0  0
  181.4100  176.8370  139.3760 F   0  0  0  0  0  0  0  0  0  0  0  0
  181.7760  179.1070  137.2510 C   0  0  0  0  0  2  0  0  0  0  0  0
  183.4900  177.6320  140.2170 C   0  0  0  0  0  2  0  0  0  0  0  0
  183.6270  178.9610  140.7980 N   0  0  0  0  0  0  0  0  0  0  0  0
  185.1670  179.0810  144.1000 N   0  0  0  0  0  1  0  0  0  0  0  0
  185.6740  179.4520  141.8030 N   0  0  0  0  0  0  0  0  0  0  0  0
  184.8390  179.1260  142.7170 C   0  0  0  0  0  0  0  0  0  0  0  0
  184.9650  179.3610  140.6010 N   0  0  0  0  0  2  0  0  0  0  0  0
  183.5630  178.8050  142.1950 N   0  0  0  0  0  2  0  0  0  0  0  0
  189.1160  177.2570  141.4810 C   0  0  0  0  0  2  0  0  0  0  0  0
  190.4610  178.6910  144.7540 C   0  0  0  0  0  2  0  0  0  0  0  0
  190.0680  177.4340  145.5440 C   0  0  0  0  0  0  0  0  0  0  0  0
  191.3230  176.6570  145.8910 C   0  0  0  0  0  1  0  0  0  0  0  0
  188.2170  177.2890  143.8130 C   0  0  0  0  0  2  0  0  0  0  0  0
  190.4400  178.4440  143.2480 C   0  0  0  0  0  2  0  0  0  0  0  0
  189.0300  178.0650  142.7670 C   0  0  0  0  0  3  0  0  0  0  0  0
  189.3980  177.8640  146.8330 C   0  0  0  0  0  1  0  0  0  0  0  0
  189.1190  176.5070  144.7680 C   0  0  0  0  0  2  0  0  0  0  0  0
  1  6  1  6  0  0  0
  1  8  1  0  0  0  0
  2 12  1  0  0  0  0
  2 13  2  0  0  0  0
  3 14  2  0  0  0  0
  4 15  1  0  0  0  0
  5  9  2  0  0  0  0
  5  1  1  0  0  0  0
  7  4  2  0  0  0  0
  8  4  1  0  0  0  0
  9  7  1  0  0  0  0
 10  3  1  0  0  0  0
 10 11  1  0  0  0  0
 11  7  1  6  0  0  0
 11  2  1  0  0  0  0
 13 35  1  0  0  0  0
 14 13  1  0  0  0  0
 15 12  2  0  0  0  0
 16 17  1  6  0  0  0
 16  3  1  0  0  0  0
 18 19  1  0  0  0  0
 18 16  1  0  0  0  0
 19 20  1  1  0  0  0
 19 21  1  0  0  0  0
 22 21  1  6  0  0  0
 22 25  1  0  0  0  0
 23 25  1  0  0  0  0
 24 27  1  0  0  0  0
 24 22  1  0  0  0  0
 25 26  1  1  0  0  0
 25 28  1  0  0  0  0
 27 23  1  0  0  0  0
 28 29  1  0  0  0  0
 29 34  1  0  0  0  0
 31 32  2  0  0  0  0
 32 30  1  0  0  0  0
 33 29  1  0  0  0  0
 33 31  1  0  0  0  0
 34 32  1  0  0  0  0
 35 41  1  0  0  0  0
 36 37  1  0  0  0  0
 37 38  1  0  0  0  0
 37 42  1  0  0  0  0
 39 43  1  0  0  0  0
 40 36  1  0  0  0  0
 41 40  1  0  0  0  0
 41 39  1  0  0  0  0
 43 37  1  0  0  0  0
M  END
>  <MODEL>
6

>  <REMARK>
 VINA RESULT:      -9.0      4.960      9.501
  Name = 
  9 active torsions:
  status: ('A' for Active; 'I' for Inactive)
    1  A    between atoms: C_1  and  C_34
    2  A    between atoms: C_1  and  C_35
    3  A    between atoms: C_2  and  C_6
    4  A    between atoms: C_2  and  C_13
    5  A    between atoms: O_3  and  C_4
    6  A    between atoms: O_3  and  C_12
    7  A    between atoms: C_6  and  C_12
    8  A    between atoms: N_11  and  C_14
    9  A    between atoms: C_14  and  C_22
                            x       y       z     vdW  Elec       q    Type
                         _______ _______ _______ _____ _____    ______ ____

>  <TORSDO>
F 9

$$$$
=
 OpenBabel10262422063D

 43 48  0  0  1  0  0  0  0  0999 V2000
  187.7550  177.1620  147.3240 C   0  0  1  0  0  3  0  0  0  0  0  0
  185.3650  178.7700  143.1340 C   0  0  0  0  0  0  0  0  0  0  0  0
  187.2290  178.4570  141.0110 C   0  0  0  0  0  0  0  0  0  0  0  0
  186.2100  178.3760  145.7800 C   0  0  0  0  0  0  0  0  0  0  0  0
  188.7970  177.2650  146.2430 C   0  0  0  0  0  3  0  0  0  0  0  0
  188.3630  177.2320  148.5760 O   0  0  0  0  0  1  0  0  0  0  0  0
  187.0990  178.1300  144.7160 C   0  0  0  0  0  0  0  0  0  0  0  0
  186.6900  178.2560  147.2000 C   0  0  0  0  0  2  0  0  0  0  0  0
  188.4710  177.6770  145.0140 C   0  0  0  0  0  3  0  0  0  0  0  0
  187.5680  178.1440  142.3320 O   0  0  0  0  0  0  0  0  0  0  0  0
  186.6800  178.3410  143.3940 C   0  0  2  0  0  3  0  0  0  0  0  0
  184.4920  179.0190  144.2020 C   0  0  0  0  0  3  0  0  0  0  0  0
  184.8800  178.9350  141.7180 C   0  0  0  0  0  0  0  0  0  0  0  0
  185.9920  178.8640  140.7010 C   0  0  0  0  0  3  0  0  0  0  0  0
  184.9160  178.8330  145.5200 C   0  0  0  0  0  3  0  0  0  0  0  0
  188.2860  178.3610  139.9590 C   0  0  1  0  0  3  0  0  0  0  0  0
  189.5170  178.0220  140.5260 O   0  0  0  0  0  1  0  0  0  0  0  0
  187.8960  177.3470  138.8930 C   0  0  0  0  0  2  0  0  0  0  0  0
  186.8050  177.9020  137.9920 C   0  0  1  0  0  3  0  0  0  0  0  0
  187.4160  178.2960  136.6620 C   0  0  0  0  0  1  0  0  0  0  0  0
  185.8210  176.9300  137.7820 O   0  0  0  0  0  0  0  0  0  0  0  0
  185.7140  176.8060  136.3900 C   0  0  2  0  0  3  0  0  0  0  0  0
  184.4270  174.7820  136.0740 C   0  0  0  0  0  2  0  0  0  0  0  0
  184.3170  177.2210  135.9670 C   0  0  0  0  0  2  0  0  0  0  0  0
  185.8290  175.3500  135.9510 C   0  0  1  0  0  0  0  0  0  0  0  0
  186.2180  175.3160  134.6220 F   0  0  0  0  0  0  0  0  0  0  0  0
  183.4710  175.9600  135.9790 C   0  0  0  0  0  2  0  0  0  0  0  0
  186.8310  174.5620  136.7950 C   0  0  0  0  0  2  0  0  0  0  0  0
  188.0250  174.2400  136.0260 N   0  0  0  0  0  0  0  0  0  0  0  0
  191.1810  175.3220  137.4960 N   0  0  0  0  0  1  0  0  0  0  0  0
  189.8330  173.3780  137.2210 N   0  0  0  0  0  0  0  0  0  0  0  0
  190.0320  174.6280  137.0270 C   0  0  0  0  0  0  0  0  0  0  0  0
  188.6030  173.0980  136.6190 N   0  0  0  0  0  2  0  0  0  0  0  0
  188.9760  175.2380  136.3090 N   0  0  0  0  0  2  0  0  0  0  0  0
  183.8310  177.8760  141.4020 C   0  0  0  0  0  2  0  0  0  0  0  0
  181.6620  178.9630  138.4540 C   0  0  0  0  0  2  0  0  0  0  0  0
  180.6680  177.8130  138.6740 C   0  0  0  0  0  0  0  0  0  0  0  0
  179.3820  178.3730  139.2480 C   0  0  0  0  0  1  0  0  0  0  0  0
  182.7210  176.6080  139.5560 C   0  0  0  0  0  2  0  0  0  0  0  0
  182.5680  179.1690  139.6640 C   0  0  0  0  0  2  0  0  0  0  0  0
  183.4220  177.9200  139.9370 C   0  0  0  0  0  3  0  0  0  0  0  0
  180.3580  177.1790  137.3330 C   0  0  0  0  0  1  0  0  0  0  0  0
  181.1990  176.7340  139.6300 C   0  0  0  0  0  2  0  0  0  0  0  0
  1  6  1  1  0  0  0
  2 11  1  0  0  0  0
  2 12  1  0  0  0  0
  3 10  1  0  0  0  0
  4  8  1  0  0  0  0
  5  1  1  0  0  0  0
  7  9  1  0  0  0  0
  7  4  2  0  0  0  0
  8  1  1  0  0  0  0
  9  5  2  0  0  0  0
 11 10  1  1  0  0  0
 11  7  1  0  0  0  0
 12 15  2  0  0  0  0
 13  2  2  0  0  0  0
 14  3  2  0  0  0  0
 14 13  1  0  0  0  0
 15  4  1  0  0  0  0
 16 17  1  1  0  0  0
 16  3  1  0  0  0  0
 18 16  1  0  0  0  0
 19 20  1  6  0  0  0
 19 18  1  0  0  0  0
 21 19  1  0  0  0  0
 22 21  1  1  0  0  0
 24 27  1  0  0  0  0
 24 22  1  0  0  0  0
 25 26  1  6  0  0  0
 25 23  1  0  0  0  0
 25 22  1  0  0  0  0
 25 28  1  0  0  0  0
 27 23  1  0  0  0  0
 29 34  1  0  0  0  0
 29 33  1  0  0  0  0
 29 28  1  0  0  0  0
 32 31  2  0  0  0  0
 32 30  1  0  0  0  0
 33 31  1  0  0  0  0
 34 32  1  0  0  0  0
 35 13  1  0  0  0  0
 36 37  1  0  0  0  0
 36 40  1  0  0  0  0
 37 38  1  0  0  0  0
 37 43  1  0  0  0  0
 39 43  1  0  0  0  0
 39 41  1  0  0  0  0
 40 41  1  0  0  0  0
 41 35  1  0  0  0  0
 42 37  1  0  0  0  0
M  END
>  <MODEL>
7

>  <REMARK>
 VINA RESULT:      -8.9      2.704      3.729
  Name = 
  9 active torsions:
  status: ('A' for Active; 'I' for Inactive)
    1  A    between atoms: C_1  and  C_34
    2  A    between atoms: C_1  and  C_35
    3  A    between atoms: C_2  and  C_6
    4  A    between atoms: C_2  and  C_13
    5  A    between atoms: O_3  and  C_4
    6  A    between atoms: O_3  and  C_12
    7  A    between atoms: C_6  and  C_12
    8  A    between atoms: N_11  and  C_14
    9  A    between atoms: C_14  and  C_22
                            x       y       z     vdW  Elec       q    Type
                         _______ _______ _______ _____ _____    ______ ____

>  <TORSDO>
F 9

$$$$
=
 OpenBabel10262422063D

 43 48  0  0  1  0  0  0  0  0999 V2000
  191.5760  176.9030  146.9920 C   0  0  1  0  0  3  0  0  0  0  0  0
  189.0180  177.1020  142.6020 C   0  0  0  0  0  0  0  0  0  0  0  0
  186.4260  178.0640  143.2590 C   0  0  0  0  0  0  0  0  0  0  0  0
  190.8060  176.4400  144.6600 C   0  0  0  0  0  0  0  0  0  0  0  0
  190.1320  177.1450  147.3410 C   0  0  0  0  0  3  0  0  0  0  0  0
  192.2390  176.3400  148.0800 O   0  0  0  0  0  1  0  0  0  0  0  0
  189.5550  177.0080  144.9730 C   0  0  0  0  0  0  0  0  0  0  0  0
  191.7250  175.9980  145.7640 C   0  0  0  0  0  2  0  0  0  0  0  0
  189.2020  177.2350  146.3860 C   0  0  0  0  0  3  0  0  0  0  0  0
  187.3950  177.8470  144.2440 O   0  0  0  0  0  0  0  0  0  0  0  0
  188.6570  177.3260  143.9430 C   0  0  0  0  0  0  0  0  0  0  0  0
  190.2620  176.5300  142.3030 C   0  0  0  0  0  2  0  0  0  0  0  0
  188.0910  177.5010  141.4840 C   0  0  0  0  0  0  0  0  0  0  0  0
  186.7120  177.8750  141.9650 C   0  0  0  0  0  3  0  0  0  0  0  0
  191.1480  176.1900  143.3290 C   0  0  0  0  0  3  0  0  0  0  0  0
  185.0540  178.4790  143.6830 C   0  0  1  0  0  3  0  0  0  0  0  0
  185.1200  179.4200  144.7140 O   0  0  0  0  0  1  0  0  0  0  0  0
  184.2690  179.0380  142.5050 C   0  0  0  0  0  2  0  0  0  0  0  0
  182.8880  178.4080  142.4280 C   0  0  1  0  0  3  0  0  0  0  0  0
  182.0170  178.9940  143.5200 C   0  0  0  0  0  1  0  0  0  0  0  0
  182.3130  178.6760  141.1810 O   0  0  0  0  0  0  0  0  0  0  0  0
  183.3440  178.4850  140.2500 C   0  0  2  0  0  3  0  0  0  0  0  0
  182.1880  178.1300  138.1530 C   0  0  0  0  0  2  0  0  0  0  0  0
  183.5010  179.7510  139.4280 C   0  0  0  0  0  2  0  0  0  0  0  0
  182.9800  177.4100  139.2300 C   0  0  1  0  0  0  0  0  0  0  0  0
  184.1470  176.9090  138.6780 F   0  0  0  0  0  0  0  0  0  0  0  0
  182.6000  179.5910  138.2150 C   0  0  0  0  0  2  0  0  0  0  0  0
  182.1770  176.2660  139.8490 C   0  0  0  0  0  2  0  0  0  0  0  0
  180.8710  176.1400  139.2140 N   0  0  0  0  0  0  0  0  0  0  0  0
  180.0090  172.7970  138.0430 N   0  0  0  0  0  1  0  0  0  0  0  0
  179.5820  174.3000  139.8400 N   0  0  0  0  0  0  0  0  0  0  0  0
  180.1600  174.0330  138.7300 C   0  0  0  0  0  0  0  0  0  0  0  0
  179.9960  175.5920  140.1750 N   0  0  0  0  0  2  0  0  0  0  0  0
  180.9730  175.0990  138.2730 N   0  0  0  0  0  2  0  0  0  0  0  0
  188.6910  178.6630  140.7010 C   0  0  0  0  0  2  0  0  0  0  0  0
  189.0720  178.6190  136.9020 C   0  0  0  0  0  2  0  0  0  0  0  0
  187.9520  177.5800  136.7350 C   0  0  0  0  0  0  0  0  0  0  0  0
  186.7290  178.2610  136.1550 C   0  0  0  0  0  1  0  0  0  0  0  0
  188.7350  176.8100  139.0230 C   0  0  0  0  0  2  0  0  0  0  0  0
  189.0560  179.2500  138.2920 C   0  0  0  0  0  2  0  0  0  0  0  0
  189.2920  178.1950  139.3840 C   0  0  0  0  0  3  0  0  0  0  0  0
  188.4190  176.5210  135.7580 C   0  0  0  0  0  1  0  0  0  0  0  0
  187.5550  176.9060  138.0570 C   0  0  0  0  0  2  0  0  0  0  0  0
  1  5  1  0  0  0  0
  1  6  1  1  0  0  0
  2 11  1  0  0  0  0
  3 16  1  0  0  0  0
  3 10  1  0  0  0  0
  4  7  1  0  0  0  0
  4  8  1  0  0  0  0
  7  9  1  0  0  0  0
  8  1  1  0  0  0  0
  9  5  2  0  0  0  0
 11 10  1  0  0  0  0
 11  7  2  0  0  0  0
 12  2  1  0  0  0  0
 12 15  1  0  0  0  0
 13 14  1  0  0  0  0
 13  2  2  0  0  0  0
 14  3  2  0  0  0  0
 15  4  2  0  0  0  0
 16 17  1  1  0  0  0
 18 16  1  0  0  0  0
 19 18  1  0  0  0  0
 19 20  1  1  0  0  0
 21 19  1  0  0  0  0
 22 21  1  1  0  0  0
 23 27  1  0  0  0  0
 23 25  1  0  0  0  0
 24 22  1  0  0  0  0
 25 26  1  6  0  0  0
 25 28  1  0  0  0  0
 25 22  1  0  0  0  0
 27 24  1  0  0  0  0
 29 28  1  0  0  0  0
 29 33  1  0  0  0  0
 30 32  1  0  0  0  0
 31 33  1  0  0  0  0
 32 31  2  0  0  0  0
 34 32  1  0  0  0  0
 34 29  1  0  0  0  0
 35 13  1  0  0  0  0
 36 40  1  0  0  0  0
 37 36  1  0  0  0  0
 37 43  1  0  0  0  0
 38 37  1  0  0  0  0
 39 41  1  0  0  0  0
 40 41  1  0  0  0  0
 41 35  1  0  0  0  0
 42 37  1  0  0  0  0
 43 39  1  0  0  0  0
M  END
>  <MODEL>
8

>  <REMARK>
 VINA RESULT:      -8.8      5.624      8.430
  Name = 
  9 active torsions:
  status: ('A' for Active; 'I' for Inactive)
    1  A    between atoms: C_1  and  C_34
    2  A    between atoms: C_1  and  C_35
    3  A    between atoms: C_2  and  C_6
    4  A    between atoms: C_2  and  C_13
    5  A    between atoms: O_3  and  C_4
    6  A    between atoms: O_3  and  C_12
    7  A    between atoms: C_6  and  C_12
    8  A    between atoms: N_11  and  C_14
    9  A    between atoms: C_14  and  C_22
                            x       y       z     vdW  Elec       q    Type
                         _______ _______ _______ _____ _____    ______ ____

>  <TORSDO>
F 9

$$$$
=
 OpenBabel10262422063D

 43 48  0  0  1  0  0  0  0  0999 V2000
  190.2420  176.2760  136.0880 C   0  0  1  0  0  3  0  0  0  0  0  0
  188.4360  177.8510  140.5720 C   0  0  0  0  0  0  0  0  0  0  0  0
  185.7850  178.7440  140.0690 C   0  0  0  0  0  0  0  0  0  0  0  0
  190.0970  177.1760  138.4150 C   0  0  0  0  0  0  0  0  0  0  0  0
  188.9530  177.0010  135.8070 C   0  0  0  0  0  3  0  0  0  0  0  0
  191.0380  176.2640  134.9440 O   0  0  0  0  0  1  0  0  0  0  0  0
  188.7530  177.5280  138.1820 C   0  0  0  0  0  0  0  0  0  0  0  0
  191.0120  176.9070  137.2530 C   0  0  0  0  0  2  0  0  0  0  0  0
  188.2420  177.5450  136.7980 C   0  0  0  0  0  3  0  0  0  0  0  0
  186.6040  178.2720  139.0380 O   0  0  0  0  0  0  0  0  0  0  0  0
  187.9270  177.8780  139.2610 C   0  0  2  0  0  3  0  0  0  0  0  0
  189.7770  177.5070  140.7900 C   0  0  0  0  0  3  0  0  0  0  0  0
  187.5430  178.1590  141.7450 C   0  0  0  0  0  0  0  0  0  0  0  0
  186.2110  178.7370  141.3380 C   0  0  0  0  0  3  0  0  0  0  0  0
  190.6060  177.1820  139.7150 C   0  0  0  0  0  3  0  0  0  0  0  0
  184.4370  179.2880  139.7210 C   0  0  1  0  0  3  0  0  0  0  0  0
  184.5560  180.5020  139.0410 O   0  0  0  0  0  1  0  0  0  0  0  0
  183.6500  178.2880  138.8860 C   0  0  0  0  0  2  0  0  0  0  0  0
  182.3120  177.9750  139.5360 C   0  0  1  0  0  3  0  0  0  0  0  0
  182.3330  176.5490  140.0480 C   0  0  0  0  0  1  0  0  0  0  0  0
  182.0880  178.8500  140.6060 O   0  0  0  0  0  0  0  0  0  0  0  0
  180.8640  178.4510  141.1590 C   0  0  2  0  0  3  0  0  0  0  0  0
  180.4630  180.0570  142.9250 C   0  0  0  0  0  2  0  0  0  0  0  0
  179.7780  179.3920  140.6740 C   0  0  0  0  0  2  0  0  0  0  0  0
  180.8610  178.6130  142.6760 C   0  0  1  0  0  0  0  0  0  0  0  0
  179.8950  177.7770  143.2110 F   0  0  0  0  0  0  0  0  0  0  0  0
  179.6880  180.5110  141.6990 C   0  0  0  0  0  2  0  0  0  0  0  0
  182.2180  178.2890  143.3020 C   0  0  0  0  0  2  0  0  0  0  0  0
  182.7420  179.4310  144.0390 N   0  0  0  0  0  0  0  0  0  0  0  0
  184.9440  178.6240  146.8290 N   0  0  0  0  0  1  0  0  0  0  0  0
  185.0120  179.3760  144.5710 N   0  0  0  0  0  0  0  0  0  0  0  0
  184.3440  179.0040  145.5980 C   0  0  0  0  0  0  0  0  0  0  0  0
  184.0590  179.6480  143.5850 N   0  0  0  0  0  2  0  0  0  0  0  0
  182.9480  179.0030  145.3640 N   0  0  0  0  0  2  0  0  0  0  0  0
  187.3200  176.8990  142.5730 C   0  0  0  0  0  2  0  0  0  0  0  0
  189.7440  178.4040  145.1110 C   0  0  0  0  0  2  0  0  0  0  0  0
  190.9250  177.5830  144.5720 C   0  0  0  0  0  0  0  0  0  0  0  0
  191.8580  178.5010  143.8080 C   0  0  0  0  0  1  0  0  0  0  0  0
  189.1080  175.9010  144.0080 C   0  0  0  0  0  2  0  0  0  0  0  0
  188.5660  178.4080  144.1410 C   0  0  0  0  0  2  0  0  0  0  0  0
  188.0250  176.9860  143.9190 C   0  0  0  0  0  3  0  0  0  0  0  0
  191.6820  176.9980  145.7460 C   0  0  0  0  0  1  0  0  0  0  0  0
  190.4880  176.4440  143.6370 C   0  0  0  0  0  2  0  0  0  0  0  0
  1  6  1  6  0  0  0
  1  8  1  0  0  0  0
  2 12  1  0  0  0  0
  2 13  2  0  0  0  0
  3 14  2  0  0  0  0
  4 15  1  0  0  0  0
  5  1  1  0  0  0  0
  5  9  2  0  0  0  0
  7  4  2  0  0  0  0
  8  4  1  0  0  0  0
  9  7  1  0  0  0  0
 10 11  1  0  0  0  0
 10  3  1  0  0  0  0
 11  7  1  6  0  0  0
 11  2  1  0  0  0  0
 13 35  1  0  0  0  0
 14 13  1  0  0  0  0
 15 12  2  0  0  0  0
 16 17  1  6  0  0  0
 16  3  1  0  0  0  0
 18 19  1  0  0  0  0
 18 16  1  0  0  0  0
 19 20  1  1  0  0  0
 19 21  1  0  0  0  0
 22 21  1  6  0  0  0
 22 25  1  0  0  0  0
 24 22  1  0  0  0  0
 24 27  1  0  0  0  0
 25 23  1  0  0  0  0
 25 26  1  1  0  0  0
 25 28  1  0  0  0  0
 27 23  1  0  0  0  0
 28 29  1  0  0  0  0
 29 34  1  0  0  0  0
 31 32  2  0  0  0  0
 32 30  1  0  0  0  0
 33 29  1  0  0  0  0
 33 31  1  0  0  0  0
 34 32  1  0  0  0  0
 35 41  1  0  0  0  0
 37 36  1  0  0  0  0
 37 42  1  0  0  0  0
 38 37  1  0  0  0  0
 40 36  1  0  0  0  0
 41 39  1  0  0  0  0
 41 40  1  0  0  0  0
 43 39  1  0  0  0  0
 43 37  1  0  0  0  0
M  END
>  <MODEL>
9

>  <REMARK>
 VINA RESULT:      -8.8      5.519     10.132
  Name = 
  9 active torsions:
  status: ('A' for Active; 'I' for Inactive)
    1  A    between atoms: C_1  and  C_34
    2  A    between atoms: C_1  and  C_35
    3  A    between atoms: C_2  and  C_6
    4  A    between atoms: C_2  and  C_13
    5  A    between atoms: O_3  and  C_4
    6  A    between atoms: O_3  and  C_12
    7  A    between atoms: C_6  and  C_12
    8  A    between atoms: N_11  and  C_14
    9  A    between atoms: C_14  and  C_22
                            x       y       z     vdW  Elec       q    Type
                         _______ _______ _______ _____ _____    ______ ____

>  <TORSDO>
F 9

$$$$
