=
 OpenBabel10262421533D

 30 33  0  0  1  0  0  0  0  0999 V2000
  187.1180  177.9170  143.6130 N   0  0  0  0  0  0  0  0  0  0  0  0
  184.8680  178.4540  142.9780 C   0  0  0  0  0  0  0  0  0  0  0  0
  186.2540  178.4420  147.6680 C   0  0  0  0  0  3  0  0  0  0  0  0
  188.1110  177.7330  144.5220 C   0  0  0  0  0  0  0  0  0  0  0  0
  187.2560  178.2630  148.6240 C   0  0  0  0  0  3  0  0  0  0  0  0
  183.5710  178.8170  143.3480 C   0  0  0  0  0  3  0  0  0  0  0  0
  185.1800  178.2750  141.5310 C   0  0  0  0  0  1  0  0  0  0  0  0
  186.5280  178.2680  146.3010 C   0  0  0  0  0  0  0  0  0  0  0  0
  183.2450  178.9970  144.6930 C   0  0  0  0  0  3  0  0  0  0  0  0
  185.8540  178.2690  143.9650 C   0  0  0  0  0  0  0  0  0  0  0  0
  187.8370  177.9050  145.8970 C   0  0  0  0  0  0  0  0  0  0  0  0
  188.5450  177.9080  148.2250 C   0  0  0  0  0  3  0  0  0  0  0  0
  188.8330  177.7310  146.8710 C   0  0  0  0  0  3  0  0  0  0  0  0
  184.2170  178.8160  145.6780 C   0  0  0  0  0  3  0  0  0  0  0  0
  185.5270  178.4520  145.3290 C   0  0  0  0  0  0  0  0  0  0  0  0
  189.4770  177.3700  143.9920 C   0  0  1  0  0  3  0  0  0  0  0  0
  188.2070  175.9580  142.5070 O   0  0  0  0  0  1  0  0  0  0  0  0
  189.4190  176.6390  142.6360 C   0  0  1  0  0  3  0  0  0  0  0  0
  188.4690  177.4730  140.5170 N   0  0  0  0  0  2  0  0  0  0  0  0
  191.1280  177.2000  140.4930 S   0  0  0  0  0  0  0  0  0  0  0  0
  189.6070  177.5530  141.4180 C   0  0  2  0  0  3  0  0  0  0  0  0
  188.9020  177.9530  139.2720 N   0  0  0  0  0  2  0  0  0  0  0  0
  190.1520  177.2760  138.9730 C   0  0  0  0  0  2  0  0  0  0  0  0
  190.3930  178.5900  143.9370 C   0  0  0  0  0  2  0  0  0  0  0  0
  191.8040  178.2160  144.3590 C   0  0  0  0  0  2  0  0  0  0  0  0
  192.0830  177.1310  146.4430 N   0  0  0  0  0  0  0  0  0  0  0  0
  191.7720  177.0410  145.2130 N   0  0  0  0  0  0  0  0  0  0  0  0
  193.1850  175.6570  148.1020 N   0  0  0  0  0  1  0  0  0  0  0  0
  192.0570  175.9870  147.2950 C   0  0  0  0  0  0  0  0  0  0  0  0
  191.0300  175.2640  147.3350 O   0  0  0  0  0  0  0  0  0  0  0  0
  1 10  2  0  0  0  0
  1  4  1  0  0  0  0
  2  6  2  0  0  0  0
  2 10  1  0  0  0  0
  3  5  2  0  0  0  0
  4 11  2  0  0  0  0
  6  9  1  0  0  0  0
  7  2  1  0  0  0  0
  8  3  1  0  0  0  0
  9 14  2  0  0  0  0
 10 15  1  0  0  0  0
 11  8  1  0  0  0  0
 11 13  1  0  0  0  0
 12  5  1  0  0  0  0
 13 12  2  0  0  0  0
 15 14  1  0  0  0  0
 15  8  2  0  0  0  0
 16 24  1  6  0  0  0
 16  4  1  0  0  0  0
 18 17  1  6  0  0  0
 18 16  1  0  0  0  0
 19 21  1  0  0  0  0
 20 21  1  0  0  0  0
 21 18  1  1  0  0  0
 22 19  1  0  0  0  0
 23 22  1  0  0  0  0
 23 20  1  0  0  0  0
 24 25  1  0  0  0  0
 25 27  1  0  0  0  0
 26 29  1  0  0  0  0
 27 26  2  0  0  0  0
 29 30  2  0  0  0  0
 29 28  1  0  0  0  0
M  END
>  <MODEL>
1

>  <REMARK>
 VINA RESULT:      -9.5      0.000      0.000
  Name = 
  7 active torsions:
  status: ('A' for Active; 'I' for Inactive)
    1  A    between atoms: C_4  and  C_13
    2  A    between atoms: N_7  and  C_15
    3  A    between atoms: C_8  and  C_12
    4  A    between atoms: C_8  and  C_13
    5  A    between atoms: C_13  and  C_27
    6  A    between atoms: N_16  and  C_30
    7  A    between atoms: C_27  and  C_30
                            x       y       z     vdW  Elec       q    Type
                         _______ _______ _______ _____ _____    ______ ____

>  <TORSDO>
F 7

$$$$
=
 OpenBabel10262421533D

 30 33  0  0  1  0  0  0  0  0999 V2000
  188.7330  177.3060  144.3410 N   0  0  0  0  0  0  0  0  0  0  0  0
  189.5840  177.3800  146.5820 C   0  0  0  0  0  0  0  0  0  0  0  0
  184.9660  178.6330  145.5720 C   0  0  0  0  0  3  0  0  0  0  0  0
  187.7560  177.4590  143.4080 C   0  0  0  0  0  0  0  0  0  0  0  0
  183.9430  178.7950  144.6360 C   0  0  0  0  0  3  0  0  0  0  0  0
  189.3750  177.6470  147.9370 C   0  0  0  0  0  3  0  0  0  0  0  0
  190.9250  176.8990  146.1420 C   0  0  0  0  0  1  0  0  0  0  0  0
  186.2390  178.1890  145.1750 C   0  0  0  0  0  0  0  0  0  0  0  0
  188.1310  178.0950  148.3850 C   0  0  0  0  0  3  0  0  0  0  0  0
  188.5370  177.5650  145.6600 C   0  0  0  0  0  0  0  0  0  0  0  0
  186.4780  177.9070  143.8060 C   0  0  0  0  0  0  0  0  0  0  0  0
  184.1780  178.5140  143.2900 C   0  0  0  0  0  3  0  0  0  0  0  0
  185.4360  178.0730  142.8780 C   0  0  0  0  0  3  0  0  0  0  0  0
  187.0860  178.2790  147.4770 C   0  0  0  0  0  3  0  0  0  0  0  0
  187.2750  178.0170  146.1110 C   0  0  0  0  0  0  0  0  0  0  0  0
  188.1020  177.1100  141.9810 C   0  0  1  0  0  3  0  0  0  0  0  0
  188.5450  179.4220  141.4640 O   0  0  0  0  0  1  0  0  0  0  0  0
  187.8810  178.2830  141.0060 C   0  0  1  0  0  3  0  0  0  0  0  0
  189.0540  179.1210  139.0030 N   0  0  0  0  0  2  0  0  0  0  0  0
  186.9420  177.5730  138.4670 S   0  0  0  0  0  0  0  0  0  0  0  0
  188.3240  177.9960  139.5650 C   0  0  2  0  0  3  0  0  0  0  0  0
  189.0200  178.9720  137.6080 N   0  0  0  0  0  2  0  0  0  0  0  0
  187.6370  178.7130  137.2490 C   0  0  0  0  0  2  0  0  0  0  0  0
  189.5160  176.5450  141.8740 C   0  0  0  0  0  2  0  0  0  0  0  0
  190.5460  177.6390  142.1070 C   0  0  0  0  0  2  0  0  0  0  0  0
  191.9620  177.4470  140.2230 N   0  0  0  0  0  0  0  0  0  0  0  0
  191.8020  177.2820  141.4730 N   0  0  0  0  0  0  0  0  0  0  0  0
  193.2150  176.7430  138.2040 N   0  0  0  0  0  1  0  0  0  0  0  0
  193.1900  177.1010  139.5840 C   0  0  0  0  0  0  0  0  0  0  0  0
  194.2600  177.1130  140.2440 O   0  0  0  0  0  0  0  0  0  0  0  0
  1 10  1  0  0  0  0
  2  6  1  0  0  0  0
  4 11  1  0  0  0  0
  4  1  2  0  0  0  0
  5  3  2  0  0  0  0
  6  9  2  0  0  0  0
  7  2  1  0  0  0  0
  8  3  1  0  0  0  0
  8 15  1  0  0  0  0
 10 15  1  0  0  0  0
 10  2  2  0  0  0  0
 11  8  2  0  0  0  0
 12  5  1  0  0  0  0
 13 12  2  0  0  0  0
 13 11  1  0  0  0  0
 14  9  1  0  0  0  0
 15 14  2  0  0  0  0
 16 24  1  1  0  0  0
 16  4  1  0  0  0  0
 18 17  1  1  0  0  0
 18 16  1  0  0  0  0
 19 21  1  0  0  0  0
 20 21  1  0  0  0  0
 21 18  1  1  0  0  0
 22 19  1  0  0  0  0
 23 22  1  0  0  0  0
 23 20  1  0  0  0  0
 24 25  1  0  0  0  0
 26 27  2  0  0  0  0
 27 25  1  0  0  0  0
 28 29  1  0  0  0  0
 29 26  1  0  0  0  0
 29 30  2  0  0  0  0
M  END
>  <MODEL>
2

>  <REMARK>
 VINA RESULT:      -9.3      2.572      4.828
  Name = 
  7 active torsions:
  status: ('A' for Active; 'I' for Inactive)
    1  A    between atoms: C_4  and  C_13
    2  A    between atoms: N_7  and  C_15
    3  A    between atoms: C_8  and  C_12
    4  A    between atoms: C_8  and  C_13
    5  A    between atoms: C_13  and  C_27
    6  A    between atoms: N_16  and  C_30
    7  A    between atoms: C_27  and  C_30
                            x       y       z     vdW  Elec       q    Type
                         _______ _______ _______ _____ _____    ______ ____

>  <TORSDO>
F 7

$$$$
=
 OpenBabel10262421533D

 30 33  0  0  1  0  0  0  0  0999 V2000
  186.3660  177.9960  142.5160 N   0  0  0  0  0  0  0  0  0  0  0  0
  184.0590  178.5490  142.1610 C   0  0  0  0  0  0  0  0  0  0  0  0
  185.9400  178.2540  146.6660 C   0  0  0  0  0  3  0  0  0  0  0  0
  187.4510  177.7650  143.3010 C   0  0  0  0  0  0  0  0  0  0  0  0
  187.0390  178.0250  147.4950 C   0  0  0  0  0  3  0  0  0  0  0  0
  182.8070  178.8740  142.6900 C   0  0  0  0  0  3  0  0  0  0  0  0
  184.2150  178.4650  140.6800 C   0  0  0  0  0  1  0  0  0  0  0  0
  186.0660  178.1700  145.2690 C   0  0  0  0  0  0  0  0  0  0  0  0
  182.6270  178.9660  144.0710 C   0  0  0  0  0  3  0  0  0  0  0  0
  185.1450  178.3120  143.0230 C   0  0  0  0  0  0  0  0  0  0  0  0
  187.3260  177.8470  144.7050 C   0  0  0  0  0  0  0  0  0  0  0  0
  188.2790  177.7100  146.9390 C   0  0  0  0  0  3  0  0  0  0  0  0
  188.4210  177.6220  145.5540 C   0  0  0  0  0  3  0  0  0  0  0  0
  183.7000  178.7320  144.9330 C   0  0  0  0  0  3  0  0  0  0  0  0
  184.9660  178.4050  144.4230 C   0  0  0  0  0  0  0  0  0  0  0  0
  188.7530  177.4510  142.6050 C   0  0  1  0  0  3  0  0  0  0  0  0
  188.9670  179.0270  140.7940 O   0  0  0  0  0  1  0  0  0  0  0  0
  188.6940  177.6890  141.0840 C   0  0  1  0  0  3  0  0  0  0  0  0
  190.9590  177.4120  140.1420 N   0  0  0  0  0  2  0  0  0  0  0  0
  189.0080  176.4060  138.6160 S   0  0  0  0  0  0  0  0  0  0  0  0
  189.6450  176.8020  140.2700 C   0  0  2  0  0  3  0  0  0  0  0  0
  191.5910  176.7940  139.0530 N   0  0  0  0  0  2  0  0  0  0  0  0
  190.6410  176.8070  137.9550 C   0  0  0  0  0  2  0  0  0  0  0  0
  189.9200  178.1970  143.2480 C   0  0  0  0  0  2  0  0  0  0  0  0
  191.1320  177.2870  143.3690 C   0  0  0  0  0  2  0  0  0  0  0  0
  191.6110  176.1620  145.3940 N   0  0  0  0  0  0  0  0  0  0  0  0
  191.5940  177.2550  144.7460 N   0  0  0  0  0  0  0  0  0  0  0  0
  191.6060  177.0720  147.6990 N   0  0  0  0  0  1  0  0  0  0  0  0
  192.0610  176.1130  146.7470 C   0  0  0  0  0  0  0  0  0  0  0  0
  192.8660  175.2150  147.1040 O   0  0  0  0  0  0  0  0  0  0  0  0
  1 10  2  0  0  0  0
  1  4  1  0  0  0  0
  2  6  2  0  0  0  0
  2 10  1  0  0  0  0
  3  5  2  0  0  0  0
  4 11  2  0  0  0  0
  6  9  1  0  0  0  0
  7  2  1  0  0  0  0
  8  3  1  0  0  0  0
  9 14  2  0  0  0  0
 10 15  1  0  0  0  0
 11  8  1  0  0  0  0
 11 13  1  0  0  0  0
 12  5  1  0  0  0  0
 13 12  2  0  0  0  0
 15 14  1  0  0  0  0
 15  8  2  0  0  0  0
 16 24  1  1  0  0  0
 16  4  1  0  0  0  0
 18 17  1  1  0  0  0
 18 16  1  0  0  0  0
 19 21  1  0  0  0  0
 20 21  1  0  0  0  0
 21 18  1  6  0  0  0
 22 19  1  0  0  0  0
 23 20  1  0  0  0  0
 23 22  1  0  0  0  0
 24 25  1  0  0  0  0
 25 27  1  0  0  0  0
 26 29  1  0  0  0  0
 27 26  2  0  0  0  0
 29 30  2  0  0  0  0
 29 28  1  0  0  0  0
M  END
>  <MODEL>
3

>  <REMARK>
 VINA RESULT:      -9.2      1.471      1.649
  Name = 
  7 active torsions:
  status: ('A' for Active; 'I' for Inactive)
    1  A    between atoms: C_4  and  C_13
    2  A    between atoms: N_7  and  C_15
    3  A    between atoms: C_8  and  C_12
    4  A    between atoms: C_8  and  C_13
    5  A    between atoms: C_13  and  C_27
    6  A    between atoms: N_16  and  C_30
    7  A    between atoms: C_27  and  C_30
                            x       y       z     vdW  Elec       q    Type
                         _______ _______ _______ _____ _____    ______ ____

>  <TORSDO>
F 7

$$$$
=
 OpenBabel10262421533D

 30 33  0  0  1  0  0  0  0  0999 V2000
  188.8690  177.4170  143.5590 N   0  0  0  0  0  0  0  0  0  0  0  0
  190.8160  176.8000  144.8170 C   0  0  0  0  0  0  0  0  0  0  0  0
  186.6170  177.9660  147.0370 C   0  0  0  0  0  3  0  0  0  0  0  0
  187.5700  177.7990  143.4430 C   0  0  0  0  0  0  0  0  0  0  0  0
  185.2790  178.3540  146.9470 C   0  0  0  0  0  3  0  0  0  0  0  0
  191.4250  176.5800  146.0550 C   0  0  0  0  0  3  0  0  0  0  0  0
  191.6160  176.5960  143.5750 C   0  0  0  0  0  1  0  0  0  0  0  0
  187.3890  177.7780  145.8770 C   0  0  0  0  0  0  0  0  0  0  0  0
  190.7050  176.7570  147.2370 C   0  0  0  0  0  3  0  0  0  0  0  0
  189.4690  177.2030  144.7590 C   0  0  0  0  0  0  0  0  0  0  0  0
  186.7940  177.9900  144.6070 C   0  0  0  0  0  0  0  0  0  0  0  0
  184.6940  178.5590  145.6970 C   0  0  0  0  0  3  0  0  0  0  0  0
  185.4470  178.3790  144.5360 C   0  0  0  0  0  3  0  0  0  0  0  0
  189.3680  177.1550  147.1890 C   0  0  0  0  0  3  0  0  0  0  0  0
  188.7360  177.3810  145.9550 C   0  0  0  0  0  0  0  0  0  0  0  0
  187.0230  177.9760  142.0480 C   0  0  1  0  0  3  0  0  0  0  0  0
  185.9550  180.1370  142.0690 O   0  0  0  0  0  1  0  0  0  0  0  0
  185.6990  178.7650  142.0180 C   0  0  1  0  0  3  0  0  0  0  0  0
  184.9220  179.5260  139.8020 N   0  0  0  0  0  2  0  0  0  0  0  0
  183.0710  178.2250  141.2250 S   0  0  0  0  0  0  0  0  0  0  0  0
  184.8180  178.4710  140.7970 C   0  0  2  0  0  3  0  0  0  0  0  0
  183.7950  179.4180  138.9740 N   0  0  0  0  0  2  0  0  0  0  0  0
  182.6410  179.3160  139.8500 C   0  0  0  0  0  2  0  0  0  0  0  0
  188.0660  178.5870  141.1150 C   0  0  0  0  0  2  0  0  0  0  0  0
  188.1530  177.7940  139.8210 C   0  0  0  0  0  2  0  0  0  0  0  0
  190.4110  177.1080  139.9810 N   0  0  0  0  0  0  0  0  0  0  0  0
  189.5260  177.7650  139.3480 N   0  0  0  0  0  0  0  0  0  0  0  0
  192.0860  176.5590  138.2390 N   0  0  0  0  0  1  0  0  0  0  0  0
  191.7650  177.0690  139.5300 C   0  0  0  0  0  0  0  0  0  0  0  0
  192.6820  177.4920  140.2790 O   0  0  0  0  0  0  0  0  0  0  0  0
  1 10  1  0  0  0  0
  2  6  1  0  0  0  0
  4  1  2  0  0  0  0
  4 11  1  0  0  0  0
  5  3  1  0  0  0  0
  6  9  2  0  0  0  0
  7  2  1  0  0  0  0
  8 15  1  0  0  0  0
  8  3  2  0  0  0  0
 10  2  2  0  0  0  0
 10 15  1  0  0  0  0
 11  8  1  0  0  0  0
 12  5  2  0  0  0  0
 13 11  2  0  0  0  0
 13 12  1  0  0  0  0
 14  9  1  0  0  0  0
 15 14  2  0  0  0  0
 16 24  1  6  0  0  0
 16  4  1  0  0  0  0
 18 16  1  0  0  0  0
 18 17  1  6  0  0  0
 19 21  1  0  0  0  0
 21 20  1  0  0  0  0
 21 18  1  1  0  0  0
 22 19  1  0  0  0  0
 22 23  1  0  0  0  0
 23 20  1  0  0  0  0
 25 24  1  0  0  0  0
 27 25  1  0  0  0  0
 27 26  2  0  0  0  0
 28 29  1  0  0  0  0
 29 26  1  0  0  0  0
 29 30  2  0  0  0  0
M  END
>  <MODEL>
4

>  <REMARK>
 VINA RESULT:      -9.2      2.987      5.610
  Name = 
  7 active torsions:
  status: ('A' for Active; 'I' for Inactive)
    1  A    between atoms: C_4  and  C_13
    2  A    between atoms: N_7  and  C_15
    3  A    between atoms: C_8  and  C_12
    4  A    between atoms: C_8  and  C_13
    5  A    between atoms: C_13  and  C_27
    6  A    between atoms: N_16  and  C_30
    7  A    between atoms: C_27  and  C_30
                            x       y       z     vdW  Elec       q    Type
                         _______ _______ _______ _____ _____    ______ ____

>  <TORSDO>
F 7

$$$$
=
 OpenBabel10262421533D

 30 33  0  0  1  0  0  0  0  0999 V2000
  185.5200  178.2290  142.2340 N   0  0  0  0  0  0  0  0  0  0  0  0
  183.3170  178.5970  141.3590 C   0  0  0  0  0  0  0  0  0  0  0  0
  184.1860  178.6640  146.1710 C   0  0  0  0  0  3  0  0  0  0  0  0
  186.4200  178.1160  143.2450 C   0  0  0  0  0  0  0  0  0  0  0  0
  185.0910  178.5560  147.2290 C   0  0  0  0  0  3  0  0  0  0  0  0
  181.9630  178.8570  141.5860 C   0  0  0  0  0  3  0  0  0  0  0  0
  183.7960  178.4500  139.9540 C   0  0  0  0  0  1  0  0  0  0  0  0
  184.6180  178.5190  144.8410 C   0  0  0  0  0  0  0  0  0  0  0  0
  181.4810  179.0040  142.8870 C   0  0  0  0  0  3  0  0  0  0  0  0
  184.2020  178.4810  142.4470 C   0  0  0  0  0  0  0  0  0  0  0  0
  185.9870  178.2590  144.5820 C   0  0  0  0  0  0  0  0  0  0  0  0
  186.4380  178.3030  146.9730 C   0  0  0  0  0  3  0  0  0  0  0  0
  186.8830  178.1560  145.6590 C   0  0  0  0  0  3  0  0  0  0  0  0
  182.3530  178.8920  143.9720 C   0  0  0  0  0  3  0  0  0  0  0  0
  183.7170  178.6310  143.7670 C   0  0  0  0  0  0  0  0  0  0  0  0
  187.8590  177.8620  142.8660 C   0  0  1  0  0  3  0  0  0  0  0  0
  188.4690  175.5430  143.1170 O   0  0  0  0  0  1  0  0  0  0  0  0
  188.5310  176.7890  143.7450 C   0  0  1  0  0  3  0  0  0  0  0  0
  190.2410  178.5240  144.1430 N   0  0  0  0  0  2  0  0  0  0  0  0
  191.1770  176.3140  142.9670 S   0  0  0  0  0  0  0  0  0  0  0  0
  189.9930  177.0920  144.1020 C   0  0  2  0  0  3  0  0  0  0  0  0
  191.6280  178.7010  144.0230 N   0  0  0  0  0  2  0  0  0  0  0  0
  192.0560  177.8910  142.8950 C   0  0  0  0  0  2  0  0  0  0  0  0
  187.9920  177.5400  141.3800 C   0  0  0  0  0  2  0  0  0  0  0  0
  188.8090  178.6100  140.6740 C   0  0  0  0  0  2  0  0  0  0  0  0
  187.3430  178.2510  138.8530 N   0  0  0  0  0  0  0  0  0  0  0  0
  188.4880  178.6260  139.2580 N   0  0  0  0  0  0  0  0  0  0  0  0
  186.4890  177.0930  136.8350 N   0  0  0  0  0  1  0  0  0  0  0  0
  187.0110  178.2600  137.4650 C   0  0  0  0  0  0  0  0  0  0  0  0
  187.1800  179.3080  136.7920 O   0  0  0  0  0  0  0  0  0  0  0  0
  1 10  2  0  0  0  0
  1  4  1  0  0  0  0
  2  6  2  0  0  0  0
  2 10  1  0  0  0  0
  3  5  2  0  0  0  0
  4 11  2  0  0  0  0
  6  9  1  0  0  0  0
  7  2  1  0  0  0  0
  8  3  1  0  0  0  0
  9 14  2  0  0  0  0
 10 15  1  0  0  0  0
 11  8  1  0  0  0  0
 11 13  1  0  0  0  0
 12  5  1  0  0  0  0
 13 12  2  0  0  0  0
 15 14  1  0  0  0  0
 15  8  2  0  0  0  0
 16 24  1  6  0  0  0
 16  4  1  0  0  0  0
 16 18  1  0  0  0  0
 18 17  1  6  0  0  0
 20 21  1  0  0  0  0
 21 18  1  6  0  0  0
 21 19  1  0  0  0  0
 22 19  1  0  0  0  0
 23 20  1  0  0  0  0
 23 22  1  0  0  0  0
 25 24  1  0  0  0  0
 26 27  2  0  0  0  0
 27 25  1  0  0  0  0
 28 29  1  0  0  0  0
 29 26  1  0  0  0  0
 30 29  2  0  0  0  0
M  END
>  <MODEL>
5

>  <REMARK>
 VINA RESULT:      -9.1      2.136      5.106
  Name = 
  7 active torsions:
  status: ('A' for Active; 'I' for Inactive)
    1  A    between atoms: C_4  and  C_13
    2  A    between atoms: N_7  and  C_15
    3  A    between atoms: C_8  and  C_12
    4  A    between atoms: C_8  and  C_13
    5  A    between atoms: C_13  and  C_27
    6  A    between atoms: N_16  and  C_30
    7  A    between atoms: C_27  and  C_30
                            x       y       z     vdW  Elec       q    Type
                         _______ _______ _______ _____ _____    ______ ____

>  <TORSDO>
F 7

$$$$
=
 OpenBabel10262421533D

 30 33  0  0  1  0  0  0  0  0999 V2000
  188.9410  177.4160  143.6360 N   0  0  0  0  0  0  0  0  0  0  0  0
  190.8630  176.7860  144.9250 C   0  0  0  0  0  0  0  0  0  0  0  0
  186.6400  177.9930  147.0770 C   0  0  0  0  0  3  0  0  0  0  0  0
  187.6470  177.8080  143.4990 C   0  0  0  0  0  0  0  0  0  0  0  0
  185.3070  178.3920  146.9650 C   0  0  0  0  0  3  0  0  0  0  0  0
  191.4520  176.5650  146.1730 C   0  0  0  0  0  3  0  0  0  0  0  0
  191.6810  176.5720  143.6960 C   0  0  0  0  0  1  0  0  0  0  0  0
  187.4280  177.7960  145.9290 C   0  0  0  0  0  0  0  0  0  0  0  0
  190.7150  176.7510  147.3440 C   0  0  0  0  0  3  0  0  0  0  0  0
  189.5210  177.2000  144.8460 C   0  0  0  0  0  0  0  0  0  0  0  0
  186.8550  178.0090  144.6500 C   0  0  0  0  0  0  0  0  0  0  0  0
  184.7440  178.5980  145.7060 C   0  0  0  0  0  3  0  0  0  0  0  0
  185.5120  178.4080  144.5570 C   0  0  0  0  0  3  0  0  0  0  0  0
  189.3820  177.1600  147.2730 C   0  0  0  0  0  3  0  0  0  0  0  0
  188.7710  177.3880  146.0300 C   0  0  0  0  0  0  0  0  0  0  0  0
  187.1230  177.9850  142.0950 C   0  0  1  0  0  3  0  0  0  0  0  0
  186.0180  180.1280  142.0940 O   0  0  0  0  0  1  0  0  0  0  0  0
  185.7870  178.7510  142.0450 C   0  0  1  0  0  3  0  0  0  0  0  0
  184.9310  179.5410  139.8690 N   0  0  0  0  0  2  0  0  0  0  0  0
  183.2090  178.0210  141.2360 S   0  0  0  0  0  0  0  0  0  0  0  0
  184.9250  178.4370  140.8150 C   0  0  2  0  0  3  0  0  0  0  0  0
  183.8110  179.3730  139.0410 N   0  0  0  0  0  2  0  0  0  0  0  0
  182.6760  179.1310  139.9140 C   0  0  0  0  0  2  0  0  0  0  0  0
  188.1720  178.6210  141.1860 C   0  0  0  0  0  2  0  0  0  0  0  0
  188.5250  177.6830  140.0430 C   0  0  0  0  0  2  0  0  0  0  0  0
  187.2290  177.6780  138.0640 N   0  0  0  0  0  0  0  0  0  0  0  0
  188.1050  178.2610  138.7790 N   0  0  0  0  0  0  0  0  0  0  0  0
  185.9510  177.4940  135.9490 N   0  0  0  0  0  1  0  0  0  0  0  0
  186.8050  178.2320  136.8190 C   0  0  0  0  0  0  0  0  0  0  0  0
  187.1880  179.3830  136.4870 O   0  0  0  0  0  0  0  0  0  0  0  0
  1 10  1  0  0  0  0
  2  6  1  0  0  0  0
  4  1  2  0  0  0  0
  4 11  1  0  0  0  0
  5  3  1  0  0  0  0
  6  9  2  0  0  0  0
  7  2  1  0  0  0  0
  8 15  1  0  0  0  0
  8  3  2  0  0  0  0
 10  2  2  0  0  0  0
 10 15  1  0  0  0  0
 11  8  1  0  0  0  0
 12  5  2  0  0  0  0
 13 11  2  0  0  0  0
 13 12  1  0  0  0  0
 14  9  1  0  0  0  0
 15 14  2  0  0  0  0
 16 24  1  6  0  0  0
 16  4  1  0  0  0  0
 18 17  1  6  0  0  0
 18 16  1  0  0  0  0
 19 21  1  0  0  0  0
 21 20  1  0  0  0  0
 21 18  1  1  0  0  0
 22 19  1  0  0  0  0
 22 23  1  0  0  0  0
 23 20  1  0  0  0  0
 25 24  1  0  0  0  0
 26 27  2  0  0  0  0
 27 25  1  0  0  0  0
 28 29  1  0  0  0  0
 29 26  1  0  0  0  0
 30 29  2  0  0  0  0
M  END
>  <MODEL>
6

>  <REMARK>
 VINA RESULT:      -9.1      3.073      6.529
  Name = 
  7 active torsions:
  status: ('A' for Active; 'I' for Inactive)
    1  A    between atoms: C_4  and  C_13
    2  A    between atoms: N_7  and  C_15
    3  A    between atoms: C_8  and  C_12
    4  A    between atoms: C_8  and  C_13
    5  A    between atoms: C_13  and  C_27
    6  A    between atoms: N_16  and  C_30
    7  A    between atoms: C_27  and  C_30
                            x       y       z     vdW  Elec       q    Type
                         _______ _______ _______ _____ _____    ______ ____

>  <TORSDO>
F 7

$$$$
=
 OpenBabel10262421533D

 30 33  0  0  1  0  0  0  0  0999 V2000
  185.5060  178.2290  141.9900 N   0  0  0  0  0  0  0  0  0  0  0  0
  183.3290  178.5780  141.0450 C   0  0  0  0  0  0  0  0  0  0  0  0
  184.0560  178.7100  145.8800 C   0  0  0  0  0  3  0  0  0  0  0  0
  186.3770  178.1320  143.0290 C   0  0  0  0  0  0  0  0  0  0  0  0
  184.9290  178.6190  146.9660 C   0  0  0  0  0  3  0  0  0  0  0  0
  181.9680  178.8360  141.2290 C   0  0  0  0  0  3  0  0  0  0  0  0
  183.8490  178.4140  139.6570 C   0  0  0  0  0  1  0  0  0  0  0  0
  184.5270  178.5490  144.5650 C   0  0  0  0  0  0  0  0  0  0  0  0
  181.4480  178.9990  142.5140 C   0  0  0  0  0  3  0  0  0  0  0  0
  184.1820  178.4790  142.1600 C   0  0  0  0  0  0  0  0  0  0  0  0
  185.9040  178.2910  144.3500 C   0  0  0  0  0  0  0  0  0  0  0  0
  186.2840  178.3670  146.7520 C   0  0  0  0  0  3  0  0  0  0  0  0
  186.7680  178.2040  145.4540 C   0  0  0  0  0  3  0  0  0  0  0  0
  182.2870  178.9040  143.6250 C   0  0  0  0  0  3  0  0  0  0  0  0
  183.6570  178.6450  143.4630 C   0  0  0  0  0  0  0  0  0  0  0  0
  187.8270  177.8780  142.6950 C   0  0  1  0  0  3  0  0  0  0  0  0
  188.5110  175.5880  143.0080 O   0  0  0  0  0  1  0  0  0  0  0  0
  188.4840  176.8400  143.6260 C   0  0  1  0  0  3  0  0  0  0  0  0
  190.1360  178.6380  143.9890 N   0  0  0  0  0  2  0  0  0  0  0  0
  191.1910  176.3400  143.1210 S   0  0  0  0  0  0  0  0  0  0  0  0
  189.9070  177.2040  144.0700 C   0  0  2  0  0  3  0  0  0  0  0  0
  191.5260  178.8270  143.9660 N   0  0  0  0  0  2  0  0  0  0  0  0
  192.0560  177.9190  142.9650 C   0  0  0  0  0  2  0  0  0  0  0  0
  188.0020  177.5090  141.2240 C   0  0  0  0  0  2  0  0  0  0  0  0
  188.8980  178.5180  140.5240 C   0  0  0  0  0  2  0  0  0  0  0  0
  190.2400  176.7480  139.7120 N   0  0  0  0  0  0  0  0  0  0  0  0
  189.6690  177.8600  139.4840 N   0  0  0  0  0  0  0  0  0  0  0  0
  192.2250  176.6480  138.2340 N   0  0  0  0  0  1  0  0  0  0  0  0
  191.0010  176.0890  138.7010 C   0  0  0  0  0  0  0  0  0  0  0  0
  190.5890  175.0030  138.2200 O   0  0  0  0  0  0  0  0  0  0  0  0
  1 10  2  0  0  0  0
  1  4  1  0  0  0  0
  2  6  2  0  0  0  0
  2 10  1  0  0  0  0
  3  5  2  0  0  0  0
  4 11  2  0  0  0  0
  6  9  1  0  0  0  0
  7  2  1  0  0  0  0
  8  3  1  0  0  0  0
  9 14  2  0  0  0  0
 10 15  1  0  0  0  0
 11  8  1  0  0  0  0
 11 13  1  0  0  0  0
 12  5  1  0  0  0  0
 13 12  2  0  0  0  0
 15 14  1  0  0  0  0
 15  8  2  0  0  0  0
 16 24  1  6  0  0  0
 16  4  1  0  0  0  0
 16 18  1  0  0  0  0
 18 17  1  6  0  0  0
 19 21  1  0  0  0  0
 20 21  1  0  0  0  0
 21 18  1  6  0  0  0
 22 19  1  0  0  0  0
 23 20  1  0  0  0  0
 23 22  1  0  0  0  0
 25 24  1  0  0  0  0
 27 26  2  0  0  0  0
 27 25  1  0  0  0  0
 28 29  1  0  0  0  0
 29 26  1  0  0  0  0
 30 29  2  0  0  0  0
M  END
>  <MODEL>
7

>  <REMARK>
 VINA RESULT:      -8.9      2.174      4.365
  Name = 
  7 active torsions:
  status: ('A' for Active; 'I' for Inactive)
    1  A    between atoms: C_4  and  C_13
    2  A    between atoms: N_7  and  C_15
    3  A    between atoms: C_8  and  C_12
    4  A    between atoms: C_8  and  C_13
    5  A    between atoms: C_13  and  C_27
    6  A    between atoms: N_16  and  C_30
    7  A    between atoms: C_27  and  C_30
                            x       y       z     vdW  Elec       q    Type
                         _______ _______ _______ _____ _____    ______ ____

>  <TORSDO>
F 7

$$$$
=
 OpenBabel10262421533D

 30 33  0  0  1  0  0  0  0  0999 V2000
  186.9150  178.0540  144.2830 N   0  0  0  0  0  0  0  0  0  0  0  0
  186.4820  178.2800  146.6320 C   0  0  0  0  0  0  0  0  0  0  0  0
  190.7820  176.6300  144.9850 C   0  0  0  0  0  3  0  0  0  0  0  0
  187.6990  177.7380  143.2190 C   0  0  0  0  0  0  0  0  0  0  0  0
  191.6090  176.3020  143.9100 C   0  0  0  0  0  3  0  0  0  0  0  0
  186.9220  178.1500  147.9510 C   0  0  0  0  0  3  0  0  0  0  0  0
  185.1060  178.7950  146.3800 C   0  0  0  0  0  1  0  0  0  0  0  0
  189.4780  177.1090  144.7670 C   0  0  0  0  0  0  0  0  0  0  0  0
  188.2060  177.6750  148.2240 C   0  0  0  0  0  3  0  0  0  0  0  0
  187.3350  177.9290  145.5700 C   0  0  0  0  0  0  0  0  0  0  0  0
  189.0070  177.2550  143.4370 C   0  0  0  0  0  0  0  0  0  0  0  0
  191.1460  176.4480  142.6020 C   0  0  0  0  0  3  0  0  0  0  0  0
  189.8550  176.9210  142.3680 C   0  0  0  0  0  3  0  0  0  0  0  0
  189.0590  177.3260  147.1760 C   0  0  0  0  0  3  0  0  0  0  0  0
  188.6370  177.4480  145.8420 C   0  0  0  0  0  0  0  0  0  0  0  0
  187.1150  177.9500  141.8430 C   0  0  1  0  0  3  0  0  0  0  0  0
  185.8090  179.9470  142.1840 O   0  0  0  0  0  1  0  0  0  0  0  0
  185.7130  178.5870  141.8780 C   0  0  1  0  0  3  0  0  0  0  0  0
  184.8250  179.6860  139.8530 N   0  0  0  0  0  2  0  0  0  0  0  0
  183.2450  177.7710  140.8420 S   0  0  0  0  0  0  0  0  0  0  0  0
  184.9160  178.4280  140.5760 C   0  0  2  0  0  3  0  0  0  0  0  0
  183.7480  179.5670  138.9630 N   0  0  0  0  0  2  0  0  0  0  0  0
  182.6260  179.0530  139.7290 C   0  0  0  0  0  2  0  0  0  0  0  0
  188.0720  178.7360  140.9500 C   0  0  0  0  0  2  0  0  0  0  0  0
  188.0710  178.1690  139.5400 C   0  0  0  0  0  2  0  0  0  0  0  0
  189.6510  176.5120  138.9450 N   0  0  0  0  0  0  0  0  0  0  0  0
  189.4100  177.7380  139.1770 N   0  0  0  0  0  0  0  0  0  0  0  0
  191.1590  174.8000  137.9770 N   0  0  0  0  0  1  0  0  0  0  0  0
  190.9610  176.0720  138.5880 C   0  0  0  0  0  0  0  0  0  0  0  0
  191.9500  176.8150  138.8140 O   0  0  0  0  0  0  0  0  0  0  0  0
  1 10  1  0  0  0  0
  2  6  1  0  0  0  0
  4 11  1  0  0  0  0
  4  1  2  0  0  0  0
  5  3  2  0  0  0  0
  6  9  2  0  0  0  0
  7  2  1  0  0  0  0
  8  3  1  0  0  0  0
  8 15  1  0  0  0  0
 10 15  1  0  0  0  0
 10  2  2  0  0  0  0
 11  8  2  0  0  0  0
 12  5  1  0  0  0  0
 13 12  2  0  0  0  0
 13 11  1  0  0  0  0
 14  9  1  0  0  0  0
 15 14  2  0  0  0  0
 16 24  1  6  0  0  0
 16 18  1  0  0  0  0
 16  4  1  0  0  0  0
 18 17  1  6  0  0  0
 19 21  1  0  0  0  0
 21 20  1  0  0  0  0
 21 18  1  1  0  0  0
 22 23  1  0  0  0  0
 22 19  1  0  0  0  0
 23 20  1  0  0  0  0
 25 24  1  0  0  0  0
 26 27  2  0  0  0  0
 27 25  1  0  0  0  0
 28 29  1  0  0  0  0
 29 30  2  0  0  0  0
 29 26  1  0  0  0  0
M  END
>  <MODEL>
8

>  <REMARK>
 VINA RESULT:      -8.9      3.301      5.709
  Name = 
  7 active torsions:
  status: ('A' for Active; 'I' for Inactive)
    1  A    between atoms: C_4  and  C_13
    2  A    between atoms: N_7  and  C_15
    3  A    between atoms: C_8  and  C_12
    4  A    between atoms: C_8  and  C_13
    5  A    between atoms: C_13  and  C_27
    6  A    between atoms: N_16  and  C_30
    7  A    between atoms: C_27  and  C_30
                            x       y       z     vdW  Elec       q    Type
                         _______ _______ _______ _____ _____    ______ ____

>  <TORSDO>
F 7

$$$$
=
 OpenBabel10262421533D

 30 33  0  0  1  0  0  0  0  0999 V2000
  186.9150  178.0070  144.4310 N   0  0  0  0  0  0  0  0  0  0  0  0
  186.4980  178.1990  146.7860 C   0  0  0  0  0  0  0  0  0  0  0  0
  190.8480  176.7520  145.0830 C   0  0  0  0  0  3  0  0  0  0  0  0
  187.7010  177.7330  143.3570 C   0  0  0  0  0  0  0  0  0  0  0  0
  191.6780  176.4670  143.9980 C   0  0  0  0  0  3  0  0  0  0  0  0
  186.9570  178.0800  148.1000 C   0  0  0  0  0  3  0  0  0  0  0  0
  185.0970  178.6550  146.5510 C   0  0  0  0  0  1  0  0  0  0  0  0
  189.5230  177.1730  144.8820 C   0  0  0  0  0  0  0  0  0  0  0  0
  188.2630  177.6610  148.3560 C   0  0  0  0  0  3  0  0  0  0  0  0
  187.3540  177.8930  145.7120 C   0  0  0  0  0  0  0  0  0  0  0  0
  189.0320  177.3070  143.5580 C   0  0  0  0  0  0  0  0  0  0  0  0
  191.1950  176.6010  142.6960 C   0  0  0  0  0  3  0  0  0  0  0  0
  189.8820  177.0180  142.4780 C   0  0  0  0  0  3  0  0  0  0  0  0
  189.1200  177.3560  147.2960 C   0  0  0  0  0  3  0  0  0  0  0  0
  188.6790  177.4680  145.9680 C   0  0  0  0  0  0  0  0  0  0  0  0
  187.0940  177.9270  141.9890 C   0  0  1  0  0  3  0  0  0  0  0  0
  185.6870  179.8160  142.5010 O   0  0  0  0  0  1  0  0  0  0  0  0
  185.6630  178.4970  142.0420 C   0  0  1  0  0  3  0  0  0  0  0  0
  184.9210  179.7520  140.0510 N   0  0  0  0  0  2  0  0  0  0  0  0
  183.2050  177.8700  140.8610 S   0  0  0  0  0  0  0  0  0  0  0  0
  184.9170  178.4520  140.7020 C   0  0  2  0  0  3  0  0  0  0  0  0
  183.8780  179.7400  139.1120 N   0  0  0  0  0  2  0  0  0  0  0  0
  182.7000  179.2430  139.8000 C   0  0  0  0  0  2  0  0  0  0  0  0
  188.0030  178.7650  141.0920 C   0  0  0  0  0  2  0  0  0  0  0  0
  188.4530  177.9570  139.8860 C   0  0  0  0  0  2  0  0  0  0  0  0
  187.4190  177.3910  137.8350 N   0  0  0  0  0  0  0  0  0  0  0  0
  187.6090  178.2600  138.7430 N   0  0  0  0  0  0  0  0  0  0  0  0
  187.1740  178.0340  135.4550 N   0  0  0  0  0  1  0  0  0  0  0  0
  186.5940  177.6730  136.7050 C   0  0  0  0  0  0  0  0  0  0  0  0
  185.3440  177.6000  136.8140 O   0  0  0  0  0  0  0  0  0  0  0  0
  1 10  1  0  0  0  0
  2  6  1  0  0  0  0
  4 11  1  0  0  0  0
  4  1  2  0  0  0  0
  5  3  2  0  0  0  0
  6  9  2  0  0  0  0
  7  2  1  0  0  0  0
  8  3  1  0  0  0  0
  8 15  1  0  0  0  0
 10 15  1  0  0  0  0
 10  2  2  0  0  0  0
 11  8  2  0  0  0  0
 12  5  1  0  0  0  0
 13 12  2  0  0  0  0
 13 11  1  0  0  0  0
 14  9  1  0  0  0  0
 15 14  2  0  0  0  0
 16 24  1  6  0  0  0
 16 18  1  0  0  0  0
 16  4  1  0  0  0  0
 18 17  1  6  0  0  0
 19 21  1  0  0  0  0
 21 20  1  0  0  0  0
 21 18  1  1  0  0  0
 22 23  1  0  0  0  0
 22 19  1  0  0  0  0
 23 20  1  0  0  0  0
 25 24  1  0  0  0  0
 26 27  2  0  0  0  0
 27 25  1  0  0  0  0
 28 29  1  0  0  0  0
 29 30  2  0  0  0  0
 29 26  1  0  0  0  0
M  END
>  <MODEL>
9

>  <REMARK>
 VINA RESULT:      -8.5      3.295      6.478
  Name = 
  7 active torsions:
  status: ('A' for Active; 'I' for Inactive)
    1  A    between atoms: C_4  and  C_13
    2  A    between atoms: N_7  and  C_15
    3  A    between atoms: C_8  and  C_12
    4  A    between atoms: C_8  and  C_13
    5  A    between atoms: C_13  and  C_27
    6  A    between atoms: N_16  and  C_30
    7  A    between atoms: C_27  and  C_30
                            x       y       z     vdW  Elec       q    Type
                         _______ _______ _______ _____ _____    ______ ____

>  <TORSDO>
F 7

$$$$
