=
 OpenBabel10262420033D

 27 31  0  0  1  0  0  0  0  0999 V2000
  187.0460  178.2010  146.2710 N   0  0  0  0  0  0  0  0  0  0  0  0
  187.9460  177.5720  144.1580 N   0  0  0  0  0  2  0  0  0  0  0  0
  183.2130  178.8320  144.6650 C   0  0  0  0  0  3  0  0  0  0  0  0
  181.6820  179.0210  142.6960 C   0  0  0  0  0  1  0  0  0  0  0  0
  186.0400  178.7780  147.1710 C   0  0  0  0  0  2  0  0  0  0  0  0
  185.4000  178.3720  142.9770 C   0  0  0  0  0  3  0  0  0  0  0  0
  184.1270  178.5850  142.4340 C   0  0  0  0  0  3  0  0  0  0  0  0
  186.8880  178.0840  144.9820 C   0  0  0  0  0  0  0  0  0  0  0  0
  183.0330  178.8080  143.2780 C   0  0  0  0  0  0  0  0  0  0  0  0
  184.4890  178.6400  145.2060 C   0  0  0  0  0  0  0  0  0  0  0  0
  189.4430  176.9560  145.8540 O   0  0  0  0  0  0  0  0  0  0  0  0
  185.5830  178.4000  144.3660 C   0  0  0  0  0  0  0  0  0  0  0  0
  184.6900  178.6420  146.6210 N   0  0  0  0  0  2  0  0  0  0  0  0
  189.2030  177.0560  144.6190 C   0  0  0  0  0  0  0  0  0  0  0  0
  190.1360  175.1820  143.2090 C   0  0  0  0  0  1  0  0  0  0  0  0
  190.2620  176.6440  143.6350 C   0  0  1  0  0  3  0  0  0  0  0  0
  191.6220  178.1320  142.3230 O   0  0  0  0  0  1  0  0  0  0  0  0
  190.3330  177.6020  142.4350 C   0  0  1  0  0  3  0  0  0  0  0  0
  190.8290  177.4400  139.9970 C   0  0  0  0  0  2  0  0  0  0  0  0
  189.4390  178.0340  140.1540 C   0  0  2  0  0  3  0  0  0  0  0  0
  189.9230  176.9470  141.1150 C   0  0  2  0  0  3  0  0  0  0  0  0
  187.4140  179.2570  136.8470 O   0  0  0  0  0  0  0  0  0  0  0  0
  188.5420  177.5280  139.0140 C   0  0  2  0  0  3  0  0  0  0  0  0
  189.1760  177.8650  137.6820 C   0  0  0  0  0  2  0  0  0  0  0  0
  188.0320  177.9980  136.6900 C   0  0  1  0  0  3  0  0  0  0  0  0
  186.7770  178.1650  137.4700 C   0  0  1  0  0  3  0  0  0  0  0  0
  187.1470  178.1330  138.9450 C   0  0  0  0  0  2  0  0  0  0  0  0
  1  5  1  0  0  0  0
  2 14  1  0  0  0  0
  2  8  1  0  0  0  0
  3 10  1  0  0  0  0
  4  9  1  0  0  0  0
  6 12  1  0  0  0  0
  7  6  2  0  0  0  0
  7  9  1  0  0  0  0
  8  1  2  0  0  0  0
  9  3  2  0  0  0  0
 10 13  1  0  0  0  0
 12  8  1  0  0  0  0
 12 10  2  0  0  0  0
 13  5  1  0  0  0  0
 14 11  2  0  0  0  0
 16 15  1  6  0  0  0
 16 14  1  0  0  0  0
 18 17  1  6  0  0  0
 18 16  1  0  0  0  0
 19 21  1  0  0  0  0
 20 19  1  6  0  0  0
 20 21  1  0  0  0  0
 21 18  1  1  0  0  0
 22 26  1  0  0  0  0
 23 24  1  6  0  0  0
 23 20  1  0  0  0  0
 25 22  1  0  0  0  0
 25 26  1  0  0  0  0
 25 24  1  1  0  0  0
 26 27  1  1  0  0  0
 27 23  1  0  0  0  0
M  END
>  <MODEL>
1

>  <REMARK>
 VINA RESULT:      -9.0      0.000      0.000
  Name = 
  4 active torsions:
  status: ('A' for Active; 'I' for Inactive)
    1  A    between atoms: C_9  and  C_15
    2  A    between atoms: C_20  and  C_22
    3  A    between atoms: C_20  and  C_26
    4  A    between atoms: C_22  and  C_24
                            x       y       z     vdW  Elec       q    Type
                         _______ _______ _______ _____ _____    ______ ____

>  <TORSDO>
F 4

$$$$
=
 OpenBabel10262420033D

 27 31  0  0  1  0  0  0  0  0999 V2000
  189.9830  176.9440  139.6500 N   0  0  0  0  0  0  0  0  0  0  0  0
  189.8280  177.7690  141.8780 N   0  0  0  0  0  2  0  0  0  0  0  0
  186.1710  178.3990  138.6420 C   0  0  0  0  0  3  0  0  0  0  0  0
  183.9920  179.4360  139.3020 C   0  0  0  0  0  1  0  0  0  0  0  0
  189.4620  176.5710  138.3290 C   0  0  0  0  0  2  0  0  0  0  0  0
  187.0470  178.4400  141.3020 C   0  0  0  0  0  3  0  0  0  0  0  0
  185.7740  178.9230  140.9750 C   0  0  0  0  0  3  0  0  0  0  0  0
  189.2640  177.4960  140.5870 C   0  0  0  0  0  0  0  0  0  0  0  0
  185.3390  178.9090  139.6450 C   0  0  0  0  0  0  0  0  0  0  0  0
  187.4340  177.8970  138.9730 C   0  0  0  0  0  0  0  0  0  0  0  0
  192.0550  177.1980  141.4140 O   0  0  0  0  0  0  0  0  0  0  0  0
  187.8800  177.9250  140.3000 C   0  0  0  0  0  0  0  0  0  0  0  0
  188.3060  177.3900  137.9600 N   0  0  0  0  0  2  0  0  0  0  0  0
  191.1990  177.5790  142.2600 C   0  0  0  0  0  0  0  0  0  0  0  0
  191.6960  179.2960  144.0420 C   0  0  0  0  0  1  0  0  0  0  0  0
  191.6300  177.8130  143.6800 C   0  0  1  0  0  3  0  0  0  0  0  0
  191.6230  176.2820  145.5350 O   0  0  0  0  0  1  0  0  0  0  0  0
  190.7870  177.0020  144.6770 C   0  0  1  0  0  3  0  0  0  0  0  0
  189.1300  177.0060  146.5410 C   0  0  0  0  0  2  0  0  0  0  0  0
  188.3960  177.3640  145.2590 C   0  0  2  0  0  3  0  0  0  0  0  0
  189.8220  177.8650  145.4920 C   0  0  2  0  0  3  0  0  0  0  0  0
  184.5870  177.6970  146.6430 O   0  0  0  0  0  0  0  0  0  0  0  0
  187.2970  178.3890  145.5780 C   0  0  2  0  0  3  0  0  0  0  0  0
  186.8850  178.2570  147.0270 C   0  0  0  0  0  2  0  0  0  0  0  0
  185.4390  178.7240  147.1010 C   0  0  1  0  0  3  0  0  0  0  0  0
  184.8930  178.7150  145.7180 C   0  0  1  0  0  3  0  0  0  0  0  0
  186.0020  178.2440  144.7900 C   0  0  0  0  0  2  0  0  0  0  0  0
  1  8  2  0  0  0  0
  2 14  1  0  0  0  0
  3 10  2  0  0  0  0
  3  9  1  0  0  0  0
  4  9  1  0  0  0  0
  5  1  1  0  0  0  0
  7  6  1  0  0  0  0
  8  2  1  0  0  0  0
  9  7  2  0  0  0  0
 10 12  1  0  0  0  0
 11 14  2  0  0  0  0
 12  8  1  0  0  0  0
 12  6  2  0  0  0  0
 13  5  1  0  0  0  0
 13 10  1  0  0  0  0
 14 16  1  0  0  0  0
 16 15  1  1  0  0  0
 16 18  1  0  0  0  0
 18 17  1  1  0  0  0
 20 21  1  0  0  0  0
 20 23  1  0  0  0  0
 20 19  1  1  0  0  0
 21 18  1  6  0  0  0
 21 19  1  0  0  0  0
 22 25  1  0  0  0  0
 23 27  1  6  0  0  0
 23 24  1  0  0  0  0
 25 24  1  6  0  0  0
 26 27  1  6  0  0  0
 26 22  1  0  0  0  0
 26 25  1  0  0  0  0
M  END
>  <MODEL>
2

>  <REMARK>
 VINA RESULT:      -9.0      2.755      6.307
  Name = 
  4 active torsions:
  status: ('A' for Active; 'I' for Inactive)
    1  A    between atoms: C_9  and  C_15
    2  A    between atoms: C_20  and  C_22
    3  A    between atoms: C_20  and  C_26
    4  A    between atoms: C_22  and  C_24
                            x       y       z     vdW  Elec       q    Type
                         _______ _______ _______ _____ _____    ______ ____

>  <TORSDO>
F 4

$$$$
=
 OpenBabel10262420033D

 27 31  0  0  1  0  0  0  0  0999 V2000
  187.2900  178.3300  139.8880 N   0  0  0  0  0  0  0  0  0  0  0  0
  188.5910  177.5900  141.7400 N   0  0  0  0  0  2  0  0  0  0  0  0
  183.9910  179.2430  142.3270 C   0  0  0  0  0  3  0  0  0  0  0  0
  182.8410  179.1770  144.5480 C   0  0  0  0  0  1  0  0  0  0  0  0
  186.0530  178.7280  139.2040 C   0  0  0  0  0  2  0  0  0  0  0  0
  186.1890  177.8590  143.3750 C   0  0  0  0  0  3  0  0  0  0  0  0
  185.0920  178.1560  144.1930 C   0  0  0  0  0  3  0  0  0  0  0  0
  187.3580  178.0370  141.1570 C   0  0  0  0  0  0  0  0  0  0  0  0
  183.9960  178.8530  143.6710 C   0  0  0  0  0  0  0  0  0  0  0  0
  185.0780  178.9270  141.5050 C   0  0  0  0  0  0  0  0  0  0  0  0
  189.9900  177.9060  139.8840 O   0  0  0  0  0  0  0  0  0  0  0  0
  186.1830  178.2440  142.0270 C   0  0  0  0  0  0  0  0  0  0  0  0
  185.0990  179.3330  140.1350 N   0  0  0  0  0  2  0  0  0  0  0  0
  189.8600  177.5070  141.0750 C   0  0  0  0  0  0  0  0  0  0  0  0
  192.2180  177.9050  141.8840 C   0  0  0  0  0  1  0  0  0  0  0  0
  191.0510  176.9230  141.7810 C   0  0  1  0  0  3  0  0  0  0  0  0
  191.5610  175.2920  143.4730 O   0  0  0  0  0  1  0  0  0  0  0  0
  190.6720  176.3180  143.1420 C   0  0  1  0  0  3  0  0  0  0  0  0
  191.2780  176.7750  145.5170 C   0  0  0  0  0  2  0  0  0  0  0  0
  189.7630  176.8000  145.4070 C   0  0  2  0  0  3  0  0  0  0  0  0
  190.6240  177.3510  144.2690 C   0  0  2  0  0  3  0  0  0  0  0  0
  187.7100  177.2710  148.8850 O   0  0  0  0  0  0  0  0  0  0  0  0
  189.2060  177.8670  146.3620 C   0  0  2  0  0  3  0  0  0  0  0  0
  189.7820  177.6600  147.7460 C   0  0  0  0  0  2  0  0  0  0  0  0
  188.7510  178.2090  148.7200 C   0  0  1  0  0  3  0  0  0  0  0  0
  187.4620  178.3300  147.9890 C   0  0  1  0  0  3  0  0  0  0  0  0
  187.6970  177.8570  146.5640 C   0  0  0  0  0  2  0  0  0  0  0  0
  1  8  2  0  0  0  0
  3  9  1  0  0  0  0
  5  1  1  0  0  0  0
  5 13  1  0  0  0  0
  6  7  1  0  0  0  0
  8  2  1  0  0  0  0
  8 12  1  0  0  0  0
  9  7  2  0  0  0  0
  9  4  1  0  0  0  0
 10 12  1  0  0  0  0
 10  3  2  0  0  0  0
 11 14  2  0  0  0  0
 12  6  2  0  0  0  0
 13 10  1  0  0  0  0
 14  2  1  0  0  0  0
 14 16  1  0  0  0  0
 16 15  1  1  0  0  0
 16 18  1  0  0  0  0
 18 17  1  1  0  0  0
 20 19  1  1  0  0  0
 20 23  1  0  0  0  0
 21 18  1  6  0  0  0
 21 20  1  0  0  0  0
 21 19  1  0  0  0  0
 23 27  1  1  0  0  0
 23 24  1  0  0  0  0
 25 24  1  6  0  0  0
 25 22  1  0  0  0  0
 26 27  1  6  0  0  0
 26 25  1  0  0  0  0
 26 22  1  0  0  0  0
M  END
>  <MODEL>
3

>  <REMARK>
 VINA RESULT:      -8.9      2.484      6.012
  Name = 
  4 active torsions:
  status: ('A' for Active; 'I' for Inactive)
    1  A    between atoms: C_9  and  C_15
    2  A    between atoms: C_20  and  C_22
    3  A    between atoms: C_20  and  C_26
    4  A    between atoms: C_22  and  C_24
                            x       y       z     vdW  Elec       q    Type
                         _______ _______ _______ _____ _____    ______ ____

>  <TORSDO>
F 4

$$$$
=
 OpenBabel10262420033D

 27 31  0  0  1  0  0  0  0  0999 V2000
  185.8440  178.2550  142.4630 N   0  0  0  0  0  0  0  0  0  0  0  0
  188.1390  177.9780  141.8900 N   0  0  0  0  0  2  0  0  0  0  0  0
  186.6520  178.0640  146.5830 C   0  0  0  0  0  3  0  0  0  0  0  0
  188.2350  177.6370  148.4740 C   0  0  0  0  0  1  0  0  0  0  0  0
  184.6850  178.2320  143.3630 C   0  0  0  0  0  2  0  0  0  0  0  0
  188.6530  177.4640  144.7170 C   0  0  0  0  0  3  0  0  0  0  0  0
  188.9280  177.3940  146.0880 C   0  0  0  0  0  3  0  0  0  0  0  0
  187.0660  178.0030  142.8430 C   0  0  0  0  0  0  0  0  0  0  0  0
  187.9310  177.7000  147.0210 C   0  0  0  0  0  0  0  0  0  0  0  0
  186.3710  178.1130  145.2140 C   0  0  0  0  0  0  0  0  0  0  0  0
  186.9530  178.7220  140.0090 O   0  0  0  0  0  0  0  0  0  0  0  0
  187.3710  177.8230  144.2770 C   0  0  0  0  0  0  0  0  0  0  0  0
  185.0780  178.5000  144.7480 N   0  0  0  0  0  2  0  0  0  0  0  0
  188.0410  178.3060  140.4960 C   0  0  0  0  0  0  0  0  0  0  0  0
  190.0050  176.8510  139.8680 C   0  0  0  0  0  1  0  0  0  0  0  0
  189.2290  178.1380  139.5910 C   0  0  1  0  0  3  0  0  0  0  0  0
  189.0430  179.6080  137.6960 O   0  0  0  0  0  1  0  0  0  0  0  0
  188.8470  178.2870  138.1100 C   0  0  1  0  0  3  0  0  0  0  0  0
  189.2490  177.6200  135.7410 C   0  0  0  0  0  2  0  0  0  0  0  0
  188.6080  176.4430  136.4570 C   0  0  2  0  0  3  0  0  0  0  0  0
  189.6120  177.3340  137.1910 C   0  0  2  0  0  3  0  0  0  0  0  0
  187.6400  172.6110  135.5030 O   0  0  0  0  0  0  0  0  0  0  0  0
  189.1960  175.1360  135.9040 C   0  0  2  0  0  3  0  0  0  0  0  0
  188.4280  174.7160  134.6710 C   0  0  0  0  0  2  0  0  0  0  0  0
  188.5440  173.2010  134.5940 C   0  0  1  0  0  3  0  0  0  0  0  0
  188.9790  172.7160  135.9310 C   0  0  1  0  0  3  0  0  0  0  0  0
  189.1310  173.9310  136.8330 C   0  0  0  0  0  2  0  0  0  0  0  0
  1  8  2  0  0  0  0
  1  5  1  0  0  0  0
  2  8  1  0  0  0  0
  3  9  1  0  0  0  0
  5 13  1  0  0  0  0
  6  7  1  0  0  0  0
  7  9  2  0  0  0  0
  8 12  1  0  0  0  0
  9  4  1  0  0  0  0
 10  3  2  0  0  0  0
 11 14  2  0  0  0  0
 12  6  2  0  0  0  0
 12 10  1  0  0  0  0
 13 10  1  0  0  0  0
 14  2  1  0  0  0  0
 16 15  1  6  0  0  0
 16 14  1  0  0  0  0
 18 17  1  6  0  0  0
 18 16  1  0  0  0  0
 19 21  1  0  0  0  0
 20 19  1  6  0  0  0
 20 21  1  0  0  0  0
 21 18  1  1  0  0  0
 22 26  1  0  0  0  0
 23 24  1  6  0  0  0
 23 20  1  0  0  0  0
 23 27  1  0  0  0  0
 25 24  1  1  0  0  0
 25 22  1  0  0  0  0
 25 26  1  0  0  0  0
 26 27  1  1  0  0  0
M  END
>  <MODEL>
4

>  <REMARK>
 VINA RESULT:      -8.5      2.766      4.766
  Name = 
  4 active torsions:
  status: ('A' for Active; 'I' for Inactive)
    1  A    between atoms: C_9  and  C_15
    2  A    between atoms: C_20  and  C_22
    3  A    between atoms: C_20  and  C_26
    4  A    between atoms: C_22  and  C_24
                            x       y       z     vdW  Elec       q    Type
                         _______ _______ _______ _____ _____    ______ ____

>  <TORSDO>
F 4

$$$$
=
 OpenBabel10262420033D

 27 31  0  0  1  0  0  0  0  0999 V2000
  185.0680  179.1030  140.8590 N   0  0  0  0  0  0  0  0  0  0  0  0
  185.8270  178.8180  143.0980 N   0  0  0  0  0  2  0  0  0  0  0  0
  188.6910  177.7070  139.2510 C   0  0  0  0  0  3  0  0  0  0  0  0
  191.0710  176.9910  139.5430 C   0  0  0  0  0  1  0  0  0  0  0  0
  185.2250  179.1990  139.4020 C   0  0  0  0  0  2  0  0  0  0  0  0
  188.4610  178.2150  141.9950 C   0  0  0  0  0  3  0  0  0  0  0  0
  189.6720  177.7540  141.4660 C   0  0  0  0  0  3  0  0  0  0  0  0
  186.0430  178.8260  141.6790 C   0  0  0  0  0  0  0  0  0  0  0  0
  189.7860  177.4930  140.0960 C   0  0  0  0  0  0  0  0  0  0  0  0
  187.4880  178.1880  139.7760 C   0  0  0  0  0  0  0  0  0  0  0  0
  183.5020  179.1230  143.0980 O   0  0  0  0  0  0  0  0  0  0  0  0
  187.3650  178.4340  141.1490 C   0  0  0  0  0  0  0  0  0  0  0  0
  186.3540  178.3940  138.9320 N   0  0  0  0  0  2  0  0  0  0  0  0
  184.5680  179.0000  143.7630 C   0  0  0  0  0  0  0  0  0  0  0  0
  183.7490  177.8900  145.8770 C   0  0  0  0  0  1  0  0  0  0  0  0
  184.5040  179.0690  145.2630 C   0  0  1  0  0  3  0  0  0  0  0  0
  185.7770  179.9130  147.1210 O   0  0  0  0  0  1  0  0  0  0  0  0
  185.8950  179.2650  145.8880 C   0  0  1  0  0  3  0  0  0  0  0  0
  187.2420  177.8830  147.4660 C   0  0  0  0  0  2  0  0  0  0  0  0
  188.1420  178.2860  146.3090 C   0  0  2  0  0  3  0  0  0  0  0  0
  186.6700  177.9580  146.0580 C   0  0  2  0  0  3  0  0  0  0  0  0
  192.0210  177.1380  146.7220 O   0  0  0  0  0  0  0  0  0  0  0  0
  189.1150  177.1370  146.0040 C   0  0  2  0  0  3  0  0  0  0  0  0
  189.7450  176.6500  147.2910 C   0  0  0  0  0  2  0  0  0  0  0  0
  191.1030  176.0820  146.9100 C   0  0  1  0  0  3  0  0  0  0  0  0
  191.4420  176.5980  145.5570 C   0  0  1  0  0  3  0  0  0  0  0  0
  190.2920  177.4830  145.1020 C   0  0  0  0  0  2  0  0  0  0  0  0
  1  8  2  0  0  0  0
  2 14  1  0  0  0  0
  3 10  2  0  0  0  0
  3  9  1  0  0  0  0
  4  9  1  0  0  0  0
  5  1  1  0  0  0  0
  7  6  1  0  0  0  0
  8  2  1  0  0  0  0
  9  7  2  0  0  0  0
 10 12  1  0  0  0  0
 11 14  2  0  0  0  0
 12  8  1  0  0  0  0
 12  6  2  0  0  0  0
 13  5  1  0  0  0  0
 13 10  1  0  0  0  0
 14 16  1  0  0  0  0
 16 15  1  1  0  0  0
 16 18  1  0  0  0  0
 18 17  1  1  0  0  0
 20 19  1  1  0  0  0
 21 18  1  1  0  0  0
 21 20  1  0  0  0  0
 21 19  1  0  0  0  0
 22 25  1  0  0  0  0
 23 27  1  6  0  0  0
 23 20  1  0  0  0  0
 23 24  1  0  0  0  0
 25 24  1  1  0  0  0
 26 27  1  1  0  0  0
 26 22  1  0  0  0  0
 26 25  1  0  0  0  0
M  END
>  <MODEL>
5

>  <REMARK>
 VINA RESULT:      -8.3      2.690      7.261
  Name = 
  4 active torsions:
  status: ('A' for Active; 'I' for Inactive)
    1  A    between atoms: C_9  and  C_15
    2  A    between atoms: C_20  and  C_22
    3  A    between atoms: C_20  and  C_26
    4  A    between atoms: C_22  and  C_24
                            x       y       z     vdW  Elec       q    Type
                         _______ _______ _______ _____ _____    ______ ____

>  <TORSDO>
F 4

$$$$
=
 OpenBabel10262420033D

 27 31  0  0  1  0  0  0  0  0999 V2000
  187.4370  177.7580  143.2770 N   0  0  0  0  0  0  0  0  0  0  0  0
  189.3100  177.6070  141.8140 N   0  0  0  0  0  2  0  0  0  0  0  0
  189.7950  177.0260  146.6790 C   0  0  0  0  0  3  0  0  0  0  0  0
  191.9770  176.3800  147.7180 C   0  0  0  0  0  1  0  0  0  0  0  0
  186.7250  177.5890  144.5500 C   0  0  0  0  0  2  0  0  0  0  0  0
  190.8760  176.7260  144.1130 C   0  0  0  0  0  3  0  0  0  0  0  0
  191.6670  176.4770  145.2410 C   0  0  0  0  0  3  0  0  0  0  0  0
  188.7000  177.4810  143.1070 C   0  0  0  0  0  0  0  0  0  0  0  0
  191.1290  176.6330  146.5240 C   0  0  0  0  0  0  0  0  0  0  0  0
  188.9990  177.2550  145.5510 C   0  0  0  0  0  0  0  0  0  0  0  0
  187.5060  178.5750  140.6700 O   0  0  0  0  0  0  0  0  0  0  0  0
  189.5390  177.1150  144.2670 C   0  0  0  0  0  0  0  0  0  0  0  0
  187.6410  177.6750  145.6890 N   0  0  0  0  0  2  0  0  0  0  0  0
  188.6820  178.1190  140.6290 C   0  0  0  0  0  0  0  0  0  0  0  0
  190.0650  176.7500  139.0210 C   0  0  0  0  0  1  0  0  0  0  0  0
  189.4110  178.0990  139.3150 C   0  0  1  0  0  3  0  0  0  0  0  0
  189.0560  179.7520  137.6040 O   0  0  0  0  0  1  0  0  0  0  0  0
  188.5230  178.5850  138.1580 C   0  0  1  0  0  3  0  0  0  0  0  0
  187.2910  178.0240  136.0650 C   0  0  0  0  0  2  0  0  0  0  0  0
  186.8860  177.0200  137.1300 C   0  0  2  0  0  3  0  0  0  0  0  0
  188.3250  177.5330  137.0660 C   0  0  2  0  0  3  0  0  0  0  0  0
  186.0690  173.1250  137.9680 O   0  0  0  0  0  0  0  0  0  0  0  0
  186.6650  175.6490  136.4730 C   0  0  2  0  0  3  0  0  0  0  0  0
  185.3060  175.1110  136.8650 C   0  0  0  0  0  2  0  0  0  0  0  0
  185.4170  173.5960  136.8080 C   0  0  1  0  0  3  0  0  0  0  0  0
  186.8640  173.2510  136.8110 C   0  0  1  0  0  3  0  0  0  0  0  0
  187.6450  174.5540  136.8690 C   0  0  0  0  0  2  0  0  0  0  0  0
  1  5  1  0  0  0  0
  2  8  1  0  0  0  0
  5 13  1  0  0  0  0
  6 12  2  0  0  0  0
  6  7  1  0  0  0  0
  7  9  2  0  0  0  0
  8  1  2  0  0  0  0
  8 12  1  0  0  0  0
  9  3  1  0  0  0  0
  9  4  1  0  0  0  0
 10 13  1  0  0  0  0
 10  3  2  0  0  0  0
 12 10  1  0  0  0  0
 14 11  2  0  0  0  0
 14  2  1  0  0  0  0
 16 15  1  6  0  0  0
 16 14  1  0  0  0  0
 18 17  1  6  0  0  0
 18 16  1  0  0  0  0
 19 21  1  0  0  0  0
 20 19  1  6  0  0  0
 21 20  1  0  0  0  0
 21 18  1  1  0  0  0
 23 24  1  1  0  0  0
 23 27  1  0  0  0  0
 23 20  1  0  0  0  0
 25 26  1  0  0  0  0
 25 24  1  1  0  0  0
 25 22  1  0  0  0  0
 26 27  1  1  0  0  0
 26 22  1  0  0  0  0
M  END
>  <MODEL>
6

>  <REMARK>
 VINA RESULT:      -8.1      2.680      5.483
  Name = 
  4 active torsions:
  status: ('A' for Active; 'I' for Inactive)
    1  A    between atoms: C_9  and  C_15
    2  A    between atoms: C_20  and  C_22
    3  A    between atoms: C_20  and  C_26
    4  A    between atoms: C_22  and  C_24
                            x       y       z     vdW  Elec       q    Type
                         _______ _______ _______ _____ _____    ______ ____

>  <TORSDO>
F 4

$$$$
=
 OpenBabel10262420033D

 27 31  0  0  1  0  0  0  0  0999 V2000
  184.2790  178.4790  140.1650 N   0  0  0  0  0  0  0  0  0  0  0  0
  186.6320  178.1210  140.2410 N   0  0  0  0  0  2  0  0  0  0  0  0
  184.0040  178.8200  144.3450 C   0  0  0  0  0  3  0  0  0  0  0  0
  185.0360  178.6350  146.6170 C   0  0  0  0  0  1  0  0  0  0  0  0
  182.9290  178.5770  140.7320 C   0  0  0  0  0  2  0  0  0  0  0  0
  186.3900  177.9750  143.1450 C   0  0  0  0  0  3  0  0  0  0  0  0
  186.3050  178.0820  144.5390 C   0  0  0  0  0  3  0  0  0  0  0  0
  185.3540  178.2730  140.8750 C   0  0  0  0  0  0  0  0  0  0  0  0
  185.1150  178.5110  145.1380 C   0  0  0  0  0  0  0  0  0  0  0  0
  184.0830  178.6920  142.9540 C   0  0  0  0  0  0  0  0  0  0  0  0
  185.9930  178.6200  138.0400 O   0  0  0  0  0  0  0  0  0  0  0  0
  185.2770  178.2790  142.3500 C   0  0  0  0  0  0  0  0  0  0  0  0
  182.9660  179.0210  142.1270 N   0  0  0  0  0  2  0  0  0  0  0  0
  186.9040  178.2660  138.8390 C   0  0  0  0  0  0  0  0  0  0  0  0
  189.0380  179.2450  137.9110 C   0  0  0  0  0  1  0  0  0  0  0  0
  188.2770  177.9770  138.2980 C   0  0  1  0  0  3  0  0  0  0  0  0
  190.0690  176.3890  138.5150 O   0  0  0  0  0  1  0  0  0  0  0  0
  189.0860  177.0700  139.2380 C   0  0  1  0  0  3  0  0  0  0  0  0
  191.0810  177.2160  140.7260 C   0  0  0  0  0  2  0  0  0  0  0  0
  189.8780  176.8710  141.5880 C   0  0  2  0  0  3  0  0  0  0  0  0
  189.7250  177.8260  140.4040 C   0  0  2  0  0  3  0  0  0  0  0  0
  191.6850  176.5210  145.2130 O   0  0  0  0  0  0  0  0  0  0  0  0
  190.0210  177.5600  142.9530 C   0  0  2  0  0  3  0  0  0  0  0  0
  191.4820  177.8460  143.2270 C   0  0  0  0  0  2  0  0  0  0  0  0
  191.6360  177.8490  144.7400 C   0  0  1  0  0  3  0  0  0  0  0  0
  190.4420  177.1760  145.3150 C   0  0  1  0  0  3  0  0  0  0  0  0
  189.5490  176.7580  144.1580 C   0  0  0  0  0  2  0  0  0  0  0  0
  1  5  1  0  0  0  0
  1  8  2  0  0  0  0
  2  8  1  0  0  0  0
  3  9  1  0  0  0  0
  5 13  1  0  0  0  0
  6  7  1  0  0  0  0
  7  9  2  0  0  0  0
  8 12  1  0  0  0  0
  9  4  1  0  0  0  0
 10  3  2  0  0  0  0
 11 14  2  0  0  0  0
 12 10  1  0  0  0  0
 12  6  2  0  0  0  0
 13 10  1  0  0  0  0
 14  2  1  0  0  0  0
 16 15  1  1  0  0  0
 16 14  1  0  0  0  0
 16 18  1  0  0  0  0
 18 17  1  6  0  0  0
 20 19  1  6  0  0  0
 20 23  1  0  0  0  0
 21 18  1  6  0  0  0
 21 19  1  0  0  0  0
 21 20  1  0  0  0  0
 22 26  1  0  0  0  0
 23 24  1  1  0  0  0
 23 27  1  0  0  0  0
 25 24  1  6  0  0  0
 25 22  1  0  0  0  0
 25 26  1  0  0  0  0
 26 27  1  6  0  0  0
M  END
>  <MODEL>
7

>  <REMARK>
 VINA RESULT:      -8.1      2.156      5.385
  Name = 
  4 active torsions:
  status: ('A' for Active; 'I' for Inactive)
    1  A    between atoms: C_9  and  C_15
    2  A    between atoms: C_20  and  C_22
    3  A    between atoms: C_20  and  C_26
    4  A    between atoms: C_22  and  C_24
                            x       y       z     vdW  Elec       q    Type
                         _______ _______ _______ _____ _____    ______ ____

>  <TORSDO>
F 4

$$$$
=
 OpenBabel10262420033D

 27 31  0  0  1  0  0  0  0  0999 V2000
  189.1780  177.3930  143.2560 N   0  0  0  0  0  0  0  0  0  0  0  0
  188.5450  177.8150  140.9990 N   0  0  0  0  0  2  0  0  0  0  0  0
  185.3080  178.1860  144.6910 C   0  0  0  0  0  3  0  0  0  0  0  0
  182.9710  179.0010  144.3170 C   0  0  0  0  0  1  0  0  0  0  0  0
  189.0060  177.4190  144.7130 C   0  0  0  0  0  2  0  0  0  0  0  0
  185.9710  178.7330  142.0250 C   0  0  0  0  0  3  0  0  0  0  0  0
  184.6810  179.0030  142.4970 C   0  0  0  0  0  3  0  0  0  0  0  0
  188.2770  177.8090  142.4090 C   0  0  0  0  0  0  0  0  0  0  0  0
  184.3470  178.7230  143.8260 C   0  0  0  0  0  0  0  0  0  0  0  0
  186.6030  177.9360  144.2240 C   0  0  0  0  0  0  0  0  0  0  0  0
  190.6210  176.7260  141.0330 O   0  0  0  0  0  0  0  0  0  0  0  0
  186.9360  178.1990  142.8900 C   0  0  0  0  0  0  0  0  0  0  0  0
  187.5920  177.3690  145.0860 N   0  0  0  0  0  2  0  0  0  0  0  0
  189.7230  177.3040  140.3590 C   0  0  0  0  0  0  0  0  0  0  0  0
  190.3260  176.1690  138.1870 C   0  0  0  0  0  1  0  0  0  0  0  0
  189.9150  177.4690  138.8780 C   0  0  1  0  0  3  0  0  0  0  0  0
  189.0450  179.3960  137.7320 O   0  0  0  0  0  1  0  0  0  0  0  0
  188.6980  178.1290  138.2110 C   0  0  1  0  0  3  0  0  0  0  0  0
  186.7580  177.8760  136.6650 C   0  0  0  0  0  2  0  0  0  0  0  0
  186.7970  176.6580  137.5740 C   0  0  2  0  0  3  0  0  0  0  0  0
  188.0990  177.2900  137.0820 C   0  0  2  0  0  3  0  0  0  0  0  0
  184.9310  173.0670  137.9680 O   0  0  0  0  0  0  0  0  0  0  0  0
  186.3440  175.4230  136.7800 C   0  0  2  0  0  3  0  0  0  0  0  0
  184.8520  175.2330  136.9450 C   0  0  0  0  0  2  0  0  0  0  0  0
  184.5940  173.7440  136.7760 C   0  0  1  0  0  3  0  0  0  0  0  0
  185.8940  173.0410  136.9390 C   0  0  1  0  0  3  0  0  0  0  0  0
  186.9550  174.0960  137.2070 C   0  0  0  0  0  2  0  0  0  0  0  0
  1  5  1  0  0  0  0
  2  8  1  0  0  0  0
  5 13  1  0  0  0  0
  6  7  2  0  0  0  0
  6 12  1  0  0  0  0
  7  9  1  0  0  0  0
  8 12  1  0  0  0  0
  8  1  2  0  0  0  0
  9  4  1  0  0  0  0
  9  3  2  0  0  0  0
 10  3  1  0  0  0  0
 10 13  1  0  0  0  0
 12 10  2  0  0  0  0
 14  2  1  0  0  0  0
 14 11  2  0  0  0  0
 16 15  1  6  0  0  0
 16 14  1  0  0  0  0
 18 17  1  6  0  0  0
 18 16  1  0  0  0  0
 19 21  1  0  0  0  0
 20 19  1  6  0  0  0
 21 20  1  0  0  0  0
 21 18  1  1  0  0  0
 23 24  1  1  0  0  0
 23 27  1  0  0  0  0
 23 20  1  0  0  0  0
 25 26  1  0  0  0  0
 25 24  1  1  0  0  0
 25 22  1  0  0  0  0
 26 27  1  1  0  0  0
 26 22  1  0  0  0  0
M  END
>  <MODEL>
8

>  <REMARK>
 VINA RESULT:      -8.0      2.583      4.101
  Name = 
  4 active torsions:
  status: ('A' for Active; 'I' for Inactive)
    1  A    between atoms: C_9  and  C_15
    2  A    between atoms: C_20  and  C_22
    3  A    between atoms: C_20  and  C_26
    4  A    between atoms: C_22  and  C_24
                            x       y       z     vdW  Elec       q    Type
                         _______ _______ _______ _____ _____    ______ ____

>  <TORSDO>
F 4

$$$$
=
 OpenBabel10262420033D

 27 31  0  0  1  0  0  0  0  0999 V2000
  185.4090  178.6770  139.9340 N   0  0  0  0  0  0  0  0  0  0  0  0
  183.8980  178.5330  141.7680 N   0  0  0  0  0  2  0  0  0  0  0  0
  182.6480  176.9490  137.2770 C   0  0  0  0  0  3  0  0  0  0  0  0
  180.4730  175.7900  136.8470 C   0  0  0  0  0  1  0  0  0  0  0  0
  185.8940  178.3740  138.5820 C   0  0  0  0  0  2  0  0  0  0  0  0
  182.1310  176.9940  140.0290 C   0  0  0  0  0  3  0  0  0  0  0  0
  181.2080  176.4130  139.1510 C   0  0  0  0  0  3  0  0  0  0  0  0
  184.2730  178.2510  140.4120 C   0  0  0  0  0  0  0  0  0  0  0  0
  181.4630  176.3970  137.7750 C   0  0  0  0  0  0  0  0  0  0  0  0
  183.5800  177.5110  138.1570 C   0  0  0  0  0  0  0  0  0  0  0  0
  185.6670  179.9670  142.3300 O   0  0  0  0  0  0  0  0  0  0  0  0
  183.3200  177.5430  139.5330 C   0  0  0  0  0  0  0  0  0  0  0  0
  184.7870  178.0970  137.6660 N   0  0  0  0  0  2  0  0  0  0  0  0
  184.6250  179.3540  142.6940 C   0  0  0  0  0  0  0  0  0  0  0  0
  182.8550  178.7410  144.3860 C   0  0  0  0  0  1  0  0  0  0  0  0
  184.1660  179.4810  144.1200 C   0  0  1  0  0  3  0  0  0  0  0  0
  184.7490  179.0400  146.4110 O   0  0  0  0  0  1  0  0  0  0  0  0
  185.2710  179.0940  145.1150 C   0  0  1  0  0  3  0  0  0  0  0  0
  186.8960  177.3750  145.9020 C   0  0  0  0  0  2  0  0  0  0  0  0
  187.4590  178.0120  144.6420 C   0  0  2  0  0  3  0  0  0  0  0  0
  185.9550  177.7700  144.7730 C   0  0  2  0  0  3  0  0  0  0  0  0
  190.7600  177.4300  142.3390 O   0  0  0  0  0  0  0  0  0  0  0  0
  188.2110  176.9450  143.8310 C   0  0  2  0  0  3  0  0  0  0  0  0
  189.6230  176.8100  144.3550 C   0  0  0  0  0  2  0  0  0  0  0  0
  190.4680  176.3370  143.1820 C   0  0  1  0  0  3  0  0  0  0  0  0
  189.6960  176.5980  141.9390 C   0  0  1  0  0  3  0  0  0  0  0  0
  188.3740  177.2300  142.3440 C   0  0  0  0  0  2  0  0  0  0  0  0
  1  8  2  0  0  0  0
  2 14  1  0  0  0  0
  3  9  2  0  0  0  0
  3 10  1  0  0  0  0
  4  9  1  0  0  0  0
  5  1  1  0  0  0  0
  7  6  2  0  0  0  0
  8  2  1  0  0  0  0
  9  7  1  0  0  0  0
 10 12  2  0  0  0  0
 11 14  2  0  0  0  0
 12  6  1  0  0  0  0
 12  8  1  0  0  0  0
 13 10  1  0  0  0  0
 13  5  1  0  0  0  0
 14 16  1  0  0  0  0
 16 15  1  6  0  0  0
 16 18  1  0  0  0  0
 18 17  1  1  0  0  0
 20 21  1  0  0  0  0
 20 19  1  1  0  0  0
 21 18  1  1  0  0  0
 21 19  1  0  0  0  0
 22 25  1  0  0  0  0
 23 27  1  6  0  0  0
 23 24  1  0  0  0  0
 23 20  1  0  0  0  0
 25 24  1  1  0  0  0
 26 22  1  0  0  0  0
 26 27  1  1  0  0  0
 26 25  1  0  0  0  0
M  END
>  <MODEL>
9

>  <REMARK>
 VINA RESULT:      -8.0      3.493      6.411
  Name = 
  4 active torsions:
  status: ('A' for Active; 'I' for Inactive)
    1  A    between atoms: C_9  and  C_15
    2  A    between atoms: C_20  and  C_22
    3  A    between atoms: C_20  and  C_26
    4  A    between atoms: C_22  and  C_24
                            x       y       z     vdW  Elec       q    Type
                         _______ _______ _______ _____ _____    ______ ____

>  <TORSDO>
F 4

$$$$
