=
 OpenBabel10262420013D

 27 28  0  0  1  0  0  0  0  0999 V2000
  189.4220  177.6920  141.9820 C   0  0  2  0  0  3  0  0  0  0  0  0
  188.9220  178.0800  139.5590 C   0  0  0  0  0  0  0  0  0  0  0  0
  187.9130  178.7580  139.8950 O   0  0  0  0  0  0  0  0  0  0  0  0
  189.7280  177.4460  140.5670 N   0  0  0  0  0  0  0  0  0  0  0  0
  188.4850  176.8350  137.4590 C   0  0  0  0  0  1  0  0  0  0  0  0
  189.0090  179.2610  137.3800 C   0  0  0  0  0  1  0  0  0  0  0  0
  189.2730  177.9570  138.1060 C   0  0  0  0  0  3  0  0  0  0  0  0
  190.8830  176.6280  140.1960 C   0  0  0  0  0  2  0  0  0  0  0  0
  192.0250  177.4230  140.1020 O   0  0  0  0  0  1  0  0  0  0  0  0
  190.6780  177.8370  142.8600 C   0  0  1  0  0  3  0  0  0  0  0  0
  190.6890  179.1630  143.6090 C   0  0  0  0  0  1  0  0  0  0  0  0
  191.0900  175.5550  143.3540 O   0  0  0  0  0  0  0  0  0  0  0  0
  190.8430  176.6970  143.8280 C   0  0  0  0  0  0  0  0  0  0  0  0
  190.5480  177.1720  148.0840 C   0  0  0  0  0  3  0  0  0  0  0  0
  190.7310  176.8670  145.2960 C   0  0  0  0  0  0  0  0  0  0  0  0
  191.7840  176.4580  146.1300 C   0  0  0  0  0  3  0  0  0  0  0  0
  191.6930  176.6100  147.5160 C   0  0  0  0  0  3  0  0  0  0  0  0
  189.4920  177.5830  147.2650 C   0  0  0  0  0  3  0  0  0  0  0  0
  189.5840  177.4300  145.8790 C   0  0  0  0  0  3  0  0  0  0  0  0
  188.3730  176.7110  142.5300 C   0  0  0  0  0  2  0  0  0  0  0  0
  185.8100  177.8330  145.0820 C   0  0  0  0  0  3  0  0  0  0  0  0
  184.9270  178.5730  144.2900 C   0  0  0  0  0  0  0  0  0  0  0  0
  186.2830  178.1030  142.3410 C   0  0  0  0  0  3  0  0  0  0  0  0
  186.9320  177.2310  144.5050 C   0  0  0  0  0  3  0  0  0  0  0  0
  183.7350  179.2130  144.9040 C   0  0  0  0  0  1  0  0  0  0  0  0
  185.1620  178.7040  142.9180 C   0  0  0  0  0  3  0  0  0  0  0  0
  187.1760  177.3710  143.1340 C   0  0  0  0  0  0  0  0  0  0  0  0
  1 20  1  1  0  0  0
  1 10  1  0  0  0  0
  2  3  2  0  0  0  0
  2  4  1  0  0  0  0
  4  1  1  0  0  0  0
  5  7  1  0  0  0  0
  6  7  1  0  0  0  0
  7  2  1  0  0  0  0
  8  4  1  0  0  0  0
  9  8  1  0  0  0  0
 10 11  1  1  0  0  0
 10 13  1  0  0  0  0
 12 13  2  0  0  0  0
 13 15  1  0  0  0  0
 15 19  2  0  0  0  0
 15 16  1  0  0  0  0
 16 17  2  0  0  0  0
 17 14  1  0  0  0  0
 18 14  2  0  0  0  0
 19 18  1  0  0  0  0
 20 27  1  0  0  0  0
 22 25  1  0  0  0  0
 22 21  2  0  0  0  0
 23 26  2  0  0  0  0
 23 27  1  0  0  0  0
 24 21  1  0  0  0  0
 26 22  1  0  0  0  0
 27 24  2  0  0  0  0
M  END
>  <MODEL>
1

>  <REMARK>
 VINA RESULT:      -8.6      0.000      0.000
  Name = 
  8 active torsions:
  status: ('A' for Active; 'I' for Inactive)
    1  A    between atoms: C_2  and  C_15
    2  A    between atoms: C_2  and  C_19
    3  A    between atoms: C_3  and  C_19
    4  A    between atoms: C_3  and  C_26
    5  A    between atoms: C_8  and  C_16
    6  A    between atoms: C_9  and  C_15
    7  A    between atoms: N_14  and  C_17
    8  A    between atoms: N_14  and  C_19
                            x       y       z     vdW  Elec       q    Type
                         _______ _______ _______ _____ _____    ______ ____

>  <TORSDO>
F 8

$$$$
=
 OpenBabel10262420013D

 27 28  0  0  1  0  0  0  0  0999 V2000
  189.3620  177.3920  141.3690 C   0  0  2  0  0  3  0  0  0  0  0  0
  189.9390  176.5770  139.0720 C   0  0  0  0  0  0  0  0  0  0  0  0
  190.7180  175.7300  139.5890 O   0  0  0  0  0  0  0  0  0  0  0  0
  189.2400  177.5140  139.9110 N   0  0  0  0  0  0  0  0  0  0  0  0
  191.0680  176.3780  136.8730 C   0  0  0  0  0  1  0  0  0  0  0  0
  188.7580  175.5140  137.1690 C   0  0  0  0  0  1  0  0  0  0  0  0
  189.7460  176.5860  137.5850 C   0  0  0  0  0  3  0  0  0  0  0  0
  188.3570  178.5250  139.3280 C   0  0  0  0  0  2  0  0  0  0  0  0
  189.0950  179.4170  138.5500 O   0  0  0  0  0  1  0  0  0  0  0  0
  188.1510  177.9610  142.1310 C   0  0  1  0  0  3  0  0  0  0  0  0
  186.9790  178.2350  141.1980 C   0  0  0  0  0  1  0  0  0  0  0  0
  187.9240  175.8360  143.1570 O   0  0  0  0  0  0  0  0  0  0  0  0
  187.7120  177.0740  143.2650 C   0  0  0  0  0  0  0  0  0  0  0  0
  185.7850  178.6010  146.7830 C   0  0  0  0  0  3  0  0  0  0  0  0
  187.0550  177.5970  144.4860 C   0  0  0  0  0  0  0  0  0  0  0  0
  185.7720  178.1610  144.4040 C   0  0  0  0  0  3  0  0  0  0  0  0
  185.1400  178.6600  145.5460 C   0  0  0  0  0  3  0  0  0  0  0  0
  187.0630  178.0430  146.8780 C   0  0  0  0  0  3  0  0  0  0  0  0
  187.6940  177.5440  145.7360 C   0  0  0  0  0  3  0  0  0  0  0  0
  190.7250  177.8860  141.8820 C   0  0  0  0  0  2  0  0  0  0  0  0
  191.7920  175.4980  144.6220 C   0  0  0  0  0  3  0  0  0  0  0  0
  191.7730  176.3310  145.7450 C   0  0  0  0  0  0  0  0  0  0  0  0
  191.0680  178.1850  144.3580 C   0  0  0  0  0  3  0  0  0  0  0  0
  191.4530  176.0100  143.3660 C   0  0  0  0  0  3  0  0  0  0  0  0
  192.1350  175.7870  147.0790 C   0  0  0  0  0  1  0  0  0  0  0  0
  191.4080  177.6730  145.6130 C   0  0  0  0  0  3  0  0  0  0  0  0
  191.0980  177.3570  143.2290 C   0  0  0  0  0  0  0  0  0  0  0  0
  1 20  1  1  0  0  0
  1 10  1  0  0  0  0
  2  3  2  0  0  0  0
  2  4  1  0  0  0  0
  4  1  1  0  0  0  0
  5  7  1  0  0  0  0
  6  7  1  0  0  0  0
  7  2  1  0  0  0  0
  8  4  1  0  0  0  0
  9  8  1  0  0  0  0
 10 11  1  6  0  0  0
 10 13  1  0  0  0  0
 12 13  2  0  0  0  0
 13 15  1  0  0  0  0
 14 18  1  0  0  0  0
 15 19  1  0  0  0  0
 16 15  2  0  0  0  0
 16 17  1  0  0  0  0
 17 14  2  0  0  0  0
 19 18  2  0  0  0  0
 20 27  1  0  0  0  0
 21 22  1  0  0  0  0
 22 25  1  0  0  0  0
 23 26  1  0  0  0  0
 24 21  2  0  0  0  0
 26 22  2  0  0  0  0
 27 24  1  0  0  0  0
 27 23  2  0  0  0  0
M  END
>  <MODEL>
2

>  <REMARK>
 VINA RESULT:      -7.8      1.512      4.578
  Name = 
  8 active torsions:
  status: ('A' for Active; 'I' for Inactive)
    1  A    between atoms: C_2  and  C_15
    2  A    between atoms: C_2  and  C_19
    3  A    between atoms: C_3  and  C_19
    4  A    between atoms: C_3  and  C_26
    5  A    between atoms: C_8  and  C_16
    6  A    between atoms: C_9  and  C_15
    7  A    between atoms: N_14  and  C_17
    8  A    between atoms: N_14  and  C_19
                            x       y       z     vdW  Elec       q    Type
                         _______ _______ _______ _____ _____    ______ ____

>  <TORSDO>
F 8

$$$$
=
 OpenBabel10262420013D

 27 28  0  0  1  0  0  0  0  0999 V2000
  189.3590  177.7930  141.9350 C   0  0  2  0  0  3  0  0  0  0  0  0
  190.2580  176.8630  139.7900 C   0  0  0  0  0  0  0  0  0  0  0  0
  190.8710  175.9810  140.4510 O   0  0  0  0  0  0  0  0  0  0  0  0
  189.4970  177.8740  140.4750 N   0  0  0  0  0  0  0  0  0  0  0  0
  191.7280  176.5070  137.8240 C   0  0  0  0  0  1  0  0  0  0  0  0
  189.3400  175.8260  137.7330 C   0  0  0  0  0  1  0  0  0  0  0  0
  190.3230  176.8360  138.2920 C   0  0  0  0  0  3  0  0  0  0  0  0
  188.8060  178.9250  139.7280 C   0  0  0  0  0  2  0  0  0  0  0  0
  187.5610  178.4680  139.2950 O   0  0  0  0  0  1  0  0  0  0  0  0
  190.7040  177.6260  142.6660 C   0  0  1  0  0  3  0  0  0  0  0  0
  191.1380  178.9180  143.3430 C   0  0  0  0  0  1  0  0  0  0  0  0
  190.6860  175.3210  143.2210 O   0  0  0  0  0  0  0  0  0  0  0  0
  190.6840  176.5010  143.6650 C   0  0  0  0  0  0  0  0  0  0  0  0
  190.6070  177.1750  147.9030 C   0  0  0  0  0  3  0  0  0  0  0  0
  190.6670  176.7280  145.1300 C   0  0  0  0  0  0  0  0  0  0  0  0
  189.5500  177.3280  145.7320 C   0  0  0  0  0  3  0  0  0  0  0  0
  189.5200  177.5500  147.1110 C   0  0  0  0  0  3  0  0  0  0  0  0
  191.7250  176.5780  147.3160 C   0  0  0  0  0  3  0  0  0  0  0  0
  191.7550  176.3560  145.9370 C   0  0  0  0  0  3  0  0  0  0  0  0
  188.2750  176.7900  142.3620 C   0  0  0  0  0  2  0  0  0  0  0  0
  185.7750  177.7650  145.0350 C   0  0  0  0  0  3  0  0  0  0  0  0
  184.8760  178.5510  144.3090 C   0  0  0  0  0  0  0  0  0  0  0  0
  186.1860  178.1940  142.3040 C   0  0  0  0  0  3  0  0  0  0  0  0
  186.8820  177.1970  144.3980 C   0  0  0  0  0  3  0  0  0  0  0  0
  183.7010  179.1570  144.9870 C   0  0  0  0  0  1  0  0  0  0  0  0
  185.0800  178.7630  142.9420 C   0  0  0  0  0  3  0  0  0  0  0  0
  187.0940  177.4160  143.0320 C   0  0  0  0  0  0  0  0  0  0  0  0
  1 20  1  6  0  0  0
  1 10  1  0  0  0  0
  2  3  2  0  0  0  0
  2  4  1  0  0  0  0
  4  1  1  0  0  0  0
  5  7  1  0  0  0  0
  6  7  1  0  0  0  0
  7  2  1  0  0  0  0
  8  4  1  0  0  0  0
  9  8  1  0  0  0  0
 10 11  1  1  0  0  0
 10 13  1  0  0  0  0
 12 13  2  0  0  0  0
 13 15  1  0  0  0  0
 15 16  2  0  0  0  0
 15 19  1  0  0  0  0
 16 17  1  0  0  0  0
 17 14  2  0  0  0  0
 18 14  1  0  0  0  0
 19 18  2  0  0  0  0
 20 27  1  0  0  0  0
 22 25  1  0  0  0  0
 22 21  2  0  0  0  0
 23 26  2  0  0  0  0
 23 27  1  0  0  0  0
 24 21  1  0  0  0  0
 26 22  1  0  0  0  0
 27 24  2  0  0  0  0
M  END
>  <MODEL>
3

>  <REMARK>
 VINA RESULT:      -7.8      0.803      1.939
  Name = 
  8 active torsions:
  status: ('A' for Active; 'I' for Inactive)
    1  A    between atoms: C_2  and  C_15
    2  A    between atoms: C_2  and  C_19
    3  A    between atoms: C_3  and  C_19
    4  A    between atoms: C_3  and  C_26
    5  A    between atoms: C_8  and  C_16
    6  A    between atoms: C_9  and  C_15
    7  A    between atoms: N_14  and  C_17
    8  A    between atoms: N_14  and  C_19
                            x       y       z     vdW  Elec       q    Type
                         _______ _______ _______ _____ _____    ______ ____

>  <TORSDO>
F 8

$$$$
=
 OpenBabel10262420013D

 27 28  0  0  1  0  0  0  0  0999 V2000
  189.6530  177.0260  144.1150 C   0  0  2  0  0  3  0  0  0  0  0  0
  190.5210  177.0730  141.7660 C   0  0  0  0  0  0  0  0  0  0  0  0
  190.1280  175.8830  141.6170 O   0  0  0  0  0  0  0  0  0  0  0  0
  190.3670  177.7240  143.0400 N   0  0  0  0  0  0  0  0  0  0  0  0
  192.5890  177.4040  140.4390 C   0  0  0  0  0  1  0  0  0  0  0  0
  190.3700  177.4990  139.3280 C   0  0  0  0  0  1  0  0  0  0  0  0
  191.1340  177.7950  140.6040 C   0  0  0  0  0  3  0  0  0  0  0  0
  190.8460  179.0920  143.2420 C   0  0  0  0  0  2  0  0  0  0  0  0
  191.9690  179.0920  144.0710 O   0  0  0  0  0  1  0  0  0  0  0  0
  190.5600  176.1020  144.9490 C   0  0  1  0  0  3  0  0  0  0  0  0
  191.8390  175.7490  144.2030 C   0  0  0  0  0  1  0  0  0  0  0  0
  192.1100  176.7870  146.6080 O   0  0  0  0  0  0  0  0  0  0  0  0
  190.8930  176.6820  146.2970 C   0  0  0  0  0  0  0  0  0  0  0  0
  187.9090  178.0090  149.0840 C   0  0  0  0  0  3  0  0  0  0  0  0
  189.8550  177.1320  147.2560 C   0  0  0  0  0  0  0  0  0  0  0  0
  190.0520  178.3060  148.0000 C   0  0  0  0  0  3  0  0  0  0  0  0
  189.0840  178.7420  148.9090 C   0  0  0  0  0  3  0  0  0  0  0  0
  187.7010  176.8380  148.3490 C   0  0  0  0  0  3  0  0  0  0  0  0
  188.6690  176.4020  147.4410 C   0  0  0  0  0  3  0  0  0  0  0  0
  188.3570  176.3650  143.6190 C   0  0  0  0  0  2  0  0  0  0  0  0
  185.4540  178.2200  145.1940 C   0  0  0  0  0  3  0  0  0  0  0  0
  184.8440  178.7930  144.0750 C   0  0  0  0  0  0  0  0  0  0  0  0
  186.5200  177.7860  142.6470 C   0  0  0  0  0  3  0  0  0  0  0  0
  186.5990  177.4330  145.0410 C   0  0  0  0  0  3  0  0  0  0  0  0
  183.6280  179.6320  144.2380 C   0  0  0  0  0  1  0  0  0  0  0  0
  185.3760  178.5740  142.8010 C   0  0  0  0  0  3  0  0  0  0  0  0
  187.1400  177.2200  143.7680 C   0  0  0  0  0  0  0  0  0  0  0  0
  1 20  1  6  0  0  0
  1 10  1  0  0  0  0
  2  4  1  0  0  0  0
  3  2  2  0  0  0  0
  4  8  1  0  0  0  0
  4  1  1  0  0  0  0
  5  7  1  0  0  0  0
  6  7  1  0  0  0  0
  7  2  1  0  0  0  0
  8  9  1  0  0  0  0
 10 11  1  6  0  0  0
 10 13  1  0  0  0  0
 13 12  2  0  0  0  0
 13 15  1  0  0  0  0
 15 19  2  0  0  0  0
 15 16  1  0  0  0  0
 16 17  2  0  0  0  0
 17 14  1  0  0  0  0
 18 14  2  0  0  0  0
 19 18  1  0  0  0  0
 20 27  1  0  0  0  0
 22 25  1  0  0  0  0
 22 21  2  0  0  0  0
 23 26  2  0  0  0  0
 23 27  1  0  0  0  0
 24 21  1  0  0  0  0
 26 22  1  0  0  0  0
 27 24  2  0  0  0  0
M  END
>  <MODEL>
4

>  <REMARK>
 VINA RESULT:      -7.2      1.658      2.748
  Name = 
  8 active torsions:
  status: ('A' for Active; 'I' for Inactive)
    1  A    between atoms: C_2  and  C_15
    2  A    between atoms: C_2  and  C_19
    3  A    between atoms: C_3  and  C_19
    4  A    between atoms: C_3  and  C_26
    5  A    between atoms: C_8  and  C_16
    6  A    between atoms: C_9  and  C_15
    7  A    between atoms: N_14  and  C_17
    8  A    between atoms: N_14  and  C_19
                            x       y       z     vdW  Elec       q    Type
                         _______ _______ _______ _____ _____    ______ ____

>  <TORSDO>
F 8

$$$$
=
 OpenBabel10262420013D

 27 28  0  0  1  0  0  0  0  0999 V2000
  187.8150  177.3120  141.7980 C   0  0  2  0  0  3  0  0  0  0  0  0
  188.5310  177.5880  139.4130 C   0  0  0  0  0  0  0  0  0  0  0  0
  187.3180  177.5600  139.0660 O   0  0  0  0  0  0  0  0  0  0  0  0
  188.8840  177.4120  140.7970 N   0  0  0  0  0  0  0  0  0  0  0  0
  189.8580  176.5440  137.5970 C   0  0  0  0  0  1  0  0  0  0  0  0
  189.1720  178.9250  137.4260 C   0  0  0  0  0  1  0  0  0  0  0  0
  189.5870  177.8180  138.3740 C   0  0  0  0  0  3  0  0  0  0  0  0
  190.2870  177.4080  141.2150 C   0  0  0  0  0  2  0  0  0  0  0  0
  190.8480  176.1480  141.0070 O   0  0  0  0  0  1  0  0  0  0  0  0
  187.3540  178.6810  142.3340 C   0  0  1  0  0  3  0  0  0  0  0  0
  188.3440  179.7830  141.9840 C   0  0  0  0  0  1  0  0  0  0  0  0
  185.8510  179.4400  140.6650 O   0  0  0  0  0  0  0  0  0  0  0  0
  185.9760  179.0540  141.8590 C   0  0  0  0  0  0  0  0  0  0  0  0
  182.4890  178.8320  144.3520 C   0  0  0  0  0  3  0  0  0  0  0  0
  184.7780  178.9790  142.7290 C   0  0  0  0  0  0  0  0  0  0  0  0
  183.5280  178.6650  142.1730 C   0  0  0  0  0  3  0  0  0  0  0  0
  182.3900  178.5910  142.9800 C   0  0  0  0  0  3  0  0  0  0  0  0
  183.7280  179.1460  144.9170 C   0  0  0  0  0  3  0  0  0  0  0  0
  184.8650  179.2190  144.1100 C   0  0  0  0  0  3  0  0  0  0  0  0
  188.1330  176.2760  142.8880 C   0  0  0  0  0  2  0  0  0  0  0  0
  189.4230  177.7860  146.1130 C   0  0  0  0  0  3  0  0  0  0  0  0
  188.2540  177.8650  146.8750 C   0  0  0  0  0  0  0  0  0  0  0  0
  186.9950  176.9070  145.0430 C   0  0  0  0  0  3  0  0  0  0  0  0
  189.3780  177.2710  144.8150 C   0  0  0  0  0  3  0  0  0  0  0  0
  188.3020  178.4140  148.2550 C   0  0  0  0  0  1  0  0  0  0  0  0
  187.0400  177.4220  146.3420 C   0  0  0  0  0  3  0  0  0  0  0  0
  188.1620  176.8370  144.2730 C   0  0  0  0  0  0  0  0  0  0  0  0
  1 10  1  0  0  0  0
  1 20  1  1  0  0  0
  2  4  1  0  0  0  0
  3  2  2  0  0  0  0
  4  8  1  0  0  0  0
  4  1  1  0  0  0  0
  5  7  1  0  0  0  0
  6  7  1  0  0  0  0
  7  2  1  0  0  0  0
  9  8  1  0  0  0  0
 10 11  1  6  0  0  0
 12 13  2  0  0  0  0
 13 10  1  0  0  0  0
 13 15  1  0  0  0  0
 14 18  1  0  0  0  0
 15 19  1  0  0  0  0
 16 15  2  0  0  0  0
 16 17  1  0  0  0  0
 17 14  2  0  0  0  0
 19 18  2  0  0  0  0
 20 27  1  0  0  0  0
 21 22  1  0  0  0  0
 22 25  1  0  0  0  0
 23 26  1  0  0  0  0
 24 21  2  0  0  0  0
 26 22  2  0  0  0  0
 27 24  1  0  0  0  0
 27 23  2  0  0  0  0
M  END
>  <MODEL>
5

>  <REMARK>
 VINA RESULT:      -7.2      1.548      4.776
  Name = 
  8 active torsions:
  status: ('A' for Active; 'I' for Inactive)
    1  A    between atoms: C_2  and  C_15
    2  A    between atoms: C_2  and  C_19
    3  A    between atoms: C_3  and  C_19
    4  A    between atoms: C_3  and  C_26
    5  A    between atoms: C_8  and  C_16
    6  A    between atoms: C_9  and  C_15
    7  A    between atoms: N_14  and  C_17
    8  A    between atoms: N_14  and  C_19
                            x       y       z     vdW  Elec       q    Type
                         _______ _______ _______ _____ _____    ______ ____

>  <TORSDO>
F 8

$$$$
=
 OpenBabel10262420013D

 27 28  0  0  1  0  0  0  0  0999 V2000
  189.0390  177.5730  141.5630 C   0  0  2  0  0  3  0  0  0  0  0  0
  189.7490  177.7310  143.9600 C   0  0  0  0  0  0  0  0  0  0  0  0
  189.9580  178.9650  143.7970 O   0  0  0  0  0  0  0  0  0  0  0  0
  189.3260  176.9230  142.8470 N   0  0  0  0  0  0  0  0  0  0  0  0
  191.3990  177.1290  145.7100 C   0  0  0  0  0  1  0  0  0  0  0  0
  189.1210  177.8830  146.3540 C   0  0  0  0  0  1  0  0  0  0  0  0
  189.9340  177.1280  145.3200 C   0  0  0  0  0  3  0  0  0  0  0  0
  189.1100  175.4840  143.0080 C   0  0  0  0  0  2  0  0  0  0  0  0
  190.3180  174.7990  142.8790 O   0  0  0  0  0  1  0  0  0  0  0  0
  190.2830  177.7270  140.6670 C   0  0  1  0  0  3  0  0  0  0  0  0
  191.5450  177.2510  141.3720 C   0  0  0  0  0  1  0  0  0  0  0  0
  190.9290  176.0790  139.0890 O   0  0  0  0  0  0  0  0  0  0  0  0
  190.1330  177.0230  139.3450 C   0  0  0  0  0  0  0  0  0  0  0  0
  187.1170  178.0540  136.4700 C   0  0  0  0  0  3  0  0  0  0  0  0
  189.0950  177.3900  138.3520 C   0  0  0  0  0  0  0  0  0  0  0  0
  188.1300  176.4460  137.9690 C   0  0  0  0  0  3  0  0  0  0  0  0
  187.1450  176.7760  137.0330 C   0  0  0  0  0  3  0  0  0  0  0  0
  188.0740  179.0020  136.8440 C   0  0  0  0  0  3  0  0  0  0  0  0
  189.0570  178.6710  137.7790 C   0  0  0  0  0  3  0  0  0  0  0  0
  188.2160  178.8590  141.7330 C   0  0  0  0  0  2  0  0  0  0  0  0
  184.8020  178.6080  140.1100 C   0  0  0  0  0  3  0  0  0  0  0  0
  183.9840  178.3450  141.2130 C   0  0  0  0  0  0  0  0  0  0  0  0
  185.9190  178.4170  142.6660 C   0  0  0  0  0  3  0  0  0  0  0  0
  186.1790  178.7720  140.2840 C   0  0  0  0  0  3  0  0  0  0  0  0
  182.5200  178.1690  141.0270 C   0  0  0  0  0  1  0  0  0  0  0  0
  184.5420  178.2530  142.4910 C   0  0  0  0  0  3  0  0  0  0  0  0
  186.7430  178.6690  141.5620 C   0  0  0  0  0  0  0  0  0  0  0  0
  1 20  1  1  0  0  0
  1  4  1  0  0  0  0
  2  7  1  0  0  0  0
  3  2  2  0  0  0  0
  4  8  1  0  0  0  0
  4  2  1  0  0  0  0
  7  5  1  0  0  0  0
  7  6  1  0  0  0  0
  9  8  1  0  0  0  0
 10 11  1  1  0  0  0
 10  1  1  0  0  0  0
 12 13  2  0  0  0  0
 13 10  1  0  0  0  0
 14 18  2  0  0  0  0
 14 17  1  0  0  0  0
 15 13  1  0  0  0  0
 16 15  1  0  0  0  0
 17 16  2  0  0  0  0
 18 19  1  0  0  0  0
 19 15  2  0  0  0  0
 21 24  2  0  0  0  0
 21 22  1  0  0  0  0
 22 26  2  0  0  0  0
 24 27  1  0  0  0  0
 25 22  1  0  0  0  0
 26 23  1  0  0  0  0
 27 20  1  0  0  0  0
 27 23  2  0  0  0  0
M  END
>  <MODEL>
6

>  <REMARK>
 VINA RESULT:      -6.9      1.740      6.135
  Name = 
  8 active torsions:
  status: ('A' for Active; 'I' for Inactive)
    1  A    between atoms: C_2  and  C_15
    2  A    between atoms: C_2  and  C_19
    3  A    between atoms: C_3  and  C_19
    4  A    between atoms: C_3  and  C_26
    5  A    between atoms: C_8  and  C_16
    6  A    between atoms: C_9  and  C_15
    7  A    between atoms: N_14  and  C_17
    8  A    between atoms: N_14  and  C_19
                            x       y       z     vdW  Elec       q    Type
                         _______ _______ _______ _____ _____    ______ ____

>  <TORSDO>
F 8

$$$$
=
 OpenBabel10262420013D

 27 28  0  0  1  0  0  0  0  0999 V2000
  188.5040  177.1600  141.8650 C   0  0  2  0  0  3  0  0  0  0  0  0
  186.4910  177.6850  143.2600 C   0  0  0  0  0  0  0  0  0  0  0  0
  186.6790  176.6140  143.9000 O   0  0  0  0  0  0  0  0  0  0  0  0
  187.3510  178.0210  142.1570 N   0  0  0  0  0  0  0  0  0  0  0  0
  184.0900  178.2290  142.9580 C   0  0  0  0  0  1  0  0  0  0  0  0
  185.1700  178.5500  145.1720 C   0  0  0  0  0  1  0  0  0  0  0  0
  185.3760  178.6000  143.6710 C   0  0  0  0  0  3  0  0  0  0  0  0
  187.1290  179.2420  141.3810 C   0  0  0  0  0  2  0  0  0  0  0  0
  186.2260  178.9970  140.3460 O   0  0  0  0  0  1  0  0  0  0  0  0
  189.1870  176.6080  143.1300 C   0  0  1  0  0  3  0  0  0  0  0  0
  190.2670  175.5920  142.7860 C   0  0  0  0  0  1  0  0  0  0  0  0
  190.2610  178.7010  143.4280 O   0  0  0  0  0  0  0  0  0  0  0  0
  189.7590  177.6950  143.9990 C   0  0  0  0  0  0  0  0  0  0  0  0
  189.7000  177.5190  148.2870 C   0  0  0  0  0  3  0  0  0  0  0  0
  189.7490  177.6280  145.4800 C   0  0  0  0  0  0  0  0  0  0  0  0
  188.6330  178.0940  146.1930 C   0  0  0  0  0  3  0  0  0  0  0  0
  188.6090  178.0390  147.5900 C   0  0  0  0  0  3  0  0  0  0  0  0
  190.8180  177.0520  147.5890 C   0  0  0  0  0  3  0  0  0  0  0  0
  190.8410  177.1070  146.1930 C   0  0  0  0  0  3  0  0  0  0  0  0
  189.4650  177.7990  140.8500 C   0  0  0  0  0  2  0  0  0  0  0  0
  188.5650  176.3140  137.4840 C   0  0  0  0  0  3  0  0  0  0  0  0
  189.7420  175.6400  137.1490 C   0  0  0  0  0  0  0  0  0  0  0  0
  190.7500  176.3660  139.2270 C   0  0  0  0  0  3  0  0  0  0  0  0
  188.4800  177.0180  138.6890 C   0  0  0  0  0  3  0  0  0  0  0  0
  189.8320  174.8930  135.8680 C   0  0  0  0  0  1  0  0  0  0  0  0
  190.8340  175.6630  138.0220 C   0  0  0  0  0  3  0  0  0  0  0  0
  189.5750  177.0530  139.5600 C   0  0  0  0  0  0  0  0  0  0  0  0
  1 20  1  1  0  0  0
  1  4  1  0  0  0  0
  1 10  1  0  0  0  0
  2  7  1  0  0  0  0
  2  3  2  0  0  0  0
  4  2  1  0  0  0  0
  5  7  1  0  0  0  0
  7  6  1  0  0  0  0
  8  4  1  0  0  0  0
  9  8  1  0  0  0  0
 10 11  1  6  0  0  0
 10 13  1  0  0  0  0
 12 13  2  0  0  0  0
 13 15  1  0  0  0  0
 15 19  2  0  0  0  0
 15 16  1  0  0  0  0
 16 17  2  0  0  0  0
 17 14  1  0  0  0  0
 18 14  2  0  0  0  0
 19 18  1  0  0  0  0
 21 24  1  0  0  0  0
 22 21  2  0  0  0  0
 22 26  1  0  0  0  0
 23 27  1  0  0  0  0
 24 27  2  0  0  0  0
 25 22  1  0  0  0  0
 26 23  2  0  0  0  0
 27 20  1  0  0  0  0
M  END
>  <MODEL>
7

>  <REMARK>
 VINA RESULT:      -6.8      1.756      5.412
  Name = 
  8 active torsions:
  status: ('A' for Active; 'I' for Inactive)
    1  A    between atoms: C_2  and  C_15
    2  A    between atoms: C_2  and  C_19
    3  A    between atoms: C_3  and  C_19
    4  A    between atoms: C_3  and  C_26
    5  A    between atoms: C_8  and  C_16
    6  A    between atoms: C_9  and  C_15
    7  A    between atoms: N_14  and  C_17
    8  A    between atoms: N_14  and  C_19
                            x       y       z     vdW  Elec       q    Type
                         _______ _______ _______ _____ _____    ______ ____

>  <TORSDO>
F 8

$$$$
=
 OpenBabel10262420013D

 27 28  0  0  1  0  0  0  0  0999 V2000
  182.5460  178.3150  141.4460 C   0  0  2  0  0  3  0  0  0  0  0  0
  183.0060  177.0500  139.3330 C   0  0  0  0  0  0  0  0  0  0  0  0
  182.3510  176.0760  139.7960 O   0  0  0  0  0  0  0  0  0  0  0  0
  183.2060  178.2270  140.1370 N   0  0  0  0  0  0  0  0  0  0  0  0
  183.9580  175.5460  137.6070 C   0  0  0  0  0  1  0  0  0  0  0  0
  182.5410  177.4710  136.9340 C   0  0  0  0  0  1  0  0  0  0  0  0
  183.5570  176.9690  137.9410 C   0  0  0  0  0  3  0  0  0  0  0  0
  183.9900  179.3540  139.6300 C   0  0  0  0  0  2  0  0  0  0  0  0
  185.3510  179.0510  139.6730 O   0  0  0  0  0  1  0  0  0  0  0  0
  181.0090  178.3520  141.3520 C   0  0  1  0  0  3  0  0  0  0  0  0
  180.3580  177.9560  142.6700 C   0  0  0  0  0  1  0  0  0  0  0  0
  180.1020  180.4990  141.7850 O   0  0  0  0  0  0  0  0  0  0  0  0
  180.4890  179.6890  140.9000 C   0  0  0  0  0  0  0  0  0  0  0  0
  180.3110  180.8630  136.7750 C   0  0  0  0  0  3  0  0  0  0  0  0
  180.4220  180.0850  139.4730 C   0  0  0  0  0  0  0  0  0  0  0  0
  181.0600  181.2580  139.0420 C   0  0  0  0  0  3  0  0  0  0  0  0
  181.0050  181.6450  137.7000 C   0  0  0  0  0  3  0  0  0  0  0  0
  179.6710  179.6920  137.1920 C   0  0  0  0  0  3  0  0  0  0  0  0
  179.7270  179.3060  138.5330 C   0  0  0  0  0  3  0  0  0  0  0  0
  183.1560  179.4140  142.3310 C   0  0  0  0  0  2  0  0  0  0  0  0
  184.6970  178.6060  145.6950 C   0  0  0  0  0  3  0  0  0  0  0  0
  185.8950  177.9930  145.3170 C   0  0  0  0  0  0  0  0  0  0  0  0
  185.3180  178.3020  142.9870 C   0  0  0  0  0  3  0  0  0  0  0  0
  183.8080  179.0650  144.7200 C   0  0  0  0  0  3  0  0  0  0  0  0
  186.8400  177.5040  146.3540 C   0  0  0  0  0  1  0  0  0  0  0  0
  186.2070  177.8440  143.9620 C   0  0  0  0  0  3  0  0  0  0  0  0
  184.1120  178.9070  143.3620 C   0  0  0  0  0  0  0  0  0  0  0  0
  1 20  1  6  0  0  0
  2  3  2  0  0  0  0
  2  4  1  0  0  0  0
  4  1  1  0  0  0  0
  5  7  1  0  0  0  0
  6  7  1  0  0  0  0
  7  2  1  0  0  0  0
  8  9  1  0  0  0  0
  8  4  1  0  0  0  0
 10  1  1  0  0  0  0
 10 11  1  1  0  0  0
 13 10  1  0  0  0  0
 13 12  2  0  0  0  0
 14 18  2  0  0  0  0
 14 17  1  0  0  0  0
 15 13  1  0  0  0  0
 16 15  1  0  0  0  0
 17 16  2  0  0  0  0
 18 19  1  0  0  0  0
 19 15  2  0  0  0  0
 20 27  1  0  0  0  0
 22 21  1  0  0  0  0
 22 25  1  0  0  0  0
 23 27  2  0  0  0  0
 23 26  1  0  0  0  0
 24 21  2  0  0  0  0
 26 22  2  0  0  0  0
 27 24  1  0  0  0  0
M  END
>  <MODEL>
8

>  <REMARK>
 VINA RESULT:      -6.6      4.960      8.836
  Name = 
  8 active torsions:
  status: ('A' for Active; 'I' for Inactive)
    1  A    between atoms: C_2  and  C_15
    2  A    between atoms: C_2  and  C_19
    3  A    between atoms: C_3  and  C_19
    4  A    between atoms: C_3  and  C_26
    5  A    between atoms: C_8  and  C_16
    6  A    between atoms: C_9  and  C_15
    7  A    between atoms: N_14  and  C_17
    8  A    between atoms: N_14  and  C_19
                            x       y       z     vdW  Elec       q    Type
                         _______ _______ _______ _____ _____    ______ ____

>  <TORSDO>
F 8

$$$$
=
 OpenBabel10262420013D

 27 28  0  0  1  0  0  0  0  0999 V2000
  188.2180  177.2160  141.6430 C   0  0  2  0  0  3  0  0  0  0  0  0
  190.5170  177.2480  140.6510 C   0  0  0  0  0  0  0  0  0  0  0  0
  191.0000  177.1650  141.8130 O   0  0  0  0  0  0  0  0  0  0  0  0
  189.0930  177.3360  140.4700 N   0  0  0  0  0  0  0  0  0  0  0  0
  192.8740  177.4710  139.9100 C   0  0  0  0  0  1  0  0  0  0  0  0
  191.3350  175.9300  138.7160 C   0  0  0  0  0  1  0  0  0  0  0  0
  191.4410  177.2420  139.4700 C   0  0  0  0  0  3  0  0  0  0  0  0
  188.5150  177.4660  139.1320 C   0  0  0  0  0  2  0  0  0  0  0  0
  188.7460  178.7470  138.6300 O   0  0  0  0  0  1  0  0  0  0  0  0
  187.6670  178.5690  142.1320 C   0  0  1  0  0  3  0  0  0  0  0  0
  188.5750  179.7220  141.7320 C   0  0  0  0  0  1  0  0  0  0  0  0
  186.0830  178.9950  140.4200 O   0  0  0  0  0  0  0  0  0  0  0  0
  186.2630  178.8280  141.6560 C   0  0  0  0  0  0  0  0  0  0  0  0
  182.9200  179.0040  144.3430 C   0  0  0  0  0  3  0  0  0  0  0  0
  185.1010  178.8860  142.5750 C   0  0  0  0  0  0  0  0  0  0  0  0
  185.2870  179.2640  143.9140 C   0  0  0  0  0  3  0  0  0  0  0  0
  184.2020  179.3220  144.7940 C   0  0  0  0  0  3  0  0  0  0  0  0
  182.7220  178.6260  143.0120 C   0  0  0  0  0  3  0  0  0  0  0  0
  183.8070  178.5680  142.1340 C   0  0  0  0  0  3  0  0  0  0  0  0
  188.8400  176.3460  142.7470 C   0  0  0  0  0  2  0  0  0  0  0  0
  189.4310  177.8620  146.1670 C   0  0  0  0  0  3  0  0  0  0  0  0
  188.1600  177.7680  146.7410 C   0  0  0  0  0  0  0  0  0  0  0  0
  187.3210  176.7440  144.7150 C   0  0  0  0  0  3  0  0  0  0  0  0
  189.6470  177.4000  144.8650 C   0  0  0  0  0  3  0  0  0  0  0  0
  187.9310  178.2610  148.1240 C   0  0  0  0  0  1  0  0  0  0  0  0
  187.1060  177.2060  146.0160 C   0  0  0  0  0  3  0  0  0  0  0  0
  188.5900  176.8480  144.1330 C   0  0  0  0  0  0  0  0  0  0  0  0
  1 10  1  0  0  0  0
  1 20  1  1  0  0  0
  2  3  2  0  0  0  0
  4  2  1  0  0  0  0
  4  1  1  0  0  0  0
  6  7  1  0  0  0  0
  7  5  1  0  0  0  0
  7  2  1  0  0  0  0
  8  4  1  0  0  0  0
  9  8  1  0  0  0  0
 10 11  1  6  0  0  0
 12 13  2  0  0  0  0
 13 10  1  0  0  0  0
 13 15  1  0  0  0  0
 14 17  1  0  0  0  0
 15 16  1  0  0  0  0
 16 17  2  0  0  0  0
 18 14  2  0  0  0  0
 19 15  2  0  0  0  0
 19 18  1  0  0  0  0
 20 27  1  0  0  0  0
 21 22  1  0  0  0  0
 22 25  1  0  0  0  0
 23 26  1  0  0  0  0
 24 21  2  0  0  0  0
 26 22  2  0  0  0  0
 27 23  2  0  0  0  0
 27 24  1  0  0  0  0
M  END
>  <MODEL>
9

>  <REMARK>
 VINA RESULT:      -6.6      1.649      4.883
  Name = 
  8 active torsions:
  status: ('A' for Active; 'I' for Inactive)
    1  A    between atoms: C_2  and  C_15
    2  A    between atoms: C_2  and  C_19
    3  A    between atoms: C_3  and  C_19
    4  A    between atoms: C_3  and  C_26
    5  A    between atoms: C_8  and  C_16
    6  A    between atoms: C_9  and  C_15
    7  A    between atoms: N_14  and  C_17
    8  A    between atoms: N_14  and  C_19
                            x       y       z     vdW  Elec       q    Type
                         _______ _______ _______ _____ _____    ______ ____

>  <TORSDO>
F 8

$$$$
