=
 OpenBabel10262419573D

 25 28  0  0  1  0  0  0  0  0999 V2000
  186.1630  178.2260  144.9660 C   0  0  0  0  0  0  0  0  0  0  0  0
  185.9560  177.6230  143.6110 C   0  0  1  0  0  3  0  0  0  0  0  0
  184.5020  179.9360  144.7110 N   0  0  0  0  0  0  0  0  0  0  0  0
  186.9000  177.8560  145.9940 C   0  0  0  0  0  0  0  0  0  0  0  0
  188.1740  177.6400  148.5250 C   0  0  0  0  0  3  0  0  0  0  0  0
  184.2230  179.4460  143.3840 C   0  0  0  0  0  3  0  0  0  0  0  0
  186.5990  178.7660  147.0900 C   0  0  0  0  0  0  0  0  0  0  0  0
  187.2020  178.5580  148.4050 C   0  0  0  0  0  3  0  0  0  0  0  0
  188.7500  176.8970  147.3280 C   0  0  0  0  0  2  0  0  0  0  0  0
  185.4180  179.3670  145.4270 C   0  0  0  0  0  0  0  0  0  0  0  0
  185.7170  179.6700  146.7880 N   0  0  0  0  0  0  0  0  0  0  0  0
  187.7370  176.6360  146.1950 C   0  0  0  0  0  2  0  0  0  0  0  0
  184.8710  178.3800  142.8470 C   0  0  0  0  0  0  0  0  0  0  0  0
  187.2450  177.5800  142.8420 C   0  0  0  0  0  0  0  0  0  0  0  0
  188.8200  178.5650  141.2810 C   0  0  0  0  0  3  0  0  0  0  0  0
  188.0900  176.4780  142.9910 C   0  0  0  0  0  3  0  0  0  0  0  0
  189.2960  176.4170  142.2870 C   0  0  0  0  0  3  0  0  0  0  0  0
  187.6140  178.6270  141.9830 C   0  0  0  0  0  3  0  0  0  0  0  0
  189.6700  177.4590  141.4270 C   0  0  0  0  0  0  0  0  0  0  0  0
  190.9420  177.3950  140.6860 C   0  0  0  0  0  0  0  0  0  0  0  0
  190.9490  177.1470  139.2840 N   0  0  0  0  0  1  0  0  0  0  0  0
  192.0370  177.5590  141.2870 O   0  0  0  0  0  0  0  0  0  0  0  0
  184.4980  177.8910  141.4760 C   0  0  0  0  0  3  0  0  0  0  0  0
  184.8680  178.9040  140.4080 C   0  0  0  0  0  1  0  0  0  0  0  0
  183.0210  177.5500  141.3910 C   0  0  0  0  0  1  0  0  0  0  0  0
  1 10  1  0  0  0  0
  1  4  2  0  0  0  0
  2 14  1  6  0  0  0
  2  1  1  0  0  0  0
  3 10  2  0  0  0  0
  4 12  1  0  0  0  0
  4  7  1  0  0  0  0
  6  3  1  0  0  0  0
  7  8  1  0  0  0  0
  8  5  2  0  0  0  0
  9  5  1  0  0  0  0
 10 11  1  0  0  0  0
 11  7  2  0  0  0  0
 12  9  1  0  0  0  0
 13  6  2  0  0  0  0
 13  2  1  0  0  0  0
 14 16  1  0  0  0  0
 15 19  2  0  0  0  0
 15 18  1  0  0  0  0
 17 16  2  0  0  0  0
 18 14  2  0  0  0  0
 19 17  1  0  0  0  0
 20 22  2  0  0  0  0
 20 19  1  0  0  0  0
 21 20  1  0  0  0  0
 23 13  1  0  0  0  0
 24 23  1  0  0  0  0
 25 23  1  0  0  0  0
M  END
>  <MODEL>
1

>  <REMARK>
 VINA RESULT:      -7.9      0.000      0.000
  Name = 
  3 active torsions:
  status: ('A' for Active; 'I' for Inactive)
    1  A    between atoms: C_2  and  C_25
    2  A    between atoms: C_3  and  C_6
    3  A    between atoms: C_13  and  C_24
                            x       y       z     vdW  Elec       q    Type
                         _______ _______ _______ _____ _____    ______ ____

>  <TORSDO>
F 3

$$$$
=
 OpenBabel10262419573D

 25 28  0  0  1  0  0  0  0  0999 V2000
  189.7430  177.3860  142.6370 C   0  0  0  0  0  0  0  0  0  0  0  0
  188.9410  178.2650  141.7270 C   0  0  1  0  0  3  0  0  0  0  0  0
  190.5290  175.9250  140.9070 N   0  0  0  0  0  0  0  0  0  0  0  0
  190.0310  177.4730  143.9200 C   0  0  0  0  0  0  0  0  0  0  0  0
  191.0460  177.0590  146.5410 C   0  0  0  0  0  3  0  0  0  0  0  0
  189.7860  176.6950  139.9400 C   0  0  0  0  0  3  0  0  0  0  0  0
  190.9590  176.3950  144.2270 C   0  0  0  0  0  0  0  0  0  0  0  0
  191.5350  176.2780  145.5650 C   0  0  0  0  0  3  0  0  0  0  0  0
  189.8440  177.9690  146.3370 C   0  0  0  0  0  2  0  0  0  0  0  0
  190.4850  176.2510  142.1590 C   0  0  0  0  0  0  0  0  0  0  0  0
  191.2550  175.6560  143.2010 N   0  0  0  0  0  0  0  0  0  0  0  0
  189.7190  178.5450  144.9110 C   0  0  0  0  0  2  0  0  0  0  0  0
  189.0470  177.7810  140.2820 C   0  0  0  0  0  0  0  0  0  0  0  0
  187.5120  178.3410  142.1800 C   0  0  0  0  0  0  0  0  0  0  0  0
  185.6740  177.5470  143.5520 C   0  0  0  0  0  3  0  0  0  0  0  0
  186.6740  179.3150  141.6310 C   0  0  0  0  0  3  0  0  0  0  0  0
  185.3400  179.4060  142.0400 C   0  0  0  0  0  3  0  0  0  0  0  0
  187.0060  177.4550  143.1440 C   0  0  0  0  0  3  0  0  0  0  0  0
  184.8300  178.5230  143.0010 C   0  0  0  0  0  0  0  0  0  0  0  0
  183.4240  178.6200  143.4320 C   0  0  0  0  0  0  0  0  0  0  0  0
  182.3810  178.7350  142.4700 N   0  0  0  0  0  1  0  0  0  0  0  0
  183.1320  178.6030  144.6570 O   0  0  0  0  0  0  0  0  0  0  0  0
  188.3360  178.5670  139.2180 C   0  0  0  0  0  3  0  0  0  0  0  0
  187.1590  177.7930  138.6520 C   0  0  0  0  0  1  0  0  0  0  0  0
  189.2830  178.9770  138.1040 C   0  0  0  0  0  1  0  0  0  0  0  0
  1  4  2  0  0  0  0
  2 14  1  1  0  0  0
  2  1  1  0  0  0  0
  3 10  2  0  0  0  0
  4  7  1  0  0  0  0
  4 12  1  0  0  0  0
  6 13  2  0  0  0  0
  6  3  1  0  0  0  0
  7  8  1  0  0  0  0
  8  5  2  0  0  0  0
  9  5  1  0  0  0  0
 10  1  1  0  0  0  0
 10 11  1  0  0  0  0
 11  7  2  0  0  0  0
 12  9  1  0  0  0  0
 13  2  1  0  0  0  0
 14 18  1  0  0  0  0
 16 17  1  0  0  0  0
 16 14  2  0  0  0  0
 17 19  2  0  0  0  0
 18 15  2  0  0  0  0
 19 20  1  0  0  0  0
 19 15  1  0  0  0  0
 20 22  2  0  0  0  0
 21 20  1  0  0  0  0
 23 13  1  0  0  0  0
 24 23  1  0  0  0  0
 25 23  1  0  0  0  0
M  END
>  <MODEL>
2

>  <REMARK>
 VINA RESULT:      -7.1      2.939      5.630
  Name = 
  3 active torsions:
  status: ('A' for Active; 'I' for Inactive)
    1  A    between atoms: C_2  and  C_25
    2  A    between atoms: C_3  and  C_6
    3  A    between atoms: C_13  and  C_24
                            x       y       z     vdW  Elec       q    Type
                         _______ _______ _______ _____ _____    ______ ____

>  <TORSDO>
F 3

$$$$
=
 OpenBabel10262419573D

 25 28  0  0  1  0  0  0  0  0999 V2000
  188.4850  177.6250  141.5920 C   0  0  0  0  0  0  0  0  0  0  0  0
  189.4560  177.9800  140.5080 C   0  0  1  0  0  3  0  0  0  0  0  0
  189.9130  176.0230  142.6600 N   0  0  0  0  0  0  0  0  0  0  0  0
  187.3110  178.1240  141.9250 C   0  0  0  0  0  0  0  0  0  0  0  0
  184.8350  178.7120  143.1860 C   0  0  0  0  0  3  0  0  0  0  0  0
  190.9210  176.2780  141.6620 C   0  0  0  0  0  3  0  0  0  0  0  0
  186.8920  177.4580  143.1490 C   0  0  0  0  0  0  0  0  0  0  0  0
  185.6570  177.8610  143.8200 C   0  0  0  0  0  3  0  0  0  0  0  0
  185.0790  179.1760  141.7580 C   0  0  0  0  0  2  0  0  0  0  0  0
  188.7800  176.6470  142.6040 C   0  0  0  0  0  0  0  0  0  0  0  0
  187.7450  176.5800  143.5830 N   0  0  0  0  0  0  0  0  0  0  0  0
  186.5680  179.2960  141.3750 C   0  0  0  0  0  2  0  0  0  0  0  0
  190.7460  177.1760  140.6580 C   0  0  0  0  0  0  0  0  0  0  0  0
  188.8390  177.7860  139.1530 C   0  0  0  0  0  0  0  0  0  0  0  0
  187.6960  176.4030  137.5190 C   0  0  0  0  0  3  0  0  0  0  0  0
  188.8330  178.8500  138.2480 C   0  0  0  0  0  3  0  0  0  0  0  0
  188.2620  178.6930  136.9820 C   0  0  0  0  0  3  0  0  0  0  0  0
  188.2670  176.5580  138.7840 C   0  0  0  0  0  3  0  0  0  0  0  0
  187.6900  177.4690  136.6080 C   0  0  0  0  0  0  0  0  0  0  0  0
  187.0880  177.3040  135.2730 C   0  0  0  0  0  0  0  0  0  0  0  0
  186.8690  176.0030  134.7360 N   0  0  0  0  0  1  0  0  0  0  0  0
  186.7620  178.3140  134.5940 O   0  0  0  0  0  0  0  0  0  0  0  0
  191.8560  177.4280  139.6780 C   0  0  0  0  0  3  0  0  0  0  0  0
  191.8610  176.3930  138.5690 C   0  0  0  0  0  1  0  0  0  0  0  0
  193.2080  177.4690  140.3680 C   0  0  0  0  0  1  0  0  0  0  0  0
  1  4  2  0  0  0  0
  1 10  1  0  0  0  0
  2 14  1  6  0  0  0
  2 13  1  0  0  0  0
  2  1  1  0  0  0  0
  4  7  1  0  0  0  0
  5  8  2  0  0  0  0
  6  3  1  0  0  0  0
  7 11  2  0  0  0  0
  7  8  1  0  0  0  0
  9  5  1  0  0  0  0
 10  3  2  0  0  0  0
 10 11  1  0  0  0  0
 12  9  1  0  0  0  0
 12  4  1  0  0  0  0
 13  6  2  0  0  0  0
 15 18  2  0  0  0  0
 16 14  2  0  0  0  0
 17 16  1  0  0  0  0
 18 14  1  0  0  0  0
 19 17  2  0  0  0  0
 19 15  1  0  0  0  0
 20 19  1  0  0  0  0
 21 20  1  0  0  0  0
 22 20  2  0  0  0  0
 23 25  1  0  0  0  0
 23 13  1  0  0  0  0
 24 23  1  0  0  0  0
M  END
>  <MODEL>
3

>  <REMARK>
 VINA RESULT:      -7.0      3.424      6.118
  Name = 
  3 active torsions:
  status: ('A' for Active; 'I' for Inactive)
    1  A    between atoms: C_2  and  C_25
    2  A    between atoms: C_3  and  C_6
    3  A    between atoms: C_13  and  C_24
                            x       y       z     vdW  Elec       q    Type
                         _______ _______ _______ _____ _____    ______ ____

>  <TORSDO>
F 3

$$$$
=
 OpenBabel10262419573D

 25 28  0  0  1  0  0  0  0  0999 V2000
  182.6060  178.0090  140.2890 C   0  0  0  0  0  0  0  0  0  0  0  0
  182.2250  178.8800  141.4460 C   0  0  1  0  0  3  0  0  0  0  0  0
  180.5350  176.8050  140.2200 N   0  0  0  0  0  0  0  0  0  0  0  0
  183.6580  178.0060  139.4950 C   0  0  0  0  0  0  0  0  0  0  0  0
  185.5560  177.4580  137.4530 C   0  0  0  0  0  3  0  0  0  0  0  0
  180.0640  177.5790  141.3410 C   0  0  0  0  0  3  0  0  0  0  0  0
  183.4160  177.0060  138.4650 C   0  0  0  0  0  0  0  0  0  0  0  0
  184.3740  176.8260  137.3750 C   0  0  0  0  0  3  0  0  0  0  0  0
  185.9810  178.2530  138.6800 C   0  0  0  0  0  2  0  0  0  0  0  0
  181.7250  177.0070  139.7530 C   0  0  0  0  0  0  0  0  0  0  0  0
  182.2740  176.4010  138.5850 N   0  0  0  0  0  0  0  0  0  0  0  0
  184.8180  178.9420  139.4230 C   0  0  0  0  0  2  0  0  0  0  0  0
  180.8150  178.5460  141.9290 C   0  0  0  0  0  0  0  0  0  0  0  0
  183.2300  178.7630  142.5560 C   0  0  0  0  0  0  0  0  0  0  0  0
  185.4550  178.2180  143.3590 C   0  0  0  0  0  3  0  0  0  0  0  0
  182.8530  179.1100  143.8560 C   0  0  0  0  0  3  0  0  0  0  0  0
  183.7720  179.0110  144.9050 C   0  0  0  0  0  3  0  0  0  0  0  0
  184.5370  178.3160  142.3100 C   0  0  0  0  0  3  0  0  0  0  0  0
  185.0780  178.5650  144.6650 C   0  0  0  0  0  0  0  0  0  0  0  0
  186.0470  178.4620  145.7700 C   0  0  0  0  0  0  0  0  0  0  0  0
  185.7430  179.0090  147.0500 N   0  0  0  0  0  1  0  0  0  0  0  0
  187.1550  177.8900  145.5930 O   0  0  0  0  0  0  0  0  0  0  0  0
  180.2450  179.3490  143.0640 C   0  0  0  0  0  3  0  0  0  0  0  0
  179.4500  178.4740  144.0160 C   0  0  0  0  0  1  0  0  0  0  0  0
  179.3870  180.4940  142.5580 C   0  0  0  0  0  1  0  0  0  0  0  0
  1  2  1  0  0  0  0
  2 13  1  0  0  0  0
  2 14  1  1  0  0  0
  3  6  1  0  0  0  0
  4  1  2  0  0  0  0
  5  9  1  0  0  0  0
  6 13  2  0  0  0  0
  7 11  2  0  0  0  0
  7  4  1  0  0  0  0
  8  5  2  0  0  0  0
  8  7  1  0  0  0  0
  9 12  1  0  0  0  0
 10  3  2  0  0  0  0
 10  1  1  0  0  0  0
 11 10  1  0  0  0  0
 12  4  1  0  0  0  0
 13 23  1  0  0  0  0
 14 16  1  0  0  0  0
 15 19  2  0  0  0  0
 16 17  2  0  0  0  0
 18 14  2  0  0  0  0
 18 15  1  0  0  0  0
 19 17  1  0  0  0  0
 19 20  1  0  0  0  0
 20 21  1  0  0  0  0
 22 20  2  0  0  0  0
 23 24  1  0  0  0  0
 25 23  1  0  0  0  0
M  END
>  <MODEL>
4

>  <REMARK>
 VINA RESULT:      -6.8      3.375      7.095
  Name = 
  3 active torsions:
  status: ('A' for Active; 'I' for Inactive)
    1  A    between atoms: C_2  and  C_25
    2  A    between atoms: C_3  and  C_6
    3  A    between atoms: C_13  and  C_24
                            x       y       z     vdW  Elec       q    Type
                         _______ _______ _______ _____ _____    ______ ____

>  <TORSDO>
F 3

$$$$
=
 OpenBabel10262419573D

 25 28  0  0  1  0  0  0  0  0999 V2000
  189.1660  177.3440  146.9060 C   0  0  0  0  0  0  0  0  0  0  0  0
  188.0710  177.1070  145.9120 C   0  0  1  0  0  3  0  0  0  0  0  0
  187.9850  179.0170  148.1520 N   0  0  0  0  0  0  0  0  0  0  0  0
  190.3200  176.7400  147.1090 C   0  0  0  0  0  0  0  0  0  0  0  0
  192.8470  175.9090  148.1080 C   0  0  0  0  0  3  0  0  0  0  0  0
  186.8690  178.8800  147.2490 C   0  0  0  0  0  3  0  0  0  0  0  0
  190.9080  177.3260  148.3050 C   0  0  0  0  0  0  0  0  0  0  0  0
  192.1620  176.8010  148.8410 C   0  0  0  0  0  3  0  0  0  0  0  0
  192.4310  175.5170  146.6970 C   0  0  0  0  0  2  0  0  0  0  0  0
  189.0510  178.3060  147.9690 C   0  0  0  0  0  0  0  0  0  0  0  0
  190.1760  178.2540  148.8430 N   0  0  0  0  0  0  0  0  0  0  0  0
  190.9070  175.5320  146.4580 C   0  0  0  0  0  2  0  0  0  0  0  0
  186.8730  178.0070  146.2090 C   0  0  0  0  0  0  0  0  0  0  0  0
  188.5720  177.2990  144.5100 C   0  0  0  0  0  0  0  0  0  0  0  0
  189.8510  178.5400  142.8620 C   0  0  0  0  0  3  0  0  0  0  0  0
  188.2110  176.3760  143.5250 C   0  0  0  0  0  3  0  0  0  0  0  0
  188.6670  176.5330  142.2130 C   0  0  0  0  0  3  0  0  0  0  0  0
  189.3950  178.3850  144.1730 C   0  0  0  0  0  3  0  0  0  0  0  0
  189.4890  177.6150  141.8720 C   0  0  0  0  0  0  0  0  0  0  0  0
  189.9700  177.7800  140.4890 C   0  0  0  0  0  0  0  0  0  0  0  0
  189.0930  178.2540  139.4710 N   0  0  0  0  0  1  0  0  0  0  0  0
  191.1630  177.5020  140.1930 O   0  0  0  0  0  0  0  0  0  0  0  0
  185.6580  177.8810  145.3350 C   0  0  0  0  0  3  0  0  0  0  0  0
  185.7910  178.7200  144.0770 C   0  0  0  0  0  1  0  0  0  0  0  0
  184.3920  178.2520  146.0850 C   0  0  0  0  0  1  0  0  0  0  0  0
  1  4  2  0  0  0  0
  1 10  1  0  0  0  0
  2 14  1  6  0  0  0
  2 13  1  0  0  0  0
  2  1  1  0  0  0  0
  4  7  1  0  0  0  0
  5  8  2  0  0  0  0
  6  3  1  0  0  0  0
  7  8  1  0  0  0  0
  7 11  2  0  0  0  0
  9  5  1  0  0  0  0
 10  3  2  0  0  0  0
 10 11  1  0  0  0  0
 12  9  1  0  0  0  0
 12  4  1  0  0  0  0
 13  6  2  0  0  0  0
 15 18  2  0  0  0  0
 16 14  2  0  0  0  0
 17 16  1  0  0  0  0
 18 14  1  0  0  0  0
 19 17  2  0  0  0  0
 19 15  1  0  0  0  0
 20 19  1  0  0  0  0
 21 20  1  0  0  0  0
 22 20  2  0  0  0  0
 23 25  1  0  0  0  0
 23 13  1  0  0  0  0
 24 23  1  0  0  0  0
M  END
>  <MODEL>
5

>  <REMARK>
 VINA RESULT:      -6.7      2.248      3.630
  Name = 
  3 active torsions:
  status: ('A' for Active; 'I' for Inactive)
    1  A    between atoms: C_2  and  C_25
    2  A    between atoms: C_3  and  C_6
    3  A    between atoms: C_13  and  C_24
                            x       y       z     vdW  Elec       q    Type
                         _______ _______ _______ _____ _____    ______ ____

>  <TORSDO>
F 3

$$$$
=
 OpenBabel10262419573D

 25 28  0  0  1  0  0  0  0  0999 V2000
  186.5370  178.2010  142.6310 C   0  0  0  0  0  0  0  0  0  0  0  0
  186.4520  178.7580  141.2430 C   0  0  1  0  0  3  0  0  0  0  0  0
  188.4190  176.7840  142.1910 N   0  0  0  0  0  0  0  0  0  0  0  0
  185.8920  178.4960  143.7420 C   0  0  0  0  0  0  0  0  0  0  0  0
  184.9530  178.6270  146.4200 C   0  0  0  0  0  3  0  0  0  0  0  0
  188.4270  177.2430  140.8250 C   0  0  0  0  0  3  0  0  0  0  0  0
  186.4910  177.7080  144.8090 C   0  0  0  0  0  0  0  0  0  0  0  0
  186.0450  177.8800  146.1900 C   0  0  0  0  0  3  0  0  0  0  0  0
  184.1010  179.1990  145.2960 C   0  0  0  0  0  2  0  0  0  0  0  0
  187.5240  177.2280  143.0130 C   0  0  0  0  0  0  0  0  0  0  0  0
  187.4680  176.9510  144.4110 N   0  0  0  0  0  0  0  0  0  0  0  0
  184.8910  179.5660  144.0240 C   0  0  0  0  0  2  0  0  0  0  0  0
  187.5390  178.1550  140.3540 C   0  0  0  0  0  0  0  0  0  0  0  0
  185.0830  178.5430  140.6640 C   0  0  0  0  0  0  0  0  0  0  0  0
  182.9870  177.3250  140.5640 C   0  0  0  0  0  3  0  0  0  0  0  0
  184.6270  179.3990  139.6580 C   0  0  0  0  0  3  0  0  0  0  0  0
  183.3550  179.2210  139.1060 C   0  0  0  0  0  3  0  0  0  0  0  0
  184.2570  177.5030  141.1160 C   0  0  0  0  0  3  0  0  0  0  0  0
  182.5270  178.1830  139.5540 C   0  0  0  0  0  0  0  0  0  0  0  0
  181.1860  177.9950  138.9720 C   0  0  0  0  0  0  0  0  0  0  0  0
  180.2640  177.0850  139.5630 N   0  0  0  0  0  1  0  0  0  0  0  0
  180.8440  178.6370  137.9440 O   0  0  0  0  0  0  0  0  0  0  0  0
  187.6330  178.6270  138.9320 C   0  0  0  0  0  3  0  0  0  0  0  0
  187.0960  177.5850  137.9670 C   0  0  0  0  0  1  0  0  0  0  0  0
  189.0570  179.0030  138.5640 C   0  0  0  0  0  1  0  0  0  0  0  0
  1 10  1  0  0  0  0
  1  4  2  0  0  0  0
  2 14  1  6  0  0  0
  2  1  1  0  0  0  0
  3 10  2  0  0  0  0
  4 12  1  0  0  0  0
  4  7  1  0  0  0  0
  6  3  1  0  0  0  0
  7  8  1  0  0  0  0
  8  5  2  0  0  0  0
  9  5  1  0  0  0  0
 10 11  1  0  0  0  0
 11  7  2  0  0  0  0
 12  9  1  0  0  0  0
 13  6  2  0  0  0  0
 13  2  1  0  0  0  0
 14 18  1  0  0  0  0
 15 18  2  0  0  0  0
 16 14  2  0  0  0  0
 17 19  2  0  0  0  0
 17 16  1  0  0  0  0
 19 15  1  0  0  0  0
 20 19  1  0  0  0  0
 20 21  1  0  0  0  0
 22 20  2  0  0  0  0
 23 13  1  0  0  0  0
 24 23  1  0  0  0  0
 25 23  1  0  0  0  0
M  END
>  <MODEL>
6

>  <REMARK>
 VINA RESULT:      -6.7      3.360      5.768
  Name = 
  3 active torsions:
  status: ('A' for Active; 'I' for Inactive)
    1  A    between atoms: C_2  and  C_25
    2  A    between atoms: C_3  and  C_6
    3  A    between atoms: C_13  and  C_24
                            x       y       z     vdW  Elec       q    Type
                         _______ _______ _______ _____ _____    ______ ____

>  <TORSDO>
F 3

$$$$
=
 OpenBabel10262419573D

 25 28  0  0  1  0  0  0  0  0999 V2000
  191.1790  175.3940  137.5940 C   0  0  0  0  0  0  0  0  0  0  0  0
  190.6630  176.7150  138.0740 C   0  0  1  0  0  3  0  0  0  0  0  0
  189.0910  174.6530  136.6790 N   0  0  0  0  0  0  0  0  0  0  0  0
  192.3930  174.8800  137.5580 C   0  0  0  0  0  0  0  0  0  0  0  0
  194.6600  173.2170  137.1500 C   0  0  0  0  0  3  0  0  0  0  0  0
  188.4830  175.8890  137.1060 C   0  0  0  0  0  3  0  0  0  0  0  0
  192.3000  173.6060  136.8610 C   0  0  0  0  0  0  0  0  0  0  0  0
  193.5060  172.8290  136.5850 C   0  0  0  0  0  3  0  0  0  0  0  0
  194.7350  174.3570  138.1560 C   0  0  0  0  0  2  0  0  0  0  0  0
  190.3420  174.4330  136.9280 C   0  0  0  0  0  0  0  0  0  0  0  0
  191.0970  173.3140  136.4670 N   0  0  0  0  0  0  0  0  0  0  0  0
  193.7090  175.4840  137.9170 C   0  0  0  0  0  2  0  0  0  0  0  0
  189.1780  176.8630  137.7470 C   0  0  0  0  0  0  0  0  0  0  0  0
  190.9240  176.8890  139.5430 C   0  0  0  0  0  0  0  0  0  0  0  0
  192.3330  177.6250  141.3770 C   0  0  0  0  0  3  0  0  0  0  0  0
  189.9610  176.4640  140.4610 C   0  0  0  0  0  3  0  0  0  0  0  0
  190.1810  176.6180  141.8330 C   0  0  0  0  0  3  0  0  0  0  0  0
  192.1140  177.4710  140.0060 C   0  0  0  0  0  3  0  0  0  0  0  0
  191.3680  177.1980  142.3010 C   0  0  0  0  0  0  0  0  0  0  0  0
  191.5990  177.3610  143.7470 C   0  0  0  0  0  0  0  0  0  0  0  0
  191.7140  178.6610  144.3180 N   0  0  0  0  0  1  0  0  0  0  0  0
  191.7000  176.3500  144.4920 O   0  0  0  0  0  0  0  0  0  0  0  0
  188.4940  178.1470  138.1210 C   0  0  0  0  0  3  0  0  0  0  0  0
  186.9850  178.0170  138.0290 C   0  0  0  0  0  1  0  0  0  0  0  0
  188.9770  179.3030  137.2650 C   0  0  0  0  0  1  0  0  0  0  0  0
  1  2  1  0  0  0  0
  2 14  1  1  0  0  0
  3 10  2  0  0  0  0
  3  6  1  0  0  0  0
  4  1  2  0  0  0  0
  4 12  1  0  0  0  0
  5  9  1  0  0  0  0
  6 13  2  0  0  0  0
  7  4  1  0  0  0  0
  8  7  1  0  0  0  0
  8  5  2  0  0  0  0
 10  1  1  0  0  0  0
 11  7  2  0  0  0  0
 11 10  1  0  0  0  0
 12  9  1  0  0  0  0
 13  2  1  0  0  0  0
 13 23  1  0  0  0  0
 14 18  2  0  0  0  0
 14 16  1  0  0  0  0
 15 19  2  0  0  0  0
 16 17  2  0  0  0  0
 17 19  1  0  0  0  0
 18 15  1  0  0  0  0
 19 20  1  0  0  0  0
 20 21  1  0  0  0  0
 20 22  2  0  0  0  0
 24 23  1  0  0  0  0
 25 23  1  0  0  0  0
M  END
>  <MODEL>
7

>  <REMARK>
 VINA RESULT:      -6.6      4.746      8.484
  Name = 
  3 active torsions:
  status: ('A' for Active; 'I' for Inactive)
    1  A    between atoms: C_2  and  C_25
    2  A    between atoms: C_3  and  C_6
    3  A    between atoms: C_13  and  C_24
                            x       y       z     vdW  Elec       q    Type
                         _______ _______ _______ _____ _____    ______ ____

>  <TORSDO>
F 3

$$$$
=
 OpenBabel10262419573D

 25 28  0  0  1  0  0  0  0  0999 V2000
  187.2410  178.1810  143.1540 C   0  0  0  0  0  0  0  0  0  0  0  0
  188.6870  178.4720  142.8920 C   0  0  1  0  0  3  0  0  0  0  0  0
  187.5950  177.1880  145.3060 N   0  0  0  0  0  0  0  0  0  0  0  0
  186.1440  178.4940  142.4930 C   0  0  0  0  0  0  0  0  0  0  0  0
  183.4560  178.8360  141.6390 C   0  0  0  0  0  3  0  0  0  0  0  0
  189.0120  177.4100  145.1590 C   0  0  0  0  0  3  0  0  0  0  0  0
  185.0160  178.0510  143.2990 C   0  0  0  0  0  0  0  0  0  0  0  0
  183.6480  178.3360  142.8700 C   0  0  0  0  0  3  0  0  0  0  0  0
  184.5900  179.0040  140.6370 C   0  0  0  0  0  2  0  0  0  0  0  0
  186.7870  177.5390  144.3580 C   0  0  0  0  0  0  0  0  0  0  0  0
  185.3640  177.4870  144.4160 N   0  0  0  0  0  0  0  0  0  0  0  0
  185.9550  179.3340  141.2750 C   0  0  0  0  0  2  0  0  0  0  0  0
  189.5500  178.0020  144.0620 C   0  0  0  0  0  0  0  0  0  0  0  0
  189.1300  177.8540  141.5970 C   0  0  0  0  0  0  0  0  0  0  0  0
  189.0620  177.7200  139.1740 C   0  0  0  0  0  3  0  0  0  0  0  0
  190.0560  176.8080  141.6220 C   0  0  0  0  0  3  0  0  0  0  0  0
  190.4850  176.2200  140.4300 C   0  0  0  0  0  3  0  0  0  0  0  0
  188.6320  178.3090  140.3660 C   0  0  0  0  0  3  0  0  0  0  0  0
  189.9920  176.6700  139.1980 C   0  0  0  0  0  0  0  0  0  0  0  0
  190.4440  176.0500  137.9400 C   0  0  0  0  0  0  0  0  0  0  0  0
  190.6440  174.6420  137.8610 N   0  0  0  0  0  1  0  0  0  0  0  0
  190.6600  176.7600  136.9230 O   0  0  0  0  0  0  0  0  0  0  0  0
  191.0300  178.2460  143.9930 C   0  0  0  0  0  3  0  0  0  0  0  0
  191.7720  177.4430  145.0460 C   0  0  0  0  0  1  0  0  0  0  0  0
  191.3560  179.7220  144.1280 C   0  0  0  0  0  1  0  0  0  0  0  0
  1 10  1  0  0  0  0
  2 14  1  6  0  0  0
  2  1  1  0  0  0  0
  2 13  1  0  0  0  0
  4  1  2  0  0  0  0
  4  7  1  0  0  0  0
  5  8  2  0  0  0  0
  6  3  1  0  0  0  0
  7 11  2  0  0  0  0
  8  7  1  0  0  0  0
  9 12  1  0  0  0  0
  9  5  1  0  0  0  0
 10 11  1  0  0  0  0
 10  3  2  0  0  0  0
 12  4  1  0  0  0  0
 13  6  2  0  0  0  0
 14 16  1  0  0  0  0
 15 19  2  0  0  0  0
 15 18  1  0  0  0  0
 17 16  2  0  0  0  0
 18 14  2  0  0  0  0
 19 17  1  0  0  0  0
 20 19  1  0  0  0  0
 21 20  1  0  0  0  0
 22 20  2  0  0  0  0
 23 13  1  0  0  0  0
 23 25  1  0  0  0  0
 23 24  1  0  0  0  0
M  END
>  <MODEL>
8

>  <REMARK>
 VINA RESULT:      -6.6      2.281      4.979
  Name = 
  3 active torsions:
  status: ('A' for Active; 'I' for Inactive)
    1  A    between atoms: C_2  and  C_25
    2  A    between atoms: C_3  and  C_6
    3  A    between atoms: C_13  and  C_24
                            x       y       z     vdW  Elec       q    Type
                         _______ _______ _______ _____ _____    ______ ____

>  <TORSDO>
F 3

$$$$
=
 OpenBabel10262419573D

 25 28  0  0  1  0  0  0  0  0999 V2000
  189.8820  177.3440  144.0740 C   0  0  0  0  0  0  0  0  0  0  0  0
  188.8250  176.9110  145.0420 C   0  0  1  0  0  3  0  0  0  0  0  0
  191.3580  178.2420  145.7350 N   0  0  0  0  0  0  0  0  0  0  0  0
  190.0170  177.1640  142.7750 C   0  0  0  0  0  0  0  0  0  0  0  0
  190.9420  177.1250  140.0890 C   0  0  0  0  0  3  0  0  0  0  0  0
  190.4070  177.8780  146.7560 C   0  0  0  0  0  3  0  0  0  0  0  0
  191.3160  177.7020  142.3990 C   0  0  0  0  0  0  0  0  0  0  0  0
  191.7960  177.5720  141.0240 C   0  0  0  0  0  3  0  0  0  0  0  0
  189.4710  176.8640  140.3810 C   0  0  0  0  0  2  0  0  0  0  0  0
  191.0910  178.0010  144.4920 C   0  0  0  0  0  0  0  0  0  0  0  0
  191.9820  178.1990  143.3960 N   0  0  0  0  0  0  0  0  0  0  0  0
  189.1860  176.3780  141.8170 C   0  0  0  0  0  2  0  0  0  0  0  0
  189.2320  177.2600  146.4730 C   0  0  0  0  0  0  0  0  0  0  0  0
  187.4950  177.5110  144.6850 C   0  0  0  0  0  0  0  0  0  0  0  0
  185.5240  178.8030  145.2640 C   0  0  0  0  0  3  0  0  0  0  0  0
  186.9890  177.3270  143.3960 C   0  0  0  0  0  3  0  0  0  0  0  0
  185.7550  177.8780  143.0400 C   0  0  0  0  0  3  0  0  0  0  0  0
  186.7570  178.2530  145.6210 C   0  0  0  0  0  3  0  0  0  0  0  0
  185.0130  178.6190  143.9700 C   0  0  0  0  0  0  0  0  0  0  0  0
  183.7120  179.2010  143.5950 C   0  0  0  0  0  0  0  0  0  0  0  0
  183.0160  178.7280  142.4460 N   0  0  0  0  0  1  0  0  0  0  0  0
  183.2050  180.1230  144.2870 O   0  0  0  0  0  0  0  0  0  0  0  0
  188.3080  176.8640  147.5890 C   0  0  0  0  0  3  0  0  0  0  0  0
  188.3050  177.9000  148.6990 C   0  0  0  0  0  1  0  0  0  0  0  0
  188.6610  175.4970  148.1450 C   0  0  0  0  0  1  0  0  0  0  0  0
  1 10  1  0  0  0  0
  1  2  1  0  0  0  0
  2 14  1  6  0  0  0
  2 13  1  0  0  0  0
  3  6  1  0  0  0  0
  4  1  2  0  0  0  0
  5  9  1  0  0  0  0
  5  8  2  0  0  0  0
  7  4  1  0  0  0  0
  7 11  2  0  0  0  0
  8  7  1  0  0  0  0
  9 12  1  0  0  0  0
 10  3  2  0  0  0  0
 11 10  1  0  0  0  0
 12  4  1  0  0  0  0
 13  6  2  0  0  0  0
 13 23  1  0  0  0  0
 14 18  1  0  0  0  0
 15 18  2  0  0  0  0
 16 14  2  0  0  0  0
 17 16  1  0  0  0  0
 17 19  2  0  0  0  0
 19 15  1  0  0  0  0
 20 19  1  0  0  0  0
 20 22  2  0  0  0  0
 21 20  1  0  0  0  0
 23 25  1  0  0  0  0
 23 24  1  0  0  0  0
M  END
>  <MODEL>
9

>  <REMARK>
 VINA RESULT:      -6.4      2.793      6.580
  Name = 
  3 active torsions:
  status: ('A' for Active; 'I' for Inactive)
    1  A    between atoms: C_2  and  C_25
    2  A    between atoms: C_3  and  C_6
    3  A    between atoms: C_13  and  C_24
                            x       y       z     vdW  Elec       q    Type
                         _______ _______ _______ _____ _____    ______ ____

>  <TORSDO>
F 3

$$$$
