=
 OpenBabel10262421073D

 32 36  0  0  1  0  0  0  0  0999 V2000
  188.4850  178.8450  139.9970 C   0  0  1  0  0  3  0  0  0  0  0  0
  187.9060  177.3220  141.7440 C   0  0  1  0  0  3  0  0  0  0  0  0
  190.5150  175.0870  137.9920 C   0  0  2  0  0  3  0  0  0  0  0  0
  187.8890  178.3470  138.6650 C   0  0  0  0  0  2  0  0  0  0  0  0
  187.5470  178.6790  141.1940 C   0  0  2  0  0  3  0  0  0  0  0  0
  186.5580  178.0380  143.8370 C   0  0  0  0  0  2  0  0  0  0  0  0
  191.5880  174.2260  137.7550 O   0  0  0  0  0  1  0  0  0  0  0  0
  189.3780  177.1260  141.3640 C   0  0  1  0  0  3  0  0  0  0  0  0
  185.2250  177.9900  143.1070 C   0  0  1  0  0  3  0  0  0  0  0  0
  190.0680  175.7810  136.6850 C   0  0  2  0  0  3  0  0  0  0  0  0
  188.6600  177.0900  138.3660 C   0  0  1  0  0  3  0  0  0  0  0  0
  187.5840  177.0830  143.2320 C   0  0  0  0  0  2  0  0  0  0  0  0
  186.0630  178.7480  140.8340 C   0  0  0  0  0  2  0  0  0  0  0  0
  189.1050  177.9090  136.1350 O   0  0  0  0  0  1  0  0  0  0  0  0
  188.8790  176.7520  136.8850 C   0  0  1  0  0  3  0  0  0  0  0  0
  190.8490  176.0890  139.1260 C   0  0  1  0  0  3  0  0  0  0  0  0
  192.1930  176.4630  139.0770 O   0  0  0  0  0  1  0  0  0  0  0  0
  189.7070  178.0670  140.2780 N   0  0  1  0  0  0  0  0  0  0  0  0
  184.1310  178.1950  144.1420 C   0  0  0  0  0  1  0  0  0  0  0  0
  189.9770  177.3510  139.0300 C   0  0  2  0  0  3  0  0  0  0  0  0
  185.1830  179.0890  142.0330 C   0  0  1  0  0  3  0  0  0  0  0  0
  191.5820  176.1770  144.2870 C   0  0  0  0  0  3  0  0  0  0  0  0
  191.6180  177.4810  145.0380 C   0  0  0  0  0  2  0  0  0  0  0  0
  190.6610  178.5100  142.9750 C   0  0  0  0  0  3  0  0  0  0  0  0
  190.3540  177.2950  142.4960 C   0  0  0  0  0  0  0  0  0  0  0  0
  191.6860  178.6630  144.0650 C   0  0  0  0  0  2  0  0  0  0  0  0
  190.9490  176.0930  143.1120 C   0  0  0  0  0  3  0  0  0  0  0  0
  188.4820  174.3450  136.1180 C   0  0  0  0  0  1  0  0  0  0  0  0
  189.7320  174.8270  135.7230 O   0  0  0  0  0  0  0  0  0  0  0  0
  183.8240  179.2860  141.5510 N   0  0  0  0  0  2  0  0  0  0  0  0
  183.2010  178.2990  140.7780 C   0  0  0  0  0  0  0  0  0  0  0  0
  182.6650  177.4490  140.1120 C   0  0  0  0  0  3  0  0  0  0  0  0
  1  4  1  6  0  0  0
  1 18  1  0  0  0  0
  1  5  1  0  0  0  0
  2 12  1  1  0  0  0
  3  7  1  6  0  0  0
  3 16  1  0  0  0  0
  5 13  1  6  0  0  0
  5  2  1  0  0  0  0
  8  2  1  0  0  0  0
  8 25  1  1  0  0  0
  9  6  1  0  0  0  0
  9 19  1  1  0  0  0
 10 29  1  6  0  0  0
 10 15  1  0  0  0  0
 10  3  1  0  0  0  0
 11  4  1  6  0  0  0
 11 20  1  0  0  0  0
 12  6  1  0  0  0  0
 13 21  1  0  0  0  0
 15 14  1  6  0  0  0
 15 11  1  0  0  0  0
 16 17  1  6  0  0  0
 18  8  1  0  0  0  0
 20 16  1  0  0  0  0
 20 18  1  0  0  0  0
 21  9  1  0  0  0  0
 22 23  1  0  0  0  0
 24 26  1  0  0  0  0
 25 24  2  0  0  0  0
 25 27  1  0  0  0  0
 26 23  1  0  0  0  0
 27 22  2  0  0  0  0
 29 28  1  0  0  0  0
 30 21  1  0  0  0  0
 31 30  1  0  0  0  0
 32 31  3  0  0  0  0
M  END
>  <MODEL>
1

>  <REMARK>
 VINA RESULT:      -7.9      0.000      0.000
  Name = 
  4 active torsions:
  status: ('A' for Active; 'I' for Inactive)
    1  A    between atoms: C_10  and  C_28
    2  A    between atoms: N_14  and  C_21
    3  A    between atoms: N_14  and  C_29
    4  A    between atoms: C_15  and  O_26
                            x       y       z     vdW  Elec       q    Type
                         _______ _______ _______ _____ _____    ______ ____

>  <TORSDO>
F 4

$$$$
=
 OpenBabel10262421073D

 32 36  0  0  1  0  0  0  0  0999 V2000
  187.3850  179.2420  141.1600 C   0  0  1  0  0  3  0  0  0  0  0  0
  187.2630  177.4850  142.7740 C   0  0  1  0  0  3  0  0  0  0  0  0
  188.5620  175.8020  138.1520 C   0  0  2  0  0  3  0  0  0  0  0  0
  186.4050  178.9460  140.0060 C   0  0  0  0  0  2  0  0  0  0  0  0
  186.8270  178.9100  142.5450 C   0  0  2  0  0  3  0  0  0  0  0  0
  186.6160  177.8990  145.2470 C   0  0  0  0  0  2  0  0  0  0  0  0
  189.4770  174.9770  137.4950 O   0  0  0  0  0  1  0  0  0  0  0  0
  188.5500  177.3370  141.9550 C   0  0  1  0  0  3  0  0  0  0  0  0
  185.1280  177.9660  144.9420 C   0  0  1  0  0  3  0  0  0  0  0  0
  187.7900  176.6810  137.1420 C   0  0  2  0  0  3  0  0  0  0  0  0
  186.9950  177.7410  139.3240 C   0  0  1  0  0  3  0  0  0  0  0  0
  187.3740  177.0350  144.2430 C   0  0  0  0  0  2  0  0  0  0  0  0
  185.3080  179.0400  142.6480 C   0  0  0  0  0  2  0  0  0  0  0  0
  186.8130  178.8720  137.1950 O   0  0  0  0  0  1  0  0  0  0  0  0
  186.7580  177.6200  137.8130 C   0  0  1  0  0  3  0  0  0  0  0  0
  189.2580  176.6260  139.2640 C   0  0  1  0  0  3  0  0  0  0  0  0
  190.5470  176.9940  138.8740 O   0  0  0  0  0  1  0  0  0  0  0  0
  188.5960  178.4230  140.9600 N   0  0  1  0  0  0  0  0  0  0  0  0
  184.3920  178.0250  146.2700 C   0  0  0  0  0  1  0  0  0  0  0  0
  188.4580  177.8940  139.6020 C   0  0  2  0  0  3  0  0  0  0  0  0
  184.8300  179.2090  144.0880 C   0  0  1  0  0  3  0  0  0  0  0  0
  191.4780  175.9580  143.9130 C   0  0  0  0  0  3  0  0  0  0  0  0
  191.7760  177.1230  144.8170 C   0  0  0  0  0  2  0  0  0  0  0  0
  190.2950  178.4600  143.3170 C   0  0  0  0  0  3  0  0  0  0  0  0
  189.8200  177.3340  142.7630 C   0  0  0  0  0  0  0  0  0  0  0  0
  191.5990  178.4470  144.0680 C   0  0  0  0  0  2  0  0  0  0  0  0
  190.5270  176.0560  142.9780 C   0  0  0  0  0  3  0  0  0  0  0  0
  186.0300  175.3650  136.8700 C   0  0  0  0  0  1  0  0  0  0  0  0
  187.1430  175.8780  136.2000 O   0  0  0  0  0  0  0  0  0  0  0  0
  183.4010  179.4830  144.0590 N   0  0  0  0  0  2  0  0  0  0  0  0
  182.6210  179.0360  142.9850 C   0  0  0  0  0  0  0  0  0  0  0  0
  181.9490  178.6520  142.0610 C   0  0  0  0  0  3  0  0  0  0  0  0
  1  4  1  6  0  0  0
  1  5  1  0  0  0  0
  2 12  1  1  0  0  0
  3  7  1  6  0  0  0
  3 16  1  0  0  0  0
  5 13  1  6  0  0  0
  5  2  1  0  0  0  0
  8 25  1  1  0  0  0
  8  2  1  0  0  0  0
  9  6  1  0  0  0  0
  9 19  1  1  0  0  0
 10 29  1  6  0  0  0
 10 15  1  0  0  0  0
 10  3  1  0  0  0  0
 11 20  1  0  0  0  0
 11  4  1  6  0  0  0
 12  6  1  0  0  0  0
 13 21  1  0  0  0  0
 15 14  1  6  0  0  0
 15 11  1  0  0  0  0
 16 17  1  6  0  0  0
 16 20  1  0  0  0  0
 18  1  1  0  0  0  0
 18  8  1  0  0  0  0
 20 18  1  0  0  0  0
 21  9  1  0  0  0  0
 22 23  1  0  0  0  0
 24 26  1  0  0  0  0
 25 27  1  0  0  0  0
 25 24  2  0  0  0  0
 26 23  1  0  0  0  0
 27 22  2  0  0  0  0
 29 28  1  0  0  0  0
 30 21  1  0  0  0  0
 31 30  1  0  0  0  0
 32 31  3  0  0  0  0
M  END
>  <MODEL>
2

>  <REMARK>
 VINA RESULT:      -7.3      1.495      1.856
  Name = 
  4 active torsions:
  status: ('A' for Active; 'I' for Inactive)
    1  A    between atoms: C_10  and  C_28
    2  A    between atoms: N_14  and  C_21
    3  A    between atoms: N_14  and  C_29
    4  A    between atoms: C_15  and  O_26
                            x       y       z     vdW  Elec       q    Type
                         _______ _______ _______ _____ _____    ______ ____

>  <TORSDO>
F 4

$$$$
=
 OpenBabel10262421073D

 32 36  0  0  1  0  0  0  0  0999 V2000
  191.4190  177.7940  139.2780 C   0  0  1  0  0  3  0  0  0  0  0  0
  190.6040  175.8040  138.2370 C   0  0  1  0  0  3  0  0  0  0  0  0
  188.6140  176.5400  142.8600 C   0  0  2  0  0  3  0  0  0  0  0  0
  192.0980  177.4310  140.6140 C   0  0  0  0  0  2  0  0  0  0  0  0
  191.7210  176.8130  138.1450 C   0  0  2  0  0  3  0  0  0  0  0  0
  191.3730  175.0400  135.8850 C   0  0  0  0  0  2  0  0  0  0  0  0
  187.4030  176.5340  143.5550 O   0  0  0  0  0  1  0  0  0  0  0  0
  189.4290  176.5810  138.8410 C   0  0  1  0  0  3  0  0  0  0  0  0
  192.6760  174.4510  136.4020 C   0  0  1  0  0  3  0  0  0  0  0  0
  189.7310  177.1860  143.7110 C   0  0  2  0  0  3  0  0  0  0  0  0
  190.9650  176.9630  141.4870 C   0  0  1  0  0  3  0  0  0  0  0  0
  190.2750  175.0330  136.9440 C   0  0  0  0  0  2  0  0  0  0  0  0
  193.0840  176.1310  138.2620 C   0  0  0  0  0  2  0  0  0  0  0  0
  191.7100  178.4580  143.2350 O   0  0  0  0  0  1  0  0  0  0  0  0
  191.1030  177.2230  142.9930 C   0  0  1  0  0  3  0  0  0  0  0  0
  188.4520  177.2030  141.4690 C   0  0  1  0  0  3  0  0  0  0  0  0
  187.5460  178.2640  141.5280 O   0  0  0  0  0  1  0  0  0  0  0  0
  189.9580  177.7950  139.4880 N   0  0  1  0  0  0  0  0  0  0  0  0
  193.3350  173.7160  135.2470 C   0  0  0  0  0  1  0  0  0  0  0  0
  189.7980  177.7260  140.9410 C   0  0  2  0  0  3  0  0  0  0  0  0
  193.5800  175.5780  136.9280 C   0  0  1  0  0  3  0  0  0  0  0  0
  186.4940  176.1420  136.4960 C   0  0  0  0  0  3  0  0  0  0  0  0
  186.7150  177.3000  135.5610 C   0  0  0  0  0  2  0  0  0  0  0  0
  188.3430  178.1480  137.2530 C   0  0  0  0  0  3  0  0  0  0  0  0
  188.3460  176.9550  137.8660 C   0  0  0  0  0  0  0  0  0  0  0  0
  187.2170  178.5260  136.3290 C   0  0  0  0  0  2  0  0  0  0  0  0
  187.2940  175.9670  137.5540 C   0  0  0  0  0  3  0  0  0  0  0  0
  189.7120  177.4990  145.9030 C   0  0  0  0  0  1  0  0  0  0  0  0
  189.8620  176.5120  144.9270 O   0  0  0  0  0  0  0  0  0  0  0  0
  194.9410  175.1000  137.1190 N   0  0  0  0  0  2  0  0  0  0  0  0
  195.1980  174.0400  137.9970 C   0  0  0  0  0  0  0  0  0  0  0  0
  195.4200  173.1270  138.7530 C   0  0  0  0  0  3  0  0  0  0  0  0
  1 18  1  0  0  0  0
  1  4  1  1  0  0  0
  2 12  1  6  0  0  0
  2  8  1  0  0  0  0
  3  7  1  1  0  0  0
  3 10  1  0  0  0  0
  5  2  1  0  0  0  0
  5 13  1  1  0  0  0
  5  1  1  0  0  0  0
  6  9  1  0  0  0  0
  6 12  1  0  0  0  0
  8 25  1  6  0  0  0
  8 18  1  0  0  0  0
  9 19  1  6  0  0  0
  9 21  1  0  0  0  0
 10 29  1  1  0  0  0
 11  4  1  6  0  0  0
 11 15  1  0  0  0  0
 15 14  1  6  0  0  0
 15 10  1  0  0  0  0
 16 17  1  1  0  0  0
 16  3  1  0  0  0  0
 18 20  1  0  0  0  0
 20 16  1  0  0  0  0
 20 11  1  0  0  0  0
 21 30  1  0  0  0  0
 21 13  1  0  0  0  0
 22 27  2  0  0  0  0
 23 26  1  0  0  0  0
 23 22  1  0  0  0  0
 24 25  2  0  0  0  0
 26 24  1  0  0  0  0
 27 25  1  0  0  0  0
 29 28  1  0  0  0  0
 30 31  1  0  0  0  0
 31 32  3  0  0  0  0
M  END
>  <MODEL>
3

>  <REMARK>
 VINA RESULT:      -6.7      3.346      8.108
  Name = 
  4 active torsions:
  status: ('A' for Active; 'I' for Inactive)
    1  A    between atoms: C_10  and  C_28
    2  A    between atoms: N_14  and  C_21
    3  A    between atoms: N_14  and  C_29
    4  A    between atoms: C_15  and  O_26
                            x       y       z     vdW  Elec       q    Type
                         _______ _______ _______ _____ _____    ______ ____

>  <TORSDO>
F 4

$$$$
=
 OpenBabel10262421073D

 32 36  0  0  1  0  0  0  0  0999 V2000
  188.3250  178.9890  141.0900 C   0  0  1  0  0  3  0  0  0  0  0  0
  189.1000  176.8390  141.7830 C   0  0  1  0  0  3  0  0  0  0  0  0
  186.1100  176.6020  137.6760 C   0  0  2  0  0  3  0  0  0  0  0  0
  186.7830  179.0060  141.1030 C   0  0  0  0  0  2  0  0  0  0  0  0
  188.9450  178.2540  142.2790 C   0  0  2  0  0  3  0  0  0  0  0  0
  190.6320  176.5010  143.8450 C   0  0  0  0  0  2  0  0  0  0  0  0
  186.0240  176.0320  136.4030 O   0  0  0  0  0  1  0  0  0  0  0  0
  189.2670  176.9760  140.2660 C   0  0  1  0  0  3  0  0  0  0  0  0
  189.4800  176.6040  144.8320 C   0  0  1  0  0  3  0  0  0  0  0  0
  185.0450  177.7080  137.8540 C   0  0  2  0  0  3  0  0  0  0  0  0
  186.3970  178.0690  139.9900 C   0  0  1  0  0  3  0  0  0  0  0  0
  190.1810  175.9880  142.4790 C   0  0  0  0  0  2  0  0  0  0  0  0
  188.0930  178.2980  143.5470 C   0  0  0  0  0  2  0  0  0  0  0  0
  184.9170  179.7580  139.0960 O   0  0  0  0  0  1  0  0  0  0  0  0
  185.0900  178.3800  139.2490 C   0  0  1  0  0  3  0  0  0  0  0  0
  187.5490  177.0930  137.9670 C   0  0  1  0  0  3  0  0  0  0  0  0
  188.1430  177.6010  136.8100 O   0  0  0  0  0  1  0  0  0  0  0  0
  188.7710  178.3030  139.8620 N   0  0  1  0  0  0  0  0  0  0  0  0
  190.0250  176.2530  146.2060 C   0  0  0  0  0  1  0  0  0  0  0  0
  187.5570  178.1830  139.0510 C   0  0  2  0  0  3  0  0  0  0  0  0
  188.9060  178.0300  144.8110 C   0  0  1  0  0  3  0  0  0  0  0  0
  192.9750  177.5880  139.8440 C   0  0  0  0  0  3  0  0  0  0  0  0
  193.1890  177.0320  138.4620 C   0  0  0  0  0  2  0  0  0  0  0  0
  190.9270  176.0030  138.7000 C   0  0  0  0  0  3  0  0  0  0  0  0
  190.6710  176.7820  139.7610 C   0  0  0  0  0  0  0  0  0  0  0  0
  192.3450  175.7720  138.2490 C   0  0  0  0  0  2  0  0  0  0  0  0
  191.7750  177.5010  140.4280 C   0  0  0  0  0  3  0  0  0  0  0  0
  183.4260  176.5480  138.8230 C   0  0  0  0  0  1  0  0  0  0  0  0
  183.7680  177.1900  137.6300 O   0  0  0  0  0  0  0  0  0  0  0  0
  188.0410  178.2530  145.9590 N   0  0  0  0  0  2  0  0  0  0  0  0
  186.6490  178.2530  145.8020 C   0  0  0  0  0  0  0  0  0  0  0  0
  185.4510  178.2530  145.6670 C   0  0  0  0  0  3  0  0  0  0  0  0
  1  4  1  1  0  0  0
  1  5  1  0  0  0  0
  2  5  1  0  0  0  0
  2 12  1  1  0  0  0
  3  7  1  6  0  0  0
  3 10  1  0  0  0  0
  3 16  1  0  0  0  0
  5 13  1  1  0  0  0
  6  9  1  0  0  0  0
  8 25  1  1  0  0  0
  8  2  1  0  0  0  0
  9 19  1  1  0  0  0
 10 29  1  1  0  0  0
 10 15  1  0  0  0  0
 11  4  1  1  0  0  0
 12  6  1  0  0  0  0
 13 21  1  0  0  0  0
 15 14  1  6  0  0  0
 15 11  1  0  0  0  0
 16 17  1  6  0  0  0
 16 20  1  0  0  0  0
 18  8  1  0  0  0  0
 18  1  1  0  0  0  0
 20 18  1  0  0  0  0
 20 11  1  0  0  0  0
 21  9  1  0  0  0  0
 21 30  1  0  0  0  0
 22 27  2  0  0  0  0
 23 22  1  0  0  0  0
 24 25  2  0  0  0  0
 25 27  1  0  0  0  0
 26 23  1  0  0  0  0
 26 24  1  0  0  0  0
 29 28  1  0  0  0  0
 31 30  1  0  0  0  0
 32 31  3  0  0  0  0
M  END
>  <MODEL>
4

>  <REMARK>
 VINA RESULT:      -6.2      2.455      4.635
  Name = 
  4 active torsions:
  status: ('A' for Active; 'I' for Inactive)
    1  A    between atoms: C_10  and  C_28
    2  A    between atoms: N_14  and  C_21
    3  A    between atoms: N_14  and  C_29
    4  A    between atoms: C_15  and  O_26
                            x       y       z     vdW  Elec       q    Type
                         _______ _______ _______ _____ _____    ______ ____

>  <TORSDO>
F 4

$$$$
=
 OpenBabel10262421073D

 32 36  0  0  1  0  0  0  0  0999 V2000
  184.9250  179.1570  140.3020 C   0  0  1  0  0  3  0  0  0  0  0  0
  183.2650  177.4420  140.4030 C   0  0  1  0  0  3  0  0  0  0  0  0
  186.3480  177.4140  144.4490 C   0  0  2  0  0  3  0  0  0  0  0  0
  186.3270  178.5170  140.3550 C   0  0  0  0  0  2  0  0  0  0  0  0
  183.9270  178.3890  139.4340 C   0  0  2  0  0  3  0  0  0  0  0  0
  181.5040  177.0870  138.5370 C   0  0  0  0  0  2  0  0  0  0  0  0
  186.3390  177.3450  145.8440 O   0  0  0  0  0  1  0  0  0  0  0  0
  183.3450  178.1560  141.7570 C   0  0  1  0  0  3  0  0  0  0  0  0
  182.4760  176.3430  137.6350 C   0  0  1  0  0  3  0  0  0  0  0  0
  187.7430  177.8300  143.9300 C   0  0  2  0  0  3  0  0  0  0  0  0
  186.4210  177.9570  141.7490 C   0  0  1  0  0  3  0  0  0  0  0  0
  181.8600  176.9430  140.0150 C   0  0  0  0  0  2  0  0  0  0  0  0
  184.5720  177.6250  138.2780 C   0  0  0  0  0  2  0  0  0  0  0  0
  188.5540  179.0600  142.0350 O   0  0  0  0  0  1  0  0  0  0  0  0
  187.8170  177.9260  142.3860 C   0  0  1  0  0  3  0  0  0  0  0  0
  185.2110  178.3310  143.9330 C   0  0  1  0  0  3  0  0  0  0  0  0
  185.0130  179.4100  144.7970 O   0  0  0  0  0  1  0  0  0  0  0  0
  184.3820  179.1990  141.6740 N   0  0  1  0  0  0  0  0  0  0  0  0
  181.6820  175.8010  136.4580 C   0  0  0  0  0  1  0  0  0  0  0  0
  185.5250  178.8690  142.5280 C   0  0  2  0  0  3  0  0  0  0  0  0
  183.5810  177.3030  137.1620 C   0  0  1  0  0  3  0  0  0  0  0  0
  180.3810  178.8140  144.0140 C   0  0  0  0  0  3  0  0  0  0  0  0
  179.3560  179.2450  143.0010 C   0  0  0  0  0  2  0  0  0  0  0  0
  181.2600  179.4530  141.4000 C   0  0  0  0  0  3  0  0  0  0  0  0
  182.0520  178.7610  142.2320 C   0  0  0  0  0  0  0  0  0  0  0  0
  180.0020  180.1040  141.9090 C   0  0  0  0  0  2  0  0  0  0  0  0
  181.6360  178.5500  143.6340 C   0  0  0  0  0  3  0  0  0  0  0  0
  189.6620  177.7340  145.0310 C   0  0  0  0  0  1  0  0  0  0  0  0
  188.7140  176.9360  144.3860 O   0  0  0  0  0  0  0  0  0  0  0  0
  184.3240  176.7250  136.0530 N   0  0  0  0  0  2  0  0  0  0  0  0
  185.5630  177.2600  135.6810 C   0  0  0  0  0  0  0  0  0  0  0  0
  186.6300  177.7220  135.3610 C   0  0  0  0  0  3  0  0  0  0  0  0
  1  4  1  1  0  0  0
  1 18  1  0  0  0  0
  2 12  1  6  0  0  0
  2  8  1  0  0  0  0
  3  7  1  1  0  0  0
  5 13  1  6  0  0  0
  5  1  1  0  0  0  0
  5  2  1  0  0  0  0
  6 12  1  0  0  0  0
  8 25  1  6  0  0  0
  9 19  1  6  0  0  0
  9  6  1  0  0  0  0
 10 29  1  6  0  0  0
 10  3  1  0  0  0  0
 11  4  1  6  0  0  0
 11 15  1  0  0  0  0
 11 20  1  0  0  0  0
 15 14  1  1  0  0  0
 15 10  1  0  0  0  0
 16  3  1  0  0  0  0
 16 17  1  1  0  0  0
 18  8  1  0  0  0  0
 18 20  1  0  0  0  0
 20 16  1  0  0  0  0
 21  9  1  0  0  0  0
 21 13  1  0  0  0  0
 23 22  1  0  0  0  0
 24 26  1  0  0  0  0
 24 25  2  0  0  0  0
 25 27  1  0  0  0  0
 26 23  1  0  0  0  0
 27 22  2  0  0  0  0
 29 28  1  0  0  0  0
 30 21  1  0  0  0  0
 31 30  1  0  0  0  0
 32 31  3  0  0  0  0
M  END
>  <MODEL>
5

>  <REMARK>
 VINA RESULT:      -6.2      3.658      7.600
  Name = 
  4 active torsions:
  status: ('A' for Active; 'I' for Inactive)
    1  A    between atoms: C_10  and  C_28
    2  A    between atoms: N_14  and  C_21
    3  A    between atoms: N_14  and  C_29
    4  A    between atoms: C_15  and  O_26
                            x       y       z     vdW  Elec       q    Type
                         _______ _______ _______ _____ _____    ______ ____

>  <TORSDO>
F 4

$$$$
=
 OpenBabel10262421073D

 32 36  0  0  1  0  0  0  0  0999 V2000
  184.6280  179.1230  139.6200 C   0  0  1  0  0  3  0  0  0  0  0  0
  183.0440  177.3560  139.8900 C   0  0  1  0  0  3  0  0  0  0  0  0
  186.0970  177.8690  143.9250 C   0  0  2  0  0  3  0  0  0  0  0  0
  186.0560  178.5530  139.7410 C   0  0  0  0  0  2  0  0  0  0  0  0
  183.6710  178.2280  138.8320 C   0  0  2  0  0  3  0  0  0  0  0  0
  181.3120  176.7380  138.0650 C   0  0  0  0  0  2  0  0  0  0  0  0
  186.0820  177.9390  145.3200 O   0  0  0  0  0  1  0  0  0  0  0  0
  183.0830  178.2040  141.1650 C   0  0  1  0  0  3  0  0  0  0  0  0
  182.3220  175.9510  137.2440 C   0  0  1  0  0  3  0  0  0  0  0  0
  187.4770  178.2910  143.3700 C   0  0  2  0  0  3  0  0  0  0  0  0
  186.1650  178.1410  141.1840 C   0  0  1  0  0  3  0  0  0  0  0  0
  181.6650  176.7590  139.5500 C   0  0  0  0  0  2  0  0  0  0  0  0
  184.3550  177.3810  137.7600 C   0  0  0  0  0  2  0  0  0  0  0  0
  188.2460  179.3590  141.3630 O   0  0  0  0  0  1  0  0  0  0  0  0
  187.5570  178.2340  141.8250 C   0  0  1  0  0  3  0  0  0  0  0  0
  184.9260  178.6790  143.3160 C   0  0  1  0  0  3  0  0  0  0  0  0
  184.6750  179.8290  144.0670 O   0  0  0  0  0  1  0  0  0  0  0  0
  184.0750  179.2780  140.9790 N   0  0  1  0  0  0  0  0  0  0  0  0
  181.5600  175.2590  136.1260 C   0  0  0  0  0  1  0  0  0  0  0  0
  185.2250  179.0860  141.8650 C   0  0  2  0  0  3  0  0  0  0  0  0
  183.3870  176.9050  136.6800 C   0  0  1  0  0  3  0  0  0  0  0  0
  180.0000  180.3890  141.0010 C   0  0  0  0  0  3  0  0  0  0  0  0
  179.6670  180.5030  142.4640 C   0  0  0  0  0  2  0  0  0  0  0  0
  181.2760  178.6270  142.8130 C   0  0  0  0  0  3  0  0  0  0  0  0
  181.7620  178.7970  141.5740 C   0  0  0  0  0  0  0  0  0  0  0  0
  179.9240  179.1750  143.1830 C   0  0  0  0  0  2  0  0  0  0  0  0
  181.0130  179.6150  140.5980 C   0  0  0  0  0  3  0  0  0  0  0  0
  188.3970  176.2830  143.2200 C   0  0  0  0  0  1  0  0  0  0  0  0
  188.4830  177.4910  143.9160 O   0  0  0  0  0  0  0  0  0  0  0  0
  184.1620  176.2520  135.6360 N   0  0  0  0  0  2  0  0  0  0  0  0
  185.2720  176.8960  135.0760 C   0  0  0  0  0  0  0  0  0  0  0  0
  186.2280  177.4510  134.5940 C   0  0  0  0  0  3  0  0  0  0  0  0
  1  4  1  1  0  0  0
  1 18  1  0  0  0  0
  2 12  1  6  0  0  0
  2  8  1  0  0  0  0
  3  7  1  1  0  0  0
  5 13  1  6  0  0  0
  5  1  1  0  0  0  0
  5  2  1  0  0  0  0
  6 12  1  0  0  0  0
  8 25  1  6  0  0  0
  9 19  1  6  0  0  0
  9  6  1  0  0  0  0
 10 29  1  1  0  0  0
 10  3  1  0  0  0  0
 11  4  1  6  0  0  0
 11 15  1  0  0  0  0
 11 20  1  0  0  0  0
 15 14  1  6  0  0  0
 15 10  1  0  0  0  0
 16  3  1  0  0  0  0
 16 17  1  1  0  0  0
 18  8  1  0  0  0  0
 18 20  1  0  0  0  0
 20 16  1  0  0  0  0
 21  9  1  0  0  0  0
 21 13  1  0  0  0  0
 22 23  1  0  0  0  0
 23 26  1  0  0  0  0
 24 26  1  0  0  0  0
 25 24  2  0  0  0  0
 27 22  2  0  0  0  0
 27 25  1  0  0  0  0
 28 29  1  0  0  0  0
 30 21  1  0  0  0  0
 31 30  1  0  0  0  0
 32 31  3  0  0  0  0
M  END
>  <MODEL>
6

>  <REMARK>
 VINA RESULT:      -5.9      3.751      7.728
  Name = 
  4 active torsions:
  status: ('A' for Active; 'I' for Inactive)
    1  A    between atoms: C_10  and  C_28
    2  A    between atoms: N_14  and  C_21
    3  A    between atoms: N_14  and  C_29
    4  A    between atoms: C_15  and  O_26
                            x       y       z     vdW  Elec       q    Type
                         _______ _______ _______ _____ _____    ______ ____

>  <TORSDO>
F 4

$$$$
=
 OpenBabel10262421073D

 32 36  0  0  1  0  0  0  0  0999 V2000
  183.8960  178.4230  138.0920 C   0  0  1  0  0  3  0  0  0  0  0  0
  182.9720  176.6970  139.4610 C   0  0  1  0  0  3  0  0  0  0  0  0
  187.6470  178.0610  140.9320 C   0  0  2  0  0  3  0  0  0  0  0  0
  185.2130  177.9270  137.4630 C   0  0  0  0  0  2  0  0  0  0  0  0
  182.7900  177.3680  138.1230 C   0  0  2  0  0  3  0  0  0  0  0  0
  180.6200  175.6930  139.0500 C   0  0  0  0  0  2  0  0  0  0  0  0
  188.3940  178.3970  142.0630 O   0  0  0  0  0  1  0  0  0  0  0  0
  183.5970  177.7760  140.3530 C   0  0  1  0  0  3  0  0  0  0  0  0
  181.1020  174.7920  137.9240 C   0  0  1  0  0  3  0  0  0  0  0  0
  188.4200  178.4060  139.6400 C   0  0  2  0  0  3  0  0  0  0  0  0
  186.1540  177.8030  138.6310 C   0  0  1  0  0  3  0  0  0  0  0  0
  181.7270  176.0080  140.0530 C   0  0  0  0  0  2  0  0  0  0  0  0
  182.8730  176.3500  136.9860 C   0  0  0  0  0  2  0  0  0  0  0  0
  187.8070  179.0890  137.4230 O   0  0  0  0  0  1  0  0  0  0  0  0
  187.6410  178.0560  138.3490 C   0  0  1  0  0  3  0  0  0  0  0  0
  186.2390  178.7050  140.9870 C   0  0  1  0  0  3  0  0  0  0  0  0
  186.2960  179.9710  141.5740 O   0  0  0  0  0  1  0  0  0  0  0  0
  184.1700  178.8210  139.4870 N   0  0  1  0  0  0  0  0  0  0  0  0
  179.9480  173.8770  137.5470 C   0  0  0  0  0  1  0  0  0  0  0  0
  185.6310  178.8350  139.5810 C   0  0  2  0  0  3  0  0  0  0  0  0
  181.5420  175.6490  136.7270 C   0  0  1  0  0  3  0  0  0  0  0  0
  182.2180  178.8380  143.7110 C   0  0  0  0  0  3  0  0  0  0  0  0
  180.7470  178.8920  143.3980 C   0  0  0  0  0  2  0  0  0  0  0  0
  181.4170  178.7710  140.9970 C   0  0  0  0  0  3  0  0  0  0  0  0
  182.6570  178.3990  141.3480 C   0  0  0  0  0  0  0  0  0  0  0  0
  180.5140  179.4500  141.9910 C   0  0  0  0  0  2  0  0  0  0  0  0
  183.1030  178.5650  142.7470 C   0  0  0  0  0  3  0  0  0  0  0  0
  189.4290  176.5700  138.9220 C   0  0  0  0  0  1  0  0  0  0  0  0
  189.6550  177.7540  139.6280 O   0  0  0  0  0  0  0  0  0  0  0  0
  181.6900  174.8290  135.5340 N   0  0  0  0  0  2  0  0  0  0  0  0
  182.7950  173.9810  135.3960 C   0  0  0  0  0  0  0  0  0  0  0  0
  183.7470  173.2490  135.2770 C   0  0  0  0  0  3  0  0  0  0  0  0
  1  4  1  1  0  0  0
  1  5  1  0  0  0  0
  1 18  1  0  0  0  0
  2 12  1  1  0  0  0
  2  8  1  0  0  0  0
  3 16  1  0  0  0  0
  3  7  1  1  0  0  0
  5 13  1  6  0  0  0
  5  2  1  0  0  0  0
  6 12  1  0  0  0  0
  8 25  1  1  0  0  0
  9 19  1  6  0  0  0
  9  6  1  0  0  0  0
 10 29  1  1  0  0  0
 10  3  1  0  0  0  0
 11  4  1  6  0  0  0
 11 20  1  0  0  0  0
 15 14  1  6  0  0  0
 15 11  1  0  0  0  0
 15 10  1  0  0  0  0
 16 17  1  6  0  0  0
 18 20  1  0  0  0  0
 18  8  1  0  0  0  0
 20 16  1  0  0  0  0
 21 13  1  0  0  0  0
 21  9  1  0  0  0  0
 23 22  1  0  0  0  0
 24 25  2  0  0  0  0
 24 26  1  0  0  0  0
 25 27  1  0  0  0  0
 26 23  1  0  0  0  0
 27 22  2  0  0  0  0
 28 29  1  0  0  0  0
 30 21  1  0  0  0  0
 31 30  1  0  0  0  0
 32 31  3  0  0  0  0
M  END
>  <MODEL>
7

>  <REMARK>
 VINA RESULT:      -5.5      3.288      6.753
  Name = 
  4 active torsions:
  status: ('A' for Active; 'I' for Inactive)
    1  A    between atoms: C_10  and  C_28
    2  A    between atoms: N_14  and  C_21
    3  A    between atoms: N_14  and  C_29
    4  A    between atoms: C_15  and  O_26
                            x       y       z     vdW  Elec       q    Type
                         _______ _______ _______ _____ _____    ______ ____

>  <TORSDO>
F 4

$$$$
=
 OpenBabel10262421073D

 32 36  0  0  1  0  0  0  0  0999 V2000
  186.2360  178.9210  139.0250 C   0  0  1  0  0  3  0  0  0  0  0  0
  184.3830  177.4440  138.7230 C   0  0  1  0  0  3  0  0  0  0  0  0
  185.8520  177.7610  143.5830 C   0  0  2  0  0  3  0  0  0  0  0  0
  187.4100  178.1460  139.6580 C   0  0  0  0  0  2  0  0  0  0  0  0
  185.4820  178.1320  137.9540 C   0  0  2  0  0  3  0  0  0  0  0  0
  183.3300  176.9760  136.4040 C   0  0  0  0  0  2  0  0  0  0  0  0
  185.3570  177.9300  144.8770 O   0  0  0  0  0  1  0  0  0  0  0  0
  184.1120  178.3640  139.9190 C   0  0  1  0  0  3  0  0  0  0  0  0
  184.4140  175.9860  136.0100 C   0  0  1  0  0  3  0  0  0  0  0  0
  187.3890  177.9230  143.5570 C   0  0  2  0  0  3  0  0  0  0  0  0
  186.9300  177.8250  141.0480 C   0  0  1  0  0  3  0  0  0  0  0  0
  183.1320  177.0470  137.9160 C   0  0  0  0  0  2  0  0  0  0  0  0
  186.3460  177.1160  137.2090 C   0  0  0  0  0  2  0  0  0  0  0  0
  188.9880  178.7140  141.9530 O   0  0  0  0  0  1  0  0  0  0  0  0
  187.9990  177.7460  142.1460 C   0  0  1  0  0  3  0  0  0  0  0  0
  185.1270  178.6970  142.5850 C   0  0  1  0  0  3  0  0  0  0  0  0
  184.8280  179.9230  143.1830 O   0  0  0  0  0  1  0  0  0  0  0  0
  185.2730  179.2550  140.0920 N   0  0  1  0  0  0  0  0  0  0  0  0
  183.9910  175.3440  134.6990 C   0  0  0  0  0  1  0  0  0  0  0  0
  185.9850  178.9500  141.3350 C   0  0  2  0  0  3  0  0  0  0  0  0
  185.7560  176.7220  135.8570 C   0  0  1  0  0  3  0  0  0  0  0  0
  180.5280  179.4070  140.5330 C   0  0  0  0  0  3  0  0  0  0  0  0
  180.2400  180.1580  139.2610 C   0  0  0  0  0  2  0  0  0  0  0  0
  182.7050  180.1160  138.8670 C   0  0  0  0  0  3  0  0  0  0  0  0
  182.8540  179.1830  139.8180 C   0  0  0  0  0  0  0  0  0  0  0  0
  181.4640  180.9670  138.8220 C   0  0  0  0  0  2  0  0  0  0  0  0
  181.7510  178.9180  140.7650 C   0  0  0  0  0  3  0  0  0  0  0  0
  188.7960  177.7980  145.2630 C   0  0  0  0  0  1  0  0  0  0  0  0
  187.9850  177.0160  144.4380 O   0  0  0  0  0  0  0  0  0  0  0  0
  186.7270  175.8840  135.1700 N   0  0  0  0  0  2  0  0  0  0  0  0
  187.4320  174.9000  135.8740 C   0  0  0  0  0  0  0  0  0  0  0  0
  188.0390  174.0530  136.4800 C   0  0  0  0  0  3  0  0  0  0  0  0
  1  4  1  1  0  0  0
  1 18  1  0  0  0  0
  2 12  1  6  0  0  0
  2  8  1  0  0  0  0
  3  7  1  1  0  0  0
  5 13  1  1  0  0  0
  5  2  1  0  0  0  0
  5  1  1  0  0  0  0
  6 12  1  0  0  0  0
  8 25  1  6  0  0  0
  8 18  1  0  0  0  0
  9 19  1  6  0  0  0
  9  6  1  0  0  0  0
 10  3  1  0  0  0  0
 10 29  1  1  0  0  0
 11  4  1  6  0  0  0
 11 20  1  0  0  0  0
 11 15  1  0  0  0  0
 15 14  1  6  0  0  0
 15 10  1  0  0  0  0
 16 17  1  1  0  0  0
 16  3  1  0  0  0  0
 18 20  1  0  0  0  0
 20 16  1  0  0  0  0
 21  9  1  0  0  0  0
 21 13  1  0  0  0  0
 22 27  2  0  0  0  0
 23 22  1  0  0  0  0
 24 25  2  0  0  0  0
 25 27  1  0  0  0  0
 26 24  1  0  0  0  0
 26 23  1  0  0  0  0
 29 28  1  0  0  0  0
 30 21  1  0  0  0  0
 30 31  1  0  0  0  0
 31 32  3  0  0  0  0
M  END
>  <MODEL>
8

>  <REMARK>
 VINA RESULT:      -5.4      3.642      7.762
  Name = 
  4 active torsions:
  status: ('A' for Active; 'I' for Inactive)
    1  A    between atoms: C_10  and  C_28
    2  A    between atoms: N_14  and  C_21
    3  A    between atoms: N_14  and  C_29
    4  A    between atoms: C_15  and  O_26
                            x       y       z     vdW  Elec       q    Type
                         _______ _______ _______ _____ _____    ______ ____

>  <TORSDO>
F 4

$$$$
=
 OpenBabel10262421073D

 32 36  0  0  1  0  0  0  0  0999 V2000
  188.2280  176.3140  142.8300 C   0  0  1  0  0  3  0  0  0  0  0  0
  190.1540  177.6820  143.1860 C   0  0  1  0  0  3  0  0  0  0  0  0
  186.0810  179.3490  145.7350 C   0  0  2  0  0  3  0  0  0  0  0  0
  187.0920  177.1730  142.2400 C   0  0  0  0  0  2  0  0  0  0  0  0
  189.6080  176.6320  142.2520 C   0  0  2  0  0  3  0  0  0  0  0  0
  192.4380  177.2030  142.0610 C   0  0  0  0  0  2  0  0  0  0  0  0
  185.6730  179.7990  146.9930 O   0  0  0  0  0  1  0  0  0  0  0  0
  189.4780  177.3940  144.5300 C   0  0  1  0  0  3  0  0  0  0  0  0
  192.0190  177.8230  140.7370 C   0  0  1  0  0  3  0  0  0  0  0  0
  184.8590  179.0500  144.8360 C   0  0  2  0  0  3  0  0  0  0  0  0
  186.7150  178.1030  143.3610 C   0  0  1  0  0  3  0  0  0  0  0  0
  191.6890  177.8070  143.2450 C   0  0  0  0  0  2  0  0  0  0  0  0
  189.5730  177.1450  140.8120 C   0  0  0  0  0  2  0  0  0  0  0  0
  184.3920  177.5030  143.0630 O   0  0  0  0  0  1  0  0  0  0  0  0
  185.2470  178.5470  143.4250 C   0  0  1  0  0  3  0  0  0  0  0  0
  187.0480  178.1460  145.8630 C   0  0  1  0  0  3  0  0  0  0  0  0
  186.6840  177.3300  146.9360 O   0  0  0  0  0  1  0  0  0  0  0  0
  188.2880  176.5610  144.2840 N   0  0  1  0  0  0  0  0  0  0  0  0
  193.2500  177.8760  139.8480 C   0  0  0  0  0  1  0  0  0  0  0  0
  187.0600  177.3020  144.5780 C   0  0  2  0  0  3  0  0  0  0  0  0
  190.9100  176.9730  140.0950 C   0  0  1  0  0  3  0  0  0  0  0  0
  191.1730  176.7900  147.8570 C   0  0  0  0  0  3  0  0  0  0  0  0
  192.4180  176.0750  147.4050 C   0  0  0  0  0  2  0  0  0  0  0  0
  191.2760  175.8200  145.2000 C   0  0  0  0  0  3  0  0  0  0  0  0
  190.3590  176.7320  145.5550 C   0  0  0  0  0  0  0  0  0  0  0  0
  192.1040  175.1240  146.2460 C   0  0  0  0  0  2  0  0  0  0  0  0
  190.2310  177.1290  146.9720 C   0  0  0  0  0  3  0  0  0  0  0  0
  182.8020  179.7040  144.3430 C   0  0  0  0  0  1  0  0  0  0  0  0
  184.0570  180.1880  144.7190 O   0  0  0  0  0  0  0  0  0  0  0  0
  190.7220  177.3400  138.7000 N   0  0  0  0  0  2  0  0  0  0  0  0
  189.5710  178.0320  138.3030 C   0  0  0  0  0  0  0  0  0  0  0  0
  188.5800  178.6280  137.9610 C   0  0  0  0  0  3  0  0  0  0  0  0
  1  4  1  6  0  0  0
  1 18  1  0  0  0  0
  2 12  1  1  0  0  0
  2  8  1  0  0  0  0
  3 16  1  0  0  0  0
  3  7  1  1  0  0  0
  5 13  1  6  0  0  0
  5  1  1  0  0  0  0
  5  2  1  0  0  0  0
  6 12  1  0  0  0  0
  8 25  1  1  0  0  0
  9 19  1  6  0  0  0
  9  6  1  0  0  0  0
 10 29  1  6  0  0  0
 10  3  1  0  0  0  0
 11  4  1  6  0  0  0
 11 15  1  0  0  0  0
 11 20  1  0  0  0  0
 15 14  1  1  0  0  0
 15 10  1  0  0  0  0
 16 17  1  1  0  0  0
 18  8  1  0  0  0  0
 18 20  1  0  0  0  0
 20 16  1  0  0  0  0
 21  9  1  0  0  0  0
 21 13  1  0  0  0  0
 23 22  1  0  0  0  0
 24 25  2  0  0  0  0
 24 26  1  0  0  0  0
 25 27  1  0  0  0  0
 26 23  1  0  0  0  0
 27 22  2  0  0  0  0
 28 29  1  0  0  0  0
 30 21  1  0  0  0  0
 31 30  1  0  0  0  0
 32 31  3  0  0  0  0
M  END
>  <MODEL>
9

>  <REMARK>
 VINA RESULT:      -5.3      3.921      6.951
  Name = 
  4 active torsions:
  status: ('A' for Active; 'I' for Inactive)
    1  A    between atoms: C_10  and  C_28
    2  A    between atoms: N_14  and  C_21
    3  A    between atoms: N_14  and  C_29
    4  A    between atoms: C_15  and  O_26
                            x       y       z     vdW  Elec       q    Type
                         _______ _______ _______ _____ _____    ______ ____

>  <TORSDO>
F 4

$$$$
