=
 OpenBabel10262419593D

 27 31  0  0  1  0  0  0  0  0999 V2000
  188.4020  177.9090  144.6680 N   0  0  0  0  0  2  0  0  0  0  0  0
  187.6000  177.7580  142.3910 C   0  0  0  0  0  0  0  0  0  0  0  0
  189.6560  176.3280  142.4150 N   0  0  0  0  0  2  0  0  0  0  0  0
  188.3670  178.3520  138.3830 C   0  0  0  0  0  3  0  0  0  0  0  0
  190.3100  177.3440  137.0830 C   0  0  0  0  0  1  0  0  0  0  0  0
  186.7420  178.5660  141.6850 N   0  0  0  0  0  0  0  0  0  0  0  0
  189.8080  177.0080  139.5230 N   0  0  0  0  0  0  0  0  0  0  0  0
  192.0150  175.7900  145.2270 C   0  0  0  0  0  3  0  0  0  0  0  0
  190.9380  176.1360  139.8130 C   0  0  0  0  0  1  0  0  0  0  0  0
  191.5240  176.6470  146.2100 C   0  0  0  0  0  0  0  0  0  0  0  0
  188.8570  177.4390  140.3730 C   0  0  0  0  0  0  0  0  0  0  0  0
  187.3220  177.4320  143.8250 C   0  0  2  0  0  3  0  0  0  0  0  0
  189.5100  177.5570  138.3230 C   0  0  0  0  0  0  0  0  0  0  0  0
  187.9810  178.2510  139.7060 C   0  0  0  0  0  0  0  0  0  0  0  0
  189.6570  177.2410  144.7720 C   0  0  0  0  0  0  0  0  0  0  0  0
  188.7150  177.1800  141.7450 C   0  0  0  0  0  0  0  0  0  0  0  0
  191.3480  175.6760  144.0080 C   0  0  0  0  0  3  0  0  0  0  0  0
  186.9070  178.8340  140.3580 C   0  0  0  0  0  3  0  0  0  0  0  0
  192.1950  176.7790  147.4170 O   0  0  0  0  0  1  0  0  0  0  0  0
  190.3490  177.3640  145.9820 C   0  0  0  0  0  3  0  0  0  0  0  0
  190.1780  176.4020  143.7520 C   0  0  0  0  0  0  0  0  0  0  0  0
  183.5380  178.8610  145.2930 C   0  0  0  0  0  3  0  0  0  0  0  0
  186.0000  177.9440  144.3190 C   0  0  0  0  0  0  0  0  0  0  0  0
  184.9330  178.1750  143.4370 C   0  0  0  0  0  3  0  0  0  0  0  0
  183.7060  178.6340  143.9230 C   0  0  0  0  0  3  0  0  0  0  0  0
  184.5970  178.6280  146.1750 C   0  0  0  0  0  3  0  0  0  0  0  0
  185.8240  178.1690  145.6890 C   0  0  0  0  0  3  0  0  0  0  0  0
  1 15  1  0  0  0  0
  2 12  1  0  0  0  0
  3 21  1  0  0  0  0
  4 14  1  0  0  0  0
  5 13  1  0  0  0  0
  6  2  2  0  0  0  0
  7  9  1  0  0  0  0
  7 11  1  0  0  0  0
  8 10  1  0  0  0  0
 10 19  1  0  0  0  0
 11 16  2  0  0  0  0
 12 23  1  1  0  0  0
 12  1  1  0  0  0  0
 13  4  2  0  0  0  0
 13  7  1  0  0  0  0
 14 18  2  0  0  0  0
 14 11  1  0  0  0  0
 15 20  1  0  0  0  0
 16  2  1  0  0  0  0
 16  3  1  0  0  0  0
 17  8  2  0  0  0  0
 18  6  1  0  0  0  0
 20 10  2  0  0  0  0
 21 17  1  0  0  0  0
 21 15  2  0  0  0  0
 22 26  1  0  0  0  0
 23 27  1  0  0  0  0
 24 25  1  0  0  0  0
 24 23  2  0  0  0  0
 25 22  2  0  0  0  0
 27 26  2  0  0  0  0
M  END
>  <MODEL>
1

>  <REMARK>
 VINA RESULT:     -10.1      0.000      0.000
  Name = 
  1 active torsions:
  status: ('A' for Active; 'I' for Inactive)
    1  A    between atoms: C_9  and  C_15
                            x       y       z     vdW  Elec       q    Type
                         _______ _______ _______ _____ _____    ______ ____

>  <TORSDO>
F 1

$$$$
=
 OpenBabel10262419593D

 27 31  0  0  1  0  0  0  0  0999 V2000
  186.3700  178.5900  144.9710 N   0  0  0  0  0  2  0  0  0  0  0  0
  186.8250  178.0010  142.6690 C   0  0  0  0  0  0  0  0  0  0  0  0
  188.6240  176.8410  143.9680 N   0  0  0  0  0  2  0  0  0  0  0  0
  189.4860  178.0620  139.5200 C   0  0  0  0  0  3  0  0  0  0  0  0
  191.8430  177.1020  139.5560 C   0  0  0  0  0  1  0  0  0  0  0  0
  186.4170  178.5870  141.4950 N   0  0  0  0  0  0  0  0  0  0  0  0
  190.1910  177.0850  141.4510 N   0  0  0  0  0  0  0  0  0  0  0  0
  189.2650  177.0160  147.6180 C   0  0  0  0  0  3  0  0  0  0  0  0
  191.0450  176.4050  142.4170 C   0  0  0  0  0  1  0  0  0  0  0  0
  188.3250  177.9500  148.0500 C   0  0  0  0  0  0  0  0  0  0  0  0
  188.9320  177.5270  141.6270 C   0  0  0  0  0  0  0  0  0  0  0  0
  185.8710  177.8670  143.8160 C   0  0  2  0  0  3  0  0  0  0  0  0
  190.5240  177.4070  140.1790 C   0  0  0  0  0  0  0  0  0  0  0  0
  188.4900  178.1200  140.4760 C   0  0  0  0  0  0  0  0  0  0  0  0
  187.4190  178.0960  145.8000 C   0  0  0  0  0  0  0  0  0  0  0  0
  188.1270  177.4660  142.7750 C   0  0  0  0  0  0  0  0  0  0  0  0
  189.3030  176.6400  146.2750 C   0  0  0  0  0  3  0  0  0  0  0  0
  187.2200  178.6670  140.3960 C   0  0  0  0  0  3  0  0  0  0  0  0
  188.2960  178.3410  149.3810 O   0  0  0  0  0  1  0  0  0  0  0  0
  187.4060  178.4820  147.1460 C   0  0  0  0  0  3  0  0  0  0  0  0
  188.4020  177.1780  145.3470 C   0  0  0  0  0  0  0  0  0  0  0  0
  181.8290  179.0550  142.9440 C   0  0  0  0  0  3  0  0  0  0  0  0
  184.4680  178.2910  143.4920 C   0  0  0  0  0  0  0  0  0  0  0  0
  183.9640  178.2020  142.1860 C   0  0  0  0  0  3  0  0  0  0  0  0
  182.6480  178.5840  141.9130 C   0  0  0  0  0  3  0  0  0  0  0  0
  182.3260  179.1410  144.2480 C   0  0  0  0  0  3  0  0  0  0  0  0
  183.6430  178.7580  144.5210 C   0  0  0  0  0  3  0  0  0  0  0  0
  1 15  1  0  0  0  0
  2 16  1  0  0  0  0
  2 12  1  0  0  0  0
  3 21  1  0  0  0  0
  4 13  2  0  0  0  0
  4 14  1  0  0  0  0
  5 13  1  0  0  0  0
  6  2  2  0  0  0  0
  7 11  1  0  0  0  0
  7  9  1  0  0  0  0
  8 10  1  0  0  0  0
 10 19  1  0  0  0  0
 11 16  2  0  0  0  0
 12 23  1  6  0  0  0
 12  1  1  0  0  0  0
 13  7  1  0  0  0  0
 14 11  1  0  0  0  0
 15 20  1  0  0  0  0
 16  3  1  0  0  0  0
 17  8  2  0  0  0  0
 18 14  2  0  0  0  0
 18  6  1  0  0  0  0
 20 10  2  0  0  0  0
 21 15  2  0  0  0  0
 21 17  1  0  0  0  0
 22 26  1  0  0  0  0
 23 27  1  0  0  0  0
 24 23  2  0  0  0  0
 25 24  1  0  0  0  0
 25 22  2  0  0  0  0
 26 27  2  0  0  0  0
M  END
>  <MODEL>
2

>  <REMARK>
 VINA RESULT:      -9.9      1.708      2.458
  Name = 
  1 active torsions:
  status: ('A' for Active; 'I' for Inactive)
    1  A    between atoms: C_9  and  C_15
                            x       y       z     vdW  Elec       q    Type
                         _______ _______ _______ _____ _____    ______ ____

>  <TORSDO>
F 1

$$$$
=
 OpenBabel10262419593D

 27 31  0  0  1  0  0  0  0  0999 V2000
  186.1480  177.6540  143.2100 N   0  0  0  0  0  2  0  0  0  0  0  0
  188.4140  177.6090  142.3650 C   0  0  0  0  0  0  0  0  0  0  0  0
  187.0980  178.7020  140.5370 N   0  0  0  0  0  2  0  0  0  0  0  0
  191.0050  176.3600  139.4100 C   0  0  0  0  0  3  0  0  0  0  0  0
  190.7750  176.8730  136.9280 C   0  0  0  0  0  1  0  0  0  0  0  0
  189.4960  176.8500  142.7390 N   0  0  0  0  0  0  0  0  0  0  0  0
  189.2210  177.6150  138.7590 N   0  0  0  0  0  0  0  0  0  0  0  0
  183.4320  179.2590  140.3970 C   0  0  0  0  0  3  0  0  0  0  0  0
  188.2840  178.3370  137.9070 C   0  0  0  0  0  1  0  0  0  0  0  0
  182.9810  178.6300  141.5550 C   0  0  0  0  0  0  0  0  0  0  0  0
  189.1680  177.4540  140.0940 C   0  0  0  0  0  0  0  0  0  0  0  0
  187.4900  178.1680  143.4030 C   0  0  2  0  0  3  0  0  0  0  0  0
  190.3290  176.9560  138.3470 C   0  0  0  0  0  0  0  0  0  0  0  0
  190.2330  176.6990  140.5050 C   0  0  0  0  0  0  0  0  0  0  0  0
  185.2730  178.1320  142.1910 C   0  0  0  0  0  0  0  0  0  0  0  0
  188.2050  177.9170  141.0030 C   0  0  0  0  0  0  0  0  0  0  0  0
  184.7990  179.3040  140.1180 C   0  0  0  0  0  3  0  0  0  0  0  0
  190.4100  176.3800  141.8420 C   0  0  0  0  0  3  0  0  0  0  0  0
  181.6220  178.5660  141.8270 O   0  0  0  0  0  1  0  0  0  0  0  0
  183.8990  178.0740  142.4480 C   0  0  0  0  0  3  0  0  0  0  0  0
  185.7340  178.7350  140.9900 C   0  0  0  0  0  0  0  0  0  0  0  0
  188.7540  177.5350  147.4670 C   0  0  0  0  0  3  0  0  0  0  0  0
  187.9480  177.9340  144.8130 C   0  0  0  0  0  0  0  0  0  0  0  0
  189.3120  177.9410  145.1460 C   0  0  0  0  0  3  0  0  0  0  0  0
  189.7130  177.7400  146.4700 C   0  0  0  0  0  3  0  0  0  0  0  0
  187.3940  177.5330  147.1400 C   0  0  0  0  0  3  0  0  0  0  0  0
  186.9930  177.7330  145.8160 C   0  0  0  0  0  3  0  0  0  0  0  0
  1 12  1  0  0  0  0
  2  6  1  0  0  0  0
  2 12  1  0  0  0  0
  3 21  1  0  0  0  0
  3 16  1  0  0  0  0
  4 14  1  0  0  0  0
  5 13  1  0  0  0  0
  7 11  1  0  0  0  0
  8 10  1  0  0  0  0
  9  7  1  0  0  0  0
 10 19  1  0  0  0  0
 10 20  2  0  0  0  0
 11 14  2  0  0  0  0
 11 16  1  0  0  0  0
 12 23  1  1  0  0  0
 13  7  1  0  0  0  0
 13  4  2  0  0  0  0
 14 18  1  0  0  0  0
 15 20  1  0  0  0  0
 15  1  1  0  0  0  0
 16  2  2  0  0  0  0
 17  8  2  0  0  0  0
 17 21  1  0  0  0  0
 18  6  2  0  0  0  0
 21 15  2  0  0  0  0
 23 24  2  0  0  0  0
 23 27  1  0  0  0  0
 24 25  1  0  0  0  0
 25 22  2  0  0  0  0
 26 22  1  0  0  0  0
 27 26  2  0  0  0  0
M  END
>  <MODEL>
3

>  <REMARK>
 VINA RESULT:      -9.6      2.816      5.272
  Name = 
  1 active torsions:
  status: ('A' for Active; 'I' for Inactive)
    1  A    between atoms: C_9  and  C_15
                            x       y       z     vdW  Elec       q    Type
                         _______ _______ _______ _____ _____    ______ ____

>  <TORSDO>
F 1

$$$$
=
 OpenBabel10262419593D

 27 31  0  0  1  0  0  0  0  0999 V2000
  187.3120  177.6870  142.6280 N   0  0  0  0  0  2  0  0  0  0  0  0
  188.9990  177.6440  140.8950 C   0  0  0  0  0  0  0  0  0  0  0  0
  187.0100  178.6890  139.7900 N   0  0  0  0  0  2  0  0  0  0  0  0
  190.0980  176.3580  137.1350 C   0  0  0  0  0  3  0  0  0  0  0  0
  188.8200  176.8180  134.9820 C   0  0  0  0  0  1  0  0  0  0  0  0
  190.1500  176.9030  140.7810 N   0  0  0  0  0  0  0  0  0  0  0  0
  188.1860  177.5830  137.2910 N   0  0  0  0  0  0  0  0  0  0  0  0
  183.6290  179.2120  141.2240 C   0  0  0  0  0  3  0  0  0  0  0  0
  186.9640  178.2810  136.9120 C   0  0  0  0  0  1  0  0  0  0  0  0
  183.7270  178.6020  142.4740 C   0  0  0  0  0  0  0  0  0  0  0  0
  188.7120  177.4490  138.5220 C   0  0  0  0  0  0  0  0  0  0  0  0
  188.6000  178.2160  142.2200 C   0  0  2  0  0  3  0  0  0  0  0  0
  189.0230  176.9260  136.4540 C   0  0  0  0  0  0  0  0  0  0  0  0
  189.8630  176.7120  138.4490 C   0  0  0  0  0  0  0  0  0  0  0  0
  186.0780  178.1370  142.0740 C   0  0  0  0  0  0  0  0  0  0  0  0
  188.2230  177.9230  139.7490 C   0  0  0  0  0  0  0  0  0  0  0  0
  184.7430  179.2630  140.3870 C   0  0  0  0  0  3  0  0  0  0  0  0
  190.6000  176.4220  139.5860 C   0  0  0  0  0  3  0  0  0  0  0  0
  182.6160  178.5320  143.3020 O   0  0  0  0  0  1  0  0  0  0  0  0
  184.9470  178.0730  142.8950 C   0  0  0  0  0  3  0  0  0  0  0  0
  185.9720  178.7190  140.7830 C   0  0  0  0  0  0  0  0  0  0  0  0
  191.4790  177.6370  145.3650 C   0  0  0  0  0  3  0  0  0  0  0  0
  189.6210  178.0160  143.3020 C   0  0  0  0  0  0  0  0  0  0  0  0
  190.8220  178.7410  143.3120 C   0  0  0  0  0  3  0  0  0  0  0  0
  191.7490  178.5510  144.3410 C   0  0  0  0  0  3  0  0  0  0  0  0
  190.2800  176.9160  145.3600 C   0  0  0  0  0  3  0  0  0  0  0  0
  189.3530  177.1070  144.3320 C   0  0  0  0  0  3  0  0  0  0  0  0
  2 12  1  0  0  0  0
  3 21  1  0  0  0  0
  4 14  1  0  0  0  0
  5 13  1  0  0  0  0
  6  2  1  0  0  0  0
  7 11  1  0  0  0  0
  8 10  1  0  0  0  0
  9  7  1  0  0  0  0
 10 20  2  0  0  0  0
 10 19  1  0  0  0  0
 11 16  1  0  0  0  0
 12  1  1  0  0  0  0
 12 23  1  1  0  0  0
 13  4  2  0  0  0  0
 13  7  1  0  0  0  0
 14 11  2  0  0  0  0
 14 18  1  0  0  0  0
 15  1  1  0  0  0  0
 15 20  1  0  0  0  0
 16  3  1  0  0  0  0
 16  2  2  0  0  0  0
 17 21  1  0  0  0  0
 17  8  2  0  0  0  0
 18  6  2  0  0  0  0
 21 15  2  0  0  0  0
 23 24  2  0  0  0  0
 23 27  1  0  0  0  0
 24 25  1  0  0  0  0
 25 22  2  0  0  0  0
 26 22  1  0  0  0  0
 27 26  2  0  0  0  0
M  END
>  <MODEL>
4

>  <REMARK>
 VINA RESULT:      -9.5      2.589      5.515
  Name = 
  1 active torsions:
  status: ('A' for Active; 'I' for Inactive)
    1  A    between atoms: C_9  and  C_15
                            x       y       z     vdW  Elec       q    Type
                         _______ _______ _______ _____ _____    ______ ____

>  <TORSDO>
F 1

$$$$
=
 OpenBabel10262419593D

 27 31  0  0  1  0  0  0  0  0999 V2000
  188.1650  178.4190  140.9470 N   0  0  0  0  0  2  0  0  0  0  0  0
  189.2850  177.5370  142.9010 C   0  0  0  0  0  0  0  0  0  0  0  0
  186.8530  177.4250  143.4850 N   0  0  0  0  0  2  0  0  0  0  0  0
  189.9850  177.8510  146.9530 C   0  0  0  0  0  3  0  0  0  0  0  0
  188.2000  177.8410  148.7670 C   0  0  0  0  0  1  0  0  0  0  0  0
  190.5880  177.6590  143.3210 N   0  0  0  0  0  0  0  0  0  0  0  0
  187.8160  177.6520  146.2900 N   0  0  0  0  0  0  0  0  0  0  0  0
  183.9770  178.6290  141.4740 C   0  0  0  0  0  3  0  0  0  0  0  0
  186.3630  177.5590  146.3480 C   0  0  0  0  0  1  0  0  0  0  0  0
  184.5960  179.2320  140.3810 C   0  0  0  0  0  0  0  0  0  0  0  0
  188.6030  177.6370  145.1980 C   0  0  0  0  0  0  0  0  0  0  0  0
  188.9770  177.3280  141.4510 C   0  0  2  0  0  3  0  0  0  0  0  0
  188.6510  177.7790  147.3480 C   0  0  0  0  0  0  0  0  0  0  0  0
  189.9120  177.7580  145.5760 C   0  0  0  0  0  0  0  0  0  0  0  0
  186.7700  178.5360  141.2160 C   0  0  0  0  0  0  0  0  0  0  0  0
  188.2370  177.5460  143.8470 C   0  0  0  0  0  0  0  0  0  0  0  0
  184.7490  178.0030  142.4530 C   0  0  0  0  0  3  0  0  0  0  0  0
  190.9290  177.7760  144.6360 C   0  0  0  0  0  3  0  0  0  0  0  0
  183.8330  179.8720  139.4160 O   0  0  0  0  0  1  0  0  0  0  0  0
  185.9840  179.1800  140.2530 C   0  0  0  0  0  3  0  0  0  0  0  0
  186.1460  177.9580  142.3530 C   0  0  0  0  0  0  0  0  0  0  0  0
  192.4400  176.7100  138.9740 C   0  0  0  0  0  3  0  0  0  0  0  0
  190.1920  177.1330  140.5930 C   0  0  0  0  0  0  0  0  0  0  0  0
  191.4600  177.5580  141.0190 C   0  0  0  0  0  3  0  0  0  0  0  0
  192.5800  177.3480  140.2100 C   0  0  0  0  0  3  0  0  0  0  0  0
  191.1790  176.2810  138.5480 C   0  0  0  0  0  3  0  0  0  0  0  0
  190.0590  176.4910  139.3570 C   0  0  0  0  0  3  0  0  0  0  0  0
  1 15  1  0  0  0  0
  1 12  1  0  0  0  0
  2  6  2  0  0  0  0
  2 16  1  0  0  0  0
  3 16  1  0  0  0  0
  4 13  2  0  0  0  0
  6 18  1  0  0  0  0
  7  9  1  0  0  0  0
  7 13  1  0  0  0  0
  8 17  1  0  0  0  0
 10  8  2  0  0  0  0
 11 14  1  0  0  0  0
 11  7  1  0  0  0  0
 12 23  1  6  0  0  0
 12  2  1  0  0  0  0
 13  5  1  0  0  0  0
 14  4  1  0  0  0  0
 15 21  1  0  0  0  0
 16 11  2  0  0  0  0
 18 14  2  0  0  0  0
 19 10  1  0  0  0  0
 20 10  1  0  0  0  0
 20 15  2  0  0  0  0
 21 17  2  0  0  0  0
 21  3  1  0  0  0  0
 22 25  1  0  0  0  0
 23 24  1  0  0  0  0
 25 24  2  0  0  0  0
 26 22  2  0  0  0  0
 26 27  1  0  0  0  0
 27 23  2  0  0  0  0
M  END
>  <MODEL>
5

>  <REMARK>
 VINA RESULT:      -9.1      2.896      7.472
  Name = 
  1 active torsions:
  status: ('A' for Active; 'I' for Inactive)
    1  A    between atoms: C_9  and  C_15
                            x       y       z     vdW  Elec       q    Type
                         _______ _______ _______ _____ _____    ______ ____

>  <TORSDO>
F 1

$$$$
=
 OpenBabel10262419593D

 27 31  0  0  1  0  0  0  0  0999 V2000
  188.6810  177.1910  139.9110 N   0  0  0  0  0  2  0  0  0  0  0  0
  188.0470  177.8740  142.1430 C   0  0  0  0  0  0  0  0  0  0  0  0
  190.5490  177.9580  142.1610 N   0  0  0  0  0  2  0  0  0  0  0  0
  188.2910  177.1750  146.1990 C   0  0  0  0  0  3  0  0  0  0  0  0
  190.4440  177.0360  147.5500 C   0  0  0  0  0  1  0  0  0  0  0  0
  186.8740  177.6990  142.8360 N   0  0  0  0  0  0  0  0  0  0  0  0
  190.2520  177.4600  145.0790 N   0  0  0  0  0  0  0  0  0  0  0  0
  192.8760  176.9800  139.4420 C   0  0  0  0  0  3  0  0  0  0  0  0
  191.6800  177.5630  144.8110 C   0  0  0  0  0  1  0  0  0  0  0  0
  192.0160  176.4750  138.4690 C   0  0  0  0  0  0  0  0  0  0  0  0
  189.2360  177.5680  144.2030 C   0  0  0  0  0  0  0  0  0  0  0  0
  188.0170  178.2220  140.6870 C   0  0  2  0  0  3  0  0  0  0  0  0
  189.6810  177.2250  146.2840 C   0  0  0  0  0  0  0  0  0  0  0  0
  188.0470  177.3970  144.8580 C   0  0  0  0  0  0  0  0  0  0  0  0
  190.0990  177.0650  139.8400 C   0  0  0  0  0  0  0  0  0  0  0  0
  189.2840  177.7890  142.8180 C   0  0  0  0  0  0  0  0  0  0  0  0
  192.3540  177.5030  140.6260 C   0  0  0  0  0  3  0  0  0  0  0  0
  186.8410  177.4560  144.1780 C   0  0  0  0  0  3  0  0  0  0  0  0
  192.5310  175.9360  137.2990 O   0  0  0  0  0  1  0  0  0  0  0  0
  190.6360  176.5230  138.6670 C   0  0  0  0  0  3  0  0  0  0  0  0
  190.9730  177.5410  140.8530 C   0  0  0  0  0  0  0  0  0  0  0  0
  184.0940  178.9910  139.0980 C   0  0  0  0  0  3  0  0  0  0  0  0
  186.6400  178.4820  140.1520 C   0  0  0  0  0  0  0  0  0  0  0  0
  185.6270  179.0030  140.9720 C   0  0  0  0  0  3  0  0  0  0  0  0
  184.3570  179.2550  140.4460 C   0  0  0  0  0  3  0  0  0  0  0  0
  185.1020  178.4770  138.2760 C   0  0  0  0  0  3  0  0  0  0  0  0
  186.3720  178.2250  138.8020 C   0  0  0  0  0  3  0  0  0  0  0  0
  1 12  1  0  0  0  0
  2 16  2  0  0  0  0
  2  6  1  0  0  0  0
  3 16  1  0  0  0  0
  4 13  2  0  0  0  0
  6 18  2  0  0  0  0
  7 13  1  0  0  0  0
  8 17  1  0  0  0  0
  9  7  1  0  0  0  0
 10 20  1  0  0  0  0
 10  8  2  0  0  0  0
 11 14  2  0  0  0  0
 11  7  1  0  0  0  0
 12 23  1  6  0  0  0
 12  2  1  0  0  0  0
 13  5  1  0  0  0  0
 14  4  1  0  0  0  0
 15  1  1  0  0  0  0
 15 21  1  0  0  0  0
 16 11  1  0  0  0  0
 17 21  2  0  0  0  0
 18 14  1  0  0  0  0
 19 10  1  0  0  0  0
 20 15  2  0  0  0  0
 21  3  1  0  0  0  0
 22 25  1  0  0  0  0
 23 24  1  0  0  0  0
 25 24  2  0  0  0  0
 26 27  1  0  0  0  0
 26 22  2  0  0  0  0
 27 23  2  0  0  0  0
M  END
>  <MODEL>
6

>  <REMARK>
 VINA RESULT:      -9.1      2.648      5.729
  Name = 
  1 active torsions:
  status: ('A' for Active; 'I' for Inactive)
    1  A    between atoms: C_9  and  C_15
                            x       y       z     vdW  Elec       q    Type
                         _______ _______ _______ _____ _____    ______ ____

>  <TORSDO>
F 1

$$$$
=
 OpenBabel10262419593D

 27 31  0  0  1  0  0  0  0  0999 V2000
  185.4130  177.9780  138.2420 N   0  0  0  0  0  2  0  0  0  0  0  0
  185.1800  178.6520  140.5540 C   0  0  0  0  0  0  0  0  0  0  0  0
  187.6540  178.6280  140.1670 N   0  0  0  0  0  2  0  0  0  0  0  0
  186.0440  177.8780  144.5110 C   0  0  0  0  0  3  0  0  0  0  0  0
  188.3790  177.6250  145.4930 C   0  0  0  0  0  1  0  0  0  0  0  0
  184.1280  178.5160  141.4270 N   0  0  0  0  0  0  0  0  0  0  0  0
  187.8090  178.0960  143.0900 N   0  0  0  0  0  0  0  0  0  0  0  0
  189.4630  177.5940  137.0980 C   0  0  0  0  0  3  0  0  0  0  0  0
  189.1790  178.1420  142.5940 C   0  0  0  0  0  1  0  0  0  0  0  0
  188.4360  177.1420  136.2720 C   0  0  0  0  0  0  0  0  0  0  0  0
  186.6720  178.2620  142.3910 C   0  0  0  0  0  0  0  0  0  0  0  0
  184.9310  179.0240  139.1250 C   0  0  2  0  0  3  0  0  0  0  0  0
  187.4300  177.8660  144.3690 C   0  0  0  0  0  0  0  0  0  0  0  0
  185.5970  178.1320  143.2280 C   0  0  0  0  0  0  0  0  0  0  0  0
  186.7940  177.7930  137.9420 C   0  0  0  0  0  0  0  0  0  0  0  0
  186.5050  178.5020  141.0190 C   0  0  0  0  0  0  0  0  0  0  0  0
  189.1640  178.1200  138.3550 C   0  0  0  0  0  3  0  0  0  0  0  0
  184.3010  178.2530  142.7530 C   0  0  0  0  0  3  0  0  0  0  0  0
  188.7300  176.6010  135.0290 O   0  0  0  0  0  1  0  0  0  0  0  0
  187.1090  177.2460  136.6920 C   0  0  0  0  0  3  0  0  0  0  0  0
  187.8410  178.2140  138.8040 C   0  0  0  0  0  0  0  0  0  0  0  0
  180.8240  179.9230  138.2090 C   0  0  0  0  0  3  0  0  0  0  0  0
  183.4980  179.3520  138.8230 C   0  0  0  0  0  0  0  0  0  0  0  0
  183.0200  180.6680  138.9070 C   0  0  0  0  0  3  0  0  0  0  0  0
  181.6850  180.9520  138.6020 C   0  0  0  0  0  3  0  0  0  0  0  0
  181.2990  178.6100  138.1190 C   0  0  0  0  0  3  0  0  0  0  0  0
  182.6330  178.3270  138.4240 C   0  0  0  0  0  3  0  0  0  0  0  0
  1 12  1  0  0  0  0
  2 16  2  0  0  0  0
  2  6  1  0  0  0  0
  3 16  1  0  0  0  0
  6 18  2  0  0  0  0
  7 13  1  0  0  0  0
  8 17  1  0  0  0  0
  9  7  1  0  0  0  0
 10 20  1  0  0  0  0
 10  8  2  0  0  0  0
 11  7  1  0  0  0  0
 11 14  2  0  0  0  0
 12 23  1  1  0  0  0
 12  2  1  0  0  0  0
 13  4  2  0  0  0  0
 13  5  1  0  0  0  0
 14  4  1  0  0  0  0
 15  1  1  0  0  0  0
 15 21  1  0  0  0  0
 16 11  1  0  0  0  0
 17 21  2  0  0  0  0
 18 14  1  0  0  0  0
 19 10  1  0  0  0  0
 20 15  2  0  0  0  0
 21  3  1  0  0  0  0
 22 25  1  0  0  0  0
 23 24  1  0  0  0  0
 25 24  2  0  0  0  0
 26 22  2  0  0  0  0
 26 27  1  0  0  0  0
 27 23  2  0  0  0  0
M  END
>  <MODEL>
7

>  <REMARK>
 VINA RESULT:      -8.9      3.822      6.757
  Name = 
  1 active torsions:
  status: ('A' for Active; 'I' for Inactive)
    1  A    between atoms: C_9  and  C_15
                            x       y       z     vdW  Elec       q    Type
                         _______ _______ _______ _____ _____    ______ ____

>  <TORSDO>
F 1

$$$$
=
 OpenBabel10262419593D

 27 31  0  0  1  0  0  0  0  0999 V2000
  185.8060  177.9840  140.4610 N   0  0  0  0  0  2  0  0  0  0  0  0
  186.5570  178.1650  142.7530 C   0  0  0  0  0  0  0  0  0  0  0  0
  188.6020  178.6590  141.3960 N   0  0  0  0  0  2  0  0  0  0  0  0
  189.1320  176.8410  145.6890 C   0  0  0  0  0  3  0  0  0  0  0  0
  191.6720  176.8350  145.5360 C   0  0  0  0  0  1  0  0  0  0  0  0
  186.0100  177.6830  143.9180 N   0  0  0  0  0  0  0  0  0  0  0  0
  190.0690  177.6330  143.7720 N   0  0  0  0  0  0  0  0  0  0  0  0
  188.9590  178.5550  137.7050 C   0  0  0  0  0  3  0  0  0  0  0  0
  191.0730  178.0150  142.7870 C   0  0  0  0  0  1  0  0  0  0  0  0
  187.7140  178.0860  137.2890 C   0  0  0  0  0  0  0  0  0  0  0  0
  188.7300  177.7170  143.6630 C   0  0  0  0  0  0  0  0  0  0  0  0
  185.6760  178.7440  141.6900 C   0  0  2  0  0  3  0  0  0  0  0  0
  190.3100  177.1060  144.9950 C   0  0  0  0  0  0  0  0  0  0  0  0
  188.1480  177.2430  144.8070 C   0  0  0  0  0  0  0  0  0  0  0  0
  186.9250  178.1100  139.5870 C   0  0  0  0  0  0  0  0  0  0  0  0
  187.9590  178.1740  142.5830 C   0  0  0  0  0  0  0  0  0  0  0  0
  189.2000  178.7760  139.0610 C   0  0  0  0  0  3  0  0  0  0  0  0
  186.7700  177.2140  144.9480 C   0  0  0  0  0  3  0  0  0  0  0  0
  187.4770  177.8460  135.9430 O   0  0  0  0  0  1  0  0  0  0  0  0
  186.7040  177.8700  138.2260 C   0  0  0  0  0  3  0  0  0  0  0  0
  188.2050  178.5460  140.0190 C   0  0  0  0  0  0  0  0  0  0  0  0
  181.5570  179.0460  142.8950 C   0  0  0  0  0  3  0  0  0  0  0  0
  184.2340  178.8590  142.0900 C   0  0  0  0  0  0  0  0  0  0  0  0
  183.2020  178.5870  141.1790 C   0  0  0  0  0  3  0  0  0  0  0  0
  181.8670  178.6820  141.5810 C   0  0  0  0  0  3  0  0  0  0  0  0
  182.5830  179.3120  143.8080 C   0  0  0  0  0  3  0  0  0  0  0  0
  183.9180  179.2170  143.4050 C   0  0  0  0  0  3  0  0  0  0  0  0
  1 12  1  0  0  0  0
  2  6  1  0  0  0  0
  3 16  1  0  0  0  0
  6 18  2  0  0  0  0
  7 13  1  0  0  0  0
  8 17  1  0  0  0  0
  9  7  1  0  0  0  0
 10  8  2  0  0  0  0
 10 20  1  0  0  0  0
 11  7  1  0  0  0  0
 11 14  2  0  0  0  0
 12 23  1  1  0  0  0
 12  2  1  0  0  0  0
 13  5  1  0  0  0  0
 13  4  2  0  0  0  0
 14 18  1  0  0  0  0
 14  4  1  0  0  0  0
 15 21  1  0  0  0  0
 15  1  1  0  0  0  0
 16  2  2  0  0  0  0
 16 11  1  0  0  0  0
 17 21  2  0  0  0  0
 19 10  1  0  0  0  0
 20 15  2  0  0  0  0
 21  3  1  0  0  0  0
 22 26  1  0  0  0  0
 23 27  1  0  0  0  0
 24 25  1  0  0  0  0
 24 23  2  0  0  0  0
 25 22  2  0  0  0  0
 27 26  2  0  0  0  0
M  END
>  <MODEL>
8

>  <REMARK>
 VINA RESULT:      -8.8      2.882      5.674
  Name = 
  1 active torsions:
  status: ('A' for Active; 'I' for Inactive)
    1  A    between atoms: C_9  and  C_15
                            x       y       z     vdW  Elec       q    Type
                         _______ _______ _______ _____ _____    ______ ____

>  <TORSDO>
F 1

$$$$
=
 OpenBabel10262419593D

 27 31  0  0  1  0  0  0  0  0999 V2000
  191.0640  177.4960  144.4740 N   0  0  0  0  0  2  0  0  0  0  0  0
  189.0220  177.3640  145.7620 C   0  0  0  0  0  0  0  0  0  0  0  0
  188.2830  176.9910  143.3990 N   0  0  0  0  0  2  0  0  0  0  0  0
  185.2350  178.8460  146.4470 C   0  0  0  0  0  3  0  0  0  0  0  0
  183.3730  179.0030  144.7180 C   0  0  0  0  0  1  0  0  0  0  0  0
  188.7270  177.8150  147.0260 N   0  0  0  0  0  0  0  0  0  0  0  0
  185.6920  178.1080  144.3420 N   0  0  0  0  0  0  0  0  0  0  0  0
  190.3560  177.1100  140.3250 C   0  0  0  0  0  3  0  0  0  0  0  0
  185.5250  177.7840  142.9320 C   0  0  0  0  0  1  0  0  0  0  0  0
  191.6020  177.5030  140.8090 C   0  0  0  0  0  0  0  0  0  0  0  0
  186.7890  177.9430  145.1040 C   0  0  0  0  0  0  0  0  0  0  0  0
  190.3490  176.7320  145.4780 C   0  0  2  0  0  3  0  0  0  0  0  0
  184.7540  178.6500  145.1540 C   0  0  0  0  0  0  0  0  0  0  0  0
  186.5350  178.3840  146.3740 C   0  0  0  0  0  0  0  0  0  0  0  0
  190.7510  177.4360  143.0840 C   0  0  0  0  0  0  0  0  0  0  0  0
  188.0480  177.4390  144.7420 C   0  0  0  0  0  0  0  0  0  0  0  0
  189.2990  176.9050  141.2120 C   0  0  0  0  0  3  0  0  0  0  0  0
  187.5080  178.3300  147.3580 C   0  0  0  0  0  3  0  0  0  0  0  0
  192.6510  177.7250  139.9290 O   0  0  0  0  0  1  0  0  0  0  0  0
  191.7970  177.6600  142.1820 C   0  0  0  0  0  3  0  0  0  0  0  0
  189.4680  177.0780  142.5910 C   0  0  0  0  0  0  0  0  0  0  0  0
  192.8050  176.2220  148.9730 C   0  0  0  0  0  3  0  0  0  0  0  0
  191.2010  176.5320  146.6970 C   0  0  0  0  0  0  0  0  0  0  0  0
  192.0300  175.4070  146.8290 C   0  0  0  0  0  3  0  0  0  0  0  0
  192.8290  175.2530  147.9650 C   0  0  0  0  0  3  0  0  0  0  0  0
  191.9840  177.3460  148.8430 C   0  0  0  0  0  3  0  0  0  0  0  0
  191.1850  177.5010  147.7060 C   0  0  0  0  0  3  0  0  0  0  0  0
  1 12  1  0  0  0  0
  2  6  1  0  0  0  0
  3 16  1  0  0  0  0
  5 13  1  0  0  0  0
  6 18  2  0  0  0  0
  7 11  1  0  0  0  0
  7 13  1  0  0  0  0
  8 10  2  0  0  0  0
  8 17  1  0  0  0  0
  9  7  1  0  0  0  0
 10 20  1  0  0  0  0
 11 14  2  0  0  0  0
 12  2  1  0  0  0  0
 12 23  1  1  0  0  0
 13  4  2  0  0  0  0
 14  4  1  0  0  0  0
 14 18  1  0  0  0  0
 15  1  1  0  0  0  0
 16 11  1  0  0  0  0
 16  2  2  0  0  0  0
 17 21  2  0  0  0  0
 19 10  1  0  0  0  0
 20 15  2  0  0  0  0
 21 15  1  0  0  0  0
 21  3  1  0  0  0  0
 23 24  2  0  0  0  0
 23 27  1  0  0  0  0
 24 25  1  0  0  0  0
 25 22  2  0  0  0  0
 26 22  1  0  0  0  0
 27 26  2  0  0  0  0
M  END
>  <MODEL>
9

>  <REMARK>
 VINA RESULT:      -8.8      2.380      6.413
  Name = 
  1 active torsions:
  status: ('A' for Active; 'I' for Inactive)
    1  A    between atoms: C_9  and  C_15
                            x       y       z     vdW  Elec       q    Type
                         _______ _______ _______ _____ _____    ______ ____

>  <TORSDO>
F 1

$$$$
