=
 OpenBabel10262420553D

 28 32  0  0  1  0  0  0  0  0999 V2000
  188.7110  177.3050  141.2470 C   0  0  1  0  0  3  0  0  0  0  0  0
  183.7110  178.8230  141.7840 C   0  0  0  0  0  3  0  0  0  0  0  0
  188.0250  177.7990  146.1070 O   0  0  0  0  0  1  0  0  0  0  0  0
  183.4050  178.6820  144.1880 C   0  0  0  0  0  0  0  0  0  0  0  0
  185.7600  178.7270  143.2750 C   0  0  2  0  0  3  0  0  0  0  0  0
  181.4790  178.7820  142.7230 C   0  0  0  0  0  0  0  0  0  0  0  0
  184.2630  178.7100  143.0690 C   0  0  0  0  0  0  0  0  0  0  0  0
  185.3270  178.8070  145.7320 C   0  0  0  0  0  2  0  0  0  0  0  0
  182.0190  178.7020  144.0090 C   0  0  0  0  0  3  0  0  0  0  0  0
  188.4830  177.7020  143.7470 C   0  0  1  0  0  3  0  0  0  0  0  0
  186.5020  177.9700  142.1800 C   0  0  0  0  0  2  0  0  0  0  0  0
  183.9340  178.6180  145.4820 O   0  0  0  0  0  0  0  0  0  0  0  0
  189.6050  175.7030  143.0110 C   0  0  0  0  0  2  0  0  0  0  0  0
  187.6450  178.3300  144.8710 C   0  0  1  0  0  3  0  0  0  0  0  0
  188.5060  176.2420  143.8300 N   0  0  0  0  0  2  0  0  0  0  0  0
  180.1360  178.8050  142.5540 F   0  0  0  0  0  0  0  0  0  0  0  0
  182.3240  178.8520  141.6120 C   0  0  0  0  0  3  0  0  0  0  0  0
  186.1470  178.1320  144.6360 C   0  0  2  0  0  3  0  0  0  0  0  0
  189.9360  176.5470  141.7650 C   0  0  0  0  0  2  0  0  0  0  0  0
  188.0140  178.1340  142.3420 C   0  0  2  0  0  3  0  0  0  0  0  0
  189.0530  178.1160  139.9890 C   0  0  1  0  0  3  0  0  0  0  0  0
  190.3780  177.7720  139.4790 N   0  0  0  0  0  2  0  0  0  0  0  0
  189.3970  176.4940  137.5980 N   0  0  0  0  0  0  0  0  0  0  0  0
  187.9860  178.0520  138.8840 C   0  0  0  0  0  2  0  0  0  0  0  0
  191.7060  176.5930  137.9770 O   0  0  0  0  0  0  0  0  0  0  0  0
  190.5460  176.9250  138.3400 C   0  0  0  0  0  0  0  0  0  0  0  0
  189.5450  175.7000  136.3900 C   0  0  0  0  0  1  0  0  0  0  0  0
  188.0540  176.7300  138.1170 C   0  0  0  0  0  2  0  0  0  0  0  0
  1 19  1  1  0  0  0
  1 20  1  0  0  0  0
  2  7  1  0  0  0  0
  4 12  1  0  0  0  0
  5 11  1  6  0  0  0
  5 18  1  0  0  0  0
  6  9  2  0  0  0  0
  7  5  1  0  0  0  0
  7  4  2  0  0  0  0
  9  4  1  0  0  0  0
 10 15  1  6  0  0  0
 10 14  1  0  0  0  0
 12  8  1  0  0  0  0
 13 15  1  0  0  0  0
 14  3  1  1  0  0  0
 16  6  1  0  0  0  0
 17  2  2  0  0  0  0
 17  6  1  0  0  0  0
 18 14  1  0  0  0  0
 18  8  1  1  0  0  0
 19 13  1  0  0  0  0
 20 11  1  1  0  0  0
 20 10  1  0  0  0  0
 21 24  1  6  0  0  0
 21  1  1  0  0  0  0
 22 21  1  0  0  0  0
 23 28  1  0  0  0  0
 23 26  1  0  0  0  0
 25 26  2  0  0  0  0
 26 22  1  0  0  0  0
 27 23  1  0  0  0  0
 28 24  1  0  0  0  0
M  END
>  <MODEL>
1

>  <REMARK>
 VINA RESULT:      -9.1      0.000      0.000
  Name = 
  1 active torsions:
  status: ('A' for Active; 'I' for Inactive)
    1  A    between atoms: C_1  and  C_2
                            x       y       z     vdW  Elec       q    Type
                         _______ _______ _______ _____ _____    ______ ____

>  <TORSDO>
F 1

$$$$
=
 OpenBabel10262420553D

 28 32  0  0  1  0  0  0  0  0999 V2000
  190.7400  176.7740  145.1200 C   0  0  1  0  0  3  0  0  0  0  0  0
  185.9880  178.3240  143.5040 C   0  0  0  0  0  3  0  0  0  0  0  0
  188.3680  178.1550  149.2190 O   0  0  0  0  0  1  0  0  0  0  0  0
  184.8230  178.6280  145.6110 C   0  0  0  0  0  0  0  0  0  0  0  0
  187.3460  178.5230  145.6370 C   0  0  2  0  0  3  0  0  0  0  0  0
  183.5700  178.4390  143.5480 C   0  0  0  0  0  0  0  0  0  0  0  0
  186.0280  178.4550  144.9000 C   0  0  0  0  0  0  0  0  0  0  0  0
  186.0560  179.0530  147.7060 C   0  0  0  0  0  2  0  0  0  0  0  0
  183.6000  178.6030  144.9350 C   0  0  0  0  0  3  0  0  0  0  0  0
  189.6450  177.6250  147.2490 C   0  0  1  0  0  3  0  0  0  0  0  0
  188.3880  177.5820  145.0420 C   0  0  0  0  0  2  0  0  0  0  0  0
  184.8410  178.8090  146.9990 O   0  0  0  0  0  0  0  0  0  0  0  0
  190.8340  175.5340  147.3400 C   0  0  0  0  0  2  0  0  0  0  0  0
  188.4960  178.4450  147.8570 C   0  0  1  0  0  3  0  0  0  0  0  0
  189.5480  176.2070  147.5890 N   0  0  0  0  0  2  0  0  0  0  0  0
  182.3830  178.4190  142.8950 F   0  0  0  0  0  0  0  0  0  0  0  0
  184.7620  178.3090  142.8320 C   0  0  0  0  0  3  0  0  0  0  0  0
  187.1760  178.1930  147.1270 C   0  0  2  0  0  3  0  0  0  0  0  0
  191.6450  176.1360  146.1760 C   0  0  0  0  0  2  0  0  0  0  0  0
  189.7440  177.7860  145.7180 C   0  0  2  0  0  3  0  0  0  0  0  0
  191.5640  177.3410  143.9550 C   0  0  1  0  0  3  0  0  0  0  0  0
  191.4830  176.4790  142.7780 N   0  0  0  0  0  2  0  0  0  0  0  0
  189.9720  178.0710  141.6310 N   0  0  0  0  0  0  0  0  0  0  0  0
  191.2470  178.8050  143.6070 C   0  0  0  0  0  2  0  0  0  0  0  0
  190.5560  176.0030  140.6990 O   0  0  0  0  0  0  0  0  0  0  0  0
  190.6540  176.8090  141.6620 C   0  0  0  0  0  0  0  0  0  0  0  0
  189.1880  178.4660  140.4720 C   0  0  0  0  0  1  0  0  0  0  0  0
  189.9440  178.9230  142.8150 C   0  0  0  0  0  2  0  0  0  0  0  0
  1 20  1  0  0  0  0
  1 19  1  1  0  0  0
  2  7  1  0  0  0  0
  4 12  1  0  0  0  0
  5 11  1  6  0  0  0
  5 18  1  0  0  0  0
  6  9  2  0  0  0  0
  7  4  2  0  0  0  0
  7  5  1  0  0  0  0
  9  4  1  0  0  0  0
 10 15  1  6  0  0  0
 10 14  1  0  0  0  0
 12  8  1  0  0  0  0
 13 15  1  0  0  0  0
 14  3  1  1  0  0  0
 16  6  1  0  0  0  0
 17  2  2  0  0  0  0
 17  6  1  0  0  0  0
 18  8  1  1  0  0  0
 18 14  1  0  0  0  0
 19 13  1  0  0  0  0
 20 11  1  6  0  0  0
 20 10  1  0  0  0  0
 21 24  1  6  0  0  0
 21  1  1  0  0  0  0
 22 21  1  0  0  0  0
 23 26  1  0  0  0  0
 23 28  1  0  0  0  0
 25 26  2  0  0  0  0
 26 22  1  0  0  0  0
 27 23  1  0  0  0  0
 28 24  1  0  0  0  0
M  END
>  <MODEL>
2

>  <REMARK>
 VINA RESULT:      -9.1      2.391      3.609
  Name = 
  1 active torsions:
  status: ('A' for Active; 'I' for Inactive)
    1  A    between atoms: C_1  and  C_2
                            x       y       z     vdW  Elec       q    Type
                         _______ _______ _______ _____ _____    ______ ____

>  <TORSDO>
F 1

$$$$
=
 OpenBabel10262420553D

 28 32  0  0  1  0  0  0  0  0999 V2000
  184.3420  178.6750  142.2430 C   0  0  1  0  0  3  0  0  0  0  0  0
  189.2410  177.4300  140.8160 C   0  0  0  0  0  3  0  0  0  0  0  0
  186.7070  177.6990  146.4600 O   0  0  0  0  0  1  0  0  0  0  0  0
  190.3710  177.3280  142.9610 C   0  0  0  0  0  0  0  0  0  0  0  0
  187.8480  177.2320  142.9260 C   0  0  2  0  0  3  0  0  0  0  0  0
  191.6590  177.5110  140.9190 C   0  0  0  0  0  0  0  0  0  0  0  0
  189.1750  177.3670  142.2160 C   0  0  0  0  0  0  0  0  0  0  0  0
  189.1210  176.9140  145.0480 C   0  0  0  0  0  2  0  0  0  0  0  0
  191.6060  177.4160  142.3110 C   0  0  0  0  0  3  0  0  0  0  0  0
  185.4440  178.0240  144.4380 C   0  0  1  0  0  3  0  0  0  0  0  0
  186.7510  178.0550  142.2590 C   0  0  0  0  0  2  0  0  0  0  0  0
  190.3320  177.2170  144.3560 O   0  0  0  0  0  0  0  0  0  0  0  0
  184.0920  180.0150  144.3920 C   0  0  0  0  0  2  0  0  0  0  0  0
  186.6380  177.3310  145.1130 C   0  0  1  0  0  3  0  0  0  0  0  0
  185.4200  179.4610  144.7040 N   0  0  0  0  0  2  0  0  0  0  0  0
  192.8570  177.5930  140.2920 F   0  0  0  0  0  0  0  0  0  0  0  0
  190.4790  177.5090  140.1710 C   0  0  0  0  0  3  0  0  0  0  0  0
  187.9530  177.6500  144.3990 C   0  0  2  0  0  3  0  0  0  0  0  0
  183.3620  179.2920  143.2430 C   0  0  0  0  0  2  0  0  0  0  0  0
  185.3980  177.7780  142.9150 C   0  0  2  0  0  3  0  0  0  0  0  0
  183.5960  177.9850  141.0910 C   0  0  1  0  0  3  0  0  0  0  0  0
  182.1630  178.2630  141.1440 N   0  0  0  0  0  2  0  0  0  0  0  0
  182.3270  179.8320  139.2350 N   0  0  0  0  0  0  0  0  0  0  0  0
  184.1770  178.2720  139.6970 C   0  0  0  0  0  2  0  0  0  0  0  0
  180.3250  179.4810  140.4000 O   0  0  0  0  0  0  0  0  0  0  0  0
  181.5500  179.2160  140.2720 C   0  0  0  0  0  0  0  0  0  0  0  0
  181.7100  180.7420  138.2840 C   0  0  0  0  0  1  0  0  0  0  0  0
  183.7760  179.6610  139.1990 C   0  0  0  0  0  2  0  0  0  0  0  0
  1 20  1  0  0  0  0
  1 19  1  1  0  0  0
  2  7  1  0  0  0  0
  4 12  1  0  0  0  0
  5 11  1  6  0  0  0
  5 18  1  0  0  0  0
  6  9  2  0  0  0  0
  7  5  1  0  0  0  0
  7  4  2  0  0  0  0
  9  4  1  0  0  0  0
 10 15  1  6  0  0  0
 10 14  1  0  0  0  0
 12  8  1  0  0  0  0
 13 15  1  0  0  0  0
 14  3  1  1  0  0  0
 16  6  1  0  0  0  0
 17  2  2  0  0  0  0
 17  6  1  0  0  0  0
 18  8  1  1  0  0  0
 18 14  1  0  0  0  0
 19 13  1  0  0  0  0
 20 11  1  6  0  0  0
 20 10  1  0  0  0  0
 21 24  1  6  0  0  0
 21 22  1  0  0  0  0
 21  1  1  0  0  0  0
 23 26  1  0  0  0  0
 26 25  2  0  0  0  0
 26 22  1  0  0  0  0
 27 23  1  0  0  0  0
 28 23  1  0  0  0  0
 28 24  1  0  0  0  0
M  END
>  <MODEL>
3

>  <REMARK>
 VINA RESULT:      -9.1      3.891      6.889
  Name = 
  1 active torsions:
  status: ('A' for Active; 'I' for Inactive)
    1  A    between atoms: C_1  and  C_2
                            x       y       z     vdW  Elec       q    Type
                         _______ _______ _______ _____ _____    ______ ____

>  <TORSDO>
F 1

$$$$
=
 OpenBabel10262420553D

 28 32  0  0  1  0  0  0  0  0999 V2000
  188.3400  177.3470  138.7120 C   0  0  1  0  0  3  0  0  0  0  0  0
  187.5990  177.8650  143.8860 C   0  0  0  0  0  3  0  0  0  0  0  0
  192.8520  177.1160  140.6930 O   0  0  0  0  0  1  0  0  0  0  0  0
  189.8130  177.3800  144.7550 C   0  0  0  0  0  0  0  0  0  0  0  0
  189.5820  177.9590  142.3080 C   0  0  2  0  0  3  0  0  0  0  0  0
  187.8900  177.3110  146.2250 C   0  0  0  0  0  0  0  0  0  0  0  0
  188.9750  177.6980  143.6670 C   0  0  0  0  0  0  0  0  0  0  0  0
  191.8270  177.6600  143.3560 C   0  0  0  0  0  2  0  0  0  0  0  0
  189.2650  177.1730  146.0240 C   0  0  0  0  0  3  0  0  0  0  0  0
  190.7050  177.3890  139.6420 C   0  0  1  0  0  3  0  0  0  0  0  0
  188.6800  177.4860  141.1730 C   0  0  0  0  0  2  0  0  0  0  0  0
  191.1950  177.2560  144.5700 O   0  0  0  0  0  0  0  0  0  0  0  0
  190.1650  175.7300  137.9840 C   0  0  0  0  0  2  0  0  0  0  0  0
  191.5990  177.7160  140.8480 C   0  0  1  0  0  3  0  0  0  0  0  0
  190.6890  175.9590  139.3410 N   0  0  0  0  0  2  0  0  0  0  0  0
  187.3630  177.1120  147.4570 F   0  0  0  0  0  0  0  0  0  0  0  0
  187.0580  177.6650  145.1600 C   0  0  0  0  0  3  0  0  0  0  0  0
  190.9520  177.2810  142.1640 C   0  0  2  0  0  3  0  0  0  0  0  0
  189.1180  176.7640  137.5290 C   0  0  0  0  0  2  0  0  0  0  0  0
  189.2580  177.8980  139.8190 C   0  0  2  0  0  3  0  0  0  0  0  0
  187.2820  178.3530  138.2370 C   0  0  1  0  0  3  0  0  0  0  0  0
  187.4770  178.7060  136.8320 N   0  0  0  0  0  2  0  0  0  0  0  0
  185.5360  177.3290  136.1460 N   0  0  0  0  0  0  0  0  0  0  0  0
  185.8320  177.9280  138.5180 C   0  0  0  0  0  2  0  0  0  0  0  0
  186.9060  178.4270  134.5950 O   0  0  0  0  0  0  0  0  0  0  0  0
  186.6570  178.1550  135.8000 C   0  0  0  0  0  0  0  0  0  0  0  0
  184.6390  176.8230  135.1210 C   0  0  0  0  0  1  0  0  0  0  0  0
  185.3550  176.8720  137.5200 C   0  0  0  0  0  2  0  0  0  0  0  0
  1 19  1  6  0  0  0
  1 20  1  0  0  0  0
  2 17  1  0  0  0  0
  4  9  2  0  0  0  0
  5 11  1  6  0  0  0
  5  7  1  0  0  0  0
  6 16  1  0  0  0  0
  7  2  2  0  0  0  0
  7  4  1  0  0  0  0
  8 12  1  0  0  0  0
  9  6  1  0  0  0  0
 10 15  1  1  0  0  0
 10 20  1  0  0  0  0
 10 14  1  0  0  0  0
 12  4  1  0  0  0  0
 13 15  1  0  0  0  0
 14  3  1  6  0  0  0
 14 18  1  0  0  0  0
 17  6  2  0  0  0  0
 18  5  1  0  0  0  0
 18  8  1  1  0  0  0
 19 13  1  0  0  0  0
 20 11  1  1  0  0  0
 21 24  1  6  0  0  0
 21  1  1  0  0  0  0
 22 21  1  0  0  0  0
 23 28  1  0  0  0  0
 25 26  2  0  0  0  0
 26 23  1  0  0  0  0
 26 22  1  0  0  0  0
 27 23  1  0  0  0  0
 28 24  1  0  0  0  0
M  END
>  <MODEL>
4

>  <REMARK>
 VINA RESULT:      -8.8      3.544      5.363
  Name = 
  1 active torsions:
  status: ('A' for Active; 'I' for Inactive)
    1  A    between atoms: C_1  and  C_2
                            x       y       z     vdW  Elec       q    Type
                         _______ _______ _______ _____ _____    ______ ____

>  <TORSDO>
F 1

$$$$
=
 OpenBabel10262420553D

 28 32  0  0  1  0  0  0  0  0999 V2000
  187.4130  177.8860  140.1350 C   0  0  1  0  0  3  0  0  0  0  0  0
  187.6180  177.8720  145.3840 C   0  0  0  0  0  3  0  0  0  0  0  0
  192.1950  177.3900  141.2390 O   0  0  0  0  0  1  0  0  0  0  0  0
  189.9350  177.2700  145.7870 C   0  0  0  0  0  0  0  0  0  0  0  0
  189.2920  178.1030  143.4920 C   0  0  2  0  0  3  0  0  0  0  0  0
  188.3020  177.0730  147.5650 C   0  0  0  0  0  0  0  0  0  0  0  0
  188.9270  177.7110  144.9050 C   0  0  0  0  0  0  0  0  0  0  0  0
  191.6760  177.6670  144.0840 C   0  0  0  0  0  2  0  0  0  0  0  0
  189.6150  176.9390  147.1070 C   0  0  0  0  0  3  0  0  0  0  0  0
  189.9050  177.8000  140.6240 C   0  0  1  0  0  3  0  0  0  0  0  0
  188.1880  177.7630  142.4960 C   0  0  0  0  0  2  0  0  0  0  0  0
  191.2570  177.1470  145.3450 O   0  0  0  0  0  0  0  0  0  0  0  0
  189.0270  176.3290  138.9330 C   0  0  0  0  0  2  0  0  0  0  0  0
  191.0090  177.9870  141.6760 C   0  0  1  0  0  3  0  0  0  0  0  0
  189.7910  176.4090  140.1890 N   0  0  0  0  0  2  0  0  0  0  0  0
  187.9960  176.7550  148.8450 F   0  0  0  0  0  0  0  0  0  0  0  0
  187.3060  177.5480  146.7070 C   0  0  0  0  0  3  0  0  0  0  0  0
  190.5930  177.4270  143.0370 C   0  0  2  0  0  3  0  0  0  0  0  0
  187.9490  177.4190  138.7790 C   0  0  0  0  0  2  0  0  0  0  0  0
  188.5300  178.3060  141.1080 C   0  0  2  0  0  3  0  0  0  0  0  0
  186.3200  178.9500  139.9600 C   0  0  1  0  0  3  0  0  0  0  0  0
  185.5650  178.7400  138.7270 N   0  0  0  0  0  2  0  0  0  0  0  0
  183.6150  177.8770  139.9860 N   0  0  0  0  0  0  0  0  0  0  0  0
  185.3890  179.1070  141.1740 C   0  0  0  0  0  2  0  0  0  0  0  0
  183.6750  177.9250  137.6450 O   0  0  0  0  0  0  0  0  0  0  0  0
  184.2600  178.1570  138.7360 C   0  0  0  0  0  0  0  0  0  0  0  0
  182.2580  177.3600  140.0240 C   0  0  0  0  0  1  0  0  0  0  0  0
  184.3580  177.9800  141.2380 C   0  0  0  0  0  2  0  0  0  0  0  0
  1 19  1  6  0  0  0
  1 20  1  0  0  0  0
  2 17  1  0  0  0  0
  4  9  2  0  0  0  0
  5 11  1  6  0  0  0
  5  7  1  0  0  0  0
  6 16  1  0  0  0  0
  7  2  2  0  0  0  0
  7  4  1  0  0  0  0
  8 12  1  0  0  0  0
  9  6  1  0  0  0  0
 10 15  1  1  0  0  0
 10 20  1  0  0  0  0
 10 14  1  0  0  0  0
 12  4  1  0  0  0  0
 13 15  1  0  0  0  0
 14  3  1  6  0  0  0
 14 18  1  0  0  0  0
 17  6  2  0  0  0  0
 18  5  1  0  0  0  0
 18  8  1  1  0  0  0
 19 13  1  0  0  0  0
 20 11  1  1  0  0  0
 21  1  1  0  0  0  0
 21 24  1  1  0  0  0
 22 26  1  0  0  0  0
 22 21  1  0  0  0  0
 23 27  1  0  0  0  0
 23 28  1  0  0  0  0
 24 28  1  0  0  0  0
 25 26  2  0  0  0  0
 26 23  1  0  0  0  0
M  END
>  <MODEL>
5

>  <REMARK>
 VINA RESULT:      -8.4      3.459      5.846
  Name = 
  1 active torsions:
  status: ('A' for Active; 'I' for Inactive)
    1  A    between atoms: C_1  and  C_2
                            x       y       z     vdW  Elec       q    Type
                         _______ _______ _______ _____ _____    ______ ____

>  <TORSDO>
F 1

$$$$
=
 OpenBabel10262420553D

 28 32  0  0  1  0  0  0  0  0999 V2000
  188.7640  177.9170  144.0180 C   0  0  1  0  0  3  0  0  0  0  0  0
  187.2690  177.8560  138.9830 C   0  0  0  0  0  3  0  0  0  0  0  0
  192.8820  177.0120  141.4590 O   0  0  0  0  0  1  0  0  0  0  0  0
  189.4050  177.7650  137.8330 C   0  0  0  0  0  0  0  0  0  0  0  0
  189.3320  177.1590  140.2840 C   0  0  2  0  0  3  0  0  0  0  0  0
  187.4070  178.4180  136.6320 C   0  0  0  0  0  0  0  0  0  0  0  0
  188.6550  177.6360  139.0200 C   0  0  0  0  0  0  0  0  0  0  0  0
  191.4240  176.8880  138.9510 C   0  0  0  0  0  2  0  0  0  0  0  0
  188.7820  178.1700  136.6500 C   0  0  0  0  0  3  0  0  0  0  0  0
  190.8910  177.2810  142.7830 C   0  0  1  0  0  3  0  0  0  0  0  0
  188.7430  177.8050  141.5330 C   0  0  0  0  0  2  0  0  0  0  0  0
  190.7800  177.5030  137.8350 O   0  0  0  0  0  0  0  0  0  0  0  0
  191.0380  178.9470  144.5140 C   0  0  0  0  0  2  0  0  0  0  0  0
  191.5040  176.7800  141.4660 C   0  0  1  0  0  3  0  0  0  0  0  0
  191.3060  178.6470  143.0980 N   0  0  0  0  0  2  0  0  0  0  0  0
  186.8050  178.8080  135.4830 F   0  0  0  0  0  0  0  0  0  0  0  0
  186.6500  178.2530  137.7950 C   0  0  0  0  0  3  0  0  0  0  0  0
  190.8420  177.4330  140.2520 C   0  0  2  0  0  3  0  0  0  0  0  0
  189.8120  178.2140  145.0930 C   0  0  0  0  0  2  0  0  0  0  0  0
  189.3510  177.1900  142.7940 C   0  0  2  0  0  3  0  0  0  0  0  0
  187.5390  177.2140  144.6200 C   0  0  1  0  0  3  0  0  0  0  0  0
  187.0700  177.8980  145.8220 N   0  0  0  0  0  2  0  0  0  0  0  0
  185.1240  178.8380  144.6110 N   0  0  0  0  0  0  0  0  0  0  0  0
  186.3940  176.9720  143.6230 C   0  0  0  0  0  2  0  0  0  0  0  0
  185.5900  179.3740  146.8440 O   0  0  0  0  0  0  0  0  0  0  0  0
  185.9180  178.7440  145.8030 C   0  0  0  0  0  0  0  0  0  0  0  0
  183.9040  179.6260  144.5900 C   0  0  0  0  0  1  0  0  0  0  0  0
  185.5990  178.2520  143.3620 C   0  0  0  0  0  2  0  0  0  0  0  0
  1 21  1  0  0  0  0
  1 19  1  1  0  0  0
  2  7  1  0  0  0  0
  4 12  1  0  0  0  0
  4  7  2  0  0  0  0
  5 11  1  1  0  0  0
  6  9  2  0  0  0  0
  6 17  1  0  0  0  0
  7  5  1  0  0  0  0
  9  4  1  0  0  0  0
 10 20  1  0  0  0  0
 10 15  1  6  0  0  0
 12  8  1  0  0  0  0
 13 19  1  0  0  0  0
 14  3  1  1  0  0  0
 14 10  1  0  0  0  0
 15 13  1  0  0  0  0
 16  6  1  0  0  0  0
 17  2  2  0  0  0  0
 18  8  1  6  0  0  0
 18  5  1  0  0  0  0
 18 14  1  0  0  0  0
 20 11  1  6  0  0  0
 20  1  1  0  0  0  0
 21 24  1  6  0  0  0
 21 22  1  0  0  0  0
 23 26  1  0  0  0  0
 26 22  1  0  0  0  0
 26 25  2  0  0  0  0
 27 23  1  0  0  0  0
 28 24  1  0  0  0  0
 28 23  1  0  0  0  0
M  END
>  <MODEL>
6

>  <REMARK>
 VINA RESULT:      -8.3      2.879      6.984
  Name = 
  1 active torsions:
  status: ('A' for Active; 'I' for Inactive)
    1  A    between atoms: C_1  and  C_2
                            x       y       z     vdW  Elec       q    Type
                         _______ _______ _______ _____ _____    ______ ____

>  <TORSDO>
F 1

$$$$
=
 OpenBabel10262420553D

 28 32  0  0  1  0  0  0  0  0999 V2000
  190.5090  177.0050  142.4430 C   0  0  1  0  0  3  0  0  0  0  0  0
  185.6370  178.6110  143.5740 C   0  0  0  0  0  3  0  0  0  0  0  0
  190.3010  177.1310  147.3700 O   0  0  0  0  0  1  0  0  0  0  0  0
  185.5540  178.2880  145.9790 C   0  0  0  0  0  0  0  0  0  0  0  0
  187.8130  178.3420  144.8500 C   0  0  2  0  0  3  0  0  0  0  0  0
  183.5040  178.5570  144.7190 C   0  0  0  0  0  0  0  0  0  0  0  0
  186.3030  178.3820  144.7880 C   0  0  0  0  0  0  0  0  0  0  0  0
  187.6160  178.2380  147.3350 C   0  0  0  0  0  2  0  0  0  0  0  0
  184.1590  178.3600  145.9370 C   0  0  0  0  0  3  0  0  0  0  0  0
  190.5310  177.2080  144.9770 C   0  0  1  0  0  3  0  0  0  0  0  0
  188.4220  177.6540  143.6330 C   0  0  0  0  0  2  0  0  0  0  0  0
  186.2000  178.1080  147.2070 O   0  0  0  0  0  0  0  0  0  0  0  0
  191.5090  175.2450  143.9850 C   0  0  0  0  0  2  0  0  0  0  0  0
  189.8250  177.7690  146.2210 C   0  0  1  0  0  3  0  0  0  0  0  0
  190.5120  175.7470  144.9450 N   0  0  0  0  0  2  0  0  0  0  0  0
  182.1520  178.6290  144.6830 F   0  0  0  0  0  0  0  0  0  0  0  0
  184.2420  178.6910  143.5400 C   0  0  0  0  0  3  0  0  0  0  0  0
  188.3060  177.6300  146.1170 C   0  0  2  0  0  3  0  0  0  0  0  0
  191.7500  176.1760  142.7810 C   0  0  0  0  0  2  0  0  0  0  0  0
  189.9470  177.7640  143.6600 C   0  0  2  0  0  3  0  0  0  0  0  0
  190.7590  177.9040  141.2240 C   0  0  1  0  0  3  0  0  0  0  0  0
  192.1630  177.8780  140.8230 N   0  0  0  0  0  2  0  0  0  0  0  0
  191.6480  176.4610  138.8590 N   0  0  0  0  0  0  0  0  0  0  0  0
  189.8260  177.6310  140.0330 C   0  0  0  0  0  2  0  0  0  0  0  0
  193.8390  177.0650  139.4300 O   0  0  0  0  0  0  0  0  0  0  0  0
  192.6090  177.1200  139.6960 C   0  0  0  0  0  0  0  0  0  0  0  0
  192.0680  175.7520  137.6620 C   0  0  0  0  0  1  0  0  0  0  0  0
  190.2500  176.3780  139.2660 C   0  0  0  0  0  2  0  0  0  0  0  0
  1 19  1  1  0  0  0
  1 20  1  0  0  0  0
  2  7  1  0  0  0  0
  4 12  1  0  0  0  0
  5 11  1  6  0  0  0
  5 18  1  0  0  0  0
  6  9  2  0  0  0  0
  7  5  1  0  0  0  0
  7  4  2  0  0  0  0
  9  4  1  0  0  0  0
 10 15  1  6  0  0  0
 10 14  1  0  0  0  0
 12  8  1  0  0  0  0
 13 15  1  0  0  0  0
 14  3  1  1  0  0  0
 16  6  1  0  0  0  0
 17  2  2  0  0  0  0
 17  6  1  0  0  0  0
 18 14  1  0  0  0  0
 18  8  1  1  0  0  0
 19 13  1  0  0  0  0
 20 11  1  1  0  0  0
 20 10  1  0  0  0  0
 21 24  1  6  0  0  0
 21  1  1  0  0  0  0
 22 21  1  0  0  0  0
 23 28  1  0  0  0  0
 23 26  1  0  0  0  0
 25 26  2  0  0  0  0
 26 22  1  0  0  0  0
 27 23  1  0  0  0  0
 28 24  1  0  0  0  0
M  END
>  <MODEL>
7

>  <REMARK>
 VINA RESULT:      -8.2      1.893      2.568
  Name = 
  1 active torsions:
  status: ('A' for Active; 'I' for Inactive)
    1  A    between atoms: C_1  and  C_2
                            x       y       z     vdW  Elec       q    Type
                         _______ _______ _______ _____ _____    ______ ____

>  <TORSDO>
F 1

$$$$
=
 OpenBabel10262420553D

 28 32  0  0  1  0  0  0  0  0999 V2000
  188.5970  177.5170  139.0140 C   0  0  1  0  0  3  0  0  0  0  0  0
  186.2210  178.2800  143.6360 C   0  0  0  0  0  3  0  0  0  0  0  0
  192.1890  177.2040  142.3810 O   0  0  0  0  0  1  0  0  0  0  0  0
  187.9990  177.7510  145.2010 C   0  0  0  0  0  0  0  0  0  0  0  0
  188.6150  178.2340  142.7990 C   0  0  2  0  0  3  0  0  0  0  0  0
  185.6990  177.8140  145.9540 C   0  0  0  0  0  0  0  0  0  0  0  0
  187.5820  178.0530  143.8880 C   0  0  0  0  0  0  0  0  0  0  0  0
  190.3720  177.8970  144.5390 C   0  0  0  0  0  2  0  0  0  0  0  0
  187.0550  177.6180  146.2230 C   0  0  0  0  0  3  0  0  0  0  0  0
  190.5230  177.5110  140.6720 C   0  0  1  0  0  3  0  0  0  0  0  0
  188.1140  177.7460  141.4440 C   0  0  0  0  0  2  0  0  0  0  0  0
  189.3570  177.5680  145.4860 O   0  0  0  0  0  0  0  0  0  0  0  0
  190.4790  175.8040  138.9750 C   0  0  0  0  0  2  0  0  0  0  0  0
  190.9860  177.8560  142.0960 C   0  0  1  0  0  3  0  0  0  0  0  0
  190.5380  176.0710  140.4220 N   0  0  0  0  0  2  0  0  0  0  0  0
  184.7870  177.6870  146.9470 F   0  0  0  0  0  0  0  0  0  0  0  0
  185.2820  178.1540  144.6640 C   0  0  0  0  0  3  0  0  0  0  0  0
  189.9210  177.5010  143.1360 C   0  0  2  0  0  3  0  0  0  0  0  0
  189.6910  176.8560  138.1710 C   0  0  0  0  0  2  0  0  0  0  0  0
  189.1260  178.0800  140.3460 C   0  0  2  0  0  3  0  0  0  0  0  0
  187.8050  178.5400  138.1880 C   0  0  1  0  0  3  0  0  0  0  0  0
  188.2220  178.5300  136.7880 N   0  0  0  0  0  2  0  0  0  0  0  0
  186.1530  177.3500  136.1080 N   0  0  0  0  0  0  0  0  0  0  0  0
  186.2780  178.4190  138.3240 C   0  0  0  0  0  2  0  0  0  0  0  0
  187.8710  177.8430  134.5940 O   0  0  0  0  0  0  0  0  0  0  0  0
  187.4390  177.8930  135.7760 C   0  0  0  0  0  0  0  0  0  0  0  0
  185.3030  176.7700  135.0830 C   0  0  0  0  0  1  0  0  0  0  0  0
  185.7340  177.2510  137.5020 C   0  0  0  0  0  2  0  0  0  0  0  0
  1 19  1  6  0  0  0
  1 20  1  0  0  0  0
  2  7  2  0  0  0  0
  2 17  1  0  0  0  0
  4 12  1  0  0  0  0
  4  9  2  0  0  0  0
  5 11  1  6  0  0  0
  5 18  1  0  0  0  0
  5  7  1  0  0  0  0
  6  9  1  0  0  0  0
  6 16  1  0  0  0  0
  7  4  1  0  0  0  0
  8 12  1  0  0  0  0
 10 15  1  1  0  0  0
 10 14  1  0  0  0  0
 13 15  1  0  0  0  0
 14  3  1  1  0  0  0
 14 18  1  0  0  0  0
 17  6  2  0  0  0  0
 18  8  1  1  0  0  0
 19 13  1  0  0  0  0
 20 10  1  0  0  0  0
 20 11  1  1  0  0  0
 21 24  1  6  0  0  0
 21  1  1  0  0  0  0
 22 21  1  0  0  0  0
 23 28  1  0  0  0  0
 25 26  2  0  0  0  0
 26 23  1  0  0  0  0
 26 22  1  0  0  0  0
 27 23  1  0  0  0  0
 28 24  1  0  0  0  0
M  END
>  <MODEL>
8

>  <REMARK>
 VINA RESULT:      -8.0      2.727      4.140
  Name = 
  1 active torsions:
  status: ('A' for Active; 'I' for Inactive)
    1  A    between atoms: C_1  and  C_2
                            x       y       z     vdW  Elec       q    Type
                         _______ _______ _______ _____ _____    ______ ____

>  <TORSDO>
F 1

$$$$
=
 OpenBabel10262420553D

 28 32  0  0  1  0  0  0  0  0999 V2000
  190.4180  176.9160  138.6880 C   0  0  1  0  0  3  0  0  0  0  0  0
  191.0470  176.2850  143.8640 C   0  0  0  0  0  3  0  0  0  0  0  0
  186.3260  178.7720  140.7220 O   0  0  0  0  0  1  0  0  0  0  0  0
  189.1680  177.5410  144.7490 C   0  0  0  0  0  0  0  0  0  0  0  0
  189.1240  176.8640  142.3160 C   0  0  2  0  0  3  0  0  0  0  0  0
  191.0250  176.9590  146.1900 C   0  0  0  0  0  0  0  0  0  0  0  0
  189.8150  176.9230  143.6590 C   0  0  0  0  0  0  0  0  0  0  0  0
  187.1540  177.9610  143.3850 C   0  0  0  0  0  2  0  0  0  0  0  0
  189.7820  177.5700  146.0040 C   0  0  0  0  0  3  0  0  0  0  0  0
  188.2130  177.7340  139.6510 C   0  0  1  0  0  3  0  0  0  0  0  0
  190.1080  176.9620  141.1560 C   0  0  0  0  0  2  0  0  0  0  0  0
  187.9150  178.1420  144.5790 O   0  0  0  0  0  0  0  0  0  0  0  0
  189.2660  179.0580  137.9380 C   0  0  0  0  0  2  0  0  0  0  0  0
  187.2890  177.7710  140.8780 C   0  0  1  0  0  3  0  0  0  0  0  0
  188.7260  179.0590  139.3080 N   0  0  0  0  0  2  0  0  0  0  0  0
  191.6160  176.9860  147.4080 F   0  0  0  0  0  0  0  0  0  0  0  0
  191.6530  176.3090  145.1240 C   0  0  0  0  0  3  0  0  0  0  0  0
  188.0780  177.9780  142.1720 C   0  0  2  0  0  3  0  0  0  0  0  0
  189.8700  177.7100  137.4990 C   0  0  0  0  0  2  0  0  0  0  0  0
  189.3900  176.7500  139.8220 C   0  0  2  0  0  3  0  0  0  0  0  0
  191.0410  175.5910  138.2280 C   0  0  1  0  0  3  0  0  0  0  0  0
  190.5570  175.2070  136.9040 N   0  0  0  0  0  2  0  0  0  0  0  0
  192.7120  175.8340  135.8570 N   0  0  0  0  0  0  0  0  0  0  0  0
  192.5770  175.5520  138.3010 C   0  0  0  0  0  2  0  0  0  0  0  0
  190.8720  175.1080  134.6020 O   0  0  0  0  0  0  0  0  0  0  0  0
  191.3560  175.3830  135.7320 C   0  0  0  0  0  0  0  0  0  0  0  0
  193.5710  175.9430  134.6900 C   0  0  0  0  0  1  0  0  0  0  0  0
  193.2120  176.3180  137.1400 C   0  0  0  0  0  2  0  0  0  0  0  0
  1 19  1  6  0  0  0
  1 20  1  0  0  0  0
  2 17  1  0  0  0  0
  4  9  2  0  0  0  0
  5 11  1  6  0  0  0
  5  7  1  0  0  0  0
  6 16  1  0  0  0  0
  7  2  2  0  0  0  0
  7  4  1  0  0  0  0
  8 12  1  0  0  0  0
  9  6  1  0  0  0  0
 10 15  1  1  0  0  0
 10 20  1  0  0  0  0
 10 14  1  0  0  0  0
 12  4  1  0  0  0  0
 13 15  1  0  0  0  0
 14  3  1  6  0  0  0
 14 18  1  0  0  0  0
 17  6  2  0  0  0  0
 18  5  1  0  0  0  0
 18  8  1  1  0  0  0
 19 13  1  0  0  0  0
 20 11  1  1  0  0  0
 21 24  1  6  0  0  0
 21  1  1  0  0  0  0
 22 21  1  0  0  0  0
 23 28  1  0  0  0  0
 25 26  2  0  0  0  0
 26 23  1  0  0  0  0
 26 22  1  0  0  0  0
 27 23  1  0  0  0  0
 28 24  1  0  0  0  0
M  END
>  <MODEL>
9

>  <REMARK>
 VINA RESULT:      -8.0      3.724      5.819
  Name = 
  1 active torsions:
  status: ('A' for Active; 'I' for Inactive)
    1  A    between atoms: C_1  and  C_2
                            x       y       z     vdW  Elec       q    Type
                         _______ _______ _______ _____ _____    ______ ____

>  <TORSDO>
F 1

$$$$
