=
 OpenBabel10262421113D

 32 37  0  0  1  0  0  0  0  0999 V2000
  185.8950  178.1580  139.5320 C   0  0  1  0  0  3  0  0  0  0  0  0
  187.1350  178.4310  141.7850 C   0  0  2  0  0  3  0  0  0  0  0  0
  186.0540  178.2280  138.0150 C   0  0  0  0  0  2  0  0  0  0  0  0
  187.2370  178.4440  140.2320 C   0  0  1  0  0  3  0  0  0  0  0  0
  187.9490  177.4050  142.4670 N   0  0  2  0  0  0  0  0  0  0  0  0
  184.2630  178.4890  145.7880 C   0  0  0  0  0  3  0  0  0  0  0  0
  185.6780  178.3110  142.2570 C   0  0  2  0  0  3  0  0  0  0  0  0
  186.6250  177.9710  145.9210 C   0  0  0  0  0  3  0  0  0  0  0  0
  186.7210  178.0220  144.5280 C   0  0  0  0  0  0  0  0  0  0  0  0
  188.3350  177.5840  139.6610 C   0  0  0  0  0  0  0  0  0  0  0  0
  188.0620  177.8300  143.8730 C   0  0  0  0  0  2  0  0  0  0  0  0
  189.3040  177.1040  140.4380 C   0  0  0  0  0  3  0  0  0  0  0  0
  188.4300  177.4110  138.1730 C   0  0  0  0  0  2  0  0  0  0  0  0
  184.8230  179.3610  141.5490 C   0  0  0  0  0  2  0  0  0  0  0  0
  184.7860  179.1080  140.0300 C   0  0  2  0  0  3  0  0  0  0  0  0
  185.5880  178.3530  143.7570 C   0  0  0  0  0  0  0  0  0  0  0  0
  189.3150  177.3780  141.9140 C   0  0  2  0  0  3  0  0  0  0  0  0
  187.0500  177.1620  137.5640 C   0  0  0  0  0  2  0  0  0  0  0  0
  185.3980  178.2010  146.5500 C   0  0  0  0  0  3  0  0  0  0  0  0
  184.3550  178.5550  144.3940 C   0  0  0  0  0  3  0  0  0  0  0  0
  181.2370  179.0230  138.6240 C   0  0  0  0  0  0  0  0  0  0  0  0
  180.2320  179.9140  137.9800 C   0  0  0  0  0  1  0  0  0  0  0  0
  183.4240  178.6240  139.6140 C   0  0  0  0  0  0  0  0  0  0  0  0
  180.8990  177.6860  138.8460 C   0  0  0  0  0  3  0  0  0  0  0  0
  183.0670  177.2840  139.8280 C   0  0  0  0  0  3  0  0  0  0  0  0
  182.5040  179.5020  139.0080 C   0  0  0  0  0  0  0  0  0  0  0  0
  182.9390  181.1910  138.7270 Cl  0  0  0  0  0  0  0  0  0  0  0  0
  181.8100  176.8130  139.4470 C   0  0  0  0  0  0  0  0  0  0  0  0
  180.3750  175.0820  140.2170 O   0  0  0  0  0  0  0  0  0  0  0  0
  181.4710  175.4080  139.6860 C   0  0  0  0  0  3  0  0  0  0  0  0
  190.2030  176.3420  142.6150 C   0  0  0  0  0  2  0  0  0  0  0  0
  191.5690  176.9050  142.9780 C   0  0  0  0  0  1  0  0  0  0  0  0
  1  3  1  6  0  0  0
  1 15  1  0  0  0  0
  1  4  1  0  0  0  0
  2  7  1  0  0  0  0
  2  5  1  0  0  0  0
  4  2  1  0  0  0  0
  5 11  1  0  0  0  0
  6 19  1  0  0  0  0
  7 16  1  0  0  0  0
  8 19  2  0  0  0  0
  9  8  1  0  0  0  0
 10  4  1  0  0  0  0
 10 12  2  0  0  0  0
 11  9  1  0  0  0  0
 12 17  1  0  0  0  0
 13 10  1  0  0  0  0
 14  7  1  0  0  0  0
 15 14  1  0  0  0  0
 16 20  1  0  0  0  0
 16  9  2  0  0  0  0
 17  5  1  0  0  0  0
 17 31  1  0  0  0  0
 18  3  1  0  0  0  0
 18 13  1  0  0  0  0
 20  6  2  0  0  0  0
 21 24  2  0  0  0  0
 21 26  1  0  0  0  0
 22 21  1  0  0  0  0
 23 25  1  0  0  0  0
 23 15  1  0  0  0  0
 24 28  1  0  0  0  0
 26 23  2  0  0  0  0
 27 26  1  0  0  0  0
 28 30  1  0  0  0  0
 28 25  2  0  0  0  0
 30 29  2  0  0  0  0
 31 32  1  0  0  0  0
M  END
>  <MODEL>
1

>  <REMARK>
 VINA RESULT:      -8.9      0.000      0.000
  Name = 
  3 active torsions:
  status: ('A' for Active; 'I' for Inactive)
    1  A    between atoms: C_13  and  C_29
    2  A    between atoms: C_15  and  C_26
    3  A    between atoms: C_16  and  C_27
                            x       y       z     vdW  Elec       q    Type
                         _______ _______ _______ _____ _____    ______ ____

>  <TORSDO>
F 3

$$$$
=
 OpenBabel10262421113D

 32 37  0  0  1  0  0  0  0  0999 V2000
  190.0650  177.1180  141.7920 C   0  0  1  0  0  3  0  0  0  0  0  0
  187.8820  178.3800  142.3650 C   0  0  2  0  0  3  0  0  0  0  0  0
  191.4680  176.7810  142.2930 C   0  0  0  0  0  2  0  0  0  0  0  0
  189.3070  177.9630  142.8330 C   0  0  1  0  0  3  0  0  0  0  0  0
  186.7680  177.8710  143.1910 N   0  0  2  0  0  0  0  0  0  0  0  0
  184.6500  178.8020  138.6710 C   0  0  0  0  0  3  0  0  0  0  0  0
  187.6320  177.9990  140.8980 C   0  0  2  0  0  3  0  0  0  0  0  0
  183.9770  179.0330  140.9860 C   0  0  0  0  0  3  0  0  0  0  0  0
  185.2680  178.6960  141.4000 C   0  0  0  0  0  0  0  0  0  0  0  0
  189.3640  177.3180  144.1940 C   0  0  0  0  0  0  0  0  0  0  0  0
  185.5970  178.7060  142.8690 C   0  0  0  0  0  2  0  0  0  0  0  0
  188.3280  177.3810  145.0270 C   0  0  0  0  0  3  0  0  0  0  0  0
  190.6670  176.7490  144.6780 C   0  0  0  0  0  2  0  0  0  0  0  0
  188.7840  178.5090  140.0340 C   0  0  0  0  0  2  0  0  0  0  0  0
  190.1080  177.8200  140.4190 C   0  0  2  0  0  3  0  0  0  0  0  0
  186.2740  178.4530  140.4430 C   0  0  0  0  0  0  0  0  0  0  0  0
  187.0560  178.0680  144.6230 C   0  0  2  0  0  3  0  0  0  0  0  0
  191.3600  175.9550  143.5720 C   0  0  0  0  0  2  0  0  0  0  0  0
  183.6670  179.0830  139.6240 C   0  0  0  0  0  3  0  0  0  0  0  0
  185.9470  178.4780  139.0790 C   0  0  0  0  0  3  0  0  0  0  0  0
  192.2790  175.8110  138.0060 C   0  0  0  0  0  0  0  0  0  0  0  0
  193.7100  175.6020  137.6450 C   0  0  0  0  0  1  0  0  0  0  0  0
  190.5390  176.8730  139.3330 C   0  0  0  0  0  0  0  0  0  0  0  0
  191.3040  175.0940  137.3090 C   0  0  0  0  0  3  0  0  0  0  0  0
  189.5730  176.1440  138.6240 C   0  0  0  0  0  3  0  0  0  0  0  0
  191.9030  176.7070  139.0240 C   0  0  0  0  0  0  0  0  0  0  0  0
  193.1320  177.6140  139.9110 Cl  0  0  0  0  0  0  0  0  0  0  0  0
  189.9490  175.2570  137.6140 C   0  0  0  0  0  0  0  0  0  0  0  0
  187.6910  174.7100  137.1190 O   0  0  0  0  0  0  0  0  0  0  0  0
  188.9150  174.5130  136.8930 C   0  0  0  0  0  3  0  0  0  0  0  0
  185.9090  177.5780  145.5180 C   0  0  0  0  0  2  0  0  0  0  0  0
  185.5200  178.6050  146.5710 C   0  0  0  0  0  1  0  0  0  0  0  0
  1  3  1  1  0  0  0
  1  4  1  0  0  0  0
  2  4  1  0  0  0  0
  2  5  1  0  0  0  0
  3 18  1  0  0  0  0
  4 10  1  0  0  0  0
  5 17  1  0  0  0  0
  6 20  2  0  0  0  0
  6 19  1  0  0  0  0
  7  2  1  0  0  0  0
  8  9  1  0  0  0  0
  9 11  1  0  0  0  0
 10 13  1  0  0  0  0
 10 12  2  0  0  0  0
 11  5  1  0  0  0  0
 14 15  1  0  0  0  0
 14  7  1  0  0  0  0
 15  1  1  0  0  0  0
 16  7  1  0  0  0  0
 16  9  2  0  0  0  0
 17 12  1  0  0  0  0
 17 31  1  0  0  0  0
 18 13  1  0  0  0  0
 19  8  2  0  0  0  0
 20 16  1  0  0  0  0
 21 26  1  0  0  0  0
 22 21  1  0  0  0  0
 23 15  1  0  0  0  0
 24 28  1  0  0  0  0
 24 21  2  0  0  0  0
 25 23  1  0  0  0  0
 26 23  2  0  0  0  0
 26 27  1  0  0  0  0
 28 25  2  0  0  0  0
 30 29  2  0  0  0  0
 30 28  1  0  0  0  0
 31 32  1  0  0  0  0
M  END
>  <MODEL>
2

>  <REMARK>
 VINA RESULT:      -8.5      3.053      6.946
  Name = 
  3 active torsions:
  status: ('A' for Active; 'I' for Inactive)
    1  A    between atoms: C_13  and  C_29
    2  A    between atoms: C_15  and  C_26
    3  A    between atoms: C_16  and  C_27
                            x       y       z     vdW  Elec       q    Type
                         _______ _______ _______ _____ _____    ______ ____

>  <TORSDO>
F 3

$$$$
=
 OpenBabel10262421113D

 32 37  0  0  1  0  0  0  0  0999 V2000
  189.5520  177.5110  142.0270 C   0  0  1  0  0  3  0  0  0  0  0  0
  187.8820  178.3990  143.7900 C   0  0  2  0  0  3  0  0  0  0  0  0
  191.0350  177.3440  141.7000 C   0  0  0  0  0  2  0  0  0  0  0  0
  189.3730  178.1590  143.4130 C   0  0  1  0  0  3  0  0  0  0  0  0
  187.4040  177.6760  144.9860 N   0  0  2  0  0  0  0  0  0  0  0  0
  183.1820  178.6230  142.3290 C   0  0  0  0  0  3  0  0  0  0  0  0
  186.9430  178.0960  142.6130 C   0  0  2  0  0  3  0  0  0  0  0  0
  183.7870  178.5820  144.6730 C   0  0  0  0  0  3  0  0  0  0  0  0
  185.1300  178.4060  144.3290 C   0  0  0  0  0  0  0  0  0  0  0  0
  190.1810  177.4300  144.4560 C   0  0  0  0  0  0  0  0  0  0  0  0
  186.1690  178.3540  145.4170 C   0  0  0  0  0  2  0  0  0  0  0  0
  189.7250  177.2810  145.6980 C   0  0  0  0  0  3  0  0  0  0  0  0
  191.5890  177.0200  144.1340 C   0  0  0  0  0  2  0  0  0  0  0  0
  187.4330  178.8290  141.3660 C   0  0  0  0  0  2  0  0  0  0  0  0
  188.8180  178.3120  140.9310 C   0  0  2  0  0  3  0  0  0  0  0  0
  185.5120  178.3820  142.9730 C   0  0  0  0  0  0  0  0  0  0  0  0
  188.3740  177.8050  146.0890 C   0  0  2  0  0  3  0  0  0  0  0  0
  191.6750  176.4180  142.7320 C   0  0  0  0  0  2  0  0  0  0  0  0
  182.8140  178.6880  143.6750 C   0  0  0  0  0  3  0  0  0  0  0  0
  184.5260  178.4600  141.9780 C   0  0  0  0  0  3  0  0  0  0  0  0
  187.4770  176.8750  137.6590 C   0  0  0  0  0  0  0  0  0  0  0  0
  186.2840  176.9530  136.7700 C   0  0  0  0  0  1  0  0  0  0  0  0
  188.7040  177.5200  139.6590 C   0  0  0  0  0  0  0  0  0  0  0  0
  188.5300  176.0340  137.2900 C   0  0  0  0  0  3  0  0  0  0  0  0
  189.7530  176.6710  139.2710 C   0  0  0  0  0  3  0  0  0  0  0  0
  187.5570  177.6240  138.8480 C   0  0  0  0  0  0  0  0  0  0  0  0
  186.2300  178.6910  139.3180 Cl  0  0  0  0  0  0  0  0  0  0  0  0
  189.6700  175.9290  138.0930 C   0  0  0  0  0  0  0  0  0  0  0  0
  190.6160  173.8120  137.5760 O   0  0  0  0  0  0  0  0  0  0  0  0
  190.7820  175.0530  137.7200 C   0  0  0  0  0  3  0  0  0  0  0  0
  187.9020  177.0910  147.3620 C   0  0  0  0  0  2  0  0  0  0  0  0
  188.2700  177.8570  148.6240 C   0  0  0  0  0  1  0  0  0  0  0  0
  1  3  1  6  0  0  0
  1  4  1  0  0  0  0
  2  5  1  0  0  0  0
  3 18  1  0  0  0  0
  4  2  1  0  0  0  0
  4 10  1  0  0  0  0
  5 11  1  0  0  0  0
  5 17  1  0  0  0  0
  6 19  1  0  0  0  0
  7 16  1  0  0  0  0
  7  2  1  0  0  0  0
  9  8  1  0  0  0  0
  9 11  1  0  0  0  0
 10 12  2  0  0  0  0
 12 17  1  0  0  0  0
 13 10  1  0  0  0  0
 14  7  1  0  0  0  0
 15 14  1  0  0  0  0
 15  1  1  0  0  0  0
 16  9  2  0  0  0  0
 17 31  1  0  0  0  0
 18 13  1  0  0  0  0
 19  8  2  0  0  0  0
 20  6  2  0  0  0  0
 20 16  1  0  0  0  0
 21 26  1  0  0  0  0
 22 21  1  0  0  0  0
 23 15  1  0  0  0  0
 24 21  2  0  0  0  0
 24 28  1  0  0  0  0
 25 23  1  0  0  0  0
 26 27  1  0  0  0  0
 26 23  2  0  0  0  0
 28 25  2  0  0  0  0
 29 30  2  0  0  0  0
 30 28  1  0  0  0  0
 31 32  1  0  0  0  0
M  END
>  <MODEL>
3

>  <REMARK>
 VINA RESULT:      -8.4      3.011      5.446
  Name = 
  3 active torsions:
  status: ('A' for Active; 'I' for Inactive)
    1  A    between atoms: C_13  and  C_29
    2  A    between atoms: C_15  and  C_26
    3  A    between atoms: C_16  and  C_27
                            x       y       z     vdW  Elec       q    Type
                         _______ _______ _______ _____ _____    ______ ____

>  <TORSDO>
F 3

$$$$
=
 OpenBabel10262421113D

 32 37  0  0  1  0  0  0  0  0999 V2000
  185.1380  178.4580  140.2770 C   0  0  1  0  0  3  0  0  0  0  0  0
  187.2290  178.5680  141.7960 C   0  0  2  0  0  3  0  0  0  0  0  0
  184.6110  178.7500  138.8730 C   0  0  0  0  0  2  0  0  0  0  0  0
  186.6370  178.8010  140.3750 C   0  0  1  0  0  3  0  0  0  0  0  0
  188.3050  177.5600  141.8790 N   0  0  2  0  0  0  0  0  0  0  0  0
  186.4100  177.7600  146.5860 C   0  0  0  0  0  3  0  0  0  0  0  0
  186.1350  178.2200  142.8160 C   0  0  2  0  0  3  0  0  0  0  0  0
  188.6100  177.5030  145.6080 C   0  0  0  0  0  3  0  0  0  0  0  0
  188.0810  177.7500  144.3390 C   0  0  0  0  0  0  0  0  0  0  0  0
  187.4100  178.1560  139.2530 C   0  0  0  0  0  0  0  0  0  0  0  0
  189.0060  177.8030  143.1520 C   0  0  0  0  0  2  0  0  0  0  0  0
  188.6420  177.6910  139.4470 C   0  0  0  0  0  3  0  0  0  0  0  0
  186.8490  178.1970  137.8610 C   0  0  0  0  0  2  0  0  0  0  0  0
  185.0100  179.2500  142.7310 C   0  0  0  0  0  2  0  0  0  0  0  0
  184.3190  179.2000  141.3540 C   0  0  2  0  0  3  0  0  0  0  0  0
  186.7120  178.0500  144.1930 C   0  0  0  0  0  0  0  0  0  0  0  0
  189.2880  177.7640  140.8000 C   0  0  2  0  0  3  0  0  0  0  0  0
  185.3540  177.8750  137.8660 C   0  0  0  0  0  2  0  0  0  0  0  0
  187.7760  177.5040  146.7300 C   0  0  0  0  0  3  0  0  0  0  0  0
  185.8770  178.0220  145.3200 C   0  0  0  0  0  3  0  0  0  0  0  0
  180.8890  178.2740  142.7510 C   0  0  0  0  0  0  0  0  0  0  0  0
  180.0550  178.4580  143.9720 C   0  0  0  0  0  1  0  0  0  0  0  0
  182.9370  178.6240  141.4840 C   0  0  0  0  0  0  0  0  0  0  0  0
  180.3620  177.5410  141.6860 C   0  0  0  0  0  3  0  0  0  0  0  0
  182.3900  177.8850  140.4230 C   0  0  0  0  0  3  0  0  0  0  0  0
  182.1830  178.8210  142.6570 C   0  0  0  0  0  0  0  0  0  0  0  0
  182.8550  179.7520  143.9990 Cl  0  0  0  0  0  0  0  0  0  0  0  0
  181.1080  177.3430  140.5200 C   0  0  0  0  0  0  0  0  0  0  0  0
  180.7680  175.3370  139.2940 O   0  0  0  0  0  0  0  0  0  0  0  0
  180.5680  176.5770  139.3950 C   0  0  0  0  0  3  0  0  0  0  0  0
  190.4400  176.7520  140.8670 C   0  0  0  0  0  2  0  0  0  0  0  0
  191.8010  177.4170  140.7200 C   0  0  0  0  0  1  0  0  0  0  0  0
  1  3  1  6  0  0  0
  1  4  1  0  0  0  0
  1 15  1  0  0  0  0
  2  5  1  0  0  0  0
  2  7  1  0  0  0  0
  4  2  1  0  0  0  0
  5 11  1  0  0  0  0
  6 19  1  0  0  0  0
  7 16  1  0  0  0  0
  8 19  2  0  0  0  0
  9  8  1  0  0  0  0
 10 12  2  0  0  0  0
 10  4  1  0  0  0  0
 11  9  1  0  0  0  0
 12 17  1  0  0  0  0
 13 18  1  0  0  0  0
 13 10  1  0  0  0  0
 14  7  1  0  0  0  0
 15 23  1  0  0  0  0
 15 14  1  0  0  0  0
 16  9  2  0  0  0  0
 16 20  1  0  0  0  0
 17 31  1  0  0  0  0
 17  5  1  0  0  0  0
 18  3  1  0  0  0  0
 20  6  2  0  0  0  0
 21 22  1  0  0  0  0
 23 26  2  0  0  0  0
 24 21  2  0  0  0  0
 25 28  2  0  0  0  0
 25 23  1  0  0  0  0
 26 21  1  0  0  0  0
 26 27  1  0  0  0  0
 28 24  1  0  0  0  0
 29 30  2  0  0  0  0
 30 28  1  0  0  0  0
 32 31  1  0  0  0  0
M  END
>  <MODEL>
4

>  <REMARK>
 VINA RESULT:      -8.2      1.869      2.317
  Name = 
  3 active torsions:
  status: ('A' for Active; 'I' for Inactive)
    1  A    between atoms: C_13  and  C_29
    2  A    between atoms: C_15  and  C_26
    3  A    between atoms: C_16  and  C_27
                            x       y       z     vdW  Elec       q    Type
                         _______ _______ _______ _____ _____    ______ ____

>  <TORSDO>
F 3

$$$$
=
 OpenBabel10262421113D

 32 37  0  0  1  0  0  0  0  0999 V2000
  187.3240  177.9150  140.3280 C   0  0  1  0  0  3  0  0  0  0  0  0
  186.0840  178.7220  142.4490 C   0  0  2  0  0  3  0  0  0  0  0  0
  188.6940  177.8020  139.6620 C   0  0  0  0  0  2  0  0  0  0  0  0
  187.4530  178.5380  141.7310 C   0  0  1  0  0  3  0  0  0  0  0  0
  185.9210  177.9670  143.7080 N   0  0  2  0  0  0  0  0  0  0  0  0
  181.1690  178.8040  142.1260 C   0  0  0  0  0  3  0  0  0  0  0  0
  184.9060  178.4020  141.5170 C   0  0  2  0  0  3  0  0  0  0  0  0
  182.3050  178.7530  144.2640 C   0  0  0  0  0  3  0  0  0  0  0  0
  183.5350  178.6270  143.6130 C   0  0  0  0  0  0  0  0  0  0  0  0
  188.5040  177.8240  142.5420 C   0  0  0  0  0  0  0  0  0  0  0  0
  184.8000  178.5970  144.4290 C   0  0  0  0  0  2  0  0  0  0  0  0
  188.3540  177.6430  143.8520 C   0  0  0  0  0  3  0  0  0  0  0  0
  189.8100  177.4670  141.8930 C   0  0  0  0  0  2  0  0  0  0  0  0
  185.0700  179.1680  140.2050 C   0  0  0  0  0  2  0  0  0  0  0  0
  186.3310  178.7040  139.4490 C   0  0  2  0  0  3  0  0  0  0  0  0
  183.5910  178.6340  142.2050 C   0  0  0  0  0  0  0  0  0  0  0  0
  187.1160  178.1160  144.5580 C   0  0  2  0  0  3  0  0  0  0  0  0
  189.5850  176.8860  140.4970 C   0  0  0  0  0  2  0  0  0  0  0  0
  181.1230  178.8380  143.5220 C   0  0  0  0  0  3  0  0  0  0  0  0
  182.3980  178.6920  141.4690 C   0  0  0  0  0  3  0  0  0  0  0  0
  186.2880  177.3340  135.8870 C   0  0  0  0  0  0  0  0  0  0  0  0
  187.0180  177.4630  134.5940 C   0  0  0  0  0  1  0  0  0  0  0  0
  185.9470  177.9250  138.2220 C   0  0  0  0  0  0  0  0  0  0  0  0
  185.2080  176.4510  135.9580 C   0  0  0  0  0  3  0  0  0  0  0  0
  184.8660  177.0320  138.2750 C   0  0  0  0  0  3  0  0  0  0  0  0
  186.6650  178.0780  137.0200 C   0  0  0  0  0  0  0  0  0  0  0  0
  188.0310  179.1950  136.9370 Cl  0  0  0  0  0  0  0  0  0  0  0  0
  184.4940  176.2960  137.1500 C   0  0  0  0  0  0  0  0  0  0  0  0
  182.6330  175.3320  138.2680 O   0  0  0  0  0  0  0  0  0  0  0  0
  183.3610  175.3730  137.2400 C   0  0  0  0  0  3  0  0  0  0  0  0
  186.9770  177.3690  145.8910 C   0  0  0  0  0  2  0  0  0  0  0  0
  188.2380  177.4580  146.7370 C   0  0  0  0  0  1  0  0  0  0  0  0
  1  3  1  6  0  0  0
  1  4  1  0  0  0  0
  2  5  1  0  0  0  0
  3 18  1  0  0  0  0
  4  2  1  0  0  0  0
  4 10  1  0  0  0  0
  5 11  1  0  0  0  0
  5 17  1  0  0  0  0
  6 19  1  0  0  0  0
  7 16  1  0  0  0  0
  7  2  1  0  0  0  0
  9  8  1  0  0  0  0
  9 11  1  0  0  0  0
 10 12  2  0  0  0  0
 12 17  1  0  0  0  0
 13 10  1  0  0  0  0
 14  7  1  0  0  0  0
 15 14  1  0  0  0  0
 15  1  1  0  0  0  0
 16  9  2  0  0  0  0
 17 31  1  0  0  0  0
 18 13  1  0  0  0  0
 19  8  2  0  0  0  0
 20  6  2  0  0  0  0
 20 16  1  0  0  0  0
 21 24  2  0  0  0  0
 21 26  1  0  0  0  0
 22 21  1  0  0  0  0
 23 25  1  0  0  0  0
 23 15  1  0  0  0  0
 24 28  1  0  0  0  0
 26 23  2  0  0  0  0
 27 26  1  0  0  0  0
 28 30  1  0  0  0  0
 28 25  2  0  0  0  0
 30 29  2  0  0  0  0
 31 32  1  0  0  0  0
M  END
>  <MODEL>
5

>  <REMARK>
 VINA RESULT:      -8.1      2.091      3.894
  Name = 
  3 active torsions:
  status: ('A' for Active; 'I' for Inactive)
    1  A    between atoms: C_13  and  C_29
    2  A    between atoms: C_15  and  C_26
    3  A    between atoms: C_16  and  C_27
                            x       y       z     vdW  Elec       q    Type
                         _______ _______ _______ _____ _____    ______ ____

>  <TORSDO>
F 3

$$$$
=
 OpenBabel10262421113D

 32 37  0  0  1  0  0  0  0  0999 V2000
  181.7200  179.1350  140.8280 C   0  0  1  0  0  3  0  0  0  0  0  0
  183.9730  178.2340  141.7220 C   0  0  2  0  0  3  0  0  0  0  0  0
  180.2230  179.2290  141.1150 C   0  0  0  0  0  2  0  0  0  0  0  0
  182.4460  178.4040  141.9730 C   0  0  1  0  0  3  0  0  0  0  0  0
  184.8560  178.9000  142.7010 N   0  0  2  0  0  0  0  0  0  0  0  0
  187.7350  178.4170  138.5470 C   0  0  0  0  0  3  0  0  0  0  0  0
  184.3680  178.6790  140.3060 C   0  0  2  0  0  3  0  0  0  0  0  0
  188.0920  178.2530  140.9360 C   0  0  0  0  0  3  0  0  0  0  0  0
  186.7160  178.3670  141.1550 C   0  0  0  0  0  0  0  0  0  0  0  0
  182.0850  179.0030  143.3080 C   0  0  0  0  0  0  0  0  0  0  0  0
  186.1820  178.2740  142.5590 C   0  0  0  0  0  2  0  0  0  0  0  0
  182.9850  179.0930  144.2860 C   0  0  0  0  0  3  0  0  0  0  0  0
  180.6510  179.3420  143.5930 C   0  0  0  0  0  2  0  0  0  0  0  0
  183.4540  178.0060  139.2850 C   0  0  0  0  0  2  0  0  0  0  0  0
  181.9940  178.4630  139.4660 C   0  0  2  0  0  3  0  0  0  0  0  0
  185.8350  178.4620  140.0590 C   0  0  0  0  0  0  0  0  0  0  0  0
  184.3980  178.6300  144.0760 C   0  0  2  0  0  3  0  0  0  0  0  0
  180.0060  180.0360  142.3930 C   0  0  0  0  0  2  0  0  0  0  0  0
  188.6010  178.2810  139.6350 C   0  0  0  0  0  3  0  0  0  0  0  0
  186.3570  178.5170  138.7580 C   0  0  0  0  0  3  0  0  0  0  0  0
  180.8030  179.6470  136.0380 C   0  0  0  0  0  0  0  0  0  0  0  0
  180.3890  179.1060  134.7130 C   0  0  0  0  0  1  0  0  0  0  0  0
  181.5770  179.3490  138.3260 C   0  0  0  0  0  0  0  0  0  0  0  0
  180.8000  181.0300  136.2250 C   0  0  0  0  0  3  0  0  0  0  0  0
  181.5660  180.7420  138.4950 C   0  0  0  0  0  3  0  0  0  0  0  0
  181.1930  178.7950  137.0890 C   0  0  0  0  0  0  0  0  0  0  0  0
  181.1970  177.0430  136.8600 Cl  0  0  0  0  0  0  0  0  0  0  0  0
  181.1800  181.5830  137.4510 C   0  0  0  0  0  0  0  0  0  0  0  0
  181.1790  183.8340  136.6900 O   0  0  0  0  0  0  0  0  0  0  0  0
  181.1810  183.0320  137.6630 C   0  0  0  0  0  3  0  0  0  0  0  0
  185.3050  179.2820  145.1280 C   0  0  0  0  0  2  0  0  0  0  0  0
  185.2820  178.5350  146.4530 C   0  0  0  0  0  1  0  0  0  0  0  0
  1  3  1  1  0  0  0
  1  4  1  0  0  0  0
  2  4  1  0  0  0  0
  2  5  1  0  0  0  0
  3 18  1  0  0  0  0
  4 10  1  0  0  0  0
  5 17  1  0  0  0  0
  6 20  2  0  0  0  0
  6 19  1  0  0  0  0
  7  2  1  0  0  0  0
  8  9  1  0  0  0  0
  9 11  1  0  0  0  0
 10 13  1  0  0  0  0
 10 12  2  0  0  0  0
 11  5  1  0  0  0  0
 14 15  1  0  0  0  0
 14  7  1  0  0  0  0
 15  1  1  0  0  0  0
 16  7  1  0  0  0  0
 16  9  2  0  0  0  0
 17 12  1  0  0  0  0
 17 31  1  0  0  0  0
 18 13  1  0  0  0  0
 19  8  2  0  0  0  0
 20 16  1  0  0  0  0
 21 24  2  0  0  0  0
 21 26  1  0  0  0  0
 22 21  1  0  0  0  0
 23 25  1  0  0  0  0
 23 15  1  0  0  0  0
 24 28  1  0  0  0  0
 26 23  2  0  0  0  0
 27 26  1  0  0  0  0
 28 30  1  0  0  0  0
 28 25  2  0  0  0  0
 29 30  2  0  0  0  0
 31 32  1  0  0  0  0
M  END
>  <MODEL>
6

>  <REMARK>
 VINA RESULT:      -7.9      2.714      5.674
  Name = 
  3 active torsions:
  status: ('A' for Active; 'I' for Inactive)
    1  A    between atoms: C_13  and  C_29
    2  A    between atoms: C_15  and  C_26
    3  A    between atoms: C_16  and  C_27
                            x       y       z     vdW  Elec       q    Type
                         _______ _______ _______ _____ _____    ______ ____

>  <TORSDO>
F 3

$$$$
=
 OpenBabel10262421113D

 32 37  0  0  1  0  0  0  0  0999 V2000
  188.7740  177.6260  141.0890 C   0  0  1  0  0  3  0  0  0  0  0  0
  187.5960  178.4830  143.2270 C   0  0  2  0  0  3  0  0  0  0  0  0
  190.1290  177.4640  140.4030 C   0  0  0  0  0  2  0  0  0  0  0  0
  188.9460  178.2490  142.4880 C   0  0  1  0  0  3  0  0  0  0  0  0
  187.4260  177.7390  144.4910 N   0  0  2  0  0  0  0  0  0  0  0  0
  182.6830  178.7360  142.9790 C   0  0  0  0  0  3  0  0  0  0  0  0
  186.3940  178.2010  142.3140 C   0  0  2  0  0  3  0  0  0  0  0  0
  183.8490  178.6520  145.0990 C   0  0  0  0  0  3  0  0  0  0  0  0
  185.0640  178.4810  144.4310 C   0  0  0  0  0  0  0  0  0  0  0  0
  189.9840  177.5010  143.2850 C   0  0  0  0  0  0  0  0  0  0  0  0
  186.3400  178.4100  145.2260 C   0  0  0  0  0  2  0  0  0  0  0  0
  189.8490  177.3300  144.5980 C   0  0  0  0  0  3  0  0  0  0  0  0
  191.2670  177.0970  142.6180 C   0  0  0  0  0  2  0  0  0  0  0  0
  186.5640  178.9570  140.9970 C   0  0  0  0  0  2  0  0  0  0  0  0
  187.7950  178.4460  140.2240 C   0  0  2  0  0  3  0  0  0  0  0  0
  185.0980  178.4820  143.0210 C   0  0  0  0  0  0  0  0  0  0  0  0
  188.6400  177.8480  145.3210 C   0  0  2  0  0  3  0  0  0  0  0  0
  191.0000  176.5200  141.2280 C   0  0  0  0  0  2  0  0  0  0  0  0
  182.6600  178.7760  144.3750 C   0  0  0  0  0  3  0  0  0  0  0  0
  183.8970  178.5780  142.3030 C   0  0  0  0  0  3  0  0  0  0  0  0
  185.7360  177.1860  137.2660 C   0  0  0  0  0  0  0  0  0  0  0  0
  184.4210  177.4070  136.6020 C   0  0  0  0  0  1  0  0  0  0  0  0
  187.3660  177.6770  139.0060 C   0  0  0  0  0  0  0  0  0  0  0  0
  186.6020  176.2300  136.7320 C   0  0  0  0  0  3  0  0  0  0  0  0
  188.2230  176.7130  138.4540 C   0  0  0  0  0  3  0  0  0  0  0  0
  186.1130  177.9180  138.4090 C   0  0  0  0  0  0  0  0  0  0  0  0
  185.0230  179.1310  139.0880 Cl  0  0  0  0  0  0  0  0  0  0  0  0
  187.8470  175.9890  137.3220 C   0  0  0  0  0  0  0  0  0  0  0  0
  188.5800  173.7590  136.9610 O   0  0  0  0  0  0  0  0  0  0  0  0
  188.7660  174.9910  136.7730 C   0  0  0  0  0  3  0  0  0  0  0  0
  188.4940  177.1110  146.6590 C   0  0  0  0  0  2  0  0  0  0  0  0
  189.0660  177.9090  147.8220 C   0  0  0  0  0  1  0  0  0  0  0  0
  1  3  1  6  0  0  0
  1  4  1  0  0  0  0
  2  5  1  0  0  0  0
  3 18  1  0  0  0  0
  4  2  1  0  0  0  0
  4 10  1  0  0  0  0
  5 11  1  0  0  0  0
  5 17  1  0  0  0  0
  6 19  1  0  0  0  0
  7 16  1  0  0  0  0
  7  2  1  0  0  0  0
  9  8  1  0  0  0  0
  9 11  1  0  0  0  0
 10 12  2  0  0  0  0
 12 17  1  0  0  0  0
 13 10  1  0  0  0  0
 14  7  1  0  0  0  0
 15 14  1  0  0  0  0
 15  1  1  0  0  0  0
 16  9  2  0  0  0  0
 17 31  1  0  0  0  0
 18 13  1  0  0  0  0
 19  8  2  0  0  0  0
 20  6  2  0  0  0  0
 20 16  1  0  0  0  0
 21 26  1  0  0  0  0
 22 21  1  0  0  0  0
 23 15  1  0  0  0  0
 24 21  2  0  0  0  0
 24 28  1  0  0  0  0
 25 23  1  0  0  0  0
 26 23  2  0  0  0  0
 26 27  1  0  0  0  0
 28 25  2  0  0  0  0
 30 29  2  0  0  0  0
 30 28  1  0  0  0  0
 31 32  1  0  0  0  0
M  END
>  <MODEL>
7

>  <REMARK>
 VINA RESULT:      -7.8      2.763      4.348
  Name = 
  3 active torsions:
  status: ('A' for Active; 'I' for Inactive)
    1  A    between atoms: C_13  and  C_29
    2  A    between atoms: C_15  and  C_26
    3  A    between atoms: C_16  and  C_27
                            x       y       z     vdW  Elec       q    Type
                         _______ _______ _______ _____ _____    ______ ____

>  <TORSDO>
F 3

$$$$
=
 OpenBabel10262421113D

 32 37  0  0  1  0  0  0  0  0999 V2000
  187.9500  177.7210  139.8150 C   0  0  1  0  0  3  0  0  0  0  0  0
  187.6300  178.4470  142.2760 C   0  0  2  0  0  3  0  0  0  0  0  0
  188.9700  177.5920  138.6850 C   0  0  0  0  0  2  0  0  0  0  0  0
  188.6240  178.2500  141.0950 C   0  0  1  0  0  3  0  0  0  0  0  0
  187.8940  177.6230  143.4740 N   0  0  2  0  0  0  0  0  0  0  0  0
  182.9550  178.7560  143.8000 C   0  0  0  0  0  3  0  0  0  0  0  0
  186.1740  178.2350  141.8340 C   0  0  2  0  0  3  0  0  0  0  0  0
  184.7920  178.5250  145.3610 C   0  0  0  0  0  3  0  0  0  0  0  0
  185.6870  178.3880  144.2970 C   0  0  0  0  0  0  0  0  0  0  0  0
  189.8530  177.4430  141.4280 C   0  0  0  0  0  0  0  0  0  0  0  0
  187.1580  178.2540  144.5830 C   0  0  0  0  0  2  0  0  0  0  0  0
  190.1850  177.1880  142.6920 C   0  0  0  0  0  3  0  0  0  0  0  0
  190.8040  177.0730  140.3270 C   0  0  0  0  0  2  0  0  0  0  0  0
  185.8920  179.0730  140.5880 C   0  0  0  0  0  2  0  0  0  0  0  0
  186.7550  178.6040  139.4010 C   0  0  2  0  0  3  0  0  0  0  0  0
  185.2210  178.4790  142.9700 C   0  0  0  0  0  0  0  0  0  0  0  0
  189.3250  177.6680  143.8250 C   0  0  2  0  0  3  0  0  0  0  0  0
  190.0470  176.5890  139.0910 C   0  0  0  0  0  2  0  0  0  0  0  0
  183.4280  178.7060  145.1140 C   0  0  0  0  0  3  0  0  0  0  0  0
  183.8470  178.6330  142.7300 C   0  0  0  0  0  3  0  0  0  0  0  0
  185.3790  177.3820  136.0560 C   0  0  0  0  0  0  0  0  0  0  0  0
  185.6530  177.4780  134.5940 C   0  0  0  0  0  1  0  0  0  0  0  0
  185.8990  177.9190  138.3710 C   0  0  0  0  0  0  0  0  0  0  0  0
  184.2880  176.6230  136.4820 C   0  0  0  0  0  3  0  0  0  0  0  0
  184.7990  177.1510  138.7810 C   0  0  0  0  0  3  0  0  0  0  0  0
  186.1940  178.0370  136.9990 C   0  0  0  0  0  0  0  0  0  0  0  0
  187.5780  178.9960  136.4660 Cl  0  0  0  0  0  0  0  0  0  0  0  0
  183.9930  176.5050  137.8440 C   0  0  0  0  0  0  0  0  0  0  0  0
  182.4280  175.8070  139.4890 O   0  0  0  0  0  0  0  0  0  0  0  0
  182.8520  175.7120  138.3070 C   0  0  0  0  0  3  0  0  0  0  0  0
  189.6390  176.8470  145.0830 C   0  0  0  0  0  2  0  0  0  0  0  0
  191.1330  176.7610  145.3570 C   0  0  0  0  0  1  0  0  0  0  0  0
  1  3  1  6  0  0  0
  1  4  1  0  0  0  0
  2  5  1  0  0  0  0
  3 18  1  0  0  0  0
  4 10  1  0  0  0  0
  4  2  1  0  0  0  0
  5 17  1  0  0  0  0
  5 11  1  0  0  0  0
  6 19  1  0  0  0  0
  7  2  1  0  0  0  0
  7 16  1  0  0  0  0
  9 11  1  0  0  0  0
  9  8  1  0  0  0  0
 10 12  2  0  0  0  0
 12 17  1  0  0  0  0
 13 10  1  0  0  0  0
 14  7  1  0  0  0  0
 15  1  1  0  0  0  0
 15 14  1  0  0  0  0
 16  9  2  0  0  0  0
 17 31  1  0  0  0  0
 18 13  1  0  0  0  0
 19  8  2  0  0  0  0
 20 16  1  0  0  0  0
 20  6  2  0  0  0  0
 21 24  2  0  0  0  0
 21 26  1  0  0  0  0
 22 21  1  0  0  0  0
 23 25  1  0  0  0  0
 23 15  1  0  0  0  0
 24 28  1  0  0  0  0
 26 23  2  0  0  0  0
 27 26  1  0  0  0  0
 28 30  1  0  0  0  0
 28 25  2  0  0  0  0
 30 29  2  0  0  0  0
 31 32  1  0  0  0  0
M  END
>  <MODEL>
8

>  <REMARK>
 VINA RESULT:      -7.7      2.039      2.899
  Name = 
  3 active torsions:
  status: ('A' for Active; 'I' for Inactive)
    1  A    between atoms: C_13  and  C_29
    2  A    between atoms: C_15  and  C_26
    3  A    between atoms: C_16  and  C_27
                            x       y       z     vdW  Elec       q    Type
                         _______ _______ _______ _____ _____    ______ ____

>  <TORSDO>
F 3

$$$$
=
 OpenBabel10262421113D

 32 37  0  0  1  0  0  0  0  0999 V2000
  184.2500  177.7180  138.1100 C   0  0  1  0  0  3  0  0  0  0  0  0
  185.3480  178.7620  140.2050 C   0  0  2  0  0  3  0  0  0  0  0  0
  184.3940  177.5290  136.6010 C   0  0  0  0  0  2  0  0  0  0  0  0
  185.4530  178.4960  138.6760 C   0  0  1  0  0  3  0  0  0  0  0  0
  186.4110  178.1550  141.0320 N   0  0  2  0  0  0  0  0  0  0  0  0
  182.5460  178.8160  144.2570 C   0  0  0  0  0  3  0  0  0  0  0  0
  183.9790  178.3410  140.7610 C   0  0  2  0  0  3  0  0  0  0  0  0
  184.9570  179.0050  144.3730 C   0  0  0  0  0  3  0  0  0  0  0  0
  185.0440  178.8040  142.9930 C   0  0  0  0  0  0  0  0  0  0  0  0
  186.7520  177.8760  138.2280 C   0  0  0  0  0  0  0  0  0  0  0  0
  186.3910  178.8640  142.3230 C   0  0  0  0  0  2  0  0  0  0  0  0
  187.8110  177.8440  139.0340 C   0  0  0  0  0  3  0  0  0  0  0  0
  186.9020  177.4460  136.7970 C   0  0  0  0  0  2  0  0  0  0  0  0
  182.8700  178.9540  139.9080 C   0  0  0  0  0  2  0  0  0  0  0  0
  182.9160  178.4050  138.4690 C   0  0  2  0  0  3  0  0  0  0  0  0
  183.8700  178.6520  142.2280 C   0  0  0  0  0  0  0  0  0  0  0  0
  187.7340  178.3960  140.4280 C   0  0  2  0  0  3  0  0  0  0  0  0
  185.6510  176.7120  136.3150 C   0  0  0  0  0  2  0  0  0  0  0  0
  183.7100  179.0080  145.0050 C   0  0  0  0  0  3  0  0  0  0  0  0
  182.6250  178.6280  142.8740 C   0  0  0  0  0  3  0  0  0  0  0  0
  179.8340  176.8060  136.8820 C   0  0  0  0  0  0  0  0  0  0  0  0
  178.9330  176.9610  135.7050 C   0  0  0  0  0  1  0  0  0  0  0  0
  181.7470  177.4930  138.2200 C   0  0  0  0  0  0  0  0  0  0  0  0
  179.5820  175.7700  137.7840 C   0  0  0  0  0  3  0  0  0  0  0  0
  181.4790  176.4460  139.1150 C   0  0  0  0  0  3  0  0  0  0  0  0
  180.9200  177.6760  137.0940 C   0  0  0  0  0  0  0  0  0  0  0  0
  181.2450  178.9860  135.9550 Cl  0  0  0  0  0  0  0  0  0  0  0  0
  180.4010  175.5860  138.9020 C   0  0  0  0  0  0  0  0  0  0  0  0
  179.4060  174.6770  140.8580 O   0  0  0  0  0  0  0  0  0  0  0  0
  180.1500  174.5040  139.8560 C   0  0  0  0  0  3  0  0  0  0  0  0
  188.8720  177.8050  141.2710 C   0  0  0  0  0  2  0  0  0  0  0  0
  190.0530  177.3660  140.4190 C   0  0  0  0  0  1  0  0  0  0  0  0
  1  3  1  6  0  0  0
  1 15  1  0  0  0  0
  1  4  1  0  0  0  0
  2  7  1  0  0  0  0
  2  5  1  0  0  0  0
  4  2  1  0  0  0  0
  5 11  1  0  0  0  0
  6 19  1  0  0  0  0
  7 16  1  0  0  0  0
  8 19  2  0  0  0  0
  9  8  1  0  0  0  0
 10  4  1  0  0  0  0
 10 12  2  0  0  0  0
 11  9  1  0  0  0  0
 12 17  1  0  0  0  0
 13 10  1  0  0  0  0
 14  7  1  0  0  0  0
 15 14  1  0  0  0  0
 16 20  1  0  0  0  0
 16  9  2  0  0  0  0
 17  5  1  0  0  0  0
 17 31  1  0  0  0  0
 18  3  1  0  0  0  0
 18 13  1  0  0  0  0
 20  6  2  0  0  0  0
 21 26  2  0  0  0  0
 21 24  1  0  0  0  0
 22 21  1  0  0  0  0
 23 15  1  0  0  0  0
 23 25  2  0  0  0  0
 24 28  2  0  0  0  0
 26 23  1  0  0  0  0
 27 26  1  0  0  0  0
 28 25  1  0  0  0  0
 28 30  1  0  0  0  0
 30 29  2  0  0  0  0
 32 31  1  0  0  0  0
M  END
>  <MODEL>
9

>  <REMARK>
 VINA RESULT:      -7.4      1.704      2.485
  Name = 
  3 active torsions:
  status: ('A' for Active; 'I' for Inactive)
    1  A    between atoms: C_13  and  C_29
    2  A    between atoms: C_15  and  C_26
    3  A    between atoms: C_16  and  C_27
                            x       y       z     vdW  Elec       q    Type
                         _______ _______ _______ _____ _____    ______ ____

>  <TORSDO>
F 3

$$$$
