=
 OpenBabel10262422593D

 37 40  0  0  1  0  0  0  0  0999 V2000
  181.2030  177.0580  140.1500 C   0  0  0  0  0  2  0  0  0  0  0  0
  183.6960  179.0410  139.2630 C   0  0  0  0  0  0  0  0  0  0  0  0
  180.0750  175.6570  136.8980 C   0  0  0  0  0  2  0  0  0  0  0  0
  182.7190  177.0010  139.8920 C   0  0  2  0  0  3  0  0  0  0  0  0
  180.8570  175.8470  137.9590 C   0  0  1  0  0  3  0  0  0  0  0  0
  183.3410  178.2210  140.3690 N   0  0  0  0  0  0  0  0  0  0  0  0
  178.9370  176.5110  139.4140 C   0  0  0  0  0  1  0  0  0  0  0  0
  182.2910  175.9570  137.5680 C   0  0  2  0  0  0  0  0  0  0  0  0
  182.2470  176.1840  136.0640 C   0  0  0  0  0  2  0  0  0  0  0  0
  180.3700  176.0020  139.3960 C   0  0  2  0  0  0  0  0  0  0  0  0
  182.9980  174.6310  137.8100 C   0  0  0  0  0  1  0  0  0  0  0  0
  184.3710  180.0980  139.3800 O   0  0  0  0  0  0  0  0  0  0  0  0
  183.0000  177.0420  138.3850 C   0  0  1  0  0  3  0  0  0  0  0  0
  180.8710  175.6730  135.6340 C   0  0  1  0  0  3  0  0  0  0  0  0
  183.1790  178.5210  137.9660 C   0  0  1  0  0  3  0  0  0  0  0  0
  180.9890  174.3720  135.1440 O   0  0  0  0  0  0  0  0  0  0  0  0
  179.7780  174.0610  134.7320 O   0  0  0  0  0  1  0  0  0  0  0  0
  179.2650  174.0150  140.4440 C   0  0  0  0  0  2  0  0  0  0  0  0
  180.3730  174.6840  140.1230 C   0  0  0  0  0  3  0  0  0  0  0  0
  181.8600  179.2720  137.6620 C   0  0  2  0  0  3  0  0  0  0  0  0
  181.5920  179.3320  136.2910 O   0  0  0  0  0  0  0  0  0  0  0  0
  179.7680  179.5430  134.7780 C   0  0  0  0  0  1  0  0  0  0  0  0
  180.2050  179.1890  136.1830 C   0  0  0  0  0  2  0  0  0  0  0  0
  181.8620  180.6900  138.2550 C   0  0  0  0  0  2  0  0  0  0  0  0
  180.4630  181.1850  138.6010 C   0  0  1  0  0  3  0  0  0  0  0  0
  180.2790  181.1540  139.9840 O   0  0  0  0  0  1  0  0  0  0  0  0
  179.8430  182.8110  136.8740 C   0  0  0  0  0  2  0  0  0  0  0  0
  180.3000  182.5810  138.1020 C   0  0  0  0  0  3  0  0  0  0  0  0
  183.5840  178.5280  141.7750 C   0  0  0  0  0  2  0  0  0  0  0  0
  185.0650  178.7920  142.0400 C   0  0  0  0  0  2  0  0  0  0  0  0
  184.6400  178.9340  144.5090 C   0  0  0  0  0  3  0  0  0  0  0  0
  185.4370  178.4820  143.4520 C   0  0  0  0  0  0  0  0  0  0  0  0
  186.6160  177.7760  143.7190 C   0  0  0  0  0  3  0  0  0  0  0  0
  188.1380  176.8400  145.2950 F   0  0  0  0  0  0  0  0  0  0  0  0
  186.1970  177.9690  146.0950 C   0  0  0  0  0  3  0  0  0  0  0  0
  186.9950  177.5190  145.0390 C   0  0  0  0  0  0  0  0  0  0  0  0
  185.0190  178.6750  145.8310 C   0  0  0  0  0  3  0  0  0  0  0  0
  2 12  2  0  0  0  0
  2  6  1  0  0  0  0
  4  1  1  6  0  0  0
  4  6  1  0  0  0  0
  5  3  1  6  0  0  0
  5 10  1  0  0  0  0
  6 29  1  0  0  0  0
  8 11  1  1  0  0  0
  8  5  1  0  0  0  0
  8 13  1  0  0  0  0
  9  8  1  0  0  0  0
 10  7  1  6  0  0  0
 10 19  1  0  0  0  0
 10  1  1  0  0  0  0
 13  4  1  0  0  0  0
 14  9  1  0  0  0  0
 14  3  1  0  0  0  0
 15 13  1  0  0  0  0
 15  2  1  0  0  0  0
 16 14  1  0  0  0  0
 17 16  1  0  0  0  0
 19 18  2  0  0  0  0
 20 15  1  0  0  0  0
 20 24  1  0  0  0  0
 21 20  1  0  0  0  0
 22 23  1  0  0  0  0
 23 21  1  0  0  0  0
 24 25  1  0  0  0  0
 25 26  1  0  0  0  0
 27 28  2  0  0  0  0
 28 25  1  0  0  0  0
 29 30  1  0  0  0  0
 30 32  1  0  0  0  0
 31 37  1  0  0  0  0
 32 33  1  0  0  0  0
 32 31  2  0  0  0  0
 33 36  2  0  0  0  0
 36 34  1  0  0  0  0
 36 35  1  0  0  0  0
 37 35  2  0  0  0  0
M  END
>  <MODEL>
1

>  <REMARK>
 VINA RESULT:      -6.2      0.000      0.000
  Name = 
  11 active torsions:
  status: ('A' for Active; 'I' for Inactive)
    1  A    between atoms: C_1  and  O_5
    2  A    between atoms: C_1  and  C_33
    3  A    between atoms: C_1  and  C_36
    4  A    between atoms: O_3  and  C_32
    5  A    between atoms: O_5  and  C_23
    6  A    between atoms: C_6  and  C_31
    7  A    between atoms: N_14  and  C_37
    8  A    between atoms: C_17  and  C_33
    9  A    between atoms: C_17  and  C_34
   10  A    between atoms: C_24  and  C_28
   11  A    between atoms: C_31  and  C_37
                            x       y       z     vdW  Elec       q    Type
                         _______ _______ _______ _____ _____    ______ ____

>  <TORSDO>
F 11

$$$$
=
 OpenBabel10262422593D

 37 40  0  0  1  0  0  0  0  0999 V2000
  189.8320  178.7290  142.8870 C   0  0  0  0  0  2  0  0  0  0  0  0
  186.9070  177.2110  143.1580 C   0  0  0  0  0  0  0  0  0  0  0  0
  191.6690  177.5070  145.8770 C   0  0  0  0  0  2  0  0  0  0  0  0
  189.1520  177.4050  142.4990 C   0  0  2  0  0  3  0  0  0  0  0  0
  191.1020  177.4710  144.6730 C   0  0  1  0  0  3  0  0  0  0  0  0
  187.7740  177.6560  142.1230 N   0  0  0  0  0  0  0  0  0  0  0  0
  191.4240  179.9220  144.3090 C   0  0  0  0  0  1  0  0  0  0  0  0
  190.3190  176.2180  144.4750 C   0  0  2  0  0  0  0  0  0  0  0  0
  190.1710  175.6500  145.8780 C   0  0  0  0  0  2  0  0  0  0  0  0
  191.1740  178.5840  143.6320 C   0  0  2  0  0  0  0  0  0  0  0  0
  191.1300  175.2220  143.6590 C   0  0  0  0  0  1  0  0  0  0  0  0
  185.6540  177.1850  143.0400 O   0  0  0  0  0  0  0  0  0  0  0  0
  189.0100  176.5030  143.7310 C   0  0  1  0  0  3  0  0  0  0  0  0
  191.2940  176.3060  146.6840 C   0  0  1  0  0  3  0  0  0  0  0  0
  187.6390  176.7920  144.3870 C   0  0  1  0  0  3  0  0  0  0  0  0
  192.3840  175.4380  146.7570 O   0  0  0  0  0  0  0  0  0  0  0  0
  192.9960  175.7660  147.8760 O   0  0  0  0  0  1  0  0  0  0  0  0
  192.1720  177.7540  141.4900 C   0  0  0  0  0  2  0  0  0  0  0  0
  192.3110  178.3630  142.6690 C   0  0  0  0  0  3  0  0  0  0  0  0
  187.6280  177.9940  145.3620 C   0  0  2  0  0  3  0  0  0  0  0  0
  187.7070  177.5900  146.6980 O   0  0  0  0  0  0  0  0  0  0  0  0
  188.6320  178.2410  148.7910 C   0  0  0  0  0  1  0  0  0  0  0  0
  188.6060  178.4780  147.2960 C   0  0  0  0  0  2  0  0  0  0  0  0
  186.3880  178.8810  145.1590 C   0  0  0  0  0  2  0  0  0  0  0  0
  185.2950  178.6080  146.1850 C   0  0  1  0  0  3  0  0  0  0  0  0
  185.4160  179.4970  147.2540 O   0  0  0  0  0  1  0  0  0  0  0  0
  183.8300  179.5360  144.4510 C   0  0  0  0  0  2  0  0  0  0  0  0
  183.9620  178.7780  145.5360 C   0  0  0  0  0  3  0  0  0  0  0  0
  187.3600  178.2500  140.8560 C   0  0  0  0  0  2  0  0  0  0  0  0
  188.5580  178.5090  139.9440 C   0  0  0  0  0  2  0  0  0  0  0  0
  187.6540  177.2170  137.9910 C   0  0  0  0  0  3  0  0  0  0  0  0
  188.6940  177.4530  138.8980 C   0  0  0  0  0  0  0  0  0  0  0  0
  189.8490  176.6640  138.8540 C   0  0  0  0  0  3  0  0  0  0  0  0
  191.0830  174.8790  137.8700 F   0  0  0  0  0  0  0  0  0  0  0  0
  188.9280  175.4110  136.9990 C   0  0  0  0  0  3  0  0  0  0  0  0
  189.9670  175.6440  137.9060 C   0  0  0  0  0  0  0  0  0  0  0  0
  187.7730  176.1980  137.0400 C   0  0  0  0  0  3  0  0  0  0  0  0
  1 10  1  0  0  0  0
  2 15  1  0  0  0  0
  3 14  1  0  0  0  0
  4  1  1  1  0  0  0
  4 13  1  0  0  0  0
  5  3  1  1  0  0  0
  6  4  1  0  0  0  0
  6  2  1  0  0  0  0
  8 11  1  6  0  0  0
  8  5  1  0  0  0  0
  8  9  1  0  0  0  0
  9 14  1  0  0  0  0
 10  7  1  1  0  0  0
 10  5  1  0  0  0  0
 12  2  2  0  0  0  0
 13 15  1  0  0  0  0
 13  8  1  0  0  0  0
 14 16  1  0  0  0  0
 15 20  1  0  0  0  0
 16 17  1  0  0  0  0
 18 19  2  0  0  0  0
 19 10  1  0  0  0  0
 20 21  1  0  0  0  0
 21 23  1  0  0  0  0
 23 22  1  0  0  0  0
 24 20  1  0  0  0  0
 24 25  1  0  0  0  0
 25 26  1  0  0  0  0
 27 28  2  0  0  0  0
 28 25  1  0  0  0  0
 29  6  1  0  0  0  0
 30 29  1  0  0  0  0
 31 32  1  0  0  0  0
 32 30  1  0  0  0  0
 33 32  2  0  0  0  0
 34 36  1  0  0  0  0
 35 37  1  0  0  0  0
 35 36  2  0  0  0  0
 36 33  1  0  0  0  0
 37 31  2  0  0  0  0
M  END
>  <MODEL>
2

>  <REMARK>
 VINA RESULT:      -6.0      6.303     10.655
  Name = 
  11 active torsions:
  status: ('A' for Active; 'I' for Inactive)
    1  A    between atoms: C_1  and  O_5
    2  A    between atoms: C_1  and  C_33
    3  A    between atoms: C_1  and  C_36
    4  A    between atoms: O_3  and  C_32
    5  A    between atoms: O_5  and  C_23
    6  A    between atoms: C_6  and  C_31
    7  A    between atoms: N_14  and  C_37
    8  A    between atoms: C_17  and  C_33
    9  A    between atoms: C_17  and  C_34
   10  A    between atoms: C_24  and  C_28
   11  A    between atoms: C_31  and  C_37
                            x       y       z     vdW  Elec       q    Type
                         _______ _______ _______ _____ _____    ______ ____

>  <TORSDO>
F 11

$$$$
=
 OpenBabel10262422593D

 37 40  0  0  1  0  0  0  0  0999 V2000
  181.6750  178.8990  141.3230 C   0  0  0  0  0  2  0  0  0  0  0  0
  184.5850  178.3270  139.8630 C   0  0  0  0  0  0  0  0  0  0  0  0
  179.2890  177.0750  139.1340 C   0  0  0  0  0  2  0  0  0  0  0  0
  182.8060  177.8560  141.3200 C   0  0  2  0  0  3  0  0  0  0  0  0
  180.2520  177.2540  140.0360 C   0  0  1  0  0  3  0  0  0  0  0  0
  184.0850  178.5250  141.1790 N   0  0  0  0  0  0  0  0  0  0  0  0
  179.3900  179.5050  140.6960 C   0  0  0  0  0  1  0  0  0  0  0  0
  181.3810  176.3040  139.8250 C   0  0  2  0  0  0  0  0  0  0  0  0
  181.1470  175.7580  138.4250 C   0  0  0  0  0  2  0  0  0  0  0  0
  180.2570  178.3290  141.1190 C   0  0  2  0  0  0  0  0  0  0  0  0
  181.2670  175.1390  140.7960 C   0  0  0  0  0  1  0  0  0  0  0  0
  185.7390  178.6840  139.5050 O   0  0  0  0  0  0  0  0  0  0  0  0
  182.7290  176.9970  140.0520 C   0  0  1  0  0  3  0  0  0  0  0  0
  179.6640  176.0160  138.1500 C   0  0  1  0  0  3  0  0  0  0  0  0
  183.6010  177.6640  138.9620 C   0  0  1  0  0  3  0  0  0  0  0  0
  178.9320  174.8580  138.4130 O   0  0  0  0  0  0  0  0  0  0  0  0
  179.7400  173.8720  138.0820 O   0  0  0  0  0  1  0  0  0  0  0  0
  179.6260  178.5290  143.5340 C   0  0  0  0  0  2  0  0  0  0  0  0
  179.6870  177.8090  142.4120 C   0  0  0  0  0  3  0  0  0  0  0  0
  182.8910  178.7780  138.1560 C   0  0  2  0  0  3  0  0  0  0  0  0
  183.2480  178.7620  136.8050 O   0  0  0  0  0  0  0  0  0  0  0  0
  182.4640  176.9610  135.4620 C   0  0  0  0  0  1  0  0  0  0  0  0
  183.4680  177.4150  136.5000 C   0  0  0  0  0  2  0  0  0  0  0  0
  183.1610  180.1710  138.7500 C   0  0  0  0  0  2  0  0  0  0  0  0
  181.9450  181.0870  138.6760 C   0  0  1  0  0  3  0  0  0  0  0  0
  182.3490  182.3850  138.3610 O   0  0  0  0  0  1  0  0  0  0  0  0
  180.7730  181.2990  136.5320 C   0  0  0  0  0  2  0  0  0  0  0  0
  181.0150  180.5800  137.6260 C   0  0  0  0  0  3  0  0  0  0  0  0
  184.7540  179.2600  142.2470 C   0  0  0  0  0  2  0  0  0  0  0  0
  184.4260  178.6710  143.6180 C   0  0  0  0  0  2  0  0  0  0  0  0
  186.7690  177.7770  143.7170 C   0  0  0  0  0  3  0  0  0  0  0  0
  185.6600  178.3180  144.3780 C   0  0  0  0  0  0  0  0  0  0  0  0
  185.6910  178.4860  145.7670 C   0  0  0  0  0  3  0  0  0  0  0  0
  186.8520  178.2770  147.8380 F   0  0  0  0  0  0  0  0  0  0  0  0
  187.9350  177.5790  145.8310 C   0  0  0  0  0  3  0  0  0  0  0  0
  186.8270  178.1180  146.4930 C   0  0  0  0  0  0  0  0  0  0  0  0
  187.9060  177.4100  144.4430 C   0  0  0  0  0  3  0  0  0  0  0  0
  2  6  1  0  0  0  0
  4  1  1  6  0  0  0
  5  3  1  6  0  0  0
  5 10  1  0  0  0  0
  6  4  1  0  0  0  0
  6 29  1  0  0  0  0
  8  5  1  0  0  0  0
  8 13  1  0  0  0  0
  8 11  1  1  0  0  0
  9  8  1  0  0  0  0
 10  7  1  6  0  0  0
 10  1  1  0  0  0  0
 10 19  1  0  0  0  0
 12  2  2  0  0  0  0
 13  4  1  0  0  0  0
 14 16  1  0  0  0  0
 14  9  1  0  0  0  0
 14  3  1  0  0  0  0
 15  2  1  0  0  0  0
 15 13  1  0  0  0  0
 17 16  1  0  0  0  0
 19 18  2  0  0  0  0
 20 24  1  0  0  0  0
 20 15  1  0  0  0  0
 21 20  1  0  0  0  0
 22 23  1  0  0  0  0
 23 21  1  0  0  0  0
 25 24  1  0  0  0  0
 26 25  1  0  0  0  0
 27 28  2  0  0  0  0
 28 25  1  0  0  0  0
 29 30  1  0  0  0  0
 30 32  1  0  0  0  0
 31 32  2  0  0  0  0
 31 37  1  0  0  0  0
 32 33  1  0  0  0  0
 33 36  2  0  0  0  0
 35 36  1  0  0  0  0
 36 34  1  0  0  0  0
 37 35  2  0  0  0  0
M  END
>  <MODEL>
3

>  <REMARK>
 VINA RESULT:      -5.7      1.792      2.639
  Name = 
  11 active torsions:
  status: ('A' for Active; 'I' for Inactive)
    1  A    between atoms: C_1  and  O_5
    2  A    between atoms: C_1  and  C_33
    3  A    between atoms: C_1  and  C_36
    4  A    between atoms: O_3  and  C_32
    5  A    between atoms: O_5  and  C_23
    6  A    between atoms: C_6  and  C_31
    7  A    between atoms: N_14  and  C_37
    8  A    between atoms: C_17  and  C_33
    9  A    between atoms: C_17  and  C_34
   10  A    between atoms: C_24  and  C_28
   11  A    between atoms: C_31  and  C_37
                            x       y       z     vdW  Elec       q    Type
                         _______ _______ _______ _____ _____    ______ ____

>  <TORSDO>
F 11

$$$$
=
 OpenBabel10262422593D

 37 40  0  0  1  0  0  0  0  0999 V2000
  189.7040  178.6930  142.8720 C   0  0  0  0  0  2  0  0  0  0  0  0
  186.8030  177.1610  143.2820 C   0  0  0  0  0  0  0  0  0  0  0  0
  191.6810  177.4950  145.7810 C   0  0  0  0  0  2  0  0  0  0  0  0
  189.0140  177.3640  142.5210 C   0  0  2  0  0  3  0  0  0  0  0  0
  191.0600  177.4510  144.6040 C   0  0  1  0  0  3  0  0  0  0  0  0
  187.6190  177.6060  142.2060 N   0  0  0  0  0  0  0  0  0  0  0  0
  191.3520  179.9020  144.2140 C   0  0  0  0  0  1  0  0  0  0  0  0
  190.2760  176.1930  144.4470 C   0  0  2  0  0  0  0  0  0  0  0  0
  190.1950  175.6310  145.8580 C   0  0  0  0  0  2  0  0  0  0  0  0
  191.0790  178.5580  143.5550 C   0  0  2  0  0  0  0  0  0  0  0  0
  191.0550  175.1970  143.6010 C   0  0  0  0  0  1  0  0  0  0  0  0
  185.5450  177.1280  143.2210 O   0  0  0  0  0  0  0  0  0  0  0  0
  188.9330  176.4670  143.7620 C   0  0  1  0  0  3  0  0  0  0  0  0
  191.3500  176.2970  146.6090 C   0  0  1  0  0  3  0  0  0  0  0  0
  187.5910  176.7530  144.4780 C   0  0  1  0  0  3  0  0  0  0  0  0
  192.4470  175.4350  146.6370 O   0  0  0  0  0  0  0  0  0  0  0  0
  192.9470  175.5730  147.8470 O   0  0  0  0  0  1  0  0  0  0  0  0
  192.0180  177.6100  141.4360 C   0  0  0  0  0  2  0  0  0  0  0  0
  192.1720  178.3390  142.5430 C   0  0  0  0  0  3  0  0  0  0  0  0
  187.6180  177.9590  145.4470 C   0  0  2  0  0  3  0  0  0  0  0  0
  187.7450  177.5620  146.7810 O   0  0  0  0  0  0  0  0  0  0  0  0
  188.7080  178.2530  148.8440 C   0  0  0  0  0  1  0  0  0  0  0  0
  188.6590  178.4560  147.3450 C   0  0  0  0  0  2  0  0  0  0  0  0
  186.3740  178.8480  145.2840 C   0  0  0  0  0  2  0  0  0  0  0  0
  185.3450  178.6280  146.3870 C   0  0  1  0  0  3  0  0  0  0  0  0
  185.4690  179.6260  147.3550 O   0  0  0  0  0  1  0  0  0  0  0  0
  183.7370  179.3760  144.6940 C   0  0  0  0  0  2  0  0  0  0  0  0
  183.9770  178.6680  145.7950 C   0  0  0  0  0  3  0  0  0  0  0  0
  187.1450  178.1910  140.9560 C   0  0  0  0  0  2  0  0  0  0  0  0
  185.9890  179.1600  141.1980 C   0  0  0  0  0  2  0  0  0  0  0  0
  184.8540  178.6280  139.0240 C   0  0  0  0  0  3  0  0  0  0  0  0
  184.7780  178.7820  140.4130 C   0  0  0  0  0  0  0  0  0  0  0  0
  183.5490  178.6290  141.0640 C   0  0  0  0  0  3  0  0  0  0  0  0
  181.2120  178.1750  140.9640 F   0  0  0  0  0  0  0  0  0  0  0  0
  182.4790  178.1610  138.9440 C   0  0  0  0  0  3  0  0  0  0  0  0
  182.4000  178.3180  140.3310 C   0  0  0  0  0  0  0  0  0  0  0  0
  183.7050  178.3150  138.2910 C   0  0  0  0  0  3  0  0  0  0  0  0
  1 10  1  0  0  0  0
  2 15  1  0  0  0  0
  3 14  1  0  0  0  0
  4  1  1  1  0  0  0
  4 13  1  0  0  0  0
  5  3  1  1  0  0  0
  6  4  1  0  0  0  0
  6  2  1  0  0  0  0
  8 11  1  6  0  0  0
  8  5  1  0  0  0  0
  8  9  1  0  0  0  0
  9 14  1  0  0  0  0
 10  7  1  1  0  0  0
 10  5  1  0  0  0  0
 12  2  2  0  0  0  0
 13  8  1  0  0  0  0
 13 15  1  0  0  0  0
 14 16  1  0  0  0  0
 15 20  1  0  0  0  0
 16 17  1  0  0  0  0
 18 19  2  0  0  0  0
 19 10  1  0  0  0  0
 20 21  1  0  0  0  0
 21 23  1  0  0  0  0
 23 22  1  0  0  0  0
 24 20  1  0  0  0  0
 24 25  1  0  0  0  0
 25 26  1  0  0  0  0
 27 28  2  0  0  0  0
 28 25  1  0  0  0  0
 29 30  1  0  0  0  0
 29  6  1  0  0  0  0
 31 32  1  0  0  0  0
 32 33  2  0  0  0  0
 32 30  1  0  0  0  0
 35 36  2  0  0  0  0
 36 34  1  0  0  0  0
 36 33  1  0  0  0  0
 37 35  1  0  0  0  0
 37 31  2  0  0  0  0
M  END
>  <MODEL>
4

>  <REMARK>
 VINA RESULT:      -5.7      4.804     10.439
  Name = 
  11 active torsions:
  status: ('A' for Active; 'I' for Inactive)
    1  A    between atoms: C_1  and  O_5
    2  A    between atoms: C_1  and  C_33
    3  A    between atoms: C_1  and  C_36
    4  A    between atoms: O_3  and  C_32
    5  A    between atoms: O_5  and  C_23
    6  A    between atoms: C_6  and  C_31
    7  A    between atoms: N_14  and  C_37
    8  A    between atoms: C_17  and  C_33
    9  A    between atoms: C_17  and  C_34
   10  A    between atoms: C_24  and  C_28
   11  A    between atoms: C_31  and  C_37
                            x       y       z     vdW  Elec       q    Type
                         _______ _______ _______ _____ _____    ______ ____

>  <TORSDO>
F 11

$$$$
=
 OpenBabel10262422593D

 37 40  0  0  1  0  0  0  0  0999 V2000
  182.5930  176.6340  139.0850 C   0  0  0  0  0  2  0  0  0  0  0  0
  182.9280  179.8870  138.6010 C   0  0  0  0  0  0  0  0  0  0  0  0
  179.7220  175.7700  136.8890 C   0  0  0  0  0  2  0  0  0  0  0  0
  183.3000  177.6160  138.1360 C   0  0  2  0  0  3  0  0  0  0  0  0
  180.9630  176.1180  137.2240 C   0  0  1  0  0  3  0  0  0  0  0  0
  183.7610  178.7710  138.8830 N   0  0  0  0  0  0  0  0  0  0  0  0
  180.8090  175.0030  139.4550 C   0  0  0  0  0  1  0  0  0  0  0  0
  181.4810  177.2060  136.3470 C   0  0  2  0  0  0  0  0  0  0  0  0
  180.2380  177.7460  135.6560 C   0  0  0  0  0  2  0  0  0  0  0  0
  181.7560  175.5400  138.3930 C   0  0  2  0  0  0  0  0  0  0  0  0
  182.3850  176.6210  135.2730 C   0  0  0  0  0  1  0  0  0  0  0  0
  183.1780  181.0520  139.0100 O   0  0  0  0  0  0  0  0  0  0  0  0
  182.2880  178.2260  137.1580 C   0  0  1  0  0  3  0  0  0  0  0  0
  179.2080  176.6210  135.7740 C   0  0  1  0  0  3  0  0  0  0  0  0
  181.7340  179.5280  137.7840 C   0  0  1  0  0  3  0  0  0  0  0  0
  179.1910  175.8780  134.5940 O   0  0  0  0  0  0  0  0  0  0  0  0
  178.9310  174.6470  134.9800 O   0  0  0  0  0  1  0  0  0  0  0  0
  183.9230  174.4980  137.6960 C   0  0  0  0  0  2  0  0  0  0  0  0
  182.6190  174.3870  137.9550 C   0  0  0  0  0  3  0  0  0  0  0  0
  180.5510  179.3260  138.7610 C   0  0  2  0  0  3  0  0  0  0  0  0
  179.3670  179.8910  138.2800 O   0  0  0  0  0  0  0  0  0  0  0  0
  178.9860  182.1960  137.8280 C   0  0  0  0  0  1  0  0  0  0  0  0
  179.7720  180.9540  137.4670 C   0  0  0  0  0  2  0  0  0  0  0  0
  180.8650  179.8840  140.1590 C   0  0  0  0  0  2  0  0  0  0  0  0
  180.1500  179.1240  141.2700 C   0  0  1  0  0  3  0  0  0  0  0  0
  179.7490  177.8710  140.8030 O   0  0  0  0  0  1  0  0  0  0  0  0
  180.6080  178.7050  143.6430 C   0  0  0  0  0  2  0  0  0  0  0  0
  181.0800  178.9570  142.4250 C   0  0  0  0  0  3  0  0  0  0  0  0
  184.9250  178.7710  139.7630 C   0  0  0  0  0  2  0  0  0  0  0  0
  184.5220  178.9950  141.2200 C   0  0  0  0  0  2  0  0  0  0  0  0
  186.8900  178.3260  141.7160 C   0  0  0  0  0  3  0  0  0  0  0  0
  185.5790  178.5270  142.1630 C   0  0  0  0  0  0  0  0  0  0  0  0
  185.2450  178.2420  143.4920 C   0  0  0  0  0  3  0  0  0  0  0  0
  185.8910  177.4820  145.6560 F   0  0  0  0  0  0  0  0  0  0  0  0
  187.5280  177.5640  143.9240 C   0  0  0  0  0  3  0  0  0  0  0  0
  186.2180  177.7610  144.3730 C   0  0  0  0  0  0  0  0  0  0  0  0
  187.8640  177.8470  142.5970 C   0  0  0  0  0  3  0  0  0  0  0  0
  2  6  1  0  0  0  0
  2 12  2  0  0  0  0
  4  6  1  0  0  0  0
  4  1  1  1  0  0  0
  5  3  1  1  0  0  0
  5 10  1  0  0  0  0
  6 29  1  0  0  0  0
  8 11  1  6  0  0  0
  8 13  1  0  0  0  0
  8  5  1  0  0  0  0
  9 14  1  0  0  0  0
  9  8  1  0  0  0  0
 10  1  1  0  0  0  0
 10  7  1  1  0  0  0
 13 15  1  0  0  0  0
 13  4  1  0  0  0  0
 14  3  1  0  0  0  0
 15  2  1  0  0  0  0
 15 20  1  0  0  0  0
 16 17  1  0  0  0  0
 16 14  1  0  0  0  0
 18 19  2  0  0  0  0
 19 10  1  0  0  0  0
 20 24  1  0  0  0  0
 21 20  1  0  0  0  0
 23 22  1  0  0  0  0
 23 21  1  0  0  0  0
 24 25  1  0  0  0  0
 25 28  1  0  0  0  0
 26 25  1  0  0  0  0
 28 27  2  0  0  0  0
 29 30  1  0  0  0  0
 30 32  1  0  0  0  0
 31 32  2  0  0  0  0
 31 37  1  0  0  0  0
 32 33  1  0  0  0  0
 33 36  2  0  0  0  0
 35 36  1  0  0  0  0
 36 34  1  0  0  0  0
 37 35  2  0  0  0  0
M  END
>  <MODEL>
5

>  <REMARK>
 VINA RESULT:      -5.6      1.619      2.923
  Name = 
  11 active torsions:
  status: ('A' for Active; 'I' for Inactive)
    1  A    between atoms: C_1  and  O_5
    2  A    between atoms: C_1  and  C_33
    3  A    between atoms: C_1  and  C_36
    4  A    between atoms: O_3  and  C_32
    5  A    between atoms: O_5  and  C_23
    6  A    between atoms: C_6  and  C_31
    7  A    between atoms: N_14  and  C_37
    8  A    between atoms: C_17  and  C_33
    9  A    between atoms: C_17  and  C_34
   10  A    between atoms: C_24  and  C_28
   11  A    between atoms: C_31  and  C_37
                            x       y       z     vdW  Elec       q    Type
                         _______ _______ _______ _____ _____    ______ ____

>  <TORSDO>
F 11

$$$$
=
 OpenBabel10262422593D

 37 40  0  0  1  0  0  0  0  0999 V2000
  182.1630  178.7470  137.6250 C   0  0  0  0  0  2  0  0  0  0  0  0
  183.2720  175.7110  138.3180 C   0  0  0  0  0  0  0  0  0  0  0  0
  179.2950  179.1240  139.9570 C   0  0  0  0  0  2  0  0  0  0  0  0
  183.1300  178.0390  138.5880 C   0  0  2  0  0  3  0  0  0  0  0  0
  180.5630  179.0390  139.5580 C   0  0  1  0  0  3  0  0  0  0  0  0
  183.8060  176.9590  137.8950 N   0  0  0  0  0  0  0  0  0  0  0  0
  180.0310  179.8900  137.2690 C   0  0  0  0  0  1  0  0  0  0  0  0
  181.3670  178.1790  140.4710 C   0  0  2  0  0  0  0  0  0  0  0  0
  180.3240  177.4320  141.2890 C   0  0  0  0  0  2  0  0  0  0  0  0
  181.1330  179.6780  138.2960 C   0  0  2  0  0  0  0  0  0  0  0  0
  182.1670  179.0460  141.4310 C   0  0  0  0  0  1  0  0  0  0  0  0
  183.7640  174.6030  137.9770 O   0  0  0  0  0  0  0  0  0  0  0  0
  182.3430  177.3020  139.6800 C   0  0  1  0  0  3  0  0  0  0  0  0
  179.0550  178.2790  141.1660 C   0  0  1  0  0  3  0  0  0  0  0  0
  182.0750  175.8580  139.1920 C   0  0  1  0  0  3  0  0  0  0  0  0
  178.9310  179.0990  142.2880 O   0  0  0  0  0  0  0  0  0  0  0  0
  179.2210  178.3150  143.3060 O   0  0  0  0  0  1  0  0  0  0  0  0
  181.2280  182.1730  138.1090 C   0  0  0  0  0  2  0  0  0  0  0  0
  181.7280  181.0310  138.5840 C   0  0  0  0  0  3  0  0  0  0  0  0
  180.8250  175.7000  138.2930 C   0  0  2  0  0  3  0  0  0  0  0  0
  179.6750  175.4140  139.0330 O   0  0  0  0  0  0  0  0  0  0  0  0
  179.3380  173.9020  140.8380 C   0  0  0  0  0  1  0  0  0  0  0  0
  179.8050  174.0740  139.4090 C   0  0  0  0  0  2  0  0  0  0  0  0
  181.0320  174.6230  137.2140 C   0  0  0  0  0  2  0  0  0  0  0  0
  180.6980  175.1210  135.8130 C   0  0  1  0  0  3  0  0  0  0  0  0
  180.3650  176.4760  135.8600 O   0  0  0  0  0  1  0  0  0  0  0  0
  182.5160  173.7530  134.8980 C   0  0  0  0  0  2  0  0  0  0  0  0
  181.8820  174.9230  134.9290 C   0  0  0  0  0  3  0  0  0  0  0  0
  184.8880  177.1460  136.9340 C   0  0  0  0  0  2  0  0  0  0  0  0
  186.0640  177.8950  137.5580 C   0  0  0  0  0  2  0  0  0  0  0  0
  187.3170  175.8050  136.9570 C   0  0  0  0  0  3  0  0  0  0  0  0
  187.3110  177.0750  137.5450 C   0  0  0  0  0  0  0  0  0  0  0  0
  188.4680  177.5620  138.1650 C   0  0  0  0  0  3  0  0  0  0  0  0
  190.7440  177.2540  138.8010 F   0  0  0  0  0  0  0  0  0  0  0  0
  189.6330  175.5150  137.6060 C   0  0  0  0  0  3  0  0  0  0  0  0
  189.6280  176.7830  138.1950 C   0  0  0  0  0  0  0  0  0  0  0  0
  188.4790  175.0270  136.9860 C   0  0  0  0  0  3  0  0  0  0  0  0
  1 10  1  0  0  0  0
  2 15  1  0  0  0  0
  3 14  1  0  0  0  0
  4  1  1  6  0  0  0
  4 13  1  0  0  0  0
  5  3  1  6  0  0  0
  5  8  1  0  0  0  0
  6  2  1  0  0  0  0
  6  4  1  0  0  0  0
  8  9  1  0  0  0  0
  8 11  1  1  0  0  0
 10  7  1  6  0  0  0
 10 19  1  0  0  0  0
 10  5  1  0  0  0  0
 12  2  2  0  0  0  0
 13  8  1  0  0  0  0
 14  9  1  0  0  0  0
 14 16  1  0  0  0  0
 15 13  1  0  0  0  0
 16 17  1  0  0  0  0
 18 19  2  0  0  0  0
 20 21  1  0  0  0  0
 20 15  1  0  0  0  0
 21 23  1  0  0  0  0
 23 22  1  0  0  0  0
 24 20  1  0  0  0  0
 25 26  1  0  0  0  0
 25 24  1  0  0  0  0
 27 28  2  0  0  0  0
 28 25  1  0  0  0  0
 29 30  1  0  0  0  0
 29  6  1  0  0  0  0
 31 37  2  0  0  0  0
 31 32  1  0  0  0  0
 32 30  1  0  0  0  0
 32 33  2  0  0  0  0
 33 36  1  0  0  0  0
 35 36  2  0  0  0  0
 36 34  1  0  0  0  0
 37 35  1  0  0  0  0
M  END
>  <MODEL>
6

>  <REMARK>
 VINA RESULT:      -5.4      3.162      6.331
  Name = 
  11 active torsions:
  status: ('A' for Active; 'I' for Inactive)
    1  A    between atoms: C_1  and  O_5
    2  A    between atoms: C_1  and  C_33
    3  A    between atoms: C_1  and  C_36
    4  A    between atoms: O_3  and  C_32
    5  A    between atoms: O_5  and  C_23
    6  A    between atoms: C_6  and  C_31
    7  A    between atoms: N_14  and  C_37
    8  A    between atoms: C_17  and  C_33
    9  A    between atoms: C_17  and  C_34
   10  A    between atoms: C_24  and  C_28
   11  A    between atoms: C_31  and  C_37
                            x       y       z     vdW  Elec       q    Type
                         _______ _______ _______ _____ _____    ______ ____

>  <TORSDO>
F 11

$$$$
=
 OpenBabel10262422593D

 37 40  0  0  1  0  0  0  0  0999 V2000
  187.4230  175.4610  136.3370 C   0  0  0  0  0  2  0  0  0  0  0  0
  188.1320  178.6510  136.8380 C   0  0  0  0  0  0  0  0  0  0  0  0
  183.9450  175.1850  137.6170 C   0  0  0  0  0  2  0  0  0  0  0  0
  187.2840  176.8220  135.6350 C   0  0  2  0  0  3  0  0  0  0  0  0
  184.9390  175.5260  136.8000 C   0  0  1  0  0  3  0  0  0  0  0  0
  188.4580  177.6310  135.9020 N   0  0  0  0  0  0  0  0  0  0  0  0
  186.3630  173.6040  137.5240 C   0  0  0  0  0  1  0  0  0  0  0  0
  184.7950  176.9300  136.3210 C   0  0  2  0  0  0  0  0  0  0  0  0
  183.7650  177.5370  137.2620 C   0  0  0  0  0  2  0  0  0  0  0  0
  186.1230  174.6360  136.4330 C   0  0  2  0  0  0  0  0  0  0  0  0
  184.2010  176.9430  134.9210 C   0  0  0  0  0  1  0  0  0  0  0  0
  188.9270  179.5770  137.1480 O   0  0  0  0  0  0  0  0  0  0  0  0
  186.1550  177.6370  136.2790 C   0  0  1  0  0  3  0  0  0  0  0  0
  183.0220  176.3370  137.8510 C   0  0  1  0  0  3  0  0  0  0  0  0
  186.7650  178.4980  137.4100 C   0  0  1  0  0  3  0  0  0  0  0  0
  181.8360  176.1310  137.1470 O   0  0  0  0  0  0  0  0  0  0  0  0
  181.0980  175.3900  137.9480 O   0  0  0  0  0  1  0  0  0  0  0  0
  185.4850  172.5970  135.1290 C   0  0  0  0  0  2  0  0  0  0  0  0
  185.8650  173.8750  135.1600 C   0  0  0  0  0  3  0  0  0  0  0  0
  186.9120  177.7730  138.7690 C   0  0  2  0  0  3  0  0  0  0  0  0
  186.6760  178.6260  139.8510 O   0  0  0  0  0  0  0  0  0  0  0  0
  184.9520  178.6490  141.4900 C   0  0  0  0  0  1  0  0  0  0  0  0
  185.2880  178.6350  140.0140 C   0  0  0  0  0  2  0  0  0  0  0  0
  188.2950  177.1150  138.9170 C   0  0  0  0  0  2  0  0  0  0  0  0
  189.0900  177.6750  140.0900 C   0  0  1  0  0  3  0  0  0  0  0  0
  188.7390  177.0040  141.2620 O   0  0  0  0  0  1  0  0  0  0  0  0
  190.9790  176.4770  139.0840 C   0  0  0  0  0  2  0  0  0  0  0  0
  190.5470  177.4960  139.8230 C   0  0  0  0  0  3  0  0  0  0  0  0
  189.7590  177.4300  135.2730 C   0  0  0  0  0  2  0  0  0  0  0  0
  189.9470  175.9780  134.8360 C   0  0  0  0  0  2  0  0  0  0  0  0
  190.9260  174.0760  136.1480 C   0  0  0  0  0  3  0  0  0  0  0  0
  191.0870  175.3300  135.5490 C   0  0  0  0  0  0  0  0  0  0  0  0
  192.3090  176.0040  135.6590 C   0  0  0  0  0  3  0  0  0  0  0  0
  194.5470  176.0810  136.4720 F   0  0  0  0  0  0  0  0  0  0  0  0
  193.2070  174.1700  136.9580 C   0  0  0  0  0  3  0  0  0  0  0  0
  193.3680  175.4240  136.3630 C   0  0  0  0  0  0  0  0  0  0  0  0
  191.9870  173.4950  136.8500 C   0  0  0  0  0  3  0  0  0  0  0  0
  1 10  1  0  0  0  0
  2 12  2  0  0  0  0
  2 15  1  0  0  0  0
  3 14  1  0  0  0  0
  4  6  1  0  0  0  0
  4 13  1  0  0  0  0
  4  1  1  1  0  0  0
  5  3  1  1  0  0  0
  6  2  1  0  0  0  0
  8 11  1  6  0  0  0
  8  5  1  0  0  0  0
  8  9  1  0  0  0  0
  9 14  1  0  0  0  0
 10  5  1  0  0  0  0
 10  7  1  1  0  0  0
 13  8  1  0  0  0  0
 13 15  1  0  0  0  0
 15 20  1  0  0  0  0
 16 14  1  0  0  0  0
 16 17  1  0  0  0  0
 18 19  2  0  0  0  0
 19 10  1  0  0  0  0
 20 24  1  0  0  0  0
 20 21  1  0  0  0  0
 21 23  1  0  0  0  0
 23 22  1  0  0  0  0
 24 25  1  0  0  0  0
 25 26  1  0  0  0  0
 27 28  2  0  0  0  0
 28 25  1  0  0  0  0
 29  6  1  0  0  0  0
 30 29  1  0  0  0  0
 30 32  1  0  0  0  0
 31 37  1  0  0  0  0
 32 33  1  0  0  0  0
 32 31  2  0  0  0  0
 33 36  2  0  0  0  0
 36 34  1  0  0  0  0
 36 35  1  0  0  0  0
 37 35  2  0  0  0  0
M  END
>  <MODEL>
7

>  <REMARK>
 VINA RESULT:      -5.3      5.670      7.911
  Name = 
  11 active torsions:
  status: ('A' for Active; 'I' for Inactive)
    1  A    between atoms: C_1  and  O_5
    2  A    between atoms: C_1  and  C_33
    3  A    between atoms: C_1  and  C_36
    4  A    between atoms: O_3  and  C_32
    5  A    between atoms: O_5  and  C_23
    6  A    between atoms: C_6  and  C_31
    7  A    between atoms: N_14  and  C_37
    8  A    between atoms: C_17  and  C_33
    9  A    between atoms: C_17  and  C_34
   10  A    between atoms: C_24  and  C_28
   11  A    between atoms: C_31  and  C_37
                            x       y       z     vdW  Elec       q    Type
                         _______ _______ _______ _____ _____    ______ ____

>  <TORSDO>
F 11

$$$$
=
 OpenBabel10262422593D

 37 40  0  0  1  0  0  0  0  0999 V2000
  181.3870  179.4590  141.2310 C   0  0  0  0  0  2  0  0  0  0  0  0
  184.3760  178.0470  141.1980 C   0  0  0  0  0  0  0  0  0  0  0  0
  179.5640  177.5790  138.5950 C   0  0  0  0  0  2  0  0  0  0  0  0
  182.1350  178.2710  141.8610 C   0  0  2  0  0  3  0  0  0  0  0  0
  180.1500  177.8120  139.7680 C   0  0  1  0  0  3  0  0  0  0  0  0
  183.5060  178.6530  142.1440 N   0  0  0  0  0  0  0  0  0  0  0  0
  179.7180  180.2690  139.6390 C   0  0  0  0  0  1  0  0  0  0  0  0
  180.9950  176.6600  140.1940 C   0  0  2  0  0  0  0  0  0  0  0  0
  181.1480  175.8270  138.9300 C   0  0  0  0  0  2  0  0  0  0  0  0
  180.0410  179.1070  140.5660 C   0  0  2  0  0  0  0  0  0  0  0  0
  180.2460  175.8150  141.2130 C   0  0  0  0  0  1  0  0  0  0  0  0
  185.6320  178.1000  141.2870 O   0  0  0  0  0  0  0  0  0  0  0  0
  182.3010  177.1460  140.8320 C   0  0  1  0  0  3  0  0  0  0  0  0
  179.9820  176.2570  138.0370 C   0  0  1  0  0  3  0  0  0  0  0  0
  183.6460  177.3570  140.0970 C   0  0  1  0  0  3  0  0  0  0  0  0
  178.9340  175.3460  138.1680 O   0  0  0  0  0  0  0  0  0  0  0  0
  179.1900  174.4160  137.2710 O   0  0  0  0  0  1  0  0  0  0  0  0
  179.0170  179.5610  142.8050 C   0  0  0  0  0  2  0  0  0  0  0  0
  178.9320  179.0360  141.5810 C   0  0  0  0  0  3  0  0  0  0  0  0
  183.5840  178.3360  138.9000 C   0  0  2  0  0  3  0  0  0  0  0  0
  182.9900  177.7580  137.7750 O   0  0  0  0  0  0  0  0  0  0  0  0
  181.9290  178.3470  135.7290 C   0  0  0  0  0  1  0  0  0  0  0  0
  182.3890  178.8190  137.0910 C   0  0  0  0  0  2  0  0  0  0  0  0
  184.9770  178.8770  138.5340 C   0  0  0  0  0  2  0  0  0  0  0  0
  185.8650  177.8220  137.8840 C   0  0  1  0  0  3  0  0  0  0  0  0
  185.7910  177.9330  136.4950 O   0  0  0  0  0  1  0  0  0  0  0  0
  188.1910  177.0850  138.1240 C   0  0  0  0  0  2  0  0  0  0  0  0
  187.2730  178.0250  138.3320 C   0  0  0  0  0  3  0  0  0  0  0  0
  183.9110  179.5080  143.2550 C   0  0  0  0  0  2  0  0  0  0  0  0
  183.6890  178.8170  144.5990 C   0  0  0  0  0  2  0  0  0  0  0  0
  185.1450  178.6360  146.6350 C   0  0  0  0  0  3  0  0  0  0  0  0
  184.9800  178.4600  145.2570 C   0  0  0  0  0  0  0  0  0  0  0  0
  186.0460  177.9910  144.4810 C   0  0  0  0  0  3  0  0  0  0  0  0
  188.3050  177.2470  144.3280 F   0  0  0  0  0  0  0  0  0  0  0  0
  187.4360  177.8700  146.4590 C   0  0  0  0  0  3  0  0  0  0  0  0
  187.2730  177.6950  145.0820 C   0  0  0  0  0  0  0  0  0  0  0  0
  186.3730  178.3380  147.2360 C   0  0  0  0  0  3  0  0  0  0  0  0
  2 12  2  0  0  0  0
  2  6  1  0  0  0  0
  4  1  1  6  0  0  0
  4  6  1  0  0  0  0
  5  3  1  6  0  0  0
  5  8  1  0  0  0  0
  5 10  1  0  0  0  0
  6 29  1  0  0  0  0
  8 13  1  0  0  0  0
  8 11  1  1  0  0  0
  9  8  1  0  0  0  0
 10  7  1  6  0  0  0
 10  1  1  0  0  0  0
 10 19  1  0  0  0  0
 13  4  1  0  0  0  0
 14 16  1  0  0  0  0
 14  3  1  0  0  0  0
 14  9  1  0  0  0  0
 15 13  1  0  0  0  0
 15  2  1  0  0  0  0
 17 16  1  0  0  0  0
 19 18  2  0  0  0  0
 20 15  1  0  0  0  0
 21 20  1  0  0  0  0
 22 23  1  0  0  0  0
 23 21  1  0  0  0  0
 24 20  1  0  0  0  0
 25 28  1  0  0  0  0
 25 24  1  0  0  0  0
 26 25  1  0  0  0  0
 27 28  2  0  0  0  0
 29 30  1  0  0  0  0
 30 32  1  0  0  0  0
 31 37  1  0  0  0  0
 32 31  2  0  0  0  0
 33 36  2  0  0  0  0
 33 32  1  0  0  0  0
 34 36  1  0  0  0  0
 35 37  2  0  0  0  0
 36 35  1  0  0  0  0
M  END
>  <MODEL>
8

>  <REMARK>
 VINA RESULT:      -5.3      2.191      3.833
  Name = 
  11 active torsions:
  status: ('A' for Active; 'I' for Inactive)
    1  A    between atoms: C_1  and  O_5
    2  A    between atoms: C_1  and  C_33
    3  A    between atoms: C_1  and  C_36
    4  A    between atoms: O_3  and  C_32
    5  A    between atoms: O_5  and  C_23
    6  A    between atoms: C_6  and  C_31
    7  A    between atoms: N_14  and  C_37
    8  A    between atoms: C_17  and  C_33
    9  A    between atoms: C_17  and  C_34
   10  A    between atoms: C_24  and  C_28
   11  A    between atoms: C_31  and  C_37
                            x       y       z     vdW  Elec       q    Type
                         _______ _______ _______ _____ _____    ______ ____

>  <TORSDO>
F 11

$$$$
=
 OpenBabel10262422593D

 37 40  0  0  1  0  0  0  0  0999 V2000
  187.9060  177.5660  137.0100 C   0  0  0  0  0  2  0  0  0  0  0  0
  190.2350  176.4430  139.0700 C   0  0  0  0  0  0  0  0  0  0  0  0
  187.5230  174.7620  134.6010 C   0  0  0  0  0  2  0  0  0  0  0  0
  188.0380  176.7280  138.2930 C   0  0  2  0  0  3  0  0  0  0  0  0
  187.4240  175.4290  135.7490 C   0  0  1  0  0  3  0  0  0  0  0  0
  189.0870  177.2790  139.1300 N   0  0  0  0  0  0  0  0  0  0  0  0
  187.4620  177.6520  134.6070 C   0  0  0  0  0  1  0  0  0  0  0  0
  187.7500  174.5610  136.9160 C   0  0  2  0  0  0  0  0  0  0  0  0
  188.4350  173.3520  136.2960 C   0  0  0  0  0  2  0  0  0  0  0  0
  187.0850  176.9110  135.8810 C   0  0  2  0  0  0  0  0  0  0  0  0
  186.4680  174.0730  137.5750 C   0  0  0  0  0  1  0  0  0  0  0  0
  191.2460  176.6120  139.8030 O   0  0  0  0  0  0  0  0  0  0  0  0
  188.5700  175.3290  137.9580 C   0  0  1  0  0  3  0  0  0  0  0  0
  187.9910  173.3620  134.8320 C   0  0  1  0  0  3  0  0  0  0  0  0
  190.1150  175.3640  138.0500 C   0  0  1  0  0  3  0  0  0  0  0  0
  186.9210  172.4820  134.6630 O   0  0  0  0  0  0  0  0  0  0  0  0
  187.4030  171.3040  135.0030 O   0  0  0  0  0  1  0  0  0  0  0  0
  184.7390  177.2840  135.0890 C   0  0  0  0  0  2  0  0  0  0  0  0
  185.6080  177.1210  136.0870 C   0  0  0  0  0  3  0  0  0  0  0  0
  190.8290  175.8580  136.7700 C   0  0  2  0  0  3  0  0  0  0  0  0
  191.1420  174.8080  135.9020 O   0  0  0  0  0  0  0  0  0  0  0  0
  190.5640  176.7840  134.7100 C   0  0  0  0  0  1  0  0  0  0  0  0
  191.0490  175.3530  134.6180 C   0  0  0  0  0  2  0  0  0  0  0  0
  192.1000  176.6580  137.1000 C   0  0  0  0  0  2  0  0  0  0  0  0
  193.3780  175.8860  136.7910 C   0  0  1  0  0  3  0  0  0  0  0  0
  194.3510  176.7580  136.3020 O   0  0  0  0  0  1  0  0  0  0  0  0
  194.5930  174.1180  137.9800 C   0  0  0  0  0  2  0  0  0  0  0  0
  193.8670  175.2320  138.0390 C   0  0  0  0  0  3  0  0  0  0  0  0
  188.9520  178.4940  139.9280 C   0  0  0  0  0  2  0  0  0  0  0  0
  187.8470  178.3540  140.9730 C   0  0  0  0  0  2  0  0  0  0  0  0
  187.5570  177.4760  143.3070 C   0  0  0  0  0  3  0  0  0  0  0  0
  188.3960  177.9910  142.3120 C   0  0  0  0  0  0  0  0  0  0  0  0
  189.7500  178.2130  142.5890 C   0  0  0  0  0  3  0  0  0  0  0  0
  191.5740  178.1370  144.1210 F   0  0  0  0  0  0  0  0  0  0  0  0
  189.4250  177.4000  144.8460 C   0  0  0  0  0  3  0  0  0  0  0  0
  190.2650  177.9170  143.8540 C   0  0  0  0  0  0  0  0  0  0  0  0
  188.0730  177.1780  144.5720 C   0  0  0  0  0  3  0  0  0  0  0  0
  2  6  1  0  0  0  0
  2 12  2  0  0  0  0
  3 14  1  0  0  0  0
  4  1  1  6  0  0  0
  4  6  1  0  0  0  0
  5  3  1  6  0  0  0
  5 10  1  0  0  0  0
  5  8  1  0  0  0  0
  6 29  1  0  0  0  0
  8 11  1  1  0  0  0
  8 13  1  0  0  0  0
  9  8  1  0  0  0  0
 10  7  1  6  0  0  0
 10 19  1  0  0  0  0
 10  1  1  0  0  0  0
 13 15  1  0  0  0  0
 13  4  1  0  0  0  0
 14  9  1  0  0  0  0
 15  2  1  0  0  0  0
 16 14  1  0  0  0  0
 16 17  1  0  0  0  0
 18 19  2  0  0  0  0
 20 24  1  0  0  0  0
 20 15  1  0  0  0  0
 21 20  1  0  0  0  0
 23 22  1  0  0  0  0
 23 21  1  0  0  0  0
 25 24  1  0  0  0  0
 25 28  1  0  0  0  0
 26 25  1  0  0  0  0
 27 28  2  0  0  0  0
 29 30  1  0  0  0  0
 30 32  1  0  0  0  0
 31 37  1  0  0  0  0
 32 33  1  0  0  0  0
 32 31  2  0  0  0  0
 33 36  2  0  0  0  0
 36 34  1  0  0  0  0
 36 35  1  0  0  0  0
 37 35  2  0  0  0  0
M  END
>  <MODEL>
9

>  <REMARK>
 VINA RESULT:      -5.2      6.266      8.438
  Name = 
  11 active torsions:
  status: ('A' for Active; 'I' for Inactive)
    1  A    between atoms: C_1  and  O_5
    2  A    between atoms: C_1  and  C_33
    3  A    between atoms: C_1  and  C_36
    4  A    between atoms: O_3  and  C_32
    5  A    between atoms: O_5  and  C_23
    6  A    between atoms: C_6  and  C_31
    7  A    between atoms: N_14  and  C_37
    8  A    between atoms: C_17  and  C_33
    9  A    between atoms: C_17  and  C_34
   10  A    between atoms: C_24  and  C_28
   11  A    between atoms: C_31  and  C_37
                            x       y       z     vdW  Elec       q    Type
                         _______ _______ _______ _____ _____    ______ ____

>  <TORSDO>
F 11

$$$$
