=
 OpenBabel10262419103D

 34 39  0  0  1  0  0  0  0  0999 V2000
  186.3410  178.3170  140.1450 C   0  0  0  0  0  0  0  0  0  0  0  0
  188.1420  178.5810  141.7520 C   0  0  0  0  0  3  0  0  0  0  0  0
  188.5740  177.6460  145.9470 C   0  0  2  0  0  3  0  0  0  0  0  0
  185.8630  178.5070  142.4980 C   0  0  0  0  0  0  0  0  0  0  0  0
  185.2310  179.4500  144.7660 C   0  0  2  0  0  3  0  0  0  0  0  0
  188.6480  178.3390  139.4000 C   0  0  0  0  0  3  0  0  0  0  0  0
  189.0760  178.5140  140.7160 C   0  0  0  0  0  3  0  0  0  0  0  0
  186.5500  177.4480  144.6940 C   0  0  1  0  0  3  0  0  0  0  0  0
  186.7640  178.4660  141.4910 C   0  0  0  0  0  0  0  0  0  0  0  0
  187.3890  177.6650  146.8890 C   0  0  0  0  0  2  0  0  0  0  0  0
  185.6110  179.0290  146.1660 C   0  0  0  0  0  2  0  0  0  0  0  0
  187.2840  178.2470  139.1150 C   0  0  0  0  0  3  0  0  0  0  0  0
  184.4000  178.2420  142.2200 C   0  0  1  0  0  3  0  0  0  0  0  0
  185.0460  178.3050  139.8340 C   0  0  0  0  0  3  0  0  0  0  0  0
  188.0250  177.1050  144.6570 C   0  0  0  0  0  2  0  0  0  0  0  0
  183.8800  178.9460  144.4970 N   0  0  0  0  0  2  0  0  0  0  0  0
  183.5420  179.1560  143.0920 C   0  0  2  0  0  3  0  0  0  0  0  0
  186.1650  177.6770  146.0920 N   0  0  1  0  0  0  0  0  0  0  0  0
  186.2810  178.7340  143.9330 C   0  0  1  0  0  3  0  0  0  0  0  0
  184.0790  178.4100  140.8360 O   0  0  0  0  0  0  0  0  0  0  0  0
  179.8850  178.4720  143.8060 C   0  0  0  0  0  0  0  0  0  0  0  0
  179.3410  178.4480  142.5180 C   0  0  0  0  0  3  0  0  0  0  0  0
  182.0820  178.9030  142.8770 C   0  0  0  0  0  0  0  0  0  0  0  0
  180.1650  178.6540  141.4080 C   0  0  0  0  0  3  0  0  0  0  0  0
  181.2520  178.6990  143.9850 C   0  0  0  0  0  3  0  0  0  0  0  0
  181.5330  178.8830  141.5850 C   0  0  0  0  0  3  0  0  0  0  0  0
  179.0840  178.2770  144.8810 F   0  0  0  0  0  0  0  0  0  0  0  0
  191.8150  176.0340  146.4690 O   0  0  0  0  0  0  0  0  0  0  0  0
  189.6100  176.7580  146.4520 N   0  0  0  0  0  2  0  0  0  0  0  0
  190.9580  176.8200  145.9840 C   0  0  0  0  0  0  0  0  0  0  0  0
  191.3170  177.7480  145.0020 O   0  0  0  0  0  0  0  0  0  0  0  0
  191.5820  177.3720  143.6560 C   0  0  0  0  0  2  0  0  0  0  0  0
  191.2130  175.9420  143.4300 C   0  0  0  0  0  3  0  0  0  0  0  0
  190.4200  175.6380  142.5550 O   0  0  0  0  0  0  0  0  0  0  0  0
  1  9  1  0  0  0  0
  3 29  1  1  0  0  0
  3 10  1  0  0  0  0
  5 11  1  1  0  0  0
  6  7  1  0  0  0  0
  7  2  2  0  0  0  0
  8 15  1  1  0  0  0
  8 18  1  0  0  0  0
  9  2  1  0  0  0  0
  9  4  2  0  0  0  0
 12  6  2  0  0  0  0
 12  1  1  0  0  0  0
 13 20  1  6  0  0  0
 13  4  1  0  0  0  0
 13 17  1  0  0  0  0
 14  1  2  0  0  0  0
 14 20  1  0  0  0  0
 15  3  1  0  0  0  0
 16  5  1  0  0  0  0
 17 23  1  1  0  0  0
 17 16  1  0  0  0  0
 18 11  1  6  0  0  0
 18 10  1  0  0  0  0
 19  4  1  6  0  0  0
 19  8  1  0  0  0  0
 19  5  1  0  0  0  0
 21 25  1  0  0  0  0
 21 27  1  0  0  0  0
 22 21  2  0  0  0  0
 23 25  2  0  0  0  0
 24 26  2  0  0  0  0
 24 22  1  0  0  0  0
 26 23  1  0  0  0  0
 30 29  1  0  0  0  0
 30 28  2  0  0  0  0
 31 30  1  0  0  0  0
 32 31  1  0  0  0  0
 33 32  1  0  0  0  0
 34 33  2  0  0  0  0
M  END
>  <MODEL>
1

>  <REMARK>
 VINA RESULT:      -9.5      0.000      0.000
  Name = 
  5 active torsions:
  status: ('A' for Active; 'I' for Inactive)
    1  A    between atoms: C_3  and  N_13
    2  A    between atoms: C_12  and  C_28
    3  A    between atoms: C_14  and  O_33
    4  A    between atoms: C_20  and  C_22
    5  A    between atoms: C_22  and  O_33
                            x       y       z     vdW  Elec       q    Type
                         _______ _______ _______ _____ _____    ______ ____

>  <TORSDO>
F 5

$$$$
=
 OpenBabel10262419103D

 34 39  0  0  1  0  0  0  0  0999 V2000
  185.4140  178.9130  142.9360 C   0  0  0  0  0  0  0  0  0  0  0  0
  186.7110  177.7700  144.6410 C   0  0  0  0  0  3  0  0  0  0  0  0
  190.9180  176.9220  145.1380 C   0  0  2  0  0  3  0  0  0  0  0  0
  187.5300  177.9000  142.3890 C   0  0  0  0  0  0  0  0  0  0  0  0
  189.2830  176.2600  141.5710 C   0  0  2  0  0  3  0  0  0  0  0  0
  184.6150  178.8250  145.2230 C   0  0  0  0  0  3  0  0  0  0  0  0
  185.7410  178.0890  145.5920 C   0  0  0  0  0  3  0  0  0  0  0  0
  189.9310  177.9020  143.1960 C   0  0  1  0  0  3  0  0  0  0  0  0
  186.5770  178.1890  143.3040 C   0  0  0  0  0  0  0  0  0  0  0  0
  191.8320  176.7220  143.9470 C   0  0  0  0  0  2  0  0  0  0  0  0
  190.7180  176.0390  141.9880 C   0  0  0  0  0  2  0  0  0  0  0  0
  184.4500  179.2310  143.8980 C   0  0  0  0  0  3  0  0  0  0  0  0
  187.4420  178.4750  140.9930 C   0  0  1  0  0  3  0  0  0  0  0  0
  185.1900  179.2450  141.6660 C   0  0  0  0  0  3  0  0  0  0  0  0
  189.9630  178.0000  144.7060 C   0  0  0  0  0  2  0  0  0  0  0  0
  189.2900  177.0310  140.3240 N   0  0  0  0  0  2  0  0  0  0  0  0
  187.9300  177.4390  139.9840 C   0  0  2  0  0  3  0  0  0  0  0  0
  191.1480  177.2100  142.7520 N   0  0  1  0  0  0  0  0  0  0  0  0
  188.7450  177.0720  142.7390 C   0  0  1  0  0  3  0  0  0  0  0  0
  186.1160  178.9100  140.6750 O   0  0  0  0  0  0  0  0  0  0  0  0
  186.7770  178.1280  136.4410 C   0  0  0  0  0  0  0  0  0  0  0  0
  187.7820  178.9820  135.9750 C   0  0  0  0  0  3  0  0  0  0  0  0
  187.8960  177.9780  138.5870 C   0  0  0  0  0  0  0  0  0  0  0  0
  188.8430  179.3370  136.8120 C   0  0  0  0  0  3  0  0  0  0  0  0
  186.8340  177.6280  137.7450 C   0  0  0  0  0  3  0  0  0  0  0  0
  188.9000  178.8380  138.1170 C   0  0  0  0  0  3  0  0  0  0  0  0
  185.7470  177.7900  135.6290 F   0  0  0  0  0  0  0  0  0  0  0  0
  192.0150  177.4360  148.5880 O   0  0  0  0  0  0  0  0  0  0  0  0
  191.6800  177.3710  146.2930 N   0  0  0  0  0  2  0  0  0  0  0  0
  191.3090  177.0280  147.6270 C   0  0  0  0  0  0  0  0  0  0  0  0
  190.1750  176.2430  147.8600 O   0  0  0  0  0  0  0  0  0  0  0  0
  188.8540  176.7600  147.7560 C   0  0  0  0  0  2  0  0  0  0  0  0
  188.7670  178.1070  148.3970 C   0  0  0  0  0  3  0  0  0  0  0  0
  187.7020  178.6990  148.4510 O   0  0  0  0  0  0  0  0  0  0  0  0
  1  9  1  0  0  0  0
  1 12  1  0  0  0  0
  2  7  2  0  0  0  0
  3 29  1  1  0  0  0
  4  9  2  0  0  0  0
  5 11  1  1  0  0  0
  5 19  1  0  0  0  0
  6  7  1  0  0  0  0
  8 15  1  1  0  0  0
  9  2  1  0  0  0  0
 10  3  1  0  0  0  0
 12  6  2  0  0  0  0
 13 20  1  6  0  0  0
 13  4  1  0  0  0  0
 14  1  2  0  0  0  0
 15  3  1  0  0  0  0
 16  5  1  0  0  0  0
 17 23  1  6  0  0  0
 17 16  1  0  0  0  0
 17 13  1  0  0  0  0
 18 11  1  6  0  0  0
 18  8  1  0  0  0  0
 18 10  1  0  0  0  0
 19  4  1  6  0  0  0
 19  8  1  0  0  0  0
 20 14  1  0  0  0  0
 21 25  1  0  0  0  0
 22 21  2  0  0  0  0
 22 24  1  0  0  0  0
 24 26  2  0  0  0  0
 25 23  2  0  0  0  0
 26 23  1  0  0  0  0
 27 21  1  0  0  0  0
 29 30  1  0  0  0  0
 30 31  1  0  0  0  0
 30 28  2  0  0  0  0
 32 31  1  0  0  0  0
 32 33  1  0  0  0  0
 33 34  2  0  0  0  0
M  END
>  <MODEL>
2

>  <REMARK>
 VINA RESULT:      -9.4      3.442      5.958
  Name = 
  5 active torsions:
  status: ('A' for Active; 'I' for Inactive)
    1  A    between atoms: C_3  and  N_13
    2  A    between atoms: C_12  and  C_28
    3  A    between atoms: C_14  and  O_33
    4  A    between atoms: C_20  and  C_22
    5  A    between atoms: C_22  and  O_33
                            x       y       z     vdW  Elec       q    Type
                         _______ _______ _______ _____ _____    ______ ____

>  <TORSDO>
F 5

$$$$
=
 OpenBabel10262419103D

 34 39  0  0  1  0  0  0  0  0999 V2000
  188.1950  177.5590  145.3360 C   0  0  0  0  0  0  0  0  0  0  0  0
  186.0580  178.6870  145.5690 C   0  0  0  0  0  3  0  0  0  0  0  0
  182.5150  178.9290  143.1100 C   0  0  2  0  0  3  0  0  0  0  0  0
  186.9100  178.1580  143.3890 C   0  0  0  0  0  0  0  0  0  0  0  0
  186.0520  179.3950  141.3480 C   0  0  2  0  0  3  0  0  0  0  0  0
  187.3070  178.0480  147.5380 C   0  0  0  0  0  3  0  0  0  0  0  0
  186.1860  178.6410  146.9580 C   0  0  0  0  0  3  0  0  0  0  0  0
  184.5650  177.8830  142.4710 C   0  0  1  0  0  3  0  0  0  0  0  0
  187.0470  178.1340  144.7340 C   0  0  0  0  0  0  0  0  0  0  0  0
  182.5900  178.8390  141.6010 C   0  0  0  0  0  2  0  0  0  0  0  0
  184.6840  179.4410  140.7070 C   0  0  0  0  0  2  0  0  0  0  0  0
  188.3120  177.5140  146.7290 C   0  0  0  0  0  3  0  0  0  0  0  0
  187.9080  177.4370  142.5110 C   0  0  1  0  0  3  0  0  0  0  0  0
  189.2050  177.1120  144.5910 C   0  0  0  0  0  3  0  0  0  0  0  0
  183.5600  177.9670  143.6010 C   0  0  0  0  0  2  0  0  0  0  0  0
  186.8880  178.4860  140.5580 N   0  0  0  0  0  2  0  0  0  0  0  0
  188.1560  178.2540  141.2450 C   0  0  2  0  0  3  0  0  0  0  0  0
  183.9060  178.3200  141.2340 N   0  0  1  0  0  0  0  0  0  0  0  0
  185.7300  178.8250  142.7200 C   0  0  1  0  0  3  0  0  0  0  0  0
  189.1360  177.1770  143.1970 O   0  0  0  0  0  0  0  0  0  0  0  0
  189.5300  176.4330  138.2200 C   0  0  0  0  0  0  0  0  0  0  0  0
  190.8750  176.2750  138.5680 C   0  0  0  0  0  3  0  0  0  0  0  0
  189.1130  177.5610  140.3260 C   0  0  0  0  0  0  0  0  0  0  0  0
  191.3430  176.7610  139.7920 C   0  0  0  0  0  3  0  0  0  0  0  0
  188.6510  177.0740  139.0980 C   0  0  0  0  0  3  0  0  0  0  0  0
  190.4640  177.4050  140.6700 C   0  0  0  0  0  3  0  0  0  0  0  0
  189.0800  175.9650  137.0310 F   0  0  0  0  0  0  0  0  0  0  0  0
  178.9310  178.9100  143.8330 O   0  0  0  0  0  0  0  0  0  0  0  0
  181.2020  178.5120  143.5790 N   0  0  0  0  0  2  0  0  0  0  0  0
  180.0440  179.3300  143.4180 C   0  0  0  0  0  0  0  0  0  0  0  0
  180.1480  180.5810  142.8010 O   0  0  0  0  0  0  0  0  0  0  0  0
  179.2300  181.0220  141.8090 C   0  0  0  0  0  2  0  0  0  0  0  0
  179.7630  180.7450  140.4410 C   0  0  0  0  0  3  0  0  0  0  0  0
  180.0440  181.6620  139.6880 O   0  0  0  0  0  0  0  0  0  0  0  0
  1 12  1  0  0  0  0
  2  7  2  0  0  0  0
  3 29  1  1  0  0  0
  3 15  1  0  0  0  0
  4  9  2  0  0  0  0
  5 11  1  6  0  0  0
  5 19  1  0  0  0  0
  7  6  1  0  0  0  0
  8 19  1  0  0  0  0
  8 15  1  1  0  0  0
  9  1  1  0  0  0  0
  9  2  1  0  0  0  0
 10  3  1  0  0  0  0
 12  6  2  0  0  0  0
 13 20  1  1  0  0  0
 13  4  1  0  0  0  0
 14  1  2  0  0  0  0
 16 17  1  0  0  0  0
 16  5  1  0  0  0  0
 17 23  1  6  0  0  0
 17 13  1  0  0  0  0
 18 11  1  1  0  0  0
 18 10  1  0  0  0  0
 18  8  1  0  0  0  0
 19  4  1  6  0  0  0
 20 14  1  0  0  0  0
 21 22  2  0  0  0  0
 21 25  1  0  0  0  0
 22 24  1  0  0  0  0
 23 26  1  0  0  0  0
 24 26  2  0  0  0  0
 25 23  2  0  0  0  0
 27 21  1  0  0  0  0
 30 29  1  0  0  0  0
 30 28  2  0  0  0  0
 31 30  1  0  0  0  0
 32 31  1  0  0  0  0
 33 32  1  0  0  0  0
 34 33  2  0  0  0  0
M  END
>  <MODEL>
3

>  <REMARK>
 VINA RESULT:      -8.9      3.268      8.398
  Name = 
  5 active torsions:
  status: ('A' for Active; 'I' for Inactive)
    1  A    between atoms: C_3  and  N_13
    2  A    between atoms: C_12  and  C_28
    3  A    between atoms: C_14  and  O_33
    4  A    between atoms: C_20  and  C_22
    5  A    between atoms: C_22  and  O_33
                            x       y       z     vdW  Elec       q    Type
                         _______ _______ _______ _____ _____    ______ ____

>  <TORSDO>
F 5

$$$$
=
 OpenBabel10262419103D

 34 39  0  0  1  0  0  0  0  0999 V2000
  185.9290  178.2390  142.5910 C   0  0  0  0  0  0  0  0  0  0  0  0
  186.6250  178.5380  140.2840 C   0  0  0  0  0  3  0  0  0  0  0  0
  189.8070  176.8820  137.8770 C   0  0  2  0  0  3  0  0  0  0  0  0
  188.2150  177.8450  141.9430 C   0  0  0  0  0  0  0  0  0  0  0  0
  190.7000  178.1570  141.5380 C   0  0  2  0  0  3  0  0  0  0  0  0
  184.3150  178.8880  140.9030 C   0  0  0  0  0  3  0  0  0  0  0  0
  185.3170  178.8770  139.9340 C   0  0  0  0  0  3  0  0  0  0  0  0
  189.5290  176.5280  140.2230 C   0  0  1  0  0  3  0  0  0  0  0  0
  186.9530  178.1960  141.6090 C   0  0  0  0  0  0  0  0  0  0  0  0
  191.1280  176.4650  138.4880 C   0  0  0  0  0  2  0  0  0  0  0  0
  191.6320  177.5500  140.5160 C   0  0  0  0  0  2  0  0  0  0  0  0
  184.6220  178.5750  142.2290 C   0  0  0  0  0  3  0  0  0  0  0  0
  188.5230  177.3450  143.3360 C   0  0  1  0  0  3  0  0  0  0  0  0
  186.2060  178.0230  143.8750 C   0  0  0  0  0  3  0  0  0  0  0  0
  188.7780  176.5120  138.9080 C   0  0  0  0  0  2  0  0  0  0  0  0
  190.9020  177.4510  142.8070 N   0  0  0  0  0  2  0  0  0  0  0  0
  189.8900  177.8660  143.7740 C   0  0  2  0  0  3  0  0  0  0  0  0
  190.9620  176.3850  139.9370 N   0  0  1  0  0  0  0  0  0  0  0  0
  189.3390  177.8570  140.9310 C   0  0  1  0  0  3  0  0  0  0  0  0
  187.5110  177.7210  144.2750 O   0  0  0  0  0  0  0  0  0  0  0  0
  191.7630  176.1110  146.5610 C   0  0  0  0  0  0  0  0  0  0  0  0
  190.9810  176.4290  147.6750 C   0  0  0  0  0  3  0  0  0  0  0  0
  190.2540  177.3660  145.1380 C   0  0  0  0  0  0  0  0  0  0  0  0
  189.8360  177.2170  147.5250 C   0  0  0  0  0  3  0  0  0  0  0  0
  191.4000  176.5790  145.2950 C   0  0  0  0  0  3  0  0  0  0  0  0
  189.4730  177.6870  146.2590 C   0  0  0  0  0  3  0  0  0  0  0  0
  192.8740  175.3510  146.7100 F   0  0  0  0  0  0  0  0  0  0  0  0
  188.4990  175.9410  134.5940 O   0  0  0  0  0  0  0  0  0  0  0  0
  189.5610  176.1440  136.6470 N   0  0  0  0  0  2  0  0  0  0  0  0
  188.6630  176.6180  135.6440 C   0  0  0  0  0  0  0  0  0  0  0  0
  187.9790  177.8240  135.8280 O   0  0  0  0  0  0  0  0  0  0  0  0
  186.5750  177.9430  135.6300 C   0  0  0  0  0  2  0  0  0  0  0  0
  185.8320  177.1470  136.6520 C   0  0  0  0  0  3  0  0  0  0  0  0
  184.6320  177.3010  136.8050 O   0  0  0  0  0  0  0  0  0  0  0  0
  1 14  2  0  0  0  0
  2  9  1  0  0  0  0
  3 29  1  6  0  0  0
  3 10  1  0  0  0  0
  3 15  1  0  0  0  0
  5 11  1  6  0  0  0
  5 16  1  0  0  0  0
  6 12  2  0  0  0  0
  7  2  2  0  0  0  0
  7  6  1  0  0  0  0
  8 15  1  6  0  0  0
  8 19  1  0  0  0  0
  9  4  2  0  0  0  0
  9  1  1  0  0  0  0
 12  1  1  0  0  0  0
 13  4  1  6  0  0  0
 13 17  1  0  0  0  0
 13 20  1  0  0  0  0
 14 20  1  0  0  0  0
 16 17  1  0  0  0  0
 17 23  1  1  0  0  0
 18 10  1  6  0  0  0
 18  8  1  0  0  0  0
 18 11  1  0  0  0  0
 19  5  1  0  0  0  0
 19  4  1  1  0  0  0
 21 27  1  0  0  0  0
 21 22  1  0  0  0  0
 23 25  1  0  0  0  0
 23 26  2  0  0  0  0
 24 22  2  0  0  0  0
 25 21  2  0  0  0  0
 26 24  1  0  0  0  0
 28 30  2  0  0  0  0
 30 31  1  0  0  0  0
 30 29  1  0  0  0  0
 32 31  1  0  0  0  0
 32 33  1  0  0  0  0
 33 34  2  0  0  0  0
M  END
>  <MODEL>
4

>  <REMARK>
 VINA RESULT:      -8.5      4.171      8.145
  Name = 
  5 active torsions:
  status: ('A' for Active; 'I' for Inactive)
    1  A    between atoms: C_3  and  N_13
    2  A    between atoms: C_12  and  C_28
    3  A    between atoms: C_14  and  O_33
    4  A    between atoms: C_20  and  C_22
    5  A    between atoms: C_22  and  O_33
                            x       y       z     vdW  Elec       q    Type
                         _______ _______ _______ _____ _____    ______ ____

>  <TORSDO>
F 5

$$$$
=
 OpenBabel10262419103D

 34 39  0  0  1  0  0  0  0  0999 V2000
  184.6720  178.6830  145.1180 C   0  0  0  0  0  0  0  0  0  0  0  0
  186.4940  177.5370  143.9960 C   0  0  0  0  0  3  0  0  0  0  0  0
  188.1510  177.7290  140.0110 C   0  0  2  0  0  3  0  0  0  0  0  0
  184.6660  178.4290  142.7230 C   0  0  0  0  0  0  0  0  0  0  0  0
  184.1930  177.5620  140.3870 C   0  0  2  0  0  3  0  0  0  0  0  0
  186.5460  177.8270  146.3950 C   0  0  0  0  0  3  0  0  0  0  0  0
  187.1300  177.3440  145.2240 C   0  0  0  0  0  3  0  0  0  0  0  0
  186.1780  178.8630  140.7370 C   0  0  1  0  0  3  0  0  0  0  0  0
  185.2680  178.2220  143.9160 C   0  0  0  0  0  0  0  0  0  0  0  0
  187.2930  178.0750  138.8120 C   0  0  0  0  0  2  0  0  0  0  0  0
  185.0000  177.6290  139.1120 C   0  0  0  0  0  2  0  0  0  0  0  0
  185.3180  178.4890  146.3430 C   0  0  0  0  0  3  0  0  0  0  0  0
  183.4240  179.2870  142.6370 C   0  0  1  0  0  3  0  0  0  0  0  0
  183.4660  179.2480  145.1090 C   0  0  0  0  0  3  0  0  0  0  0  0
  187.6170  178.5900  141.1210 C   0  0  0  0  0  2  0  0  0  0  0  0
  183.1510  178.5900  140.3150 N   0  0  0  0  0  2  0  0  0  0  0  0
  182.4690  178.6980  141.6010 C   0  0  2  0  0  3  0  0  0  0  0  0
  186.0370  178.6460  139.2920 N   0  0  1  0  0  0  0  0  0  0  0  0
  185.2450  177.8890  141.4350 C   0  0  1  0  0  3  0  0  0  0  0  0
  182.7780  179.4220  143.9060 O   0  0  0  0  0  0  0  0  0  0  0  0
  179.8040  180.9050  140.0590 C   0  0  0  0  0  0  0  0  0  0  0  0
  178.9310  181.0940  141.1350 C   0  0  0  0  0  3  0  0  0  0  0  0
  181.2370  179.5360  141.4560 C   0  0  0  0  0  0  0  0  0  0  0  0
  179.2070  180.5040  142.3710 C   0  0  0  0  0  3  0  0  0  0  0  0
  180.9540  180.1280  140.2190 C   0  0  0  0  0  3  0  0  0  0  0  0
  180.3560  179.7240  142.5320 C   0  0  0  0  0  3  0  0  0  0  0  0
  179.5320  181.4750  138.8600 F   0  0  0  0  0  0  0  0  0  0  0  0
  191.8060  177.6430  140.0450 O   0  0  0  0  0  0  0  0  0  0  0  0
  189.5430  178.0630  139.7520 N   0  0  0  0  0  2  0  0  0  0  0  0
  190.6200  177.3140  140.3150 C   0  0  0  0  0  0  0  0  0  0  0  0
  190.3560  176.2250  141.1510 O   0  0  0  0  0  0  0  0  0  0  0  0
  190.1080  176.3750  142.5440 C   0  0  0  0  0  2  0  0  0  0  0  0
  191.3900  176.5730  143.2860 C   0  0  0  0  0  3  0  0  0  0  0  0
  191.6910  177.6720  143.7190 O   0  0  0  0  0  0  0  0  0  0  0  0
  1 12  1  0  0  0  0
  2  7  2  0  0  0  0
  3 29  1  6  0  0  0
  3 15  1  0  0  0  0
  4  9  2  0  0  0  0
  5 11  1  6  0  0  0
  5 19  1  0  0  0  0
  7  6  1  0  0  0  0
  8 15  1  1  0  0  0
  8 19  1  0  0  0  0
  9  2  1  0  0  0  0
  9  1  1  0  0  0  0
 10  3  1  0  0  0  0
 11 18  1  0  0  0  0
 12  6  2  0  0  0  0
 13  4  1  1  0  0  0
 13 20  1  0  0  0  0
 14  1  2  0  0  0  0
 16  5  1  0  0  0  0
 16 17  1  0  0  0  0
 17 23  1  6  0  0  0
 17 13  1  0  0  0  0
 18 10  1  1  0  0  0
 18  8  1  0  0  0  0
 19  4  1  1  0  0  0
 20 14  1  0  0  0  0
 21 25  2  0  0  0  0
 21 22  1  0  0  0  0
 22 24  2  0  0  0  0
 23 26  2  0  0  0  0
 24 26  1  0  0  0  0
 25 23  1  0  0  0  0
 27 21  1  0  0  0  0
 28 30  2  0  0  0  0
 29 30  1  0  0  0  0
 30 31  1  0  0  0  0
 31 32  1  0  0  0  0
 32 33  1  0  0  0  0
 33 34  2  0  0  0  0
M  END
>  <MODEL>
5

>  <REMARK>
 VINA RESULT:      -8.4      2.548      4.758
  Name = 
  5 active torsions:
  status: ('A' for Active; 'I' for Inactive)
    1  A    between atoms: C_3  and  N_13
    2  A    between atoms: C_12  and  C_28
    3  A    between atoms: C_14  and  O_33
    4  A    between atoms: C_20  and  C_22
    5  A    between atoms: C_22  and  O_33
                            x       y       z     vdW  Elec       q    Type
                         _______ _______ _______ _____ _____    ______ ____

>  <TORSDO>
F 5

$$$$
=
 OpenBabel10262419103D

 34 39  0  0  1  0  0  0  0  0999 V2000
  186.3820  177.9390  144.1640 C   0  0  0  0  0  0  0  0  0  0  0  0
  186.4350  178.7420  141.8730 C   0  0  0  0  0  3  0  0  0  0  0  0
  188.7780  177.7160  138.3920 C   0  0  2  0  0  3  0  0  0  0  0  0
  188.3890  177.7470  142.8470 C   0  0  0  0  0  0  0  0  0  0  0  0
  190.6800  178.1980  141.8540 C   0  0  2  0  0  3  0  0  0  0  0  0
  184.3940  178.8970  143.1610 C   0  0  0  0  0  3  0  0  0  0  0  0
  185.0940  179.1170  141.9740 C   0  0  0  0  0  3  0  0  0  0  0  0
  189.1360  176.8610  140.5940 C   0  0  1  0  0  3  0  0  0  0  0  0
  187.0980  178.1320  142.9540 C   0  0  0  0  0  0  0  0  0  0  0  0
  190.1990  177.2080  138.5160 C   0  0  0  0  0  2  0  0  0  0  0  0
  191.2750  177.8450  140.5110 C   0  0  0  0  0  2  0  0  0  0  0  0
  185.0380  178.3140  144.2540 C   0  0  0  0  0  3  0  0  0  0  0  0
  189.0460  176.9680  143.9640 C   0  0  1  0  0  3  0  0  0  0  0  0
  186.9900  177.4590  145.2470 C   0  0  0  0  0  3  0  0  0  0  0  0
  188.0560  177.1090  139.5630 C   0  0  0  0  0  2  0  0  0  0  0  0
  191.1940  177.2410  142.8390 N   0  0  0  0  0  2  0  0  0  0  0  0
  190.4990  177.4150  144.1110 C   0  0  2  0  0  3  0  0  0  0  0  0
  190.4310  176.8160  139.9040 N   0  0  1  0  0  0  0  0  0  0  0  0
  189.1950  178.0030  141.5930 C   0  0  1  0  0  3  0  0  0  0  0  0
  188.3420  177.1100  145.2010 O   0  0  0  0  0  0  0  0  0  0  0  0
  191.9410  176.4820  147.4880 C   0  0  0  0  0  0  0  0  0  0  0  0
  192.4900  175.2230  147.2260 C   0  0  0  0  0  3  0  0  0  0  0  0
  191.2010  176.6430  145.1850 C   0  0  0  0  0  0  0  0  0  0  0  0
  192.3940  174.6700  145.9460 C   0  0  0  0  0  3  0  0  0  0  0  0
  191.2980  177.1900  146.4690 C   0  0  0  0  0  3  0  0  0  0  0  0
  191.7500  175.3780  144.9270 C   0  0  0  0  0  3  0  0  0  0  0  0
  192.0300  177.0130  148.7310 F   0  0  0  0  0  0  0  0  0  0  0  0
  186.3850  177.1740  135.6810 O   0  0  0  0  0  0  0  0  0  0  0  0
  188.1800  177.2530  137.1500 N   0  0  0  0  0  2  0  0  0  0  0  0
  186.8450  177.5950  136.7760 C   0  0  0  0  0  0  0  0  0  0  0  0
  186.0630  178.3920  137.6180 O   0  0  0  0  0  0  0  0  0  0  0  0
  184.7830  177.9830  138.0850 C   0  0  0  0  0  2  0  0  0  0  0  0
  184.0530  179.1370  138.6900 C   0  0  0  0  0  3  0  0  0  0  0  0
  184.6240  180.1970  138.8850 O   0  0  0  0  0  0  0  0  0  0  0  0
  1 12  1  0  0  0  0
  1 14  2  0  0  0  0
  2  7  2  0  0  0  0
  2  9  1  0  0  0  0
  3 29  1  6  0  0  0
  3 10  1  0  0  0  0
  3 15  1  0  0  0  0
  4  9  2  0  0  0  0
  5 11  1  6  0  0  0
  5 16  1  0  0  0  0
  6 12  2  0  0  0  0
  7  6  1  0  0  0  0
  8 15  1  6  0  0  0
  8 19  1  0  0  0  0
  9  1  1  0  0  0  0
 13  4  1  6  0  0  0
 13 17  1  0  0  0  0
 13 20  1  0  0  0  0
 16 17  1  0  0  0  0
 17 23  1  1  0  0  0
 18 10  1  6  0  0  0
 18 11  1  0  0  0  0
 18  8  1  0  0  0  0
 19  5  1  0  0  0  0
 19  4  1  1  0  0  0
 20 14  1  0  0  0  0
 21 27  1  0  0  0  0
 22 21  1  0  0  0  0
 23 25  1  0  0  0  0
 24 22  2  0  0  0  0
 25 21  2  0  0  0  0
 26 23  2  0  0  0  0
 26 24  1  0  0  0  0
 28 30  2  0  0  0  0
 30 29  1  0  0  0  0
 30 31  1  0  0  0  0
 31 32  1  0  0  0  0
 32 33  1  0  0  0  0
 33 34  2  0  0  0  0
M  END
>  <MODEL>
6

>  <REMARK>
 VINA RESULT:      -8.3      3.716      8.406
  Name = 
  5 active torsions:
  status: ('A' for Active; 'I' for Inactive)
    1  A    between atoms: C_3  and  N_13
    2  A    between atoms: C_12  and  C_28
    3  A    between atoms: C_14  and  O_33
    4  A    between atoms: C_20  and  C_22
    5  A    between atoms: C_22  and  O_33
                            x       y       z     vdW  Elec       q    Type
                         _______ _______ _______ _____ _____    ______ ____

>  <TORSDO>
F 5

$$$$
=
 OpenBabel10262419103D

 34 39  0  0  1  0  0  0  0  0999 V2000
  188.3690  177.5660  145.0220 C   0  0  0  0  0  0  0  0  0  0  0  0
  186.2510  178.6960  145.3840 C   0  0  0  0  0  3  0  0  0  0  0  0
  182.5600  178.9290  143.1530 C   0  0  2  0  0  3  0  0  0  0  0  0
  186.9640  178.1560  143.1580 C   0  0  0  0  0  0  0  0  0  0  0  0
  185.9780  179.3840  141.1690 C   0  0  2  0  0  3  0  0  0  0  0  0
  187.6220  178.0660  147.2740 C   0  0  0  0  0  3  0  0  0  0  0  0
  186.4660  178.6570  146.7630 C   0  0  0  0  0  3  0  0  0  0  0  0
  184.5650  177.8790  142.3900 C   0  0  1  0  0  3  0  0  0  0  0  0
  187.1850  178.1390  144.4910 C   0  0  0  0  0  0  0  0  0  0  0  0
  182.5400  178.8310  141.6420 C   0  0  0  0  0  2  0  0  0  0  0  0
  184.5730  179.4280  140.6150 C   0  0  0  0  0  2  0  0  0  0  0  0
  188.5720  177.5270  146.4050 C   0  0  0  0  0  3  0  0  0  0  0  0
  187.9040  177.4310  142.2220 C   0  0  1  0  0  3  0  0  0  0  0  0
  189.3290  177.1150  144.2170 C   0  0  0  0  0  3  0  0  0  0  0  0
  183.6340  177.9690  143.5810 C   0  0  0  0  0  2  0  0  0  0  0  0
  186.7630  178.4710  140.3320 N   0  0  0  0  0  2  0  0  0  0  0  0
  188.0710  178.2410  140.9390 C   0  0  2  0  0  3  0  0  0  0  0  0
  183.8290  178.3100  141.1950 N   0  0  1  0  0  0  0  0  0  0  0  0
  185.7430  178.8210  142.5610 C   0  0  1  0  0  3  0  0  0  0  0  0
  189.1720  177.1730  142.8300 O   0  0  0  0  0  0  0  0  0  0  0  0
  191.2100  176.9820  139.2310 C   0  0  0  0  0  0  0  0  0  0  0  0
  190.6800  176.2330  138.1750 C   0  0  0  0  0  3  0  0  0  0  0  0
  188.9680  177.5430  139.9640 C   0  0  0  0  0  0  0  0  0  0  0  0
  189.2950  176.1360  138.0120 C   0  0  0  0  0  3  0  0  0  0  0  0
  190.3550  177.6350  140.1230 C   0  0  0  0  0  3  0  0  0  0  0  0
  188.4400  176.7870  138.9060 C   0  0  0  0  0  3  0  0  0  0  0  0
  192.5520  177.0710  139.3890 F   0  0  0  0  0  0  0  0  0  0  0  0
  179.0060  178.8660  144.0110 O   0  0  0  0  0  0  0  0  0  0  0  0
  181.2790  178.5150  143.7050 N   0  0  0  0  0  2  0  0  0  0  0  0
  180.0890  179.2810  143.5190 C   0  0  0  0  0  0  0  0  0  0  0  0
  180.1300  180.4760  142.7940 O   0  0  0  0  0  0  0  0  0  0  0  0
  178.9660  181.0660  142.2280 C   0  0  0  0  0  2  0  0  0  0  0  0
  179.1910  181.3910  140.7870 C   0  0  0  0  0  3  0  0  0  0  0  0
  180.0460  180.8030  140.1460 O   0  0  0  0  0  0  0  0  0  0  0  0
  1 12  1  0  0  0  0
  2  7  2  0  0  0  0
  3 15  1  0  0  0  0
  3 29  1  1  0  0  0
  4  9  2  0  0  0  0
  5 11  1  6  0  0  0
  5 19  1  0  0  0  0
  7  6  1  0  0  0  0
  8 19  1  0  0  0  0
  8 15  1  1  0  0  0
  9  1  1  0  0  0  0
  9  2  1  0  0  0  0
 10  3  1  0  0  0  0
 12  6  2  0  0  0  0
 13 20  1  1  0  0  0
 13  4  1  0  0  0  0
 14  1  2  0  0  0  0
 16 17  1  0  0  0  0
 16  5  1  0  0  0  0
 17 23  1  6  0  0  0
 17 13  1  0  0  0  0
 18 11  1  1  0  0  0
 18 10  1  0  0  0  0
 18  8  1  0  0  0  0
 19  4  1  6  0  0  0
 20 14  1  0  0  0  0
 21 27  1  0  0  0  0
 21 25  1  0  0  0  0
 22 21  2  0  0  0  0
 23 25  2  0  0  0  0
 24 22  1  0  0  0  0
 24 26  2  0  0  0  0
 26 23  1  0  0  0  0
 30 29  1  0  0  0  0
 30 28  2  0  0  0  0
 31 30  1  0  0  0  0
 32 31  1  0  0  0  0
 33 32  1  0  0  0  0
 34 33  2  0  0  0  0
M  END
>  <MODEL>
7

>  <REMARK>
 VINA RESULT:      -8.2      3.472      8.429
  Name = 
  5 active torsions:
  status: ('A' for Active; 'I' for Inactive)
    1  A    between atoms: C_3  and  N_13
    2  A    between atoms: C_12  and  C_28
    3  A    between atoms: C_14  and  O_33
    4  A    between atoms: C_20  and  C_22
    5  A    between atoms: C_22  and  O_33
                            x       y       z     vdW  Elec       q    Type
                         _______ _______ _______ _____ _____    ______ ____

>  <TORSDO>
F 5

$$$$
=
 OpenBabel10262419103D

 34 39  0  0  1  0  0  0  0  0999 V2000
  186.4350  178.2430  138.7830 C   0  0  0  0  0  0  0  0  0  0  0  0
  187.9720  178.6440  140.6190 C   0  0  0  0  0  3  0  0  0  0  0  0
  187.8080  177.9220  144.8750 C   0  0  2  0  0  3  0  0  0  0  0  0
  185.6100  178.5260  141.0290 C   0  0  0  0  0  0  0  0  0  0  0  0
  184.6260  179.5510  143.1290 C   0  0  2  0  0  3  0  0  0  0  0  0
  188.8250  178.3110  138.3820 C   0  0  0  0  0  3  0  0  0  0  0  0
  189.0490  178.5620  139.7360 C   0  0  0  0  0  3  0  0  0  0  0  0
  185.9970  177.5950  143.3530 C   0  0  1  0  0  3  0  0  0  0  0  0
  186.6510  178.4700  140.1670 C   0  0  0  0  0  0  0  0  0  0  0  0
  186.4970  177.9440  145.6330 C   0  0  0  0  0  2  0  0  0  0  0  0
  184.8080  179.2100  144.5900 C   0  0  0  0  0  2  0  0  0  0  0  0
  187.5210  178.1580  137.9070 C   0  0  0  0  0  3  0  0  0  0  0  0
  184.2130  178.1970  140.5550 C   0  0  1  0  0  3  0  0  0  0  0  0
  185.2010  178.1710  138.2880 C   0  0  0  0  0  3  0  0  0  0  0  0
  187.4700  177.3020  143.5480 C   0  0  0  0  0  2  0  0  0  0  0  0
  183.3440  178.9890  142.6930 N   0  0  0  0  0  2  0  0  0  0  0  0
  183.2110  179.1200  141.2450 C   0  0  2  0  0  3  0  0  0  0  0  0
  185.4040  177.8760  144.6660 N   0  0  1  0  0  0  0  0  0  0  0  0
  185.8070  178.8340  142.4960 C   0  0  1  0  0  3  0  0  0  0  0  0
  184.0940  178.2890  139.1320 O   0  0  0  0  0  0  0  0  0  0  0  0
  179.9580  177.2390  140.7600 C   0  0  0  0  0  0  0  0  0  0  0  0
  179.1750  178.1890  140.0970 C   0  0  0  0  0  3  0  0  0  0  0  0
  181.8060  178.8070  140.8330 C   0  0  0  0  0  0  0  0  0  0  0  0
  179.7030  179.4490  139.8020 C   0  0  0  0  0  3  0  0  0  0  0  0
  181.2710  177.5490  141.1270 C   0  0  0  0  0  3  0  0  0  0  0  0
  181.0150  179.7590  140.1700 C   0  0  0  0  0  3  0  0  0  0  0  0
  179.4420  176.0210  141.0490 F   0  0  0  0  0  0  0  0  0  0  0  0
  190.9630  176.6890  146.2540 O   0  0  0  0  0  0  0  0  0  0  0  0
  188.7830  177.0960  145.5710 N   0  0  0  0  0  2  0  0  0  0  0  0
  190.1680  177.4380  145.6250 C   0  0  0  0  0  0  0  0  0  0  0  0
  190.6300  178.5940  144.9890 O   0  0  0  0  0  0  0  0  0  0  0  0
  191.6370  178.5630  143.9850 C   0  0  0  0  0  2  0  0  0  0  0  0
  191.1770  177.7690  142.8060 C   0  0  0  0  0  3  0  0  0  0  0  0
  191.4710  176.5900  142.7010 O   0  0  0  0  0  0  0  0  0  0  0  0
  1  9  1  0  0  0  0
  3 29  1  1  0  0  0
  3 10  1  0  0  0  0
  5 11  1  1  0  0  0
  6  7  1  0  0  0  0
  7  2  2  0  0  0  0
  8 15  1  1  0  0  0
  8 18  1  0  0  0  0
  9  2  1  0  0  0  0
  9  4  2  0  0  0  0
 12  6  2  0  0  0  0
 12  1  1  0  0  0  0
 13 20  1  6  0  0  0
 13  4  1  0  0  0  0
 13 17  1  0  0  0  0
 14  1  2  0  0  0  0
 14 20  1  0  0  0  0
 15  3  1  0  0  0  0
 16  5  1  0  0  0  0
 17 23  1  6  0  0  0
 17 16  1  0  0  0  0
 18 11  1  6  0  0  0
 18 10  1  0  0  0  0
 19  4  1  6  0  0  0
 19  5  1  0  0  0  0
 19  8  1  0  0  0  0
 21 27  1  0  0  0  0
 21 25  1  0  0  0  0
 22 21  2  0  0  0  0
 23 25  2  0  0  0  0
 24 22  1  0  0  0  0
 24 26  2  0  0  0  0
 26 23  1  0  0  0  0
 29 30  1  0  0  0  0
 30 28  2  0  0  0  0
 31 30  1  0  0  0  0
 32 31  1  0  0  0  0
 33 32  1  0  0  0  0
 34 33  2  0  0  0  0
M  END
>  <MODEL>
8

>  <REMARK>
 VINA RESULT:      -8.2      1.653      1.834
  Name = 
  5 active torsions:
  status: ('A' for Active; 'I' for Inactive)
    1  A    between atoms: C_3  and  N_13
    2  A    between atoms: C_12  and  C_28
    3  A    between atoms: C_14  and  O_33
    4  A    between atoms: C_20  and  C_22
    5  A    between atoms: C_22  and  O_33
                            x       y       z     vdW  Elec       q    Type
                         _______ _______ _______ _____ _____    ______ ____

>  <TORSDO>
F 5

$$$$
=
 OpenBabel10262419103D

 34 39  0  0  1  0  0  0  0  0999 V2000
  190.1530  177.3760  140.3830 C   0  0  0  0  0  0  0  0  0  0  0  0
  189.9030  178.2080  142.6500 C   0  0  0  0  0  3  0  0  0  0  0  0
  186.6240  178.3050  145.4610 C   0  0  2  0  0  3  0  0  0  0  0  0
  187.9900  178.0350  141.2120 C   0  0  0  0  0  0  0  0  0  0  0  0
  185.8990  179.3840  141.7000 C   0  0  2  0  0  3  0  0  0  0  0  0
  192.0740  177.5030  141.8560 C   0  0  0  0  0  3  0  0  0  0  0  0
  191.2680  178.0200  142.8700 C   0  0  0  0  0  3  0  0  0  0  0  0
  186.4670  177.5890  143.1870 C   0  0  1  0  0  3  0  0  0  0  0  0
  189.3170  177.8750  141.4150 C   0  0  0  0  0  0  0  0  0  0  0  0
  185.1850  178.3960  144.9970 C   0  0  0  0  0  2  0  0  0  0  0  0
  184.9260  179.3400  142.8550 C   0  0  0  0  0  2  0  0  0  0  0  0
  191.5190  177.1870  140.6150 C   0  0  0  0  0  3  0  0  0  0  0  0
  187.3520  177.5420  139.9330 C   0  0  1  0  0  3  0  0  0  0  0  0
  189.6680  177.1390  139.1660 C   0  0  0  0  0  3  0  0  0  0  0  0
  187.2950  177.4250  144.4440 C   0  0  0  0  0  2  0  0  0  0  0  0
  185.2880  178.6760  140.5700 N   0  0  0  0  0  2  0  0  0  0  0  0
  186.2640  178.5210  139.4960 C   0  0  2  0  0  3  0  0  0  0  0  0
  185.1380  178.0820  143.5710 N   0  0  1  0  0  0  0  0  0  0  0  0
  187.0880  178.6280  142.2700 C   0  0  1  0  0  3  0  0  0  0  0  0
  188.3150  177.3530  138.8920 O   0  0  0  0  0  0  0  0  0  0  0  0
  183.5390  177.3840  137.1220 C   0  0  0  0  0  0  0  0  0  0  0  0
  184.2530  177.2010  135.9340 C   0  0  0  0  0  3  0  0  0  0  0  0
  185.5780  178.0540  138.2490 C   0  0  0  0  0  0  0  0  0  0  0  0
  185.6280  177.4450  135.8990 C   0  0  0  0  0  3  0  0  0  0  0  0
  184.2010  177.8100  138.2770 C   0  0  0  0  0  3  0  0  0  0  0  0
  186.2910  177.8730  137.0540 C   0  0  0  0  0  3  0  0  0  0  0  0
  182.2050  177.1510  137.1520 F   0  0  0  0  0  0  0  0  0  0  0  0
  187.9240  177.0110  148.6230 O   0  0  0  0  0  0  0  0  0  0  0  0
  186.6950  177.6850  146.7740 N   0  0  0  0  0  2  0  0  0  0  0  0
  187.9270  177.5460  147.4820 C   0  0  0  0  0  0  0  0  0  0  0  0
  189.1190  178.0040  146.9130 O   0  0  0  0  0  0  0  0  0  0  0  0
  190.0770  177.1250  146.3370 C   0  0  0  0  0  2  0  0  0  0  0  0
  191.1140  176.7480  147.3440 C   0  0  0  0  0  3  0  0  0  0  0  0
  192.2590  176.5150  146.9960 O   0  0  0  0  0  0  0  0  0  0  0  0
  1 12  1  0  0  0  0
  1  9  1  0  0  0  0
  2  7  2  0  0  0  0
  3 29  1  1  0  0  0
  4  9  2  0  0  0  0
  5 19  1  0  0  0  0
  5 11  1  1  0  0  0
  6  7  1  0  0  0  0
  8 18  1  0  0  0  0
  8 15  1  1  0  0  0
  9  2  1  0  0  0  0
 10  3  1  0  0  0  0
 12  6  2  0  0  0  0
 13 20  1  6  0  0  0
 13  4  1  0  0  0  0
 14  1  2  0  0  0  0
 15  3  1  0  0  0  0
 16  5  1  0  0  0  0
 17 23  1  6  0  0  0
 17 13  1  0  0  0  0
 17 16  1  0  0  0  0
 18 11  1  6  0  0  0
 18 10  1  0  0  0  0
 19  4  1  6  0  0  0
 19  8  1  0  0  0  0
 20 14  1  0  0  0  0
 21 27  1  0  0  0  0
 21 25  1  0  0  0  0
 22 21  2  0  0  0  0
 23 25  2  0  0  0  0
 24 22  1  0  0  0  0
 24 26  2  0  0  0  0
 26 23  1  0  0  0  0
 29 30  1  0  0  0  0
 30 28  2  0  0  0  0
 31 30  1  0  0  0  0
 32 31  1  0  0  0  0
 32 33  1  0  0  0  0
 34 33  2  0  0  0  0
M  END
>  <MODEL>
9

>  <REMARK>
 VINA RESULT:      -8.2      2.900      4.573
  Name = 
  5 active torsions:
  status: ('A' for Active; 'I' for Inactive)
    1  A    between atoms: C_3  and  N_13
    2  A    between atoms: C_12  and  C_28
    3  A    between atoms: C_14  and  O_33
    4  A    between atoms: C_20  and  C_22
    5  A    between atoms: C_22  and  O_33
                            x       y       z     vdW  Elec       q    Type
                         _______ _______ _______ _____ _____    ______ ____

>  <TORSDO>
F 5

$$$$
