=
 OpenBabel10262422453D

 43 47  0  0  1  0  0  0  0  0999 V2000
  185.3160  177.6870  137.8090 C   0  0  1  0  0  3  0  0  0  0  0  0
  183.1780  178.7340  142.3820 C   0  0  0  0  0  0  0  0  0  0  0  0
  182.8460  178.5750  140.0180 C   0  0  0  0  0  0  0  0  0  0  0  0
  184.5520  178.9690  142.1580 C   0  0  0  0  0  3  0  0  0  0  0  0
  182.5590  178.6940  144.0170 Cl  0  0  0  0  0  0  0  0  0  0  0  0
  184.1770  178.7820  139.7980 C   0  0  0  0  0  0  0  0  0  0  0  0
  182.3030  178.5390  141.3000 C   0  0  0  0  0  3  0  0  0  0  0  0
  185.0660  179.0020  140.8490 C   0  0  0  0  0  3  0  0  0  0  0  0
  184.3730  178.7870  138.3200 C   0  0  2  0  0  3  0  0  0  0  0  0
  183.0070  178.5440  137.8390 N   0  0  0  0  0  0  0  0  0  0  0  0
  182.1640  178.4270  138.7900 N   0  0  0  0  0  0  0  0  0  0  0  0
  184.0690  175.4980  137.9720 N   0  0  0  0  0  2  0  0  0  0  0  0
  184.6670  176.5020  137.1490 C   0  0  0  0  0  0  0  0  0  0  0  0
  184.6670  176.3970  135.8920 O   0  0  0  0  0  0  0  0  0  0  0  0
  181.7570  172.7870  136.7920 C   0  0  0  0  0  0  0  0  0  0  0  0
  182.6540  171.7210  136.6730 C   0  0  0  0  0  0  0  0  0  0  0  0
  182.2160  170.5030  136.2690 F   0  0  0  0  0  0  0  0  0  0  0  0
  184.4570  173.1570  137.4110 C   0  0  0  0  0  3  0  0  0  0  0  0
  182.2120  174.0360  137.2230 C   0  0  0  0  0  3  0  0  0  0  0  0
  183.5650  174.2280  137.5400 C   0  0  0  0  0  0  0  0  0  0  0  0
  180.4470  172.6160  136.4900 F   0  0  0  0  0  0  0  0  0  0  0  0
  184.0030  171.9060  136.9820 C   0  0  0  0  0  3  0  0  0  0  0  0
  186.5670  178.1130  137.2970 O   0  0  0  0  0  0  0  0  0  0  0  0
  187.6020  177.3020  137.8030 C   0  0  1  0  0  3  0  0  0  0  0  0
  188.0930  176.3550  136.7230 C   0  0  0  0  0  1  0  0  0  0  0  0
  188.7740  178.1550  138.2930 C   0  0  2  0  0  3  0  0  0  0  0  0
  190.0760  177.3750  138.2530 C   0  0  0  0  0  1  0  0  0  0  0  0
  188.5320  178.6490  139.6240 N   0  0  0  0  0  0  0  0  0  0  0  0
  188.5980  177.8790  140.6000 N   0  0  0  0  0  0  0  0  0  0  0  0
  188.3660  178.3750  141.9310 C   0  0  0  0  0  2  0  0  0  0  0  0
  189.4390  177.9070  142.8630 C   0  0  0  0  0  0  0  0  0  0  0  0
  190.1880  176.7590  144.8690 C   0  0  0  0  0  3  0  0  0  0  0  0
  190.7600  178.2830  142.5990 C   0  0  0  0  0  3  0  0  0  0  0  0
  191.7890  177.9010  143.4640 C   0  0  0  0  0  3  0  0  0  0  0  0
  189.1500  177.1220  143.9980 C   0  0  0  0  0  0  0  0  0  0  0  0
  191.5020  177.1440  144.6010 C   0  0  0  0  0  3  0  0  0  0  0  0
  187.7430  176.6970  144.3050 C   0  0  0  0  0  2  0  0  0  0  0  0
  187.1410  177.5130  145.4040 C   0  0  0  0  0  0  0  0  0  0  0  0
  186.0010  179.0620  147.4380 C   0  0  0  0  0  3  0  0  0  0  0  0
  187.1330  178.2880  147.7010 C   0  0  0  0  0  3  0  0  0  0  0  0
  185.4360  179.0620  146.1590 C   0  0  0  0  0  3  0  0  0  0  0  0
  187.7010  177.5120  146.6880 C   0  0  0  0  0  3  0  0  0  0  0  0
  186.0060  178.2890  145.1440 C   0  0  0  0  0  3  0  0  0  0  0  0
  1 13  1  6  0  0  0
  2  5  1  0  0  0  0
  3  7  1  0  0  0  0
  4  2  1  0  0  0  0
  6  3  2  0  0  0  0
  6  8  1  0  0  0  0
  7  2  2  0  0  0  0
  8  4  2  0  0  0  0
  9  1  1  1  0  0  0
  9  6  1  0  0  0  0
 10  9  1  0  0  0  0
 10 11  2  0  0  0  0
 11  3  1  0  0  0  0
 13 12  1  0  0  0  0
 14 13  2  0  0  0  0
 15 19  1  0  0  0  0
 16 15  2  0  0  0  0
 16 22  1  0  0  0  0
 17 16  1  0  0  0  0
 18 20  1  0  0  0  0
 19 20  2  0  0  0  0
 20 12  1  0  0  0  0
 21 15  1  0  0  0  0
 22 18  2  0  0  0  0
 23 24  1  0  0  0  0
 23  1  1  0  0  0  0
 24 25  1  6  0  0  0
 24 26  1  0  0  0  0
 26 27  1  1  0  0  0
 26 28  1  0  0  0  0
 28 29  2  0  0  0  0
 29 30  1  0  0  0  0
 30 31  1  0  0  0  0
 31 35  1  0  0  0  0
 33 31  2  0  0  0  0
 33 34  1  0  0  0  0
 34 36  2  0  0  0  0
 35 37  1  0  0  0  0
 35 32  2  0  0  0  0
 36 32  1  0  0  0  0
 37 38  1  0  0  0  0
 38 42  1  0  0  0  0
 39 40  1  0  0  0  0
 41 39  2  0  0  0  0
 42 40  2  0  0  0  0
 43 38  2  0  0  0  0
 43 41  1  0  0  0  0
M  END
>  <MODEL>
1

>  <REMARK>
 VINA RESULT:      -9.2      0.000      0.000
  Name = 
  11 active torsions:
  status: ('A' for Active; 'I' for Inactive)
    1  A    between atoms: N_1  and  C_35
    2  A    between atoms: C_2  and  N_6
    3  A    between atoms: C_2  and  C_13
    4  A    between atoms: C_3  and  C_4
    5  A    between atoms: C_3  and  N_12
    6  A    between atoms: C_8  and  O_27
    7  A    between atoms: C_8  and  C_30
    8  A    between atoms: C_8  and  C_34
    9  A    between atoms: C_11  and  C_14
   10  A    between atoms: C_13  and  O_27
   11  A    between atoms: C_14  and  C_41
                            x       y       z     vdW  Elec       q    Type
                         _______ _______ _______ _____ _____    ______ ____

>  <TORSDO>
F 11

$$$$
=
 OpenBabel10262422453D

 43 47  0  0  1  0  0  0  0  0999 V2000
  190.8570  176.2810  138.6750 C   0  0  1  0  0  3  0  0  0  0  0  0
  193.6650  172.5720  136.4530 C   0  0  0  0  0  0  0  0  0  0  0  0
  193.6890  174.6710  137.6020 C   0  0  0  0  0  0  0  0  0  0  0  0
  192.3540  172.8480  136.0070 C   0  0  0  0  0  3  0  0  0  0  0  0
  194.4410  171.0740  135.9920 Cl  0  0  0  0  0  0  0  0  0  0  0  0
  192.4150  174.9320  137.1890 C   0  0  0  0  0  0  0  0  0  0  0  0
  194.3530  173.4950  137.2580 C   0  0  0  0  0  3  0  0  0  0  0  0
  191.7150  174.0480  136.3700 C   0  0  0  0  0  3  0  0  0  0  0  0
  192.0600  176.2800  137.7190 C   0  0  2  0  0  3  0  0  0  0  0  0
  193.2830  176.6440  138.4470 N   0  0  0  0  0  0  0  0  0  0  0  0
  194.1830  175.7430  138.3770 N   0  0  0  0  0  0  0  0  0  0  0  0
  190.4730  176.1780  141.1680 N   0  0  0  0  0  2  0  0  0  0  0  0
  191.1000  176.8230  140.0560 C   0  0  0  0  0  0  0  0  0  0  0  0
  191.8330  177.8350  140.2220 O   0  0  0  0  0  0  0  0  0  0  0  0
  191.1860  176.5560  144.8330 C   0  0  0  0  0  0  0  0  0  0  0  0
  190.3540  177.6350  145.1450 C   0  0  0  0  0  0  0  0  0  0  0  0
  190.2960  178.1070  146.4150 F   0  0  0  0  0  0  0  0  0  0  0  0
  189.6180  177.7320  142.8410 C   0  0  0  0  0  3  0  0  0  0  0  0
  191.2300  176.0640  143.5260 C   0  0  0  0  0  3  0  0  0  0  0  0
  190.4430  176.6470  142.5210 C   0  0  0  0  0  0  0  0  0  0  0  0
  191.9520  175.9830  145.7930 F   0  0  0  0  0  0  0  0  0  0  0  0
  189.5710  178.2230  144.1490 C   0  0  0  0  0  3  0  0  0  0  0  0
  189.5870  176.5250  138.0940 O   0  0  0  0  0  0  0  0  0  0  0  0
  189.0970  177.7810  138.5050 C   0  0  1  0  0  3  0  0  0  0  0  0
  189.3540  178.8160  137.4230 C   0  0  0  0  0  1  0  0  0  0  0  0
  187.5950  177.7140  138.7880 C   0  0  2  0  0  3  0  0  0  0  0  0
  186.7900  178.2390  137.6130 C   0  0  0  0  0  1  0  0  0  0  0  0
  187.2620  178.4460  139.9830 N   0  0  0  0  0  0  0  0  0  0  0  0
  186.0720  178.6680  140.2710 N   0  0  0  0  0  0  0  0  0  0  0  0
  185.7400  179.3920  141.4700 C   0  0  0  0  0  2  0  0  0  0  0  0
  184.3400  179.0830  141.9020 C   0  0  0  0  0  0  0  0  0  0  0  0
  182.5720  179.0260  143.5670 C   0  0  0  0  0  3  0  0  0  0  0  0
  183.4860  178.4550  140.9900 C   0  0  0  0  0  3  0  0  0  0  0  0
  182.1830  178.1130  141.3630 C   0  0  0  0  0  3  0  0  0  0  0  0
  183.8760  179.3900  143.1970 C   0  0  0  0  0  0  0  0  0  0  0  0
  181.7290  178.3950  142.6530 C   0  0  0  0  0  3  0  0  0  0  0  0
  184.7670  180.0690  144.1970 C   0  0  0  0  0  2  0  0  0  0  0  0
  185.5010  179.0850  145.0510 C   0  0  0  0  0  0  0  0  0  0  0  0
  186.8670  177.2170  146.6260 C   0  0  0  0  0  3  0  0  0  0  0  0
  186.3720  178.3890  147.2030 C   0  0  0  0  0  3  0  0  0  0  0  0
  186.6810  176.9780  145.2610 C   0  0  0  0  0  3  0  0  0  0  0  0
  185.6920  179.3230  146.4180 C   0  0  0  0  0  3  0  0  0  0  0  0
  185.9980  177.9100  144.4760 C   0  0  0  0  0  3  0  0  0  0  0  0
  1 23  1  6  0  0  0
  1 13  1  0  0  0  0
  2  7  1  0  0  0  0
  3 11  1  0  0  0  0
  4  8  1  0  0  0  0
  4  2  2  0  0  0  0
  5  2  1  0  0  0  0
  6  3  1  0  0  0  0
  6  9  1  0  0  0  0
  7  3  2  0  0  0  0
  8  6  2  0  0  0  0
  9 10  1  0  0  0  0
  9  1  1  1  0  0  0
 11 10  2  0  0  0  0
 12 20  1  0  0  0  0
 13 14  2  0  0  0  0
 13 12  1  0  0  0  0
 15 16  1  0  0  0  0
 15 21  1  0  0  0  0
 16 17  1  0  0  0  0
 18 22  1  0  0  0  0
 19 15  2  0  0  0  0
 20 18  2  0  0  0  0
 20 19  1  0  0  0  0
 22 16  2  0  0  0  0
 23 24  1  0  0  0  0
 24 25  1  6  0  0  0
 24 26  1  0  0  0  0
 26 27  1  6  0  0  0
 26 28  1  0  0  0  0
 28 29  2  0  0  0  0
 29 30  1  0  0  0  0
 30 31  1  0  0  0  0
 31 35  1  0  0  0  0
 33 34  1  0  0  0  0
 33 31  2  0  0  0  0
 34 36  2  0  0  0  0
 35 32  2  0  0  0  0
 35 37  1  0  0  0  0
 36 32  1  0  0  0  0
 37 38  1  0  0  0  0
 38 42  1  0  0  0  0
 39 40  1  0  0  0  0
 41 39  2  0  0  0  0
 42 40  2  0  0  0  0
 43 38  2  0  0  0  0
 43 41  1  0  0  0  0
M  END
>  <MODEL>
2

>  <REMARK>
 VINA RESULT:      -8.9      5.060      8.752
  Name = 
  11 active torsions:
  status: ('A' for Active; 'I' for Inactive)
    1  A    between atoms: N_1  and  C_35
    2  A    between atoms: C_2  and  N_6
    3  A    between atoms: C_2  and  C_13
    4  A    between atoms: C_3  and  C_4
    5  A    between atoms: C_3  and  N_12
    6  A    between atoms: C_8  and  O_27
    7  A    between atoms: C_8  and  C_30
    8  A    between atoms: C_8  and  C_34
    9  A    between atoms: C_11  and  C_14
   10  A    between atoms: C_13  and  O_27
   11  A    between atoms: C_14  and  C_41
                            x       y       z     vdW  Elec       q    Type
                         _______ _______ _______ _____ _____    ______ ____

>  <TORSDO>
F 11

$$$$
=
 OpenBabel10262422453D

 43 47  0  0  1  0  0  0  0  0999 V2000
  190.9930  176.4100  139.3650 C   0  0  1  0  0  3  0  0  0  0  0  0
  193.7430  173.3230  136.2850 C   0  0  0  0  0  0  0  0  0  0  0  0
  193.7980  175.0850  137.9030 C   0  0  0  0  0  0  0  0  0  0  0  0
  192.4300  173.7070  135.9340 C   0  0  0  0  0  3  0  0  0  0  0  0
  194.5000  171.9750  135.4690 Cl  0  0  0  0  0  0  0  0  0  0  0  0
  192.5230  175.4460  137.5810 C   0  0  0  0  0  0  0  0  0  0  0  0
  194.4480  174.0230  137.2800 C   0  0  0  0  0  3  0  0  0  0  0  0
  191.8060  174.7880  136.5820 C   0  0  0  0  0  3  0  0  0  0  0  0
  192.1850  176.6300  138.4230 C   0  0  2  0  0  3  0  0  0  0  0  0
  193.4190  176.8010  139.2020 N   0  0  0  0  0  0  0  0  0  0  0  0
  194.3100  175.9380  138.9060 N   0  0  0  0  0  0  0  0  0  0  0  0
  190.5300  176.1120  141.8290 N   0  0  0  0  0  2  0  0  0  0  0  0
  191.1740  176.8540  140.7900 C   0  0  0  0  0  0  0  0  0  0  0  0
  191.8710  177.8710  141.0550 O   0  0  0  0  0  0  0  0  0  0  0  0
  191.3590  176.5830  145.4590 C   0  0  0  0  0  0  0  0  0  0  0  0
  190.2130  177.2520  145.8980 C   0  0  0  0  0  0  0  0  0  0  0  0
  190.0910  177.6150  147.1990 F   0  0  0  0  0  0  0  0  0  0  0  0
  189.3000  177.1560  143.6580 C   0  0  0  0  0  3  0  0  0  0  0  0
  191.4730  176.1990  144.1200 C   0  0  0  0  0  3  0  0  0  0  0  0
  190.4420  176.4790  143.2110 C   0  0  0  0  0  0  0  0  0  0  0  0
  192.3630  176.3050  146.3260 F   0  0  0  0  0  0  0  0  0  0  0  0
  189.1840  177.5390  144.9980 C   0  0  0  0  0  3  0  0  0  0  0  0
  189.7020  176.5550  138.7970 O   0  0  0  0  0  0  0  0  0  0  0  0
  189.6330  177.7420  138.0420 C   0  0  1  0  0  3  0  0  0  0  0  0
  189.1860  177.4280  136.6250 C   0  0  0  0  0  1  0  0  0  0  0  0
  188.6500  178.7320  138.6700 C   0  0  2  0  0  3  0  0  0  0  0  0
  188.4090  178.4140  140.1340 C   0  0  0  0  0  1  0  0  0  0  0  0
  187.4000  178.7420  137.9530 N   0  0  0  0  0  0  0  0  0  0  0  0
  186.3250  178.5900  138.5640 N   0  0  0  0  0  0  0  0  0  0  0  0
  185.0770  178.6110  137.8490 C   0  0  0  0  0  2  0  0  0  0  0  0
  184.1580  177.5460  138.3620 C   0  0  0  0  0  0  0  0  0  0  0  0
  182.5980  176.6660  140.0030 C   0  0  0  0  0  3  0  0  0  0  0  0
  184.0750  176.3430  137.6540 C   0  0  0  0  0  3  0  0  0  0  0  0
  183.2600  175.3060  138.1170 C   0  0  0  0  0  3  0  0  0  0  0  0
  183.4000  177.7190  139.5370 C   0  0  0  0  0  0  0  0  0  0  0  0
  182.5260  175.4660  139.2940 C   0  0  0  0  0  3  0  0  0  0  0  0
  183.4630  179.0010  140.3160 C   0  0  0  0  0  2  0  0  0  0  0  0
  183.9510  178.7830  141.7130 C   0  0  0  0  0  0  0  0  0  0  0  0
  184.8390  178.3920  144.3390 C   0  0  0  0  0  3  0  0  0  0  0  0
  185.7280  178.2430  143.2710 C   0  0  0  0  0  3  0  0  0  0  0  0
  183.5060  178.7350  144.0950 C   0  0  0  0  0  3  0  0  0  0  0  0
  185.2850  178.4350  141.9600 C   0  0  0  0  0  3  0  0  0  0  0  0
  183.0630  178.9300  142.7840 C   0  0  0  0  0  3  0  0  0  0  0  0
  1 23  1  6  0  0  0
  1 13  1  0  0  0  0
  2  7  1  0  0  0  0
  3 11  1  0  0  0  0
  4  2  2  0  0  0  0
  4  8  1  0  0  0  0
  5  2  1  0  0  0  0
  6  3  1  0  0  0  0
  6  9  1  0  0  0  0
  7  3  2  0  0  0  0
  8  6  2  0  0  0  0
  9 10  1  0  0  0  0
  9  1  1  1  0  0  0
 11 10  2  0  0  0  0
 12 20  1  0  0  0  0
 13 14  2  0  0  0  0
 13 12  1  0  0  0  0
 15 16  1  0  0  0  0
 15 21  1  0  0  0  0
 16 17  1  0  0  0  0
 18 22  1  0  0  0  0
 19 15  2  0  0  0  0
 20 18  2  0  0  0  0
 20 19  1  0  0  0  0
 22 16  2  0  0  0  0
 24 25  1  6  0  0  0
 24 26  1  0  0  0  0
 24 23  1  0  0  0  0
 26 27  1  1  0  0  0
 28 29  2  0  0  0  0
 28 26  1  0  0  0  0
 30 31  1  0  0  0  0
 30 29  1  0  0  0  0
 31 35  1  0  0  0  0
 33 34  1  0  0  0  0
 33 31  2  0  0  0  0
 34 36  2  0  0  0  0
 35 32  2  0  0  0  0
 35 37  1  0  0  0  0
 36 32  1  0  0  0  0
 37 38  1  0  0  0  0
 38 42  2  0  0  0  0
 38 43  1  0  0  0  0
 40 39  2  0  0  0  0
 41 39  1  0  0  0  0
 42 40  1  0  0  0  0
 43 41  2  0  0  0  0
M  END
>  <MODEL>
3

>  <REMARK>
 VINA RESULT:      -8.7      4.956      9.120
  Name = 
  11 active torsions:
  status: ('A' for Active; 'I' for Inactive)
    1  A    between atoms: N_1  and  C_35
    2  A    between atoms: C_2  and  N_6
    3  A    between atoms: C_2  and  C_13
    4  A    between atoms: C_3  and  C_4
    5  A    between atoms: C_3  and  N_12
    6  A    between atoms: C_8  and  O_27
    7  A    between atoms: C_8  and  C_30
    8  A    between atoms: C_8  and  C_34
    9  A    between atoms: C_11  and  C_14
   10  A    between atoms: C_13  and  O_27
   11  A    between atoms: C_14  and  C_41
                            x       y       z     vdW  Elec       q    Type
                         _______ _______ _______ _____ _____    ______ ____

>  <TORSDO>
F 11

$$$$
=
 OpenBabel10262422453D

 43 47  0  0  1  0  0  0  0  0999 V2000
  186.9790  177.7490  137.6930 C   0  0  1  0  0  3  0  0  0  0  0  0
  189.0410  173.7790  135.1310 C   0  0  0  0  0  0  0  0  0  0  0  0
  189.0100  176.1520  135.4380 C   0  0  0  0  0  0  0  0  0  0  0  0
  187.7160  173.7150  135.6140 C   0  0  0  0  0  3  0  0  0  0  0  0
  189.8590  172.3130  134.6440 Cl  0  0  0  0  0  0  0  0  0  0  0  0
  187.7370  176.0910  135.9240 C   0  0  0  0  0  0  0  0  0  0  0  0
  189.7040  175.0140  135.0320 C   0  0  0  0  0  3  0  0  0  0  0  0
  187.0440  174.8850  136.0120 C   0  0  0  0  0  3  0  0  0  0  0  0
  187.3220  177.4930  136.2180 C   0  0  2  0  0  3  0  0  0  0  0  0
  188.5270  178.2440  135.8430 N   0  0  0  0  0  0  0  0  0  0  0  0
  189.4610  177.4900  135.4100 N   0  0  0  0  0  0  0  0  0  0  0  0
  185.0900  178.9430  138.8690 N   0  0  0  0  0  2  0  0  0  0  0  0
  185.5180  177.8660  138.0310 C   0  0  0  0  0  0  0  0  0  0  0  0
  184.6950  177.0180  137.5910 O   0  0  0  0  0  0  0  0  0  0  0  0
  181.5170  179.9850  139.3570 C   0  0  0  0  0  0  0  0  0  0  0  0
  181.2450  179.3900  140.5930 C   0  0  0  0  0  0  0  0  0  0  0  0
  180.0240  179.5330  141.1640 F   0  0  0  0  0  0  0  0  0  0  0  0
  183.5020  178.5190  140.6700 C   0  0  0  0  0  3  0  0  0  0  0  0
  182.7830  179.8470  138.7810 C   0  0  0  0  0  3  0  0  0  0  0  0
  183.7850  179.1160  139.4360 C   0  0  0  0  0  0  0  0  0  0  0  0
  180.5590  180.6940  138.7130 F   0  0  0  0  0  0  0  0  0  0  0  0
  182.2370  178.6580  141.2490 C   0  0  0  0  0  3  0  0  0  0  0  0
  187.8230  177.1390  138.6550 O   0  0  0  0  0  0  0  0  0  0  0  0
  188.5570  178.1190  139.3500 C   0  0  1  0  0  3  0  0  0  0  0  0
  187.7910  178.5600  140.5850 C   0  0  0  0  0  1  0  0  0  0  0  0
  189.9240  177.5780  139.7750 C   0  0  2  0  0  3  0  0  0  0  0  0
  190.6680  176.9790  138.5960 C   0  0  0  0  0  1  0  0  0  0  0  0
  189.7890  176.6010  140.8240 N   0  0  0  0  0  0  0  0  0  0  0  0
  190.5220  176.6530  141.8290 N   0  0  0  0  0  0  0  0  0  0  0  0
  190.3800  175.6820  142.8810 C   0  0  0  0  0  2  0  0  0  0  0  0
  190.2540  176.3590  144.2100 C   0  0  0  0  0  0  0  0  0  0  0  0
  188.9730  177.5400  145.9040 C   0  0  0  0  0  3  0  0  0  0  0  0
  191.4030  176.5070  144.9930 C   0  0  0  0  0  3  0  0  0  0  0  0
  191.3390  177.1660  146.2240 C   0  0  0  0  0  3  0  0  0  0  0  0
  189.0230  176.8630  144.6750 C   0  0  0  0  0  0  0  0  0  0  0  0
  190.1250  177.6870  146.6760 C   0  0  0  0  0  3  0  0  0  0  0  0
  187.7690  176.7160  143.8600 C   0  0  0  0  0  2  0  0  0  0  0  0
  186.6310  177.4900  144.4440 C   0  0  0  0  0  0  0  0  0  0  0  0
  184.4980  178.9180  145.5620 C   0  0  0  0  0  3  0  0  0  0  0  0
  184.7290  178.9720  144.1860 C   0  0  0  0  0  3  0  0  0  0  0  0
  185.3330  178.1520  146.3810 C   0  0  0  0  0  3  0  0  0  0  0  0
  185.7950  178.2620  143.6270 C   0  0  0  0  0  3  0  0  0  0  0  0
  186.3970  177.4390  145.8230 C   0  0  0  0  0  3  0  0  0  0  0  0
  1 13  1  1  0  0  0
  1 23  1  0  0  0  0
  2  4  1  0  0  0  0
  3  6  2  0  0  0  0
  4  8  2  0  0  0  0
  5  2  1  0  0  0  0
  6  8  1  0  0  0  0
  6  9  1  0  0  0  0
  7  2  2  0  0  0  0
  7  3  1  0  0  0  0
  9  1  1  1  0  0  0
 10  9  1  0  0  0  0
 11  3  1  0  0  0  0
 11 10  2  0  0  0  0
 12 20  1  0  0  0  0
 13 12  1  0  0  0  0
 14 13  2  0  0  0  0
 15 16  1  0  0  0  0
 16 17  1  0  0  0  0
 16 22  2  0  0  0  0
 18 22  1  0  0  0  0
 19 15  2  0  0  0  0
 19 20  1  0  0  0  0
 20 18  2  0  0  0  0
 21 15  1  0  0  0  0
 23 24  1  0  0  0  0
 24 26  1  0  0  0  0
 24 25  1  1  0  0  0
 26 27  1  6  0  0  0
 26 28  1  0  0  0  0
 28 29  2  0  0  0  0
 29 30  1  0  0  0  0
 30 31  1  0  0  0  0
 31 35  2  0  0  0  0
 31 33  1  0  0  0  0
 32 36  2  0  0  0  0
 33 34  2  0  0  0  0
 34 36  1  0  0  0  0
 35 32  1  0  0  0  0
 37 38  1  0  0  0  0
 37 35  1  0  0  0  0
 38 43  1  0  0  0  0
 39 41  1  0  0  0  0
 40 39  2  0  0  0  0
 42 40  1  0  0  0  0
 42 38  2  0  0  0  0
 43 41  2  0  0  0  0
M  END
>  <MODEL>
4

>  <REMARK>
 VINA RESULT:      -8.7      3.710      5.669
  Name = 
  11 active torsions:
  status: ('A' for Active; 'I' for Inactive)
    1  A    between atoms: N_1  and  C_35
    2  A    between atoms: C_2  and  N_6
    3  A    between atoms: C_2  and  C_13
    4  A    between atoms: C_3  and  C_4
    5  A    between atoms: C_3  and  N_12
    6  A    between atoms: C_8  and  O_27
    7  A    between atoms: C_8  and  C_30
    8  A    between atoms: C_8  and  C_34
    9  A    between atoms: C_11  and  C_14
   10  A    between atoms: C_13  and  O_27
   11  A    between atoms: C_14  and  C_41
                            x       y       z     vdW  Elec       q    Type
                         _______ _______ _______ _____ _____    ______ ____

>  <TORSDO>
F 11

$$$$
=
 OpenBabel10262422453D

 43 47  0  0  1  0  0  0  0  0999 V2000
  189.7910  176.3630  142.0520 C   0  0  1  0  0  3  0  0  0  0  0  0
  192.0550  175.9660  146.6670 C   0  0  0  0  0  0  0  0  0  0  0  0
  191.1740  177.4400  145.0000 C   0  0  0  0  0  0  0  0  0  0  0  0
  192.2820  174.9960  145.6670 C   0  0  0  0  0  3  0  0  0  0  0  0
  192.4770  175.6180  148.3270 Cl  0  0  0  0  0  0  0  0  0  0  0  0
  191.3740  176.4980  144.0340 C   0  0  0  0  0  0  0  0  0  0  0  0
  191.4980  177.2140  146.3360 C   0  0  0  0  0  3  0  0  0  0  0  0
  191.9460  175.2600  144.3270 C   0  0  0  0  0  3  0  0  0  0  0  0
  190.9440  177.1070  142.7430 C   0  0  2  0  0  3  0  0  0  0  0  0
  190.4970  178.4370  143.1770 N   0  0  0  0  0  0  0  0  0  0  0  0
  190.6290  178.6140  144.4340 N   0  0  0  0  0  0  0  0  0  0  0  0
  187.7720  177.7210  142.7260 N   0  0  0  0  0  2  0  0  0  0  0  0
  188.4420  176.4580  142.7100 C   0  0  0  0  0  0  0  0  0  0  0  0
  187.9260  175.4410  143.2480 O   0  0  0  0  0  0  0  0  0  0  0  0
  185.3860  178.4940  145.5180 C   0  0  0  0  0  0  0  0  0  0  0  0
  184.2080  178.7070  144.7950 C   0  0  0  0  0  0  0  0  0  0  0  0
  183.0560  179.0120  145.4430 F   0  0  0  0  0  0  0  0  0  0  0  0
  185.3950  178.2650  142.7320 C   0  0  0  0  0  3  0  0  0  0  0  0
  186.5660  178.1650  144.8460 C   0  0  0  0  0  3  0  0  0  0  0  0
  186.5770  178.0440  143.4480 C   0  0  0  0  0  0  0  0  0  0  0  0
  185.3900  178.6070  146.8690 F   0  0  0  0  0  0  0  0  0  0  0  0
  184.2130  178.5930  143.4030 C   0  0  0  0  0  3  0  0  0  0  0  0
  189.8220  176.3240  140.6350 O   0  0  0  0  0  0  0  0  0  0  0  0
  190.4380  177.4850  140.1290 C   0  0  1  0  0  3  0  0  0  0  0  0
  191.7650  177.1280  139.4820 C   0  0  0  0  0  1  0  0  0  0  0  0
  189.5440  178.1710  139.0940 C   0  0  2  0  0  3  0  0  0  0  0  0
  188.2370  178.6290  139.7150 C   0  0  0  0  0  1  0  0  0  0  0  0
  189.2830  177.2970  137.9790 N   0  0  0  0  0  0  0  0  0  0  0  0
  188.1130  177.0840  137.6100 N   0  0  0  0  0  0  0  0  0  0  0  0
  187.8530  176.2190  136.4890 C   0  0  0  0  0  2  0  0  0  0  0  0
  186.7620  175.2480  136.8140 C   0  0  0  0  0  0  0  0  0  0  0  0
  184.4190  174.6660  137.0880 C   0  0  0  0  0  3  0  0  0  0  0  0
  187.1190  173.9660  137.2450 C   0  0  0  0  0  3  0  0  0  0  0  0
  186.1340  173.0390  137.5960 C   0  0  0  0  0  3  0  0  0  0  0  0
  185.4000  175.5980  136.7170 C   0  0  0  0  0  0  0  0  0  0  0  0
  184.7850  173.3910  137.5230 C   0  0  0  0  0  3  0  0  0  0  0  0
  184.9840  176.9640  136.2520 C   0  0  0  0  0  2  0  0  0  0  0  0
  184.2240  177.7040  137.3050 C   0  0  0  0  0  0  0  0  0  0  0  0
  182.8240  179.0830  139.3000 C   0  0  0  0  0  3  0  0  0  0  0  0
  182.1390  178.5570  138.2020 C   0  0  0  0  0  3  0  0  0  0  0  0
  184.2090  178.9210  139.4010 C   0  0  0  0  0  3  0  0  0  0  0  0
  182.8370  177.8720  137.2040 C   0  0  0  0  0  3  0  0  0  0  0  0
  184.9070  178.2320  138.4060 C   0  0  0  0  0  3  0  0  0  0  0  0
  1 23  1  6  0  0  0
  1 13  1  0  0  0  0
  2  5  1  0  0  0  0
  3  7  2  0  0  0  0
  4  2  2  0  0  0  0
  6  8  2  0  0  0  0
  6  3  1  0  0  0  0
  7  2  1  0  0  0  0
  8  4  1  0  0  0  0
  9  1  1  1  0  0  0
  9 10  1  0  0  0  0
  9  6  1  0  0  0  0
 10 11  2  0  0  0  0
 11  3  1  0  0  0  0
 12 20  1  0  0  0  0
 13 12  1  0  0  0  0
 13 14  2  0  0  0  0
 15 21  1  0  0  0  0
 16 17  1  0  0  0  0
 16 15  2  0  0  0  0
 18 22  2  0  0  0  0
 18 20  1  0  0  0  0
 19 15  1  0  0  0  0
 20 19  2  0  0  0  0
 22 16  1  0  0  0  0
 24 25  1  6  0  0  0
 24 23  1  0  0  0  0
 26 27  1  1  0  0  0
 26 24  1  0  0  0  0
 28 26  1  0  0  0  0
 29 28  2  0  0  0  0
 30 31  1  0  0  0  0
 30 29  1  0  0  0  0
 31 33  1  0  0  0  0
 32 36  2  0  0  0  0
 33 34  2  0  0  0  0
 35 31  2  0  0  0  0
 35 32  1  0  0  0  0
 36 34  1  0  0  0  0
 37 35  1  0  0  0  0
 37 38  1  0  0  0  0
 38 43  1  0  0  0  0
 39 41  1  0  0  0  0
 40 39  2  0  0  0  0
 42 38  2  0  0  0  0
 42 40  1  0  0  0  0
 43 41  2  0  0  0  0
M  END
>  <MODEL>
5

>  <REMARK>
 VINA RESULT:      -8.6      3.940      8.519
  Name = 
  11 active torsions:
  status: ('A' for Active; 'I' for Inactive)
    1  A    between atoms: N_1  and  C_35
    2  A    between atoms: C_2  and  N_6
    3  A    between atoms: C_2  and  C_13
    4  A    between atoms: C_3  and  C_4
    5  A    between atoms: C_3  and  N_12
    6  A    between atoms: C_8  and  O_27
    7  A    between atoms: C_8  and  C_30
    8  A    between atoms: C_8  and  C_34
    9  A    between atoms: C_11  and  C_14
   10  A    between atoms: C_13  and  O_27
   11  A    between atoms: C_14  and  C_41
                            x       y       z     vdW  Elec       q    Type
                         _______ _______ _______ _____ _____    ______ ____

>  <TORSDO>
F 11

$$$$
=
 OpenBabel10262422453D

 43 47  0  0  1  0  0  0  0  0999 V2000
  185.8790  178.2590  138.3710 C   0  0  1  0  0  3  0  0  0  0  0  0
  184.5190  173.5580  136.7470 C   0  0  0  0  0  0  0  0  0  0  0  0
  185.7230  175.5660  136.2520 C   0  0  0  0  0  0  0  0  0  0  0  0
  183.6790  174.2940  137.6110 C   0  0  0  0  0  3  0  0  0  0  0  0
  184.2630  171.8410  136.5390 Cl  0  0  0  0  0  0  0  0  0  0  0  0
  184.9260  176.2760  137.1010 C   0  0  0  0  0  0  0  0  0  0  0  0
  185.5570  174.1980  136.0480 C   0  0  0  0  0  3  0  0  0  0  0  0
  183.8730  175.6750  137.7910 C   0  0  0  0  0  3  0  0  0  0  0  0
  185.3800  177.6950  137.0330 C   0  0  2  0  0  3  0  0  0  0  0  0
  186.4920  177.6040  136.0770 N   0  0  0  0  0  0  0  0  0  0  0  0
  186.6760  176.4170  135.6480 N   0  0  0  0  0  0  0  0  0  0  0  0
  184.1990  178.1060  140.2490 N   0  0  0  0  0  2  0  0  0  0  0  0
  184.8460  178.9030  139.2540 C   0  0  0  0  0  0  0  0  0  0  0  0
  184.5520  180.1200  139.1040 O   0  0  0  0  0  0  0  0  0  0  0  0
  182.0660  179.0000  143.2050 C   0  0  0  0  0  0  0  0  0  0  0  0
  180.8520  179.2790  142.5690 C   0  0  0  0  0  0  0  0  0  0  0  0
  179.7690  179.6450  143.2970 F   0  0  0  0  0  0  0  0  0  0  0  0
  181.8620  178.7800  140.4270 C   0  0  0  0  0  3  0  0  0  0  0  0
  183.1750  178.6090  142.4510 C   0  0  0  0  0  3  0  0  0  0  0  0
  183.0790  178.4920  141.0560 C   0  0  0  0  0  0  0  0  0  0  0  0
  182.1730  179.1080  144.5520 F   0  0  0  0  0  0  0  0  0  0  0  0
  180.7510  179.1690  141.1800 C   0  0  0  0  0  3  0  0  0  0  0  0
  186.9260  177.5460  139.0080 O   0  0  0  0  0  0  0  0  0  0  0  0
  187.9020  178.4410  139.4890 C   0  0  1  0  0  3  0  0  0  0  0  0
  187.7370  178.6280  140.9870 C   0  0  0  0  0  1  0  0  0  0  0  0
  189.3110  177.9180  139.2010 C   0  0  2  0  0  3  0  0  0  0  0  0
  189.2830  176.7970  138.1780 C   0  0  0  0  0  1  0  0  0  0  0  0
  189.9520  177.4690  140.4100 N   0  0  0  0  0  0  0  0  0  0  0  0
  189.5920  176.4080  140.9540 N   0  0  0  0  0  0  0  0  0  0  0  0
  190.2400  175.9550  142.1570 C   0  0  0  0  0  2  0  0  0  0  0  0
  190.5010  177.1040  143.0800 C   0  0  0  0  0  0  0  0  0  0  0  0
  189.8310  178.6350  144.8430 C   0  0  0  0  0  3  0  0  0  0  0  0
  191.7130  177.7910  142.9600 C   0  0  0  0  0  3  0  0  0  0  0  0
  191.9840  178.8940  143.7750 C   0  0  0  0  0  3  0  0  0  0  0  0
  189.5570  177.5160  144.0420 C   0  0  0  0  0  0  0  0  0  0  0  0
  191.0400  179.3180  144.7120 C   0  0  0  0  0  3  0  0  0  0  0  0
  188.2490  176.7950  144.2000 C   0  0  0  0  0  2  0  0  0  0  0  0
  187.3340  177.5010  145.1500 C   0  0  0  0  0  0  0  0  0  0  0  0
  185.6350  178.8030  146.9540 C   0  0  0  0  0  3  0  0  0  0  0  0
  185.3060  178.7500  145.5980 C   0  0  0  0  0  3  0  0  0  0  0  0
  186.8150  178.2060  147.4100 C   0  0  0  0  0  3  0  0  0  0  0  0
  186.1540  178.1030  144.6950 C   0  0  0  0  0  3  0  0  0  0  0  0
  187.6620  177.5560  146.5090 C   0  0  0  0  0  3  0  0  0  0  0  0
  1 23  1  1  0  0  0
  1 13  1  0  0  0  0
  2  4  1  0  0  0  0
  3  6  2  0  0  0  0
  4  8  2  0  0  0  0
  5  2  1  0  0  0  0
  6  8  1  0  0  0  0
  7  3  1  0  0  0  0
  7  2  2  0  0  0  0
  9  6  1  0  0  0  0
  9  1  1  1  0  0  0
 10  9  1  0  0  0  0
 11 10  2  0  0  0  0
 11  3  1  0  0  0  0
 12 20  1  0  0  0  0
 13 12  1  0  0  0  0
 14 13  2  0  0  0  0
 15 21  1  0  0  0  0
 16 15  1  0  0  0  0
 16 17  1  0  0  0  0
 18 20  2  0  0  0  0
 18 22  1  0  0  0  0
 19 15  2  0  0  0  0
 20 19  1  0  0  0  0
 22 16  2  0  0  0  0
 23 24  1  0  0  0  0
 24 25  1  1  0  0  0
 26 27  1  6  0  0  0
 26 24  1  0  0  0  0
 26 28  1  0  0  0  0
 28 29  2  0  0  0  0
 29 30  1  0  0  0  0
 30 31  1  0  0  0  0
 31 35  1  0  0  0  0
 33 31  2  0  0  0  0
 33 34  1  0  0  0  0
 34 36  2  0  0  0  0
 35 37  1  0  0  0  0
 35 32  2  0  0  0  0
 36 32  1  0  0  0  0
 37 38  1  0  0  0  0
 38 43  1  0  0  0  0
 39 41  1  0  0  0  0
 40 39  2  0  0  0  0
 42 38  2  0  0  0  0
 42 40  1  0  0  0  0
 43 41  2  0  0  0  0
M  END
>  <MODEL>
6

>  <REMARK>
 VINA RESULT:      -8.4      3.204      5.185
  Name = 
  11 active torsions:
  status: ('A' for Active; 'I' for Inactive)
    1  A    between atoms: N_1  and  C_35
    2  A    between atoms: C_2  and  N_6
    3  A    between atoms: C_2  and  C_13
    4  A    between atoms: C_3  and  C_4
    5  A    between atoms: C_3  and  N_12
    6  A    between atoms: C_8  and  O_27
    7  A    between atoms: C_8  and  C_30
    8  A    between atoms: C_8  and  C_34
    9  A    between atoms: C_11  and  C_14
   10  A    between atoms: C_13  and  O_27
   11  A    between atoms: C_14  and  C_41
                            x       y       z     vdW  Elec       q    Type
                         _______ _______ _______ _____ _____    ______ ____

>  <TORSDO>
F 11

$$$$
=
 OpenBabel10262422453D

 43 47  0  0  1  0  0  0  0  0999 V2000
  190.2960  176.2330  138.5900 C   0  0  1  0  0  3  0  0  0  0  0  0
  194.1680  173.1550  137.1340 C   0  0  0  0  0  0  0  0  0  0  0  0
  193.5470  175.2450  138.1210 C   0  0  0  0  0  0  0  0  0  0  0  0
  192.9300  173.1250  136.4570 C   0  0  0  0  0  3  0  0  0  0  0  0
  195.3100  171.8490  136.9150 Cl  0  0  0  0  0  0  0  0  0  0  0  0
  192.3410  175.2090  137.4840 C   0  0  0  0  0  0  0  0  0  0  0  0
  194.4930  174.2330  137.9770 C   0  0  0  0  0  3  0  0  0  0  0  0
  191.9990  174.1670  136.6230 C   0  0  0  0  0  3  0  0  0  0  0  0
  191.6230  176.4630  137.8520 C   0  0  2  0  0  3  0  0  0  0  0  0
  192.5930  177.1080  138.7470 N   0  0  0  0  0  0  0  0  0  0  0  0
  193.6600  176.4240  138.8910 N   0  0  0  0  0  0  0  0  0  0  0  0
  190.4570  176.0580  141.1030 N   0  0  0  0  0  2  0  0  0  0  0  0
  190.1700  176.8570  139.9520 C   0  0  0  0  0  0  0  0  0  0  0  0
  189.8040  178.0570  140.0690 O   0  0  0  0  0  0  0  0  0  0  0  0
  188.7480  176.8030  144.3610 C   0  0  0  0  0  0  0  0  0  0  0  0
  189.8520  177.1060  145.1640 C   0  0  0  0  0  0  0  0  0  0  0  0
  189.6760  177.4540  146.4630 F   0  0  0  0  0  0  0  0  0  0  0  0
  191.3260  176.7180  143.2830 C   0  0  0  0  0  3  0  0  0  0  0  0
  188.9360  176.4590  143.0200 C   0  0  0  0  0  3  0  0  0  0  0  0
  190.2260  176.4190  142.4710 C   0  0  0  0  0  0  0  0  0  0  0  0
  187.4960  176.8380  144.8780 F   0  0  0  0  0  0  0  0  0  0  0  0
  191.1400  177.0640  144.6250 C   0  0  0  0  0  3  0  0  0  0  0  0
  189.1280  176.1760  137.7890 O   0  0  0  0  0  0  0  0  0  0  0  0
  189.3320  176.8700  136.5800 C   0  0  1  0  0  3  0  0  0  0  0  0
  189.0530  175.9520  135.4030 C   0  0  0  0  0  1  0  0  0  0  0  0
  188.4170  178.0930  136.4910 C   0  0  2  0  0  3  0  0  0  0  0  0
  189.0100  179.2790  137.2290 C   0  0  0  0  0  1  0  0  0  0  0  0
  187.1050  177.7940  137.0070 N   0  0  0  0  0  0  0  0  0  0  0  0
  186.5790  178.5410  137.8520 N   0  0  0  0  0  0  0  0  0  0  0  0
  185.2650  178.2480  138.3600 C   0  0  0  0  0  2  0  0  0  0  0  0
  185.2400  178.3520  139.8530 C   0  0  0  0  0  0  0  0  0  0  0  0
  184.0780  178.3410  141.9860 C   0  0  0  0  0  3  0  0  0  0  0  0
  186.4330  178.6550  140.5180 C   0  0  0  0  0  3  0  0  0  0  0  0
  186.4490  178.8010  141.9080 C   0  0  0  0  0  3  0  0  0  0  0  0
  184.0540  178.1750  140.5930 C   0  0  0  0  0  0  0  0  0  0  0  0
  185.2710  178.6490  142.6410 C   0  0  0  0  0  3  0  0  0  0  0  0
  182.7590  177.8430  139.9090 C   0  0  0  0  0  2  0  0  0  0  0  0
  181.8650  179.0370  139.7980 C   0  0  0  0  0  0  0  0  0  0  0  0
  180.1680  181.2550  139.6040 C   0  0  0  0  0  3  0  0  0  0  0  0
  181.2410  181.1180  138.7200 C   0  0  0  0  0  3  0  0  0  0  0  0
  179.9430  180.2860  140.5850 C   0  0  0  0  0  3  0  0  0  0  0  0
  182.0910  180.0130  138.8180 C   0  0  0  0  0  3  0  0  0  0  0  0
  180.7900  179.1790  140.6810 C   0  0  0  0  0  3  0  0  0  0  0  0
  1 23  1  6  0  0  0
  1 13  1  0  0  0  0
  2  7  1  0  0  0  0
  3 11  1  0  0  0  0
  4  8  1  0  0  0  0
  4  2  2  0  0  0  0
  5  2  1  0  0  0  0
  6  9  1  0  0  0  0
  6  3  1  0  0  0  0
  7  3  2  0  0  0  0
  8  6  2  0  0  0  0
  9  1  1  1  0  0  0
  9 10  1  0  0  0  0
 10 11  2  0  0  0  0
 12 20  1  0  0  0  0
 13 14  2  0  0  0  0
 13 12  1  0  0  0  0
 15 21  1  0  0  0  0
 15 16  1  0  0  0  0
 16 17  1  0  0  0  0
 18 22  1  0  0  0  0
 19 15  2  0  0  0  0
 20 19  1  0  0  0  0
 20 18  2  0  0  0  0
 22 16  2  0  0  0  0
 24 25  1  6  0  0  0
 24 23  1  0  0  0  0
 26 24  1  0  0  0  0
 26 28  1  0  0  0  0
 26 27  1  1  0  0  0
 28 29  2  0  0  0  0
 29 30  1  0  0  0  0
 30 31  1  0  0  0  0
 31 33  2  0  0  0  0
 31 35  1  0  0  0  0
 32 36  1  0  0  0  0
 33 34  1  0  0  0  0
 34 36  2  0  0  0  0
 35 32  2  0  0  0  0
 37 35  1  0  0  0  0
 38 37  1  0  0  0  0
 38 43  1  0  0  0  0
 39 41  1  0  0  0  0
 40 42  1  0  0  0  0
 40 39  2  0  0  0  0
 41 43  2  0  0  0  0
 42 38  2  0  0  0  0
M  END
>  <MODEL>
7

>  <REMARK>
 VINA RESULT:      -8.4      4.668      8.820
  Name = 
  11 active torsions:
  status: ('A' for Active; 'I' for Inactive)
    1  A    between atoms: N_1  and  C_35
    2  A    between atoms: C_2  and  N_6
    3  A    between atoms: C_2  and  C_13
    4  A    between atoms: C_3  and  C_4
    5  A    between atoms: C_3  and  N_12
    6  A    between atoms: C_8  and  O_27
    7  A    between atoms: C_8  and  C_30
    8  A    between atoms: C_8  and  C_34
    9  A    between atoms: C_11  and  C_14
   10  A    between atoms: C_13  and  O_27
   11  A    between atoms: C_14  and  C_41
                            x       y       z     vdW  Elec       q    Type
                         _______ _______ _______ _____ _____    ______ ____

>  <TORSDO>
F 11

$$$$
=
 OpenBabel10262422453D

 43 47  0  0  1  0  0  0  0  0999 V2000
  187.7140  176.1410  137.3270 C   0  0  1  0  0  3  0  0  0  0  0  0
  182.5730  176.2510  137.7000 C   0  0  0  0  0  0  0  0  0  0  0  0
  184.5240  174.8860  137.4640 C   0  0  0  0  0  0  0  0  0  0  0  0
  183.2770  177.3300  137.1240 C   0  0  0  0  0  3  0  0  0  0  0  0
  180.9100  176.4650  138.1960 Cl  0  0  0  0  0  0  0  0  0  0  0  0
  185.2140  175.9330  136.9250 C   0  0  0  0  0  0  0  0  0  0  0  0
  183.1970  175.0030  137.8710 C   0  0  0  0  0  3  0  0  0  0  0  0
  184.6160  177.1760  136.7210 C   0  0  0  0  0  3  0  0  0  0  0  0
  186.5740  175.4240  136.5880 C   0  0  2  0  0  3  0  0  0  0  0  0
  186.4860  174.0260  137.0320 N   0  0  0  0  0  0  0  0  0  0  0  0
  185.3430  173.7360  137.5180 N   0  0  0  0  0  0  0  0  0  0  0  0
  190.0110  175.2200  137.8260 N   0  0  0  0  0  2  0  0  0  0  0  0
  189.1120  175.8100  136.8840 C   0  0  0  0  0  0  0  0  0  0  0  0
  189.4820  176.0640  135.7050 O   0  0  0  0  0  0  0  0  0  0  0  0
  193.2860  173.6560  136.8680 C   0  0  0  0  0  0  0  0  0  0  0  0
  194.1760  174.6460  137.2950 C   0  0  0  0  0  0  0  0  0  0  0  0
  195.5120  174.4740  137.1430 F   0  0  0  0  0  0  0  0  0  0  0  0
  192.3130  175.9870  138.0640 C   0  0  0  0  0  3  0  0  0  0  0  0
  191.9100  173.8330  137.0410 C   0  0  0  0  0  3  0  0  0  0  0  0
  191.4150  174.9990  137.6440 C   0  0  0  0  0  0  0  0  0  0  0  0
  193.7500  172.5250  136.2830 F   0  0  0  0  0  0  0  0  0  0  0  0
  193.6890  175.8110  137.8930 C   0  0  0  0  0  3  0  0  0  0  0  0
  187.4600  177.4730  137.7410 O   0  0  0  0  0  0  0  0  0  0  0  0
  188.6630  178.1010  138.1200 C   0  0  1  0  0  3  0  0  0  0  0  0
  188.8980  179.3300  137.2590 C   0  0  0  0  0  1  0  0  0  0  0  0
  188.6190  178.5210  139.5910 C   0  0  2  0  0  3  0  0  0  0  0  0
  189.6780  177.7960  140.4010 C   0  0  0  0  0  1  0  0  0  0  0  0
  187.3150  178.2850  140.1560 N   0  0  0  0  0  0  0  0  0  0  0  0
  187.1020  178.5180  141.3610 N   0  0  0  0  0  0  0  0  0  0  0  0
  185.7970  178.2910  141.9220 C   0  0  0  0  0  2  0  0  0  0  0  0
  185.8540  178.3180  143.4180 C   0  0  0  0  0  0  0  0  0  0  0  0
  186.6670  177.4840  145.5490 C   0  0  0  0  0  3  0  0  0  0  0  0
  185.0270  179.2180  144.0980 C   0  0  0  0  0  3  0  0  0  0  0  0
  185.0190  179.2510  145.4950 C   0  0  0  0  0  3  0  0  0  0  0  0
  186.6960  177.4550  144.1470 C   0  0  0  0  0  0  0  0  0  0  0  0
  185.8350  178.3810  146.2200 C   0  0  0  0  0  3  0  0  0  0  0  0
  187.5990  176.4810  143.4450 C   0  0  0  0  0  2  0  0  0  0  0  0
  189.0430  176.8010  143.6670 C   0  0  0  0  0  0  0  0  0  0  0  0
  191.7390  177.4330  144.0800 C   0  0  0  0  0  3  0  0  0  0  0  0
  191.3830  176.1730  143.5930 C   0  0  0  0  0  3  0  0  0  0  0  0
  190.7480  178.3780  144.3620 C   0  0  0  0  0  3  0  0  0  0  0  0
  190.0380  175.8550  143.3900 C   0  0  0  0  0  3  0  0  0  0  0  0
  189.4030  178.0620  144.1550 C   0  0  0  0  0  3  0  0  0  0  0  0
  1 13  1  6  0  0  0
  1 23  1  0  0  0  0
  2  7  1  0  0  0  0
  2  5  1  0  0  0  0
  3 11  1  0  0  0  0
  3  7  2  0  0  0  0
  4  2  2  0  0  0  0
  6  3  1  0  0  0  0
  8  6  2  0  0  0  0
  8  4  1  0  0  0  0
  9  6  1  0  0  0  0
  9 10  1  0  0  0  0
  9  1  1  1  0  0  0
 10 11  2  0  0  0  0
 13 12  1  0  0  0  0
 14 13  2  0  0  0  0
 15 19  2  0  0  0  0
 15 16  1  0  0  0  0
 16 22  2  0  0  0  0
 17 16  1  0  0  0  0
 19 20  1  0  0  0  0
 20 12  1  0  0  0  0
 20 18  2  0  0  0  0
 21 15  1  0  0  0  0
 22 18  1  0  0  0  0
 23 24  1  0  0  0  0
 24 25  1  6  0  0  0
 24 26  1  0  0  0  0
 26 28  1  0  0  0  0
 26 27  1  1  0  0  0
 28 29  2  0  0  0  0
 29 30  1  0  0  0  0
 30 31  1  0  0  0  0
 31 33  2  0  0  0  0
 31 35  1  0  0  0  0
 32 36  1  0  0  0  0
 33 34  1  0  0  0  0
 34 36  2  0  0  0  0
 35 32  2  0  0  0  0
 37 38  1  0  0  0  0
 37 35  1  0  0  0  0
 38 43  1  0  0  0  0
 39 41  1  0  0  0  0
 40 39  2  0  0  0  0
 42 40  1  0  0  0  0
 42 38  2  0  0  0  0
 43 41  2  0  0  0  0
M  END
>  <MODEL>
8

>  <REMARK>
 VINA RESULT:      -8.4      3.636      6.265
  Name = 
  11 active torsions:
  status: ('A' for Active; 'I' for Inactive)
    1  A    between atoms: N_1  and  C_35
    2  A    between atoms: C_2  and  N_6
    3  A    between atoms: C_2  and  C_13
    4  A    between atoms: C_3  and  C_4
    5  A    between atoms: C_3  and  N_12
    6  A    between atoms: C_8  and  O_27
    7  A    between atoms: C_8  and  C_30
    8  A    between atoms: C_8  and  C_34
    9  A    between atoms: C_11  and  C_14
   10  A    between atoms: C_13  and  O_27
   11  A    between atoms: C_14  and  C_41
                            x       y       z     vdW  Elec       q    Type
                         _______ _______ _______ _____ _____    ______ ____

>  <TORSDO>
F 11

$$$$
=
 OpenBabel10262422453D

 43 47  0  0  1  0  0  0  0  0999 V2000
  189.1510  177.3150  138.6410 C   0  0  1  0  0  3  0  0  0  0  0  0
  193.5310  176.0110  136.2540 C   0  0  0  0  0  0  0  0  0  0  0  0
  191.2280  175.4770  136.6210 C   0  0  0  0  0  0  0  0  0  0  0  0
  193.5590  176.6780  137.4970 C   0  0  0  0  0  3  0  0  0  0  0  0
  194.9750  175.9460  135.2700 Cl  0  0  0  0  0  0  0  0  0  0  0  0
  191.2460  176.1380  137.8150 C   0  0  0  0  0  0  0  0  0  0  0  0
  192.3520  175.3920  135.8030 C   0  0  0  0  0  3  0  0  0  0  0  0
  192.4060  176.7410  138.3000 C   0  0  0  0  0  3  0  0  0  0  0  0
  189.8870  175.9870  138.4110 C   0  0  2  0  0  3  0  0  0  0  0  0
  189.1980  175.1990  137.3810 N   0  0  0  0  0  0  0  0  0  0  0  0
  189.9500  174.9200  136.3890 N   0  0  0  0  0  0  0  0  0  0  0  0
  189.6200  176.9820  141.0990 N   0  0  0  0  0  2  0  0  0  0  0  0
  189.0250  177.7730  140.0670 C   0  0  0  0  0  0  0  0  0  0  0  0
  188.3920  178.8280  140.3420 O   0  0  0  0  0  0  0  0  0  0  0  0
  188.1310  177.0380  144.5440 C   0  0  0  0  0  0  0  0  0  0  0  0
  189.2210  177.5040  145.2850 C   0  0  0  0  0  0  0  0  0  0  0  0
  189.1070  177.6880  146.6240 F   0  0  0  0  0  0  0  0  0  0  0  0
  190.5460  177.6200  143.2630 C   0  0  0  0  0  3  0  0  0  0  0  0
  188.2510  176.8650  143.1620 C   0  0  0  0  0  3  0  0  0  0  0  0
  189.4580  177.1590  142.5120 C   0  0  0  0  0  0  0  0  0  0  0  0
  186.9580  176.7500  145.1590 F   0  0  0  0  0  0  0  0  0  0  0  0
  190.4280  177.7950  144.6450 C   0  0  0  0  0  3  0  0  0  0  0  0
  189.3230  178.3130  137.6490 O   0  0  0  0  0  0  0  0  0  0  0  0
  188.1470  178.4470  136.8850 C   0  0  1  0  0  3  0  0  0  0  0  0
  188.3690  177.8830  135.4920 C   0  0  0  0  0  1  0  0  0  0  0  0
  186.9800  177.7090  137.5450 C   0  0  2  0  0  3  0  0  0  0  0  0
  186.3190  176.7470  136.5740 C   0  0  0  0  0  1  0  0  0  0  0  0
  186.0080  178.6390  138.0600 N   0  0  0  0  0  0  0  0  0  0  0  0
  185.4570  178.4260  139.1560 N   0  0  0  0  0  0  0  0  0  0  0  0
  184.4930  179.3590  139.6760 C   0  0  0  0  0  2  0  0  0  0  0  0
  184.2090  179.0780  141.1180 C   0  0  0  0  0  0  0  0  0  0  0  0
  182.6840  178.7130  142.9740 C   0  0  0  0  0  3  0  0  0  0  0  0
  185.2890  178.9930  142.0030 C   0  0  0  0  0  3  0  0  0  0  0  0
  185.0690  178.7700  143.3650 C   0  0  0  0  0  3  0  0  0  0  0  0
  182.8950  178.9190  141.6020 C   0  0  0  0  0  0  0  0  0  0  0  0
  183.7670  178.6360  143.8510 C   0  0  0  0  0  3  0  0  0  0  0  0
  181.7150  178.9980  140.6760 C   0  0  0  0  0  2  0  0  0  0  0  0
  181.1320  177.6500  140.3980 C   0  0  0  0  0  0  0  0  0  0  0  0
  180.0640  175.1200  139.8540 C   0  0  0  0  0  3  0  0  0  0  0  0
  179.2680  176.1010  140.4500 C   0  0  0  0  0  3  0  0  0  0  0  0
  181.3940  175.4010  139.5310 C   0  0  0  0  0  3  0  0  0  0  0  0
  179.8010  177.3630  140.7250 C   0  0  0  0  0  3  0  0  0  0  0  0
  181.9270  176.6640  139.8020 C   0  0  0  0  0  3  0  0  0  0  0  0
  1 23  1  6  0  0  0
  1 13  1  0  0  0  0
  2  4  1  0  0  0  0
  3  6  2  0  0  0  0
  4  8  2  0  0  0  0
  5  2  1  0  0  0  0
  6  8  1  0  0  0  0
  6  9  1  0  0  0  0
  7  2  2  0  0  0  0
  7  3  1  0  0  0  0
  9  1  1  6  0  0  0
 10  9  1  0  0  0  0
 11  3  1  0  0  0  0
 11 10  2  0  0  0  0
 12 20  1  0  0  0  0
 13 14  2  0  0  0  0
 13 12  1  0  0  0  0
 15 21  1  0  0  0  0
 15 16  1  0  0  0  0
 16 17  1  0  0  0  0
 18 22  1  0  0  0  0
 19 15  2  0  0  0  0
 20 19  1  0  0  0  0
 20 18  2  0  0  0  0
 22 16  2  0  0  0  0
 24 25  1  6  0  0  0
 24 26  1  0  0  0  0
 24 23  1  0  0  0  0
 26 27  1  6  0  0  0
 26 28  1  0  0  0  0
 28 29  2  0  0  0  0
 29 30  1  0  0  0  0
 30 31  1  0  0  0  0
 31 35  2  0  0  0  0
 31 33  1  0  0  0  0
 32 36  2  0  0  0  0
 33 34  2  0  0  0  0
 34 36  1  0  0  0  0
 35 32  1  0  0  0  0
 37 35  1  0  0  0  0
 38 37  1  0  0  0  0
 38 42  1  0  0  0  0
 39 40  1  0  0  0  0
 40 42  2  0  0  0  0
 41 43  1  0  0  0  0
 41 39  2  0  0  0  0
 43 38  2  0  0  0  0
M  END
>  <MODEL>
9

>  <REMARK>
 VINA RESULT:      -8.4      4.327      8.434
  Name = 
  11 active torsions:
  status: ('A' for Active; 'I' for Inactive)
    1  A    between atoms: N_1  and  C_35
    2  A    between atoms: C_2  and  N_6
    3  A    between atoms: C_2  and  C_13
    4  A    between atoms: C_3  and  C_4
    5  A    between atoms: C_3  and  N_12
    6  A    between atoms: C_8  and  O_27
    7  A    between atoms: C_8  and  C_30
    8  A    between atoms: C_8  and  C_34
    9  A    between atoms: C_11  and  C_14
   10  A    between atoms: C_13  and  O_27
   11  A    between atoms: C_14  and  C_41
                            x       y       z     vdW  Elec       q    Type
                         _______ _______ _______ _____ _____    ______ ____

>  <TORSDO>
F 11

$$$$
