=
 OpenBabel10262420323D

 55 63  0  0  1  0  0  0  0  0999 V2000
  186.6120  174.3080  137.1550 C   0  0  0  0  0  2  0  0  0  0  0  0
  182.5380  176.3350  139.3160 C   0  0  0  0  0  2  0  0  0  0  0  0
  181.0420  175.2220  137.0800 O   0  0  0  0  0  0  0  0  0  0  0  0
  185.2550  179.5680  141.7190 O   0  0  0  0  0  0  0  0  0  0  0  0
  184.1620  179.4210  140.8400 C   0  0  2  0  0  3  0  0  0  0  0  0
  181.0400  173.4690  134.6000 C   0  0  0  0  0  2  0  0  0  0  0  0
  180.0750  172.4440  135.1880 C   0  0  0  0  0  2  0  0  0  0  0  0
  182.7110  171.5730  134.7030 C   0  0  1  0  0  3  0  0  0  0  0  0
  182.1140  170.8540  135.9280 C   0  0  0  0  0  2  0  0  0  0  0  0
  183.0620  175.2510  135.8500 C   0  0  0  0  0  2  0  0  0  0  0  0
  185.3440  178.3560  142.4260 C   0  0  2  0  0  0  0  0  0  0  0  0
  184.9020  177.2570  141.4750 C   0  0  0  0  0  2  0  0  0  0  0  0
  180.7240  171.7340  136.7330 S   0  0  0  0  0  0  0  0  0  0  0  0
  186.7700  176.3870  135.7660 C   0  0  0  0  0  3  0  0  0  0  0  0
  182.5250  173.0840  134.7020 C   0  0  2  0  0  3  0  0  0  0  0  0
  186.3490  177.9800  138.0280 C   0  0  0  0  0  0  0  0  0  0  0  0
  185.1900  173.7670  137.2230 C   0  0  0  0  0  2  0  0  0  0  0  0
  186.3850  176.5880  138.1530 C   0  0  0  0  0  3  0  0  0  0  0  0
  184.9810  171.9570  135.7300 C   0  0  2  0  0  3  0  0  0  0  0  0
  182.6120  177.5250  140.2600 C   0  0  0  0  0  2  0  0  0  0  0  0
  184.1900  171.2910  134.5940 C   0  0  0  0  0  2  0  0  0  0  0  0
  182.5910  176.8040  137.8690 C   0  0  0  0  0  2  0  0  0  0  0  0
  182.1550  175.7080  136.9510 C   0  0  0  0  0  0  0  0  0  0  0  0
  186.7300  177.7810  135.6430 C   0  0  0  0  0  3  0  0  0  0  0  0
  184.4660  178.4120  143.4990 F   0  0  0  0  0  0  0  0  0  0  0  0
  184.0540  177.9670  140.4480 C   0  0  1  0  0  0  0  0  0  0  0  0
  186.5970  175.7910  137.0220 C   0  0  0  0  0  0  0  0  0  0  0  0
  183.2630  173.7290  135.8910 C   0  0  1  0  0  3  0  0  0  0  0  0
  184.7070  173.4080  135.8910 N   0  0  1  0  0  0  0  0  0  0  0  0
  184.5960  178.9800  139.4420 C   0  0  2  0  0  3  0  0  0  0  0  0
  186.1020  178.8240  139.2300 C   0  0  0  0  0  2  0  0  0  0  0  0
  186.5160  178.5770  136.7740 C   0  0  0  0  0  3  0  0  0  0  0  0
  186.9900  170.4590  135.7730 C   0  0  0  0  0  3  0  0  0  0  0  0
  189.1580  171.1990  134.9640 C   0  0  0  0  0  0  0  0  0  0  0  0
  187.2510  172.7030  134.9020 C   0  0  0  0  0  3  0  0  0  0  0  0
  188.6030  172.4490  134.6520 C   0  0  0  0  0  3  0  0  0  0  0  0
  188.3430  170.2080  135.5260 C   0  0  0  0  0  3  0  0  0  0  0  0
  186.4400  171.7080  135.4680 C   0  0  0  0  0  0  0  0  0  0  0  0
  190.5830  170.9340  134.7170 C   0  0  0  0  0  0  0  0  0  0  0  0
  191.0090  169.7520  134.6230 O   0  0  0  0  0  1  0  0  0  0  0  0
  191.4810  171.9880  134.5980 O   0  0  0  0  0  0  0  0  0  0  0  0
  186.8060  178.1400  142.9020 C   0  0  2  0  0  0  0  0  0  0  0  0
  187.3770  179.4000  143.0990 O   0  0  0  0  0  1  0  0  0  0  0  0
  190.2510  177.2520  141.0940 C   0  0  0  0  0  2  0  0  0  0  0  0
  191.1780  177.7440  142.1890 C   0  0  2  0  0  3  0  0  0  0  0  0
  188.5240  176.4100  142.4510 O   0  0  0  0  0  0  0  0  0  0  0  0
  187.7020  177.3910  141.8710 C   0  0  2  0  0  3  0  0  0  0  0  0
  191.9650  176.6970  142.6670 O   0  0  0  0  0  1  0  0  0  0  0  0
  190.0510  178.0480  143.1790 C   0  0  0  0  0  0  0  0  0  0  0  0
  189.1760  177.5910  142.0500 C   0  0  2  0  0  0  0  0  0  0  0  0
  189.9350  178.4660  144.3190 O   0  0  0  0  0  0  0  0  0  0  0  0
  186.7790  177.4590  144.1630 O   0  0  0  0  0  0  0  0  0  0  0  0
  186.7940  178.1060  145.4060 C   0  0  0  0  0  0  0  0  0  0  0  0
  185.6740  179.0090  145.7690 C   0  0  0  0  0  1  0  0  0  0  0  0
  187.7470  177.9310  146.2170 O   0  0  0  0  0  0  0  0  0  0  0  0
  1 17  1  0  0  0  0
  2 20  1  0  0  0  0
  4 11  1  0  0  0  0
  5  4  1  1  0  0  0
  6  7  1  0  0  0  0
  7 13  1  0  0  0  0
  8 21  1  1  0  0  0
  8  9  1  0  0  0  0
  9 13  1  0  0  0  0
 10 23  1  0  0  0  0
 11 42  1  0  0  0  0
 11 25  1  1  0  0  0
 12 11  1  0  0  0  0
 14 27  1  0  0  0  0
 15  6  1  1  0  0  0
 15  8  1  0  0  0  0
 15 28  1  0  0  0  0
 16 18  1  0  0  0  0
 16 31  1  0  0  0  0
 19 38  1  6  0  0  0
 19 29  1  0  0  0  0
 21 19  1  0  0  0  0
 22  2  1  0  0  0  0
 23  3  2  0  0  0  0
 23 22  1  0  0  0  0
 24 14  2  0  0  0  0
 24 32  1  0  0  0  0
 26 20  1  6  0  0  0
 26  5  1  0  0  0  0
 26 12  1  0  0  0  0
 27  1  1  0  0  0  0
 27 18  2  0  0  0  0
 28 10  1  6  0  0  0
 29 28  1  0  0  0  0
 29 17  1  1  0  0  0
 30 31  1  1  0  0  0
 30 26  1  0  0  0  0
 30  5  1  0  0  0  0
 32 16  2  0  0  0  0
 34 37  2  0  0  0  0
 35 38  1  0  0  0  0
 36 35  2  0  0  0  0
 36 34  1  0  0  0  0
 37 33  1  0  0  0  0
 38 33  2  0  0  0  0
 39 34  1  0  0  0  0
 40 39  1  0  0  0  0
 41 39  2  0  0  0  0
 42 43  1  1  0  0  0
 42 52  1  0  0  0  0
 44 45  1  0  0  0  0
 45 48  1  1  0  0  0
 45 49  1  0  0  0  0
 47 50  1  0  0  0  0
 47 46  1  0  0  0  0
 47 42  1  1  0  0  0
 49 51  2  0  0  0  0
 50 44  1  6  0  0  0
 50 46  1  0  0  0  0
 50 49  1  0  0  0  0
 52 53  1  0  0  0  0
 53 54  1  0  0  0  0
 53 55  2  0  0  0  0
M  END
>  <MODEL>
1

>  <REMARK>
 VINA RESULT:      -5.3      0.000      0.000
  Name = 
  6 active torsions:
  status: ('A' for Active; 'I' for Inactive)
    1  A    between atoms: C_1  and  O_53
    2  A    between atoms: C_6  and  C_14
    3  A    between atoms: C_6  and  C_20
    4  A    between atoms: C_6  and  O_53
    5  A    between atoms: C_10  and  C_32
    6  A    between atoms: C_33  and  C_52
                            x       y       z     vdW  Elec       q    Type
                         _______ _______ _______ _____ _____    ______ ____

>  <TORSDO>
F 6

$$$$
=
 OpenBabel10262420323D

 55 63  0  0  1  0  0  0  0  0999 V2000
  187.2980  175.6730  137.6190 C   0  0  0  0  0  2  0  0  0  0  0  0
  182.5900  175.6150  139.4090 C   0  0  0  0  0  2  0  0  0  0  0  0
  181.9260  174.0300  137.0590 O   0  0  0  0  0  0  0  0  0  0  0  0
  183.3890  179.6340  142.0200 O   0  0  0  0  0  0  0  0  0  0  0  0
  182.5490  179.0480  141.0510 C   0  0  2  0  0  3  0  0  0  0  0  0
  182.9000  172.5410  134.5980 C   0  0  0  0  0  2  0  0  0  0  0  0
  182.4460  171.1760  135.1060 C   0  0  0  0  0  2  0  0  0  0  0  0
  185.2250  171.5770  134.8550 C   0  0  1  0  0  3  0  0  0  0  0  0
  184.9120  170.6280  136.0280 C   0  0  0  0  0  2  0  0  0  0  0  0
  183.8140  174.9910  136.0070 C   0  0  0  0  0  2  0  0  0  0  0  0
  183.9500  178.5640  142.7380 C   0  0  2  0  0  0  0  0  0  0  0  0
  184.1180  177.4150  141.7590 C   0  0  0  0  0  2  0  0  0  0  0  0
  183.2170  170.7750  136.7050 S   0  0  0  0  0  0  0  0  0  0  0  0
  186.6270  177.6530  136.2370 C   0  0  0  0  0  3  0  0  0  0  0  0
  184.3870  172.8490  134.8290 C   0  0  2  0  0  3  0  0  0  0  0  0
  185.3640  178.8180  138.4460 C   0  0  0  0  0  0  0  0  0  0  0  0
  186.2630  174.5570  137.5670 C   0  0  0  0  0  2  0  0  0  0  0  0
  186.0040  177.5820  138.5810 C   0  0  0  0  0  3  0  0  0  0  0  0
  186.9980  172.8920  136.0720 C   0  0  2  0  0  3  0  0  0  0  0  0
  182.0520  176.6830  140.3500 C   0  0  0  0  0  2  0  0  0  0  0  0
  186.6780  171.9830  134.8750 C   0  0  0  0  0  2  0  0  0  0  0  0
  182.5440  176.1070  137.9700 C   0  0  0  0  0  2  0  0  0  0  0  0
  182.7140  174.9620  137.0240 C   0  0  0  0  0  0  0  0  0  0  0  0
  185.9820  178.8880  136.1040 C   0  0  0  0  0  3  0  0  0  0  0  0
  183.0560  178.1900  143.7320 F   0  0  0  0  0  0  0  0  0  0  0  0
  183.1290  177.7100  140.6590 C   0  0  1  0  0  0  0  0  0  0  0  0
  186.6370  177.0000  137.4770 C   0  0  0  0  0  0  0  0  0  0  0  0
  184.6660  173.7140  136.0740 C   0  0  1  0  0  3  0  0  0  0  0  0
  186.0970  174.0650  136.2000 N   0  0  1  0  0  0  0  0  0  0  0  0
  183.2430  178.8920  139.6980 C   0  0  2  0  0  3  0  0  0  0  0  0
  184.6740  179.4250  139.6170 C   0  0  0  0  0  2  0  0  0  0  0  0
  185.3480  179.4690  137.2070 C   0  0  0  0  0  3  0  0  0  0  0  0
  189.2870  173.2190  137.0390 C   0  0  0  0  0  3  0  0  0  0  0  0
  191.1260  174.0930  135.7140 C   0  0  0  0  0  0  0  0  0  0  0  0
  188.9290  173.8080  134.7190 C   0  0  0  0  0  3  0  0  0  0  0  0
  190.2690  174.1900  134.6080 C   0  0  0  0  0  3  0  0  0  0  0  0
  190.6260  173.6060  136.9280 C   0  0  0  0  0  3  0  0  0  0  0  0
  188.4320  173.3230  135.9370 C   0  0  0  0  0  0  0  0  0  0  0  0
  192.5320  174.5110  135.6050 C   0  0  0  0  0  0  0  0  0  0  0  0
  192.8930  175.3210  134.7100 O   0  0  0  0  0  0  0  0  0  0  0  0
  193.4820  174.0050  136.4830 O   0  0  0  0  0  1  0  0  0  0  0  0
  185.3130  179.0010  143.3410 C   0  0  2  0  0  0  0  0  0  0  0  0
  185.2060  180.3490  143.6940 O   0  0  0  0  0  1  0  0  0  0  0  0
  189.0280  178.0110  142.2690 C   0  0  0  0  0  2  0  0  0  0  0  0
  189.2820  176.9940  143.3650 C   0  0  2  0  0  3  0  0  0  0  0  0
  186.7450  177.5720  141.9080 O   0  0  0  0  0  0  0  0  0  0  0  0
  186.5080  178.8850  142.3470 C   0  0  2  0  0  3  0  0  0  0  0  0
  189.5350  175.7380  142.8140 O   0  0  0  0  0  1  0  0  0  0  0  0
  187.8550  177.0470  143.9170 C   0  0  0  0  0  0  0  0  0  0  0  0
  187.6670  178.0760  142.8430 C   0  0  2  0  0  0  0  0  0  0  0  0
  187.2060  176.5140  144.8020 O   0  0  0  0  0  0  0  0  0  0  0  0
  185.5490  178.2430  144.5340 O   0  0  0  0  0  0  0  0  0  0  0  0
  185.2700  178.7060  145.8270 C   0  0  0  0  0  0  0  0  0  0  0  0
  186.3830  179.1880  146.6820 C   0  0  0  0  0  1  0  0  0  0  0  0
  184.0880  178.7160  146.2710 O   0  0  0  0  0  0  0  0  0  0  0  0
  2 20  1  0  0  0  0
  4 11  1  0  0  0  0
  5  4  1  1  0  0  0
  6  7  1  0  0  0  0
  7 13  1  0  0  0  0
  8 21  1  1  0  0  0
  8  9  1  0  0  0  0
  9 13  1  0  0  0  0
 10 23  1  0  0  0  0
 11 42  1  0  0  0  0
 11 25  1  1  0  0  0
 12 11  1  0  0  0  0
 14 27  1  0  0  0  0
 15  6  1  1  0  0  0
 15  8  1  0  0  0  0
 15 28  1  0  0  0  0
 16 18  1  0  0  0  0
 16 31  1  0  0  0  0
 17  1  1  0  0  0  0
 19 38  1  6  0  0  0
 19 29  1  0  0  0  0
 21 19  1  0  0  0  0
 22  2  1  0  0  0  0
 23  3  2  0  0  0  0
 23 22  1  0  0  0  0
 24 14  2  0  0  0  0
 24 32  1  0  0  0  0
 26 20  1  6  0  0  0
 26  5  1  0  0  0  0
 26 12  1  0  0  0  0
 27  1  1  0  0  0  0
 27 18  2  0  0  0  0
 28 10  1  6  0  0  0
 28 29  1  0  0  0  0
 29 17  1  1  0  0  0
 30 31  1  1  0  0  0
 30 26  1  0  0  0  0
 30  5  1  0  0  0  0
 32 16  2  0  0  0  0
 34 37  2  0  0  0  0
 35 38  1  0  0  0  0
 36 35  2  0  0  0  0
 36 34  1  0  0  0  0
 37 33  1  0  0  0  0
 38 33  2  0  0  0  0
 39 34  1  0  0  0  0
 39 41  1  0  0  0  0
 40 39  2  0  0  0  0
 42 43  1  1  0  0  0
 42 52  1  0  0  0  0
 44 45  1  0  0  0  0
 45 48  1  6  0  0  0
 45 49  1  0  0  0  0
 46 47  1  0  0  0  0
 46 50  1  0  0  0  0
 47 50  1  0  0  0  0
 47 42  1  1  0  0  0
 49 51  2  0  0  0  0
 50 44  1  6  0  0  0
 50 49  1  0  0  0  0
 52 53  1  0  0  0  0
 53 55  2  0  0  0  0
 53 54  1  0  0  0  0
M  END
>  <MODEL>
2

>  <REMARK>
 VINA RESULT:      -3.1      1.730      2.304
  Name = 
  6 active torsions:
  status: ('A' for Active; 'I' for Inactive)
    1  A    between atoms: C_1  and  O_53
    2  A    between atoms: C_6  and  C_14
    3  A    between atoms: C_6  and  C_20
    4  A    between atoms: C_6  and  O_53
    5  A    between atoms: C_10  and  C_32
    6  A    between atoms: C_33  and  C_52
                            x       y       z     vdW  Elec       q    Type
                         _______ _______ _______ _____ _____    ______ ____

>  <TORSDO>
F 6

$$$$
=
 OpenBabel10262420323D

 55 63  0  0  1  0  0  0  0  0999 V2000
  184.6290  177.5960  140.5260 C   0  0  0  0  0  2  0  0  0  0  0  0
  185.3140  175.8730  135.8420 C   0  0  0  0  0  2  0  0  0  0  0  0
  187.9430  177.1170  135.9800 O   0  0  0  0  0  0  0  0  0  0  0  0
  180.5200  175.6060  135.0960 O   0  0  0  0  0  0  0  0  0  0  0  0
  181.7280  176.1350  134.5950 C   0  0  2  0  0  3  0  0  0  0  0  0
  190.0280  178.5520  137.6580 C   0  0  0  0  0  2  0  0  0  0  0  0
  191.0500  177.4250  137.5560 C   0  0  0  0  0  2  0  0  0  0  0  0
  189.9620  177.9220  140.1070 C   0  0  1  0  0  3  0  0  0  0  0  0
  190.2820  176.4250  139.9300 C   0  0  0  0  0  2  0  0  0  0  0  0
  187.0570  178.5600  137.6320 C   0  0  0  0  0  2  0  0  0  0  0  0
  180.8810  174.4700  135.8410 C   0  0  2  0  0  0  0  0  0  0  0  0
  182.2360  174.7600  136.4620 C   0  0  0  0  0  2  0  0  0  0  0  0
  190.3750  175.8590  138.1910 S   0  0  0  0  0  0  0  0  0  0  0  0
  183.8740  179.7530  139.5000 C   0  0  0  0  0  3  0  0  0  0  0  0
  189.1940  178.5460  138.9490 C   0  0  2  0  0  3  0  0  0  0  0  0
  182.2660  178.3690  137.6750 C   0  0  0  0  0  0  0  0  0  0  0  0
  185.8980  177.0610  139.8740 C   0  0  0  0  0  2  0  0  0  0  0  0
  183.0140  177.6620  138.6210 C   0  0  0  0  0  3  0  0  0  0  0  0
  187.7430  177.5630  141.2490 C   0  0  2  0  0  3  0  0  0  0  0  0
  184.1600  175.5650  134.9000 C   0  0  0  0  0  2  0  0  0  0  0  0
  189.1600  178.1470  141.3660 C   0  0  0  0  0  2  0  0  0  0  0  0
  185.6090  177.3660  135.8460 C   0  0  0  0  0  2  0  0  0  0  0  0
  186.9450  177.6300  136.4630 C   0  0  0  0  0  0  0  0  0  0  0  0
  183.1270  180.4590  138.5490 C   0  0  0  0  0  3  0  0  0  0  0  0
  180.9980  173.3950  134.9710 F   0  0  0  0  0  0  0  0  0  0  0  0
  182.8300  175.8340  135.5830 C   0  0  1  0  0  0  0  0  0  0  0  0
  183.8170  178.3530  139.5350 C   0  0  0  0  0  0  0  0  0  0  0  0
  187.8040  177.8970  138.8000 C   0  0  1  0  0  3  0  0  0  0  0  0
  187.0040  178.0030  140.0380 N   0  0  1  0  0  0  0  0  0  0  0  0
  182.2810  177.2550  135.4780 C   0  0  2  0  0  3  0  0  0  0  0  0
  181.4280  177.6300  136.6910 C   0  0  0  0  0  2  0  0  0  0  0  0
  182.3260  179.7670  137.6350 C   0  0  0  0  0  3  0  0  0  0  0  0
  187.3190  177.2970  143.7050 C   0  0  0  0  0  3  0  0  0  0  0  0
  185.6500  178.6240  144.8680 C   0  0  0  0  0  0  0  0  0  0  0  0
  186.0060  178.9240  142.4850 C   0  0  0  0  0  3  0  0  0  0  0  0
  185.3350  179.2670  143.6620 C   0  0  0  0  0  3  0  0  0  0  0  0
  186.6450  177.6380  144.8810 C   0  0  0  0  0  3  0  0  0  0  0  0
  186.9990  177.9340  142.5020 C   0  0  0  0  0  0  0  0  0  0  0  0
  184.9340  178.9700  146.1050 C   0  0  0  0  0  0  0  0  0  0  0  0
  183.6840  178.8260  146.1850 O   0  0  0  0  0  0  0  0  0  0  0  0
  185.6280  179.4720  147.1990 O   0  0  0  0  0  1  0  0  0  0  0  0
  179.8040  174.2010  136.9290 C   0  0  2  0  0  0  0  0  0  0  0  0
  178.9790  175.3270  136.9940 O   0  0  0  0  0  1  0  0  0  0  0  0
  181.1700  175.3900  140.4850 C   0  0  0  0  0  2  0  0  0  0  0  0
  180.5290  176.7640  140.4890 C   0  0  2  0  0  3  0  0  0  0  0  0
  179.4580  174.2110  139.3840 O   0  0  0  0  0  0  0  0  0  0  0  0
  180.3890  173.9830  138.3560 C   0  0  2  0  0  3  0  0  0  0  0  0
  179.6500  176.8880  141.5660 O   0  0  0  0  0  1  0  0  0  0  0  0
  179.7440  176.5400  139.1950 C   0  0  0  0  0  0  0  0  0  0  0  0
  180.4350  175.2090  139.2160 C   0  0  2  0  0  0  0  0  0  0  0  0
  178.9550  177.1550  138.4960 O   0  0  0  0  0  0  0  0  0  0  0  0
  179.0060  173.0850  136.5150 O   0  0  0  0  0  0  0  0  0  0  0  0
  179.4280  171.7500  136.5810 C   0  0  0  0  0  0  0  0  0  0  0  0
  178.9320  170.7790  135.5750 C   0  0  0  0  0  1  0  0  0  0  0  0
  180.2220  171.3650  137.4850 O   0  0  0  0  0  0  0  0  0  0  0  0
  2 22  1  0  0  0  0
  3 23  2  0  0  0  0
  4 11  1  0  0  0  0
  5  4  1  1  0  0  0
  5 30  1  0  0  0  0
  5 26  1  0  0  0  0
  7  6  1  0  0  0  0
  7 13  1  0  0  0  0
  8  9  1  6  0  0  0
  8 21  1  0  0  0  0
 11 25  1  6  0  0  0
 11 12  1  0  0  0  0
 11 42  1  0  0  0  0
 13  9  1  0  0  0  0
 14 27  1  0  0  0  0
 15  6  1  6  0  0  0
 15  8  1  0  0  0  0
 16 18  1  0  0  0  0
 17  1  1  0  0  0  0
 18 27  2  0  0  0  0
 19 21  1  0  0  0  0
 19 38  1  1  0  0  0
 20  2  1  0  0  0  0
 22 23  1  0  0  0  0
 23 10  1  0  0  0  0
 24 14  2  0  0  0  0
 26 20  1  6  0  0  0
 26 12  1  0  0  0  0
 27  1  1  0  0  0  0
 28 10  1  6  0  0  0
 28 15  1  0  0  0  0
 28 29  1  0  0  0  0
 29 17  1  6  0  0  0
 29 19  1  0  0  0  0
 30 26  1  0  0  0  0
 30 31  1  1  0  0  0
 31 16  1  0  0  0  0
 32 16  2  0  0  0  0
 32 24  1  0  0  0  0
 33 37  1  0  0  0  0
 34 37  2  0  0  0  0
 34 39  1  0  0  0  0
 35 38  1  0  0  0  0
 35 36  2  0  0  0  0
 36 34  1  0  0  0  0
 38 33  2  0  0  0  0
 39 40  2  0  0  0  0
 39 41  1  0  0  0  0
 42 43  1  1  0  0  0
 44 45  1  0  0  0  0
 45 48  1  1  0  0  0
 47 42  1  6  0  0  0
 47 50  1  0  0  0  0
 47 46  1  0  0  0  0
 49 50  1  0  0  0  0
 49 45  1  0  0  0  0
 50 46  1  0  0  0  0
 50 44  1  1  0  0  0
 51 49  2  0  0  0  0
 52 53  1  0  0  0  0
 52 42  1  0  0  0  0
 53 55  2  0  0  0  0
 54 53  1  0  0  0  0
M  END
>  <MODEL>
3

>  <REMARK>
 VINA RESULT:      -2.7      4.070      9.636
  Name = 
  6 active torsions:
  status: ('A' for Active; 'I' for Inactive)
    1  A    between atoms: C_1  and  O_53
    2  A    between atoms: C_6  and  C_14
    3  A    between atoms: C_6  and  C_20
    4  A    between atoms: C_6  and  O_53
    5  A    between atoms: C_10  and  C_32
    6  A    between atoms: C_33  and  C_52
                            x       y       z     vdW  Elec       q    Type
                         _______ _______ _______ _____ _____    ______ ____

>  <TORSDO>
F 6

$$$$
=
 OpenBabel10262420323D

 55 63  0  0  1  0  0  0  0  0999 V2000
  185.6950  174.5620  137.1670 C   0  0  0  0  0  2  0  0  0  0  0  0
  181.3350  175.9310  139.2850 C   0  0  0  0  0  2  0  0  0  0  0  0
  180.0500  174.5470  137.0690 O   0  0  0  0  0  0  0  0  0  0  0  0
  183.4750  179.6090  141.6310 O   0  0  0  0  0  0  0  0  0  0  0  0
  182.4240  179.2690  140.7540 C   0  0  2  0  0  3  0  0  0  0  0  0
  180.3460  172.7730  134.6210 C   0  0  0  0  0  2  0  0  0  0  0  0
  179.5610  171.6150  135.2270 C   0  0  0  0  0  2  0  0  0  0  0  0
  182.3060  171.1790  134.7610 C   0  0  1  0  0  3  0  0  0  0  0  0
  181.8290  170.3950  135.9990 C   0  0  0  0  0  2  0  0  0  0  0  0
  182.0430  174.8860  135.8400 C   0  0  0  0  0  2  0  0  0  0  0  0
  183.7580  178.4410  142.3600 C   0  0  2  0  0  0  0  0  0  0  0  0
  183.5060  177.2670  141.4300 C   0  0  0  0  0  2  0  0  0  0  0  0
  180.3100  171.0490  136.7850 S   0  0  0  0  0  0  0  0  0  0  0  0
  185.5150  176.6130  135.7390 C   0  0  0  0  0  3  0  0  0  0  0  0
  181.8730  172.6390  134.7320 C   0  0  2  0  0  3  0  0  0  0  0  0
  184.8290  178.1550  137.9710 C   0  0  0  0  0  0  0  0  0  0  0  0
  184.3810  173.7950  137.2430 C   0  0  0  0  0  2  0  0  0  0  0  0
  185.0930  176.7910  138.1220 C   0  0  0  0  0  3  0  0  0  0  0  0
  184.4780  171.9500  135.7830 C   0  0  2  0  0  3  0  0  0  0  0  0
  181.2080  177.1340  140.2080 C   0  0  0  0  0  2  0  0  0  0  0  0
  183.8110  171.1420  134.6580 C   0  0  0  0  0  2  0  0  0  0  0  0
  181.3160  176.3760  137.8300 C   0  0  0  0  0  2  0  0  0  0  0  0
  181.0690  175.2070  136.9320 C   0  0  0  0  0  0  0  0  0  0  0  0
  185.2470  177.9790  135.5910 C   0  0  0  0  0  3  0  0  0  0  0  0
  182.8790  178.3710  143.4310 F   0  0  0  0  0  0  0  0  0  0  0  0
  182.5570  177.8090  140.3880 C   0  0  1  0  0  0  0  0  0  0  0  0
  185.4370  176.0190  137.0060 C   0  0  0  0  0  0  0  0  0  0  0  0
  182.4920  173.4180  135.9100 C   0  0  1  0  0  3  0  0  0  0  0  0
  183.9680  173.3380  135.9170 N   0  0  1  0  0  0  0  0  0  0  0  0
  182.9300  178.8790  139.3640 C   0  0  2  0  0  3  0  0  0  0  0  0
  184.4430  178.9690  139.1570 C   0  0  0  0  0  2  0  0  0  0  0  0
  184.9010  178.7490  136.7060 C   0  0  0  0  0  3  0  0  0  0  0  0
  186.7090  170.8130  135.8810 C   0  0  0  0  0  3  0  0  0  0  0  0
  188.7250  171.8730  135.0360 C   0  0  0  0  0  0  0  0  0  0  0  0
  186.5940  173.0320  134.9200 C   0  0  0  0  0  3  0  0  0  0  0  0
  187.9700  172.9990  134.6760 C   0  0  0  0  0  3  0  0  0  0  0  0
  188.0860  170.7820  135.6400 C   0  0  0  0  0  3  0  0  0  0  0  0
  185.9580  171.9390  135.5270 C   0  0  0  0  0  0  0  0  0  0  0  0
  190.1760  171.8420  134.7960 C   0  0  0  0  0  0  0  0  0  0  0  0
  190.8430  172.9100  134.7590 O   0  0  0  0  0  1  0  0  0  0  0  0
  190.8250  170.6310  134.5940 O   0  0  0  0  0  0  0  0  0  0  0  0
  185.2340  178.4760  142.8420 C   0  0  2  0  0  0  0  0  0  0  0  0
  185.6640  177.1530  142.9820 O   0  0  0  0  0  1  0  0  0  0  0  0
  186.2970  178.6090  146.6870 C   0  0  0  0  0  2  0  0  0  0  0  0
  187.2140  177.4010  146.6760 C   0  0  2  0  0  3  0  0  0  0  0  0
  186.7750  179.4290  144.5340 O   0  0  0  0  0  0  0  0  0  0  0  0
  185.4300  179.1660  144.2250 C   0  0  2  0  0  3  0  0  0  0  0  0
  188.5120  177.7730  147.0270 O   0  0  0  0  0  1  0  0  0  0  0  0
  187.1210  177.1860  145.1640 C   0  0  0  0  0  0  0  0  0  0  0  0
  186.1880  178.3580  145.2340 C   0  0  2  0  0  0  0  0  0  0  0  0
  187.5780  176.4250  144.3270 O   0  0  0  0  0  0  0  0  0  0  0  0
  186.0300  179.1010  141.8280 O   0  0  0  0  0  0  0  0  0  0  0  0
  187.3170  178.6780  141.4660 C   0  0  0  0  0  0  0  0  0  0  0  0
  187.6310  178.4470  140.0350 C   0  0  0  0  0  1  0  0  0  0  0  0
  188.2070  178.4900  142.3430 O   0  0  0  0  0  0  0  0  0  0  0  0
  1 17  1  0  0  0  0
  2 20  1  0  0  0  0
  4 11  1  0  0  0  0
  5  4  1  1  0  0  0
  6  7  1  0  0  0  0
  7 13  1  0  0  0  0
  8 21  1  1  0  0  0
  8  9  1  0  0  0  0
  9 13  1  0  0  0  0
 10 23  1  0  0  0  0
 11 42  1  0  0  0  0
 11 25  1  1  0  0  0
 12 11  1  0  0  0  0
 14 27  1  0  0  0  0
 15  6  1  1  0  0  0
 15  8  1  0  0  0  0
 15 28  1  0  0  0  0
 16 18  1  0  0  0  0
 16 31  1  0  0  0  0
 19 38  1  6  0  0  0
 19 29  1  0  0  0  0
 21 19  1  0  0  0  0
 22  2  1  0  0  0  0
 23  3  2  0  0  0  0
 23 22  1  0  0  0  0
 24 14  2  0  0  0  0
 24 32  1  0  0  0  0
 26 20  1  6  0  0  0
 26  5  1  0  0  0  0
 26 12  1  0  0  0  0
 27  1  1  0  0  0  0
 27 18  2  0  0  0  0
 28 10  1  6  0  0  0
 28 29  1  0  0  0  0
 29 17  1  1  0  0  0
 30 31  1  1  0  0  0
 30 26  1  0  0  0  0
 30  5  1  0  0  0  0
 32 16  2  0  0  0  0
 34 37  2  0  0  0  0
 35 38  1  0  0  0  0
 36 35  2  0  0  0  0
 36 34  1  0  0  0  0
 37 33  1  0  0  0  0
 38 33  2  0  0  0  0
 39 34  1  0  0  0  0
 40 39  1  0  0  0  0
 41 39  2  0  0  0  0
 42 43  1  1  0  0  0
 45 44  1  0  0  0  0
 45 48  1  6  0  0  0
 46 50  1  0  0  0  0
 47 42  1  6  0  0  0
 47 46  1  0  0  0  0
 47 50  1  0  0  0  0
 49 50  1  0  0  0  0
 49 45  1  0  0  0  0
 50 44  1  1  0  0  0
 51 49  2  0  0  0  0
 52 42  1  0  0  0  0
 53 52  1  0  0  0  0
 53 55  2  0  0  0  0
 54 53  1  0  0  0  0
M  END
>  <MODEL>
4

>  <REMARK>
 VINA RESULT:      -2.6      1.515      2.499
  Name = 
  6 active torsions:
  status: ('A' for Active; 'I' for Inactive)
    1  A    between atoms: C_1  and  O_53
    2  A    between atoms: C_6  and  C_14
    3  A    between atoms: C_6  and  C_20
    4  A    between atoms: C_6  and  O_53
    5  A    between atoms: C_10  and  C_32
    6  A    between atoms: C_33  and  C_52
                            x       y       z     vdW  Elec       q    Type
                         _______ _______ _______ _____ _____    ______ ____

>  <TORSDO>
F 6

$$$$
