=
 OpenBabel10262420013D

 27 31  0  0  1  0  0  0  0  0999 V2000
  186.5840  178.6750  138.8810 N   0  0  0  0  0  2  0  0  0  0  0  0
  186.8710  178.6150  136.5590 O   0  0  0  0  0  0  0  0  0  0  0  0
  184.3970  178.3200  141.9500 C   0  0  1  0  0  3  0  0  0  0  0  0
  183.3230  177.2320  139.9110 C   0  0  0  0  0  2  0  0  0  0  0  0
  184.7280  177.2740  137.4600 S   0  0  0  0  0  0  0  0  0  0  0  0
  183.0640  177.9950  141.2230 C   0  0  2  0  0  3  0  0  0  0  0  0
  186.2270  178.2460  137.5750 C   0  0  0  0  0  0  0  0  0  0  0  0
  185.6240  178.1460  139.8230 C   0  0  2  0  0  3  0  0  0  0  0  0
  184.3170  178.0160  139.0670 C   0  0  2  0  0  3  0  0  0  0  0  0
  185.4110  179.0290  141.0400 C   0  0  0  0  0  2  0  0  0  0  0  0
  184.2080  179.0930  143.2500 C   0  0  0  0  0  2  0  0  0  0  0  0
  186.8130  177.6020  146.3150 C   0  0  0  0  0  3  0  0  0  0  0  0
  185.1110  178.5720  144.3170 C   0  0  0  0  0  0  0  0  0  0  0  0
  184.8420  178.8490  145.6640 C   0  0  0  0  0  3  0  0  0  0  0  0
  185.6940  178.3640  146.6610 C   0  0  0  0  0  3  0  0  0  0  0  0
  187.0820  177.3240  144.9720 C   0  0  0  0  0  3  0  0  0  0  0  0
  186.2310  177.8080  143.9740 C   0  0  0  0  0  3  0  0  0  0  0  0
  182.2380  179.2480  140.9330 C   0  0  0  0  0  2  0  0  0  0  0  0
  180.0050  179.2410  142.0520 C   0  0  2  0  0  0  0  0  0  0  0  0
  178.9390  178.9090  139.0410 C   0  0  0  0  0  1  0  0  0  0  0  0
  179.8610  181.1070  139.8560 C   0  0  0  0  0  2  0  0  0  0  0  0
  178.9810  178.3190  142.3220 O   0  0  0  0  0  0  0  0  0  0  0  0
  180.0910  178.3140  143.1940 C   0  0  0  0  0  2  0  0  0  0  0  0
  180.1700  179.6320  139.5600 C   0  0  1  0  0  3  0  0  0  0  0  0
  178.9310  181.2600  141.0620 C   0  0  0  0  0  2  0  0  0  0  0  0
  179.5730  180.6760  142.3160 C   0  0  0  0  0  2  0  0  0  0  0  0
  180.7650  178.8990  140.7720 C   0  0  1  0  0  3  0  0  0  0  0  0
  1  8  1  0  0  0  0
  2  7  2  0  0  0  0
  3 11  1  1  0  0  0
  4  6  1  0  0  0  0
  5  7  1  0  0  0  0
  5  9  1  0  0  0  0
  6 18  1  6  0  0  0
  6  3  1  0  0  0  0
  7  1  1  0  0  0  0
  8 10  1  1  0  0  0
  9  8  1  0  0  0  0
  9  4  1  1  0  0  0
 10  3  1  0  0  0  0
 11 13  1  0  0  0  0
 12 15  1  0  0  0  0
 13 14  1  0  0  0  0
 14 15  2  0  0  0  0
 16 12  2  0  0  0  0
 17 13  2  0  0  0  0
 17 16  1  0  0  0  0
 19 26  1  1  0  0  0
 19 22  1  0  0  0  0
 19 23  1  0  0  0  0
 21 25  1  0  0  0  0
 22 23  1  0  0  0  0
 24 20  1  1  0  0  0
 24 21  1  0  0  0  0
 24 27  1  0  0  0  0
 25 26  1  0  0  0  0
 27 18  1  1  0  0  0
 27 19  1  0  0  0  0
M  END
>  <MODEL>
1

>  <REMARK>
 VINA RESULT:      -7.7      0.000      0.000
  Name = 
  4 active torsions:
  status: ('A' for Active; 'I' for Inactive)
    1  A    between atoms: C_2  and  C_6
    2  A    between atoms: C_2  and  C_9
    3  A    between atoms: C_3  and  C_14
    4  A    between atoms: C_3  and  C_26
                            x       y       z     vdW  Elec       q    Type
                         _______ _______ _______ _____ _____    ______ ____

>  <TORSDO>
F 4

$$$$
=
 OpenBabel10262420013D

 27 31  0  0  1  0  0  0  0  0999 V2000
  187.0120  178.6270  138.9480 N   0  0  0  0  0  2  0  0  0  0  0  0
  187.5740  178.6400  136.6760 O   0  0  0  0  0  0  0  0  0  0  0  0
  184.4480  178.3260  141.7170 C   0  0  1  0  0  3  0  0  0  0  0  0
  183.5500  177.4150  139.5120 C   0  0  0  0  0  2  0  0  0  0  0  0
  185.2420  177.4430  137.2490 S   0  0  0  0  0  0  0  0  0  0  0  0
  183.1920  178.1420  140.8210 C   0  0  2  0  0  3  0  0  0  0  0  0
  186.7860  178.2830  137.5890 C   0  0  0  0  0  0  0  0  0  0  0  0
  185.9070  178.1400  139.7430 C   0  0  2  0  0  3  0  0  0  0  0  0
  184.6960  178.1490  138.8320 C   0  0  2  0  0  3  0  0  0  0  0  0
  185.6160  178.9860  140.9700 C   0  0  0  0  0  2  0  0  0  0  0  0
  184.1620  179.0570  143.0220 C   0  0  0  0  0  2  0  0  0  0  0  0
  186.6870  177.6140  146.1760 C   0  0  0  0  0  3  0  0  0  0  0  0
  185.0420  178.5580  144.1180 C   0  0  0  0  0  0  0  0  0  0  0  0
  186.1590  177.7670  143.8180 C   0  0  0  0  0  3  0  0  0  0  0  0
  186.9800  177.2960  144.8470 C   0  0  0  0  0  3  0  0  0  0  0  0
  185.5730  178.4030  146.4780 C   0  0  0  0  0  3  0  0  0  0  0  0
  184.7530  178.8750  145.4490 C   0  0  0  0  0  3  0  0  0  0  0  0
  182.5060  179.4690  140.5000 C   0  0  0  0  0  2  0  0  0  0  0  0
  180.0160  179.5260  140.3040 C   0  0  2  0  0  0  0  0  0  0  0  0
  180.6610  179.5750  137.1580 C   0  0  0  0  0  1  0  0  0  0  0  0
  181.0630  181.6040  138.5970 C   0  0  0  0  0  2  0  0  0  0  0  0
  178.9860  178.6660  139.8930 O   0  0  0  0  0  0  0  0  0  0  0  0
  179.4820  178.4890  141.2040 C   0  0  0  0  0  2  0  0  0  0  0  0
  181.4560  180.1460  138.3200 C   0  0  1  0  0  3  0  0  0  0  0  0
  179.6440  181.7110  139.1630 C   0  0  0  0  0  2  0  0  0  0  0  0
  179.5330  180.9590  140.4850 C   0  0  0  0  0  2  0  0  0  0  0  0
  181.3240  179.2530  139.5650 C   0  0  1  0  0  3  0  0  0  0  0  0
  1  8  1  0  0  0  0
  2  7  2  0  0  0  0
  3 11  1  1  0  0  0
  4  6  1  0  0  0  0
  5  7  1  0  0  0  0
  5  9  1  0  0  0  0
  6 18  1  6  0  0  0
  6  3  1  0  0  0  0
  7  1  1  0  0  0  0
  8 10  1  1  0  0  0
  9  4  1  1  0  0  0
  9  8  1  0  0  0  0
 10  3  1  0  0  0  0
 11 13  1  0  0  0  0
 12 16  1  0  0  0  0
 13 17  1  0  0  0  0
 14 13  2  0  0  0  0
 14 15  1  0  0  0  0
 15 12  2  0  0  0  0
 17 16  2  0  0  0  0
 19 26  1  1  0  0  0
 19 23  1  0  0  0  0
 21 25  1  0  0  0  0
 22 19  1  0  0  0  0
 22 23  1  0  0  0  0
 24 20  1  6  0  0  0
 24 21  1  0  0  0  0
 24 27  1  0  0  0  0
 25 26  1  0  0  0  0
 27 19  1  0  0  0  0
 27 18  1  1  0  0  0
M  END
>  <MODEL>
2

>  <REMARK>
 VINA RESULT:      -7.3      0.993      1.529
  Name = 
  4 active torsions:
  status: ('A' for Active; 'I' for Inactive)
    1  A    between atoms: C_2  and  C_6
    2  A    between atoms: C_2  and  C_9
    3  A    between atoms: C_3  and  C_14
    4  A    between atoms: C_3  and  C_26
                            x       y       z     vdW  Elec       q    Type
                         _______ _______ _______ _____ _____    ______ ____

>  <TORSDO>
F 4

$$$$
=
 OpenBabel10262420013D

 27 31  0  0  1  0  0  0  0  0999 V2000
  186.9280  178.6300  138.8590 N   0  0  0  0  0  2  0  0  0  0  0  0
  187.5070  178.6240  136.5910 O   0  0  0  0  0  0  0  0  0  0  0  0
  184.3580  178.2680  141.6140 C   0  0  1  0  0  3  0  0  0  0  0  0
  183.5180  177.2750  139.4210 C   0  0  0  0  0  2  0  0  0  0  0  0
  185.2250  177.3360  137.1700 S   0  0  0  0  0  0  0  0  0  0  0  0
  183.1190  178.0110  140.7130 C   0  0  2  0  0  3  0  0  0  0  0  0
  186.7280  178.2500  137.5050 C   0  0  0  0  0  0  0  0  0  0  0  0
  185.8400  178.1090  139.6540 C   0  0  2  0  0  3  0  0  0  0  0  0
  184.6370  178.0470  138.7350 C   0  0  2  0  0  3  0  0  0  0  0  0
  185.5010  178.9650  140.8630 C   0  0  0  0  0  2  0  0  0  0  0  0
  184.0290  179.0110  142.9030 C   0  0  0  0  0  2  0  0  0  0  0  0
  186.5580  177.7060  146.1140 C   0  0  0  0  0  3  0  0  0  0  0  0
  184.9110  178.5600  144.0180 C   0  0  0  0  0  0  0  0  0  0  0  0
  186.0490  177.7890  143.7480 C   0  0  0  0  0  3  0  0  0  0  0  0
  186.8700  177.3620  144.7960 C   0  0  0  0  0  3  0  0  0  0  0  0
  185.4230  178.4770  146.3860 C   0  0  0  0  0  3  0  0  0  0  0  0
  184.6010  178.9030  145.3390 C   0  0  0  0  0  3  0  0  0  0  0  0
  182.3770  179.3000  140.3620 C   0  0  0  0  0  2  0  0  0  0  0  0
  179.9560  179.8650  140.1160 C   0  0  2  0  0  0  0  0  0  0  0  0
  179.6830  178.1170  142.7960 C   0  0  0  0  0  1  0  0  0  0  0  0
  180.1340  177.0210  140.5730 C   0  0  0  0  0  2  0  0  0  0  0  0
  179.0060  180.6710  140.7620 O   0  0  0  0  0  0  0  0  0  0  0  0
  179.8690  181.3110  139.8460 C   0  0  0  0  0  2  0  0  0  0  0  0
  180.6660  177.9820  141.6460 C   0  0  1  0  0  3  0  0  0  0  0  0
  178.9310  177.6100  139.8310 C   0  0  0  0  0  2  0  0  0  0  0  0
  179.3160  178.9050  139.1220 C   0  0  0  0  0  2  0  0  0  0  0  0
  181.0330  179.3610  141.0740 C   0  0  1  0  0  3  0  0  0  0  0  0
  1  8  1  0  0  0  0
  2  7  2  0  0  0  0
  3 11  1  1  0  0  0
  4  6  1  0  0  0  0
  5  7  1  0  0  0  0
  5  9  1  0  0  0  0
  6 18  1  6  0  0  0
  6  3  1  0  0  0  0
  7  1  1  0  0  0  0
  8 10  1  1  0  0  0
  9  4  1  1  0  0  0
  9  8  1  0  0  0  0
 10  3  1  0  0  0  0
 11 13  1  0  0  0  0
 12 16  1  0  0  0  0
 13 17  1  0  0  0  0
 14 13  2  0  0  0  0
 14 15  1  0  0  0  0
 15 12  2  0  0  0  0
 17 16  2  0  0  0  0
 19 26  1  6  0  0  0
 19 22  1  0  0  0  0
 19 27  1  0  0  0  0
 21 24  1  0  0  0  0
 23 19  1  0  0  0  0
 23 22  1  0  0  0  0
 24 20  1  1  0  0  0
 25 21  1  0  0  0  0
 26 25  1  0  0  0  0
 27 18  1  6  0  0  0
 27 24  1  0  0  0  0
M  END
>  <MODEL>
3

>  <REMARK>
 VINA RESULT:      -7.2      0.910      2.174
  Name = 
  4 active torsions:
  status: ('A' for Active; 'I' for Inactive)
    1  A    between atoms: C_2  and  C_6
    2  A    between atoms: C_2  and  C_9
    3  A    between atoms: C_3  and  C_14
    4  A    between atoms: C_3  and  C_26
                            x       y       z     vdW  Elec       q    Type
                         _______ _______ _______ _____ _____    ______ ____

>  <TORSDO>
F 4

$$$$
=
 OpenBabel10262420013D

 27 31  0  0  1  0  0  0  0  0999 V2000
  185.3550  177.6000  143.2050 N   0  0  0  0  0  2  0  0  0  0  0  0
  183.2570  178.1200  142.3090 O   0  0  0  0  0  0  0  0  0  0  0  0
  189.1270  177.4510  142.9170 C   0  0  1  0  0  3  0  0  0  0  0  0
  188.1200  179.0010  141.1620 C   0  0  0  0  0  2  0  0  0  0  0  0
  185.3200  179.3780  141.1400 S   0  0  0  0  0  0  0  0  0  0  0  0
  189.2500  178.0010  141.4700 C   0  0  2  0  0  3  0  0  0  0  0  0
  184.5000  178.3110  142.3220 C   0  0  0  0  0  0  0  0  0  0  0  0
  186.7230  177.9830  142.9370 C   0  0  2  0  0  3  0  0  0  0  0  0
  186.7800  178.3480  141.4680 C   0  0  2  0  0  3  0  0  0  0  0  0
  187.7330  176.8830  143.2180 C   0  0  0  0  0  2  0  0  0  0  0  0
  190.2090  176.4390  143.2760 C   0  0  0  0  0  2  0  0  0  0  0  0
  191.1730  176.6440  147.4520 C   0  0  0  0  0  3  0  0  0  0  0  0
  190.5470  176.5130  144.7270 C   0  0  0  0  0  0  0  0  0  0  0  0
  191.7430  175.9570  145.2010 C   0  0  0  0  0  3  0  0  0  0  0  0
  192.0540  176.0230  146.5630 C   0  0  0  0  0  3  0  0  0  0  0  0
  189.9800  177.2000  146.9810 C   0  0  0  0  0  3  0  0  0  0  0  0
  189.6690  177.1350  145.6210 C   0  0  0  0  0  3  0  0  0  0  0  0
  189.2500  176.8900  140.4220 C   0  0  0  0  0  2  0  0  0  0  0  0
  190.4880  176.3080  138.3300 C   0  0  2  0  0  0  0  0  0  0  0  0
  189.0570  178.9580  137.2180 C   0  0  0  0  0  1  0  0  0  0  0  0
  187.7490  176.8380  137.5910 C   0  0  0  0  0  2  0  0  0  0  0  0
  191.5740  176.8050  137.5930 O   0  0  0  0  0  0  0  0  0  0  0  0
  191.8770  176.0030  138.7150 C   0  0  0  0  0  2  0  0  0  0  0  0
  188.5710  177.9550  138.2500 C   0  0  1  0  0  3  0  0  0  0  0  0
  188.6220  175.9290  136.7220 C   0  0  0  0  0  2  0  0  0  0  0  0
  189.7020  175.2550  137.5610 C   0  0  0  0  0  2  0  0  0  0  0  0
  189.7460  177.4120  139.0800 C   0  0  1  0  0  3  0  0  0  0  0  0
  2  7  2  0  0  0  0
  3 10  1  0  0  0  0
  3 11  1  6  0  0  0
  4  6  1  0  0  0  0
  5  9  1  0  0  0  0
  5  7  1  0  0  0  0
  6 18  1  6  0  0  0
  6  3  1  0  0  0  0
  7  1  1  0  0  0  0
  8  1  1  0  0  0  0
  8 10  1  6  0  0  0
  9  4  1  1  0  0  0
  9  8  1  0  0  0  0
 11 13  1  0  0  0  0
 13 14  2  0  0  0  0
 13 17  1  0  0  0  0
 14 15  1  0  0  0  0
 15 12  2  0  0  0  0
 16 12  1  0  0  0  0
 17 16  2  0  0  0  0
 19 26  1  6  0  0  0
 19 23  1  0  0  0  0
 19 27  1  0  0  0  0
 21 24  1  0  0  0  0
 22 19  1  0  0  0  0
 22 23  1  0  0  0  0
 24 20  1  6  0  0  0
 24 27  1  0  0  0  0
 25 26  1  0  0  0  0
 25 21  1  0  0  0  0
 27 18  1  1  0  0  0
M  END
>  <MODEL>
4

>  <REMARK>
 VINA RESULT:      -7.2      3.884      7.817
  Name = 
  4 active torsions:
  status: ('A' for Active; 'I' for Inactive)
    1  A    between atoms: C_2  and  C_6
    2  A    between atoms: C_2  and  C_9
    3  A    between atoms: C_3  and  C_14
    4  A    between atoms: C_3  and  C_26
                            x       y       z     vdW  Elec       q    Type
                         _______ _______ _______ _____ _____    ______ ____

>  <TORSDO>
F 4

$$$$
=
 OpenBabel10262420013D

 27 31  0  0  1  0  0  0  0  0999 V2000
  181.2290  177.9690  140.9670 N   0  0  0  0  0  2  0  0  0  0  0  0
  179.2580  177.6750  139.7400 O   0  0  0  0  0  0  0  0  0  0  0  0
  184.9030  178.8590  141.1550 C   0  0  1  0  0  3  0  0  0  0  0  0
  183.8580  179.6760  138.9790 C   0  0  0  0  0  2  0  0  0  0  0  0
  181.1030  179.2180  138.5490 S   0  0  0  0  0  0  0  0  0  0  0  0
  185.1330  179.1250  139.6420 C   0  0  2  0  0  3  0  0  0  0  0  0
  180.3890  178.2150  139.8490 C   0  0  0  0  0  0  0  0  0  0  0  0
  182.4790  178.6690  140.7740 C   0  0  2  0  0  3  0  0  0  0  0  0
  182.6970  178.7380  139.2760 C   0  0  2  0  0  3  0  0  0  0  0  0
  183.6700  177.9840  141.4210 C   0  0  0  0  0  2  0  0  0  0  0  0
  186.1270  178.2940  141.8660 C   0  0  0  0  0  2  0  0  0  0  0  0
  185.5900  178.3270  146.1220 C   0  0  0  0  0  3  0  0  0  0  0  0
  185.9370  178.3030  143.3450 C   0  0  0  0  0  0  0  0  0  0  0  0
  184.9630  179.1260  143.9240 C   0  0  0  0  0  3  0  0  0  0  0  0
  184.7910  179.1380  145.3120 C   0  0  0  0  0  3  0  0  0  0  0  0
  186.5630  177.5040  145.5460 C   0  0  0  0  0  3  0  0  0  0  0  0
  186.7350  177.4920  144.1590 C   0  0  0  0  0  3  0  0  0  0  0  0
  185.6010  177.8770  138.8950 C   0  0  0  0  0  2  0  0  0  0  0  0
  188.0260  177.7550  138.3060 C   0  0  2  0  0  0  0  0  0  0  0  0
  186.9350  178.4000  135.3560 C   0  0  0  0  0  1  0  0  0  0  0  0
  186.5940  176.1320  136.3980 C   0  0  0  0  0  2  0  0  0  0  0  0
  189.0480  178.6370  137.9240 O   0  0  0  0  0  0  0  0  0  0  0  0
  188.7590  178.5550  139.3030 C   0  0  0  0  0  2  0  0  0  0  0  0
  186.2750  177.6320  136.4870 C   0  0  1  0  0  3  0  0  0  0  0  0
  188.0670  175.8470  136.7030 C   0  0  0  0  0  2  0  0  0  0  0  0
  188.4220  176.2970  138.1160 C   0  0  0  0  0  2  0  0  0  0  0  0
  186.6500  178.2340  137.8510 C   0  0  1  0  0  3  0  0  0  0  0  0
  2  7  2  0  0  0  0
  3 10  1  0  0  0  0
  3 11  1  6  0  0  0
  4  6  1  0  0  0  0
  5  9  1  0  0  0  0
  5  7  1  0  0  0  0
  6 18  1  6  0  0  0
  6  3  1  0  0  0  0
  7  1  1  0  0  0  0
  8  1  1  0  0  0  0
  8 10  1  1  0  0  0
  9  4  1  1  0  0  0
  9  8  1  0  0  0  0
 11 13  1  0  0  0  0
 13 14  2  0  0  0  0
 13 17  1  0  0  0  0
 14 15  1  0  0  0  0
 15 12  2  0  0  0  0
 16 12  1  0  0  0  0
 17 16  2  0  0  0  0
 19 26  1  6  0  0  0
 19 23  1  0  0  0  0
 21 24  1  0  0  0  0
 21 25  1  0  0  0  0
 22 19  1  0  0  0  0
 22 23  1  0  0  0  0
 24 20  1  6  0  0  0
 24 27  1  0  0  0  0
 25 26  1  0  0  0  0
 27 19  1  0  0  0  0
 27 18  1  1  0  0  0
M  END
>  <MODEL>
5

>  <REMARK>
 VINA RESULT:      -7.0      2.240      6.153
  Name = 
  4 active torsions:
  status: ('A' for Active; 'I' for Inactive)
    1  A    between atoms: C_2  and  C_6
    2  A    between atoms: C_2  and  C_9
    3  A    between atoms: C_3  and  C_14
    4  A    between atoms: C_3  and  C_26
                            x       y       z     vdW  Elec       q    Type
                         _______ _______ _______ _____ _____    ______ ____

>  <TORSDO>
F 4

$$$$
=
 OpenBabel10262420013D

 27 31  0  0  1  0  0  0  0  0999 V2000
  186.3130  177.5500  143.6380 N   0  0  0  0  0  2  0  0  0  0  0  0
  184.0550  178.0460  143.2710 O   0  0  0  0  0  0  0  0  0  0  0  0
  189.8940  177.3600  142.4250 C   0  0  1  0  0  3  0  0  0  0  0  0
  188.4760  178.8400  140.9100 C   0  0  0  0  0  2  0  0  0  0  0  0
  185.7570  179.2370  141.5700 S   0  0  0  0  0  0  0  0  0  0  0  0
  189.6500  177.8460  140.9700 C   0  0  2  0  0  3  0  0  0  0  0  0
  185.2620  178.2280  142.9650 C   0  0  0  0  0  0  0  0  0  0  0  0
  187.5700  177.9110  143.0210 C   0  0  2  0  0  3  0  0  0  0  0  0
  187.2560  178.2110  141.5690 C   0  0  2  0  0  3  0  0  0  0  0  0
  188.6210  176.8170  143.0890 C   0  0  0  0  0  2  0  0  0  0  0  0
  191.0350  176.3580  142.5470 C   0  0  0  0  0  2  0  0  0  0  0  0
  192.1260  175.7810  146.6570 C   0  0  0  0  0  3  0  0  0  0  0  0
  191.4180  176.1570  143.9750 C   0  0  0  0  0  0  0  0  0  0  0  0
  191.9710  174.9390  144.3910 C   0  0  0  0  0  3  0  0  0  0  0  0
  192.3230  174.7520  145.7320 C   0  0  0  0  0  3  0  0  0  0  0  0
  191.5750  176.9980  146.2430 C   0  0  0  0  0  3  0  0  0  0  0  0
  191.2230  177.1850  144.9040 C   0  0  0  0  0  3  0  0  0  0  0  0
  189.3930  176.6900  140.0050 C   0  0  0  0  0  2  0  0  0  0  0  0
  190.8080  176.0990  138.0320 C   0  0  2  0  0  0  0  0  0  0  0  0
  188.7570  178.0260  136.4840 C   0  0  0  0  0  1  0  0  0  0  0  0
  188.0520  175.7340  137.2560 C   0  0  0  0  0  2  0  0  0  0  0  0
  191.7440  176.7300  137.1990 O   0  0  0  0  0  0  0  0  0  0  0  0
  192.2150  176.2510  138.4420 C   0  0  0  0  0  2  0  0  0  0  0  0
  188.5250  177.1300  137.6890 C   0  0  1  0  0  3  0  0  0  0  0  0
  189.1640  174.9530  136.5500 C   0  0  0  0  0  2  0  0  0  0  0  0
  190.3570  174.7540  137.4790 C   0  0  0  0  0  2  0  0  0  0  0  0
  189.7740  177.0790  138.5830 C   0  0  1  0  0  3  0  0  0  0  0  0
  3 11  1  6  0  0  0
  3 10  1  0  0  0  0
  4  6  1  0  0  0  0
  5  7  1  0  0  0  0
  6 18  1  6  0  0  0
  6  3  1  0  0  0  0
  7  2  2  0  0  0  0
  7  1  1  0  0  0  0
  8 10  1  6  0  0  0
  8  1  1  0  0  0  0
  9  4  1  1  0  0  0
  9  5  1  0  0  0  0
  9  8  1  0  0  0  0
 11 13  1  0  0  0  0
 13 14  2  0  0  0  0
 13 17  1  0  0  0  0
 14 15  1  0  0  0  0
 15 12  2  0  0  0  0
 16 12  1  0  0  0  0
 17 16  2  0  0  0  0
 19 26  1  6  0  0  0
 19 23  1  0  0  0  0
 19 27  1  0  0  0  0
 21 24  1  0  0  0  0
 22 19  1  0  0  0  0
 22 23  1  0  0  0  0
 24 20  1  6  0  0  0
 24 27  1  0  0  0  0
 25 21  1  0  0  0  0
 25 26  1  0  0  0  0
 27 18  1  1  0  0  0
M  END
>  <MODEL>
6

>  <REMARK>
 VINA RESULT:      -6.9      4.428      8.322
  Name = 
  4 active torsions:
  status: ('A' for Active; 'I' for Inactive)
    1  A    between atoms: C_2  and  C_6
    2  A    between atoms: C_2  and  C_9
    3  A    between atoms: C_3  and  C_14
    4  A    between atoms: C_3  and  C_26
                            x       y       z     vdW  Elec       q    Type
                         _______ _______ _______ _____ _____    ______ ____

>  <TORSDO>
F 4

$$$$
=
 OpenBabel10262420013D

 27 31  0  0  1  0  0  0  0  0999 V2000
  183.9100  177.7140  142.2770 N   0  0  0  0  0  2  0  0  0  0  0  0
  182.2120  177.9230  140.6810 O   0  0  0  0  0  0  0  0  0  0  0  0
  187.5390  178.0410  143.3040 C   0  0  1  0  0  3  0  0  0  0  0  0
  187.0450  179.3780  141.1900 C   0  0  0  0  0  2  0  0  0  0  0  0
  184.4040  179.3890  140.1850 S   0  0  0  0  0  0  0  0  0  0  0  0
  188.0980  178.5450  141.9450 C   0  0  2  0  0  3  0  0  0  0  0  0
  183.3450  178.2730  141.1000 C   0  0  0  0  0  0  0  0  0  0  0  0
  185.2360  178.2590  142.4610 C   0  0  2  0  0  3  0  0  0  0  0  0
  185.7610  178.5690  141.0730 C   0  0  2  0  0  3  0  0  0  0  0  0
  186.1970  177.3110  143.1570 C   0  0  0  0  0  2  0  0  0  0  0  0
  188.5310  177.1940  144.0910 C   0  0  0  0  0  2  0  0  0  0  0  0
  188.2580  178.0240  148.2920 C   0  0  0  0  0  3  0  0  0  0  0  0
  188.4330  177.4790  145.5520 C   0  0  0  0  0  0  0  0  0  0  0  0
  187.2420  177.9790  146.0940 C   0  0  0  0  0  3  0  0  0  0  0  0
  187.1560  178.2520  147.4630 C   0  0  0  0  0  3  0  0  0  0  0  0
  189.4470  177.5240  147.7530 C   0  0  0  0  0  3  0  0  0  0  0  0
  189.5340  177.2510  146.3850 C   0  0  0  0  0  3  0  0  0  0  0  0
  188.5820  177.4020  141.0540 C   0  0  0  0  0  2  0  0  0  0  0  0
  190.6460  177.1010  139.6780 C   0  0  2  0  0  0  0  0  0  0  0  0
  189.0530  178.9600  137.6000 C   0  0  0  0  0  1  0  0  0  0  0  0
  188.3840  176.5600  137.9690 C   0  0  0  0  0  2  0  0  0  0  0  0
  191.7360  177.8780  139.2560 O   0  0  0  0  0  0  0  0  0  0  0  0
  191.8000  177.3420  140.5620 C   0  0  0  0  0  2  0  0  0  0  0  0
  188.5210  177.9520  138.6030 C   0  0  1  0  0  3  0  0  0  0  0  0
  189.7500  175.9400  137.6620 C   0  0  0  0  0  2  0  0  0  0  0  0
  190.5650  175.7720  138.9400 C   0  0  0  0  0  2  0  0  0  0  0  0
  189.3840  177.9380  139.8760 C   0  0  1  0  0  3  0  0  0  0  0  0
  1  8  1  0  0  0  0
  2  7  2  0  0  0  0
  3 11  1  6  0  0  0
  4  6  1  0  0  0  0
  5  9  1  0  0  0  0
  5  7  1  0  0  0  0
  6 18  1  6  0  0  0
  6  3  1  0  0  0  0
  7  1  1  0  0  0  0
  8 10  1  6  0  0  0
  9  4  1  1  0  0  0
  9  8  1  0  0  0  0
 10  3  1  0  0  0  0
 11 13  1  0  0  0  0
 13 14  2  0  0  0  0
 13 17  1  0  0  0  0
 14 15  1  0  0  0  0
 15 12  2  0  0  0  0
 16 12  1  0  0  0  0
 17 16  2  0  0  0  0
 19 26  1  6  0  0  0
 19 27  1  0  0  0  0
 19 23  1  0  0  0  0
 21 24  1  0  0  0  0
 22 19  1  0  0  0  0
 22 23  1  0  0  0  0
 24 20  1  6  0  0  0
 24 27  1  0  0  0  0
 25 21  1  0  0  0  0
 25 26  1  0  0  0  0
 27 18  1  1  0  0  0
M  END
>  <MODEL>
7

>  <REMARK>
 VINA RESULT:      -6.8      3.213      7.207
  Name = 
  4 active torsions:
  status: ('A' for Active; 'I' for Inactive)
    1  A    between atoms: C_2  and  C_6
    2  A    between atoms: C_2  and  C_9
    3  A    between atoms: C_3  and  C_14
    4  A    between atoms: C_3  and  C_26
                            x       y       z     vdW  Elec       q    Type
                         _______ _______ _______ _____ _____    ______ ____

>  <TORSDO>
F 4

$$$$
=
 OpenBabel10262420013D

 27 31  0  0  1  0  0  0  0  0999 V2000
  185.3190  179.8060  145.8490 N   0  0  0  0  0  2  0  0  0  0  0  0
  185.9890  179.9530  148.0860 O   0  0  0  0  0  0  0  0  0  0  0  0
  185.6190  178.2690  142.4020 C   0  0  1  0  0  3  0  0  0  0  0  0
  186.7280  176.8080  144.1730 C   0  0  0  0  0  2  0  0  0  0  0  0
  186.6330  177.6490  146.8700 S   0  0  0  0  0  0  0  0  0  0  0  0
  186.7820  177.2870  142.7110 C   0  0  2  0  0  3  0  0  0  0  0  0
  185.9030  179.2760  147.0290 C   0  0  0  0  0  0  0  0  0  0  0  0
  185.4290  178.8250  144.7930 C   0  0  2  0  0  3  0  0  0  0  0  0
  186.6780  178.0210  145.0920 C   0  0  2  0  0  3  0  0  0  0  0  0
  185.5440  179.4290  143.4050 C   0  0  0  0  0  2  0  0  0  0  0  0
  185.6300  178.7930  140.9710 C   0  0  0  0  0  2  0  0  0  0  0  0
  181.6600  178.9150  139.3490 C   0  0  0  0  0  3  0  0  0  0  0  0
  184.2490  178.8380  140.4100 C   0  0  0  0  0  0  0  0  0  0  0  0
  183.1900  178.2250  141.0940 C   0  0  0  0  0  3  0  0  0  0  0  0
  181.8980  178.2640  140.5620 C   0  0  0  0  0  3  0  0  0  0  0  0
  182.7140  179.5280  138.6650 C   0  0  0  0  0  3  0  0  0  0  0  0
  184.0070  179.4900  139.1960 C   0  0  0  0  0  3  0  0  0  0  0  0
  188.1530  177.8970  142.4220 C   0  0  0  0  0  2  0  0  0  0  0  0
  190.1000  177.2390  141.0010 C   0  0  2  0  0  0  0  0  0  0  0  0
  190.5790  175.0960  143.3440 C   0  0  0  0  0  1  0  0  0  0  0  0
  191.0680  177.5410  143.7030 C   0  0  0  0  0  2  0  0  0  0  0  0
  190.4740  176.1590  140.1860 O   0  0  0  0  0  0  0  0  0  0  0  0
  189.6110  177.1210  139.6170 C   0  0  0  0  0  2  0  0  0  0  0  0
  189.9840  176.4920  143.4140 C   0  0  1  0  0  3  0  0  0  0  0  0
  192.0210  177.7120  142.5170 C   0  0  0  0  0  2  0  0  0  0  0  0
  191.2630  178.1810  141.2790 C   0  0  0  0  0  2  0  0  0  0  0  0
  189.1810  176.8090  142.1420 C   0  0  1  0  0  3  0  0  0  0  0  0
  1  7  1  0  0  0  0
  3 11  1  6  0  0  0
  3  6  1  0  0  0  0
  3 10  1  0  0  0  0
  5  7  1  0  0  0  0
  6 18  1  1  0  0  0
  6  4  1  0  0  0  0
  7  2  2  0  0  0  0
  8 10  1  6  0  0  0
  8  9  1  0  0  0  0
  8  1  1  0  0  0  0
  9  4  1  6  0  0  0
  9  5  1  0  0  0  0
 12 15  1  0  0  0  0
 13 11  1  0  0  0  0
 13 14  1  0  0  0  0
 15 14  2  0  0  0  0
 16 17  1  0  0  0  0
 16 12  2  0  0  0  0
 17 13  2  0  0  0  0
 19 23  1  6  0  0  0
 19 26  1  0  0  0  0
 19 27  1  0  0  0  0
 22 19  1  0  0  0  0
 23 22  1  0  0  0  0
 24 20  1  6  0  0  0
 24 21  1  0  0  0  0
 25 21  1  0  0  0  0
 26 25  1  0  0  0  0
 27 18  1  1  0  0  0
 27 24  1  0  0  0  0
M  END
>  <MODEL>
8

>  <REMARK>
 VINA RESULT:      -6.4      4.092      8.613
  Name = 
  4 active torsions:
  status: ('A' for Active; 'I' for Inactive)
    1  A    between atoms: C_2  and  C_6
    2  A    between atoms: C_2  and  C_9
    3  A    between atoms: C_3  and  C_14
    4  A    between atoms: C_3  and  C_26
                            x       y       z     vdW  Elec       q    Type
                         _______ _______ _______ _____ _____    ______ ____

>  <TORSDO>
F 4

$$$$
=
 OpenBabel10262420013D

 27 31  0  0  1  0  0  0  0  0999 V2000
  184.5710  177.5310  136.7270 N   0  0  0  0  0  2  0  0  0  0  0  0
  183.3590  176.9230  134.8190 O   0  0  0  0  0  0  0  0  0  0  0  0
  184.8100  178.0240  140.4730 C   0  0  1  0  0  3  0  0  0  0  0  0
  182.8140  176.5640  139.8510 C   0  0  0  0  0  2  0  0  0  0  0  0
  182.3820  175.9570  137.1250 S   0  0  0  0  0  0  0  0  0  0  0  0
  183.3520  177.6220  140.8310 C   0  0  2  0  0  3  0  0  0  0  0  0
  183.5250  176.8360  136.0630 C   0  0  0  0  0  0  0  0  0  0  0  0
  184.4610  177.2920  138.1480 C   0  0  2  0  0  3  0  0  0  0  0  0
  182.9870  177.0720  138.4260 C   0  0  2  0  0  3  0  0  0  0  0  0
  184.9640  178.4410  139.0030 C   0  0  0  0  0  2  0  0  0  0  0  0
  185.3930  179.0840  141.3980 C   0  0  0  0  0  2  0  0  0  0  0  0
  187.4180  177.2660  144.7150 C   0  0  0  0  0  3  0  0  0  0  0  0
  186.0990  178.4550  142.5520 C   0  0  0  0  0  0  0  0  0  0  0  0
  187.3950  177.9470  142.3910 C   0  0  0  0  0  3  0  0  0  0  0  0
  188.0520  177.3520  143.4730 C   0  0  0  0  0  3  0  0  0  0  0  0
  186.1250  177.7730  144.8780 C   0  0  0  0  0  3  0  0  0  0  0  0
  185.4680  178.3680  143.7970 C   0  0  0  0  0  3  0  0  0  0  0  0
  182.4070  178.8230  140.8590 C   0  0  0  0  0  2  0  0  0  0  0  0
  180.3500  179.0850  142.2520 C   0  0  2  0  0  0  0  0  0  0  0  0
  178.9370  177.7170  139.7130 C   0  0  0  0  0  1  0  0  0  0  0  0
  179.7440  180.1020  139.6200 C   0  0  0  0  0  2  0  0  0  0  0  0
  179.4620  178.2600  142.9600 O   0  0  0  0  0  0  0  0  0  0  0  0
  180.6730  178.5990  143.6040 C   0  0  0  0  0  2  0  0  0  0  0  0
  180.1500  178.6290  139.7730 C   0  0  1  0  0  3  0  0  0  0  0  0
  178.9680  180.6050  140.8400 C   0  0  0  0  0  2  0  0  0  0  0  0
  179.8210  180.5040  142.1000 C   0  0  0  0  0  2  0  0  0  0  0  0
  180.9660  178.3720  141.0500 C   0  0  1  0  0  3  0  0  0  0  0  0
  1  8  1  0  0  0  0
  2  7  2  0  0  0  0
  3  6  1  0  0  0  0
  3 11  1  1  0  0  0
  4  6  1  0  0  0  0
  5  9  1  0  0  0  0
  6 18  1  6  0  0  0
  7  1  1  0  0  0  0
  7  5  1  0  0  0  0
  8  9  1  0  0  0  0
  8 10  1  1  0  0  0
  9  4  1  1  0  0  0
 10  3  1  0  0  0  0
 11 13  1  0  0  0  0
 12 16  1  0  0  0  0
 13 17  1  0  0  0  0
 14 13  2  0  0  0  0
 14 15  1  0  0  0  0
 15 12  2  0  0  0  0
 17 16  2  0  0  0  0
 19 26  1  6  0  0  0
 19 22  1  0  0  0  0
 19 23  1  0  0  0  0
 21 24  1  0  0  0  0
 21 25  1  0  0  0  0
 22 23  1  0  0  0  0
 24 20  1  1  0  0  0
 24 27  1  0  0  0  0
 25 26  1  0  0  0  0
 27 18  1  6  0  0  0
 27 19  1  0  0  0  0
M  END
>  <MODEL>
9

>  <REMARK>
 VINA RESULT:      -6.4      1.612      2.097
  Name = 
  4 active torsions:
  status: ('A' for Active; 'I' for Inactive)
    1  A    between atoms: C_2  and  C_6
    2  A    between atoms: C_2  and  C_9
    3  A    between atoms: C_3  and  C_14
    4  A    between atoms: C_3  and  C_26
                            x       y       z     vdW  Elec       q    Type
                         _______ _______ _______ _____ _____    ______ ____

>  <TORSDO>
F 4

$$$$
