=
 OpenBabel10262423223D

 34 38  0  0  0  0  0  0  0  0999 V2000
  186.7070  178.1680  143.7830 C   0  0  0  0  0  0  0  0  0  0  0  0
  187.9330  177.4870  147.2080 C   0  0  0  0  0  3  0  0  0  0  0  0
  185.9210  178.1670  146.4170 N   0  0  0  0  0  0  0  0  0  0  0  0
  186.1570  178.6400  141.3370 C   0  0  0  0  0  0  0  0  0  0  0  0
  187.1500  178.1070  142.3320 C   0  0  0  0  0  2  0  0  0  0  0  0
  184.5200  178.9300  143.1370 C   0  0  0  0  0  0  0  0  0  0  0  0
  183.2070  179.2970  143.4140 O   0  0  0  0  0  1  0  0  0  0  0  0
  184.9380  178.9890  141.7300 C   0  0  0  0  0  3  0  0  0  0  0  0
  185.0150  178.5300  145.4800 C   0  0  0  0  0  0  0  0  0  0  0  0
  185.3810  178.5500  144.1160 C   0  0  0  0  0  0  0  0  0  0  0  0
  183.7080  178.8900  145.9210 N   0  0  0  0  0  1  0  0  0  0  0  0
  189.3230  177.0520  147.3610 C   0  0  0  0  0  3  0  0  0  0  0  0
  190.2600  176.8470  146.4410 C   0  0  0  0  0  0  0  0  0  0  0  0
  190.0680  177.0290  145.0000 C   0  0  0  0  0  3  0  0  0  0  0  0
  187.1980  177.8050  146.1410 C   0  0  0  0  0  0  0  0  0  0  0  0
  188.9870  177.4170  144.3340 C   0  0  0  0  0  3  0  0  0  0  0  0
  187.6320  177.7940  144.7930 C   0  0  0  0  0  0  0  0  0  0  0  0
  191.5900  176.4040  146.9020 C   0  0  0  0  0  0  0  0  0  0  0  0
  192.1450  176.9210  148.0670 O   0  0  0  0  0  1  0  0  0  0  0  0
  192.2410  175.5480  146.2430 O   0  0  0  0  0  0  0  0  0  0  0  0
  186.4580  178.7270  139.9710 O   0  0  0  0  0  0  0  0  0  0  0  0
  188.6840  177.4610  137.1670 C   0  0  0  0  0  2  0  0  0  0  0  0
  188.7410  178.1740  139.9560 C   0  0  0  0  0  3  0  0  0  0  0  0
  192.2300  176.4820  138.1420 C   0  0  0  0  0  0  0  0  0  0  0  0
  191.0520  176.6550  137.3950 C   0  0  0  0  0  3  0  0  0  0  0  0
  189.9100  177.1970  137.9900 C   0  0  0  0  0  0  0  0  0  0  0  0
  191.1130  177.4360  140.0830 C   0  0  0  0  0  3  0  0  0  0  0  0
  189.9420  177.5930  139.3370 C   0  0  0  0  0  0  0  0  0  0  0  0
  192.2500  176.8790  139.4870 C   0  0  0  0  0  3  0  0  0  0  0  0
  187.5580  178.1400  139.3320 C   0  0  0  0  0  0  0  0  0  0  0  0
  187.4180  177.3830  138.0270 C   0  0  0  0  0  2  0  0  0  0  0  0
  193.4460  175.9010  137.5360 C   0  0  0  0  0  0  0  0  0  0  0  0
  194.2480  176.6790  136.7100 O   0  0  0  0  0  1  0  0  0  0  0  0
  193.7970  174.6400  137.7610 C   0  0  0  0  0  2  0  0  0  0  0  0
  1 10  1  0  0  0  0
  1 17  2  0  0  0  0
  2 12  1  0  0  0  0
  4  8  2  0  0  0  0
  4  5  1  0  0  0  0
  5  1  1  0  0  0  0
  6  7  1  0  0  0  0
  6 10  2  0  0  0  0
  8  6  1  0  0  0  0
  9 11  1  0  0  0  0
  9  3  2  0  0  0  0
 10  9  1  0  0  0  0
 13 18  1  0  0  0  0
 13 12  2  0  0  0  0
 14 13  1  0  0  0  0
 15  3  1  0  0  0  0
 15  2  2  0  0  0  0
 16 17  1  0  0  0  0
 16 14  2  0  0  0  0
 17 15  1  0  0  0  0
 18 19  1  0  0  0  0
 20 18  2  0  0  0  0
 21  4  1  0  0  0  0
 22 26  1  0  0  0  0
 22 31  1  0  0  0  0
 24 29  1  0  0  0  0
 25 26  1  0  0  0  0
 25 24  2  0  0  0  0
 26 28  2  0  0  0  0
 28 23  1  0  0  0  0
 28 27  1  0  0  0  0
 29 27  2  0  0  0  0
 30 23  2  0  0  0  0
 30 21  1  0  0  0  0
 31 30  1  0  0  0  0
 32 34  2  0  0  0  0
 32 24  1  0  0  0  0
 33 32  1  0  0  0  0
M  END
>  <MODEL>
1

>  <REMARK>
 VINA RESULT:     -12.1      0.000      0.000
  Name = 
  4 active torsions:
  status: ('A' for Active; 'I' for Inactive)
    1  A    between atoms: C_3  and  C_25
    2  A    between atoms: C_7  and  C_11
    3  A    between atoms: C_8  and  O_18
    4  A    between atoms: O_18  and  C_30
                            x       y       z     vdW  Elec       q    Type
                         _______ _______ _______ _____ _____    ______ ____

>  <TORSDO>
F 4

$$$$
=
 OpenBabel10262423223D

 34 38  0  0  1  0  0  0  0  0999 V2000
  184.3780  178.7700  141.9670 C   0  0  1  0  0  3  0  0  0  0  0  0
  185.3710  178.3100  138.4310 C   0  0  0  0  0  3  0  0  0  0  0  0
  183.3470  178.5180  139.4320 N   0  0  0  0  0  0  0  0  0  0  0  0
  183.9810  179.0020  144.4770 C   0  0  0  0  0  0  0  0  0  0  0  0
  184.9750  178.9620  143.3500 C   0  0  0  0  0  3  0  0  0  0  0  0
  182.1490  178.9330  142.8510 C   0  0  0  0  0  0  0  0  0  0  0  0
  180.7660  178.9840  142.7140 O   0  0  0  0  0  1  0  0  0  0  0  0
  182.6790  179.0150  144.2190 C   0  0  0  0  0  3  0  0  0  0  0  0
  182.4830  178.6740  140.4610 C   0  0  0  0  0  0  0  0  0  0  0  0
  182.9720  178.8000  141.7800 C   0  0  0  0  0  0  0  0  0  0  0  0
  181.0890  178.6970  140.1630 N   0  0  0  0  0  1  0  0  0  0  0  0
  186.8010  178.2120  138.1310 C   0  0  0  0  0  3  0  0  0  0  0  0
  187.8500  178.2650  138.9460 C   0  0  0  0  0  0  0  0  0  0  0  0
  187.7700  178.4450  140.3970 C   0  0  0  0  0  3  0  0  0  0  0  0
  184.6950  178.4750  139.5710 C   0  0  0  0  0  0  0  0  0  0  0  0
  186.7030  178.5840  141.1750 C   0  0  0  0  0  3  0  0  0  0  0  0
  185.2560  178.6040  140.8640 C   0  0  0  0  0  0  0  0  0  0  0  0
  189.1920  178.1340  138.3470 C   0  0  0  0  0  0  0  0  0  0  0  0
  190.2540  177.6330  139.0920 O   0  0  0  0  0  1  0  0  0  0  0  0
  189.3920  178.4740  137.1500 O   0  0  0  0  0  0  0  0  0  0  0  0
  184.3870  179.0890  145.8160 O   0  0  0  0  0  0  0  0  0  0  0  0
  187.1520  178.3740  148.3180 C   0  0  0  0  0  2  0  0  0  0  0  0
  186.4660  178.0280  145.5440 C   0  0  0  0  0  3  0  0  0  0  0  0
  190.3650  176.9000  146.9060 C   0  0  0  0  0  0  0  0  0  0  0  0
  189.4370  177.4710  147.7960 C   0  0  0  0  0  3  0  0  0  0  0  0
  188.1690  177.8490  147.3480 C   0  0  0  0  0  0  0  0  0  0  0  0
  188.7190  177.0620  145.1200 C   0  0  0  0  0  3  0  0  0  0  0  0
  187.8070  177.6390  146.0070 C   0  0  0  0  0  0  0  0  0  0  0  0
  189.9930  176.6980  145.5690 C   0  0  0  0  0  3  0  0  0  0  0  0
  185.6580  178.7680  146.3120 C   0  0  0  0  0  0  0  0  0  0  0  0
  186.1710  179.3240  147.6240 C   0  0  0  0  0  2  0  0  0  0  0  0
  191.7150  176.5030  147.3550 C   0  0  0  0  0  0  0  0  0  0  0  0
  192.3150  177.1680  148.4180 O   0  0  0  0  0  1  0  0  0  0  0  0
  192.3790  175.5160  146.7650 C   0  0  0  0  0  2  0  0  0  0  0  0
  1  5  1  6  0  0  0
  2 15  1  0  0  0  0
  3 15  2  0  0  0  0
  3  9  1  0  0  0  0
  4 21  1  0  0  0  0
  5  4  2  0  0  0  0
  6  8  2  0  0  0  0
  7  6  1  0  0  0  0
  8  4  1  0  0  0  0
  9 10  2  0  0  0  0
 10  1  1  0  0  0  0
 10  6  1  0  0  0  0
 11  9  1  0  0  0  0
 12  2  2  0  0  0  0
 12 13  1  0  0  0  0
 13 14  2  0  0  0  0
 14 16  1  0  0  0  0
 15 17  1  0  0  0  0
 17 16  2  0  0  0  0
 17  1  1  0  0  0  0
 18 13  1  0  0  0  0
 18 19  1  0  0  0  0
 20 18  2  0  0  0  0
 21 30  1  0  0  0  0
 23 28  1  0  0  0  0
 23 30  2  0  0  0  0
 24 32  1  0  0  0  0
 24 25  1  0  0  0  0
 26 25  2  0  0  0  0
 26 22  1  0  0  0  0
 27 29  1  0  0  0  0
 27 28  2  0  0  0  0
 28 26  1  0  0  0  0
 29 24  2  0  0  0  0
 30 31  1  0  0  0  0
 31 22  1  0  0  0  0
 32 33  1  0  0  0  0
 34 32  2  0  0  0  0
M  END
>  <MODEL>
2

>  <REMARK>
 VINA RESULT:     -11.8      2.788      7.473
  Name = 
  4 active torsions:
  status: ('A' for Active; 'I' for Inactive)
    1  A    between atoms: C_3  and  C_25
    2  A    between atoms: C_7  and  C_11
    3  A    between atoms: C_8  and  O_18
    4  A    between atoms: O_18  and  C_30
                            x       y       z     vdW  Elec       q    Type
                         _______ _______ _______ _____ _____    ______ ____

>  <TORSDO>
F 4

$$$$
=
 OpenBabel10262423223D

 34 38  0  0  1  0  0  0  0  0999 V2000
  188.0100  177.7880  145.0590 C   0  0  1  0  0  3  0  0  0  0  0  0
  184.5310  178.5440  146.0710 C   0  0  0  0  0  3  0  0  0  0  0  0
  186.4160  178.1520  147.2680 N   0  0  0  0  0  0  0  0  0  0  0  0
  190.2940  177.2060  144.0810 C   0  0  0  0  0  0  0  0  0  0  0  0
  188.8790  177.6460  143.8220 C   0  0  0  0  0  3  0  0  0  0  0  0
  189.8900  177.3580  146.4940 C   0  0  0  0  0  0  0  0  0  0  0  0
  190.4920  177.2460  147.7420 O   0  0  0  0  0  1  0  0  0  0  0  0
  190.7460  177.1060  145.3250 C   0  0  0  0  0  3  0  0  0  0  0  0
  187.7250  177.8690  147.4640 C   0  0  0  0  0  0  0  0  0  0  0  0
  188.5750  177.6680  146.3550 C   0  0  0  0  0  0  0  0  0  0  0  0
  188.1930  177.7780  148.8070 N   0  0  0  0  0  1  0  0  0  0  0  0
  183.5410  178.7470  145.0110 C   0  0  0  0  0  3  0  0  0  0  0  0
  183.6830  178.7080  143.6910 C   0  0  0  0  0  0  0  0  0  0  0  0
  184.9440  178.4370  142.9960 C   0  0  0  0  0  3  0  0  0  0  0  0
  185.8360  178.2650  146.0480 C   0  0  0  0  0  0  0  0  0  0  0  0
  186.1480  178.1830  143.4960 C   0  0  0  0  0  3  0  0  0  0  0  0
  186.6320  178.0850  144.8910 C   0  0  0  0  0  0  0  0  0  0  0  0
  182.4870  178.9560  142.8630 C   0  0  0  0  0  0  0  0  0  0  0  0
  182.5460  178.8320  141.4790 O   0  0  0  0  0  0  0  0  0  0  0  0
  181.3950  179.2820  143.4020 O   0  0  0  0  0  1  0  0  0  0  0  0
  191.1890  176.9500  143.0340 O   0  0  0  0  0  0  0  0  0  0  0  0
  191.6960  176.8310  139.2730 C   0  0  0  0  0  2  0  0  0  0  0  0
  189.6540  177.1810  141.2710 C   0  0  0  0  0  3  0  0  0  0  0  0
  188.6590  177.6630  137.1350 C   0  0  0  0  0  0  0  0  0  0  0  0
  189.9800  177.3740  137.5210 C   0  0  0  0  0  3  0  0  0  0  0  0
  190.3060  177.2270  138.8720 C   0  0  0  0  0  0  0  0  0  0  0  0
  187.9900  177.6230  139.4750 C   0  0  0  0  0  3  0  0  0  0  0  0
  189.3060  177.3470  139.8510 C   0  0  0  0  0  0  0  0  0  0  0  0
  187.6700  177.7830  138.1230 C   0  0  0  0  0  3  0  0  0  0  0  0
  190.9300  177.1270  141.6680 C   0  0  0  0  0  0  0  0  0  0  0  0
  192.0390  177.3690  140.6660 C   0  0  0  0  0  2  0  0  0  0  0  0
  188.2930  177.8330  135.7140 C   0  0  0  0  0  0  0  0  0  0  0  0
  189.2550  177.6610  134.7260 O   0  0  0  0  0  1  0  0  0  0  0  0
  187.0550  178.1480  135.3490 C   0  0  0  0  0  2  0  0  0  0  0  0
  1  5  1  6  0  0  0
  1 10  1  0  0  0  0
  3  9  1  0  0  0  0
  4  8  1  0  0  0  0
  5  4  2  0  0  0  0
  6  7  1  0  0  0  0
  8  6  2  0  0  0  0
  9 11  1  0  0  0  0
 10  6  1  0  0  0  0
 10  9  2  0  0  0  0
 12  2  2  0  0  0  0
 13 12  1  0  0  0  0
 14 16  1  0  0  0  0
 14 13  2  0  0  0  0
 15  2  1  0  0  0  0
 15  3  2  0  0  0  0
 16 17  2  0  0  0  0
 17  1  1  0  0  0  0
 17 15  1  0  0  0  0
 18 20  1  0  0  0  0
 18 13  1  0  0  0  0
 19 18  2  0  0  0  0
 21  4  1  0  0  0  0
 22 31  1  0  0  0  0
 23 30  2  0  0  0  0
 24 25  2  0  0  0  0
 24 29  1  0  0  0  0
 25 26  1  0  0  0  0
 26 22  1  0  0  0  0
 26 28  2  0  0  0  0
 27 28  1  0  0  0  0
 28 23  1  0  0  0  0
 29 27  2  0  0  0  0
 30 21  1  0  0  0  0
 31 30  1  0  0  0  0
 32 24  1  0  0  0  0
 33 32  1  0  0  0  0
 34 32  2  0  0  0  0
M  END
>  <MODEL>
3

>  <REMARK>
 VINA RESULT:     -11.5      1.862      5.636
  Name = 
  4 active torsions:
  status: ('A' for Active; 'I' for Inactive)
    1  A    between atoms: C_3  and  C_25
    2  A    between atoms: C_7  and  C_11
    3  A    between atoms: C_8  and  O_18
    4  A    between atoms: O_18  and  C_30
                            x       y       z     vdW  Elec       q    Type
                         _______ _______ _______ _____ _____    ______ ____

>  <TORSDO>
F 4

$$$$
=
 OpenBabel10262423223D

 34 38  0  0  1  0  0  0  0  0999 V2000
  187.6190  177.7960  144.8840 C   0  0  1  0  0  3  0  0  0  0  0  0
  190.8290  176.8480  143.3030 C   0  0  0  0  0  3  0  0  0  0  0  0
  190.2120  177.0960  145.4700 N   0  0  0  0  0  0  0  0  0  0  0  0
  185.3190  178.5480  145.6940 C   0  0  0  0  0  0  0  0  0  0  0  0
  186.1790  178.1270  144.5350 C   0  0  0  0  0  3  0  0  0  0  0  0
  187.1620  178.0470  147.2300 C   0  0  0  0  0  0  0  0  0  0  0  0
  187.5220  177.9890  148.5730 O   0  0  0  0  0  1  0  0  0  0  0  0
  185.7880  178.4760  146.9340 C   0  0  0  0  0  3  0  0  0  0  0  0
  189.3750  177.3690  146.4980 C   0  0  0  0  0  0  0  0  0  0  0  0
  188.0370  177.7390  146.2390 C   0  0  0  0  0  0  0  0  0  0  0  0
  189.8940  177.2750  147.8230 N   0  0  0  0  0  1  0  0  0  0  0  0
  190.8770  176.7830  141.8410 C   0  0  0  0  0  3  0  0  0  0  0  0
  189.9230  177.0120  140.9440 C   0  0  0  0  0  0  0  0  0  0  0  0
  188.5480  177.4000  141.2700 C   0  0  0  0  0  3  0  0  0  0  0  0
  189.8540  177.1490  144.1630 C   0  0  0  0  0  0  0  0  0  0  0  0
  187.9840  177.5990  142.4560 C   0  0  0  0  0  3  0  0  0  0  0  0
  188.5250  177.5040  143.8300 C   0  0  0  0  0  0  0  0  0  0  0  0
  190.2710  176.8660  139.5180 C   0  0  0  0  0  0  0  0  0  0  0  0
  190.8340  175.6860  139.0440 O   0  0  0  0  0  1  0  0  0  0  0  0
  190.0610  177.8110  138.7100 O   0  0  0  0  0  0  0  0  0  0  0  0
  183.9930  178.9640  145.5160 O   0  0  0  0  0  0  0  0  0  0  0  0
  181.0630  179.2480  143.1180 C   0  0  0  0  0  2  0  0  0  0  0  0
  183.8980  178.7570  143.1770 C   0  0  0  0  0  3  0  0  0  0  0  0
  181.7770  178.4080  139.4750 C   0  0  0  0  0  0  0  0  0  0  0  0
  181.0910  178.7230  140.6620 C   0  0  0  0  0  3  0  0  0  0  0  0
  181.7830  178.8250  141.8720 C   0  0  0  0  0  0  0  0  0  0  0  0
  183.8640  178.3350  140.7260 C   0  0  0  0  0  3  0  0  0  0  0  0
  183.1740  178.6360  141.9030 C   0  0  0  0  0  0  0  0  0  0  0  0
  183.1660  178.2190  139.5190 C   0  0  0  0  0  3  0  0  0  0  0  0
  183.2420  178.8330  144.3400 C   0  0  0  0  0  0  0  0  0  0  0  0
  181.7360  178.6660  144.3650 C   0  0  0  0  0  2  0  0  0  0  0  0
  181.0650  178.2840  138.1870 C   0  0  0  0  0  0  0  0  0  0  0  0
  179.6830  178.1330  138.1700 O   0  0  0  0  0  1  0  0  0  0  0  0
  181.7160  178.3140  137.0300 C   0  0  0  0  0  2  0  0  0  0  0  0
  1  5  1  1  0  0  0
  1 10  1  0  0  0  0
  2 15  1  0  0  0  0
  3  9  1  0  0  0  0
  4  8  1  0  0  0  0
  5  4  2  0  0  0  0
  6  7  1  0  0  0  0
  8  6  2  0  0  0  0
  9 11  1  0  0  0  0
 10  9  2  0  0  0  0
 10  6  1  0  0  0  0
 12  2  2  0  0  0  0
 13 14  2  0  0  0  0
 13 12  1  0  0  0  0
 14 16  1  0  0  0  0
 15  3  2  0  0  0  0
 16 17  2  0  0  0  0
 17 15  1  0  0  0  0
 17  1  1  0  0  0  0
 18 13  1  0  0  0  0
 19 18  1  0  0  0  0
 20 18  2  0  0  0  0
 21  4  1  0  0  0  0
 22 31  1  0  0  0  0
 23 30  2  0  0  0  0
 24 29  2  0  0  0  0
 24 25  1  0  0  0  0
 25 26  2  0  0  0  0
 26 28  1  0  0  0  0
 26 22  1  0  0  0  0
 27 28  2  0  0  0  0
 28 23  1  0  0  0  0
 29 27  1  0  0  0  0
 30 31  1  0  0  0  0
 30 21  1  0  0  0  0
 32 24  1  0  0  0  0
 33 32  1  0  0  0  0
 34 32  2  0  0  0  0
M  END
>  <MODEL>
4

>  <REMARK>
 VINA RESULT:     -11.0      2.987      7.438
  Name = 
  4 active torsions:
  status: ('A' for Active; 'I' for Inactive)
    1  A    between atoms: C_3  and  C_25
    2  A    between atoms: C_7  and  C_11
    3  A    between atoms: C_8  and  O_18
    4  A    between atoms: O_18  and  C_30
                            x       y       z     vdW  Elec       q    Type
                         _______ _______ _______ _____ _____    ______ ____

>  <TORSDO>
F 4

$$$$
=
 OpenBabel10262423223D

 34 38  0  0  1  0  0  0  0  0999 V2000
  182.9800  178.6410  141.9690 C   0  0  1  0  0  3  0  0  0  0  0  0
  182.7460  178.1160  138.3130 C   0  0  0  0  0  3  0  0  0  0  0  0
  181.1680  178.3390  139.9240 N   0  0  0  0  0  0  0  0  0  0  0  0
  183.4370  178.9190  144.4640 C   0  0  0  0  0  0  0  0  0  0  0  0
  184.0010  178.8600  143.0710 C   0  0  0  0  0  3  0  0  0  0  0  0
  181.1690  178.8160  143.5400 C   0  0  0  0  0  0  0  0  0  0  0  0
  179.8180  178.8610  143.8700 O   0  0  0  0  0  1  0  0  0  0  0  0
  182.1220  178.9250  144.6530 C   0  0  0  0  0  3  0  0  0  0  0  0
  180.6920  178.5120  141.1800 C   0  0  0  0  0  0  0  0  0  0  0  0
  181.5910  178.6640  142.2580 C   0  0  0  0  0  0  0  0  0  0  0  0
  179.2780  178.5260  141.3610 N   0  0  0  0  0  1  0  0  0  0  0  0
  183.9960  178.0150  137.5570 C   0  0  0  0  0  3  0  0  0  0  0  0
  185.2550  178.0860  137.9750 C   0  0  0  0  0  0  0  0  0  0  0  0
  185.6610  178.2940  139.3670 C   0  0  0  0  0  3  0  0  0  0  0  0
  182.4860  178.3010  139.6090 C   0  0  0  0  0  0  0  0  0  0  0  0
  184.9110  178.4440  140.4530 C   0  0  0  0  0  3  0  0  0  0  0  0
  183.4430  178.4560  140.6400 C   0  0  0  0  0  0  0  0  0  0  0  0
  186.3240  177.9460  136.9670 C   0  0  0  0  0  0  0  0  0  0  0  0
  187.6620  177.9790  137.3440 O   0  0  0  0  0  1  0  0  0  0  0  0
  186.0350  177.7950  135.7490 O   0  0  0  0  0  0  0  0  0  0  0  0
  184.2630  179.0330  145.5900 O   0  0  0  0  0  0  0  0  0  0  0  0
  187.6560  177.6350  144.6110 C   0  0  0  0  0  2  0  0  0  0  0  0
  186.2250  178.7450  146.8500 C   0  0  0  0  0  3  0  0  0  0  0  0
  190.1810  177.2140  147.4270 C   0  0  0  0  0  0  0  0  0  0  0  0
  189.5680  177.1430  146.1640 C   0  0  0  0  0  3  0  0  0  0  0  0
  188.2720  177.6330  145.9790 C   0  0  0  0  0  0  0  0  0  0  0  0
  188.1920  178.3050  148.3080 C   0  0  0  0  0  3  0  0  0  0  0  0
  187.5840  178.2210  147.0530 C   0  0  0  0  0  0  0  0  0  0  0  0
  189.4830  177.8010  148.4930 C   0  0  0  0  0  3  0  0  0  0  0  0
  185.5470  178.4880  145.7250 C   0  0  0  0  0  0  0  0  0  0  0  0
  186.1290  177.5390  144.6970 C   0  0  0  0  0  2  0  0  0  0  0  0
  191.5460  176.6930  147.6490 C   0  0  0  0  0  0  0  0  0  0  0  0
  192.3340  177.2220  148.6630 O   0  0  0  0  0  1  0  0  0  0  0  0
  192.0460  175.7200  146.8950 C   0  0  0  0  0  2  0  0  0  0  0  0
  1 10  1  0  0  0  0
  1  5  1  6  0  0  0
  2 15  1  0  0  0  0
  3  9  1  0  0  0  0
  4  8  1  0  0  0  0
  4 21  1  0  0  0  0
  5  4  2  0  0  0  0
  6  7  1  0  0  0  0
  6  8  2  0  0  0  0
  9 11  1  0  0  0  0
  9 10  2  0  0  0  0
 10  6  1  0  0  0  0
 12 13  1  0  0  0  0
 12  2  2  0  0  0  0
 13 14  2  0  0  0  0
 14 16  1  0  0  0  0
 15  3  2  0  0  0  0
 15 17  1  0  0  0  0
 16 17  2  0  0  0  0
 17  1  1  0  0  0  0
 18 19  1  0  0  0  0
 18 13  1  0  0  0  0
 20 18  2  0  0  0  0
 21 30  1  0  0  0  0
 22 31  1  0  0  0  0
 22 26  1  0  0  0  0
 23 28  1  0  0  0  0
 24 32  1  0  0  0  0
 24 29  1  0  0  0  0
 25 24  2  0  0  0  0
 26 25  1  0  0  0  0
 26 28  2  0  0  0  0
 27 29  2  0  0  0  0
 28 27  1  0  0  0  0
 30 23  2  0  0  0  0
 31 30  1  0  0  0  0
 32 33  1  0  0  0  0
 34 32  2  0  0  0  0
M  END
>  <MODEL>
5

>  <REMARK>
 VINA RESULT:     -10.8      3.875      8.097
  Name = 
  4 active torsions:
  status: ('A' for Active; 'I' for Inactive)
    1  A    between atoms: C_3  and  C_25
    2  A    between atoms: C_7  and  C_11
    3  A    between atoms: C_8  and  O_18
    4  A    between atoms: O_18  and  C_30
                            x       y       z     vdW  Elec       q    Type
                         _______ _______ _______ _____ _____    ______ ____

>  <TORSDO>
F 4

$$$$
=
 OpenBabel10262423223D

 34 38  0  0  0  0  0  0  0  0999 V2000
  185.6050  178.4020  142.7220 C   0  0  0  0  0  0  0  0  0  0  0  0
  185.6610  178.1950  146.4170 C   0  0  0  0  0  3  0  0  0  0  0  0
  183.9840  178.5590  144.9370 N   0  0  0  0  0  0  0  0  0  0  0  0
  185.8720  178.5730  140.1910 C   0  0  0  0  0  0  0  0  0  0  0  0
  186.5120  178.2550  141.5140 C   0  0  0  0  0  2  0  0  0  0  0  0
  183.7090  178.8410  141.3110 C   0  0  0  0  0  0  0  0  0  0  0  0
  182.3550  179.0770  141.0980 O   0  0  0  0  0  1  0  0  0  0  0  0
  184.5680  178.8140  140.1190 C   0  0  0  0  0  3  0  0  0  0  0  0
  183.4190  178.7250  143.7180 C   0  0  0  0  0  0  0  0  0  0  0  0
  184.2190  178.6580  142.5560 C   0  0  0  0  0  0  0  0  0  0  0  0
  182.0160  178.9710  143.6620 N   0  0  0  0  0  1  0  0  0  0  0  0
  186.9490  177.9410  147.0670 C   0  0  0  0  0  3  0  0  0  0  0  0
  188.1530  177.7600  146.5340 C   0  0  0  0  0  0  0  0  0  0  0  0
  188.4410  177.7810  145.0980 C   0  0  0  0  0  3  0  0  0  0  0  0
  185.3040  178.3230  145.1380 C   0  0  0  0  0  0  0  0  0  0  0  0
  187.6200  177.9760  144.0740 C   0  0  0  0  0  3  0  0  0  0  0  0
  186.1640  178.2350  144.0170 C   0  0  0  0  0  0  0  0  0  0  0  0
  189.2820  177.5190  147.4530 C   0  0  0  0  0  0  0  0  0  0  0  0
  190.2430  176.5580  147.1570 O   0  0  0  0  0  0  0  0  0  0  0  0
  189.3890  178.1830  148.5200 O   0  0  0  0  0  1  0  0  0  0  0  0
  186.6060  178.5650  138.9960 O   0  0  0  0  0  0  0  0  0  0  0  0
  190.2220  177.5870  139.6130 C   0  0  0  0  0  2  0  0  0  0  0  0
  187.8920  176.8080  138.1140 C   0  0  0  0  0  3  0  0  0  0  0  0
  191.5970  174.7670  137.4590 C   0  0  0  0  0  0  0  0  0  0  0  0
  191.5240  175.8350  138.3710 C   0  0  0  0  0  3  0  0  0  0  0  0
  190.3170  176.5080  138.5760 C   0  0  0  0  0  0  0  0  0  0  0  0
  189.2250  175.0360  136.9870 C   0  0  0  0  0  3  0  0  0  0  0  0
  189.1620  176.1030  137.8850 C   0  0  0  0  0  0  0  0  0  0  0  0
  190.4380  174.3740  136.7730 C   0  0  0  0  0  3  0  0  0  0  0  0
  187.8520  177.9550  138.8010 C   0  0  0  0  0  0  0  0  0  0  0  0
  189.1440  178.6110  139.2430 C   0  0  0  0  0  2  0  0  0  0  0  0
  192.8660  174.0490  137.2180 C   0  0  0  0  0  0  0  0  0  0  0  0
  192.8670  172.8730  136.4760 O   0  0  0  0  0  1  0  0  0  0  0  0
  194.0190  174.5010  137.6970 C   0  0  0  0  0  2  0  0  0  0  0  0
  1 17  2  0  0  0  0
  2 12  1  0  0  0  0
  3 15  1  0  0  0  0
  4  5  1  0  0  0  0
  5  1  1  0  0  0  0
  6 10  2  0  0  0  0
  7  6  1  0  0  0  0
  8  4  2  0  0  0  0
  8  6  1  0  0  0  0
  9  3  2  0  0  0  0
 10  1  1  0  0  0  0
 10  9  1  0  0  0  0
 11  9  1  0  0  0  0
 13 12  2  0  0  0  0
 13 18  1  0  0  0  0
 14 13  1  0  0  0  0
 15  2  2  0  0  0  0
 16 14  2  0  0  0  0
 17 16  1  0  0  0  0
 17 15  1  0  0  0  0
 18 20  1  0  0  0  0
 19 18  2  0  0  0  0
 21  4  1  0  0  0  0
 23 30  2  0  0  0  0
 24 25  1  0  0  0  0
 25 26  2  0  0  0  0
 26 22  1  0  0  0  0
 27 28  2  0  0  0  0
 28 23  1  0  0  0  0
 28 26  1  0  0  0  0
 29 27  1  0  0  0  0
 29 24  2  0  0  0  0
 30 21  1  0  0  0  0
 30 31  1  0  0  0  0
 31 22  1  0  0  0  0
 32 24  1  0  0  0  0
 32 34  2  0  0  0  0
 33 32  1  0  0  0  0
M  END
>  <MODEL>
6

>  <REMARK>
 VINA RESULT:     -10.8      1.579      2.388
  Name = 
  4 active torsions:
  status: ('A' for Active; 'I' for Inactive)
    1  A    between atoms: C_3  and  C_25
    2  A    between atoms: C_7  and  C_11
    3  A    between atoms: C_8  and  O_18
    4  A    between atoms: O_18  and  C_30
                            x       y       z     vdW  Elec       q    Type
                         _______ _______ _______ _____ _____    ______ ____

>  <TORSDO>
F 4

$$$$
=
 OpenBabel10262423223D

 34 38  0  0  1  0  0  0  0  0999 V2000
  187.9170  177.9780  145.0590 C   0  0  1  0  0  3  0  0  0  0  0  0
  184.3710  178.5060  145.9800 C   0  0  0  0  0  3  0  0  0  0  0  0
  186.2300  178.1360  147.2230 N   0  0  0  0  0  0  0  0  0  0  0  0
  190.2590  177.5640  144.1370 C   0  0  0  0  0  0  0  0  0  0  0  0
  188.8350  177.9500  143.8500 C   0  0  0  0  0  3  0  0  0  0  0  0
  189.7650  177.5560  146.5370 C   0  0  0  0  0  0  0  0  0  0  0  0
  190.3270  177.4020  147.8000 O   0  0  0  0  0  1  0  0  0  0  0  0
  190.6720  177.4140  145.3900 C   0  0  0  0  0  3  0  0  0  0  0  0
  187.5430  177.9060  147.4520 C   0  0  0  0  0  0  0  0  0  0  0  0
  188.4420  177.8110  146.3660 C   0  0  0  0  0  0  0  0  0  0  0  0
  187.9690  177.7590  148.8050 N   0  0  0  0  0  1  0  0  0  0  0  0
  183.4090  178.7220  144.8960 C   0  0  0  0  0  3  0  0  0  0  0  0
  183.6000  178.7670  143.5820 C   0  0  0  0  0  0  0  0  0  0  0  0
  184.8960  178.5970  142.9210 C   0  0  0  0  0  3  0  0  0  0  0  0
  185.6880  178.2920  145.9900 C   0  0  0  0  0  0  0  0  0  0  0  0
  186.0930  178.3730  143.4510 C   0  0  0  0  0  3  0  0  0  0  0  0
  186.5320  178.2180  144.8550 C   0  0  0  0  0  0  0  0  0  0  0  0
  182.4230  179.0040  142.7240 C   0  0  0  0  0  0  0  0  0  0  0  0
  181.3050  179.6660  143.2230 O   0  0  0  0  0  1  0  0  0  0  0  0
  182.4160  178.6100  141.5270 O   0  0  0  0  0  0  0  0  0  0  0  0
  191.2030  177.4130  143.1120 O   0  0  0  0  0  0  0  0  0  0  0  0
  189.2550  177.2080  139.8590 C   0  0  0  0  0  2  0  0  0  0  0  0
  191.9380  177.1270  140.8990 C   0  0  0  0  0  3  0  0  0  0  0  0
  191.2670  176.3740  136.7390 C   0  0  0  0  0  0  0  0  0  0  0  0
  190.1840  176.6220  137.6010 C   0  0  0  0  0  3  0  0  0  0  0  0
  190.4030  176.8570  138.9610 C   0  0  0  0  0  0  0  0  0  0  0  0
  192.7940  176.6340  138.6160 C   0  0  0  0  0  3  0  0  0  0  0  0
  191.7130  176.8680  139.4690 C   0  0  0  0  0  0  0  0  0  0  0  0
  192.5700  176.3850  137.2580 C   0  0  0  0  0  3  0  0  0  0  0  0
  190.9200  177.1430  141.7660 C   0  0  0  0  0  0  0  0  0  0  0  0
  189.5290  176.7640  141.3000 C   0  0  0  0  0  2  0  0  0  0  0  0
  191.0580  176.1120  135.3000 C   0  0  0  0  0  0  0  0  0  0  0  0
  191.9760  175.3430  134.5940 O   0  0  0  0  0  1  0  0  0  0  0  0
  190.0040  176.5970  134.6530 C   0  0  0  0  0  2  0  0  0  0  0  0
  1  5  1  1  0  0  0
  1 10  1  0  0  0  0
  2 15  1  0  0  0  0
  3  9  1  0  0  0  0
  4  8  1  0  0  0  0
  5  4  2  0  0  0  0
  6  7  1  0  0  0  0
  8  6  2  0  0  0  0
  9 11  1  0  0  0  0
 10  6  1  0  0  0  0
 10  9  2  0  0  0  0
 12  2  2  0  0  0  0
 13 12  1  0  0  0  0
 14 16  1  0  0  0  0
 14 13  2  0  0  0  0
 15  3  2  0  0  0  0
 16 17  2  0  0  0  0
 17  1  1  0  0  0  0
 17 15  1  0  0  0  0
 18 19  1  0  0  0  0
 18 13  1  0  0  0  0
 20 18  2  0  0  0  0
 21  4  1  0  0  0  0
 22 31  1  0  0  0  0
 23 30  2  0  0  0  0
 24 29  2  0  0  0  0
 24 25  1  0  0  0  0
 25 26  2  0  0  0  0
 26 28  1  0  0  0  0
 26 22  1  0  0  0  0
 27 28  2  0  0  0  0
 28 23  1  0  0  0  0
 29 27  1  0  0  0  0
 30 21  1  0  0  0  0
 31 30  1  0  0  0  0
 32 24  1  0  0  0  0
 33 32  1  0  0  0  0
 34 32  2  0  0  0  0
M  END
>  <MODEL>
7

>  <REMARK>
 VINA RESULT:     -10.6      1.727      5.304
  Name = 
  4 active torsions:
  status: ('A' for Active; 'I' for Inactive)
    1  A    between atoms: C_3  and  C_25
    2  A    between atoms: C_7  and  C_11
    3  A    between atoms: C_8  and  O_18
    4  A    between atoms: O_18  and  C_30
                            x       y       z     vdW  Elec       q    Type
                         _______ _______ _______ _____ _____    ______ ____

>  <TORSDO>
F 4

$$$$
=
 OpenBabel10262423223D

 34 38  0  0  1  0  0  0  0  0999 V2000
  189.1430  177.8010  141.8000 C   0  0  0  0  0  0  0  0  0  0  0  0
  190.9390  177.0350  144.9440 C   0  0  0  0  0  3  0  0  0  0  0  0
  191.6010  177.0540  142.7760 N   0  0  0  0  0  0  0  0  0  0  0  0
  187.6440  178.3000  139.7960 C   0  0  0  0  0  0  0  0  0  0  0  0
  187.7900  178.2670  141.2920 C   0  0  0  0  0  3  0  0  0  0  0  0
  190.0160  177.7280  139.5620 C   0  0  0  0  0  0  0  0  0  0  0  0
  191.0410  177.5430  138.6410 O   0  0  0  0  0  1  0  0  0  0  0  0
  188.6960  178.0740  139.0170 C   0  0  0  0  0  3  0  0  0  0  0  0
  191.4640  177.2080  141.4390 C   0  0  0  0  0  0  0  0  0  0  0  0
  190.2160  177.5840  140.8970 C   0  0  2  0  0  3  0  0  0  0  0  0
  192.6070  176.9720  140.6200 N   0  0  0  0  0  1  0  0  0  0  0  0
  190.1880  177.1230  146.1980 C   0  0  0  0  0  3  0  0  0  0  0  0
  188.9180  177.4480  146.4120 C   0  0  0  0  0  0  0  0  0  0  0  0
  187.9610  177.8060  145.3610 C   0  0  0  0  0  3  0  0  0  0  0  0
  190.5990  177.2420  143.6700 C   0  0  0  0  0  0  0  0  0  0  0  0
  188.1360  177.8780  144.0470 C   0  0  0  0  0  3  0  0  0  0  0  0
  189.3220  177.6290  143.1980 C   0  0  0  0  0  0  0  0  0  0  0  0
  188.4330  177.4510  147.8050 C   0  0  0  0  0  0  0  0  0  0  0  0
  188.1920  178.6500  148.4690 O   0  0  0  0  0  1  0  0  0  0  0  0
  188.2310  176.3650  148.4120 O   0  0  0  0  0  0  0  0  0  0  0  0
  186.4290  178.6280  139.1810 O   0  0  0  0  0  0  0  0  0  0  0  0
  182.7250  177.9740  139.7030 C   0  0  0  0  0  2  0  0  0  0  0  0
  185.1210  178.6820  141.1320 C   0  0  0  0  0  3  0  0  0  0  0  0
  181.3710  178.6380  143.1970 C   0  0  0  0  0  0  0  0  0  0  0  0
  181.4310  178.3470  141.8230 C   0  0  0  0  0  3  0  0  0  0  0  0
  182.6540  178.3720  141.1470 C   0  0  0  0  0  0  0  0  0  0  0  0
  183.7850  178.9480  143.2140 C   0  0  0  0  0  3  0  0  0  0  0  0
  183.8350  178.6680  141.8460 C   0  0  0  0  0  0  0  0  0  0  0  0
  182.5580  178.9360  143.8840 C   0  0  0  0  0  3  0  0  0  0  0  0
  185.1700  178.6280  139.7960 C   0  0  0  0  0  0  0  0  0  0  0  0
  183.8850  178.6810  138.9950 C   0  0  0  0  0  2  0  0  0  0  0  0
  180.0880  178.6280  143.9290 C   0  0  0  0  0  0  0  0  0  0  0  0
  179.6800  177.4800  144.5970 O   0  0  0  0  0  1  0  0  0  0  0  0
  179.3040  179.6990  143.9680 C   0  0  0  0  0  2  0  0  0  0  0  0
  1 17  2  0  0  0  0
  2 12  1  0  0  0  0
  3 15  1  0  0  0  0
  4  5  2  0  0  0  0
  5  1  1  0  0  0  0
  7  6  1  0  0  0  0
  8  6  2  0  0  0  0
  8  4  1  0  0  0  0
  9  3  2  0  0  0  0
 10  6  1  6  0  0  0
 10  9  1  0  0  0  0
 10  1  1  0  0  0  0
 11  9  1  0  0  0  0
 12 13  2  0  0  0  0
 13 18  1  0  0  0  0
 14 13  1  0  0  0  0
 15  2  2  0  0  0  0
 16 14  2  0  0  0  0
 17 15  1  0  0  0  0
 17 16  1  0  0  0  0
 18 20  2  0  0  0  0
 18 19  1  0  0  0  0
 21  4  1  0  0  0  0
 21 30  1  0  0  0  0
 22 26  1  0  0  0  0
 23 28  1  0  0  0  0
 24 29  1  0  0  0  0
 24 32  1  0  0  0  0
 25 24  2  0  0  0  0
 26 25  1  0  0  0  0
 26 28  2  0  0  0  0
 27 29  2  0  0  0  0
 28 27  1  0  0  0  0
 30 23  2  0  0  0  0
 31 22  1  0  0  0  0
 31 30  1  0  0  0  0
 32 34  2  0  0  0  0
 32 33  1  0  0  0  0
M  END
>  <MODEL>
8

>  <REMARK>
 VINA RESULT:     -10.4      3.050      7.539
  Name = 
  4 active torsions:
  status: ('A' for Active; 'I' for Inactive)
    1  A    between atoms: C_3  and  C_25
    2  A    between atoms: C_7  and  C_11
    3  A    between atoms: C_8  and  O_18
    4  A    between atoms: O_18  and  C_30
                            x       y       z     vdW  Elec       q    Type
                         _______ _______ _______ _____ _____    ______ ____

>  <TORSDO>
F 4

$$$$
=
 OpenBabel10262423223D

 34 38  0  0  1  0  0  0  0  0999 V2000
  186.3710  177.8920  138.6260 C   0  0  0  0  0  0  0  0  0  0  0  0
  189.2870  176.8080  136.6200 C   0  0  0  0  0  3  0  0  0  0  0  0
  187.0860  177.0150  136.1210 N   0  0  0  0  0  0  0  0  0  0  0  0
  184.5410  178.5990  140.2570 C   0  0  0  0  0  0  0  0  0  0  0  0
  186.0120  178.4260  140.0010 C   0  0  0  0  0  3  0  0  0  0  0  0
  184.0750  178.0090  137.9240 C   0  0  0  0  0  0  0  0  0  0  0  0
  183.0660  177.8910  136.9750 O   0  0  0  0  0  1  0  0  0  0  0  0
  183.6670  178.4270  139.2720 C   0  0  0  0  0  3  0  0  0  0  0  0
  185.7820  177.2930  136.3530 C   0  0  0  0  0  0  0  0  0  0  0  0
  185.3730  177.7390  137.6290 C   0  0  2  0  0  3  0  0  0  0  0  0
  184.8600  177.1130  135.2800 N   0  0  0  0  0  1  0  0  0  0  0  0
  190.5980  176.7940  137.2730 C   0  0  0  0  0  3  0  0  0  0  0  0
  190.9360  177.1210  138.5160 C   0  0  0  0  0  0  0  0  0  0  0  0
  189.9980  177.5910  139.5390 C   0  0  0  0  0  3  0  0  0  0  0  0
  188.0670  177.1380  137.0480 C   0  0  0  0  0  0  0  0  0  0  0  0
  188.6860  177.7800  139.4610 C   0  0  0  0  0  3  0  0  0  0  0  0
  187.7310  177.5890  138.3470 C   0  0  0  0  0  0  0  0  0  0  0  0
  192.3570  177.0050  138.8950 C   0  0  0  0  0  0  0  0  0  0  0  0
  193.2890  176.4930  137.9990 O   0  0  0  0  0  0  0  0  0  0  0  0
  192.7440  177.3690  140.0380 O   0  0  0  0  0  1  0  0  0  0  0  0
  184.0520  179.0030  141.5060 O   0  0  0  0  0  0  0  0  0  0  0  0
  184.6320  178.9650  145.2590 C   0  0  0  0  0  2  0  0  0  0  0  0
  185.8170  178.1150  142.7770 C   0  0  0  0  0  3  0  0  0  0  0  0
  187.9830  177.5950  146.4330 C   0  0  0  0  0  0  0  0  0  0  0  0
  186.7180  178.2100  146.4360 C   0  0  0  0  0  3  0  0  0  0  0  0
  186.0170  178.3890  145.2410 C   0  0  0  0  0  0  0  0  0  0  0  0
  187.8160  177.3110  144.0220 C   0  0  0  0  0  3  0  0  0  0  0  0
  186.5650  177.9340  144.0300 C   0  0  0  0  0  0  0  0  0  0  0  0
  188.5210  177.1460  145.2180 C   0  0  0  0  0  3  0  0  0  0  0  0
  184.7270  178.8880  142.7290 C   0  0  0  0  0  0  0  0  0  0  0  0
  184.3230  179.6940  143.9470 C   0  0  0  0  0  2  0  0  0  0  0  0
  188.7470  177.4050  147.6830 C   0  0  0  0  0  0  0  0  0  0  0  0
  189.9550  176.7190  147.6600 O   0  0  0  0  0  1  0  0  0  0  0  0
  188.3050  177.8780  148.8440 C   0  0  0  0  0  2  0  0  0  0  0  0
  1  5  1  0  0  0  0
  2 15  2  0  0  0  0
  2 12  1  0  0  0  0
  3  9  2  0  0  0  0
  3 15  1  0  0  0  0
  4 21  1  0  0  0  0
  5  4  2  0  0  0  0
  6  8  2  0  0  0  0
  7  6  1  0  0  0  0
  8  4  1  0  0  0  0
 10  9  1  1  0  0  0
 10  6  1  0  0  0  0
 10  1  1  0  0  0  0
 11  9  1  0  0  0  0
 12 13  2  0  0  0  0
 13 18  1  0  0  0  0
 13 14  1  0  0  0  0
 15 17  1  0  0  0  0
 16 14  2  0  0  0  0
 17  1  2  0  0  0  0
 17 16  1  0  0  0  0
 18 20  1  0  0  0  0
 19 18  2  0  0  0  0
 21 30  1  0  0  0  0
 23 28  1  0  0  0  0
 24 25  1  0  0  0  0
 24 32  1  0  0  0  0
 26 22  1  0  0  0  0
 26 25  2  0  0  0  0
 27 28  2  0  0  0  0
 27 29  1  0  0  0  0
 28 26  1  0  0  0  0
 29 24  2  0  0  0  0
 30 23  2  0  0  0  0
 30 31  1  0  0  0  0
 31 22  1  0  0  0  0
 32 34  2  0  0  0  0
 33 32  1  0  0  0  0
M  END
>  <MODEL>
9

>  <REMARK>
 VINA RESULT:     -10.3      3.090      7.891
  Name = 
  4 active torsions:
  status: ('A' for Active; 'I' for Inactive)
    1  A    between atoms: C_3  and  C_25
    2  A    between atoms: C_7  and  C_11
    3  A    between atoms: C_8  and  O_18
    4  A    between atoms: O_18  and  C_30
                            x       y       z     vdW  Elec       q    Type
                         _______ _______ _______ _____ _____    ______ ____

>  <TORSDO>
F 4

$$$$
