=
 OpenBabel10262420093D

 27 31  0  0  0  0  0  0  0  0999 V2000
  187.1390  178.2140  141.7000 C   0  0  0  0  0  0  0  0  0  0  0  0
  187.4340  177.8000  144.1370 C   0  0  0  0  0  0  0  0  0  0  0  0
  189.3000  177.5640  142.5970 O   0  0  0  0  0  0  0  0  0  0  0  0
  189.9090  176.7890  147.3590 C   0  0  0  0  0  3  0  0  0  0  0  0
  192.0470  176.1570  148.1980 F   0  0  0  0  0  0  0  0  0  0  0  0
  186.9560  177.7580  145.4560 C   0  0  0  0  0  3  0  0  0  0  0  0
  190.9790  176.8590  144.7700 C   0  0  0  0  0  3  0  0  0  0  0  0
  191.7910  176.5210  145.8570 C   0  0  0  0  0  3  0  0  0  0  0  0
  189.6270  177.1630  144.9720 C   0  0  0  0  0  0  0  0  0  0  0  0
  186.5750  178.1630  143.0320 N   0  0  0  0  0  0  0  0  0  0  0  0
  191.2570  176.4850  147.1490 C   0  0  0  0  0  0  0  0  0  0  0  0
  189.0900  177.1280  146.2770 C   0  0  0  0  0  0  0  0  0  0  0  0
  186.3610  178.5390  140.5790 C   0  0  0  0  0  3  0  0  0  0  0  0
  188.7910  177.5060  143.9000 C   0  0  0  0  0  0  0  0  0  0  0  0
  189.0480  177.9470  140.2270 C   0  0  0  0  0  3  0  0  0  0  0  0
  187.7810  177.4250  146.4830 N   0  0  0  0  0  0  0  0  0  0  0  0
  188.2340  178.2770  139.1410 C   0  0  0  0  0  0  0  0  0  0  0  0
  186.9190  178.5670  139.3390 N   0  0  0  0  0  0  0  0  0  0  0  0
  188.4970  177.9100  141.5080 C   0  0  0  0  0  0  0  0  0  0  0  0
  182.4760  179.0570  143.6750 C   0  0  0  0  0  3  0  0  0  0  0  0
  185.1850  178.4680  143.2500 C   0  0  0  0  0  0  0  0  0  0  0  0
  184.2360  178.1960  142.2530 C   0  0  0  0  0  3  0  0  0  0  0  0
  182.8860  178.4900  142.4650 C   0  0  0  0  0  3  0  0  0  0  0  0
  183.4150  179.3300  144.6740 C   0  0  0  0  0  3  0  0  0  0  0  0
  184.7660  179.0350  144.4630 C   0  0  0  0  0  3  0  0  0  0  0  0
  188.8120  178.3440  137.7730 C   0  0  0  0  0  2  0  0  0  0  0  0
  189.0190  179.6760  137.4160 O   0  0  0  0  0  1  0  0  0  0  0  0
  1 10  1  0  0  0  0
  2  6  1  0  0  0  0
  3 14  1  0  0  0  0
  6 16  2  0  0  0  0
  7  9  2  0  0  0  0
  7  8  1  0  0  0  0
  8 11  2  0  0  0  0
  9 12  1  0  0  0  0
 10 21  1  0  0  0  0
 10  2  1  0  0  0  0
 11  4  1  0  0  0  0
 11  5  1  0  0  0  0
 12 16  1  0  0  0  0
 12  4  2  0  0  0  0
 13  1  2  0  0  0  0
 14  2  2  0  0  0  0
 14  9  1  0  0  0  0
 15 19  2  0  0  0  0
 17 18  2  0  0  0  0
 17 15  1  0  0  0  0
 18 13  1  0  0  0  0
 19  1  1  0  0  0  0
 19  3  1  0  0  0  0
 20 24  1  0  0  0  0
 21 25  1  0  0  0  0
 22 23  1  0  0  0  0
 22 21  2  0  0  0  0
 23 20  2  0  0  0  0
 25 24  2  0  0  0  0
 26 17  1  0  0  0  0
 27 26  1  0  0  0  0
M  END
>  <MODEL>
1

>  <REMARK>
 VINA RESULT:     -11.1      0.000      0.000
  Name = 
  2 active torsions:
  status: ('A' for Active; 'I' for Inactive)
    1  A    between atoms: C_9  and  N_15
    2  A    between atoms: C_10  and  CA_22
                            x       y       z     vdW  Elec       q    Type
                         _______ _______ _______ _____ _____    ______ ____

>  <TORSDO>
F 2

$$$$
=
 OpenBabel10262420093D

 27 31  0  0  0  0  0  0  0  0999 V2000
  189.2170  177.1660  145.1920 C   0  0  0  0  0  0  0  0  0  0  0  0
  188.2910  177.7250  142.9500 C   0  0  0  0  0  0  0  0  0  0  0  0
  190.5650  176.8970  143.1900 O   0  0  0  0  0  0  0  0  0  0  0  0
  188.7630  177.9450  138.7960 C   0  0  0  0  0  3  0  0  0  0  0  0
  190.1160  177.6620  136.8560 F   0  0  0  0  0  0  0  0  0  0  0  0
  187.2530  178.1500  142.1060 C   0  0  0  0  0  3  0  0  0  0  0  0
  190.9000  177.0610  140.3790 C   0  0  0  0  0  3  0  0  0  0  0  0
  191.0420  177.1430  138.9910 C   0  0  0  0  0  3  0  0  0  0  0  0
  189.6880  177.4220  140.9840 C   0  0  0  0  0  0  0  0  0  0  0  0
  188.1150  177.6390  144.3830 N   0  0  0  0  0  0  0  0  0  0  0  0
  189.9750  177.5850  138.2000 C   0  0  0  0  0  0  0  0  0  0  0  0
  188.6130  177.8660  140.1840 C   0  0  0  0  0  0  0  0  0  0  0  0
  189.1250  177.0760  146.5890 C   0  0  0  0  0  3  0  0  0  0  0  0
  189.5200  177.3480  142.3730 C   0  0  0  0  0  0  0  0  0  0  0  0
  191.4990  176.3570  145.3490 C   0  0  0  0  0  3  0  0  0  0  0  0
  187.4340  178.2130  140.7610 N   0  0  0  0  0  0  0  0  0  0  0  0
  191.3580  176.2830  146.7360 C   0  0  0  0  0  0  0  0  0  0  0  0
  190.1830  176.6380  147.3220 N   0  0  0  0  0  0  0  0  0  0  0  0
  190.4270  176.8050  144.5770 C   0  0  0  0  0  0  0  0  0  0  0  0
  184.4400  178.7610  146.1870 C   0  0  0  0  0  3  0  0  0  0  0  0
  186.8680  178.0190  144.9950 C   0  0  0  0  0  0  0  0  0  0  0  0
  186.7950  178.2310  146.3790 C   0  0  0  0  0  3  0  0  0  0  0  0
  185.5850  178.6010  146.9730 C   0  0  0  0  0  3  0  0  0  0  0  0
  184.5060  178.5510  144.8060 C   0  0  0  0  0  3  0  0  0  0  0  0
  185.7160  178.1820  144.2110 C   0  0  0  0  0  3  0  0  0  0  0  0
  192.4840  175.7840  147.5710 C   0  0  0  0  0  2  0  0  0  0  0  0
  192.7720  176.7100  148.5720 O   0  0  0  0  0  1  0  0  0  0  0  0
  1 13  1  0  0  0  0
  2 10  1  0  0  0  0
  3 19  1  0  0  0  0
  4 12  1  0  0  0  0
  5 11  1  0  0  0  0
  6  2  2  0  0  0  0
  7  9  1  0  0  0  0
  8  7  2  0  0  0  0
  9 14  2  0  0  0  0
 10 21  1  0  0  0  0
 10  1  1  0  0  0  0
 11  4  2  0  0  0  0
 11  8  1  0  0  0  0
 12 16  2  0  0  0  0
 12  9  1  0  0  0  0
 13 18  2  0  0  0  0
 14  2  1  0  0  0  0
 14  3  1  0  0  0  0
 15 17  2  0  0  0  0
 16  6  1  0  0  0  0
 17 18  1  0  0  0  0
 17 26  1  0  0  0  0
 19  1  2  0  0  0  0
 19 15  1  0  0  0  0
 20 23  1  0  0  0  0
 21 22  1  0  0  0  0
 22 23  2  0  0  0  0
 24 20  2  0  0  0  0
 25 24  1  0  0  0  0
 25 21  2  0  0  0  0
 26 27  1  0  0  0  0
M  END
>  <MODEL>
2

>  <REMARK>
 VINA RESULT:     -10.3      2.932      6.290
  Name = 
  2 active torsions:
  status: ('A' for Active; 'I' for Inactive)
    1  A    between atoms: C_9  and  N_15
    2  A    between atoms: C_10  and  CA_22
                            x       y       z     vdW  Elec       q    Type
                         _______ _______ _______ _____ _____    ______ ____

>  <TORSDO>
F 2

$$$$
=
 OpenBabel10262420093D

 27 31  0  0  0  0  0  0  0  0999 V2000
  190.0950  177.0600  144.3160 C   0  0  0  0  0  0  0  0  0  0  0  0
  188.0670  177.7380  143.0410 C   0  0  0  0  0  0  0  0  0  0  0  0
  188.0140  177.5560  145.4640 O   0  0  0  0  0  0  0  0  0  0  0  0
  184.0520  178.9210  142.9960 C   0  0  0  0  0  3  0  0  0  0  0  0
  182.0310  179.4040  144.1620 F   0  0  0  0  0  0  0  0  0  0  0  0
  187.3990  178.0520  141.8470 C   0  0  0  0  0  3  0  0  0  0  0  0
  185.2880  178.3370  145.4430 C   0  0  0  0  0  3  0  0  0  0  0  0
  183.9470  178.7310  145.4100 C   0  0  0  0  0  3  0  0  0  0  0  0
  186.0180  178.2320  144.2520 C   0  0  0  0  0  0  0  0  0  0  0  0
  189.4580  177.3430  143.0480 N   0  0  0  0  0  0  0  0  0  0  0  0
  183.3300  179.0220  144.1890 C   0  0  0  0  0  0  0  0  0  0  0  0
  185.3930  178.5280  143.0210 C   0  0  0  0  0  0  0  0  0  0  0  0
  191.4350  176.6520  144.3970 C   0  0  0  0  0  3  0  0  0  0  0  0
  187.3640  177.8400  144.2570 C   0  0  0  0  0  0  0  0  0  0  0  0
  189.9560  176.8890  146.7320 C   0  0  0  0  0  3  0  0  0  0  0  0
  186.0940  178.4330  141.8620 N   0  0  0  0  0  0  0  0  0  0  0  0
  191.2940  176.4880  146.7620 C   0  0  0  0  0  0  0  0  0  0  0  0
  192.0000  176.3820  145.6040 N   0  0  0  0  0  0  0  0  0  0  0  0
  189.3550  177.1700  145.5050 C   0  0  0  0  0  0  0  0  0  0  0  0
  191.6390  177.0130  139.4210 C   0  0  0  0  0  3  0  0  0  0  0  0
  190.1980  177.2320  141.8170 C   0  0  0  0  0  0  0  0  0  0  0  0
  191.5200  177.6920  141.7420 C   0  0  0  0  0  3  0  0  0  0  0  0
  192.2380  177.5830  140.5480 C   0  0  0  0  0  3  0  0  0  0  0  0
  190.3210  176.5520  139.4880 C   0  0  0  0  0  3  0  0  0  0  0  0
  189.6020  176.6600  140.6830 C   0  0  0  0  0  3  0  0  0  0  0  0
  191.9560  176.2100  148.0650 C   0  0  0  0  0  2  0  0  0  0  0  0
  193.2280  175.6860  147.8420 O   0  0  0  0  0  1  0  0  0  0  0  0
  1 13  2  0  0  0  0
  1 19  1  0  0  0  0
  2 10  1  0  0  0  0
  2 14  1  0  0  0  0
  3 19  1  0  0  0  0
  4 12  1  0  0  0  0
  4 11  2  0  0  0  0
  5 11  1  0  0  0  0
  6 16  1  0  0  0  0
  6  2  2  0  0  0  0
  8  7  2  0  0  0  0
  9 14  2  0  0  0  0
  9  7  1  0  0  0  0
 10  1  1  0  0  0  0
 11  8  1  0  0  0  0
 12  9  1  0  0  0  0
 13 18  1  0  0  0  0
 14  3  1  0  0  0  0
 15 17  1  0  0  0  0
 16 12  2  0  0  0  0
 17 26  1  0  0  0  0
 18 17  2  0  0  0  0
 19 15  2  0  0  0  0
 20 24  2  0  0  0  0
 20 23  1  0  0  0  0
 21 10  1  0  0  0  0
 22 21  1  0  0  0  0
 23 22  2  0  0  0  0
 24 25  1  0  0  0  0
 25 21  2  0  0  0  0
 27 26  1  0  0  0  0
M  END
>  <MODEL>
3

>  <REMARK>
 VINA RESULT:     -10.2      3.130      7.197
  Name = 
  2 active torsions:
  status: ('A' for Active; 'I' for Inactive)
    1  A    between atoms: C_9  and  N_15
    2  A    between atoms: C_10  and  CA_22
                            x       y       z     vdW  Elec       q    Type
                         _______ _______ _______ _____ _____    ______ ____

>  <TORSDO>
F 2

$$$$
=
 OpenBabel10262420093D

 27 31  0  0  0  0  0  0  0  0999 V2000
  188.1680  177.8990  140.5050 C   0  0  0  0  0  0  0  0  0  0  0  0
  189.4750  177.3980  142.5640 C   0  0  0  0  0  0  0  0  0  0  0  0
  187.1580  178.1210  142.7020 O   0  0  0  0  0  0  0  0  0  0  0  0
  189.6800  177.1110  146.7360 C   0  0  0  0  0  3  0  0  0  0  0  0
  188.6500  177.3370  148.8710 F   0  0  0  0  0  0  0  0  0  0  0  0
  190.6410  176.9760  143.2230 C   0  0  0  0  0  3  0  0  0  0  0  0
  187.2930  177.9480  145.5290 C   0  0  0  0  0  3  0  0  0  0  0  0
  187.3800  177.8490  146.9210 C   0  0  0  0  0  3  0  0  0  0  0  0
  188.4010  177.6290  144.7320 C   0  0  0  0  0  0  0  0  0  0  0  0
  189.4090  177.4820  141.1220 N   0  0  0  0  0  0  0  0  0  0  0  0
  188.5710  177.4310  147.5230 C   0  0  0  0  0  0  0  0  0  0  0  0
  189.6020  177.2080  145.3430 C   0  0  0  0  0  0  0  0  0  0  0  0
  188.0380  178.0220  139.1140 C   0  0  0  0  0  3  0  0  0  0  0  0
  188.3410  177.7190  143.3350 C   0  0  0  0  0  0  0  0  0  0  0  0
  185.8650  178.6250  140.7280 C   0  0  0  0  0  3  0  0  0  0  0  0
  190.6800  176.8930  144.5790 N   0  0  0  0  0  0  0  0  0  0  0  0
  185.7820  178.7310  139.3380 C   0  0  0  0  0  0  0  0  0  0  0  0
  186.8610  178.4270  138.5660 N   0  0  0  0  0  0  0  0  0  0  0  0
  187.0620  178.2140  141.3120 C   0  0  0  0  0  0  0  0  0  0  0  0
  192.7890  176.5310  138.7360 C   0  0  0  0  0  3  0  0  0  0  0  0
  190.5560  177.1590  140.3130 C   0  0  0  0  0  0  0  0  0  0  0  0
  190.4190  176.3320  139.1880 C   0  0  0  0  0  3  0  0  0  0  0  0
  191.5310  176.0200  138.4030 C   0  0  0  0  0  3  0  0  0  0  0  0
  192.9330  177.3570  139.8550 C   0  0  0  0  0  3  0  0  0  0  0  0
  191.8200  177.6710  140.6410 C   0  0  0  0  0  3  0  0  0  0  0  0
  184.5050  179.1460  138.6990 C   0  0  0  0  0  2  0  0  0  0  0  0
  184.2030  180.4570  139.0610 O   0  0  0  0  0  1  0  0  0  0  0  0
  1 10  1  0  0  0  0
  1 19  1  0  0  0  0
  2  6  2  0  0  0  0
  2 14  1  0  0  0  0
  3 14  1  0  0  0  0
  4 11  2  0  0  0  0
  6 16  1  0  0  0  0
  7  8  2  0  0  0  0
  8 11  1  0  0  0  0
  9 12  1  0  0  0  0
  9  7  1  0  0  0  0
 10  2  1  0  0  0  0
 11  5  1  0  0  0  0
 12  4  1  0  0  0  0
 13  1  2  0  0  0  0
 14  9  2  0  0  0  0
 15 19  2  0  0  0  0
 16 12  2  0  0  0  0
 17 15  1  0  0  0  0
 18 13  1  0  0  0  0
 18 17  2  0  0  0  0
 19  3  1  0  0  0  0
 20 24  1  0  0  0  0
 21 25  1  0  0  0  0
 21 10  1  0  0  0  0
 22 21  2  0  0  0  0
 23 20  2  0  0  0  0
 23 22  1  0  0  0  0
 24 25  2  0  0  0  0
 26 27  1  0  0  0  0
 26 17  1  0  0  0  0
M  END
>  <MODEL>
4

>  <REMARK>
 VINA RESULT:     -10.2      2.432      5.098
  Name = 
  2 active torsions:
  status: ('A' for Active; 'I' for Inactive)
    1  A    between atoms: C_9  and  N_15
    2  A    between atoms: C_10  and  CA_22
                            x       y       z     vdW  Elec       q    Type
                         _______ _______ _______ _____ _____    ______ ____

>  <TORSDO>
F 2

$$$$
=
 OpenBabel10262420093D

 27 31  0  0  0  0  0  0  0  0999 V2000
  188.4790  177.9410  140.7030 C   0  0  0  0  0  0  0  0  0  0  0  0
  187.0200  178.0680  142.7160 C   0  0  0  0  0  0  0  0  0  0  0  0
  186.1070  178.4140  140.4900 O   0  0  0  0  0  0  0  0  0  0  0  0
  183.2310  178.6280  144.4050 C   0  0  0  0  0  3  0  0  0  0  0  0
  180.9070  179.0900  144.1520 F   0  0  0  0  0  0  0  0  0  0  0  0
  186.8030  177.9770  144.1000 C   0  0  0  0  0  3  0  0  0  0  0  0
  183.5400  178.8140  141.6260 C   0  0  0  0  0  3  0  0  0  0  0  0
  182.2820  179.0010  142.2070 C   0  0  0  0  0  3  0  0  0  0  0  0
  184.6510  178.5340  142.4330 C   0  0  0  0  0  0  0  0  0  0  0  0
  188.3300  177.8600  142.1400 N   0  0  0  0  0  0  0  0  0  0  0  0
  182.1280  178.9090  143.5940 C   0  0  0  0  0  0  0  0  0  0  0  0
  184.4920  178.4400  143.8320 C   0  0  0  0  0  0  0  0  0  0  0  0
  189.7230  177.7700  140.0770 C   0  0  0  0  0  3  0  0  0  0  0  0
  185.9230  178.3420  141.8760 C   0  0  0  0  0  0  0  0  0  0  0  0
  187.4940  178.3100  138.5170 C   0  0  0  0  0  3  0  0  0  0  0  0
  185.5620  178.1650  144.6220 N   0  0  0  0  0  0  0  0  0  0  0  0
  188.7530  178.1310  137.9390 C   0  0  0  0  0  0  0  0  0  0  0  0
  189.8310  177.8640  138.7240 N   0  0  0  0  0  0  0  0  0  0  0  0
  187.3590  178.2200  139.9020 C   0  0  0  0  0  0  0  0  0  0  0  0
  191.6810  177.0310  144.6110 C   0  0  0  0  0  3  0  0  0  0  0  0
  189.4670  177.5790  142.9790 C   0  0  0  0  0  0  0  0  0  0  0  0
  189.8710  176.2550  143.2020 C   0  0  0  0  0  3  0  0  0  0  0  0
  190.9750  175.9820  144.0150 C   0  0  0  0  0  3  0  0  0  0  0  0
  191.2830  178.3540  144.3930 C   0  0  0  0  0  3  0  0  0  0  0  0
  190.1800  178.6280  143.5790 C   0  0  0  0  0  3  0  0  0  0  0  0
  188.9080  178.1990  136.4620 C   0  0  0  0  0  2  0  0  0  0  0  0
  187.6520  178.2530  135.8600 O   0  0  0  0  0  1  0  0  0  0  0  0
  1 10  1  0  0  0  0
  2  6  1  0  0  0  0
  3 14  1  0  0  0  0
  6 16  2  0  0  0  0
  7  8  2  0  0  0  0
  7  9  1  0  0  0  0
  8 11  1  0  0  0  0
  9 12  2  0  0  0  0
 10  2  1  0  0  0  0
 10 21  1  0  0  0  0
 11  5  1  0  0  0  0
 11  4  2  0  0  0  0
 12  4  1  0  0  0  0
 12 16  1  0  0  0  0
 13  1  1  0  0  0  0
 14  9  1  0  0  0  0
 14  2  2  0  0  0  0
 15 19  1  0  0  0  0
 17 15  2  0  0  0  0
 17 18  1  0  0  0  0
 18 13  2  0  0  0  0
 19  3  1  0  0  0  0
 19  1  2  0  0  0  0
 21 22  2  0  0  0  0
 21 25  1  0  0  0  0
 22 23  1  0  0  0  0
 23 20  2  0  0  0  0
 24 20  1  0  0  0  0
 25 24  2  0  0  0  0
 26 17  1  0  0  0  0
 27 26  1  0  0  0  0
M  END
>  <MODEL>
5

>  <REMARK>
 VINA RESULT:     -10.1      2.969      5.932
  Name = 
  2 active torsions:
  status: ('A' for Active; 'I' for Inactive)
    1  A    between atoms: C_9  and  N_15
    2  A    between atoms: C_10  and  CA_22
                            x       y       z     vdW  Elec       q    Type
                         _______ _______ _______ _____ _____    ______ ____

>  <TORSDO>
F 2

$$$$
=
 OpenBabel10262420093D

 27 31  0  0  0  0  0  0  0  0999 V2000
  186.8300  178.1130  141.7410 C   0  0  0  0  0  0  0  0  0  0  0  0
  189.1050  177.5360  142.5720 C   0  0  0  0  0  0  0  0  0  0  0  0
  187.2550  177.8470  144.1170 O   0  0  0  0  0  0  0  0  0  0  0  0
  191.6810  176.6800  145.7590 C   0  0  0  0  0  3  0  0  0  0  0  0
  192.0540  176.4240  148.0980 F   0  0  0  0  0  0  0  0  0  0  0  0
  190.4570  177.2150  142.3690 C   0  0  0  0  0  3  0  0  0  0  0  0
  188.9960  177.2890  146.2840 C   0  0  0  0  0  3  0  0  0  0  0  0
  189.8710  177.0040  147.3370 C   0  0  0  0  0  3  0  0  0  0  0  0
  189.4600  177.2720  144.9620 C   0  0  0  0  0  0  0  0  0  0  0  0
  188.2190  177.8170  141.4640 N   0  0  0  0  0  0  0  0  0  0  0  0
  191.2110  176.7000  147.0750 C   0  0  0  0  0  0  0  0  0  0  0  0
  190.8130  176.9650  144.7000 C   0  0  0  0  0  0  0  0  0  0  0  0
  185.9190  178.4150  140.7180 C   0  0  0  0  0  3  0  0  0  0  0  0
  188.6050  177.5540  143.8880 C   0  0  0  0  0  0  0  0  0  0  0  0
  185.0390  178.4190  143.3480 C   0  0  0  0  0  3  0  0  0  0  0  0
  191.2710  176.9430  143.4220 N   0  0  0  0  0  0  0  0  0  0  0  0
  184.1690  178.7120  142.2960 C   0  0  0  0  0  0  0  0  0  0  0  0
  184.6230  178.7000  141.0140 N   0  0  0  0  0  0  0  0  0  0  0  0
  186.3740  178.1250  143.0690 C   0  0  0  0  0  0  0  0  0  0  0  0
  189.6590  177.7770  137.4710 C   0  0  0  0  0  3  0  0  0  0  0  0
  188.7090  177.8040  140.1090 C   0  0  0  0  0  0  0  0  0  0  0  0
  189.0550  176.5920  139.4930 C   0  0  0  0  0  3  0  0  0  0  0  0
  189.5280  176.5790  138.1790 C   0  0  0  0  0  3  0  0  0  0  0  0
  189.3150  178.9890  138.0780 C   0  0  0  0  0  3  0  0  0  0  0  0
  188.8410  179.0030  139.3930 C   0  0  0  0  0  3  0  0  0  0  0  0
  182.7380  179.0030  142.5760 C   0  0  0  0  0  2  0  0  0  0  0  0
  182.5120  178.9710  143.9510 O   0  0  0  0  0  1  0  0  0  0  0  0
  1 19  1  0  0  0  0
  2 14  1  0  0  0  0
  4 11  2  0  0  0  0
  6  2  2  0  0  0  0
  6 16  1  0  0  0  0
  7  8  2  0  0  0  0
  9  7  1  0  0  0  0
 10  1  1  0  0  0  0
 10  2  1  0  0  0  0
 11  8  1  0  0  0  0
 11  5  1  0  0  0  0
 12  9  1  0  0  0  0
 12  4  1  0  0  0  0
 13 18  1  0  0  0  0
 13  1  2  0  0  0  0
 14  3  1  0  0  0  0
 14  9  2  0  0  0  0
 16 12  2  0  0  0  0
 17 26  1  0  0  0  0
 17 15  1  0  0  0  0
 18 17  2  0  0  0  0
 19 15  2  0  0  0  0
 19  3  1  0  0  0  0
 20 24  2  0  0  0  0
 20 23  1  0  0  0  0
 21 10  1  0  0  0  0
 22 21  1  0  0  0  0
 23 22  2  0  0  0  0
 24 25  1  0  0  0  0
 25 21  2  0  0  0  0
 26 27  1  0  0  0  0
M  END
>  <MODEL>
6

>  <REMARK>
 VINA RESULT:     -10.0      2.029      4.845
  Name = 
  2 active torsions:
  status: ('A' for Active; 'I' for Inactive)
    1  A    between atoms: C_9  and  N_15
    2  A    between atoms: C_10  and  CA_22
                            x       y       z     vdW  Elec       q    Type
                         _______ _______ _______ _____ _____    ______ ____

>  <TORSDO>
F 2

$$$$
=
 OpenBabel10262420093D

 27 31  0  0  0  0  0  0  0  0999 V2000
  189.3370  177.2740  142.8150 C   0  0  0  0  0  0  0  0  0  0  0  0
  187.4070  177.7840  144.3030 C   0  0  0  0  0  0  0  0  0  0  0  0
  187.1650  177.8310  141.8850 O   0  0  0  0  0  0  0  0  0  0  0  0
  183.3710  178.7920  144.7730 C   0  0  0  0  0  3  0  0  0  0  0  0
  181.2550  179.3290  143.8190 F   0  0  0  0  0  0  0  0  0  0  0  0
  186.8180  177.9180  145.5700 C   0  0  0  0  0  3  0  0  0  0  0  0
  184.4350  178.5330  142.1930 C   0  0  0  0  0  3  0  0  0  0  0  0
  183.0890  178.8720  142.3670 C   0  0  0  0  0  3  0  0  0  0  0  0
  185.2560  178.3230  143.3080 C   0  0  0  0  0  0  0  0  0  0  0  0
  188.8000  177.4230  144.1500 N   0  0  0  0  0  0  0  0  0  0  0  0
  182.5590  179.0010  143.6550 C   0  0  0  0  0  0  0  0  0  0  0  0
  184.7180  178.4530  144.6070 C   0  0  0  0  0  0  0  0  0  0  0  0
  190.6830  176.9450  142.5910 C   0  0  0  0  0  3  0  0  0  0  0  0
  186.6080  177.9820  143.1610 C   0  0  0  0  0  0  0  0  0  0  0  0
  189.0160  177.3540  140.4120 C   0  0  0  0  0  3  0  0  0  0  0  0
  185.5050  178.2470  145.6930 N   0  0  0  0  0  0  0  0  0  0  0  0
  190.3620  177.0240  140.2390 C   0  0  0  0  0  0  0  0  0  0  0  0
  191.1600  176.8250  141.3230 N   0  0  0  0  0  0  0  0  0  0  0  0
  188.5050  177.4850  141.7030 C   0  0  0  0  0  0  0  0  0  0  0  0
  191.2650  176.8110  147.5510 C   0  0  0  0  0  3  0  0  0  0  0  0
  189.6370  177.2160  145.3040 C   0  0  0  0  0  0  0  0  0  0  0  0
  189.1730  177.5510  146.5840 C   0  0  0  0  0  3  0  0  0  0  0  0
  189.9840  177.3490  147.7040 C   0  0  0  0  0  3  0  0  0  0  0  0
  191.7340  176.4730  146.2780 C   0  0  0  0  0  3  0  0  0  0  0  0
  190.9230  176.6740  145.1570 C   0  0  0  0  0  3  0  0  0  0  0  0
  190.9150  176.8560  138.8690 C   0  0  0  0  0  2  0  0  0  0  0  0
  190.9430  175.5030  138.5360 O   0  0  0  0  0  1  0  0  0  0  0  0
  1 10  1  0  0  0  0
  2  6  1  0  0  0  0
  3 14  1  0  0  0  0
  6 16  2  0  0  0  0
  7  8  2  0  0  0  0
  7  9  1  0  0  0  0
  8 11  1  0  0  0  0
  9 12  2  0  0  0  0
 10  2  1  0  0  0  0
 10 21  1  0  0  0  0
 11  5  1  0  0  0  0
 11  4  2  0  0  0  0
 12  4  1  0  0  0  0
 12 16  1  0  0  0  0
 13  1  1  0  0  0  0
 14  9  1  0  0  0  0
 14  2  2  0  0  0  0
 15 19  1  0  0  0  0
 17 15  2  0  0  0  0
 17 18  1  0  0  0  0
 18 13  2  0  0  0  0
 19  3  1  0  0  0  0
 19  1  2  0  0  0  0
 20 23  1  0  0  0  0
 21 22  1  0  0  0  0
 22 23  2  0  0  0  0
 24 20  2  0  0  0  0
 25 21  2  0  0  0  0
 25 24  1  0  0  0  0
 26 17  1  0  0  0  0
 27 26  1  0  0  0  0
M  END
>  <MODEL>
7

>  <REMARK>
 VINA RESULT:     -10.0      2.955      6.008
  Name = 
  2 active torsions:
  status: ('A' for Active; 'I' for Inactive)
    1  A    between atoms: C_9  and  N_15
    2  A    between atoms: C_10  and  CA_22
                            x       y       z     vdW  Elec       q    Type
                         _______ _______ _______ _____ _____    ______ ____

>  <TORSDO>
F 2

$$$$
=
 OpenBabel10262420093D

 27 31  0  0  0  0  0  0  0  0999 V2000
  188.1330  177.7710  143.6230 C   0  0  0  0  0  0  0  0  0  0  0  0
  185.8480  178.2540  144.4860 C   0  0  0  0  0  0  0  0  0  0  0  0
  186.2720  178.0980  142.0970 O   0  0  0  0  0  0  0  0  0  0  0  0
  181.7940  179.0030  143.7630 C   0  0  0  0  0  3  0  0  0  0  0  0
  179.9950  179.3120  142.2320 F   0  0  0  0  0  0  0  0  0  0  0  0
  184.9300  178.4420  145.5310 C   0  0  0  0  0  3  0  0  0  0  0  0
  183.5310  178.6240  141.5970 C   0  0  0  0  0  3  0  0  0  0  0  0
  182.1750  178.8780  141.3730 C   0  0  0  0  0  3  0  0  0  0  0  0
  184.0270  178.5590  142.9060 C   0  0  0  0  0  0  0  0  0  0  0  0
  187.2450  177.9820  144.7460 N   0  0  0  0  0  0  0  0  0  0  0  0
  181.3080  179.0670  142.4540 C   0  0  0  0  0  0  0  0  0  0  0  0
  183.1490  178.7500  143.9950 C   0  0  0  0  0  0  0  0  0  0  0  0
  189.5030  177.5230  143.7990 C   0  0  0  0  0  3  0  0  0  0  0  0
  185.3820  178.3060  143.1580 C   0  0  0  0  0  0  0  0  0  0  0  0
  188.4760  177.6420  141.2250 C   0  0  0  0  0  3  0  0  0  0  0  0
  183.6190  178.6850  145.2670 N   0  0  0  0  0  0  0  0  0  0  0  0
  189.8320  177.3970  141.4500 C   0  0  0  0  0  0  0  0  0  0  0  0
  190.3130  177.3400  142.7220 N   0  0  0  0  0  0  0  0  0  0  0  0
  187.6270  177.8350  142.3140 C   0  0  0  0  0  0  0  0  0  0  0  0
  188.7160  177.8120  148.7240 C   0  0  0  0  0  3  0  0  0  0  0  0
  187.7450  177.9250  146.0950 C   0  0  0  0  0  0  0  0  0  0  0  0
  187.0940  178.6260  147.1210 C   0  0  0  0  0  3  0  0  0  0  0  0
  187.5780  178.5690  148.4310 C   0  0  0  0  0  3  0  0  0  0  0  0
  189.3690  177.1100  147.7070 C   0  0  0  0  0  3  0  0  0  0  0  0
  188.8860  177.1660  146.3960 C   0  0  0  0  0  3  0  0  0  0  0  0
  190.7460  177.1650  140.3000 C   0  0  0  0  0  2  0  0  0  0  0  0
  192.0490  177.5040  140.6590 O   0  0  0  0  0  1  0  0  0  0  0  0
  1 13  1  0  0  0  0
  1 10  1  0  0  0  0
  2 10  1  0  0  0  0
  2  6  1  0  0  0  0
  3 19  1  0  0  0  0
  3 14  1  0  0  0  0
  4 12  1  0  0  0  0
  5 11  1  0  0  0  0
  7  9  1  0  0  0  0
  8  7  2  0  0  0  0
  8 11  1  0  0  0  0
  9 14  1  0  0  0  0
  9 12  2  0  0  0  0
 10 21  1  0  0  0  0
 11  4  2  0  0  0  0
 12 16  1  0  0  0  0
 14  2  2  0  0  0  0
 15 17  2  0  0  0  0
 15 19  1  0  0  0  0
 16  6  2  0  0  0  0
 17 18  1  0  0  0  0
 18 13  2  0  0  0  0
 19  1  2  0  0  0  0
 21 25  2  0  0  0  0
 21 22  1  0  0  0  0
 22 23  2  0  0  0  0
 23 20  1  0  0  0  0
 24 20  2  0  0  0  0
 25 24  1  0  0  0  0
 26 27  1  0  0  0  0
 26 17  1  0  0  0  0
M  END
>  <MODEL>
8

>  <REMARK>
 VINA RESULT:      -9.8      3.368      6.283
  Name = 
  2 active torsions:
  status: ('A' for Active; 'I' for Inactive)
    1  A    between atoms: C_9  and  N_15
    2  A    between atoms: C_10  and  CA_22
                            x       y       z     vdW  Elec       q    Type
                         _______ _______ _______ _____ _____    ______ ____

>  <TORSDO>
F 2

$$$$
=
 OpenBabel10262420093D

 27 31  0  0  0  0  0  0  0  0999 V2000
  186.5290  178.2250  140.8910 C   0  0  0  0  0  0  0  0  0  0  0  0
  188.8550  177.6670  141.5810 C   0  0  0  0  0  0  0  0  0  0  0  0
  187.0960  177.9430  143.2360 O   0  0  0  0  0  0  0  0  0  0  0  0
  191.6240  176.8130  144.6020 C   0  0  0  0  0  3  0  0  0  0  0  0
  192.1370  176.5390  146.9120 F   0  0  0  0  0  0  0  0  0  0  0  0
  190.1960  177.3640  141.2950 C   0  0  0  0  0  3  0  0  0  0  0  0
  188.9680  177.3840  145.2900 C   0  0  0  0  0  3  0  0  0  0  0  0
  189.9060  177.1000  146.2870 C   0  0  0  0  0  3  0  0  0  0  0  0
  189.3540  177.3860  143.9430 C   0  0  0  0  0  0  0  0  0  0  0  0
  187.9020  177.9480  140.5300 N   0  0  0  0  0  0  0  0  0  0  0  0
  191.2320  176.8150  145.9440 C   0  0  0  0  0  0  0  0  0  0  0  0
  190.6920  177.0970  143.5990 C   0  0  0  0  0  0  0  0  0  0  0  0
  185.5550  178.5260  139.9270 C   0  0  0  0  0  3  0  0  0  0  0  0
  188.4330  177.6670  142.9250 C   0  0  0  0  0  0  0  0  0  0  0  0
  184.8330  178.4950  142.6050 C   0  0  0  0  0  3  0  0  0  0  0  0
  191.0740  177.0920  142.2960 N   0  0  0  0  0  0  0  0  0  0  0  0
  183.8980  178.7870  141.6080 C   0  0  0  0  0  0  0  0  0  0  0  0
  184.2750  178.7940  140.3010 N   0  0  0  0  0  0  0  0  0  0  0  0
  186.1510  178.2200  142.2440 C   0  0  0  0  0  0  0  0  0  0  0  0
  189.1090  177.9650  136.4600 C   0  0  0  0  0  3  0  0  0  0  0  0
  188.3110  177.9530  139.1490 C   0  0  0  0  0  0  0  0  0  0  0  0
  188.8320  179.1200  138.5700 C   0  0  0  0  0  3  0  0  0  0  0  0
  189.2290  179.1250  137.2300 C   0  0  0  0  0  3  0  0  0  0  0  0
  188.5910  176.7980  137.0310 C   0  0  0  0  0  3  0  0  0  0  0  0
  188.1940  176.7910  138.3720 C   0  0  0  0  0  3  0  0  0  0  0  0
  182.4830  179.0590  141.9750 C   0  0  0  0  0  2  0  0  0  0  0  0
  181.6360  178.2770  141.1900 O   0  0  0  0  0  1  0  0  0  0  0  0
  1 19  1  0  0  0  0
  2 14  1  0  0  0  0
  4 11  2  0  0  0  0
  6  2  2  0  0  0  0
  6 16  1  0  0  0  0
  7  8  2  0  0  0  0
  9  7  1  0  0  0  0
 10  1  1  0  0  0  0
 10  2  1  0  0  0  0
 11  8  1  0  0  0  0
 11  5  1  0  0  0  0
 12  9  1  0  0  0  0
 12  4  1  0  0  0  0
 13 18  1  0  0  0  0
 13  1  2  0  0  0  0
 14  3  1  0  0  0  0
 14  9  2  0  0  0  0
 16 12  2  0  0  0  0
 17 26  1  0  0  0  0
 17 15  1  0  0  0  0
 18 17  2  0  0  0  0
 19 15  2  0  0  0  0
 19  3  1  0  0  0  0
 20 24  2  0  0  0  0
 20 23  1  0  0  0  0
 21 10  1  0  0  0  0
 22 21  1  0  0  0  0
 23 22  2  0  0  0  0
 24 25  1  0  0  0  0
 25 21  2  0  0  0  0
 27 26  1  0  0  0  0
M  END
>  <MODEL>
9

>  <REMARK>
 VINA RESULT:      -9.8      2.143      5.019
  Name = 
  2 active torsions:
  status: ('A' for Active; 'I' for Inactive)
    1  A    between atoms: C_9  and  N_15
    2  A    between atoms: C_10  and  CA_22
                            x       y       z     vdW  Elec       q    Type
                         _______ _______ _______ _____ _____    ______ ____

>  <TORSDO>
F 2

$$$$
