=
 OpenBabel10252415063D

 34 38  0  0  1  0  0  0  0  0999 V2000
  182.1960  177.3650  139.9410 C   0  0  1  0  0  3  0  0  0  0  0  0
  185.2830  179.3520  140.2640 N   0  0  0  0  0  0  0  0  0  0  0  0
  183.3510  178.3070  142.1420 C   0  0  0  0  0  2  0  0  0  0  0  0
  185.5660  179.3760  141.6740 C   0  0  0  0  0  3  0  0  0  0  0  0
  182.5490  177.5800  138.4620 C   0  0  0  0  0  2  0  0  0  0  0  0
  183.9330  179.0070  139.8360 C   0  0  1  0  0  3  0  0  0  0  0  0
  183.7790  178.5020  138.4080 C   0  0  1  0  0  3  0  0  0  0  0  0
  184.6790  178.9000  142.5710 C   0  0  2  0  0  3  0  0  0  0  0  0
  183.4220  177.8810  140.6790 C   0  0  2  0  0  3  0  0  0  0  0  0
  181.0270  179.3980  140.8630 N   0  0  0  0  0  0  0  0  0  0  0  0
  179.8800  177.1570  141.0040 C   0  0  0  0  0  0  0  0  0  0  0  0
  179.5740  178.8630  142.8090 C   0  0  0  0  0  2  0  0  0  0  0  0
  179.3940  177.5150  142.2970 N   0  0  0  0  0  2  0  0  0  0  0  0
  180.8560  178.0530  140.2780 C   0  0  2  0  0  3  0  0  0  0  0  0
  180.9100  179.4240  142.3300 C   0  0  0  0  0  2  0  0  0  0  0  0
  179.4120  175.7390  140.3390 S   0  0  0  0  0  0  0  0  0  0  0  0
  180.0430  180.2920  140.2660 C   0  0  0  0  0  2  0  0  0  0  0  0
  180.6740  181.1540  139.3680 O   0  0  0  0  0  1  0  0  0  0  0  0
  187.3250  177.6550  137.2980 C   0  0  0  0  0  0  0  0  0  0  0  0
  187.1570  176.3640  136.9020 N   0  0  0  0  0  0  0  0  0  0  0  0
  184.9850  177.7640  137.8890 C   0  0  0  0  0  0  0  0  0  0  0  0
  185.9470  175.7480  136.9790 C   0  0  0  0  0  3  0  0  0  0  0  0
  186.2420  178.3790  137.7980 C   0  0  0  0  0  3  0  0  0  0  0  0
  184.8390  176.4380  137.4730 C   0  0  0  0  0  3  0  0  0  0  0  0
  188.6620  178.2950  137.1960 C   0  0  0  0  0  1  0  0  0  0  0  0
  184.9990  178.9470  144.0250 C   0  0  0  0  0  2  0  0  0  0  0  0
  185.8640  177.7610  144.4190 C   0  0  0  0  0  2  0  0  0  0  0  0
  185.3790  178.7680  147.1790 O   0  0  0  0  0  1  0  0  0  0  0  0
  186.9220  178.1840  145.4250 C   0  0  1  0  0  3  0  0  0  0  0  0
  186.4450  177.9260  146.8610 C   0  0  1  0  0  3  0  0  0  0  0  0
  188.8050  177.3550  147.4460 C   0  0  0  0  0  2  0  0  0  0  0  0
  189.2380  177.7560  146.1090 N   0  0  0  0  0  2  0  0  0  0  0  0
  188.1940  177.3820  145.1570 C   0  0  0  0  0  2  0  0  0  0  0  0
  187.5780  178.1630  147.8560 C   0  0  0  0  0  2  0  0  0  0  0  0
  1  5  1  6  0  0  0
  1 14  1  0  0  0  0
  1  9  1  0  0  0  0
  2  4  2  0  0  0  0
  3  8  1  0  0  0  0
  4  8  1  0  0  0  0
  6  2  1  1  0  0  0
  6  9  1  0  0  0  0
  7 21  1  1  0  0  0
  7  5  1  0  0  0  0
  7  6  1  0  0  0  0
  8 26  1  6  0  0  0
  9  3  1  1  0  0  0
 10 15  1  0  0  0  0
 11 13  1  0  0  0  0
 13 12  1  0  0  0  0
 14 10  1  0  0  0  0
 14 11  1  1  0  0  0
 15 12  1  0  0  0  0
 16 11  2  0  0  0  0
 17 10  1  0  0  0  0
 18 17  1  0  0  0  0
 19 23  1  0  0  0  0
 20 22  1  0  0  0  0
 20 19  2  0  0  0  0
 22 24  2  0  0  0  0
 23 21  2  0  0  0  0
 24 21  1  0  0  0  0
 25 19  1  0  0  0  0
 26 27  1  0  0  0  0
 29 27  1  6  0  0  0
 29 30  1  0  0  0  0
 30 28  1  1  0  0  0
 30 34  1  0  0  0  0
 31 34  1  0  0  0  0
 32 31  1  0  0  0  0
 33 29  1  0  0  0  0
 33 32  1  0  0  0  0
M  END
>  <MODEL>
1

>  <REMARK>
 VINA RESULT:      -9.0      0.000      0.000
  Name = 
  6 active torsions:
  status: ('A' for Active; 'I' for Inactive)
    1  A    between atoms: N_1  and  C_24
    2  A    between atoms: C_3  and  C_13
    3  A    between atoms: C_3  and  C_17
    4  A    between atoms: C_4  and  C_15
    5  A    between atoms: C_12  and  C_28
    6  A    between atoms: C_17  and  C_29
                            x       y       z     vdW  Elec       q    Type
                         _______ _______ _______ _____ _____    ______ ____

>  <TORSDO>
F 6

$$$$
=
 OpenBabel10252415063D

 34 38  0  0  1  0  0  0  0  0999 V2000
  182.9450  177.9580  140.1870 C   0  0  1  0  0  3  0  0  0  0  0  0
  186.4910  178.8890  140.5690 N   0  0  0  0  0  0  0  0  0  0  0  0
  184.4060  178.0900  142.4030 C   0  0  0  0  0  2  0  0  0  0  0  0
  186.8200  178.5570  141.9290 C   0  0  0  0  0  3  0  0  0  0  0  0
  183.2920  178.3470  138.7420 C   0  0  0  0  0  2  0  0  0  0  0  0
  185.0840  179.0290  140.2120 C   0  0  1  0  0  3  0  0  0  0  0  0
  184.7370  178.8750  138.7380 C   0  0  1  0  0  3  0  0  0  0  0  0
  185.8640  178.1880  142.8070 C   0  0  2  0  0  3  0  0  0  0  0  0
  184.2950  177.9530  140.8880 C   0  0  2  0  0  3  0  0  0  0  0  0
  181.0850  178.3180  141.8480 N   0  0  0  0  0  0  0  0  0  0  0  0
  181.0790  179.6370  139.6990 C   0  0  0  0  0  0  0  0  0  0  0  0
  178.9310  178.9080  140.7530 C   0  0  0  0  0  2  0  0  0  0  0  0
  179.6620  179.4880  139.6390 N   0  0  0  0  0  2  0  0  0  0  0  0
  181.8810  178.9190  140.7590 C   0  0  2  0  0  3  0  0  0  0  0  0
  179.7700  177.8180  141.4120 C   0  0  0  0  0  2  0  0  0  0  0  0
  181.8360  180.5480  138.5710 S   0  0  0  0  0  0  0  0  0  0  0  0
  180.9190  179.3090  142.9020 C   0  0  0  0  0  2  0  0  0  0  0  0
  180.2280  178.7440  143.9760 O   0  0  0  0  0  1  0  0  0  0  0  0
  187.8320  177.2930  137.1750 C   0  0  0  0  0  0  0  0  0  0  0  0
  187.2770  176.2030  136.5800 N   0  0  0  0  0  0  0  0  0  0  0  0
  185.6520  177.9420  137.9900 C   0  0  0  0  0  0  0  0  0  0  0  0
  185.9430  175.9500  136.6610 C   0  0  0  0  0  3  0  0  0  0  0  0
  187.0300  178.1830  137.8910 C   0  0  0  0  0  3  0  0  0  0  0  0
  185.1070  176.8160  137.3680 C   0  0  0  0  0  3  0  0  0  0  0  0
  189.2930  177.5370  137.0630 C   0  0  0  0  0  1  0  0  0  0  0  0
  186.2370  177.8600  144.2110 C   0  0  0  0  0  2  0  0  0  0  0  0
  187.7030  177.4650  144.2950 C   0  0  0  0  0  2  0  0  0  0  0  0
  190.4000  176.6680  145.2720 O   0  0  0  0  0  1  0  0  0  0  0  0
  188.0840  177.1400  145.7300 C   0  0  1  0  0  3  0  0  0  0  0  0
  189.5520  177.5010  146.0010 C   0  0  1  0  0  3  0  0  0  0  0  0
  188.8690  178.1580  148.3120 C   0  0  0  0  0  2  0  0  0  0  0  0
  187.5180  177.6620  148.0590 N   0  0  0  0  0  2  0  0  0  0  0  0
  187.1800  177.9410  146.6650 C   0  0  0  0  0  2  0  0  0  0  0  0
  189.8750  177.3620  147.4860 C   0  0  0  0  0  2  0  0  0  0  0  0
  1  5  1  6  0  0  0
  1 14  1  0  0  0  0
  1  9  1  0  0  0  0
  2  4  2  0  0  0  0
  3  8  1  0  0  0  0
  4  8  1  0  0  0  0
  6  2  1  6  0  0  0
  6  9  1  0  0  0  0
  7 21  1  1  0  0  0
  7  5  1  0  0  0  0
  7  6  1  0  0  0  0
  8 26  1  6  0  0  0
  9  3  1  1  0  0  0
 10 17  1  0  0  0  0
 12 15  1  0  0  0  0
 13 11  1  0  0  0  0
 13 12  1  0  0  0  0
 14 11  1  6  0  0  0
 14 10  1  0  0  0  0
 15 10  1  0  0  0  0
 16 11  2  0  0  0  0
 17 18  1  0  0  0  0
 19 23  1  0  0  0  0
 20 22  1  0  0  0  0
 20 19  2  0  0  0  0
 22 24  2  0  0  0  0
 23 21  2  0  0  0  0
 24 21  1  0  0  0  0
 25 19  1  0  0  0  0
 26 27  1  0  0  0  0
 29 27  1  6  0  0  0
 29 30  1  0  0  0  0
 29 33  1  0  0  0  0
 30 28  1  6  0  0  0
 30 34  1  0  0  0  0
 32 31  1  0  0  0  0
 33 32  1  0  0  0  0
 34 31  1  0  0  0  0
M  END
>  <MODEL>
2

>  <REMARK>
 VINA RESULT:      -8.9      1.989      2.353
  Name = 
  6 active torsions:
  status: ('A' for Active; 'I' for Inactive)
    1  A    between atoms: N_1  and  C_24
    2  A    between atoms: C_3  and  C_13
    3  A    between atoms: C_3  and  C_17
    4  A    between atoms: C_4  and  C_15
    5  A    between atoms: C_12  and  C_28
    6  A    between atoms: C_17  and  C_29
                            x       y       z     vdW  Elec       q    Type
                         _______ _______ _______ _____ _____    ______ ____

>  <TORSDO>
F 6

$$$$
=
 OpenBabel10252415063D

 34 38  0  0  1  0  0  0  0  0999 V2000
  185.5920  178.7990  138.7100 C   0  0  1  0  0  3  0  0  0  0  0  0
  182.7980  178.0860  141.0040 N   0  0  0  0  0  0  0  0  0  0  0  0
  185.5240  178.9720  141.3610 C   0  0  0  0  0  2  0  0  0  0  0  0
  183.2320  178.5750  142.2850 C   0  0  0  0  0  3  0  0  0  0  0  0
  184.5400  178.2760  137.7190 C   0  0  0  0  0  2  0  0  0  0  0  0
  183.8050  177.8410  139.9800 C   0  0  1  0  0  3  0  0  0  0  0  0
  183.3190  177.8210  138.5370 C   0  0  1  0  0  3  0  0  0  0  0  0
  184.5010  178.9880  142.4800 C   0  0  2  0  0  3  0  0  0  0  0  0
  184.8160  178.9430  140.0100 C   0  0  2  0  0  3  0  0  0  0  0  0
  188.0260  178.4940  139.2880 N   0  0  0  0  0  0  0  0  0  0  0  0
  187.0150  177.0800  137.4610 C   0  0  0  0  0  0  0  0  0  0  0  0
  189.3980  177.8330  137.3210 C   0  0  0  0  0  2  0  0  0  0  0  0
  188.2280  177.2110  136.7220 N   0  0  0  0  0  2  0  0  0  0  0  0
  186.8120  177.8530  138.7430 C   0  0  2  0  0  3  0  0  0  0  0  0
  188.9640  178.9600  138.2530 C   0  0  0  0  0  2  0  0  0  0  0  0
  185.8220  176.1270  136.8770 S   0  0  0  0  0  0  0  0  0  0  0  0
  188.6900  177.5490  140.1760 C   0  0  0  0  0  2  0  0  0  0  0  0
  188.9910  178.1730  141.3880 O   0  0  0  0  0  1  0  0  0  0  0  0
  181.1270  180.8920  138.0010 C   0  0  0  0  0  0  0  0  0  0  0  0
  179.9130  180.3020  137.8320 N   0  0  0  0  0  0  0  0  0  0  0  0
  182.1340  178.7130  138.2810 C   0  0  0  0  0  0  0  0  0  0  0  0
  179.7670  178.9500  137.8800 C   0  0  0  0  0  3  0  0  0  0  0  0
  182.2600  180.1090  138.2300 C   0  0  0  0  0  3  0  0  0  0  0  0
  180.8760  178.1320  138.1060 C   0  0  0  0  0  3  0  0  0  0  0  0
  181.2470  182.3720  137.9450 C   0  0  0  0  0  1  0  0  0  0  0  0
  184.9210  179.4800  143.8210 C   0  0  0  0  0  2  0  0  0  0  0  0
  185.1520  178.3130  144.7680 C   0  0  0  0  0  2  0  0  0  0  0  0
  185.6480  179.4940  147.4560 O   0  0  0  0  0  1  0  0  0  0  0  0
  186.4980  178.4480  145.4610 C   0  0  1  0  0  3  0  0  0  0  0  0
  186.3380  178.3760  146.9860 C   0  0  1  0  0  3  0  0  0  0  0  0
  188.5280  177.1770  147.0680 C   0  0  0  0  0  2  0  0  0  0  0  0
  188.7100  177.4010  145.6360 N   0  0  0  0  0  2  0  0  0  0  0  0
  187.4030  177.3120  144.9880 C   0  0  0  0  0  2  0  0  0  0  0  0
  187.7020  178.3110  147.6680 C   0  0  0  0  0  2  0  0  0  0  0  0
  1  5  1  6  0  0  0
  1 14  1  0  0  0  0
  1  9  1  0  0  0  0
  2  4  2  0  0  0  0
  3  8  1  0  0  0  0
  4  8  1  0  0  0  0
  5  7  1  0  0  0  0
  6  9  1  0  0  0  0
  6  2  1  1  0  0  0
  7 21  1  1  0  0  0
  7  6  1  0  0  0  0
  8 26  1  6  0  0  0
  9  3  1  1  0  0  0
 10 17  1  0  0  0  0
 12 15  1  0  0  0  0
 13 12  1  0  0  0  0
 13 11  1  0  0  0  0
 14 11  1  6  0  0  0
 14 10  1  0  0  0  0
 15 10  1  0  0  0  0
 16 11  2  0  0  0  0
 17 18  1  0  0  0  0
 19 23  1  0  0  0  0
 20 22  1  0  0  0  0
 20 19  2  0  0  0  0
 22 24  2  0  0  0  0
 23 21  2  0  0  0  0
 24 21  1  0  0  0  0
 25 19  1  0  0  0  0
 26 27  1  0  0  0  0
 29 27  1  6  0  0  0
 29 30  1  0  0  0  0
 30 28  1  1  0  0  0
 30 34  1  0  0  0  0
 31 34  1  0  0  0  0
 32 31  1  0  0  0  0
 33 29  1  0  0  0  0
 33 32  1  0  0  0  0
M  END
>  <MODEL>
3

>  <REMARK>
 VINA RESULT:      -8.7      2.575      5.496
  Name = 
  6 active torsions:
  status: ('A' for Active; 'I' for Inactive)
    1  A    between atoms: N_1  and  C_24
    2  A    between atoms: C_3  and  C_13
    3  A    between atoms: C_3  and  C_17
    4  A    between atoms: C_4  and  C_15
    5  A    between atoms: C_12  and  C_28
    6  A    between atoms: C_17  and  C_29
                            x       y       z     vdW  Elec       q    Type
                         _______ _______ _______ _____ _____    ______ ____

>  <TORSDO>
F 6

$$$$
=
 OpenBabel10252415063D

 34 38  0  0  1  0  0  0  0  0999 V2000
  185.5070  179.0010  139.0940 C   0  0  1  0  0  3  0  0  0  0  0  0
  183.0600  178.2580  141.7470 N   0  0  0  0  0  0  0  0  0  0  0  0
  185.9160  178.6930  141.7020 C   0  0  0  0  0  2  0  0  0  0  0  0
  183.7780  178.4410  142.9800 C   0  0  0  0  0  3  0  0  0  0  0  0
  184.2330  178.8130  138.2570 C   0  0  0  0  0  2  0  0  0  0  0  0
  183.8260  178.0730  140.5210 C   0  0  1  0  0  3  0  0  0  0  0  0
  183.1080  178.3830  139.2150 C   0  0  1  0  0  3  0  0  0  0  0  0
  185.1120  178.6400  142.9870 C   0  0  2  0  0  3  0  0  0  0  0  0
  184.9960  179.0060  140.5270 C   0  0  2  0  0  3  0  0  0  0  0  0
  187.9390  178.3620  138.9190 N   0  0  0  0  0  0  0  0  0  0  0  0
  186.2580  177.2020  137.4400 C   0  0  0  0  0  0  0  0  0  0  0  0
  188.5770  177.6610  136.6190 C   0  0  0  0  0  2  0  0  0  0  0  0
  187.2110  177.2280  136.3780 N   0  0  0  0  0  2  0  0  0  0  0  0
  186.5430  177.9120  138.7430 C   0  0  2  0  0  3  0  0  0  0  0  0
  188.5900  178.7730  137.6640 C   0  0  0  0  0  2  0  0  0  0  0  0
  184.8280  176.4420  137.2120 S   0  0  0  0  0  0  0  0  0  0  0  0
  188.6960  177.2880  139.5480 C   0  0  0  0  0  2  0  0  0  0  0  0
  189.9940  177.7240  139.8210 O   0  0  0  0  0  1  0  0  0  0  0  0
  180.0550  180.3760  140.3210 C   0  0  0  0  0  0  0  0  0  0  0  0
  180.1480  181.4510  139.4920 N   0  0  0  0  0  0  0  0  0  0  0  0
  182.0600  179.4570  139.3360 C   0  0  0  0  0  0  0  0  0  0  0  0
  181.1590  181.5660  138.5880 C   0  0  0  0  0  3  0  0  0  0  0  0
  181.0080  179.3590  140.2580 C   0  0  0  0  0  3  0  0  0  0  0  0
  182.1330  180.5700  138.4950 C   0  0  0  0  0  3  0  0  0  0  0  0
  178.9350  180.2840  141.2930 C   0  0  0  0  0  1  0  0  0  0  0  0
  185.8270  178.8170  144.2810 C   0  0  0  0  0  2  0  0  0  0  0  0
  186.5730  177.5460  144.6550 C   0  0  0  0  0  2  0  0  0  0  0  0
  186.6650  178.3230  147.5280 O   0  0  0  0  0  1  0  0  0  0  0  0
  187.8180  177.8790  145.4620 C   0  0  1  0  0  3  0  0  0  0  0  0
  187.6280  177.5040  146.9390 C   0  0  1  0  0  3  0  0  0  0  0  0
  190.0450  176.8740  146.9950 C   0  0  0  0  0  2  0  0  0  0  0  0
  190.2140  177.3810  145.6350 N   0  0  0  0  0  2  0  0  0  0  0  0
  188.9940  177.0940  144.8830 C   0  0  0  0  0  2  0  0  0  0  0  0
  188.9410  177.6520  147.7050 C   0  0  0  0  0  2  0  0  0  0  0  0
  1  5  1  6  0  0  0
  1  9  1  0  0  0  0
  2  4  2  0  0  0  0
  3  8  1  0  0  0  0
  4  8  1  0  0  0  0
  5  7  1  0  0  0  0
  6  9  1  0  0  0  0
  6  2  1  1  0  0  0
  7 21  1  1  0  0  0
  7  6  1  0  0  0  0
  8 26  1  6  0  0  0
  9  3  1  1  0  0  0
 10 17  1  0  0  0  0
 12 15  1  0  0  0  0
 13 12  1  0  0  0  0
 13 11  1  0  0  0  0
 14 11  1  6  0  0  0
 14 10  1  0  0  0  0
 14  1  1  0  0  0  0
 15 10  1  0  0  0  0
 16 11  2  0  0  0  0
 17 18  1  0  0  0  0
 19 25  1  0  0  0  0
 20 19  2  0  0  0  0
 21 23  2  0  0  0  0
 22 20  1  0  0  0  0
 23 19  1  0  0  0  0
 24 22  2  0  0  0  0
 24 21  1  0  0  0  0
 26 27  1  0  0  0  0
 29 27  1  6  0  0  0
 29 30  1  0  0  0  0
 30 28  1  1  0  0  0
 30 34  1  0  0  0  0
 31 34  1  0  0  0  0
 32 31  1  0  0  0  0
 33 29  1  0  0  0  0
 33 32  1  0  0  0  0
M  END
>  <MODEL>
4

>  <REMARK>
 VINA RESULT:      -8.5      2.500      5.738
  Name = 
  6 active torsions:
  status: ('A' for Active; 'I' for Inactive)
    1  A    between atoms: N_1  and  C_24
    2  A    between atoms: C_3  and  C_13
    3  A    between atoms: C_3  and  C_17
    4  A    between atoms: C_4  and  C_15
    5  A    between atoms: C_12  and  C_28
    6  A    between atoms: C_17  and  C_29
                            x       y       z     vdW  Elec       q    Type
                         _______ _______ _______ _____ _____    ______ ____

>  <TORSDO>
F 6

$$$$
=
 OpenBabel10252415063D

 34 38  0  0  1  0  0  0  0  0999 V2000
  190.8320  175.2860  137.1590 C   0  0  1  0  0  3  0  0  0  0  0  0
  193.6530  176.9850  138.8130 N   0  0  0  0  0  0  0  0  0  0  0  0
  190.8400  176.7020  139.4080 C   0  0  0  0  0  2  0  0  0  0  0  0
  193.1490  177.3810  140.1000 C   0  0  0  0  0  3  0  0  0  0  0  0
  191.9500  175.0390  136.1340 C   0  0  0  0  0  2  0  0  0  0  0  0
  192.6950  176.6610  137.7640 C   0  0  1  0  0  3  0  0  0  0  0  0
  193.2010  175.7880  136.6240 C   0  0  1  0  0  3  0  0  0  0  0  0
  191.8390  177.2650  140.4010 C   0  0  2  0  0  3  0  0  0  0  0  0
  191.5680  175.8730  138.3540 C   0  0  2  0  0  3  0  0  0  0  0  0
  189.2200  177.1990  137.4660 N   0  0  0  0  0  0  0  0  0  0  0  0
  188.6560  175.3740  135.8190 C   0  0  0  0  0  0  0  0  0  0  0  0
  186.8530  176.5150  137.1270 C   0  0  0  0  0  2  0  0  0  0  0  0
  187.2930  175.4590  136.2300 N   0  0  0  0  0  2  0  0  0  0  0  0
  189.7240  176.1640  136.5400 C   0  0  2  0  0  3  0  0  0  0  0  0
  187.9580  176.8350  138.1300 C   0  0  0  0  0  2  0  0  0  0  0  0
  189.0610  174.3690  134.5950 S   0  0  0  0  0  0  0  0  0  0  0  0
  189.0560  178.4430  136.7250 C   0  0  0  0  0  2  0  0  0  0  0  0
  188.9790  179.5150  137.6160 O   0  0  0  0  0  1  0  0  0  0  0  0
  196.5950  174.1210  137.0970 C   0  0  0  0  0  0  0  0  0  0  0  0
  196.2270  173.0020  137.7780 N   0  0  0  0  0  0  0  0  0  0  0  0
  194.2850  174.8240  137.0290 C   0  0  0  0  0  0  0  0  0  0  0  0
  194.9270  172.7590  138.0970 C   0  0  0  0  0  3  0  0  0  0  0  0
  195.6310  175.0520  136.7090 C   0  0  0  0  0  3  0  0  0  0  0  0
  193.9330  173.6670  137.7270 C   0  0  0  0  0  3  0  0  0  0  0  0
  198.0250  174.3500  136.7640 C   0  0  0  0  0  1  0  0  0  0  0  0
  191.3470  177.6930  141.7400 C   0  0  0  0  0  2  0  0  0  0  0  0
  191.6290  176.6190  142.7790 C   0  0  0  0  0  2  0  0  0  0  0  0
  191.3880  177.2310  145.6830 O   0  0  0  0  0  1  0  0  0  0  0  0
  190.4060  176.3900  143.6520 C   0  0  1  0  0  3  0  0  0  0  0  0
  190.3400  177.4260  144.7830 C   0  0  1  0  0  3  0  0  0  0  0  0
  187.8530  177.3910  144.5480 C   0  0  0  0  0  2  0  0  0  0  0  0
  187.9550  176.2990  143.5820 N   0  0  0  0  0  2  0  0  0  0  0  0
  189.1580  176.5080  142.7790 C   0  0  0  0  0  2  0  0  0  0  0  0
  189.0150  177.3200  145.5340 C   0  0  0  0  0  2  0  0  0  0  0  0
  1  5  1  6  0  0  0
  1  9  1  0  0  0  0
  2  4  2  0  0  0  0
  3  8  1  0  0  0  0
  4  8  1  0  0  0  0
  5  7  1  0  0  0  0
  6  9  1  0  0  0  0
  6  2  1  1  0  0  0
  7 21  1  1  0  0  0
  7  6  1  0  0  0  0
  8 26  1  1  0  0  0
  9  3  1  6  0  0  0
 10 15  1  0  0  0  0
 11 13  1  0  0  0  0
 12 15  1  0  0  0  0
 13 12  1  0  0  0  0
 14 11  1  1  0  0  0
 14  1  1  0  0  0  0
 14 10  1  0  0  0  0
 16 11  2  0  0  0  0
 17 10  1  0  0  0  0
 17 18  1  0  0  0  0
 19 20  1  0  0  0  0
 20 22  2  0  0  0  0
 21 24  2  0  0  0  0
 23 21  1  0  0  0  0
 23 19  2  0  0  0  0
 24 22  1  0  0  0  0
 25 19  1  0  0  0  0
 26 27  1  0  0  0  0
 29 27  1  6  0  0  0
 29 30  1  0  0  0  0
 30 34  1  0  0  0  0
 30 28  1  1  0  0  0
 31 34  1  0  0  0  0
 32 31  1  0  0  0  0
 33 32  1  0  0  0  0
 33 29  1  0  0  0  0
M  END
>  <MODEL>
5

>  <REMARK>
 VINA RESULT:      -8.3      5.554      8.475
  Name = 
  6 active torsions:
  status: ('A' for Active; 'I' for Inactive)
    1  A    between atoms: N_1  and  C_24
    2  A    between atoms: C_3  and  C_13
    3  A    between atoms: C_3  and  C_17
    4  A    between atoms: C_4  and  C_15
    5  A    between atoms: C_12  and  C_28
    6  A    between atoms: C_17  and  C_29
                            x       y       z     vdW  Elec       q    Type
                         _______ _______ _______ _____ _____    ______ ____

>  <TORSDO>
F 6

$$$$
=
 OpenBabel10252415063D

 34 38  0  0  1  0  0  0  0  0999 V2000
  182.1110  176.6240  139.1350 C   0  0  1  0  0  3  0  0  0  0  0  0
  185.1000  178.7790  139.1970 N   0  0  0  0  0  0  0  0  0  0  0  0
  183.2040  177.9030  141.1930 C   0  0  0  0  0  2  0  0  0  0  0  0
  185.3710  179.0030  140.5910 C   0  0  0  0  0  3  0  0  0  0  0  0
  182.4650  176.6580  137.6400 C   0  0  0  0  0  2  0  0  0  0  0  0
  183.7710  178.3180  138.8160 C   0  0  1  0  0  3  0  0  0  0  0  0
  183.6520  177.6210  137.4670 C   0  0  1  0  0  3  0  0  0  0  0  0
  184.5000  178.6090  141.5420 C   0  0  2  0  0  3  0  0  0  0  0  0
  183.3060  177.2900  139.8000 C   0  0  2  0  0  3  0  0  0  0  0  0
  180.7960  178.7630  139.3510 N   0  0  0  0  0  0  0  0  0  0  0  0
  179.9730  176.6950  140.5360 C   0  0  0  0  0  0  0  0  0  0  0  0
  179.6490  178.9600  141.5490 C   0  0  0  0  0  2  0  0  0  0  0  0
  179.5910  177.5110  141.6420 N   0  0  0  0  0  2  0  0  0  0  0  0
  180.7380  177.2870  139.3750 C   0  0  2  0  0  3  0  0  0  0  0  0
  180.8380  179.3760  140.6880 C   0  0  0  0  0  2  0  0  0  0  0  0
  179.6240  175.0980  140.5620 S   0  0  0  0  0  0  0  0  0  0  0  0
  179.6440  179.2600  138.6090 C   0  0  0  0  0  2  0  0  0  0  0  0
  179.3030  178.3520  137.6050 O   0  0  0  0  0  1  0  0  0  0  0  0
  187.1190  176.8050  136.1130 C   0  0  0  0  0  0  0  0  0  0  0  0
  187.1400  175.4560  136.2860 N   0  0  0  0  0  0  0  0  0  0  0  0
  184.8940  176.8790  137.0520 C   0  0  0  0  0  0  0  0  0  0  0  0
  186.0820  174.7920  136.8250 C   0  0  0  0  0  3  0  0  0  0  0  0
  185.9960  177.5420  136.4920 C   0  0  0  0  0  3  0  0  0  0  0  0
  184.9400  175.4930  137.2180 C   0  0  0  0  0  3  0  0  0  0  0  0
  188.2930  177.4950  135.5180 C   0  0  0  0  0  1  0  0  0  0  0  0
  184.8060  178.8630  142.9780 C   0  0  0  0  0  2  0  0  0  0  0  0
  186.0840  178.1470  143.3850 C   0  0  0  0  0  2  0  0  0  0  0  0
  188.2530  176.8280  144.9400 O   0  0  0  0  0  1  0  0  0  0  0  0
  186.0700  177.8400  144.8730 C   0  0  1  0  0  3  0  0  0  0  0  0
  187.4910  177.8780  145.4530 C   0  0  1  0  0  3  0  0  0  0  0  0
  186.5140  178.8220  147.5490 C   0  0  0  0  0  2  0  0  0  0  0  0
  185.1680  178.6290  147.0140 N   0  0  0  0  0  2  0  0  0  0  0  0
  185.2040  178.8840  145.5760 C   0  0  0  0  0  2  0  0  0  0  0  0
  187.4550  177.7680  146.9750 C   0  0  0  0  0  2  0  0  0  0  0  0
  1  5  1  6  0  0  0
  1 14  1  0  0  0  0
  1  9  1  0  0  0  0
  2  4  2  0  0  0  0
  3  8  1  0  0  0  0
  4  8  1  0  0  0  0
  6  2  1  1  0  0  0
  6  9  1  0  0  0  0
  7 21  1  1  0  0  0
  7  5  1  0  0  0  0
  7  6  1  0  0  0  0
  8 26  1  1  0  0  0
  9  3  1  1  0  0  0
 10 14  1  0  0  0  0
 10 15  1  0  0  0  0
 11 16  2  0  0  0  0
 11 13  1  0  0  0  0
 12 13  1  0  0  0  0
 14 11  1  1  0  0  0
 15 12  1  0  0  0  0
 17 10  1  0  0  0  0
 18 17  1  0  0  0  0
 19 20  2  0  0  0  0
 19 23  1  0  0  0  0
 20 22  1  0  0  0  0
 21 24  1  0  0  0  0
 22 24  2  0  0  0  0
 23 21  2  0  0  0  0
 25 19  1  0  0  0  0
 26 27  1  0  0  0  0
 29 27  1  6  0  0  0
 29 30  1  0  0  0  0
 29 33  1  0  0  0  0
 30 28  1  6  0  0  0
 30 34  1  0  0  0  0
 32 31  1  0  0  0  0
 33 32  1  0  0  0  0
 34 31  1  0  0  0  0
M  END
>  <MODEL>
6

>  <REMARK>
 VINA RESULT:      -8.2      1.622      1.826
  Name = 
  6 active torsions:
  status: ('A' for Active; 'I' for Inactive)
    1  A    between atoms: N_1  and  C_24
    2  A    between atoms: C_3  and  C_13
    3  A    between atoms: C_3  and  C_17
    4  A    between atoms: C_4  and  C_15
    5  A    between atoms: C_12  and  C_28
    6  A    between atoms: C_17  and  C_29
                            x       y       z     vdW  Elec       q    Type
                         _______ _______ _______ _____ _____    ______ ____

>  <TORSDO>
F 6

$$$$
=
 OpenBabel10252415063D

 34 38  0  0  1  0  0  0  0  0999 V2000
  188.3380  177.3040  143.4010 C   0  0  1  0  0  3  0  0  0  0  0  0
  188.2300  178.6280  139.9640 N   0  0  0  0  0  2  0  0  0  0  0  0
  189.9970  176.8330  141.3790 C   0  0  0  0  0  2  0  0  0  0  0  0
  189.2090  177.8650  139.2380 C   0  0  0  0  0  3  0  0  0  0  0  0
  187.1500  178.2720  143.5090 C   0  0  0  0  0  2  0  0  0  0  0  0
  188.3050  178.6440  141.4200 C   0  0  1  0  0  3  0  0  0  0  0  0
  187.0270  179.0070  142.1640 C   0  0  1  0  0  3  0  0  0  0  0  0
  190.0500  177.0250  139.8760 C   0  0  0  0  0  0  0  0  0  0  0  0
  188.6350  177.2690  141.9100 C   0  0  2  0  0  3  0  0  0  0  0  0
  190.8260  177.4700  143.7620 N   0  0  0  0  0  0  0  0  0  0  0  0
  189.3010  177.3910  145.7690 C   0  0  0  0  0  0  0  0  0  0  0  0
  191.5660  176.3310  145.8460 C   0  0  0  0  0  2  0  0  0  0  0  0
  190.2580  176.5690  146.4330 N   0  0  0  0  0  2  0  0  0  0  0  0
  189.4900  177.7680  144.3170 C   0  0  2  0  0  3  0  0  0  0  0  0
  191.4450  176.2600  144.3260 C   0  0  0  0  0  2  0  0  0  0  0  0
  187.9650  177.8760  146.5770 S   0  0  0  0  0  0  0  0  0  0  0  0
  191.6880  178.6240  143.9860 C   0  0  0  0  0  2  0  0  0  0  0  0
  190.9250  179.7930  143.9680 O   0  0  0  0  0  1  0  0  0  0  0  0
  184.4890  178.2520  139.4230 C   0  0  0  0  0  0  0  0  0  0  0  0
  183.4150  177.8930  140.1750 N   0  0  0  0  0  0  0  0  0  0  0  0
  185.7670  178.6090  141.4420 C   0  0  0  0  0  0  0  0  0  0  0  0
  183.4700  177.8790  141.5350 C   0  0  0  0  0  3  0  0  0  0  0  0
  185.6860  178.6180  140.0430 C   0  0  0  0  0  3  0  0  0  0  0  0
  184.6480  178.2380  142.1920 C   0  0  0  0  0  3  0  0  0  0  0  0
  184.3900  178.2580  137.9410 C   0  0  0  0  0  1  0  0  0  0  0  0
  191.0590  176.2560  139.0960 C   0  0  0  0  0  2  0  0  0  0  0  0
  191.0060  176.6430  137.6270 C   0  0  0  0  0  2  0  0  0  0  0  0
  193.9310  177.0420  137.2380 O   0  0  0  0  0  1  0  0  0  0  0  0
  191.9370  175.7620  136.8110 C   0  0  1  0  0  3  0  0  0  0  0  0
  193.3570  175.7800  137.3940 C   0  0  1  0  0  3  0  0  0  0  0  0
  193.5600  173.3790  136.7340 C   0  0  0  0  0  2  0  0  0  0  0  0
  192.2650  173.4490  136.0600 N   0  0  0  0  0  2  0  0  0  0  0  0
  191.3940  174.3340  136.8310 C   0  0  0  0  0  2  0  0  0  0  0  0
  194.2380  174.7450  136.6970 C   0  0  0  0  0  2  0  0  0  0  0  0
  1  5  1  6  0  0  0
  1 14  1  0  0  0  0
  4  8  2  0  0  0  0
  4  2  1  0  0  0  0
  6  2  1  6  0  0  0
  6  9  1  0  0  0  0
  6  7  1  0  0  0  0
  7 21  1  6  0  0  0
  7  5  1  0  0  0  0
  8  3  1  0  0  0  0
  9  3  1  1  0  0  0
  9  1  1  0  0  0  0
 10 17  1  0  0  0  0
 10 14  1  0  0  0  0
 10 15  1  0  0  0  0
 11 13  1  0  0  0  0
 11 16  2  0  0  0  0
 12 13  1  0  0  0  0
 14 11  1  1  0  0  0
 15 12  1  0  0  0  0
 18 17  1  0  0  0  0
 19 23  2  0  0  0  0
 19 20  1  0  0  0  0
 20 22  2  0  0  0  0
 21 24  2  0  0  0  0
 22 24  1  0  0  0  0
 23 21  1  0  0  0  0
 25 19  1  0  0  0  0
 26  8  1  0  0  0  0
 27 26  1  0  0  0  0
 29 33  1  0  0  0  0
 29 30  1  0  0  0  0
 29 27  1  1  0  0  0
 30 28  1  6  0  0  0
 32 31  1  0  0  0  0
 32 33  1  0  0  0  0
 34 31  1  0  0  0  0
 34 30  1  0  0  0  0
M  END
>  <MODEL>
7

>  <REMARK>
 VINA RESULT:      -8.1      4.498      8.859
  Name = 
  6 active torsions:
  status: ('A' for Active; 'I' for Inactive)
    1  A    between atoms: N_1  and  C_24
    2  A    between atoms: C_3  and  C_13
    3  A    between atoms: C_3  and  C_17
    4  A    between atoms: C_4  and  C_15
    5  A    between atoms: C_12  and  C_28
    6  A    between atoms: C_17  and  C_29
                            x       y       z     vdW  Elec       q    Type
                         _______ _______ _______ _____ _____    ______ ____

>  <TORSDO>
F 6

$$$$
=
 OpenBabel10252415063D

 34 38  0  0  1  0  0  0  0  0999 V2000
  186.7770  177.4990  144.2090 C   0  0  1  0  0  3  0  0  0  0  0  0
  186.5410  179.0030  140.8520 N   0  0  0  0  0  2  0  0  0  0  0  0
  188.4730  177.3070  142.1710 C   0  0  0  0  0  2  0  0  0  0  0  0
  187.5890  178.3800  140.0890 C   0  0  0  0  0  3  0  0  0  0  0  0
  185.5010  178.3410  144.3660 C   0  0  0  0  0  2  0  0  0  0  0  0
  186.6150  178.9420  142.3070 C   0  0  1  0  0  3  0  0  0  0  0  0
  185.3080  179.1380  143.0640 C   0  0  1  0  0  3  0  0  0  0  0  0
  188.5070  177.5890  140.6820 C   0  0  0  0  0  0  0  0  0  0  0  0
  187.0760  177.5790  142.7190 C   0  0  2  0  0  3  0  0  0  0  0  0
  189.2270  177.5260  144.8000 N   0  0  0  0  0  0  0  0  0  0  0  0
  187.5240  177.9080  146.6200 C   0  0  0  0  0  0  0  0  0  0  0  0
  189.6600  176.7000  147.1050 C   0  0  0  0  0  2  0  0  0  0  0  0
  188.3330  177.1370  147.5050 N   0  0  0  0  0  2  0  0  0  0  0  0
  187.8800  178.0180  145.1560 C   0  0  2  0  0  3  0  0  0  0  0  0
  189.6730  176.3830  145.6130 C   0  0  0  0  0  2  0  0  0  0  0  0
  186.1720  178.6270  147.1940 S   0  0  0  0  0  0  0  0  0  0  0  0
  190.1710  178.6290  144.9260 C   0  0  0  0  0  2  0  0  0  0  0  0
  191.3910  178.2730  144.3490 O   0  0  0  0  0  1  0  0  0  0  0  0
  183.0410  177.4990  140.4770 C   0  0  0  0  0  0  0  0  0  0  0  0
  181.8190  177.8410  140.9670 N   0  0  0  0  0  0  0  0  0  0  0  0
  184.0920  178.6630  142.3140 C   0  0  0  0  0  0  0  0  0  0  0  0
  181.6910  178.5790  142.1030 C   0  0  0  0  0  3  0  0  0  0  0  0
  184.2000  177.9030  141.1400 C   0  0  0  0  0  3  0  0  0  0  0  0
  182.8260  179.0030  142.7960 C   0  0  0  0  0  3  0  0  0  0  0  0
  183.1420  176.6940  139.2320 C   0  0  0  0  0  1  0  0  0  0  0  0
  189.5850  176.9660  139.8650 C   0  0  0  0  0  2  0  0  0  0  0  0
  189.6300  177.5890  138.4780 C   0  0  0  0  0  2  0  0  0  0  0  0
  192.4270  176.6910  137.9910 O   0  0  0  0  0  1  0  0  0  0  0  0
  190.0840  176.5660  137.4500 C   0  0  1  0  0  3  0  0  0  0  0  0
  191.3360  175.8220  137.9350 C   0  0  1  0  0  3  0  0  0  0  0  0
  190.4450  173.7760  136.8130 C   0  0  0  0  0  2  0  0  0  0  0  0
  189.3470  174.5590  136.2480 N   0  0  0  0  0  2  0  0  0  0  0  0
  188.9500  175.5670  137.2280 C   0  0  0  0  0  2  0  0  0  0  0  0
  191.6710  174.6640  136.9980 C   0  0  0  0  0  2  0  0  0  0  0  0
  1  5  1  6  0  0  0
  1 14  1  0  0  0  0
  4  8  2  0  0  0  0
  4  2  1  0  0  0  0
  6  2  1  6  0  0  0
  6  9  1  0  0  0  0
  6  7  1  0  0  0  0
  7 21  1  6  0  0  0
  7  5  1  0  0  0  0
  8  3  1  0  0  0  0
  9  3  1  1  0  0  0
  9  1  1  0  0  0  0
 10 17  1  0  0  0  0
 10 14  1  0  0  0  0
 10 15  1  0  0  0  0
 11 16  2  0  0  0  0
 11 13  1  0  0  0  0
 12 13  1  0  0  0  0
 14 11  1  1  0  0  0
 15 12  1  0  0  0  0
 18 17  1  0  0  0  0
 19 20  2  0  0  0  0
 19 23  1  0  0  0  0
 20 22  1  0  0  0  0
 21 24  1  0  0  0  0
 22 24  2  0  0  0  0
 23 21  2  0  0  0  0
 25 19  1  0  0  0  0
 26  8  1  0  0  0  0
 27 26  1  0  0  0  0
 29 30  1  0  0  0  0
 29 27  1  1  0  0  0
 30 28  1  6  0  0  0
 31 34  1  0  0  0  0
 32 31  1  0  0  0  0
 32 33  1  0  0  0  0
 33 29  1  0  0  0  0
 34 30  1  0  0  0  0
M  END
>  <MODEL>
8

>  <REMARK>
 VINA RESULT:      -7.9      3.605      8.145
  Name = 
  6 active torsions:
  status: ('A' for Active; 'I' for Inactive)
    1  A    between atoms: N_1  and  C_24
    2  A    between atoms: C_3  and  C_13
    3  A    between atoms: C_3  and  C_17
    4  A    between atoms: C_4  and  C_15
    5  A    between atoms: C_12  and  C_28
    6  A    between atoms: C_17  and  C_29
                            x       y       z     vdW  Elec       q    Type
                         _______ _______ _______ _____ _____    ______ ____

>  <TORSDO>
F 6

$$$$
=
 OpenBabel10252415063D

 34 38  0  0  1  0  0  0  0  0999 V2000
  188.3030  177.2930  143.4420 C   0  0  1  0  0  3  0  0  0  0  0  0
  188.1310  178.6870  140.0350 N   0  0  0  0  0  2  0  0  0  0  0  0
  189.9440  176.8910  141.3910 C   0  0  0  0  0  2  0  0  0  0  0  0
  189.1140  177.9550  139.2820 C   0  0  0  0  0  3  0  0  0  0  0  0
  187.1010  178.2390  143.5850 C   0  0  0  0  0  2  0  0  0  0  0  0
  188.2240  178.6740  141.4900 C   0  0  1  0  0  3  0  0  0  0  0  0
  186.9500  179.0010  142.2570 C   0  0  1  0  0  3  0  0  0  0  0  0
  189.9750  177.1160  139.8910 C   0  0  0  0  0  0  0  0  0  0  0  0
  188.5820  177.2940  141.9470 C   0  0  2  0  0  3  0  0  0  0  0  0
  190.7920  177.5140  143.7660 N   0  0  0  0  0  0  0  0  0  0  0  0
  189.3060  177.3250  145.7940 C   0  0  0  0  0  0  0  0  0  0  0  0
  191.5990  176.3240  145.7950 C   0  0  0  0  0  2  0  0  0  0  0  0
  190.2970  176.5060  146.4130 N   0  0  0  0  0  2  0  0  0  0  0  0
  189.4590  177.7560  144.3540 C   0  0  2  0  0  3  0  0  0  0  0  0
  191.4530  176.3020  144.2760 C   0  0  0  0  0  2  0  0  0  0  0  0
  187.9730  177.7460  146.6420 S   0  0  0  0  0  0  0  0  0  0  0  0
  191.6270  178.6820  144.0150 C   0  0  0  0  0  2  0  0  0  0  0  0
  190.8560  179.8420  143.9200 O   0  0  0  0  0  1  0  0  0  0  0  0
  184.3860  178.2750  139.5330 C   0  0  0  0  0  0  0  0  0  0  0  0
  183.3310  177.8690  140.2890 N   0  0  0  0  0  0  0  0  0  0  0  0
  185.6880  178.5980  141.5420 C   0  0  0  0  0  0  0  0  0  0  0  0
  183.4090  177.8140  141.6460 C   0  0  0  0  0  3  0  0  0  0  0  0
  185.5840  178.6480  140.1450 C   0  0  0  0  0  3  0  0  0  0  0  0
  184.5890  178.1790  142.2970 C   0  0  0  0  0  3  0  0  0  0  0  0
  184.2630  178.3240  138.0530 C   0  0  0  0  0  1  0  0  0  0  0  0
  190.9870  176.3790  139.0830 C   0  0  0  0  0  2  0  0  0  0  0  0
  190.7140  176.5560  137.5980 C   0  0  0  0  0  2  0  0  0  0  0  0
  188.1810  176.8330  136.0580 O   0  0  0  0  0  1  0  0  0  0  0  0
  189.8440  175.4230  137.0790 C   0  0  1  0  0  3  0  0  0  0  0  0
  189.1190  175.8360  135.7900 C   0  0  1  0  0  3  0  0  0  0  0  0
  189.3900  173.4850  134.9920 C   0  0  0  0  0  2  0  0  0  0  0  0
  189.9380  173.1020  136.2910 N   0  0  0  0  0  2  0  0  0  0  0  0
  190.7370  174.2150  136.7990 C   0  0  0  0  0  2  0  0  0  0  0  0
  188.4080  174.6390  135.1650 C   0  0  0  0  0  2  0  0  0  0  0  0
  1  5  1  6  0  0  0
  1 14  1  0  0  0  0
  4  8  2  0  0  0  0
  4  2  1  0  0  0  0
  6  2  1  6  0  0  0
  6  9  1  0  0  0  0
  6  7  1  0  0  0  0
  7 21  1  6  0  0  0
  7  5  1  0  0  0  0
  8  3  1  0  0  0  0
  9  3  1  1  0  0  0
  9  1  1  0  0  0  0
 10 17  1  0  0  0  0
 10 15  1  0  0  0  0
 10 14  1  0  0  0  0
 11 13  1  0  0  0  0
 11 16  2  0  0  0  0
 12 13  1  0  0  0  0
 14 11  1  1  0  0  0
 15 12  1  0  0  0  0
 18 17  1  0  0  0  0
 19 23  2  0  0  0  0
 19 20  1  0  0  0  0
 20 22  2  0  0  0  0
 21 24  2  0  0  0  0
 22 24  1  0  0  0  0
 23 21  1  0  0  0  0
 25 19  1  0  0  0  0
 26  8  1  0  0  0  0
 27 26  1  0  0  0  0
 29 27  1  6  0  0  0
 30 28  1  1  0  0  0
 30 29  1  0  0  0  0
 31 34  1  0  0  0  0
 31 32  1  0  0  0  0
 32 33  1  0  0  0  0
 33 29  1  0  0  0  0
 34 30  1  0  0  0  0
M  END
>  <MODEL>
9

>  <REMARK>
 VINA RESULT:      -7.8      3.783      8.737
  Name = 
  6 active torsions:
  status: ('A' for Active; 'I' for Inactive)
    1  A    between atoms: N_1  and  C_24
    2  A    between atoms: C_3  and  C_13
    3  A    between atoms: C_3  and  C_17
    4  A    between atoms: C_4  and  C_15
    5  A    between atoms: C_12  and  C_28
    6  A    between atoms: C_17  and  C_29
                            x       y       z     vdW  Elec       q    Type
                         _______ _______ _______ _____ _____    ______ ____

>  <TORSDO>
F 6

$$$$
