=
 OpenBabel10262422503D

 37 41  0  0  1  0  0  0  0  0999 V2000
  179.9830  173.8600  136.4620 C   0  0  0  0  0  0  0  0  0  0  0  0
  183.6870  174.0630  136.8420 C   0  0  0  0  0  0  0  0  0  0  0  0
  181.8460  172.2770  135.5460 C   0  0  0  0  0  2  0  0  0  0  0  0
  184.2460  175.2010  136.3970 C   0  0  0  0  0  3  0  0  0  0  0  0
  182.2460  174.0940  137.3590 C   0  0  1  0  0  3  0  0  0  0  0  0
  185.6350  175.3090  136.0480 N   0  0  0  0  0  0  0  0  0  0  0  0
  182.6320  171.1900  136.1640 C   0  0  0  0  0  3  0  0  0  0  0  0
  181.6510  175.4390  137.3210 N   0  0  1  0  0  0  0  0  0  0  0  0
  178.9310  173.3590  137.4510 C   0  0  0  0  0  1  0  0  0  0  0  0
  185.6270  172.7640  137.8040 C   0  0  0  0  0  2  0  0  0  0  0  0
  183.7950  171.4380  136.7760 C   0  0  0  0  0  3  0  0  0  0  0  0
  180.2990  175.3090  136.7590 C   0  0  0  0  0  2  0  0  0  0  0  0
  184.4970  172.7770  136.7990 C   0  0  1  0  0  3  0  0  0  0  0  0
  181.2820  173.1070  136.7020 C   0  0  1  0  0  3  0  0  0  0  0  0
  186.6340  174.9530  137.0780 C   0  0  1  0  0  3  0  0  0  0  0  0
  179.4300  173.7360  135.0340 C   0  0  0  0  0  1  0  0  0  0  0  0
  186.8380  173.4380  137.1990 C   0  0  0  0  0  2  0  0  0  0  0  0
  189.0710  175.0120  136.3790 C   0  0  0  0  0  3  0  0  0  0  0  0
  187.9460  175.6610  136.9360 C   0  0  0  0  0  0  0  0  0  0  0  0
  188.0790  176.9460  137.4570 C   0  0  0  0  0  3  0  0  0  0  0  0
  189.4360  178.8460  137.9240 F   0  0  0  0  0  0  0  0  0  0  0  0
  190.4280  176.9560  136.8650 C   0  0  0  0  0  3  0  0  0  0  0  0
  189.3170  177.5990  137.4220 C   0  0  0  0  0  0  0  0  0  0  0  0
  190.3060  175.6630  136.3400 C   0  0  0  0  0  3  0  0  0  0  0  0
  180.5900  177.0500  139.0170 C   0  0  0  0  0  2  0  0  0  0  0  0
  180.9790  178.4330  138.4760 C   0  0  1  0  0  3  0  0  0  0  0  0
  182.4010  178.8220  138.8800 C   0  0  0  0  0  2  0  0  0  0  0  0
  183.0400  176.4070  139.1490 C   0  0  0  0  0  2  0  0  0  0  0  0
  183.4150  177.7450  138.4890 C   0  0  2  0  0  3  0  0  0  0  0  0
  181.6380  175.9510  138.7110 C   0  0  2  0  0  3  0  0  0  0  0  0
  184.8230  178.2040  138.8800 C   0  0  2  0  0  3  0  0  0  0  0  0
  184.8040  179.0440  140.1420 C   0  0  0  0  0  1  0  0  0  0  0  0
  185.4330  178.9050  137.8540 F   0  0  0  0  0  0  0  0  0  0  0  0
  180.8130  178.4960  137.0490 N   0  0  0  0  0  0  0  0  0  0  0  0
  181.2280  179.4310  136.4320 O   0  0  0  0  0  0  0  0  0  0  0  0
  185.9750  176.1110  134.8730 C   0  0  0  0  0  2  0  0  0  0  0  0
  184.9770  177.2480  134.7100 C   0  0  0  0  0  1  0  0  0  0  0  0
  1 14  1  0  0  0  0
  1 12  1  0  0  0  0
  1  9  1  0  0  0  0
  3  7  1  0  0  0  0
  4  2  2  0  0  0  0
  5  2  1  6  0  0  0
  6  4  1  0  0  0  0
  6 15  1  0  0  0  0
  7 11  2  0  0  0  0
  8 12  1  1  0  0  0
  8  5  1  0  0  0  0
  8 30  1  0  0  0  0
 13 11  1  1  0  0  0
 13  2  1  0  0  0  0
 13 10  1  0  0  0  0
 14  3  1  6  0  0  0
 14  5  1  0  0  0  0
 15 19  1  6  0  0  0
 15 17  1  0  0  0  0
 16  1  1  0  0  0  0
 17 10  1  0  0  0  0
 18 19  1  0  0  0  0
 19 20  2  0  0  0  0
 22 23  2  0  0  0  0
 23 20  1  0  0  0  0
 23 21  1  0  0  0  0
 24 18  2  0  0  0  0
 24 22  1  0  0  0  0
 26 34  1  6  0  0  0
 26 27  1  0  0  0  0
 26 25  1  0  0  0  0
 29 27  1  0  0  0  0
 29 31  1  1  0  0  0
 29 28  1  0  0  0  0
 30 25  1  6  0  0  0
 30 28  1  0  0  0  0
 31 32  1  1  0  0  0
 33 31  1  0  0  0  0
 35 34  2  0  0  0  0
 36  6  1  0  0  0  0
 37 36  1  0  0  0  0
M  END
>  <MODEL>
1

>  <REMARK>
 VINA RESULT:      -5.6      0.000      0.000
  Name = 
  5 active torsions:
  status: ('A' for Active; 'I' for Inactive)
    1  A    between atoms: C_5  and  N_12
    2  A    between atoms: C_6  and  C_31
    3  A    between atoms: C_7  and  N_14
    4  A    between atoms: C_11  and  C_33
    5  A    between atoms: N_20  and  C_36
                            x       y       z     vdW  Elec       q    Type
                         _______ _______ _______ _____ _____    ______ ____

>  <TORSDO>
F 5

$$$$
=
 OpenBabel10262422503D

 37 41  0  0  1  0  0  0  0  0999 V2000
  180.6330  177.4550  136.6660 C   0  0  0  0  0  0  0  0  0  0  0  0
  184.2210  176.5630  137.1530 C   0  0  0  0  0  0  0  0  0  0  0  0
  182.3990  176.6260  134.9320 C   0  0  0  0  0  2  0  0  0  0  0  0
  184.9870  177.5370  137.6720 C   0  0  0  0  0  3  0  0  0  0  0  0
  182.7310  176.5200  137.5050 C   0  0  1  0  0  3  0  0  0  0  0  0
  186.4160  177.5680  137.5350 N   0  0  0  0  0  0  0  0  0  0  0  0
  182.9270  175.2890  134.5980 C   0  0  0  0  0  3  0  0  0  0  0  0
  182.3290  177.5900  138.4320 N   0  0  1  0  0  0  0  0  0  0  0  0
  179.3780  176.6380  136.9740 C   0  0  0  0  0  1  0  0  0  0  0  0
  185.7940  174.6000  136.9310 C   0  0  0  0  0  2  0  0  0  0  0  0
  183.9970  174.7900  135.2260 C   0  0  0  0  0  3  0  0  0  0  0  0
  181.0810  178.1740  137.9200 C   0  0  0  0  0  2  0  0  0  0  0  0
  184.8530  175.5460  136.2170 C   0  0  1  0  0  3  0  0  0  0  0  0
  181.7670  176.5030  136.3210 C   0  0  1  0  0  3  0  0  0  0  0  0
  187.1800  176.3980  138.0170 C   0  0  1  0  0  3  0  0  0  0  0  0
  180.3080  178.4830  135.5720 C   0  0  0  0  0  1  0  0  0  0  0  0
  187.1640  175.2340  137.0180 C   0  0  0  0  0  2  0  0  0  0  0  0
  189.6840  176.4280  137.6220 C   0  0  0  0  0  3  0  0  0  0  0  0
  188.5780  176.7110  138.4540 C   0  0  0  0  0  0  0  0  0  0  0  0
  188.7900  177.1930  139.7430 C   0  0  0  0  0  3  0  0  0  0  0  0
  190.2880  177.8820  141.4610 F   0  0  0  0  0  0  0  0  0  0  0  0
  191.1850  177.1340  139.3850 C   0  0  0  0  0  3  0  0  0  0  0  0
  190.0920  177.4090  140.2130 C   0  0  0  0  0  0  0  0  0  0  0  0
  190.9840  176.6450  138.0870 C   0  0  0  0  0  3  0  0  0  0  0  0
  180.8980  177.4080  140.5580 C   0  0  0  0  0  2  0  0  0  0  0  0
  181.0250  178.8040  141.1840 C   0  0  1  0  0  3  0  0  0  0  0  0
  182.3220  178.9550  141.9780 C   0  0  0  0  0  2  0  0  0  0  0  0
  183.4190  177.1430  140.6270 C   0  0  0  0  0  2  0  0  0  0  0  0
  183.5460  178.5890  141.1370 C   0  0  2  0  0  3  0  0  0  0  0  0
  182.1570  176.9710  139.7660 C   0  0  2  0  0  3  0  0  0  0  0  0
  184.8170  178.7970  141.9660 C   0  0  2  0  0  3  0  0  0  0  0  0
  186.0340  178.9820  141.0810 C   0  0  0  0  0  1  0  0  0  0  0  0
  185.0270  177.7500  142.8460 F   0  0  0  0  0  0  0  0  0  0  0  0
  180.9080  179.8320  140.1860 N   0  0  0  0  0  0  0  0  0  0  0  0
  180.3270  180.8470  140.4270 O   0  0  0  0  0  0  0  0  0  0  0  0
  187.0430  178.8680  137.3000 C   0  0  0  0  0  2  0  0  0  0  0  0
  187.5400  178.9570  135.8640 C   0  0  0  0  0  1  0  0  0  0  0  0
  1  9  1  0  0  0  0
  1 12  1  0  0  0  0
  2  4  2  0  0  0  0
  5  2  1  6  0  0  0
  5  8  1  0  0  0  0
  6  4  1  0  0  0  0
  6 15  1  0  0  0  0
  7  3  1  0  0  0  0
  7 11  2  0  0  0  0
  8 12  1  6  0  0  0
  8 30  1  0  0  0  0
 10 17  1  0  0  0  0
 13 11  1  1  0  0  0
 13 10  1  0  0  0  0
 13  2  1  0  0  0  0
 14  3  1  6  0  0  0
 14  1  1  0  0  0  0
 14  5  1  0  0  0  0
 15 19  1  6  0  0  0
 16  1  1  0  0  0  0
 17 15  1  0  0  0  0
 18 24  2  0  0  0  0
 18 19  1  0  0  0  0
 19 20  2  0  0  0  0
 20 23  1  0  0  0  0
 22 23  2  0  0  0  0
 23 21  1  0  0  0  0
 24 22  1  0  0  0  0
 25 26  1  0  0  0  0
 26 34  1  6  0  0  0
 26 27  1  0  0  0  0
 28 29  1  0  0  0  0
 29 31  1  1  0  0  0
 29 27  1  0  0  0  0
 30 25  1  1  0  0  0
 30 28  1  0  0  0  0
 31 32  1  6  0  0  0
 31 33  1  0  0  0  0
 34 35  2  0  0  0  0
 36  6  1  0  0  0  0
 37 36  1  0  0  0  0
M  END
>  <MODEL>
2

>  <REMARK>
 VINA RESULT:      -5.0      2.464      3.081
  Name = 
  5 active torsions:
  status: ('A' for Active; 'I' for Inactive)
    1  A    between atoms: C_5  and  N_12
    2  A    between atoms: C_6  and  C_31
    3  A    between atoms: C_7  and  N_14
    4  A    between atoms: C_11  and  C_33
    5  A    between atoms: N_20  and  C_36
                            x       y       z     vdW  Elec       q    Type
                         _______ _______ _______ _____ _____    ______ ____

>  <TORSDO>
F 5

$$$$
=
 OpenBabel10262422503D

 37 41  0  0  1  0  0  0  0  0999 V2000
  191.8930  175.9390  138.0890 C   0  0  0  0  0  0  0  0  0  0  0  0
  188.4470  176.8890  137.0280 C   0  0  0  0  0  0  0  0  0  0  0  0
  190.7100  175.6270  135.7840 C   0  0  0  0  0  2  0  0  0  0  0  0
  187.4560  176.3570  137.7620 C   0  0  0  0  0  3  0  0  0  0  0  0
  189.8060  177.1460  137.6870 C   0  0  1  0  0  3  0  0  0  0  0  0
  186.1070  176.2300  137.2850 N   0  0  0  0  0  0  0  0  0  0  0  0
  190.4620  176.5420  134.6520 C   0  0  0  0  0  3  0  0  0  0  0  0
  189.8310  176.7830  139.1130 N   0  0  1  0  0  0  0  0  0  0  0  0
  193.1420  176.8100  138.2310 C   0  0  0  0  0  1  0  0  0  0  0  0
  187.2520  178.3650  135.3650 C   0  0  0  0  0  2  0  0  0  0  0  0
  189.3540  177.2870  134.5940 C   0  0  0  0  0  3  0  0  0  0  0  0
  191.0720  176.0350  139.3570 C   0  0  0  0  0  2  0  0  0  0  0  0
  188.1950  177.1990  135.5620 C   0  0  1  0  0  3  0  0  0  0  0  0
  191.0120  176.5160  136.9940 C   0  0  1  0  0  3  0  0  0  0  0  0
  185.4200  177.4570  136.8300 C   0  0  1  0  0  3  0  0  0  0  0  0
  192.3200  174.4810  137.8630 C   0  0  0  0  0  1  0  0  0  0  0  0
  185.8260  177.8640  135.4080 C   0  0  0  0  0  2  0  0  0  0  0  0
  183.1000  177.0790  135.8770 C   0  0  0  0  0  3  0  0  0  0  0  0
  183.9280  177.4170  136.9710 C   0  0  0  0  0  0  0  0  0  0  0  0
  183.3540  177.8190  138.1730 C   0  0  0  0  0  3  0  0  0  0  0  0
  181.4120  178.2660  139.4770 F   0  0  0  0  0  0  0  0  0  0  0  0
  181.1420  177.5400  137.2240 C   0  0  0  0  0  3  0  0  0  0  0  0
  181.9610  177.8800  138.3060 C   0  0  0  0  0  0  0  0  0  0  0  0
  181.7100  177.1360  136.0070 C   0  0  0  0  0  3  0  0  0  0  0  0
  190.6730  178.1100  141.1440 C   0  0  0  0  0  2  0  0  0  0  0  0
  190.1220  177.3140  142.3350 C   0  0  1  0  0  3  0  0  0  0  0  0
  188.6600  177.6580  142.6190 C   0  0  0  0  0  2  0  0  0  0  0  0
  188.3200  178.4090  140.2460 C   0  0  0  0  0  2  0  0  0  0  0  0
  187.7890  177.5040  141.3720 C   0  0  2  0  0  3  0  0  0  0  0  0
  189.7700  178.0440  139.8860 C   0  0  2  0  0  3  0  0  0  0  0  0
  186.3320  177.8210  141.7230 C   0  0  2  0  0  3  0  0  0  0  0  0
  185.7790  178.9310  140.8520 C   0  0  0  0  0  1  0  0  0  0  0  0
  186.1910  178.1540  143.0590 F   0  0  0  0  0  0  0  0  0  0  0  0
  190.2890  175.9000  142.1350 N   0  0  0  0  0  0  0  0  0  0  0  0
  190.5210  175.1810  143.0590 O   0  0  0  0  0  0  0  0  0  0  0  0
  185.3810  175.0090  137.6330 C   0  0  0  0  0  2  0  0  0  0  0  0
  186.1330  173.7890  137.1210 C   0  0  0  0  0  1  0  0  0  0  0  0
  1  9  1  0  0  0  0
  1 12  1  0  0  0  0
  2  4  2  0  0  0  0
  5  2  1  6  0  0  0
  5  8  1  0  0  0  0
  6 36  1  0  0  0  0
  6  4  1  0  0  0  0
  7  3  1  0  0  0  0
  8 12  1  6  0  0  0
  8 30  1  0  0  0  0
 10 17  1  0  0  0  0
 10 13  1  0  0  0  0
 11  7  2  0  0  0  0
 13 11  1  6  0  0  0
 13  2  1  0  0  0  0
 14  3  1  6  0  0  0
 14  5  1  0  0  0  0
 14  1  1  0  0  0  0
 15 19  1  6  0  0  0
 15  6  1  0  0  0  0
 16  1  1  0  0  0  0
 17 15  1  0  0  0  0
 18 24  2  0  0  0  0
 18 19  1  0  0  0  0
 19 20  2  0  0  0  0
 20 23  1  0  0  0  0
 22 23  2  0  0  0  0
 23 21  1  0  0  0  0
 24 22  1  0  0  0  0
 25 26  1  0  0  0  0
 26 34  1  6  0  0  0
 26 27  1  0  0  0  0
 28 29  1  0  0  0  0
 29 31  1  1  0  0  0
 29 27  1  0  0  0  0
 30 28  1  1  0  0  0
 30 25  1  0  0  0  0
 31 32  1  6  0  0  0
 31 33  1  0  0  0  0
 34 35  2  0  0  0  0
 37 36  1  0  0  0  0
M  END
>  <MODEL>
3

>  <REMARK>
 VINA RESULT:      -4.9      3.547      8.075
  Name = 
  5 active torsions:
  status: ('A' for Active; 'I' for Inactive)
    1  A    between atoms: C_5  and  N_12
    2  A    between atoms: C_6  and  C_31
    3  A    between atoms: C_7  and  N_14
    4  A    between atoms: C_11  and  C_33
    5  A    between atoms: N_20  and  C_36
                            x       y       z     vdW  Elec       q    Type
                         _______ _______ _______ _____ _____    ______ ____

>  <TORSDO>
F 5

$$$$
=
 OpenBabel10262422503D

 37 41  0  0  1  0  0  0  0  0999 V2000
  185.8870  176.5990  135.6650 C   0  0  0  0  0  0  0  0  0  0  0  0
  184.2090  177.7390  138.7940 C   0  0  0  0  0  0  0  0  0  0  0  0
  186.5400  178.5210  137.3060 C   0  0  0  0  0  2  0  0  0  0  0  0
  182.9260  178.1120  138.6510 C   0  0  0  0  0  3  0  0  0  0  0  0
  184.7870  176.6830  137.8470 C   0  0  1  0  0  3  0  0  0  0  0  0
  182.2500  178.9680  139.5850 N   0  0  0  0  0  0  0  0  0  0  0  0
  187.2350  178.5350  138.6080 C   0  0  0  0  0  3  0  0  0  0  0  0
  183.7990  176.1760  136.8800 N   0  0  1  0  0  0  0  0  0  0  0  0
  186.8090  175.4000  135.4380 C   0  0  0  0  0  1  0  0  0  0  0  0
  184.6410  177.9690  141.2710 C   0  0  0  0  0  2  0  0  0  0  0  0
  186.5590  178.4170  139.7560 C   0  0  0  0  0  3  0  0  0  0  0  0
  184.4470  176.1470  135.5610 C   0  0  0  0  0  2  0  0  0  0  0  0
  185.0510  178.3920  139.8770 C   0  0  1  0  0  3  0  0  0  0  0  0
  186.0550  177.0840  137.0960 C   0  0  1  0  0  3  0  0  0  0  0  0
  182.2070  178.5450  141.0010 C   0  0  1  0  0  3  0  0  0  0  0  0
  186.1710  177.6620  134.5940 C   0  0  0  0  0  1  0  0  0  0  0  0
  183.5110  178.8540  141.7460 C   0  0  0  0  0  2  0  0  0  0  0  0
  180.3430  180.2260  141.3590 C   0  0  0  0  0  3  0  0  0  0  0  0
  181.0210  179.0540  141.7620 C   0  0  0  0  0  0  0  0  0  0  0  0
  180.6510  178.4140  142.9410 C   0  0  0  0  0  3  0  0  0  0  0  0
  179.2480  178.2900  144.8620 F   0  0  0  0  0  0  0  0  0  0  0  0
  178.9310  180.0780  143.3190 C   0  0  0  0  0  3  0  0  0  0  0  0
  179.6040  178.9210  143.7230 C   0  0  0  0  0  0  0  0  0  0  0  0
  179.2970  180.7320  142.1340 C   0  0  0  0  0  3  0  0  0  0  0  0
  182.6060  173.9740  136.3110 C   0  0  0  0  0  2  0  0  0  0  0  0
  181.1410  174.4020  136.1500 C   0  0  1  0  0  3  0  0  0  0  0  0
  180.4340  174.5250  137.4990 C   0  0  0  0  0  2  0  0  0  0  0  0
  182.6250  174.9030  138.6700 C   0  0  0  0  0  2  0  0  0  0  0  0
  181.1980  175.4400  138.4570 C   0  0  2  0  0  3  0  0  0  0  0  0
  183.3900  174.8290  137.3380 C   0  0  2  0  0  3  0  0  0  0  0  0
  180.4260  175.5600  139.7750 C   0  0  2  0  0  3  0  0  0  0  0  0
  179.5300  174.3590  140.0050 C   0  0  0  0  0  1  0  0  0  0  0  0
  179.6800  176.7240  139.8230 F   0  0  0  0  0  0  0  0  0  0  0  0
  181.0380  175.6250  135.4000 N   0  0  0  0  0  0  0  0  0  0  0  0
  180.0040  175.9380  134.8910 O   0  0  0  0  0  0  0  0  0  0  0  0
  181.3360  179.9720  139.0410 C   0  0  0  0  0  2  0  0  0  0  0  0
  182.1240  181.1280  138.4430 C   0  0  0  0  0  1  0  0  0  0  0  0
  1 14  1  0  0  0  0
  2 13  1  0  0  0  0
  3  7  1  0  0  0  0
  4  2  2  0  0  0  0
  4  6  1  0  0  0  0
  5  2  1  6  0  0  0
  6 15  1  0  0  0  0
  7 11  2  0  0  0  0
  8 12  1  6  0  0  0
  8 30  1  0  0  0  0
  8  5  1  0  0  0  0
  9  1  1  0  0  0  0
 10 17  1  0  0  0  0
 12  1  1  0  0  0  0
 13 11  1  6  0  0  0
 13 10  1  0  0  0  0
 14  3  1  6  0  0  0
 14  5  1  0  0  0  0
 15 17  1  0  0  0  0
 15 19  1  1  0  0  0
 16  1  1  0  0  0  0
 18 19  2  0  0  0  0
 18 24  1  0  0  0  0
 19 20  1  0  0  0  0
 20 23  2  0  0  0  0
 22 23  1  0  0  0  0
 23 21  1  0  0  0  0
 24 22  2  0  0  0  0
 26 34  1  1  0  0  0
 26 25  1  0  0  0  0
 26 27  1  0  0  0  0
 27 29  1  0  0  0  0
 29 28  1  0  0  0  0
 29 31  1  1  0  0  0
 30 25  1  6  0  0  0
 30 28  1  0  0  0  0
 31 33  1  0  0  0  0
 31 32  1  6  0  0  0
 35 34  2  0  0  0  0
 36  6  1  0  0  0  0
 37 36  1  0  0  0  0
M  END
>  <MODEL>
4

>  <REMARK>
 VINA RESULT:      -4.0      3.061      7.343
  Name = 
  5 active torsions:
  status: ('A' for Active; 'I' for Inactive)
    1  A    between atoms: C_5  and  N_12
    2  A    between atoms: C_6  and  C_31
    3  A    between atoms: C_7  and  N_14
    4  A    between atoms: C_11  and  C_33
    5  A    between atoms: N_20  and  C_36
                            x       y       z     vdW  Elec       q    Type
                         _______ _______ _______ _____ _____    ______ ____

>  <TORSDO>
F 5

$$$$
=
 OpenBabel10262422503D

 37 41  0  0  1  0  0  0  0  0999 V2000
  180.4150  179.2120  137.6480 C   0  0  0  0  0  0  0  0  0  0  0  0
  183.5280  177.2440  137.0640 C   0  0  0  0  0  0  0  0  0  0  0  0
  181.5350  178.4830  135.4060 C   0  0  0  0  0  2  0  0  0  0  0  0
  184.6420  177.7600  137.6100 C   0  0  0  0  0  3  0  0  0  0  0  0
  182.1760  177.5180  137.7300 C   0  0  1  0  0  3  0  0  0  0  0  0
  185.9640  177.4280  137.1580 N   0  0  0  0  0  0  0  0  0  0  0  0
  181.5310  177.2160  134.6480 C   0  0  0  0  0  3  0  0  0  0  0  0
  182.2930  178.3280  138.9540 N   0  0  1  0  0  0  0  0  0  0  0  0
  179.0170  178.7280  138.0320 C   0  0  0  0  0  1  0  0  0  0  0  0
  184.3040  175.0800  136.0200 C   0  0  0  0  0  2  0  0  0  0  0  0
  182.4500  176.2710  134.8730 C   0  0  0  0  0  3  0  0  0  0  0  0
  181.2520  179.3650  138.8990 C   0  0  0  0  0  2  0  0  0  0  0  0
  183.6430  176.4210  135.7920 C   0  0  1  0  0  3  0  0  0  0  0  0
  181.1030  178.1300  136.8320 C   0  0  1  0  0  3  0  0  0  0  0  0
  186.3520  176.0010  137.1550 C   0  0  1  0  0  3  0  0  0  0  0  0
  180.3000  180.5700  136.9380 C   0  0  0  0  0  1  0  0  0  0  0  0
  185.8050  175.2460  135.9380 C   0  0  0  0  0  2  0  0  0  0  0  0
  188.5600  176.4160  138.3310 C   0  0  0  0  0  3  0  0  0  0  0  0
  187.8220  175.7620  137.3200 C   0  0  0  0  0  0  0  0  0  0  0  0
  188.4820  174.9600  136.3930 C   0  0  0  0  0  3  0  0  0  0  0  0
  190.5020  174.0070  135.5660 F   0  0  0  0  0  0  0  0  0  0  0  0
  190.5990  175.4350  137.4710 C   0  0  0  0  0  3  0  0  0  0  0  0
  189.8710  174.7910  136.4650 C   0  0  0  0  0  0  0  0  0  0  0  0
  189.9450  176.2470  138.4070 C   0  0  0  0  0  3  0  0  0  0  0  0
  180.8390  177.6300  140.9530 C   0  0  0  0  0  2  0  0  0  0  0  0
  180.9300  178.8420  141.8910 C   0  0  1  0  0  3  0  0  0  0  0  0
  182.2140  178.8230  142.7200 C   0  0  0  0  0  2  0  0  0  0  0  0
  183.3640  177.3960  141.0010 C   0  0  0  0  0  2  0  0  0  0  0  0
  183.4560  178.6850  141.8380 C   0  0  2  0  0  3  0  0  0  0  0  0
  182.1160  177.4110  140.1030 C   0  0  2  0  0  3  0  0  0  0  0  0
  184.7120  178.7130  142.7140 C   0  0  2  0  0  3  0  0  0  0  0  0
  184.5580  179.6760  143.8740 C   0  0  0  0  0  1  0  0  0  0  0  0
  185.8390  179.0350  141.9770 F   0  0  0  0  0  0  0  0  0  0  0  0
  180.8060  180.0730  141.1600 N   0  0  0  0  0  0  0  0  0  0  0  0
  180.0280  180.9100  141.5090 O   0  0  0  0  0  0  0  0  0  0  0  0
  186.9490  178.5070  137.1030 C   0  0  0  0  0  2  0  0  0  0  0  0
  187.3480  178.7780  135.6600 C   0  0  0  0  0  1  0  0  0  0  0  0
  1  9  1  0  0  0  0
  1 12  1  0  0  0  0
  2  4  2  0  0  0  0
  5  2  1  6  0  0  0
  5  8  1  0  0  0  0
  6  4  1  0  0  0  0
  7 11  2  0  0  0  0
  7  3  1  0  0  0  0
  8 12  1  6  0  0  0
  8 30  1  0  0  0  0
 13 11  1  1  0  0  0
 13 10  1  0  0  0  0
 13  2  1  0  0  0  0
 14  3  1  6  0  0  0
 14  1  1  0  0  0  0
 14  5  1  0  0  0  0
 15  6  1  0  0  0  0
 15 19  1  6  0  0  0
 16  1  1  0  0  0  0
 17 10  1  0  0  0  0
 17 15  1  0  0  0  0
 18 24  1  0  0  0  0
 19 18  2  0  0  0  0
 20 23  2  0  0  0  0
 20 19  1  0  0  0  0
 21 23  1  0  0  0  0
 22 24  2  0  0  0  0
 23 22  1  0  0  0  0
 25 26  1  0  0  0  0
 26 34  1  6  0  0  0
 26 27  1  0  0  0  0
 28 29  1  0  0  0  0
 29 31  1  1  0  0  0
 29 27  1  0  0  0  0
 30 25  1  1  0  0  0
 30 28  1  0  0  0  0
 31 32  1  1  0  0  0
 33 31  1  0  0  0  0
 34 35  2  0  0  0  0
 36  6  1  0  0  0  0
 37 36  1  0  0  0  0
M  END
>  <MODEL>
5

>  <REMARK>
 VINA RESULT:      -4.0      2.810      3.927
  Name = 
  5 active torsions:
  status: ('A' for Active; 'I' for Inactive)
    1  A    between atoms: C_5  and  N_12
    2  A    between atoms: C_6  and  C_31
    3  A    between atoms: C_7  and  N_14
    4  A    between atoms: C_11  and  C_33
    5  A    between atoms: N_20  and  C_36
                            x       y       z     vdW  Elec       q    Type
                         _______ _______ _______ _____ _____    ______ ____

>  <TORSDO>
F 5

$$$$
=
 OpenBabel10262422503D

 37 41  0  0  1  0  0  0  0  0999 V2000
  188.4630  178.0520  138.6440 C   0  0  0  0  0  0  0  0  0  0  0  0
  185.3200  176.8290  137.0540 C   0  0  0  0  0  0  0  0  0  0  0  0
  188.1200  176.7350  136.4160 C   0  0  0  0  0  2  0  0  0  0  0  0
  184.5770  176.0050  137.8140 C   0  0  0  0  0  3  0  0  0  0  0  0
  186.1990  177.8800  137.7370 C   0  0  1  0  0  3  0  0  0  0  0  0
  183.6030  175.1010  137.2700 N   0  0  0  0  0  0  0  0  0  0  0  0
  187.7160  177.1490  135.0580 C   0  0  0  0  0  3  0  0  0  0  0  0
  186.0830  177.8620  139.2040 N   0  0  1  0  0  0  0  0  0  0  0  0
  189.0650  179.4570  138.6520 C   0  0  0  0  0  1  0  0  0  0  0  0
  183.9570  177.1110  134.9470 C   0  0  0  0  0  2  0  0  0  0  0  0
  186.4280  177.1750  134.6970 C   0  0  0  0  0  3  0  0  0  0  0  0
  187.4430  177.9390  139.7560 C   0  0  0  0  0  2  0  0  0  0  0  0
  185.2780  176.6760  135.5430 C   0  0  1  0  0  3  0  0  0  0  0  0
  187.6780  177.8600  137.3570 C   0  0  1  0  0  3  0  0  0  0  0  0
  182.5260  175.6720  136.4340 C   0  0  1  0  0  3  0  0  0  0  0  0
  189.5820  177.0230  138.8680 C   0  0  0  0  0  1  0  0  0  0  0  0
  182.9840  175.9550  134.9980 C   0  0  0  0  0  2  0  0  0  0  0  0
  180.2850  175.0690  137.4570 C   0  0  0  0  0  3  0  0  0  0  0  0
  181.2520  174.8820  136.4450 C   0  0  0  0  0  0  0  0  0  0  0  0
  181.0740  173.8780  135.4970 C   0  0  0  0  0  3  0  0  0  0  0  0
  179.7680  172.0940  134.6110 F   0  0  0  0  0  0  0  0  0  0  0  0
  178.9770  173.2520  136.5370 C   0  0  0  0  0  3  0  0  0  0  0  0
  179.9360  173.0610  135.5370 C   0  0  0  0  0  0  0  0  0  0  0  0
  179.1480  174.2580  137.4980 C   0  0  0  0  0  3  0  0  0  0  0  0
  185.4940  179.5870  141.0140 C   0  0  0  0  0  2  0  0  0  0  0  0
  184.8750  178.7280  142.1260 C   0  0  1  0  0  3  0  0  0  0  0  0
  183.4070  178.4080  141.8450 C   0  0  0  0  0  2  0  0  0  0  0  0
  183.7550  178.7310  139.3780 C   0  0  0  0  0  2  0  0  0  0  0  0
  183.2190  177.7810  140.4630 C   0  0  2  0  0  3  0  0  0  0  0  0
  185.2490  179.0230  139.5910 C   0  0  2  0  0  3  0  0  0  0  0  0
  181.7400  177.4430  140.2520 C   0  0  2  0  0  3  0  0  0  0  0  0
  181.1970  178.0890  138.9920 C   0  0  0  0  0  1  0  0  0  0  0  0
  180.9730  177.8140  141.3420 F   0  0  0  0  0  0  0  0  0  0  0  0
  185.6350  177.5260  142.3360 N   0  0  0  0  0  0  0  0  0  0  0  0
  186.5090  177.4960  143.1490 O   0  0  0  0  0  0  0  0  0  0  0  0
  183.5050  173.7730  137.8730 C   0  0  0  0  0  2  0  0  0  0  0  0
  184.8240  173.0300  137.7200 C   0  0  0  0  0  1  0  0  0  0  0  0
  1  9  1  0  0  0  0
  1 16  1  0  0  0  0
  1 12  1  0  0  0  0
  2  4  2  0  0  0  0
  5  2  1  6  0  0  0
  5  8  1  0  0  0  0
  6  4  1  0  0  0  0
  6 36  1  0  0  0  0
  7  3  1  0  0  0  0
  8 30  1  0  0  0  0
  8 12  1  1  0  0  0
 10 17  1  0  0  0  0
 10 13  1  0  0  0  0
 11  7  2  0  0  0  0
 13 11  1  6  0  0  0
 13  2  1  0  0  0  0
 14  3  1  1  0  0  0
 14  5  1  0  0  0  0
 14  1  1  0  0  0  0
 15 19  1  6  0  0  0
 15  6  1  0  0  0  0
 17 15  1  0  0  0  0
 18 24  1  0  0  0  0
 19 18  2  0  0  0  0
 20 23  2  0  0  0  0
 20 19  1  0  0  0  0
 21 23  1  0  0  0  0
 22 24  2  0  0  0  0
 23 22  1  0  0  0  0
 25 26  1  0  0  0  0
 26 34  1  6  0  0  0
 27 26  1  0  0  0  0
 28 29  1  0  0  0  0
 29 31  1  6  0  0  0
 29 27  1  0  0  0  0
 30 28  1  1  0  0  0
 30 25  1  0  0  0  0
 31 32  1  6  0  0  0
 31 33  1  0  0  0  0
 34 35  2  0  0  0  0
 37 36  1  0  0  0  0
M  END
>  <MODEL>
6

>  <REMARK>
 VINA RESULT:      -3.6      3.016      7.157
  Name = 
  5 active torsions:
  status: ('A' for Active; 'I' for Inactive)
    1  A    between atoms: C_5  and  N_12
    2  A    between atoms: C_6  and  C_31
    3  A    between atoms: C_7  and  N_14
    4  A    between atoms: C_11  and  C_33
    5  A    between atoms: N_20  and  C_36
                            x       y       z     vdW  Elec       q    Type
                         _______ _______ _______ _____ _____    ______ ____

>  <TORSDO>
F 5

$$$$
=
 OpenBabel10262422503D

 37 41  0  0  1  0  0  0  0  0999 V2000
  182.5600  177.6480  139.4160 C   0  0  0  0  0  0  0  0  0  0  0  0
  184.5060  178.3360  142.5220 C   0  0  0  0  0  0  0  0  0  0  0  0
  181.7740  177.6940  141.9050 C   0  0  0  0  0  2  0  0  0  0  0  0
  185.5590  177.5280  142.7280 C   0  0  0  0  0  3  0  0  0  0  0  0
  184.0560  178.6230  141.0860 C   0  0  1  0  0  3  0  0  0  0  0  0
  186.1550  177.3290  144.0190 N   0  0  0  0  0  0  0  0  0  0  0  0
  181.4190  178.7930  142.8250 C   0  0  0  0  0  3  0  0  0  0  0  0
  184.9000  177.9620  140.0770 N   0  0  1  0  0  0  0  0  0  0  0  0
  181.9950  178.6260  138.3860 C   0  0  0  0  0  1  0  0  0  0  0  0
  184.6020  179.9680  144.4460 C   0  0  0  0  0  2  0  0  0  0  0  0
  182.3440  179.3780  143.5940 C   0  0  0  0  0  3  0  0  0  0  0  0
  184.0060  177.3520  139.0830 C   0  0  0  0  0  2  0  0  0  0  0  0
  183.7810  178.9240  143.7220 C   0  0  1  0  0  3  0  0  0  0  0  0
  182.5900  178.3280  140.7750 C   0  0  1  0  0  3  0  0  0  0  0  0
  186.6390  178.5230  144.7450 C   0  0  1  0  0  3  0  0  0  0  0  0
  181.7460  176.3460  139.3730 C   0  0  0  0  0  1  0  0  0  0  0  0
  185.5070  179.2830  145.4450 C   0  0  0  0  0  2  0  0  0  0  0  0
  189.0630  177.9440  145.2140 C   0  0  0  0  0  3  0  0  0  0  0  0
  187.7700  178.2530  145.6910 C   0  0  0  0  0  0  0  0  0  0  0  0
  187.5090  178.2080  147.0580 C   0  0  0  0  0  3  0  0  0  0  0  0
  188.2640  177.8310  149.2850 F   0  0  0  0  0  0  0  0  0  0  0  0
  189.8060  177.5680  147.4870 C   0  0  0  0  0  3  0  0  0  0  0  0
  188.5240  177.8680  147.9610 C   0  0  0  0  0  0  0  0  0  0  0  0
  190.0780  177.6080  146.1130 C   0  0  0  0  0  3  0  0  0  0  0  0
  186.0460  178.8760  137.9680 C   0  0  0  0  0  2  0  0  0  0  0  0
  187.0610  177.7780  137.6180 C   0  0  1  0  0  3  0  0  0  0  0  0
  188.3350  177.8970  138.4540 C   0  0  0  0  0  2  0  0  0  0  0  0
  187.0960  179.1250  140.2630 C   0  0  0  0  0  2  0  0  0  0  0  0
  188.0270  177.9400  139.9520 C   0  0  2  0  0  3  0  0  0  0  0  0
  185.7730  179.0030  139.4880 C   0  0  2  0  0  3  0  0  0  0  0  0
  189.3380  178.0170  140.7410 C   0  0  2  0  0  3  0  0  0  0  0  0
  190.1510  176.7450  140.5930 C   0  0  0  0  0  1  0  0  0  0  0  0
  189.1100  178.2790  142.0810 F   0  0  0  0  0  0  0  0  0  0  0  0
  186.4760  176.4710  137.7500 N   0  0  0  0  0  0  0  0  0  0  0  0
  186.9790  175.5270  137.2190 O   0  0  0  0  0  0  0  0  0  0  0  0
  186.5930  175.9760  144.3590 C   0  0  0  0  0  2  0  0  0  0  0  0
  187.8600  175.6290  143.5920 C   0  0  0  0  0  1  0  0  0  0  0  0
  1 14  1  0  0  0  0
  2  4  2  0  0  0  0
  2 13  1  0  0  0  0
  3  7  1  0  0  0  0
  4  6  1  0  0  0  0
  5  2  1  1  0  0  0
  6 36  1  0  0  0  0
  6 15  1  0  0  0  0
  7 11  2  0  0  0  0
  8 12  1  6  0  0  0
  8  5  1  0  0  0  0
  9  1  1  0  0  0  0
 10 17  1  0  0  0  0
 12  1  1  0  0  0  0
 13 11  1  6  0  0  0
 13 10  1  0  0  0  0
 14  5  1  0  0  0  0
 14  3  1  1  0  0  0
 15 17  1  0  0  0  0
 15 19  1  1  0  0  0
 16  1  1  0  0  0  0
 18 19  2  0  0  0  0
 18 24  1  0  0  0  0
 19 20  1  0  0  0  0
 20 23  2  0  0  0  0
 22 23  1  0  0  0  0
 23 21  1  0  0  0  0
 24 22  2  0  0  0  0
 26 34  1  1  0  0  0
 26 25  1  0  0  0  0
 26 27  1  0  0  0  0
 27 29  1  0  0  0  0
 29 28  1  0  0  0  0
 29 31  1  1  0  0  0
 30 25  1  6  0  0  0
 30  8  1  0  0  0  0
 30 28  1  0  0  0  0
 31 32  1  1  0  0  0
 31 33  1  0  0  0  0
 35 34  2  0  0  0  0
 37 36  1  0  0  0  0
M  END
>  <MODEL>
7

>  <REMARK>
 VINA RESULT:      -3.6      4.991      7.884
  Name = 
  5 active torsions:
  status: ('A' for Active; 'I' for Inactive)
    1  A    between atoms: C_5  and  N_12
    2  A    between atoms: C_6  and  C_31
    3  A    between atoms: C_7  and  N_14
    4  A    between atoms: C_11  and  C_33
    5  A    between atoms: N_20  and  C_36
                            x       y       z     vdW  Elec       q    Type
                         _______ _______ _______ _____ _____    ______ ____

>  <TORSDO>
F 5

$$$$
=
 OpenBabel10262422503D

 37 41  0  0  1  0  0  0  0  0999 V2000
  187.0040  173.0330  136.0080 C   0  0  0  0  0  0  0  0  0  0  0  0
  184.2980  175.5740  136.3490 C   0  0  0  0  0  0  0  0  0  0  0  0
  184.4170  172.7560  135.8010 C   0  0  0  0  0  2  0  0  0  0  0  0
  184.2700  176.2270  137.5230 C   0  0  0  0  0  3  0  0  0  0  0  0
  185.6350  175.0500  135.8200 C   0  0  1  0  0  3  0  0  0  0  0  0
  183.1010  176.8950  138.0230 N   0  0  0  0  0  0  0  0  0  0  0  0
  183.4630  173.0360  134.7100 C   0  0  0  0  0  3  0  0  0  0  0  0
  186.7690  175.3730  136.7020 N   0  0  1  0  0  0  0  0  0  0  0  0
  187.9310  172.7520  134.8250 C   0  0  0  0  0  1  0  0  0  0  0  0
  182.4400  176.6420  135.0130 C   0  0  0  0  0  2  0  0  0  0  0  0
  182.8750  174.2320  134.5940 C   0  0  0  0  0  3  0  0  0  0  0  0
  187.5830  174.1570  136.8400 C   0  0  0  0  0  2  0  0  0  0  0  0
  182.9960  175.3600  135.5940 C   0  0  1  0  0  3  0  0  0  0  0  0
  185.6800  173.5610  135.4820 C   0  0  1  0  0  3  0  0  0  0  0  0
  182.4860  177.9350  137.1710 C   0  0  1  0  0  3  0  0  0  0  0  0
  186.8890  171.7650  136.8680 C   0  0  0  0  0  1  0  0  0  0  0  0
  181.6070  177.3420  136.0630 C   0  0  0  0  0  2  0  0  0  0  0  0
  180.4620  178.7580  138.4580 C   0  0  0  0  0  3  0  0  0  0  0  0
  181.7500  178.9980  137.9290 C   0  0  0  0  0  0  0  0  0  0  0  0
  182.3080  180.2700  138.0200 C   0  0  0  0  0  3  0  0  0  0  0  0
  182.1540  182.5370  138.7310 F   0  0  0  0  0  0  0  0  0  0  0  0
  180.3310  181.0680  139.1710 C   0  0  0  0  0  3  0  0  0  0  0  0
  181.6030  181.3080  138.6420 C   0  0  0  0  0  0  0  0  0  0  0  0
  179.7590  179.7910  139.0820 C   0  0  0  0  0  3  0  0  0  0  0  0
  188.8600  176.0990  135.4010 C   0  0  0  0  0  2  0  0  0  0  0  0
  189.9960  175.8680  136.4080 C   0  0  1  0  0  3  0  0  0  0  0  0
  190.1180  177.0240  137.4010 C   0  0  0  0  0  2  0  0  0  0  0  0
  187.7130  177.6530  137.0440 C   0  0  0  0  0  2  0  0  0  0  0  0
  188.7870  177.3190  138.0930 C   0  0  2  0  0  3  0  0  0  0  0  0
  187.5150  176.4830  136.0660 C   0  0  2  0  0  3  0  0  0  0  0  0
  188.9770  178.4540  139.1040 C   0  0  2  0  0  3  0  0  0  0  0  0
  187.8590  178.4790  140.1280 C   0  0  0  0  0  1  0  0  0  0  0  0
  189.0700  179.6840  138.4750 F   0  0  0  0  0  0  0  0  0  0  0  0
  189.8330  174.6140  137.0930 N   0  0  0  0  0  0  0  0  0  0  0  0
  190.7560  174.1100  137.6600 O   0  0  0  0  0  0  0  0  0  0  0  0
  182.8270  176.7950  139.4560 C   0  0  0  0  0  2  0  0  0  0  0  0
  181.8620  175.6500  139.7250 C   0  0  0  0  0  1  0  0  0  0  0  0
  1 12  1  0  0  0  0
  1 16  1  0  0  0  0
  2  4  2  0  0  0  0
  4  6  1  0  0  0  0
  5  2  1  1  0  0  0
  5  8  1  0  0  0  0
  6 36  1  0  0  0  0
  7  3  1  0  0  0  0
  8 12  1  6  0  0  0
  9  1  1  0  0  0  0
 10 13  1  0  0  0  0
 10 17  1  0  0  0  0
 11  7  2  0  0  0  0
 13 11  1  6  0  0  0
 13  2  1  0  0  0  0
 14  3  1  1  0  0  0
 14  5  1  0  0  0  0
 14  1  1  0  0  0  0
 15 19  1  1  0  0  0
 15  6  1  0  0  0  0
 17 15  1  0  0  0  0
 18 24  1  0  0  0  0
 19 20  1  0  0  0  0
 19 18  2  0  0  0  0
 20 23  2  0  0  0  0
 23 21  1  0  0  0  0
 23 22  1  0  0  0  0
 24 22  2  0  0  0  0
 25 26  1  0  0  0  0
 26 34  1  1  0  0  0
 26 27  1  0  0  0  0
 27 29  1  0  0  0  0
 28 29  1  0  0  0  0
 29 31  1  1  0  0  0
 30 25  1  1  0  0  0
 30  8  1  0  0  0  0
 30 28  1  0  0  0  0
 31 32  1  1  0  0  0
 33 31  1  0  0  0  0
 34 35  2  0  0  0  0
 36 37  1  0  0  0  0
M  END
>  <MODEL>
8

>  <REMARK>
 VINA RESULT:      -3.4      2.726      6.840
  Name = 
  5 active torsions:
  status: ('A' for Active; 'I' for Inactive)
    1  A    between atoms: C_5  and  N_12
    2  A    between atoms: C_6  and  C_31
    3  A    between atoms: C_7  and  N_14
    4  A    between atoms: C_11  and  C_33
    5  A    between atoms: N_20  and  C_36
                            x       y       z     vdW  Elec       q    Type
                         _______ _______ _______ _____ _____    ______ ____

>  <TORSDO>
F 5

$$$$
=
 OpenBabel10262422503D

 37 41  0  0  1  0  0  0  0  0999 V2000
  190.2480  176.6440  138.6660 C   0  0  0  0  0  0  0  0  0  0  0  0
  186.8290  176.8310  137.1900 C   0  0  0  0  0  0  0  0  0  0  0  0
  189.3880  175.8440  136.3350 C   0  0  0  0  0  2  0  0  0  0  0  0
  185.8630  176.2280  137.9040 C   0  0  0  0  0  3  0  0  0  0  0  0
  188.0470  177.4040  137.9190 C   0  0  1  0  0  3  0  0  0  0  0  0
  184.6140  175.8070  137.3360 N   0  0  0  0  0  0  0  0  0  0  0  0
  189.1190  176.5520  135.0680 C   0  0  0  0  0  3  0  0  0  0  0  0
  187.9760  177.2320  139.3790 N   0  0  1  0  0  0  0  0  0  0  0  0
  191.3140  177.7330  138.7890 C   0  0  0  0  0  1  0  0  0  0  0  0
  185.5960  177.8550  135.2380 C   0  0  0  0  0  2  0  0  0  0  0  0
  187.9170  177.0770  134.8100 C   0  0  0  0  0  3  0  0  0  0  0  0
  189.2890  176.7500  139.8320 C   0  0  0  0  0  2  0  0  0  0  0  0
  186.6900  176.9070  135.6780 C   0  0  1  0  0  3  0  0  0  0  0  0
  189.4080  176.9160  137.4280 C   0  0  1  0  0  3  0  0  0  0  0  0
  183.7890  176.8270  136.6540 C   0  0  1  0  0  3  0  0  0  0  0  0
  190.9290  175.2680  138.6850 C   0  0  0  0  0  1  0  0  0  0  0  0
  184.2750  177.1200  135.2300 C   0  0  0  0  0  2  0  0  0  0  0  0
  181.6750  175.9520  135.5600 C   0  0  0  0  0  3  0  0  0  0  0  0
  182.3170  176.5420  136.6710 C   0  0  0  0  0  0  0  0  0  0  0  0
  181.5620  176.9620  137.7620 C   0  0  0  0  0  3  0  0  0  0  0  0
  179.4470  177.1970  138.8310 F   0  0  0  0  0  0  0  0  0  0  0  0
  179.5380  176.2030  136.6680 C   0  0  0  0  0  3  0  0  0  0  0  0
  180.1710  176.7930  137.7670 C   0  0  0  0  0  0  0  0  0  0  0  0
  180.2890  175.7790  135.5630 C   0  0  0  0  0  3  0  0  0  0  0  0
  188.1940  178.8380  141.3710 C   0  0  0  0  0  2  0  0  0  0  0  0
  187.4430  178.1070  142.4930 C   0  0  1  0  0  3  0  0  0  0  0  0
  185.9320  178.3140  142.3930 C   0  0  0  0  0  2  0  0  0  0  0  0
  186.1070  178.7840  139.9310 C   0  0  0  0  0  2  0  0  0  0  0  0
  185.4000  177.9430  141.0080 C   0  0  2  0  0  3  0  0  0  0  0  0
  187.6270  178.5490  139.9590 C   0  0  2  0  0  3  0  0  0  0  0  0
  183.8800  178.1300  140.9770 C   0  0  2  0  0  3  0  0  0  0  0  0
  183.3520  178.6140  142.3130 C   0  0  0  0  0  1  0  0  0  0  0  0
  183.2320  176.9650  140.6060 F   0  0  0  0  0  0  0  0  0  0  0  0
  187.7720  176.7080  142.5110 N   0  0  0  0  0  0  0  0  0  0  0  0
  188.6510  176.3010  143.2090 O   0  0  0  0  0  0  0  0  0  0  0  0
  184.0630  174.5300  137.7890 C   0  0  0  0  0  2  0  0  0  0  0  0
  184.3650  173.4400  136.7710 C   0  0  0  0  0  1  0  0  0  0  0  0
  1 16  1  0  0  0  0
  1  9  1  0  0  0  0
  1 12  1  0  0  0  0
  2  4  2  0  0  0  0
  5  2  1  6  0  0  0
  5  8  1  0  0  0  0
  6 36  1  0  0  0  0
  6  4  1  0  0  0  0
  7  3  1  0  0  0  0
  8 12  1  1  0  0  0
  8 30  1  0  0  0  0
 10 13  1  0  0  0  0
 11  7  2  0  0  0  0
 13 11  1  6  0  0  0
 13  2  1  0  0  0  0
 14  3  1  1  0  0  0
 14  5  1  0  0  0  0
 14  1  1  0  0  0  0
 15 19  1  6  0  0  0
 15  6  1  0  0  0  0
 17 10  1  0  0  0  0
 17 15  1  0  0  0  0
 18 24  2  0  0  0  0
 18 19  1  0  0  0  0
 19 20  2  0  0  0  0
 20 23  1  0  0  0  0
 22 23  2  0  0  0  0
 23 21  1  0  0  0  0
 24 22  1  0  0  0  0
 25 26  1  0  0  0  0
 26 34  1  6  0  0  0
 27 26  1  0  0  0  0
 28 29  1  0  0  0  0
 29 31  1  1  0  0  0
 29 27  1  0  0  0  0
 30 28  1  1  0  0  0
 30 25  1  0  0  0  0
 31 32  1  1  0  0  0
 33 31  1  0  0  0  0
 34 35  2  0  0  0  0
 37 36  1  0  0  0  0
M  END
>  <MODEL>
9

>  <REMARK>
 VINA RESULT:      -3.3      3.088      7.412
  Name = 
  5 active torsions:
  status: ('A' for Active; 'I' for Inactive)
    1  A    between atoms: C_5  and  N_12
    2  A    between atoms: C_6  and  C_31
    3  A    between atoms: C_7  and  N_14
    4  A    between atoms: C_11  and  C_33
    5  A    between atoms: N_20  and  C_36
                            x       y       z     vdW  Elec       q    Type
                         _______ _______ _______ _____ _____    ______ ____

>  <TORSDO>
F 5

$$$$
