=
 OpenBabel10262421523D

 30 31  0  0  1  0  0  0  0  0999 V2000
  188.8030  177.6810  142.1730 C   0  0  1  0  0  0  0  0  0  0  0  0
  187.3230  176.3060  143.8840 C   0  0  0  0  0  3  0  0  0  0  0  0
  188.0970  176.4670  142.7980 C   0  0  0  0  0  3  0  0  0  0  0  0
  187.3880  177.3900  146.0550 C   0  0  0  0  0  0  0  0  0  0  0  0
  186.8220  178.2770  147.0920 C   0  0  0  0  0  3  0  0  0  0  0  0
  188.4870  176.6550  146.3570 F   0  0  0  0  0  0  0  0  0  0  0  0
  185.8580  179.1490  146.7920 C   0  0  0  0  0  3  0  0  0  0  0  0
  186.8150  177.3040  144.8420 C   0  0  0  0  0  0  0  0  0  0  0  0
  185.3890  179.3080  145.3750 C   0  0  0  0  0  2  0  0  0  0  0  0
  185.4920  177.9850  144.6100 C   0  0  0  0  0  2  0  0  0  0  0  0
  190.0290  179.4120  143.4190 O   0  0  0  0  0  1  0  0  0  0  0  0
  190.0620  178.0710  143.0280 C   0  0  1  0  0  3  0  0  0  0  0  0
  191.0920  177.9560  145.4010 C   0  0  0  0  0  2  0  0  0  0  0  0
  191.4250  176.0850  143.9580 C   0  0  0  0  0  2  0  0  0  0  0  0
  190.4870  177.2200  144.2370 C   0  0  2  0  0  3  0  0  0  0  0  0
  191.8650  176.9830  146.1640 N   0  0  0  0  0  2  0  0  0  0  0  0
  192.0260  175.7970  145.3180 C   0  0  0  0  0  2  0  0  0  0  0  0
  189.1990  177.4200  140.6920 C   0  0  2  0  0  3  0  0  0  0  0  0
  190.6150  175.8690  139.4810 O   0  0  0  0  0  1  0  0  0  0  0  0
  190.5900  176.7860  140.5350 C   0  0  0  0  0  2  0  0  0  0  0  0
  189.0960  178.7030  139.8490 C   0  0  0  0  0  2  0  0  0  0  0  0
  189.1540  178.4190  138.3550 C   0  0  0  0  0  2  0  0  0  0  0  0
  187.8140  177.9170  137.8550 C   0  0  0  0  0  1  0  0  0  0  0  0
  187.9240  178.8090  142.1230 O   0  0  0  0  0  0  0  0  0  0  0  0
  186.8310  178.6200  141.2530 C   0  0  0  0  0  2  0  0  0  0  0  0
  185.6320  179.4050  141.7530 C   0  0  0  0  0  2  0  0  0  0  0  0
  184.3580  178.8660  141.1290 C   0  0  0  0  0  2  0  0  0  0  0  0
  184.3460  177.9630  138.8060 O   0  0  0  0  0  0  0  0  0  0  0  0
  184.3970  179.0620  139.6550 C   0  0  0  0  0  0  0  0  0  0  0  0
  184.4450  180.2240  139.1750 O   0  0  0  0  0  1  0  0  0  0  0  0
  1  3  1  1  0  0  0
  1 12  1  0  0  0  0
  2  8  1  0  0  0  0
  3  2  2  0  0  0  0
  4  6  1  0  0  0  0
  4  5  1  0  0  0  0
  7  5  2  0  0  0  0
  8  4  2  0  0  0  0
  9  7  1  0  0  0  0
 10  8  1  0  0  0  0
 10  9  1  0  0  0  0
 12 11  1  1  0  0  0
 13 16  1  0  0  0  0
 14 15  1  0  0  0  0
 14 17  1  0  0  0  0
 15 12  1  6  0  0  0
 15 13  1  0  0  0  0
 17 16  1  0  0  0  0
 18 21  1  6  0  0  0
 18  1  1  0  0  0  0
 19 20  1  0  0  0  0
 20 18  1  0  0  0  0
 22 21  1  0  0  0  0
 23 22  1  0  0  0  0
 24  1  1  0  0  0  0
 25 26  1  0  0  0  0
 25 24  1  0  0  0  0
 27 26  1  0  0  0  0
 28 29  2  0  0  0  0
 29 27  1  0  0  0  0
 30 29  1  0  0  0  0
M  END
>  <MODEL>
1

>  <REMARK>
 VINA RESULT:      -6.9      0.000      0.000
  Name = 
  13 active torsions:
  status: ('A' for Active; 'I' for Inactive)
    1  A    between atoms: C_1  and  C_22
    2  A    between atoms: C_3  and  C_19
    3  A    between atoms: C_4  and  C_13
    4  A    between atoms: C_7  and  C_15
    5  A    between atoms: C_7  and  C_16
    6  A    between atoms: C_8  and  C_12
    7  A    between atoms: C_8  and  C_13
    8  A    between atoms: C_13  and  C_23
    9  A    between atoms: C_13  and  O_27
   10  A    between atoms: C_16  and  C_30
   11  A    between atoms: C_19  and  C_23
   12  A    between atoms: C_23  and  C_25
   13  A    between atoms: O_27  and  C_30
                            x       y       z     vdW  Elec       q    Type
                         _______ _______ _______ _____ _____    ______ ____

>  <TORSDO>
F 13

$$$$
=
 OpenBabel10262421523D

 30 31  0  0  1  0  0  0  0  0999 V2000
  189.4010  177.6920  142.4670 C   0  0  1  0  0  0  0  0  0  0  0  0
  187.5590  176.2820  143.7440 C   0  0  0  0  0  3  0  0  0  0  0  0
  188.5050  176.4920  142.8130 C   0  0  0  0  0  3  0  0  0  0  0  0
  185.8550  177.8590  144.4540 C   0  0  0  0  0  0  0  0  0  0  0  0
  185.3300  178.8940  145.3670 C   0  0  0  0  0  3  0  0  0  0  0  0
  185.1730  177.5920  143.3120 F   0  0  0  0  0  0  0  0  0  0  0  0
  185.8580  179.0670  146.5800 C   0  0  0  0  0  3  0  0  0  0  0  0
  186.9930  177.2050  144.7450 C   0  0  0  0  0  0  0  0  0  0  0  0
  186.9420  178.1530  147.0750 C   0  0  0  0  0  2  0  0  0  0  0  0
  187.8180  177.6620  145.9190 C   0  0  0  0  0  2  0  0  0  0  0  0
  190.4910  179.0160  144.2310 O   0  0  0  0  0  1  0  0  0  0  0  0
  190.5630  177.8180  143.5170 C   0  0  1  0  0  3  0  0  0  0  0  0
  191.4250  177.0710  145.8410 C   0  0  0  0  0  2  0  0  0  0  0  0
  191.7460  175.5760  144.0090 C   0  0  0  0  0  2  0  0  0  0  0  0
  190.8580  176.6770  144.5050 C   0  0  2  0  0  3  0  0  0  0  0  0
  192.0890  175.8920  146.3850 N   0  0  0  0  0  2  0  0  0  0  0  0
  192.2380  174.9320  145.2890 C   0  0  0  0  0  2  0  0  0  0  0  0
  189.9670  177.5940  141.0220 C   0  0  2  0  0  3  0  0  0  0  0  0
  188.8010  176.8520  139.0300 O   0  0  0  0  0  1  0  0  0  0  0  0
  189.3880  176.4170  140.2210 C   0  0  0  0  0  2  0  0  0  0  0  0
  191.5040  177.5390  141.0230 C   0  0  0  0  0  2  0  0  0  0  0  0
  192.0680  177.1370  139.6680 C   0  0  0  0  0  2  0  0  0  0  0  0
  193.5830  177.1080  139.7070 C   0  0  0  0  0  1  0  0  0  0  0  0
  188.6470  178.9080  142.4820 O   0  0  0  0  0  0  0  0  0  0  0  0
  188.0220  179.1870  141.2480 C   0  0  0  0  0  2  0  0  0  0  0  0
  186.5150  179.1280  141.4090 C   0  0  0  0  0  2  0  0  0  0  0  0
  185.8740  178.6030  140.1370 C   0  0  0  0  0  2  0  0  0  0  0  0
  183.4530  178.7110  140.7140 O   0  0  0  0  0  1  0  0  0  0  0  0
  184.5210  179.1980  139.9710 C   0  0  0  0  0  0  0  0  0  0  0  0
  184.3490  180.1610  139.1810 O   0  0  0  0  0  0  0  0  0  0  0  0
  1 24  1  0  0  0  0
  1  3  1  1  0  0  0
  1 12  1  0  0  0  0
  2  8  1  0  0  0  0
  3  2  2  0  0  0  0
  4  8  2  0  0  0  0
  4  5  1  0  0  0  0
  5  7  2  0  0  0  0
  6  4  1  0  0  0  0
  7  9  1  0  0  0  0
  8 10  1  0  0  0  0
 10  9  1  0  0  0  0
 12 11  1  1  0  0  0
 13 16  1  0  0  0  0
 14 15  1  0  0  0  0
 14 17  1  0  0  0  0
 15 12  1  6  0  0  0
 15 13  1  0  0  0  0
 17 16  1  0  0  0  0
 18 20  1  1  0  0  0
 18 21  1  0  0  0  0
 18  1  1  0  0  0  0
 19 20  1  0  0  0  0
 22 23  1  0  0  0  0
 22 21  1  0  0  0  0
 25 26  1  0  0  0  0
 25 24  1  0  0  0  0
 27 26  1  0  0  0  0
 29 27  1  0  0  0  0
 29 28  1  0  0  0  0
 30 29  2  0  0  0  0
M  END
>  <MODEL>
2

>  <REMARK>
 VINA RESULT:      -6.8      1.456      2.071
  Name = 
  13 active torsions:
  status: ('A' for Active; 'I' for Inactive)
    1  A    between atoms: C_1  and  C_22
    2  A    between atoms: C_3  and  C_19
    3  A    between atoms: C_4  and  C_13
    4  A    between atoms: C_7  and  C_15
    5  A    between atoms: C_7  and  C_16
    6  A    between atoms: C_8  and  C_12
    7  A    between atoms: C_8  and  C_13
    8  A    between atoms: C_13  and  C_23
    9  A    between atoms: C_13  and  O_27
   10  A    between atoms: C_16  and  C_30
   11  A    between atoms: C_19  and  C_23
   12  A    between atoms: C_23  and  C_25
   13  A    between atoms: O_27  and  C_30
                            x       y       z     vdW  Elec       q    Type
                         _______ _______ _______ _____ _____    ______ ____

>  <TORSDO>
F 13

$$$$
=
 OpenBabel10262421523D

 30 31  0  0  1  0  0  0  0  0999 V2000
  189.1280  177.5700  142.3610 C   0  0  1  0  0  0  0  0  0  0  0  0
  187.2620  176.3330  143.7750 C   0  0  0  0  0  3  0  0  0  0  0  0
  188.2020  176.4320  142.8200 C   0  0  0  0  0  3  0  0  0  0  0  0
  187.2620  177.4480  145.9310 C   0  0  0  0  0  0  0  0  0  0  0  0
  186.6730  178.3620  146.9310 C   0  0  0  0  0  3  0  0  0  0  0  0
  188.3320  176.6950  146.2880 F   0  0  0  0  0  0  0  0  0  0  0  0
  185.7410  179.2490  146.5800 C   0  0  0  0  0  3  0  0  0  0  0  0
  186.7370  177.3560  144.6970 C   0  0  0  0  0  0  0  0  0  0  0  0
  185.3340  179.3970  145.1420 C   0  0  0  0  0  2  0  0  0  0  0  0
  185.4390  178.0610  144.4020 C   0  0  0  0  0  2  0  0  0  0  0  0
  190.6210  175.6210  142.1990 O   0  0  0  0  0  1  0  0  0  0  0  0
  190.5240  176.9900  141.9350 C   0  0  1  0  0  3  0  0  0  0  0  0
  190.8290  176.2110  139.4850 C   0  0  0  0  0  2  0  0  0  0  0  0
  192.5640  177.5370  140.4490 C   0  0  0  0  0  2  0  0  0  0  0  0
  191.0940  177.2580  140.5320 C   0  0  2  0  0  3  0  0  0  0  0  0
  191.8380  176.3860  138.4460 N   0  0  0  0  0  2  0  0  0  0  0  0
  192.8830  177.2520  138.9960 C   0  0  0  0  0  2  0  0  0  0  0  0
  188.4970  178.4000  141.2080 C   0  0  2  0  0  3  0  0  0  0  0  0
  186.1680  179.0570  141.3540 O   0  0  0  0  0  1  0  0  0  0  0  0
  187.4700  179.4340  141.6940 C   0  0  0  0  0  2  0  0  0  0  0  0
  187.8760  177.4900  140.1340 C   0  0  0  0  0  2  0  0  0  0  0  0
  187.9680  178.0950  138.7420 C   0  0  0  0  0  2  0  0  0  0  0  0
  186.6590  177.9230  137.9970 C   0  0  0  0  0  1  0  0  0  0  0  0
  189.3350  178.5120  143.4180 O   0  0  0  0  0  0  0  0  0  0  0  0
  190.6820  178.5970  143.8280 C   0  0  0  0  0  2  0  0  0  0  0  0
  190.8070  178.1730  145.2800 C   0  0  0  0  0  2  0  0  0  0  0  0
  191.5550  176.8560  145.3770 C   0  0  0  0  0  2  0  0  0  0  0  0
  192.5500  175.4290  147.1600 O   0  0  0  0  0  0  0  0  0  0  0  0
  191.6790  176.4500  146.8020 C   0  0  0  0  0  0  0  0  0  0  0  0
  191.0190  177.0510  147.6880 O   0  0  0  0  0  1  0  0  0  0  0  0
  1  3  1  1  0  0  0
  1 24  1  0  0  0  0
  2  8  1  0  0  0  0
  3  2  2  0  0  0  0
  4  6  1  0  0  0  0
  4  5  1  0  0  0  0
  7  5  2  0  0  0  0
  8  4  2  0  0  0  0
  9  7  1  0  0  0  0
 10  8  1  0  0  0  0
 10  9  1  0  0  0  0
 12 11  1  6  0  0  0
 12  1  1  0  0  0  0
 13 15  1  0  0  0  0
 14 15  1  0  0  0  0
 15 12  1  1  0  0  0
 16 17  1  0  0  0  0
 16 13  1  0  0  0  0
 17 14  1  0  0  0  0
 18 21  1  6  0  0  0
 18 20  1  0  0  0  0
 18  1  1  0  0  0  0
 19 20  1  0  0  0  0
 22 21  1  0  0  0  0
 23 22  1  0  0  0  0
 24 25  1  0  0  0  0
 25 26  1  0  0  0  0
 26 27  1  0  0  0  0
 27 29  1  0  0  0  0
 29 28  2  0  0  0  0
 29 30  1  0  0  0  0
M  END
>  <MODEL>
3

>  <REMARK>
 VINA RESULT:      -6.8      2.330      5.064
  Name = 
  13 active torsions:
  status: ('A' for Active; 'I' for Inactive)
    1  A    between atoms: C_1  and  C_22
    2  A    between atoms: C_3  and  C_19
    3  A    between atoms: C_4  and  C_13
    4  A    between atoms: C_7  and  C_15
    5  A    between atoms: C_7  and  C_16
    6  A    between atoms: C_8  and  C_12
    7  A    between atoms: C_8  and  C_13
    8  A    between atoms: C_13  and  C_23
    9  A    between atoms: C_13  and  O_27
   10  A    between atoms: C_16  and  C_30
   11  A    between atoms: C_19  and  C_23
   12  A    between atoms: C_23  and  C_25
   13  A    between atoms: O_27  and  C_30
                            x       y       z     vdW  Elec       q    Type
                         _______ _______ _______ _____ _____    ______ ____

>  <TORSDO>
F 13

$$$$
=
 OpenBabel10262421523D

 30 31  0  0  1  0  0  0  0  0999 V2000
  188.9680  177.5240  142.1230 C   0  0  1  0  0  0  0  0  0  0  0  0
  189.9140  179.0920  144.0350 C   0  0  0  0  0  3  0  0  0  0  0  0
  189.4680  178.8110  142.7990 C   0  0  0  0  0  3  0  0  0  0  0  0
  191.3800  177.7000  145.3790 C   0  0  0  0  0  0  0  0  0  0  0  0
  191.6260  176.6940  146.4320 C   0  0  0  0  0  3  0  0  0  0  0  0
  192.4210  178.0970  144.6040 F   0  0  0  0  0  0  0  0  0  0  0  0
  190.6850  176.4050  147.3320 C   0  0  0  0  0  3  0  0  0  0  0  0
  190.1480  178.1990  145.1840 C   0  0  0  0  0  0  0  0  0  0  0  0
  189.3860  177.1600  147.3460 C   0  0  0  0  0  2  0  0  0  0  0  0
  188.9890  177.5940  145.9320 C   0  0  0  0  0  2  0  0  0  0  0  0
  187.6920  179.1720  140.8140 O   0  0  0  0  0  1  0  0  0  0  0  0
  188.2100  177.8740  140.7920 C   0  0  1  0  0  3  0  0  0  0  0  0
  189.1630  178.8550  138.5930 C   0  0  0  0  0  2  0  0  0  0  0  0
  188.1690  176.6870  138.4990 C   0  0  0  0  0  2  0  0  0  0  0  0
  188.8710  177.6360  139.4230 C   0  0  2  0  0  3  0  0  0  0  0  0
  189.2840  178.4080  137.2100 N   0  0  0  0  0  2  0  0  0  0  0  0
  188.7380  177.0510  137.1430 C   0  0  0  0  0  2  0  0  0  0  0  0
  190.1280  176.5230  141.8540 C   0  0  2  0  0  3  0  0  0  0  0  0
  191.5330  175.2890  143.3960 O   0  0  0  0  0  1  0  0  0  0  0  0
  190.2290  175.4120  142.9100 C   0  0  0  0  0  2  0  0  0  0  0  0
  191.4750  177.2510  141.7100 C   0  0  0  0  0  2  0  0  0  0  0  0
  191.9510  177.3030  140.2660 C   0  0  0  0  0  2  0  0  0  0  0  0
  193.4660  177.2910  140.2020 C   0  0  0  0  0  1  0  0  0  0  0  0
  188.0680  176.8170  142.9810 O   0  0  0  0  0  0  0  0  0  0  0  0
  186.7620  177.3490  142.9730 C   0  0  0  0  0  2  0  0  0  0  0  0
  186.2770  177.5490  144.3970 C   0  0  0  0  0  2  0  0  0  0  0  0
  185.6150  178.9070  144.5370 C   0  0  0  0  0  2  0  0  0  0  0  0
  185.3860  178.9070  147.0180 O   0  0  0  0  0  1  0  0  0  0  0  0
  184.7810  178.9370  145.7680 C   0  0  0  0  0  0  0  0  0  0  0  0
  183.5290  179.0200  145.6780 O   0  0  0  0  0  0  0  0  0  0  0  0
  1  3  1  1  0  0  0
  1 24  1  0  0  0  0
  2  8  1  0  0  0  0
  3  2  2  0  0  0  0
  4  5  1  0  0  0  0
  5  7  2  0  0  0  0
  6  4  1  0  0  0  0
  7  9  1  0  0  0  0
  8  4  2  0  0  0  0
  8 10  1  0  0  0  0
 10  9  1  0  0  0  0
 12 11  1  1  0  0  0
 12  1  1  0  0  0  0
 13 15  1  0  0  0  0
 14 15  1  0  0  0  0
 15 12  1  1  0  0  0
 16 13  1  0  0  0  0
 17 16  1  0  0  0  0
 17 14  1  0  0  0  0
 18 21  1  1  0  0  0
 18  1  1  0  0  0  0
 18 20  1  0  0  0  0
 20 19  1  0  0  0  0
 22 21  1  0  0  0  0
 23 22  1  0  0  0  0
 25 24  1  0  0  0  0
 25 26  1  0  0  0  0
 26 27  1  0  0  0  0
 27 29  1  0  0  0  0
 29 28  1  0  0  0  0
 30 29  2  0  0  0  0
M  END
>  <MODEL>
4

>  <REMARK>
 VINA RESULT:      -6.7      2.861      4.990
  Name = 
  13 active torsions:
  status: ('A' for Active; 'I' for Inactive)
    1  A    between atoms: C_1  and  C_22
    2  A    between atoms: C_3  and  C_19
    3  A    between atoms: C_4  and  C_13
    4  A    between atoms: C_7  and  C_15
    5  A    between atoms: C_7  and  C_16
    6  A    between atoms: C_8  and  C_12
    7  A    between atoms: C_8  and  C_13
    8  A    between atoms: C_13  and  C_23
    9  A    between atoms: C_13  and  O_27
   10  A    between atoms: C_16  and  C_30
   11  A    between atoms: C_19  and  C_23
   12  A    between atoms: C_23  and  C_25
   13  A    between atoms: O_27  and  C_30
                            x       y       z     vdW  Elec       q    Type
                         _______ _______ _______ _____ _____    ______ ____

>  <TORSDO>
F 13

$$$$
=
 OpenBabel10262421523D

 30 31  0  0  1  0  0  0  0  0999 V2000
  189.3740  177.6160  142.8800 C   0  0  1  0  0  0  0  0  0  0  0  0
  187.4510  176.3000  144.1360 C   0  0  0  0  0  3  0  0  0  0  0  0
  188.4460  176.4470  143.2470 C   0  0  0  0  0  3  0  0  0  0  0  0
  187.3340  177.3990  146.2980 C   0  0  0  0  0  0  0  0  0  0  0  0
  186.6690  178.2700  147.2890 C   0  0  0  0  0  3  0  0  0  0  0  0
  188.4380  176.7070  146.6770 F   0  0  0  0  0  0  0  0  0  0  0  0
  185.6950  179.1030  146.9200 C   0  0  0  0  0  3  0  0  0  0  0  0
  186.8450  177.2840  145.0520 C   0  0  0  0  0  0  0  0  0  0  0  0
  185.3140  179.2370  145.4740 C   0  0  0  0  0  2  0  0  0  0  0  0
  185.5150  177.9140  144.7290 C   0  0  0  0  0  2  0  0  0  0  0  0
  189.3570  179.4750  141.2680 O   0  0  0  0  0  1  0  0  0  0  0  0
  188.5580  178.7430  142.1500 C   0  0  1  0  0  3  0  0  0  0  0  0
  187.2400  178.4000  139.9480 C   0  0  0  0  0  2  0  0  0  0  0  0
  186.0540  179.2810  141.8220 C   0  0  0  0  0  2  0  0  0  0  0  0
  187.2250  178.4230  141.4510 C   0  0  2  0  0  3  0  0  0  0  0  0
  185.8640  178.5970  139.5060 N   0  0  0  0  0  2  0  0  0  0  0  0
  185.1020  179.0770  140.6610 C   0  0  0  0  0  2  0  0  0  0  0  0
  190.1090  178.1840  144.1280 C   0  0  2  0  0  3  0  0  0  0  0  0
  192.1130  179.5470  144.2020 O   0  0  0  0  0  1  0  0  0  0  0  0
  190.7530  179.5580  143.8830 C   0  0  0  0  0  2  0  0  0  0  0  0
  191.1530  177.1900  144.6650 C   0  0  0  0  0  2  0  0  0  0  0  0
  191.1020  177.0630  146.1800 C   0  0  0  0  0  2  0  0  0  0  0  0
  192.0190  175.9530  146.6540 C   0  0  0  0  0  1  0  0  0  0  0  0
  190.4200  177.1800  142.0080 O   0  0  0  0  0  0  0  0  0  0  0  0
  189.9580  176.3690  140.9510 C   0  0  0  0  0  2  0  0  0  0  0  0
  190.7420  176.6700  139.6880 C   0  0  0  0  0  2  0  0  0  0  0  0
  189.8970  176.3660  138.4640 C   0  0  0  0  0  2  0  0  0  0  0  0
  190.8410  175.8720  136.2120 O   0  0  0  0  0  0  0  0  0  0  0  0
  190.6550  175.4880  137.5340 C   0  0  0  0  0  0  0  0  0  0  0  0
  191.1540  174.4110  137.9500 O   0  0  0  0  0  1  0  0  0  0  0  0
  1  3  1  1  0  0  0
  1 18  1  0  0  0  0
  2  8  1  0  0  0  0
  3  2  2  0  0  0  0
  4  6  1  0  0  0  0
  4  5  1  0  0  0  0
  7  5  2  0  0  0  0
  8  4  2  0  0  0  0
  9  7  1  0  0  0  0
 10  8  1  0  0  0  0
 10  9  1  0  0  0  0
 12 11  1  6  0  0  0
 12  1  1  0  0  0  0
 13 15  1  0  0  0  0
 15 14  1  0  0  0  0
 15 12  1  6  0  0  0
 16 13  1  0  0  0  0
 16 17  1  0  0  0  0
 17 14  1  0  0  0  0
 18 20  1  6  0  0  0
 18 21  1  0  0  0  0
 20 19  1  0  0  0  0
 21 22  1  0  0  0  0
 22 23  1  0  0  0  0
 24  1  1  0  0  0  0
 25 24  1  0  0  0  0
 26 25  1  0  0  0  0
 27 26  1  0  0  0  0
 28 29  2  0  0  0  0
 29 30  1  0  0  0  0
 29 27  1  0  0  0  0
M  END
>  <MODEL>
5

>  <REMARK>
 VINA RESULT:      -6.6      2.481      5.302
  Name = 
  13 active torsions:
  status: ('A' for Active; 'I' for Inactive)
    1  A    between atoms: C_1  and  C_22
    2  A    between atoms: C_3  and  C_19
    3  A    between atoms: C_4  and  C_13
    4  A    between atoms: C_7  and  C_15
    5  A    between atoms: C_7  and  C_16
    6  A    between atoms: C_8  and  C_12
    7  A    between atoms: C_8  and  C_13
    8  A    between atoms: C_13  and  C_23
    9  A    between atoms: C_13  and  O_27
   10  A    between atoms: C_16  and  C_30
   11  A    between atoms: C_19  and  C_23
   12  A    between atoms: C_23  and  C_25
   13  A    between atoms: O_27  and  C_30
                            x       y       z     vdW  Elec       q    Type
                         _______ _______ _______ _____ _____    ______ ____

>  <TORSDO>
F 13

$$$$
=
 OpenBabel10262421523D

 30 31  0  0  1  0  0  0  0  0999 V2000
  189.3730  177.2630  143.0840 C   0  0  1  0  0  0  0  0  0  0  0  0
  187.0310  176.3280  143.8890 C   0  0  0  0  0  3  0  0  0  0  0  0
  188.3060  176.2290  143.4770 C   0  0  0  0  0  3  0  0  0  0  0  0
  185.8500  177.9310  145.2780 C   0  0  0  0  0  0  0  0  0  0  0  0
  184.8840  179.0300  145.4740 C   0  0  0  0  0  3  0  0  0  0  0  0
  186.3940  177.3400  146.3710 F   0  0  0  0  0  0  0  0  0  0  0  0
  184.4610  179.7600  144.4400 C   0  0  0  0  0  3  0  0  0  0  0  0
  186.1730  177.5170  144.0410 C   0  0  0  0  0  0  0  0  0  0  0  0
  185.0260  179.5340  143.0670 C   0  0  0  0  0  2  0  0  0  0  0  0
  185.4080  178.0650  142.8650 C   0  0  0  0  0  2  0  0  0  0  0  0
  189.2120  179.2490  144.5270 O   0  0  0  0  0  1  0  0  0  0  0  0
  189.8750  178.0300  144.3590 C   0  0  1  0  0  3  0  0  0  0  0  0
  189.2500  177.9960  146.8720 C   0  0  0  0  0  2  0  0  0  0  0  0
  191.3250  177.0040  146.2330 C   0  0  0  0  0  2  0  0  0  0  0  0
  189.9530  177.3250  145.7240 C   0  0  2  0  0  3  0  0  0  0  0  0
  189.8550  177.4850  148.0970 N   0  0  0  0  0  2  0  0  0  0  0  0
  191.1010  176.8140  147.7190 C   0  0  0  0  0  2  0  0  0  0  0  0
  190.5630  176.6060  142.3280 C   0  0  2  0  0  3  0  0  0  0  0  0
  192.0590  175.3360  143.7510 O   0  0  0  0  0  1  0  0  0  0  0  0
  190.9610  175.2340  142.8940 C   0  0  0  0  0  2  0  0  0  0  0  0
  191.7840  177.5410  142.2800 C   0  0  0  0  0  2  0  0  0  0  0  0
  192.4880  177.5030  140.9330 C   0  0  0  0  0  2  0  0  0  0  0  0
  191.5150  177.1280  139.8320 C   0  0  0  0  0  1  0  0  0  0  0  0
  188.8390  178.2180  142.1630 O   0  0  0  0  0  0  0  0  0  0  0  0
  188.3190  177.6280  140.9930 C   0  0  0  0  0  2  0  0  0  0  0  0
  188.3680  178.6230  139.8480 C   0  0  0  0  0  2  0  0  0  0  0  0
  188.1860  177.9040  138.5240 C   0  0  0  0  0  2  0  0  0  0  0  0
  185.8170  178.6280  138.7950 O   0  0  0  0  0  1  0  0  0  0  0  0
  186.8480  178.2230  137.9570 C   0  0  0  0  0  0  0  0  0  0  0  0
  186.6570  178.1540  136.7160 O   0  0  0  0  0  0  0  0  0  0  0  0
  1  3  1  1  0  0  0
  1 12  1  0  0  0  0
  2  8  1  0  0  0  0
  3  2  2  0  0  0  0
  4  5  1  0  0  0  0
  4  6  1  0  0  0  0
  7  5  2  0  0  0  0
  8  4  2  0  0  0  0
  9  7  1  0  0  0  0
 10  9  1  0  0  0  0
 10  8  1  0  0  0  0
 12 11  1  1  0  0  0
 13 16  1  0  0  0  0
 14 17  1  0  0  0  0
 15 12  1  6  0  0  0
 15 14  1  0  0  0  0
 15 13  1  0  0  0  0
 17 16  1  0  0  0  0
 18 21  1  1  0  0  0
 18 20  1  0  0  0  0
 18  1  1  0  0  0  0
 20 19  1  0  0  0  0
 22 21  1  0  0  0  0
 23 22  1  0  0  0  0
 24  1  1  0  0  0  0
 25 24  1  0  0  0  0
 26 25  1  0  0  0  0
 27 26  1  0  0  0  0
 29 27  1  0  0  0  0
 29 28  1  0  0  0  0
 30 29  2  0  0  0  0
M  END
>  <MODEL>
6

>  <REMARK>
 VINA RESULT:      -6.2      1.761      2.703
  Name = 
  13 active torsions:
  status: ('A' for Active; 'I' for Inactive)
    1  A    between atoms: C_1  and  C_22
    2  A    between atoms: C_3  and  C_19
    3  A    between atoms: C_4  and  C_13
    4  A    between atoms: C_7  and  C_15
    5  A    between atoms: C_7  and  C_16
    6  A    between atoms: C_8  and  C_12
    7  A    between atoms: C_8  and  C_13
    8  A    between atoms: C_13  and  C_23
    9  A    between atoms: C_13  and  O_27
   10  A    between atoms: C_16  and  C_30
   11  A    between atoms: C_19  and  C_23
   12  A    between atoms: C_23  and  C_25
   13  A    between atoms: O_27  and  C_30
                            x       y       z     vdW  Elec       q    Type
                         _______ _______ _______ _____ _____    ______ ____

>  <TORSDO>
F 13

$$$$
=
 OpenBabel10262421523D

 30 31  0  0  1  0  0  0  0  0999 V2000
  188.3180  177.9160  141.8080 C   0  0  1  0  0  0  0  0  0  0  0  0
  190.1170  178.9400  143.4580 C   0  0  0  0  0  3  0  0  0  0  0  0
  189.1870  178.9850  142.4900 C   0  0  0  0  0  3  0  0  0  0  0  0
  190.5490  177.7090  145.5060 C   0  0  0  0  0  0  0  0  0  0  0  0
  191.2230  176.6430  146.2740 C   0  0  0  0  0  3  0  0  0  0  0  0
  189.7980  178.6190  146.1760 F   0  0  0  0  0  0  0  0  0  0  0  0
  191.8200  175.6260  145.6510 C   0  0  0  0  0  3  0  0  0  0  0  0
  190.6880  177.7830  144.1710 C   0  0  0  0  0  0  0  0  0  0  0  0
  191.7430  175.4980  144.1560 C   0  0  0  0  0  2  0  0  0  0  0  0
  191.6790  176.8760  143.4900 C   0  0  0  0  0  2  0  0  0  0  0  0
  187.9290  175.9380  143.2180 O   0  0  0  0  0  1  0  0  0  0  0  0
  187.4190  177.1930  142.8730 C   0  0  1  0  0  3  0  0  0  0  0  0
  187.1050  177.1380  145.4430 C   0  0  0  0  0  2  0  0  0  0  0  0
  185.6020  178.4870  144.1730 C   0  0  0  0  0  2  0  0  0  0  0  0
  186.9870  177.9150  144.1600 C   0  0  2  0  0  3  0  0  0  0  0  0
  186.2050  177.7650  146.4040 N   0  0  0  0  0  2  0  0  0  0  0  0
  185.3130  178.6490  145.6510 C   0  0  0  0  0  2  0  0  0  0  0  0
  187.4500  178.5190  140.6660 C   0  0  2  0  0  3  0  0  0  0  0  0
  185.3760  179.7530  140.8940 O   0  0  0  0  0  1  0  0  0  0  0  0
  185.9430  178.4770  140.9610 C   0  0  0  0  0  2  0  0  0  0  0  0
  187.7510  177.8460  139.3160 C   0  0  0  0  0  2  0  0  0  0  0  0
  186.7630  178.2550  138.2350 C   0  0  0  0  0  2  0  0  0  0  0  0
  187.4320  178.2600  136.8740 C   0  0  0  0  0  1  0  0  0  0  0  0
  189.1350  176.9340  141.1640 O   0  0  0  0  0  0  0  0  0  0  0  0
  190.1880  177.4950  140.4130 C   0  0  0  0  0  2  0  0  0  0  0  0
  191.0560  176.3920  139.8370 C   0  0  0  0  0  2  0  0  0  0  0  0
  191.4900  176.7510  138.4280 C   0  0  0  0  0  2  0  0  0  0  0  0
  193.7060  177.1250  139.5060 O   0  0  0  0  0  1  0  0  0  0  0  0
  192.9740  176.8290  138.3620 C   0  0  0  0  0  0  0  0  0  0  0  0
  193.5700  176.5990  137.2790 O   0  0  0  0  0  0  0  0  0  0  0  0
  1  3  1  1  0  0  0
  1 12  1  0  0  0  0
  2  8  1  0  0  0  0
  3  2  2  0  0  0  0
  4  6  1  0  0  0  0
  4  5  1  0  0  0  0
  7  5  2  0  0  0  0
  8  4  2  0  0  0  0
  9  7  1  0  0  0  0
 10  9  1  0  0  0  0
 10  8  1  0  0  0  0
 12 11  1  1  0  0  0
 13 16  1  0  0  0  0
 14 17  1  0  0  0  0
 15 12  1  6  0  0  0
 15 14  1  0  0  0  0
 15 13  1  0  0  0  0
 17 16  1  0  0  0  0
 18 21  1  6  0  0  0
 18 20  1  0  0  0  0
 18  1  1  0  0  0  0
 19 20  1  0  0  0  0
 22 21  1  0  0  0  0
 23 22  1  0  0  0  0
 24  1  1  0  0  0  0
 25 24  1  0  0  0  0
 26 25  1  0  0  0  0
 27 26  1  0  0  0  0
 29 27  1  0  0  0  0
 29 28  1  0  0  0  0
 30 29  2  0  0  0  0
M  END
>  <MODEL>
7

>  <REMARK>
 VINA RESULT:      -6.0      1.980      5.414
  Name = 
  13 active torsions:
  status: ('A' for Active; 'I' for Inactive)
    1  A    between atoms: C_1  and  C_22
    2  A    between atoms: C_3  and  C_19
    3  A    between atoms: C_4  and  C_13
    4  A    between atoms: C_7  and  C_15
    5  A    between atoms: C_7  and  C_16
    6  A    between atoms: C_8  and  C_12
    7  A    between atoms: C_8  and  C_13
    8  A    between atoms: C_13  and  C_23
    9  A    between atoms: C_13  and  O_27
   10  A    between atoms: C_16  and  C_30
   11  A    between atoms: C_19  and  C_23
   12  A    between atoms: C_23  and  C_25
   13  A    between atoms: O_27  and  C_30
                            x       y       z     vdW  Elec       q    Type
                         _______ _______ _______ _____ _____    ______ ____

>  <TORSDO>
F 13

$$$$
=
 OpenBabel10262421523D

 30 31  0  0  1  0  0  0  0  0999 V2000
  182.9080  178.3380  139.8630 C   0  0  1  0  0  0  0  0  0  0  0  0
  182.3330  175.7750  139.5330 C   0  0  0  0  0  3  0  0  0  0  0  0
  183.0030  176.8170  140.0550 C   0  0  0  0  0  3  0  0  0  0  0  0
  180.0000  175.6120  138.8830 C   0  0  0  0  0  0  0  0  0  0  0  0
  178.9310  175.4380  137.8790 C   0  0  0  0  0  3  0  0  0  0  0  0
  179.6630  175.6180  140.1970 F   0  0  0  0  0  0  0  0  0  0  0  0
  179.1820  175.6040  136.5790 C   0  0  0  0  0  3  0  0  0  0  0  0
  181.2810  175.7460  138.5000 C   0  0  0  0  0  0  0  0  0  0  0  0
  180.5370  176.0560  136.1170 C   0  0  0  0  0  2  0  0  0  0  0  0
  181.6360  175.5420  137.0510 C   0  0  0  0  0  2  0  0  0  0  0  0
  184.5830  179.9640  139.0850 O   0  0  0  0  0  1  0  0  0  0  0  0
  183.8940  178.8010  138.7310 C   0  0  1  0  0  3  0  0  0  0  0  0
  186.3480  178.1860  138.1790 C   0  0  0  0  0  2  0  0  0  0  0  0
  184.6540  177.4390  136.6730 C   0  0  0  0  0  2  0  0  0  0  0  0
  184.8930  177.8130  138.1050 C   0  0  2  0  0  3  0  0  0  0  0  0
  187.0330  177.4380  137.1310 N   0  0  0  0  0  2  0  0  0  0  0  0
  186.0040  176.9140  136.2290 C   0  0  0  0  0  2  0  0  0  0  0  0
  181.4530  178.7920  139.5500 C   0  0  2  0  0  3  0  0  0  0  0  0
  180.0260  179.6540  137.7900 O   0  0  0  0  0  1  0  0  0  0  0  0
  181.3390  179.6280  138.2660 C   0  0  0  0  0  2  0  0  0  0  0  0
  180.8320  179.5470  140.7380 C   0  0  0  0  0  2  0  0  0  0  0  0
  179.7870  178.7160  141.4670 C   0  0  0  0  0  2  0  0  0  0  0  0
  180.2550  178.3780  142.8680 C   0  0  0  0  0  1  0  0  0  0  0  0
  183.2520  179.0250  141.0700 O   0  0  0  0  0  0  0  0  0  0  0  0
  184.0610  178.2560  141.9320 C   0  0  0  0  0  2  0  0  0  0  0  0
  184.7710  179.1640  142.9190 C   0  0  0  0  0  2  0  0  0  0  0  0
  185.2340  178.3650  144.1230 C   0  0  0  0  0  2  0  0  0  0  0  0
  185.4810  179.3190  146.4120 O   0  0  0  0  0  1  0  0  0  0  0  0
  184.6510  178.9400  145.3650 C   0  0  0  0  0  0  0  0  0  0  0  0
  183.4080  179.1120  145.4560 O   0  0  0  0  0  0  0  0  0  0  0  0
  1  3  1  1  0  0  0
  1 24  1  0  0  0  0
  2  3  2  0  0  0  0
  4  6  1  0  0  0  0
  5  4  1  0  0  0  0
  7  5  2  0  0  0  0
  8  4  2  0  0  0  0
  8  2  1  0  0  0  0
  9  7  1  0  0  0  0
  9 10  1  0  0  0  0
 10  8  1  0  0  0  0
 12 11  1  1  0  0  0
 12  1  1  0  0  0  0
 14 15  1  0  0  0  0
 15 13  1  0  0  0  0
 15 12  1  6  0  0  0
 16 13  1  0  0  0  0
 17 14  1  0  0  0  0
 17 16  1  0  0  0  0
 18 20  1  6  0  0  0
 18  1  1  0  0  0  0
 18 21  1  0  0  0  0
 19 20  1  0  0  0  0
 21 22  1  0  0  0  0
 22 23  1  0  0  0  0
 24 25  1  0  0  0  0
 25 26  1  0  0  0  0
 26 27  1  0  0  0  0
 27 29  1  0  0  0  0
 29 30  2  0  0  0  0
 29 28  1  0  0  0  0
M  END
>  <MODEL>
8

>  <REMARK>
 VINA RESULT:      -5.9      4.680      8.617
  Name = 
  13 active torsions:
  status: ('A' for Active; 'I' for Inactive)
    1  A    between atoms: C_1  and  C_22
    2  A    between atoms: C_3  and  C_19
    3  A    between atoms: C_4  and  C_13
    4  A    between atoms: C_7  and  C_15
    5  A    between atoms: C_7  and  C_16
    6  A    between atoms: C_8  and  C_12
    7  A    between atoms: C_8  and  C_13
    8  A    between atoms: C_13  and  C_23
    9  A    between atoms: C_13  and  O_27
   10  A    between atoms: C_16  and  C_30
   11  A    between atoms: C_19  and  C_23
   12  A    between atoms: C_23  and  C_25
   13  A    between atoms: O_27  and  C_30
                            x       y       z     vdW  Elec       q    Type
                         _______ _______ _______ _____ _____    ______ ____

>  <TORSDO>
F 13

$$$$
=
 OpenBabel10262421523D

 30 31  0  0  1  0  0  0  0  0999 V2000
  189.1850  177.2410  142.9580 C   0  0  1  0  0  0  0  0  0  0  0  0
  186.8680  176.3230  143.8500 C   0  0  0  0  0  3  0  0  0  0  0  0
  188.1230  176.2150  143.3830 C   0  0  0  0  0  3  0  0  0  0  0  0
  185.5140  178.1420  142.9800 C   0  0  0  0  0  0  0  0  0  0  0  0
  184.7900  179.4200  143.1290 C   0  0  0  0  0  3  0  0  0  0  0  0
  185.6580  177.6160  141.7380 F   0  0  0  0  0  0  0  0  0  0  0  0
  184.4670  179.8850  144.3360 C   0  0  0  0  0  3  0  0  0  0  0  0
  186.0320  177.5210  144.0540 C   0  0  0  0  0  0  0  0  0  0  0  0
  184.7560  179.0740  145.5670 C   0  0  0  0  0  2  0  0  0  0  0  0
  186.0190  178.2290  145.3830 C   0  0  0  0  0  2  0  0  0  0  0  0
  189.1460  179.3740  141.7330 O   0  0  0  0  0  1  0  0  0  0  0  0
  188.6800  178.0570  141.7150 C   0  0  1  0  0  3  0  0  0  0  0  0
  190.1960  177.6570  139.6540 C   0  0  0  0  0  2  0  0  0  0  0  0
  187.8650  177.9940  139.2650 C   0  0  0  0  0  2  0  0  0  0  0  0
  188.8420  177.5010  140.2890 C   0  0  2  0  0  3  0  0  0  0  0  0
  190.0010  177.5580  138.2110 N   0  0  0  0  0  2  0  0  0  0  0  0
  188.5660  177.6970  137.9560 C   0  0  0  0  0  2  0  0  0  0  0  0
  189.5700  178.1930  144.1270 C   0  0  2  0  0  3  0  0  0  0  0  0
  190.9990  180.1490  144.1890 O   0  0  0  0  0  1  0  0  0  0  0  0
  190.9910  178.7650  144.0040 C   0  0  0  0  0  2  0  0  0  0  0  0
  189.3830  177.5090  145.4920 C   0  0  0  0  0  2  0  0  0  0  0  0
  189.1080  178.5100  146.6050 C   0  0  0  0  0  2  0  0  0  0  0  0
  189.0620  177.8120  147.9510 C   0  0  0  0  0  1  0  0  0  0  0  0
  190.4080  176.5880  142.6030 O   0  0  0  0  0  0  0  0  0  0  0  0
  190.6510  175.4210  143.3560 C   0  0  0  0  0  2  0  0  0  0  0  0
  192.0110  175.5100  144.0210 C   0  0  0  0  0  2  0  0  0  0  0  0
  192.0360  174.6550  145.2750 C   0  0  0  0  0  2  0  0  0  0  0  0
  192.2610  176.8950  146.3430 O   0  0  0  0  0  0  0  0  0  0  0  0
  192.0590  175.5270  146.4800 C   0  0  0  0  0  0  0  0  0  0  0  0
  191.8670  175.0320  147.6200 O   0  0  0  0  0  1  0  0  0  0  0  0
  1  3  1  1  0  0  0
  1 18  1  0  0  0  0
  2  8  1  0  0  0  0
  3  2  2  0  0  0  0
  4  5  1  0  0  0  0
  4  8  2  0  0  0  0
  5  7  2  0  0  0  0
  6  4  1  0  0  0  0
  7  9  1  0  0  0  0
  8 10  1  0  0  0  0
 10  9  1  0  0  0  0
 12 11  1  6  0  0  0
 12  1  1  0  0  0  0
 13 15  1  0  0  0  0
 14 15  1  0  0  0  0
 15 12  1  1  0  0  0
 16 13  1  0  0  0  0
 17 16  1  0  0  0  0
 17 14  1  0  0  0  0
 18 20  1  6  0  0  0
 18 21  1  0  0  0  0
 20 19  1  0  0  0  0
 21 22  1  0  0  0  0
 22 23  1  0  0  0  0
 24  1  1  0  0  0  0
 24 25  1  0  0  0  0
 25 26  1  0  0  0  0
 26 27  1  0  0  0  0
 27 29  1  0  0  0  0
 28 29  2  0  0  0  0
 29 30  1  0  0  0  0
M  END
>  <MODEL>
9

>  <REMARK>
 VINA RESULT:      -5.7      2.733      6.255
  Name = 
  13 active torsions:
  status: ('A' for Active; 'I' for Inactive)
    1  A    between atoms: C_1  and  C_22
    2  A    between atoms: C_3  and  C_19
    3  A    between atoms: C_4  and  C_13
    4  A    between atoms: C_7  and  C_15
    5  A    between atoms: C_7  and  C_16
    6  A    between atoms: C_8  and  C_12
    7  A    between atoms: C_8  and  C_13
    8  A    between atoms: C_13  and  C_23
    9  A    between atoms: C_13  and  O_27
   10  A    between atoms: C_16  and  C_30
   11  A    between atoms: C_19  and  C_23
   12  A    between atoms: C_23  and  C_25
   13  A    between atoms: O_27  and  C_30
                            x       y       z     vdW  Elec       q    Type
                         _______ _______ _______ _____ _____    ______ ____

>  <TORSDO>
F 13

$$$$
