=
 OpenBabel10262421033D

 32 38  0  0  1  0  0  0  0  0999 V2000
  182.0420  174.7530  136.9930 C   0  0  1  0  0  3  0  0  0  0  0  0
  182.9480  177.4170  140.5990 C   0  0  0  0  0  3  0  0  0  0  0  0
  180.8920  175.7890  136.8980 C   0  0  1  0  0  3  0  0  0  0  0  0
  180.5400  172.9100  137.7920 C   0  0  2  0  0  3  0  0  0  0  0  0
  179.5270  178.4410  139.8450 C   0  0  0  0  0  2  0  0  0  0  0  0
  179.5320  175.3360  137.5260 C   0  0  1  0  0  3  0  0  0  0  0  0
  179.4510  176.2600  141.2080 C   0  0  0  0  0  2  0  0  0  0  0  0
  179.9270  175.6350  139.8890 C   0  0  2  0  0  0  0  0  0  0  0  0
  179.4970  173.9460  138.2090 C   0  0  2  0  0  3  0  0  0  0  0  0
  183.7910  179.2160  139.2410 C   0  0  0  0  0  3  0  0  0  0  0  0
  182.2160  177.6060  138.2700 C   0  0  0  0  0  0  0  0  0  0  0  0
  179.5500  174.1780  139.7340 C   0  0  0  0  0  2  0  0  0  0  0  0
  181.5000  173.3500  136.6960 C   0  0  2  0  0  3  0  0  0  0  0  0
  183.7420  178.5560  140.4660 C   0  0  0  0  0  0  0  0  0  0  0  0
  183.0250  178.7560  138.1700 C   0  0  0  0  0  3  0  0  0  0  0  0
  182.1720  176.9440  139.5360 C   0  0  0  0  0  0  0  0  0  0  0  0
  181.4670  175.6520  139.7900 C   0  0  0  0  0  2  0  0  0  0  0  0
  179.9980  178.1670  137.3500 C   0  0  0  0  0  2  0  0  0  0  0  0
  179.8890  171.7330  137.4150 O   0  0  0  0  0  1  0  0  0  0  0  0
  181.2540  177.3140  137.1020 C   0  0  2  0  0  0  0  0  0  0  0  0
  179.1740  176.2040  138.7040 C   0  0  1  0  0  3  0  0  0  0  0  0
  182.6230  172.3220  136.6230 C   0  0  0  0  0  1  0  0  0  0  0  0
  178.9360  177.7100  141.0600 C   0  0  0  0  0  2  0  0  0  0  0  0
  179.1640  177.7180  138.5410 C   0  0  1  0  0  3  0  0  0  0  0  0
  185.6920  179.7490  141.1140 O   0  0  0  0  0  0  0  0  0  0  0  0
  185.9440  178.4340  141.5380 C   0  0  0  0  0  2  0  0  0  0  0  0
  184.5880  179.0270  141.6070 C   0  0  2  0  0  3  0  0  0  0  0  0
  183.4370  175.1510  135.8790 S   0  0  0  0  0  0  0  0  0  0  0  0
  184.6160  175.2000  137.2570 C   0  0  0  0  0  1  0  0  0  0  0  0
  181.9420  177.9630  135.5130 S   0  0  0  0  0  0  0  0  0  0  0  0
  180.4600  178.8900  134.9960 C   0  0  0  0  0  2  0  0  0  0  0  0
  180.8510  180.3080  134.6420 C   0  0  0  0  0  1  0  0  0  0  0  0
  1 28  1  6  0  0  0
  3  1  1  0  0  0  0
  3 20  1  0  0  0  0
  3  6  1  0  0  0  0
  4  9  1  0  0  0  0
  5 23  1  0  0  0  0
  6  9  1  0  0  0  0
  6 21  1  0  0  0  0
  8  7  1  0  0  0  0
  9 12  1  0  0  0  0
 10 14  2  0  0  0  0
 11 16  1  0  0  0  0
 12  8  1  0  0  0  0
 13  1  1  0  0  0  0
 13  4  1  0  0  0  0
 14  2  1  0  0  0  0
 14 27  1  0  0  0  0
 15 11  2  0  0  0  0
 15 10  1  0  0  0  0
 16 17  1  0  0  0  0
 16  2  2  0  0  0  0
 17  8  1  0  0  0  0
 18 24  1  0  0  0  0
 19  4  1  0  0  0  0
 20 18  1  0  0  0  0
 20 11  1  0  0  0  0
 21  8  1  0  0  0  0
 22 13  1  0  0  0  0
 23  7  1  0  0  0  0
 24 21  1  0  0  0  0
 24  5  1  0  0  0  0
 25 26  1  0  0  0  0
 25 27  1  0  0  0  0
 26 27  1  0  0  0  0
 28 29  1  0  0  0  0
 30 20  1  0  0  0  0
 31 30  1  0  0  0  0
 32 31  1  0  0  0  0
M  END
>  <MODEL>
1

>  <REMARK>
 VINA RESULT:      -5.0      0.000      0.000
  Name = 
  4 active torsions:
  status: ('A' for Active; 'I' for Inactive)
    1  A    between atoms: S_1  and  C_4
    2  A    between atoms: S_1  and  C_27
    3  A    between atoms: C_2  and  S_14
    4  A    between atoms: C_19  and  C_26
                            x       y       z     vdW  Elec       q    Type
                         _______ _______ _______ _____ _____    ______ ____

>  <TORSDO>
F 4

$$$$
=
 OpenBabel10262421033D

 32 38  0  0  1  0  0  0  0  0999 V2000
  182.1080  178.2980  141.2530 C   0  0  1  0  0  3  0  0  0  0  0  0
  181.3500  174.8150  138.3860 C   0  0  0  0  0  3  0  0  0  0  0  0
  181.7130  179.0550  139.9590 C   0  0  1  0  0  3  0  0  0  0  0  0
  184.5360  178.8990  141.0620 C   0  0  2  0  0  3  0  0  0  0  0  0
  181.5670  177.5950  136.0310 C   0  0  0  0  0  2  0  0  0  0  0  0
  182.9110  179.5600  139.0880 C   0  0  1  0  0  3  0  0  0  0  0  0
  183.9520  176.8490  136.6430 C   0  0  0  0  0  2  0  0  0  0  0  0
  183.6290  177.5430  137.9740 C   0  0  2  0  0  0  0  0  0  0  0  0
  184.3380  179.2100  139.5800 C   0  0  2  0  0  3  0  0  0  0  0  0
  178.9580  175.0730  138.4760 C   0  0  0  0  0  3  0  0  0  0  0  0
  180.3990  176.9930  138.9770 C   0  0  0  0  0  0  0  0  0  0  0  0
  184.8530  178.0420  138.7120 C   0  0  0  0  0  2  0  0  0  0  0  0
  183.2880  179.0070  141.9270 C   0  0  2  0  0  3  0  0  0  0  0  0
  180.0730  174.2720  138.2420 C   0  0  0  0  0  0  0  0  0  0  0  0
  179.1240  176.4140  138.8200 C   0  0  0  0  0  3  0  0  0  0  0  0
  181.5320  176.1600  138.7270 C   0  0  0  0  0  0  0  0  0  0  0  0
  182.9510  176.5680  138.9590 C   0  0  0  0  0  2  0  0  0  0  0  0
  180.4180  179.1190  137.7270 C   0  0  0  0  0  2  0  0  0  0  0  0
  185.5450  179.7210  141.5700 O   0  0  0  0  0  1  0  0  0  0  0  0
  180.4660  178.5230  139.1460 C   0  0  2  0  0  0  0  0  0  0  0  0
  182.9280  178.8660  137.7520 C   0  0  1  0  0  3  0  0  0  0  0  0
  183.6100  178.3900  143.2830 C   0  0  0  0  0  1  0  0  0  0  0  0
  182.9500  177.1760  135.5120 C   0  0  0  0  0  2  0  0  0  0  0  0
  181.6670  178.8570  136.8980 C   0  0  1  0  0  3  0  0  0  0  0  0
  181.0310  172.3600  137.2070 O   0  0  0  0  0  0  0  0  0  0  0  0
  179.8840  172.6210  136.4390 C   0  0  0  0  0  2  0  0  0  0  0  0
  179.9000  172.8240  137.9060 C   0  0  2  0  0  3  0  0  0  0  0  0
  180.7100  178.1270  142.4200 S   0  0  0  0  0  0  0  0  0  0  0  0
  180.7540  179.8910  142.8420 C   0  0  0  0  0  1  0  0  0  0  0  0
  178.9310  179.1580  139.9600 S   0  0  0  0  0  0  0  0  0  0  0  0
  178.9310  180.8020  139.1750 C   0  0  0  0  0  2  0  0  0  0  0  0
  178.9310  181.8710  140.2470 C   0  0  0  0  0  1  0  0  0  0  0  0
  1 13  1  0  0  0  0
  1 28  1  1  0  0  0
  2 16  1  0  0  0  0
  3  1  1  0  0  0  0
  4 19  1  0  0  0  0
  4 13  1  0  0  0  0
  5 24  1  0  0  0  0
  6  9  1  0  0  0  0
  6  3  1  0  0  0  0
  7  8  1  0  0  0  0
  8 12  1  0  0  0  0
  8 17  1  0  0  0  0
  9  4  1  0  0  0  0
 10 15  2  0  0  0  0
 11 20  1  0  0  0  0
 12  9  1  0  0  0  0
 13 22  1  0  0  0  0
 14  2  2  0  0  0  0
 14 10  1  0  0  0  0
 15 11  1  0  0  0  0
 16 17  1  0  0  0  0
 16 11  2  0  0  0  0
 18 20  1  0  0  0  0
 20  3  1  0  0  0  0
 20 30  1  0  0  0  0
 21  8  1  0  0  0  0
 21  6  1  0  0  0  0
 23  5  1  0  0  0  0
 23  7  1  0  0  0  0
 24 18  1  0  0  0  0
 24 21  1  0  0  0  0
 25 27  1  0  0  0  0
 26 25  1  0  0  0  0
 26 27  1  0  0  0  0
 27 14  1  0  0  0  0
 28 29  1  0  0  0  0
 31 30  1  0  0  0  0
 31 32  1  0  0  0  0
M  END
>  <MODEL>
2

>  <REMARK>
 VINA RESULT:      -4.8      2.219      6.307
  Name = 
  4 active torsions:
  status: ('A' for Active; 'I' for Inactive)
    1  A    between atoms: S_1  and  C_4
    2  A    between atoms: S_1  and  C_27
    3  A    between atoms: C_2  and  S_14
    4  A    between atoms: C_19  and  C_26
                            x       y       z     vdW  Elec       q    Type
                         _______ _______ _______ _____ _____    ______ ____

>  <TORSDO>
F 4

$$$$
=
 OpenBabel10262421033D

 32 38  0  0  1  0  0  0  0  0999 V2000
  181.1890  175.3490  136.7120 C   0  0  1  0  0  3  0  0  0  0  0  0
  181.2350  179.9110  137.0470 C   0  0  0  0  0  3  0  0  0  0  0  0
  181.4430  175.5370  138.2300 C   0  0  1  0  0  3  0  0  0  0  0  0
  183.5410  174.6170  136.2390 C   0  0  2  0  0  3  0  0  0  0  0  0
  182.7160  178.9820  140.2510 C   0  0  0  0  0  2  0  0  0  0  0  0
  182.9420  175.4500  138.6720 C   0  0  1  0  0  3  0  0  0  0  0  0
  184.5430  178.8850  138.4430 C   0  0  0  0  0  2  0  0  0  0  0  0
  183.7990  177.6110  138.0200 C   0  0  2  0  0  0  0  0  0  0  0  0
  183.9960  175.2430  137.5570 C   0  0  2  0  0  3  0  0  0  0  0  0
  179.0600  180.0010  138.0740 C   0  0  0  0  0  3  0  0  0  0  0  0
  180.3980  177.9540  138.2590 C   0  0  0  0  0  0  0  0  0  0  0  0
  184.6720  176.6070  137.2980 C   0  0  0  0  0  2  0  0  0  0  0  0
  182.0730  174.2180  136.1760 C   0  0  2  0  0  3  0  0  0  0  0  0
  180.0690  180.6190  137.3390 C   0  0  0  0  0  0  0  0  0  0  0  0
  179.2340  178.6990  138.5390 C   0  0  0  0  0  3  0  0  0  0  0  0
  181.4260  178.6040  137.5090 C   0  0  0  0  0  0  0  0  0  0  0  0
  182.6680  177.9330  137.0200 C   0  0  0  0  0  2  0  0  0  0  0  0
  181.1740  176.9500  140.3730 C   0  0  0  0  0  2  0  0  0  0  0  0
  184.3500  173.5150  135.9540 O   0  0  0  0  0  1  0  0  0  0  0  0
  180.5740  176.6130  138.9960 C   0  0  2  0  0  0  0  0  0  0  0  0
  183.4110  176.7730  139.2200 C   0  0  1  0  0  3  0  0  0  0  0  0
  181.7440  173.8930  134.7230 C   0  0  0  0  0  1  0  0  0  0  0  0
  184.1290  179.4150  139.8350 C   0  0  0  0  0  2  0  0  0  0  0  0
  182.6100  177.4530  140.3210 C   0  0  1  0  0  3  0  0  0  0  0  0
  181.0860  182.7170  136.8810 O   0  0  0  0  0  0  0  0  0  0  0  0
  180.1280  183.0130  137.8650 C   0  0  0  0  0  2  0  0  0  0  0  0
  179.8730  182.0050  136.8100 C   0  0  2  0  0  3  0  0  0  0  0  0
  179.4290  175.0240  136.3310 S   0  0  0  0  0  0  0  0  0  0  0  0
  179.3220  176.4750  135.2470 C   0  0  0  0  0  1  0  0  0  0  0  0
  178.9310  175.8600  139.3850 S   0  0  0  0  0  0  0  0  0  0  0  0
  179.3360  175.3100  141.0740 C   0  0  0  0  0  2  0  0  0  0  0  0
  179.4410  173.8010  141.1010 C   0  0  0  0  0  1  0  0  0  0  0  0
  1 28  1  1  0  0  0
  1  3  1  0  0  0  0
  2 14  2  0  0  0  0
  2 16  1  0  0  0  0
  3  6  1  0  0  0  0
  3 20  1  0  0  0  0
  4  9  1  0  0  0  0
  5 24  1  0  0  0  0
  6 21  1  0  0  0  0
  7 23  1  0  0  0  0
  8  7  1  0  0  0  0
  8 21  1  0  0  0  0
  9  6  1  0  0  0  0
 10 15  2  0  0  0  0
 11 15  1  0  0  0  0
 11 20  1  0  0  0  0
 12  9  1  0  0  0  0
 12  8  1  0  0  0  0
 13  4  1  0  0  0  0
 13  1  1  0  0  0  0
 14 10  1  0  0  0  0
 16 11  2  0  0  0  0
 17 16  1  0  0  0  0
 17  8  1  0  0  0  0
 19  4  1  0  0  0  0
 20 30  1  0  0  0  0
 20 18  1  0  0  0  0
 21 24  1  0  0  0  0
 22 13  1  0  0  0  0
 23  5  1  0  0  0  0
 24 18  1  0  0  0  0
 25 26  1  0  0  0  0
 27 25  1  0  0  0  0
 27 14  1  0  0  0  0
 27 26  1  0  0  0  0
 29 28  1  0  0  0  0
 30 31  1  0  0  0  0
 31 32  1  0  0  0  0
M  END
>  <MODEL>
3

>  <REMARK>
 VINA RESULT:      -4.6      2.504      4.933
  Name = 
  4 active torsions:
  status: ('A' for Active; 'I' for Inactive)
    1  A    between atoms: S_1  and  C_4
    2  A    between atoms: S_1  and  C_27
    3  A    between atoms: C_2  and  S_14
    4  A    between atoms: C_19  and  C_26
                            x       y       z     vdW  Elec       q    Type
                         _______ _______ _______ _____ _____    ______ ____

>  <TORSDO>
F 4

$$$$
=
 OpenBabel10262421033D

 32 38  0  0  1  0  0  0  0  0999 V2000
  182.0190  177.9560  140.2970 C   0  0  1  0  0  3  0  0  0  0  0  0
  181.4780  174.1040  137.8900 C   0  0  0  0  0  3  0  0  0  0  0  0
  181.7110  178.5230  138.8870 C   0  0  1  0  0  3  0  0  0  0  0  0
  184.4510  178.5600  140.1910 C   0  0  2  0  0  3  0  0  0  0  0  0
  181.8440  176.5390  135.1960 C   0  0  0  0  0  2  0  0  0  0  0  0
  182.9640  178.9220  138.0400 C   0  0  1  0  0  3  0  0  0  0  0  0
  184.1840  175.9170  136.0650 C   0  0  0  0  0  2  0  0  0  0  0  0
  183.7670  176.7820  137.2640 C   0  0  2  0  0  0  0  0  0  0  0  0
  184.3550  178.6630  138.6700 C   0  0  2  0  0  3  0  0  0  0  0  0
  179.0850  174.3380  137.7820 C   0  0  0  0  0  3  0  0  0  0  0  0
  180.4780  176.3290  138.1110 C   0  0  0  0  0  0  0  0  0  0  0  0
  184.9340  177.3950  138.0080 C   0  0  0  0  0  2  0  0  0  0  0  0
  183.1450  178.7680  140.9460 C   0  0  2  0  0  3  0  0  0  0  0  0
  180.2160  173.5280  137.7350 C   0  0  0  0  0  0  0  0  0  0  0  0
  179.2190  175.7150  137.9480 C   0  0  0  0  0  3  0  0  0  0  0  0
  181.6300  175.4850  138.0550 C   0  0  0  0  0  0  0  0  0  0  0  0
  183.0270  175.9420  138.3250 C   0  0  0  0  0  2  0  0  0  0  0  0
  180.5730  178.2640  136.5860 C   0  0  0  0  0  2  0  0  0  0  0  0
  185.4180  179.4580  140.6490 O   0  0  0  0  0  1  0  0  0  0  0  0
  180.5250  177.8680  138.0720 C   0  0  2  0  0  0  0  0  0  0  0  0
  183.0760  178.0530  136.8150 C   0  0  1  0  0  3  0  0  0  0  0  0
  183.3760  178.3470  142.3930 C   0  0  0  0  0  1  0  0  0  0  0  0
  183.2610  176.0730  134.8350 C   0  0  0  0  0  2  0  0  0  0  0  0
  181.8780  177.9090  135.8870 C   0  0  1  0  0  3  0  0  0  0  0  0
  181.2960  171.4900  137.1640 O   0  0  0  0  0  0  0  0  0  0  0  0
  180.2970  171.6290  136.1870 C   0  0  0  0  0  2  0  0  0  0  0  0
  180.0740  172.0460  137.5910 C   0  0  2  0  0  3  0  0  0  0  0  0
  180.5440  177.9270  141.3790 S   0  0  0  0  0  0  0  0  0  0  0  0
  180.5360  179.7330  141.5370 C   0  0  0  0  0  1  0  0  0  0  0  0
  178.9350  178.5860  138.6860 S   0  0  0  0  0  0  0  0  0  0  0  0
  178.9330  180.0610  137.6160 C   0  0  0  0  0  2  0  0  0  0  0  0
  179.2760  181.2820  138.4410 C   0  0  0  0  0  1  0  0  0  0  0  0
  1 13  1  0  0  0  0
  1 28  1  1  0  0  0
  2 16  1  0  0  0  0
  3  1  1  0  0  0  0
  4 19  1  0  0  0  0
  4 13  1  0  0  0  0
  5 24  1  0  0  0  0
  6  9  1  0  0  0  0
  6  3  1  0  0  0  0
  7  8  1  0  0  0  0
  8 12  1  0  0  0  0
  8 17  1  0  0  0  0
  9  4  1  0  0  0  0
 10 15  2  0  0  0  0
 12  9  1  0  0  0  0
 13 22  1  0  0  0  0
 14 10  1  0  0  0  0
 14  2  2  0  0  0  0
 15 11  1  0  0  0  0
 16 11  2  0  0  0  0
 16 17  1  0  0  0  0
 18 20  1  0  0  0  0
 20 11  1  0  0  0  0
 20 30  1  0  0  0  0
 20  3  1  0  0  0  0
 21  8  1  0  0  0  0
 21  6  1  0  0  0  0
 23  5  1  0  0  0  0
 23  7  1  0  0  0  0
 24 18  1  0  0  0  0
 24 21  1  0  0  0  0
 25 27  1  0  0  0  0
 26 25  1  0  0  0  0
 26 27  1  0  0  0  0
 27 14  1  0  0  0  0
 28 29  1  0  0  0  0
 31 32  1  0  0  0  0
 31 30  1  0  0  0  0
M  END
>  <MODEL>
4

>  <REMARK>
 VINA RESULT:      -4.3      2.079      6.172
  Name = 
  4 active torsions:
  status: ('A' for Active; 'I' for Inactive)
    1  A    between atoms: S_1  and  C_4
    2  A    between atoms: S_1  and  C_27
    3  A    between atoms: C_2  and  S_14
    4  A    between atoms: C_19  and  C_26
                            x       y       z     vdW  Elec       q    Type
                         _______ _______ _______ _____ _____    ______ ____

>  <TORSDO>
F 4

$$$$
=
 OpenBabel10262421033D

 32 38  0  0  1  0  0  0  0  0999 V2000
  181.4090  179.8140  137.3530 C   0  0  1  0  0  3  0  0  0  0  0  0
  185.4910  177.7540  137.2240 C   0  0  0  0  0  3  0  0  0  0  0  0
  181.1220  178.5260  138.1670 C   0  0  1  0  0  3  0  0  0  0  0  0
  180.1220  179.0330  135.3470 C   0  0  2  0  0  3  0  0  0  0  0  0
  183.3750  174.9950  138.3360 C   0  0  0  0  0  2  0  0  0  0  0  0
  180.4640  177.3590  137.3590 C   0  0  1  0  0  3  0  0  0  0  0  0
  183.1680  175.2110  135.7810 C   0  0  0  0  0  2  0  0  0  0  0  0
  182.3390  176.4530  136.1380 C   0  0  2  0  0  0  0  0  0  0  0  0
  180.2230  177.5940  135.8470 C   0  0  2  0  0  3  0  0  0  0  0  0
  185.9970  178.2940  139.5150 C   0  0  0  0  0  3  0  0  0  0  0  0
  183.6570  178.1760  138.7910 C   0  0  0  0  0  0  0  0  0  0  0  0
  181.3270  176.8340  135.0790 C   0  0  0  0  0  2  0  0  0  0  0  0
  180.2310  180.1090  136.4190 C   0  0  2  0  0  3  0  0  0  0  0  0
  186.4320  177.9640  138.2330 C   0  0  0  0  0  0  0  0  0  0  0  0
  184.6330  178.3790  139.7880 C   0  0  0  0  0  3  0  0  0  0  0  0
  184.1190  177.8320  137.4830 C   0  0  0  0  0  0  0  0  0  0  0  0
  183.2380  177.6990  136.2830 C   0  0  0  0  0  2  0  0  0  0  0  0
  181.9650  176.6290  139.7000 C   0  0  0  0  0  2  0  0  0  0  0  0
  178.9310  179.1850  134.6340 O   0  0  0  0  0  1  0  0  0  0  0  0
  182.1880  178.0830  139.2470 C   0  0  2  0  0  0  0  0  0  0  0  0
  181.3920  176.1740  137.2860 C   0  0  1  0  0  3  0  0  0  0  0  0
  180.3990  181.4500  135.7130 C   0  0  0  0  0  1  0  0  0  0  0  0
  183.4340  174.2740  136.9820 C   0  0  0  0  0  2  0  0  0  0  0  0
  181.9900  175.6120  138.5680 C   0  0  1  0  0  3  0  0  0  0  0  0
  188.5320  179.0590  138.4250 O   0  0  0  0  0  0  0  0  0  0  0  0
  188.2940  179.0230  137.0410 C   0  0  0  0  0  2  0  0  0  0  0  0
  187.8950  177.9050  137.9280 C   0  0  2  0  0  3  0  0  0  0  0  0
  181.7570  181.2570  138.4230 S   0  0  0  0  0  0  0  0  0  0  0  0
  180.0390  181.3340  138.9980 C   0  0  0  0  0  1  0  0  0  0  0  0
  181.9150  179.0860  140.7760 S   0  0  0  0  0  0  0  0  0  0  0  0
  180.3800  178.2600  141.3080 C   0  0  0  0  0  2  0  0  0  0  0  0
  180.1880  178.4630  142.7960 C   0  0  0  0  0  1  0  0  0  0  0  0
  1  3  1  0  0  0  0
  1 28  1  1  0  0  0
  2 16  2  0  0  0  0
  2 14  1  0  0  0  0
  3 20  1  0  0  0  0
  4  9  1  0  0  0  0
  4 13  1  0  0  0  0
  5 24  1  0  0  0  0
  6  3  1  0  0  0  0
  7  8  1  0  0  0  0
  7 23  1  0  0  0  0
  8 17  1  0  0  0  0
  8 21  1  0  0  0  0
  9  6  1  0  0  0  0
 10 15  1  0  0  0  0
 11 20  1  0  0  0  0
 11 15  2  0  0  0  0
 12  9  1  0  0  0  0
 12  8  1  0  0  0  0
 13  1  1  0  0  0  0
 14 10  2  0  0  0  0
 16 11  1  0  0  0  0
 17 16  1  0  0  0  0
 19  4  1  0  0  0  0
 20 18  1  0  0  0  0
 20 30  1  0  0  0  0
 21  6  1  0  0  0  0
 21 24  1  0  0  0  0
 22 13  1  0  0  0  0
 23  5  1  0  0  0  0
 24 18  1  0  0  0  0
 26 27  1  0  0  0  0
 26 25  1  0  0  0  0
 27 14  1  0  0  0  0
 27 25  1  0  0  0  0
 28 29  1  0  0  0  0
 30 31  1  0  0  0  0
 31 32  1  0  0  0  0
M  END
>  <MODEL>
5

>  <REMARK>
 VINA RESULT:      -4.2      2.811      5.314
  Name = 
  4 active torsions:
  status: ('A' for Active; 'I' for Inactive)
    1  A    between atoms: S_1  and  C_4
    2  A    between atoms: S_1  and  C_27
    3  A    between atoms: C_2  and  S_14
    4  A    between atoms: C_19  and  C_26
                            x       y       z     vdW  Elec       q    Type
                         _______ _______ _______ _____ _____    ______ ____

>  <TORSDO>
F 4

$$$$
=
 OpenBabel10262421033D

 32 38  0  0  1  0  0  0  0  0999 V2000
  183.9480  178.0160  138.3880 C   0  0  1  0  0  3  0  0  0  0  0  0
  180.9020  174.7290  139.3040 C   0  0  0  0  0  3  0  0  0  0  0  0
  183.1700  177.9460  137.0490 C   0  0  1  0  0  3  0  0  0  0  0  0
  185.9890  176.8960  137.4540 C   0  0  2  0  0  3  0  0  0  0  0  0
  180.6340  174.9070  135.6690 C   0  0  0  0  0  2  0  0  0  0  0  0
  183.8370  177.0710  135.9350 C   0  0  1  0  0  3  0  0  0  0  0  0
  182.6810  173.4700  136.2720 C   0  0  0  0  0  2  0  0  0  0  0  0
  183.2930  174.8280  136.6440 C   0  0  2  0  0  0  0  0  0  0  0  0
  185.1530  176.3410  136.3030 C   0  0  2  0  0  3  0  0  0  0  0  0
  179.0760  176.2820  139.5190 C   0  0  0  0  0  3  0  0  0  0  0  0
  181.0320  176.8980  138.1740 C   0  0  0  0  0  0  0  0  0  0  0  0
  184.8040  174.8590  136.5570 C   0  0  0  0  0  2  0  0  0  0  0  0
  185.4480  178.1610  138.1080 C   0  0  2  0  0  3  0  0  0  0  0  0
  179.6410  175.0430  139.8110 C   0  0  0  0  0  0  0  0  0  0  0  0
  179.7550  177.1830  138.7000 C   0  0  0  0  0  3  0  0  0  0  0  0
  181.5950  175.6210  138.4780 C   0  0  0  0  0  0  0  0  0  0  0  0
  182.9800  175.1980  138.1090 C   0  0  0  0  0  2  0  0  0  0  0  0
  180.9900  177.4330  135.7670 C   0  0  0  0  0  2  0  0  0  0  0  0
  187.2960  177.1070  137.0080 O   0  0  0  0  0  1  0  0  0  0  0  0
  181.5930  177.8660  137.1150 C   0  0  2  0  0  0  0  0  0  0  0  0
  182.9730  175.8820  135.6040 C   0  0  1  0  0  3  0  0  0  0  0  0
  186.2370  178.3910  139.3920 C   0  0  0  0  0  1  0  0  0  0  0  0
  181.3760  173.5800  135.4510 C   0  0  0  0  0  2  0  0  0  0  0  0
  181.5070  176.0970  135.2530 C   0  0  1  0  0  3  0  0  0  0  0  0
  178.9320  174.5910  142.0330 O   0  0  0  0  0  0  0  0  0  0  0  0
  179.8490  173.5640  141.7550 C   0  0  0  0  0  2  0  0  0  0  0  0
  178.9310  174.0880  140.7170 C   0  0  2  0  0  3  0  0  0  0  0  0
  183.3640  179.3740  139.4670 S   0  0  0  0  0  0  0  0  0  0  0  0
  182.9800  178.2280  140.8200 C   0  0  0  0  0  1  0  0  0  0  0  0
  180.9380  179.5750  137.3810 S   0  0  0  0  0  0  0  0  0  0  0  0
  180.3320  179.8440  135.6840 C   0  0  0  0  0  2  0  0  0  0  0  0
  180.2600  181.3290  135.4040 C   0  0  0  0  0  1  0  0  0  0  0  0
  1 28  1  1  0  0  0
  2 14  1  0  0  0  0
  3 20  1  0  0  0  0
  3  1  1  0  0  0  0
  4 13  1  0  0  0  0
  6  9  1  0  0  0  0
  6  3  1  0  0  0  0
  7  8  1  0  0  0  0
  8 17  1  0  0  0  0
  9 12  1  0  0  0  0
  9  4  1  0  0  0  0
 10 14  2  0  0  0  0
 11 16  1  0  0  0  0
 11 15  2  0  0  0  0
 12  8  1  0  0  0  0
 13  1  1  0  0  0  0
 13 22  1  0  0  0  0
 14 27  1  0  0  0  0
 15 10  1  0  0  0  0
 16  2  2  0  0  0  0
 17 16  1  0  0  0  0
 18 20  1  0  0  0  0
 19  4  1  0  0  0  0
 20 30  1  0  0  0  0
 20 11  1  0  0  0  0
 21  6  1  0  0  0  0
 21  8  1  0  0  0  0
 23  5  1  0  0  0  0
 23  7  1  0  0  0  0
 24 21  1  0  0  0  0
 24  5  1  0  0  0  0
 24 18  1  0  0  0  0
 26 25  1  0  0  0  0
 27 26  1  0  0  0  0
 27 25  1  0  0  0  0
 28 29  1  0  0  0  0
 31 30  1  0  0  0  0
 32 31  1  0  0  0  0
M  END
>  <MODEL>
6

>  <REMARK>
 VINA RESULT:      -4.2      2.187      5.334
  Name = 
  4 active torsions:
  status: ('A' for Active; 'I' for Inactive)
    1  A    between atoms: S_1  and  C_4
    2  A    between atoms: S_1  and  C_27
    3  A    between atoms: C_2  and  S_14
    4  A    between atoms: C_19  and  C_26
                            x       y       z     vdW  Elec       q    Type
                         _______ _______ _______ _____ _____    ______ ____

>  <TORSDO>
F 4

$$$$
=
 OpenBabel10262421033D

 32 38  0  0  1  0  0  0  0  0999 V2000
  183.4870  173.6730  136.8450 C   0  0  1  0  0  3  0  0  0  0  0  0
  182.7010  177.3050  139.5110 C   0  0  0  0  0  3  0  0  0  0  0  0
  183.3130  174.7910  135.7850 C   0  0  1  0  0  3  0  0  0  0  0  0
  181.2630  172.6240  136.3460 C   0  0  2  0  0  3  0  0  0  0  0  0
  181.6270  178.5990  136.2720 C   0  0  0  0  0  2  0  0  0  0  0  0
  181.8850  174.8970  135.1540 C   0  0  1  0  0  3  0  0  0  0  0  0
  179.7180  177.1890  137.2680 C   0  0  0  0  0  2  0  0  0  0  0  0
  180.6340  176.0170  136.8890 C   0  0  2  0  0  0  0  0  0  0  0  0
  180.8040  173.9230  135.6860 C   0  0  2  0  0  3  0  0  0  0  0  0
  184.8970  178.2230  139.1540 C   0  0  0  0  0  3  0  0  0  0  0  0
  183.9380  176.7040  137.4850 C   0  0  0  0  0  0  0  0  0  0  0  0
  179.8930  174.7200  136.6440 C   0  0  0  0  0  2  0  0  0  0  0  0
  182.7690  172.4020  136.3770 C   0  0  2  0  0  3  0  0  0  0  0  0
  183.7490  178.1220  139.9370 C   0  0  0  0  0  0  0  0  0  0  0  0
  184.9770  177.5390  137.9420 C   0  0  0  0  0  3  0  0  0  0  0  0
  182.7650  176.6150  138.2960 C   0  0  0  0  0  0  0  0  0  0  0  0
  181.6210  175.6910  138.0300 C   0  0  0  0  0  2  0  0  0  0  0  0
  183.4920  177.2810  135.1290 C   0  0  0  0  0  2  0  0  0  0  0  0
  180.6320  171.5470  135.7220 O   0  0  0  0  0  1  0  0  0  0  0  0
  184.0410  176.1710  136.0430 C   0  0  2  0  0  0  0  0  0  0  0  0
  181.2400  176.2100  135.5150 C   0  0  1  0  0  3  0  0  0  0  0  0
  183.0440  171.2290  137.3120 C   0  0  0  0  0  1  0  0  0  0  0  0
  180.1350  178.5350  136.6310 C   0  0  0  0  0  2  0  0  0  0  0  0
  181.9920  177.5080  135.2560 C   0  0  1  0  0  3  0  0  0  0  0  0
  184.9290  179.3780  141.5720 O   0  0  0  0  0  0  0  0  0  0  0  0
  184.5770  178.1950  142.2430 C   0  0  0  0  0  2  0  0  0  0  0  0
  183.6730  178.8270  141.2540 C   0  0  2  0  0  3  0  0  0  0  0  0
  185.2450  173.3200  137.2100 S   0  0  0  0  0  0  0  0  0  0  0  0
  185.4960  172.5340  135.5940 C   0  0  0  0  0  1  0  0  0  0  0  0
  185.8110  175.9950  135.5370 S   0  0  0  0  0  0  0  0  0  0  0  0
  185.9240  177.5500  134.5940 C   0  0  0  0  0  2  0  0  0  0  0  0
  187.1800  178.2920  134.9950 C   0  0  0  0  0  1  0  0  0  0  0  0
  1 28  1  6  0  0  0
  2 14  1  0  0  0  0
  3 20  1  0  0  0  0
  3  1  1  0  0  0  0
  4 13  1  0  0  0  0
  5 23  1  0  0  0  0
  6 21  1  0  0  0  0
  6  9  1  0  0  0  0
  6  3  1  0  0  0  0
  8  7  1  0  0  0  0
  8 17  1  0  0  0  0
  9  4  1  0  0  0  0
  9 12  1  0  0  0  0
 10 14  2  0  0  0  0
 11 15  2  0  0  0  0
 11 16  1  0  0  0  0
 12  8  1  0  0  0  0
 13  1  1  0  0  0  0
 13 22  1  0  0  0  0
 14 27  1  0  0  0  0
 15 10  1  0  0  0  0
 16  2  2  0  0  0  0
 17 16  1  0  0  0  0
 18 24  1  0  0  0  0
 18 20  1  0  0  0  0
 19  4  1  0  0  0  0
 20 11  1  0  0  0  0
 21  8  1  0  0  0  0
 23  7  1  0  0  0  0
 24 21  1  0  0  0  0
 24  5  1  0  0  0  0
 25 26  1  0  0  0  0
 27 25  1  0  0  0  0
 27 26  1  0  0  0  0
 29 28  1  0  0  0  0
 30 20  1  0  0  0  0
 31 32  1  0  0  0  0
 31 30  1  0  0  0  0
M  END
>  <MODEL>
7

>  <REMARK>
 VINA RESULT:      -4.0      2.012      3.137
  Name = 
  4 active torsions:
  status: ('A' for Active; 'I' for Inactive)
    1  A    between atoms: S_1  and  C_4
    2  A    between atoms: S_1  and  C_27
    3  A    between atoms: C_2  and  S_14
    4  A    between atoms: C_19  and  C_26
                            x       y       z     vdW  Elec       q    Type
                         _______ _______ _______ _____ _____    ______ ____

>  <TORSDO>
F 4

$$$$
=
 OpenBabel10262421033D

 32 38  0  0  1  0  0  0  0  0999 V2000
  180.7870  176.0030  139.5810 C   0  0  1  0  0  3  0  0  0  0  0  0
  180.7810  179.3470  136.4590 C   0  0  0  0  0  3  0  0  0  0  0  0
  182.2970  176.0990  139.2400 C   0  0  1  0  0  3  0  0  0  0  0  0
  180.4760  173.8400  138.3500 C   0  0  2  0  0  3  0  0  0  0  0  0
  184.1090  177.9410  135.9390 C   0  0  0  0  0  2  0  0  0  0  0  0
  182.8100  175.0630  138.1860 C   0  0  1  0  0  3  0  0  0  0  0  0
  182.3970  176.4830  134.6890 C   0  0  0  0  0  2  0  0  0  0  0  0
  182.0370  176.0150  136.1060 C   0  0  2  0  0  0  0  0  0  0  0  0
  181.7620  174.1040  137.5690 C   0  0  2  0  0  3  0  0  0  0  0  0
  181.7010  180.9670  137.9830 C   0  0  0  0  0  3  0  0  0  0  0  0
  182.0970  178.5800  138.3770 C   0  0  0  0  0  0  0  0  0  0  0  0
  181.4330  174.6280  136.1540 C   0  0  0  0  0  2  0  0  0  0  0  0
  180.3770  174.5320  139.7030 C   0  0  2  0  0  3  0  0  0  0  0  0
  180.9680  180.6780  136.8350 C   0  0  0  0  0  0  0  0  0  0  0  0
  182.2690  179.9350  138.7270 C   0  0  0  0  0  3  0  0  0  0  0  0
  181.3480  178.2990  137.1930 C   0  0  0  0  0  0  0  0  0  0  0  0
  180.9670  176.9280  136.7390 C   0  0  0  0  0  2  0  0  0  0  0  0
  184.3130  177.5000  138.4450 C   0  0  0  0  0  2  0  0  0  0  0  0
  180.3110  172.4620  138.5020 O   0  0  0  0  0  1  0  0  0  0  0  0
  182.9400  177.5400  139.1400 C   0  0  2  0  0  0  0  0  0  0  0  0
  183.2780  175.7630  136.9370 C   0  0  1  0  0  3  0  0  0  0  0  0
  178.9400  174.3910  140.1900 C   0  0  0  0  0  1  0  0  0  0  0  0
  183.7260  177.2690  134.6120 C   0  0  0  0  0  2  0  0  0  0  0  0
  184.2890  176.8960  137.0490 C   0  0  1  0  0  3  0  0  0  0  0  0
  180.3870  182.9810  136.7880 O   0  0  0  0  0  0  0  0  0  0  0  0
  179.1480  182.3200  136.7690 C   0  0  0  0  0  2  0  0  0  0  0  0
  180.3280  181.7810  136.0530 C   0  0  2  0  0  3  0  0  0  0  0  0
  180.3530  176.9190  141.1040 S   0  0  0  0  0  0  0  0  0  0  0  0
  179.0970  177.9020  140.2400 C   0  0  0  0  0  1  0  0  0  0  0  0
  183.3110  178.1290  140.8530 S   0  0  0  0  0  0  0  0  0  0  0  0
  184.8390  179.0340  140.4480 C   0  0  0  0  0  2  0  0  0  0  0  0
  185.8690  178.7940  141.5300 C   0  0  0  0  0  1  0  0  0  0  0  0
  1 13  1  0  0  0  0
  1 28  1  1  0  0  0
  2 14  2  0  0  0  0
  2 16  1  0  0  0  0
  3  1  1  0  0  0  0
  4 19  1  0  0  0  0
  4 13  1  0  0  0  0
  5 24  1  0  0  0  0
  6  3  1  0  0  0  0
  7  8  1  0  0  0  0
  8 12  1  0  0  0  0
  8 17  1  0  0  0  0
  8 21  1  0  0  0  0
  9  6  1  0  0  0  0
  9  4  1  0  0  0  0
 10 15  2  0  0  0  0
 11 15  1  0  0  0  0
 11 20  1  0  0  0  0
 12  9  1  0  0  0  0
 13 22  1  0  0  0  0
 14 10  1  0  0  0  0
 16 11  2  0  0  0  0
 17 16  1  0  0  0  0
 18 20  1  0  0  0  0
 20  3  1  0  0  0  0
 20 30  1  0  0  0  0
 21 24  1  0  0  0  0
 21  6  1  0  0  0  0
 23  7  1  0  0  0  0
 23  5  1  0  0  0  0
 24 18  1  0  0  0  0
 26 25  1  0  0  0  0
 27 26  1  0  0  0  0
 27 25  1  0  0  0  0
 27 14  1  0  0  0  0
 29 28  1  0  0  0  0
 31 30  1  0  0  0  0
 31 32  1  0  0  0  0
M  END
>  <MODEL>
8

>  <REMARK>
 VINA RESULT:      -3.9      2.545      5.200
  Name = 
  4 active torsions:
  status: ('A' for Active; 'I' for Inactive)
    1  A    between atoms: S_1  and  C_4
    2  A    between atoms: S_1  and  C_27
    3  A    between atoms: C_2  and  S_14
    4  A    between atoms: C_19  and  C_26
                            x       y       z     vdW  Elec       q    Type
                         _______ _______ _______ _____ _____    ______ ____

>  <TORSDO>
F 4

$$$$
=
 OpenBabel10262421033D

 32 38  0  0  1  0  0  0  0  0999 V2000
  184.5840  177.7990  137.4450 C   0  0  1  0  0  3  0  0  0  0  0  0
  180.7910  180.1880  136.5330 C   0  0  0  0  0  3  0  0  0  0  0  0
  183.5000  176.9010  138.0960 C   0  0  1  0  0  3  0  0  0  0  0  0
  185.4650  178.6190  139.6460 C   0  0  2  0  0  3  0  0  0  0  0  0
  179.5490  177.8950  139.0880 C   0  0  0  0  0  2  0  0  0  0  0  0
  183.3030  177.1030  139.6360 C   0  0  1  0  0  3  0  0  0  0  0  0
  180.7530  179.8480  140.2520 C   0  0  0  0  0  2  0  0  0  0  0  0
  182.0120  179.1410  139.7300 C   0  0  2  0  0  0  0  0  0  0  0  0
  184.1620  178.1950  140.3210 C   0  0  2  0  0  3  0  0  0  0  0  0
  180.0730  178.6650  134.8130 C   0  0  0  0  0  3  0  0  0  0  0  0
  181.5760  177.8680  136.5790 C   0  0  0  0  0  0  0  0  0  0  0  0
  183.2520  179.4220  140.5510 C   0  0  0  0  0  2  0  0  0  0  0  0
  185.8100  177.8760  138.3620 C   0  0  2  0  0  3  0  0  0  0  0  0
  180.0470  179.9370  135.3800 C   0  0  0  0  0  0  0  0  0  0  0  0
  180.8110  177.6480  135.4150 C   0  0  0  0  0  3  0  0  0  0  0  0
  181.5340  179.1760  137.1520 C   0  0  0  0  0  0  0  0  0  0  0  0
  182.3710  179.6200  138.3080 C   0  0  0  0  0  2  0  0  0  0  0  0
  181.0630  176.0550  138.1690 C   0  0  0  0  0  2  0  0  0  0  0  0
  186.5120  178.5030  140.5630 O   0  0  0  0  0  1  0  0  0  0  0  0
  182.1750  176.6320  137.2760 C   0  0  2  0  0  0  0  0  0  0  0  0
  181.9270  177.6420  139.9300 C   0  0  1  0  0  3  0  0  0  0  0  0
  186.9610  178.6190  137.6940 C   0  0  0  0  0  1  0  0  0  0  0  0
  179.4740  178.9830  140.1680 C   0  0  0  0  0  2  0  0  0  0  0  0
  180.7080  176.9270  139.3650 C   0  0  1  0  0  3  0  0  0  0  0  0
  180.0150  182.2410  134.8000 O   0  0  0  0  0  0  0  0  0  0  0  0
  178.9390  182.1020  135.6920 C   0  0  0  0  0  2  0  0  0  0  0  0
  179.2840  181.0400  134.7180 C   0  0  2  0  0  3  0  0  0  0  0  0
  185.0650  177.2190  135.7780 S   0  0  0  0  0  0  0  0  0  0  0  0
  186.0000  175.8200  136.4570 C   0  0  0  0  0  1  0  0  0  0  0  0
  182.5180  175.2920  136.0480 S   0  0  0  0  0  0  0  0  0  0  0  0
  182.3460  173.8900  137.2010 C   0  0  0  0  0  2  0  0  0  0  0  0
  183.6320  173.0930  137.2190 C   0  0  0  0  0  1  0  0  0  0  0  0
  1 28  1  6  0  0  0
  1  3  1  0  0  0  0
  1 13  1  0  0  0  0
  2 16  1  0  0  0  0
  3  6  1  0  0  0  0
  4  9  1  0  0  0  0
  4 19  1  0  0  0  0
  5 24  1  0  0  0  0
  5 23  1  0  0  0  0
  6 21  1  0  0  0  0
  6  9  1  0  0  0  0
  8 21  1  0  0  0  0
  8  7  1  0  0  0  0
  8 12  1  0  0  0  0
  9 12  1  0  0  0  0
 10 14  1  0  0  0  0
 10 15  2  0  0  0  0
 11 16  2  0  0  0  0
 11 20  1  0  0  0  0
 13  4  1  0  0  0  0
 14  2  2  0  0  0  0
 15 11  1  0  0  0  0
 16 17  1  0  0  0  0
 17  8  1  0  0  0  0
 18 24  1  0  0  0  0
 20  3  1  0  0  0  0
 20 18  1  0  0  0  0
 22 13  1  0  0  0  0
 23  7  1  0  0  0  0
 24 21  1  0  0  0  0
 25 26  1  0  0  0  0
 27 25  1  0  0  0  0
 27 14  1  0  0  0  0
 27 26  1  0  0  0  0
 28 29  1  0  0  0  0
 30 31  1  0  0  0  0
 30 20  1  0  0  0  0
 31 32  1  0  0  0  0
M  END
>  <MODEL>
9

>  <REMARK>
 VINA RESULT:      -3.5      2.364      5.522
  Name = 
  4 active torsions:
  status: ('A' for Active; 'I' for Inactive)
    1  A    between atoms: S_1  and  C_4
    2  A    between atoms: S_1  and  C_27
    3  A    between atoms: C_2  and  S_14
    4  A    between atoms: C_19  and  C_26
                            x       y       z     vdW  Elec       q    Type
                         _______ _______ _______ _____ _____    ______ ____

>  <TORSDO>
F 4

$$$$
