=
 OpenBabel10262421123D

 32 37  0  0  1  0  0  0  0  0999 V2000
  186.5930  178.4180  144.8950 C   0  0  0  0  0  0  0  0  0  0  0  0
  188.6970  177.3400  144.2730 C   0  0  0  0  0  0  0  0  0  0  0  0
  185.5870  178.8950  145.9210 C   0  0  0  0  0  2  0  0  0  0  0  0
  187.8320  177.8250  145.2940 C   0  0  0  0  0  0  0  0  0  0  0  0
  189.9930  176.9600  144.3160 C   0  0  1  0  0  3  0  0  0  0  0  0
  190.4870  177.2990  140.1880 C   0  0  0  0  0  3  0  0  0  0  0  0
  188.2620  177.3010  142.9580 C   0  0  0  0  0  0  0  0  0  0  0  0
  191.6270  177.1220  142.3670 C   0  0  0  0  0  3  0  0  0  0  0  0
  190.4010  176.4640  142.9570 C   0  0  2  0  0  3  0  0  0  0  0  0
  190.9920  176.6700  146.6010 C   0  0  0  0  0  0  0  0  0  0  0  0
  188.0520  177.4700  146.7580 C   0  0  1  0  0  3  0  0  0  0  0  0
  191.0290  177.4020  145.3080 C   0  0  0  0  0  2  0  0  0  0  0  0
  189.2080  178.1870  147.4210 C   0  0  0  0  0  2  0  0  0  0  0  0
  186.8040  177.5970  147.6250 C   0  0  0  0  0  2  0  0  0  0  0  0
  187.0650  177.8800  142.5600 C   0  0  0  0  0  3  0  0  0  0  0  0
  191.6560  175.6110  146.7510 O   0  0  0  0  0  0  0  0  0  0  0  0
  186.2310  178.4570  143.5190 C   0  0  0  0  0  0  0  0  0  0  0  0
  189.1980  176.8230  142.1590 C   0  0  2  0  0  3  0  0  0  0  0  0
  190.2380  177.2000  147.6850 N   0  0  0  0  0  2  0  0  0  0  0  0
  186.1270  178.9210  147.3400 C   0  0  0  0  0  2  0  0  0  0  0  0
  191.6760  177.4500  141.0660 C   0  0  0  0  0  3  0  0  0  0  0  0
  189.2840  177.0220  140.7060 C   0  0  0  0  0  3  0  0  0  0  0  0
  183.4520  178.7550  140.9230 C   0  0  0  0  0  0  0  0  0  0  0  0
  183.3310  178.5420  139.5900 F   0  0  0  0  0  0  0  0  0  0  0  0
  184.9430  179.0560  143.0190 C   0  0  2  0  0  3  0  0  0  0  0  0
  182.3600  178.7380  141.6900 C   0  0  0  0  0  3  0  0  0  0  0  0
  183.7360  178.4790  143.7680 C   0  0  0  0  0  2  0  0  0  0  0  0
  184.7870  178.9570  141.5170 C   0  0  0  0  0  0  0  0  0  0  0  0
  185.7890  179.0930  140.7660 O   0  0  0  0  0  0  0  0  0  0  0  0
  182.4350  179.0100  143.1680 C   0  0  2  0  0  3  0  0  0  0  0  0
  180.1580  178.2480  143.0040 O   0  0  0  0  0  1  0  0  0  0  0  0
  181.2220  178.4400  143.8900 C   0  0  0  0  0  2  0  0  0  0  0  0
  1  4  1  0  0  0  0
  1  3  1  0  0  0  0
  2  5  1  0  0  0  0
  2  4  2  0  0  0  0
  3 20  1  0  0  0  0
  4 11  1  0  0  0  0
  5 12  1  6  0  0  0
  6 22  2  0  0  0  0
  6 21  1  0  0  0  0
  7  2  1  0  0  0  0
  9  8  1  6  0  0  0
  9  5  1  0  0  0  0
 10 16  2  0  0  0  0
 10 19  1  0  0  0  0
 11 13  1  1  0  0  0
 11 14  1  0  0  0  0
 12 10  1  0  0  0  0
 13 19  1  0  0  0  0
 15  7  2  0  0  0  0
 15 17  1  0  0  0  0
 17  1  2  0  0  0  0
 18 22  1  6  0  0  0
 18  9  1  0  0  0  0
 18  7  1  0  0  0  0
 20 14  1  0  0  0  0
 21  8  2  0  0  0  0
 23 28  1  0  0  0  0
 23 26  2  0  0  0  0
 24 23  1  0  0  0  0
 25 17  1  1  0  0  0
 25 27  1  0  0  0  0
 26 30  1  0  0  0  0
 28 25  1  0  0  0  0
 29 28  2  0  0  0  0
 30 27  1  0  0  0  0
 30 32  1  1  0  0  0
 31 32  1  0  0  0  0
M  END
>  <MODEL>
1

>  <REMARK>
 VINA RESULT:     -12.0      0.000      0.000
  Name = 
  2 active torsions:
  status: ('A' for Active; 'I' for Inactive)
    1  A    between atoms: C_15  and  C_26
    2  A    between atoms: C_16  and  C_27
                            x       y       z     vdW  Elec       q    Type
                         _______ _______ _______ _____ _____    ______ ____

>  <TORSDO>
F 2

$$$$
=
 OpenBabel10262421123D

 32 37  0  0  1  0  0  0  0  0999 V2000
  187.4120  178.2540  142.2710 C   0  0  0  0  0  0  0  0  0  0  0  0
  187.4040  177.7460  144.6610 C   0  0  0  0  0  0  0  0  0  0  0  0
  186.7160  178.6530  140.9860 C   0  0  0  0  0  2  0  0  0  0  0  0
  186.6990  178.1930  143.5100 C   0  0  0  0  0  0  0  0  0  0  0  0
  187.0860  177.8030  145.9730 C   0  0  1  0  0  3  0  0  0  0  0  0
  191.0220  177.1850  147.2100 C   0  0  0  0  0  3  0  0  0  0  0  0
  188.6850  177.2340  144.5340 C   0  0  0  0  0  0  0  0  0  0  0  0
  188.7710  177.9400  147.8800 C   0  0  0  0  0  3  0  0  0  0  0  0
  188.1630  177.1180  146.7670 C   0  0  2  0  0  3  0  0  0  0  0  0
  184.7190  178.4380  146.5170 C   0  0  0  0  0  0  0  0  0  0  0  0
  185.1810  178.3170  143.5040 C   0  0  1  0  0  3  0  0  0  0  0  0
  186.1600  178.7820  146.6340 C   0  0  0  0  0  2  0  0  0  0  0  0
  184.6360  179.4990  144.2760 C   0  0  0  0  0  2  0  0  0  0  0  0
  184.5570  178.2800  142.1130 C   0  0  0  0  0  2  0  0  0  0  0  0
  189.3880  177.2960  143.3380 C   0  0  0  0  0  3  0  0  0  0  0  0
  184.1680  177.7100  147.3830 O   0  0  0  0  0  0  0  0  0  0  0  0
  188.7660  177.8210  142.2050 C   0  0  0  0  0  0  0  0  0  0  0  0
  189.1750  176.8720  145.7050 C   0  0  2  0  0  3  0  0  0  0  0  0
  183.9540  178.9780  145.4450 N   0  0  0  0  0  2  0  0  0  0  0  0
  185.3200  179.2130  141.1960 C   0  0  0  0  0  2  0  0  0  0  0  0
  190.0940  177.9160  148.1120 C   0  0  0  0  0  3  0  0  0  0  0  0
  190.5960  176.7010  146.0370 C   0  0  0  0  0  3  0  0  0  0  0  0
  191.9740  177.1220  140.2640 C   0  0  0  0  0  0  0  0  0  0  0  0
  193.2910  176.9980  140.5600 F   0  0  0  0  0  0  0  0  0  0  0  0
  189.5820  177.8470  140.9390 C   0  0  2  0  0  3  0  0  0  0  0  0
  191.5000  176.5650  139.1470 C   0  0  0  0  0  3  0  0  0  0  0  0
  189.1420  176.7400  139.9730 C   0  0  0  0  0  2  0  0  0  0  0  0
  191.0720  177.8250  141.1950 C   0  0  0  0  0  0  0  0  0  0  0  0
  191.5560  178.4490  142.1780 O   0  0  0  0  0  0  0  0  0  0  0  0
  190.0560  176.7080  138.7490 C   0  0  2  0  0  3  0  0  0  0  0  0
  190.4980  174.5060  137.8860 O   0  0  0  0  0  1  0  0  0  0  0  0
  189.6440  175.6070  137.7820 C   0  0  0  0  0  2  0  0  0  0  0  0
  1  4  1  0  0  0  0
  2  5  1  0  0  0  0
  3 20  1  0  0  0  0
  3  1  1  0  0  0  0
  4  2  2  0  0  0  0
  5 12  1  1  0  0  0
  5  9  1  0  0  0  0
  6 21  1  0  0  0  0
  7  2  1  0  0  0  0
  7 18  1  0  0  0  0
  8 21  2  0  0  0  0
  9  8  1  1  0  0  0
 10 12  1  0  0  0  0
 10 16  2  0  0  0  0
 11 14  1  6  0  0  0
 11  4  1  0  0  0  0
 11 13  1  0  0  0  0
 13 19  1  0  0  0  0
 15  7  2  0  0  0  0
 17  1  2  0  0  0  0
 17 15  1  0  0  0  0
 18 22  1  1  0  0  0
 18  9  1  0  0  0  0
 19 10  1  0  0  0  0
 20 14  1  0  0  0  0
 22  6  2  0  0  0  0
 23 24  1  0  0  0  0
 23 28  1  0  0  0  0
 25 28  1  0  0  0  0
 25 17  1  1  0  0  0
 26 23  2  0  0  0  0
 27 25  1  0  0  0  0
 28 29  2  0  0  0  0
 30 32  1  6  0  0  0
 30 26  1  0  0  0  0
 30 27  1  0  0  0  0
 32 31  1  0  0  0  0
M  END
>  <MODEL>
2

>  <REMARK>
 VINA RESULT:     -11.6      3.077      6.490
  Name = 
  2 active torsions:
  status: ('A' for Active; 'I' for Inactive)
    1  A    between atoms: C_15  and  C_26
    2  A    between atoms: C_16  and  C_27
                            x       y       z     vdW  Elec       q    Type
                         _______ _______ _______ _____ _____    ______ ____

>  <TORSDO>
F 2

$$$$
=
 OpenBabel10262421123D

 32 37  0  0  1  0  0  0  0  0999 V2000
  185.5320  178.4550  143.7460 C   0  0  0  0  0  0  0  0  0  0  0  0
  187.7380  177.4810  144.1390 C   0  0  0  0  0  0  0  0  0  0  0  0
  184.1800  178.9420  144.2240 C   0  0  0  0  0  2  0  0  0  0  0  0
  186.5170  177.9840  144.6690 C   0  0  0  0  0  0  0  0  0  0  0  0
  188.9140  177.1960  144.7400 C   0  0  1  0  0  3  0  0  0  0  0  0
  191.0410  177.2370  141.1510 C   0  0  0  0  0  3  0  0  0  0  0  0
  187.8800  177.3070  142.7720 C   0  0  0  0  0  0  0  0  0  0  0  0
  191.1960  177.3150  143.6110 C   0  0  0  0  0  3  0  0  0  0  0  0
  189.8570  176.6230  143.7190 C   0  0  2  0  0  3  0  0  0  0  0  0
  188.9020  177.1610  147.2500 C   0  0  0  0  0  0  0  0  0  0  0  0
  186.1310  177.7640  146.1250 C   0  0  1  0  0  3  0  0  0  0  0  0
  189.4410  177.7880  146.0150 C   0  0  0  0  0  2  0  0  0  0  0  0
  186.8920  178.6110  147.1210 C   0  0  0  0  0  2  0  0  0  0  0  0
  184.6340  177.8730  146.3970 C   0  0  0  0  0  2  0  0  0  0  0  0
  186.9320  177.7670  141.8680 C   0  0  0  0  0  3  0  0  0  0  0  0
  189.4790  176.1670  147.7620 O   0  0  0  0  0  0  0  0  0  0  0  0
  185.7620  178.3590  142.3450 C   0  0  0  0  0  0  0  0  0  0  0  0
  189.0750  176.8320  142.4720 C   0  0  2  0  0  3  0  0  0  0  0  0
  187.7540  177.7230  147.8770 N   0  0  0  0  0  2  0  0  0  0  0  0
  184.0920  179.1200  145.7300 C   0  0  0  0  0  2  0  0  0  0  0  0
  191.7620  177.5410  142.4140 C   0  0  0  0  0  3  0  0  0  0  0  0
  189.7410  176.9190  141.1650 C   0  0  0  0  0  3  0  0  0  0  0  0
  184.3530  178.3420  138.8000 C   0  0  0  0  0  0  0  0  0  0  0  0
  184.8320  178.0890  137.5570 F   0  0  0  0  0  0  0  0  0  0  0  0
  184.7720  178.8250  141.3090 C   0  0  2  0  0  3  0  0  0  0  0  0
  183.0420  178.2390  139.0290 C   0  0  0  0  0  3  0  0  0  0  0  0
  183.4080  178.1550  141.5060 C   0  0  0  0  0  2  0  0  0  0  0  0
  185.2840  178.6790  139.8930 C   0  0  0  0  0  0  0  0  0  0  0  0
  186.4990  178.8920  139.6330 O   0  0  0  0  0  0  0  0  0  0  0  0
  182.4550  178.5500  140.3780 C   0  0  2  0  0  3  0  0  0  0  0  0
  181.1190  176.5720  140.0720 O   0  0  0  0  0  1  0  0  0  0  0  0
  181.0950  177.8850  140.5480 C   0  0  0  0  0  2  0  0  0  0  0  0
  1  3  1  0  0  0  0
  1  4  1  0  0  0  0
  2  4  2  0  0  0  0
  2  5  1  0  0  0  0
  3 20  1  0  0  0  0
  4 11  1  0  0  0  0
  5 12  1  6  0  0  0
  6 22  2  0  0  0  0
  6 21  1  0  0  0  0
  7  2  1  0  0  0  0
  9  8  1  6  0  0  0
  9  5  1  0  0  0  0
 10 16  2  0  0  0  0
 10 19  1  0  0  0  0
 11 14  1  6  0  0  0
 11 13  1  0  0  0  0
 12 10  1  0  0  0  0
 13 19  1  0  0  0  0
 15 17  1  0  0  0  0
 15  7  2  0  0  0  0
 17  1  2  0  0  0  0
 18 22  1  6  0  0  0
 18  7  1  0  0  0  0
 18  9  1  0  0  0  0
 20 14  1  0  0  0  0
 21  8  2  0  0  0  0
 23 26  2  0  0  0  0
 23 28  1  0  0  0  0
 24 23  1  0  0  0  0
 25 27  1  0  0  0  0
 25 17  1  1  0  0  0
 26 30  1  0  0  0  0
 28 25  1  0  0  0  0
 29 28  2  0  0  0  0
 30 32  1  1  0  0  0
 30 27  1  0  0  0  0
 31 32  1  0  0  0  0
M  END
>  <MODEL>
3

>  <REMARK>
 VINA RESULT:     -11.6      1.484      2.007
  Name = 
  2 active torsions:
  status: ('A' for Active; 'I' for Inactive)
    1  A    between atoms: C_15  and  C_26
    2  A    between atoms: C_16  and  C_27
                            x       y       z     vdW  Elec       q    Type
                         _______ _______ _______ _____ _____    ______ ____

>  <TORSDO>
F 2

$$$$
=
 OpenBabel10262421123D

 32 37  0  0  1  0  0  0  0  0999 V2000
  186.6290  177.8570  143.6850 C   0  0  0  0  0  0  0  0  0  0  0  0
  186.8590  178.3600  141.3050 C   0  0  0  0  0  0  0  0  0  0  0  0
  185.8630  177.8910  144.9910 C   0  0  0  0  0  2  0  0  0  0  0  0
  186.0540  178.3650  142.4780 C   0  0  0  0  0  0  0  0  0  0  0  0
  186.5350  178.5450  140.0070 C   0  0  1  0  0  3  0  0  0  0  0  0
  190.0650  176.8080  138.6200 C   0  0  0  0  0  3  0  0  0  0  0  0
  188.2020  178.0290  141.3880 C   0  0  0  0  0  0  0  0  0  0  0  0
  187.7800  177.5230  138.0310 C   0  0  0  0  0  3  0  0  0  0  0  0
  187.7900  178.5060  139.1800 C   0  0  2  0  0  3  0  0  0  0  0  0
  184.2270  179.4200  139.5500 C   0  0  0  0  0  0  0  0  0  0  0  0
  184.7480  179.1440  142.5430 C   0  0  1  0  0  3  0  0  0  0  0  0
  185.1970  178.3090  139.3700 C   0  0  0  0  0  2  0  0  0  0  0  0
  183.5990  178.5260  141.7770 C   0  0  0  0  0  2  0  0  0  0  0  0
  184.2960  179.4870  143.9590 C   0  0  0  0  0  2  0  0  0  0  0  0
  188.7670  177.5290  142.5540 C   0  0  0  0  0  3  0  0  0  0  0  0
  184.1800  180.3640  138.7190 O   0  0  0  0  0  0  0  0  0  0  0  0
  187.9840  177.4220  143.7030 C   0  0  0  0  0  0  0  0  0  0  0  0
  188.7820  178.0810  140.2030 C   0  0  2  0  0  3  0  0  0  0  0  0
  183.3180  179.3870  140.6450 N   0  0  0  0  0  2  0  0  0  0  0  0
  184.3970  178.2530  144.8310 C   0  0  0  0  0  2  0  0  0  0  0  0
  188.8640  176.7840  137.7460 C   0  0  0  0  0  3  0  0  0  0  0  0
  190.0290  177.4080  139.8160 C   0  0  0  0  0  3  0  0  0  0  0  0
  191.1060  176.7190  145.7780 C   0  0  0  0  0  0  0  0  0  0  0  0
  192.4240  176.5210  145.5280 F   0  0  0  0  0  0  0  0  0  0  0  0
  188.6640  176.8830  144.9340 C   0  0  2  0  0  3  0  0  0  0  0  0
  190.7250  177.1280  146.9910 C   0  0  0  0  0  3  0  0  0  0  0  0
  188.4790  177.8270  146.1280 C   0  0  0  0  0  2  0  0  0  0  0  0
  190.1160  176.5300  144.7020 C   0  0  0  0  0  0  0  0  0  0  0  0
  190.4780  176.0270  143.6040 O   0  0  0  0  0  0  0  0  0  0  0  0
  189.2730  177.3220  147.3320 C   0  0  2  0  0  3  0  0  0  0  0  0
  187.9310  177.9770  149.2190 O   0  0  0  0  0  1  0  0  0  0  0  0
  189.1130  178.2530  148.5270 C   0  0  0  0  0  2  0  0  0  0  0  0
  1 17  1  0  0  0  0
  1  3  1  0  0  0  0
  2  7  2  0  0  0  0
  2  4  1  0  0  0  0
  4 11  1  0  0  0  0
  4  1  2  0  0  0  0
  5 12  1  6  0  0  0
  5  2  1  0  0  0  0
  6 22  2  0  0  0  0
  7 15  1  0  0  0  0
  9  8  1  6  0  0  0
  9  5  1  0  0  0  0
  9 18  1  0  0  0  0
 10 19  1  0  0  0  0
 11 13  1  1  0  0  0
 11 14  1  0  0  0  0
 12 10  1  0  0  0  0
 14 20  1  0  0  0  0
 15 17  2  0  0  0  0
 16 10  2  0  0  0  0
 18 22  1  6  0  0  0
 18  7  1  0  0  0  0
 19 13  1  0  0  0  0
 20  3  1  0  0  0  0
 21  8  2  0  0  0  0
 21  6  1  0  0  0  0
 23 26  2  0  0  0  0
 24 23  1  0  0  0  0
 25 17  1  6  0  0  0
 25 27  1  0  0  0  0
 26 30  1  0  0  0  0
 27 30  1  0  0  0  0
 28 25  1  0  0  0  0
 28 23  1  0  0  0  0
 29 28  2  0  0  0  0
 30 32  1  1  0  0  0
 32 31  1  0  0  0  0
M  END
>  <MODEL>
4

>  <REMARK>
 VINA RESULT:     -11.2      3.267      6.614
  Name = 
  2 active torsions:
  status: ('A' for Active; 'I' for Inactive)
    1  A    between atoms: C_15  and  C_26
    2  A    between atoms: C_16  and  C_27
                            x       y       z     vdW  Elec       q    Type
                         _______ _______ _______ _____ _____    ______ ____

>  <TORSDO>
F 2

$$$$
=
 OpenBabel10262421123D

 32 37  0  0  1  0  0  0  0  0999 V2000
  187.0700  178.3210  141.8280 C   0  0  0  0  0  0  0  0  0  0  0  0
  187.3690  177.7170  144.1770 C   0  0  0  0  0  0  0  0  0  0  0  0
  186.2200  178.7880  140.6650 C   0  0  0  0  0  2  0  0  0  0  0  0
  186.5290  178.2280  143.1490 C   0  0  0  0  0  0  0  0  0  0  0  0
  187.2320  177.7300  145.5220 C   0  0  1  0  0  3  0  0  0  0  0  0
  191.2790  176.9640  146.1890 C   0  0  0  0  0  3  0  0  0  0  0  0
  188.6050  177.1790  143.8580 C   0  0  0  0  0  0  0  0  0  0  0  0
  189.1640  177.7480  147.1850 C   0  0  0  0  0  3  0  0  0  0  0  0
  188.3860  176.9870  146.1360 C   0  0  2  0  0  3  0  0  0  0  0  0
  184.9810  178.4030  146.4050 C   0  0  0  0  0  0  0  0  0  0  0  0
  185.0290  178.3910  143.3550 C   0  0  1  0  0  3  0  0  0  0  0  0
  186.4340  178.7050  146.3370 C   0  0  0  0  0  2  0  0  0  0  0  0
  184.6290  179.5540  144.2350 C   0  0  0  0  0  2  0  0  0  0  0  0
  184.2220  178.4250  142.0610 C   0  0  0  0  0  2  0  0  0  0  0  0
  189.1410  177.2710  142.5810 C   0  0  0  0  0  3  0  0  0  0  0  0
  184.5300  177.6540  147.3100 O   0  0  0  0  0  0  0  0  0  0  0  0
  188.3880  177.8560  141.5620 C   0  0  0  0  0  0  0  0  0  0  0  0
  189.2370  176.7580  144.9380 C   0  0  2  0  0  3  0  0  0  0  0  0
  184.0960  179.0040  145.4670 N   0  0  0  0  0  2  0  0  0  0  0  0
  184.8820  179.3740  141.0830 C   0  0  0  0  0  2  0  0  0  0  0  0
  190.5040  177.6810  147.2340 C   0  0  0  0  0  3  0  0  0  0  0  0
  190.6840  176.5380  145.0680 C   0  0  0  0  0  3  0  0  0  0  0  0
  191.0590  176.7830  139.0590 C   0  0  0  0  0  0  0  0  0  0  0  0
  192.3280  176.3100  139.1240 F   0  0  0  0  0  0  0  0  0  0  0  0
  189.0270  177.9120  140.1990 C   0  0  2  0  0  3  0  0  0  0  0  0
  190.3290  176.5530  137.9660 C   0  0  0  0  0  3  0  0  0  0  0  0
  188.2090  177.1210  139.1720 C   0  0  0  0  0  2  0  0  0  0  0  0
  190.4830  177.5040  140.2100 C   0  0  0  0  0  0  0  0  0  0  0  0
  191.2220  177.8190  141.1810 O   0  0  0  0  0  0  0  0  0  0  0  0
  188.9320  177.0920  137.8260 C   0  0  2  0  0  3  0  0  0  0  0  0
  186.7750  176.3290  137.0810 O   0  0  0  0  0  1  0  0  0  0  0  0
  188.1420  176.3000  136.7930 C   0  0  0  0  0  2  0  0  0  0  0  0
  1  4  1  0  0  0  0
  2  5  1  0  0  0  0
  3 20  1  0  0  0  0
  3  1  1  0  0  0  0
  4 11  1  0  0  0  0
  4  2  2  0  0  0  0
  5  9  1  0  0  0  0
  5 12  1  1  0  0  0
  6 21  1  0  0  0  0
  7  2  1  0  0  0  0
  7 18  1  0  0  0  0
  8 21  2  0  0  0  0
  9  8  1  1  0  0  0
 10 16  2  0  0  0  0
 11 14  1  6  0  0  0
 11 13  1  0  0  0  0
 12 10  1  0  0  0  0
 13 19  1  0  0  0  0
 15  7  2  0  0  0  0
 17  1  2  0  0  0  0
 17 15  1  0  0  0  0
 18 22  1  1  0  0  0
 18  9  1  0  0  0  0
 19 10  1  0  0  0  0
 20 14  1  0  0  0  0
 22  6  2  0  0  0  0
 23 24  1  0  0  0  0
 23 28  1  0  0  0  0
 25 28  1  0  0  0  0
 25 17  1  1  0  0  0
 26 23  2  0  0  0  0
 27 25  1  0  0  0  0
 28 29  2  0  0  0  0
 30 32  1  6  0  0  0
 30 26  1  0  0  0  0
 30 27  1  0  0  0  0
 32 31  1  0  0  0  0
M  END
>  <MODEL>
5

>  <REMARK>
 VINA RESULT:     -11.1      2.955      5.988
  Name = 
  2 active torsions:
  status: ('A' for Active; 'I' for Inactive)
    1  A    between atoms: C_15  and  C_26
    2  A    between atoms: C_16  and  C_27
                            x       y       z     vdW  Elec       q    Type
                         _______ _______ _______ _____ _____    ______ ____

>  <TORSDO>
F 2

$$$$
=
 OpenBabel10262421123D

 32 37  0  0  1  0  0  0  0  0999 V2000
  189.3480  177.0500  143.0330 C   0  0  0  0  0  0  0  0  0  0  0  0
  187.6800  178.0420  144.5170 C   0  0  0  0  0  0  0  0  0  0  0  0
  190.7090  176.4390  142.7690 C   0  0  0  0  0  2  0  0  0  0  0  0
  188.9450  177.4130  144.3570 C   0  0  0  0  0  0  0  0  0  0  0  0
  186.9410  178.2790  145.6240 C   0  0  1  0  0  3  0  0  0  0  0  0
  183.4300  178.8850  143.4540 C   0  0  0  0  0  3  0  0  0  0  0  0
  186.9540  178.4320  143.4030 C   0  0  0  0  0  0  0  0  0  0  0  0
  184.3970  178.4310  145.6770 C   0  0  0  0  0  3  0  0  0  0  0  0
  185.7070  179.0420  145.2330 C   0  0  2  0  0  3  0  0  0  0  0  0
  188.0920  177.9230  147.8270 C   0  0  0  0  0  0  0  0  0  0  0  0
  189.9700  177.3870  145.4830 C   0  0  1  0  0  3  0  0  0  0  0  0
  186.9880  177.5190  146.9180 C   0  0  0  0  0  2  0  0  0  0  0  0
  189.6550  176.4290  146.6100 C   0  0  0  0  0  2  0  0  0  0  0  0
  191.4060  177.1760  145.0140 C   0  0  0  0  0  2  0  0  0  0  0  0
  187.3340  178.0790  142.1160 C   0  0  0  0  0  3  0  0  0  0  0  0
  187.9210  178.8490  148.6610 O   0  0  0  0  0  0  0  0  0  0  0  0
  188.5210  177.3720  141.9210 C   0  0  0  0  0  0  0  0  0  0  0  0
  185.8120  178.9980  143.7500 C   0  0  2  0  0  3  0  0  0  0  0  0
  189.3310  177.2240  147.7790 N   0  0  0  0  0  2  0  0  0  0  0  0
  191.4480  176.0260  144.0290 C   0  0  0  0  0  2  0  0  0  0  0  0
  183.3310  178.4180  144.8610 C   0  0  0  0  0  3  0  0  0  0  0  0
  184.6220  179.1420  142.9010 C   0  0  0  0  0  3  0  0  0  0  0  0
  189.0310  178.3360  138.2660 C   0  0  0  0  0  0  0  0  0  0  0  0
  188.5570  179.2930  137.4300 F   0  0  0  0  0  0  0  0  0  0  0  0
  188.8770  177.0320  140.4980 C   0  0  2  0  0  3  0  0  0  0  0  0
  190.1930  177.7420  137.9880 C   0  0  0  0  0  3  0  0  0  0  0  0
  190.3930  176.8730  140.3290 C   0  0  0  0  0  2  0  0  0  0  0  0
  188.2860  177.9960  139.4930 C   0  0  0  0  0  0  0  0  0  0  0  0
  187.1350  178.4750  139.6760 O   0  0  0  0  0  0  0  0  0  0  0  0
  190.7430  176.6460  138.8590 C   0  0  2  0  0  3  0  0  0  0  0  0
  192.9460  177.1870  139.6590 O   0  0  0  0  0  1  0  0  0  0  0  0
  192.2460  176.4970  138.6670 C   0  0  0  0  0  2  0  0  0  0  0  0
  1  4  1  0  0  0  0
  2  5  1  0  0  0  0
  3  1  1  0  0  0  0
  3 20  1  0  0  0  0
  4  2  2  0  0  0  0
  4 11  1  0  0  0  0
  5 12  1  6  0  0  0
  6 21  1  0  0  0  0
  7 18  1  0  0  0  0
  7  2  1  0  0  0  0
  9  5  1  0  0  0  0
  9  8  1  6  0  0  0
 10 16  2  0  0  0  0
 11 14  1  6  0  0  0
 11 13  1  0  0  0  0
 12 10  1  0  0  0  0
 13 19  1  0  0  0  0
 15  7  2  0  0  0  0
 17 15  1  0  0  0  0
 17  1  2  0  0  0  0
 18 22  1  6  0  0  0
 18  9  1  0  0  0  0
 19 10  1  0  0  0  0
 20 14  1  0  0  0  0
 21  8  2  0  0  0  0
 22  6  2  0  0  0  0
 23 28  1  0  0  0  0
 24 23  1  0  0  0  0
 25 17  1  1  0  0  0
 26 23  2  0  0  0  0
 26 30  1  0  0  0  0
 27 25  1  0  0  0  0
 28 29  2  0  0  0  0
 28 25  1  0  0  0  0
 30 32  1  1  0  0  0
 30 27  1  0  0  0  0
 32 31  1  0  0  0  0
M  END
>  <MODEL>
6

>  <REMARK>
 VINA RESULT:     -10.8      2.249      6.121
  Name = 
  2 active torsions:
  status: ('A' for Active; 'I' for Inactive)
    1  A    between atoms: C_15  and  C_26
    2  A    between atoms: C_16  and  C_27
                            x       y       z     vdW  Elec       q    Type
                         _______ _______ _______ _____ _____    ______ ____

>  <TORSDO>
F 2

$$$$
=
 OpenBabel10262421123D

 32 37  0  0  1  0  0  0  0  0999 V2000
  186.5290  178.2110  138.5840 C   0  0  0  0  0  0  0  0  0  0  0  0
  187.6090  178.1890  140.7760 C   0  0  0  0  0  0  0  0  0  0  0  0
  186.5690  178.1320  137.0720 C   0  0  0  0  0  2  0  0  0  0  0  0
  187.7140  178.0340  139.3650 C   0  0  0  0  0  0  0  0  0  0  0  0
  188.4640  177.8630  141.7690 C   0  0  1  0  0  3  0  0  0  0  0  0
  185.5070  178.0210  144.7060 C   0  0  0  0  0  3  0  0  0  0  0  0
  186.4310  178.6580  141.3350 C   0  0  0  0  0  0  0  0  0  0  0  0
  187.7770  177.2400  144.1430 C   0  0  0  0  0  3  0  0  0  0  0  0
  187.8830  178.3100  143.0810 C   0  0  2  0  0  3  0  0  0  0  0  0
  190.7910  177.2300  141.0700 C   0  0  0  0  0  0  0  0  0  0  0  0
  189.0660  177.9810  138.6690 C   0  0  1  0  0  3  0  0  0  0  0  0
  189.5290  176.8050  141.7300 C   0  0  0  0  0  2  0  0  0  0  0  0
  189.8260  176.6860  138.8500 C   0  0  0  0  0  2  0  0  0  0  0  0
  189.0210  178.3470  137.1890 C   0  0  0  0  0  2  0  0  0  0  0  0
  185.2750  178.8260  140.5860 C   0  0  0  0  0  3  0  0  0  0  0  0
  191.7050  177.7770  141.7400 O   0  0  0  0  0  0  0  0  0  0  0  0
  185.3080  178.5880  139.2120 C   0  0  0  0  0  0  0  0  0  0  0  0
  186.5250  178.7350  142.6500 C   0  0  2  0  0  3  0  0  0  0  0  0
  190.9780  176.9710  139.6830 N   0  0  0  0  0  2  0  0  0  0  0  0
  187.8820  177.6030  136.5230 C   0  0  0  0  0  2  0  0  0  0  0  0
  186.6920  177.1540  144.9300 C   0  0  0  0  0  3  0  0  0  0  0  0
  185.4030  178.7670  143.6000 C   0  0  0  0  0  3  0  0  0  0  0  0
  181.6740  177.7090  138.4590 C   0  0  0  0  0  0  0  0  0  0  0  0
  180.8920  176.6050  138.5580 F   0  0  0  0  0  0  0  0  0  0  0  0
  184.0210  178.8010  138.4590 C   0  0  2  0  0  3  0  0  0  0  0  0
  181.1020  178.9150  138.4340 C   0  0  0  0  0  3  0  0  0  0  0  0
  183.2750  180.0360  138.9770 C   0  0  0  0  0  2  0  0  0  0  0  0
  183.1420  177.5710  138.4290 C   0  0  0  0  0  0  0  0  0  0  0  0
  183.6580  176.4250  138.3300 O   0  0  0  0  0  0  0  0  0  0  0  0
  181.9200  180.1680  138.2830 C   0  0  2  0  0  3  0  0  0  0  0  0
  181.4640  182.5170  138.0350 O   0  0  0  0  0  1  0  0  0  0  0  0
  181.1560  181.3830  138.7910 C   0  0  0  0  0  2  0  0  0  0  0  0
  1 17  2  0  0  0  0
  1  4  1  0  0  0  0
  2  7  1  0  0  0  0
  2  5  1  0  0  0  0
  3  1  1  0  0  0  0
  4  2  2  0  0  0  0
  5 12  1  1  0  0  0
  5  9  1  0  0  0  0
  6 21  1  0  0  0  0
  7 18  1  0  0  0  0
  8 21  2  0  0  0  0
  9  8  1  1  0  0  0
 10 12  1  0  0  0  0
 10 16  2  0  0  0  0
 11 14  1  6  0  0  0
 11 13  1  0  0  0  0
 11  4  1  0  0  0  0
 13 19  1  0  0  0  0
 15  7  2  0  0  0  0
 17 15  1  0  0  0  0
 18  9  1  0  0  0  0
 18 22  1  1  0  0  0
 19 10  1  0  0  0  0
 20  3  1  0  0  0  0
 20 14  1  0  0  0  0
 22  6  2  0  0  0  0
 23 24  1  0  0  0  0
 25 27  1  0  0  0  0
 25 17  1  1  0  0  0
 26 23  2  0  0  0  0
 28 23  1  0  0  0  0
 28 25  1  0  0  0  0
 29 28  2  0  0  0  0
 30 26  1  0  0  0  0
 30 32  1  1  0  0  0
 30 27  1  0  0  0  0
 31 32  1  0  0  0  0
M  END
>  <MODEL>
7

>  <REMARK>
 VINA RESULT:     -10.5      3.218      5.868
  Name = 
  2 active torsions:
  status: ('A' for Active; 'I' for Inactive)
    1  A    between atoms: C_15  and  C_26
    2  A    between atoms: C_16  and  C_27
                            x       y       z     vdW  Elec       q    Type
                         _______ _______ _______ _____ _____    ______ ____

>  <TORSDO>
F 2

$$$$
=
 OpenBabel10262421123D

 32 37  0  0  1  0  0  0  0  0999 V2000
  185.7640  178.1700  143.7650 C   0  0  0  0  0  0  0  0  0  0  0  0
  184.7100  178.6590  141.6150 C   0  0  0  0  0  0  0  0  0  0  0  0
  185.7460  178.0950  145.2770 C   0  0  0  0  0  2  0  0  0  0  0  0
  184.5970  178.5480  143.0290 C   0  0  0  0  0  0  0  0  0  0  0  0
  183.7640  178.7610  140.6560 C   0  0  1  0  0  3  0  0  0  0  0  0
  186.3800  177.6320  137.6080 C   0  0  0  0  0  3  0  0  0  0  0  0
  185.9530  178.5660  141.0100 C   0  0  0  0  0  0  0  0  0  0  0  0
  184.0200  177.9310  138.2590 C   0  0  0  0  0  3  0  0  0  0  0  0
  184.4370  178.9220  139.3220 C   0  0  2  0  0  3  0  0  0  0  0  0
  181.4240  179.2160  141.4440 C   0  0  0  0  0  0  0  0  0  0  0  0
  183.3870  179.0910  143.7760 C   0  0  1  0  0  3  0  0  0  0  0  0
  182.3430  178.2850  140.7390 C   0  0  0  0  0  2  0  0  0  0  0  0
  182.1250  178.2690  143.6280 C   0  0  0  0  0  2  0  0  0  0  0  0
  183.6430  179.3780  145.2520 C   0  0  0  0  0  2  0  0  0  0  0  0
  187.0900  178.1930  141.7150 C   0  0  0  0  0  3  0  0  0  0  0  0
  180.8250  180.1210  140.8080 O   0  0  0  0  0  0  0  0  0  0  0  0
  187.0020  177.9750  143.0900 C   0  0  0  0  0  0  0  0  0  0  0  0
  185.8580  178.6950  139.6990 C   0  0  2  0  0  3  0  0  0  0  0  0
  181.1910  179.0480  142.8380 N   0  0  0  0  0  2  0  0  0  0  0  0
  184.3550  178.1960  145.8770 C   0  0  0  0  0  2  0  0  0  0  0  0
  184.9250  177.3840  137.4320 C   0  0  0  0  0  3  0  0  0  0  0  0
  186.8420  178.2390  138.7080 C   0  0  0  0  0  3  0  0  0  0  0  0
  190.2040  175.9170  143.3400 C   0  0  0  0  0  0  0  0  0  0  0  0
  190.6340  174.7150  142.8840 F   0  0  0  0  0  0  0  0  0  0  0  0
  188.2760  177.5850  143.7930 C   0  0  2  0  0  3  0  0  0  0  0  0
  191.1000  176.8490  143.6730 C   0  0  0  0  0  3  0  0  0  0  0  0
  189.3620  178.6510  143.6040 C   0  0  0  0  0  2  0  0  0  0  0  0
  188.7590  176.2010  143.4180 C   0  0  0  0  0  0  0  0  0  0  0  0
  187.9300  175.2730  143.2180 O   0  0  0  0  0  0  0  0  0  0  0  0
  190.6780  178.1830  144.2240 C   0  0  2  0  0  3  0  0  0  0  0  0
  191.3050  180.5030  144.3440 O   0  0  0  0  0  1  0  0  0  0  0  0
  191.7750  179.2230  144.0370 C   0  0  0  0  0  2  0  0  0  0  0  0
  1  3  1  0  0  0  0
  2  4  1  0  0  0  0
  3 20  1  0  0  0  0
  4  1  2  0  0  0  0
  4 11  1  0  0  0  0
  5 12  1  6  0  0  0
  5  2  1  0  0  0  0
  6 22  2  0  0  0  0
  7  2  2  0  0  0  0
  7 15  1  0  0  0  0
  9  8  1  6  0  0  0
  9 18  1  0  0  0  0
  9  5  1  0  0  0  0
 10 19  1  0  0  0  0
 11 13  1  1  0  0  0
 11 14  1  0  0  0  0
 12 10  1  0  0  0  0
 14 20  1  0  0  0  0
 15 17  2  0  0  0  0
 16 10  2  0  0  0  0
 17  1  1  0  0  0  0
 18 22  1  6  0  0  0
 18  7  1  0  0  0  0
 19 13  1  0  0  0  0
 21  6  1  0  0  0  0
 21  8  2  0  0  0  0
 23 28  1  0  0  0  0
 23 26  2  0  0  0  0
 24 23  1  0  0  0  0
 25 17  1  6  0  0  0
 26 30  1  0  0  0  0
 27 25  1  0  0  0  0
 27 30  1  0  0  0  0
 28 25  1  0  0  0  0
 29 28  2  0  0  0  0
 30 32  1  6  0  0  0
 32 31  1  0  0  0  0
M  END
>  <MODEL>
8

>  <REMARK>
 VINA RESULT:     -10.2      3.264      7.105
  Name = 
  2 active torsions:
  status: ('A' for Active; 'I' for Inactive)
    1  A    between atoms: C_15  and  C_26
    2  A    between atoms: C_16  and  C_27
                            x       y       z     vdW  Elec       q    Type
                         _______ _______ _______ _____ _____    ______ ____

>  <TORSDO>
F 2

$$$$
=
 OpenBabel10262421123D

 32 37  0  0  1  0  0  0  0  0999 V2000
  186.0940  178.4520  140.9990 C   0  0  0  0  0  0  0  0  0  0  0  0
  185.1090  178.1900  143.2200 C   0  0  0  0  0  0  0  0  0  0  0  0
  185.9830  178.6280  139.4990 C   0  0  0  0  0  2  0  0  0  0  0  0
  184.9290  178.4240  141.8290 C   0  0  0  0  0  0  0  0  0  0  0  0
  184.2600  178.3360  144.2610 C   0  0  1  0  0  3  0  0  0  0  0  0
  187.3300  178.3570  147.0850 C   0  0  0  0  0  3  0  0  0  0  0  0
  186.3570  177.8370  143.7070 C   0  0  0  0  0  0  0  0  0  0  0  0
  184.9600  178.8800  146.6510 C   0  0  0  0  0  3  0  0  0  0  0  0
  184.9450  177.8790  145.5180 C   0  0  2  0  0  3  0  0  0  0  0  0
  181.8460  178.7150  143.6820 C   0  0  0  0  0  0  0  0  0  0  0  0
  183.5530  178.3520  141.1800 C   0  0  1  0  0  3  0  0  0  0  0  0
  183.0710  179.2500  144.3310 C   0  0  0  0  0  2  0  0  0  0  0  0
  182.6460  179.5250  141.4780 C   0  0  0  0  0  2  0  0  0  0  0  0
  183.5840  178.0950  139.6770 C   0  0  0  0  0  2  0  0  0  0  0  0
  187.4940  177.8680  142.9120 C   0  0  0  0  0  3  0  0  0  0  0  0
  181.0350  178.0120  144.3400 O   0  0  0  0  0  0  0  0  0  0  0  0
  187.3760  178.1920  141.5600 C   0  0  0  0  0  0  0  0  0  0  0  0
  186.3270  177.6600  145.0150 C   0  0  2  0  0  3  0  0  0  0  0  0
  181.5730  179.0410  142.3250 N   0  0  0  0  0  2  0  0  0  0  0  0
  184.5930  179.0210  139.0310 C   0  0  0  0  0  2  0  0  0  0  0  0
  186.0560  179.0490  147.4080 C   0  0  0  0  0  3  0  0  0  0  0  0
  187.4810  177.7070  145.9240 C   0  0  0  0  0  3  0  0  0  0  0  0
  191.0660  177.3390  141.1080 C   0  0  0  0  0  0  0  0  0  0  0  0
  192.1290  177.1270  141.9220 F   0  0  0  0  0  0  0  0  0  0  0  0
  188.6480  178.1950  140.7540 C   0  0  2  0  0  3  0  0  0  0  0  0
  191.0790  176.8370  139.8710 C   0  0  0  0  0  3  0  0  0  0  0  0
  188.6030  177.1390  139.6430 C   0  0  0  0  0  2  0  0  0  0  0  0
  189.8910  178.0760  141.6080 C   0  0  0  0  0  0  0  0  0  0  0  0
  189.9460  178.6470  142.7300 O   0  0  0  0  0  0  0  0  0  0  0  0
  189.9450  177.0780  138.9140 C   0  0  2  0  0  3  0  0  0  0  0  0
  190.7090  174.9230  138.1630 O   0  0  0  0  0  1  0  0  0  0  0  0
  189.9260  176.0260  137.8130 C   0  0  0  0  0  2  0  0  0  0  0  0
  1 17  2  0  0  0  0
  1  4  1  0  0  0  0
  2  7  1  0  0  0  0
  2  5  1  0  0  0  0
  3  1  1  0  0  0  0
  4  2  2  0  0  0  0
  5 12  1  1  0  0  0
  5  9  1  0  0  0  0
  6 21  1  0  0  0  0
  7 18  1  0  0  0  0
  8 21  2  0  0  0  0
  9  8  1  1  0  0  0
 10 12  1  0  0  0  0
 10 16  2  0  0  0  0
 11 14  1  6  0  0  0
 11 13  1  0  0  0  0
 11  4  1  0  0  0  0
 13 19  1  0  0  0  0
 15  7  2  0  0  0  0
 17 15  1  0  0  0  0
 18  9  1  0  0  0  0
 18 22  1  1  0  0  0
 19 10  1  0  0  0  0
 20  3  1  0  0  0  0
 20 14  1  0  0  0  0
 22  6  2  0  0  0  0
 23 28  1  0  0  0  0
 23 24  1  0  0  0  0
 25 17  1  1  0  0  0
 25 28  1  0  0  0  0
 26 23  2  0  0  0  0
 27 25  1  0  0  0  0
 28 29  2  0  0  0  0
 30 32  1  6  0  0  0
 30 27  1  0  0  0  0
 30 26  1  0  0  0  0
 32 31  1  0  0  0  0
M  END
>  <MODEL>
9

>  <REMARK>
 VINA RESULT:     -10.1      3.106      7.450
  Name = 
  2 active torsions:
  status: ('A' for Active; 'I' for Inactive)
    1  A    between atoms: C_15  and  C_26
    2  A    between atoms: C_16  and  C_27
                            x       y       z     vdW  Elec       q    Type
                         _______ _______ _______ _____ _____    ______ ____

>  <TORSDO>
F 2

$$$$
