=
 OpenBabel10262423173D

 34 38  0  0  1  0  0  0  0  0999 V2000
  183.0240  179.0380  141.9640 C   0  0  2  0  0  3  0  0  0  0  0  0
  183.1340  177.1330  138.4650 C   0  0  0  0  0  3  0  0  0  0  0  0
  181.5010  177.3460  140.1560 C   0  0  0  0  0  3  0  0  0  0  0  0
  180.8370  179.6190  143.1610 C   0  0  0  0  0  2  0  0  0  0  0  0
  178.9310  178.2000  142.7200 O   0  0  0  0  0  0  0  0  0  0  0  0
  179.3190  179.5300  142.9780 C   0  0  0  0  0  2  0  0  0  0  0  0
  180.9340  177.7670  141.4770 C   0  0  1  0  0  3  0  0  0  0  0  0
  181.4990  179.1250  141.8780 C   0  0  2  0  0  3  0  0  0  0  0  0
  179.4110  177.8630  141.4380 C   0  0  0  0  0  2  0  0  0  0  0  0
  184.2540  177.2950  137.7680 C   0  0  0  0  0  3  0  0  0  0  0  0
  185.4690  178.0700  138.0760 C   0  0  0  0  0  0  0  0  0  0  0  0
  185.6550  178.7940  139.1790 C   0  0  0  0  0  3  0  0  0  0  0  0
  182.7440  177.6720  139.7710 C   0  0  0  0  0  0  0  0  0  0  0  0
  184.7880  179.0210  140.3360 C   0  0  0  0  0  3  0  0  0  0  0  0
  183.5730  178.5710  140.6330 C   0  0  0  0  0  0  0  0  0  0  0  0
  186.5770  178.0560  137.0930 C   0  0  0  0  0  0  0  0  0  0  0  0
  187.5680  179.0320  137.1410 O   0  0  0  0  0  1  0  0  0  0  0  0
  186.6570  177.1240  136.1480 C   0  0  0  0  0  2  0  0  0  0  0  0
  183.4310  178.1100  143.0250 N   0  0  0  0  0  2  0  0  0  0  0  0
  184.2520  178.7830  144.0380 C   0  0  2  0  0  3  0  0  0  0  0  0
  184.4260  180.1370  143.7370 O   0  0  0  0  0  1  0  0  0  0  0  0
  187.6190  177.0360  143.3300 C   0  0  0  0  0  2  0  0  0  0  0  0
  186.1210  177.9520  145.6200 C   0  0  0  0  0  3  0  0  0  0  0  0
  190.1310  176.9810  146.0800 C   0  0  0  0  0  0  0  0  0  0  0  0
  189.5990  176.9720  144.8510 C   0  0  0  0  0  3  0  0  0  0  0  0
  188.2060  177.2500  144.6540 N   0  0  0  0  0  0  0  0  0  0  0  0
  187.9760  177.5280  147.1330 C   0  0  0  0  0  3  0  0  0  0  0  0
  187.3800  177.5580  145.7920 C   0  0  0  0  0  0  0  0  0  0  0  0
  189.2780  177.2570  147.2630 C   0  0  0  0  0  3  0  0  0  0  0  0
  185.5600  178.0820  144.2600 C   0  0  0  0  0  0  0  0  0  0  0  0
  186.2790  177.7080  143.1960 C   0  0  0  0  0  3  0  0  0  0  0  0
  191.5910  176.7030  146.2370 C   0  0  0  0  0  3  0  0  0  0  0  0
  192.0590  175.6730  145.2260 C   0  0  0  0  0  1  0  0  0  0  0  0
  191.9040  176.2290  147.6440 C   0  0  0  0  0  1  0  0  0  0  0  0
  1 19  1  1  0  0  0
  2 13  1  0  0  0  0
  5  6  1  0  0  0  0
  6  4  1  0  0  0  0
  7  3  1  6  0  0  0
  7  8  1  0  0  0  0
  8  1  1  0  0  0  0
  8  4  1  1  0  0  0
  9  7  1  0  0  0  0
  9  5  1  0  0  0  0
 10 11  1  0  0  0  0
 10  2  2  0  0  0  0
 11 12  2  0  0  0  0
 12 14  1  0  0  0  0
 13  3  2  0  0  0  0
 13 15  1  0  0  0  0
 14 15  2  0  0  0  0
 15  1  1  0  0  0  0
 16 17  1  0  0  0  0
 16 11  1  0  0  0  0
 18 16  2  0  0  0  0
 19 20  1  0  0  0  0
 20 21  1  6  0  0  0
 20 30  1  0  0  0  0
 22 26  1  0  0  0  0
 23 28  2  0  0  0  0
 24 32  1  0  0  0  0
 24 29  1  0  0  0  0
 25 24  2  0  0  0  0
 26 25  1  0  0  0  0
 26 28  1  0  0  0  0
 27 29  2  0  0  0  0
 28 27  1  0  0  0  0
 30 23  1  0  0  0  0
 31 22  1  0  0  0  0
 31 30  2  0  0  0  0
 32 34  1  0  0  0  0
 33 32  1  0  0  0  0
M  END
>  <MODEL>
1

>  <REMARK>
 VINA RESULT:      -9.5      0.000      0.000
  Name = 
  5 active torsions:
  status: ('A' for Active; 'I' for Inactive)
    1  A    between atoms: C_1  and  N_9
    2  A    between atoms: C_3  and  C_25
    3  A    between atoms: C_7  and  C_11
    4  A    between atoms: C_8  and  N_9
    5  A    between atoms: C_8  and  C_30
                            x       y       z     vdW  Elec       q    Type
                         _______ _______ _______ _____ _____    ______ ____

>  <TORSDO>
F 5

$$$$
=
 OpenBabel10262423173D

 34 38  0  0  1  0  0  0  0  0999 V2000
  189.0820  177.0640  141.3710 C   0  0  2  0  0  3  0  0  0  0  0  0
  192.9730  177.4770  140.6150 C   0  0  0  0  0  3  0  0  0  0  0  0
  191.6190  177.9320  142.4940 C   0  0  0  0  0  3  0  0  0  0  0  0
  188.1280  176.9900  143.7460 C   0  0  0  0  0  2  0  0  0  0  0  0
  189.3790  178.1320  145.4690 O   0  0  0  0  0  0  0  0  0  0  0  0
  188.5770  177.0030  145.2100 C   0  0  0  0  0  2  0  0  0  0  0  0
  190.3480  178.0520  143.2790 C   0  0  1  0  0  3  0  0  0  0  0  0
  189.3760  176.9530  142.8680 C   0  0  2  0  0  3  0  0  0  0  0  0
  190.5960  177.9500  144.7820 C   0  0  0  0  0  2  0  0  0  0  0  0
  193.3630  177.0580  139.4150 C   0  0  0  0  0  3  0  0  0  0  0  0
  192.5910  176.4610  138.3120 C   0  0  0  0  0  0  0  0  0  0  0  0
  191.2810  176.2160  138.3410 C   0  0  0  0  0  3  0  0  0  0  0  0
  191.6430  177.4820  141.2300 C   0  0  0  0  0  0  0  0  0  0  0  0
  190.2830  176.4530  139.3850 C   0  0  0  0  0  3  0  0  0  0  0  0
  190.3820  176.9830  140.5990 C   0  0  0  0  0  0  0  0  0  0  0  0
  193.3110  176.0940  137.0700 C   0  0  0  0  0  0  0  0  0  0  0  0
  194.3340  176.9060  136.5890 O   0  0  0  0  0  1  0  0  0  0  0  0
  193.0040  174.9960  136.3870 C   0  0  0  0  0  2  0  0  0  0  0  0
  188.4010  178.3290  141.0700 N   0  0  0  0  0  2  0  0  0  0  0  0
  187.5000  178.1910  139.9200 C   0  0  2  0  0  3  0  0  0  0  0  0
  187.9950  178.8670  138.8000 O   0  0  0  0  0  1  0  0  0  0  0  0
  183.7520  179.0200  139.5210 C   0  0  0  0  0  2  0  0  0  0  0  0
  185.6800  178.7920  141.6560 C   0  0  0  0  0  3  0  0  0  0  0  0
  181.6340  178.8920  142.5820 C   0  0  0  0  0  0  0  0  0  0  0  0
  182.0040  178.8490  141.2960 C   0  0  0  0  0  3  0  0  0  0  0  0
  183.3910  178.8660  140.9300 N   0  0  0  0  0  0  0  0  0  0  0  0
  183.9640  178.9960  143.3660 C   0  0  0  0  0  3  0  0  0  0  0  0
  184.3910  178.9140  141.9650 C   0  0  0  0  0  0  0  0  0  0  0  0
  182.6590  178.9830  143.6520 C   0  0  0  0  0  3  0  0  0  0  0  0
  186.0950  178.6030  140.2520 C   0  0  0  0  0  0  0  0  0  0  0  0
  185.1900  178.6540  139.2680 C   0  0  0  0  0  3  0  0  0  0  0  0
  180.1780  178.8540  142.9170 C   0  0  0  0  0  3  0  0  0  0  0  0
  179.5690  180.2420  142.8440 C   0  0  0  0  0  1  0  0  0  0  0  0
  179.9550  178.2600  144.2950 C   0  0  0  0  0  1  0  0  0  0  0  0
  1 19  1  1  0  0  0
  1  8  1  0  0  0  0
  2 13  1  0  0  0  0
  4  6  1  0  0  0  0
  6  5  1  0  0  0  0
  7  3  1  6  0  0  0
  7  9  1  0  0  0  0
  8  7  1  0  0  0  0
  8  4  1  1  0  0  0
  9  5  1  0  0  0  0
 10  2  2  0  0  0  0
 11 12  2  0  0  0  0
 11 10  1  0  0  0  0
 12 14  1  0  0  0  0
 13  3  2  0  0  0  0
 14 15  2  0  0  0  0
 15 13  1  0  0  0  0
 15  1  1  0  0  0  0
 16 11  1  0  0  0  0
 17 16  1  0  0  0  0
 18 16  2  0  0  0  0
 20 21  1  6  0  0  0
 20 30  1  0  0  0  0
 20 19  1  0  0  0  0
 22 26  1  0  0  0  0
 23 28  2  0  0  0  0
 24 32  1  0  0  0  0
 24 29  1  0  0  0  0
 25 24  2  0  0  0  0
 26 25  1  0  0  0  0
 26 28  1  0  0  0  0
 27 29  2  0  0  0  0
 28 27  1  0  0  0  0
 30 23  1  0  0  0  0
 31 22  1  0  0  0  0
 31 30  2  0  0  0  0
 32 34  1  0  0  0  0
 33 32  1  0  0  0  0
M  END
>  <MODEL>
2

>  <REMARK>
 VINA RESULT:      -9.3      3.551      8.219
  Name = 
  5 active torsions:
  status: ('A' for Active; 'I' for Inactive)
    1  A    between atoms: C_1  and  N_9
    2  A    between atoms: C_3  and  C_25
    3  A    between atoms: C_7  and  C_11
    4  A    between atoms: C_8  and  N_9
    5  A    between atoms: C_8  and  C_30
                            x       y       z     vdW  Elec       q    Type
                         _______ _______ _______ _____ _____    ______ ____

>  <TORSDO>
F 5

$$$$
=
 OpenBabel10262423173D

 34 38  0  0  1  0  0  0  0  0999 V2000
  191.1970  176.7110  138.3370 C   0  0  2  0  0  3  0  0  0  0  0  0
  191.5840  173.2910  136.3300 C   0  0  0  0  0  3  0  0  0  0  0  0
  189.7540  174.7000  136.8130 C   0  0  0  0  0  3  0  0  0  0  0  0
  189.2030  178.2870  138.0250 C   0  0  0  0  0  2  0  0  0  0  0  0
  187.1210  177.2960  137.3010 O   0  0  0  0  0  0  0  0  0  0  0  0
  187.9290  178.4450  137.1890 C   0  0  0  0  0  2  0  0  0  0  0  0
  189.0350  175.8590  137.4330 C   0  0  1  0  0  3  0  0  0  0  0  0
  189.9610  177.0670  137.5090 C   0  0  2  0  0  3  0  0  0  0  0  0
  187.7890  176.2460  136.6390 C   0  0  0  0  0  2  0  0  0  0  0  0
  192.8250  172.8190  136.2490 C   0  0  0  0  0  3  0  0  0  0  0  0
  194.0890  173.3570  136.7810 C   0  0  0  0  0  0  0  0  0  0  0  0
  194.2070  174.4900  137.4720 C   0  0  0  0  0  3  0  0  0  0  0  0
  191.0710  174.5000  136.9770 C   0  0  0  0  0  0  0  0  0  0  0  0
  193.2020  175.4680  137.8930 C   0  0  0  0  0  3  0  0  0  0  0  0
  191.8850  175.5130  137.7180 C   0  0  0  0  0  0  0  0  0  0  0  0
  195.3350  172.5940  136.5340 C   0  0  0  0  0  0  0  0  0  0  0  0
  196.0720  172.8140  135.3750 O   0  0  0  0  0  1  0  0  0  0  0  0
  195.7790  171.6900  137.4010 C   0  0  0  0  0  2  0  0  0  0  0  0
  190.8220  176.4110  139.7230 N   0  0  0  0  0  2  0  0  0  0  0  0
  191.3930  177.3890  140.6560 C   0  0  2  0  0  3  0  0  0  0  0  0
  192.7910  177.3420  140.6530 O   0  0  0  0  0  1  0  0  0  0  0  0
  191.1240  177.4120  144.5060 C   0  0  0  0  0  2  0  0  0  0  0  0
  189.3870  176.9960  142.2390 C   0  0  0  0  0  3  0  0  0  0  0  0
  187.7130  177.6440  145.9820 C   0  0  0  0  0  0  0  0  0  0  0  0
  189.0390  177.7500  145.8390 C   0  0  0  0  0  3  0  0  0  0  0  0
  189.6640  177.4830  144.5760 N   0  0  0  0  0  0  0  0  0  0  0  0
  187.3990  176.9690  143.6370 C   0  0  0  0  0  3  0  0  0  0  0  0
  188.8460  177.1130  143.4490 C   0  0  0  0  0  0  0  0  0  0  0  0
  186.8680  177.2240  144.8370 C   0  0  0  0  0  3  0  0  0  0  0  0
  190.8280  177.2460  142.0390 C   0  0  0  0  0  0  0  0  0  0  0  0
  191.6220  177.4940  143.0870 C   0  0  0  0  0  3  0  0  0  0  0  0
  187.1030  177.9500  147.3130 C   0  0  0  0  0  3  0  0  0  0  0  0
  186.0850  179.0680  147.1980 C   0  0  0  0  0  1  0  0  0  0  0  0
  188.1710  178.3190  148.3250 C   0  0  0  0  0  1  0  0  0  0  0  0
  1 19  1  1  0  0  0
  2 13  1  0  0  0  0
  3 13  2  0  0  0  0
  3  7  1  0  0  0  0
  6  5  1  0  0  0  0
  6  4  1  0  0  0  0
  7  9  1  6  0  0  0
  7  8  1  0  0  0  0
  8  4  1  1  0  0  0
  8  1  1  0  0  0  0
  9  5  1  0  0  0  0
 10  2  2  0  0  0  0
 10 11  1  0  0  0  0
 11 12  2  0  0  0  0
 12 14  1  0  0  0  0
 13 15  1  0  0  0  0
 15 14  2  0  0  0  0
 15  1  1  0  0  0  0
 16 11  1  0  0  0  0
 16 18  2  0  0  0  0
 17 16  1  0  0  0  0
 19 20  1  0  0  0  0
 20 21  1  1  0  0  0
 20 30  1  0  0  0  0
 22 26  1  0  0  0  0
 23 28  2  0  0  0  0
 24 32  1  0  0  0  0
 25 24  2  0  0  0  0
 26 25  1  0  0  0  0
 27 29  2  0  0  0  0
 28 27  1  0  0  0  0
 28 26  1  0  0  0  0
 29 24  1  0  0  0  0
 30 23  1  0  0  0  0
 30 31  2  0  0  0  0
 31 22  1  0  0  0  0
 32 34  1  0  0  0  0
 33 32  1  0  0  0  0
M  END
>  <MODEL>
3

>  <REMARK>
 VINA RESULT:      -9.2      5.002      8.016
  Name = 
  5 active torsions:
  status: ('A' for Active; 'I' for Inactive)
    1  A    between atoms: C_1  and  N_9
    2  A    between atoms: C_3  and  C_25
    3  A    between atoms: C_7  and  C_11
    4  A    between atoms: C_8  and  N_9
    5  A    between atoms: C_8  and  C_30
                            x       y       z     vdW  Elec       q    Type
                         _______ _______ _______ _____ _____    ______ ____

>  <TORSDO>
F 5

$$$$
=
 OpenBabel10262423173D

 34 38  0  0  1  0  0  0  0  0999 V2000
  189.0600  177.1910  137.1900 C   0  0  2  0  0  3  0  0  0  0  0  0
  191.0780  173.8740  136.2950 C   0  0  0  0  0  3  0  0  0  0  0  0
  188.9110  174.6520  135.7820 C   0  0  0  0  0  2  0  0  0  0  0  0
  187.0200  177.9780  135.8590 C   0  0  0  0  0  2  0  0  0  0  0  0
  185.7270  176.2810  134.7230 O   0  0  0  0  0  0  0  0  0  0  0  0
  186.1870  177.6090  134.6270 C   0  0  0  0  0  2  0  0  0  0  0  0
  187.7320  175.5760  135.8310 C   0  0  1  0  0  3  0  0  0  0  0  0
  188.2060  177.0210  135.9330 C   0  0  2  0  0  3  0  0  0  0  0  0
  186.8480  175.4370  134.5940 C   0  0  0  0  0  2  0  0  0  0  0  0
  192.3250  173.8290  136.7540 C   0  0  0  0  0  2  0  0  0  0  0  0
  193.0900  174.8110  137.5430 C   0  0  0  0  0  0  0  0  0  0  0  0
  192.6280  175.9930  137.9470 C   0  0  0  0  0  3  0  0  0  0  0  0
  190.0570  174.9160  136.4270 C   0  0  0  0  0  0  0  0  0  0  0  0
  191.3240  176.6300  137.7590 C   0  0  0  0  0  3  0  0  0  0  0  0
  190.2200  176.2200  137.1410 C   0  0  0  0  0  0  0  0  0  0  0  0
  194.4830  174.4740  137.9210 C   0  0  0  0  0  0  0  0  0  0  0  0
  195.1060  175.1480  138.9670 O   0  0  0  0  0  1  0  0  0  0  0  0
  195.1680  173.5330  137.2810 C   0  0  0  0  0  2  0  0  0  0  0  0
  188.2590  176.9510  138.3960 N   0  0  0  0  0  2  0  0  0  0  0  0
  188.2780  178.1130  139.2910 C   0  0  2  0  0  3  0  0  0  0  0  0
  189.0800  179.1390  138.7790 O   0  0  0  0  0  1  0  0  0  0  0  0
  190.4410  177.2650  142.3720 C   0  0  0  0  0  2  0  0  0  0  0  0
  187.6520  177.6890  141.7640 C   0  0  0  0  0  3  0  0  0  0  0  0
  188.8830  177.6950  145.7280 C   0  0  0  0  0  0  0  0  0  0  0  0
  189.8070  177.6130  144.7630 C   0  0  0  0  0  3  0  0  0  0  0  0
  189.4220  177.5550  143.3820 N   0  0  0  0  0  0  0  0  0  0  0  0
  187.0280  177.6570  144.1130 C   0  0  0  0  0  3  0  0  0  0  0  0
  188.0250  177.6030  143.0380 C   0  0  0  0  0  0  0  0  0  0  0  0
  187.4390  177.7020  145.3830 C   0  0  0  0  0  3  0  0  0  0  0  0
  188.6670  177.7410  140.6920 C   0  0  0  0  0  0  0  0  0  0  0  0
  189.9640  177.5990  140.9840 C   0  0  0  0  0  3  0  0  0  0  0  0
  189.3310  177.7710  147.1530 C   0  0  0  0  0  3  0  0  0  0  0  0
  190.3870  176.7220  147.4460 C   0  0  0  0  0  1  0  0  0  0  0  0
  188.1560  177.6050  148.0980 C   0  0  0  0  0  1  0  0  0  0  0  0
  1 19  1  1  0  0  0
  2 13  2  0  0  0  0
  2 10  1  0  0  0  0
  3  7  1  0  0  0  0
  3 13  1  0  0  0  0
  6  5  1  0  0  0  0
  6  4  1  0  0  0  0
  7  9  1  6  0  0  0
  7  8  1  0  0  0  0
  8  4  1  1  0  0  0
  8  1  1  0  0  0  0
  9  5  1  0  0  0  0
 10 11  1  0  0  0  0
 11 16  1  0  0  0  0
 11 12  2  0  0  0  0
 13 15  1  0  0  0  0
 14 12  1  0  0  0  0
 15  1  1  0  0  0  0
 15 14  2  0  0  0  0
 16 17  1  0  0  0  0
 18 16  2  0  0  0  0
 19 20  1  0  0  0  0
 20 21  1  6  0  0  0
 20 30  1  0  0  0  0
 22 26  1  0  0  0  0
 23 28  2  0  0  0  0
 24 32  1  0  0  0  0
 25 24  2  0  0  0  0
 26 25  1  0  0  0  0
 27 29  2  0  0  0  0
 28 26  1  0  0  0  0
 28 27  1  0  0  0  0
 29 24  1  0  0  0  0
 30 31  2  0  0  0  0
 30 23  1  0  0  0  0
 31 22  1  0  0  0  0
 32 33  1  0  0  0  0
 32 34  1  0  0  0  0
M  END
>  <MODEL>
4

>  <REMARK>
 VINA RESULT:      -9.1      4.429      7.116
  Name = 
  5 active torsions:
  status: ('A' for Active; 'I' for Inactive)
    1  A    between atoms: C_1  and  N_9
    2  A    between atoms: C_3  and  C_25
    3  A    between atoms: C_7  and  C_11
    4  A    between atoms: C_8  and  N_9
    5  A    between atoms: C_8  and  C_30
                            x       y       z     vdW  Elec       q    Type
                         _______ _______ _______ _____ _____    ______ ____

>  <TORSDO>
F 5

$$$$
=
 OpenBabel10262423173D

 34 38  0  0  1  0  0  0  0  0999 V2000
  182.6990  177.5970  138.8380 C   0  0  2  0  0  3  0  0  0  0  0  0
  185.6320  175.6450  136.9760 C   0  0  0  0  0  3  0  0  0  0  0  0
  183.4030  175.1000  137.5260 C   0  0  0  0  0  3  0  0  0  0  0  0
  180.2330  176.9530  138.6010 C   0  0  0  0  0  2  0  0  0  0  0  0
  179.7440  174.6430  138.0830 O   0  0  0  0  0  0  0  0  0  0  0  0
  179.3250  175.9690  137.8560 C   0  0  0  0  0  2  0  0  0  0  0  0
  182.0500  175.2910  138.1410 C   0  0  1  0  0  3  0  0  0  0  0  0
  181.6580  176.7630  138.0890 C   0  0  2  0  0  3  0  0  0  0  0  0
  180.9780  174.4740  137.4250 C   0  0  0  0  0  2  0  0  0  0  0  0
  186.7610  176.3300  136.8260 C   0  0  0  0  0  3  0  0  0  0  0  0
  187.1090  177.7020  137.2350 C   0  0  0  0  0  0  0  0  0  0  0  0
  186.2880  178.5450  137.8600 C   0  0  0  0  0  3  0  0  0  0  0  0
  184.3650  176.0320  137.6000 C   0  0  0  0  0  0  0  0  0  0  0  0
  184.9030  178.3830  138.3060 C   0  0  0  0  0  3  0  0  0  0  0  0
  184.0640  177.3560  138.2280 C   0  0  0  0  0  0  0  0  0  0  0  0
  188.4720  178.2000  136.9330 C   0  0  0  0  0  0  0  0  0  0  0  0
  188.8820  179.4450  137.4000 O   0  0  0  0  0  1  0  0  0  0  0  0
  189.3310  177.4820  136.2170 C   0  0  0  0  0  2  0  0  0  0  0  0
  182.7190  177.2410  140.2620 N   0  0  0  0  0  2  0  0  0  0  0  0
  182.3580  178.3870  141.1040 C   0  0  2  0  0  3  0  0  0  0  0  0
  182.2190  179.5540  140.3460 O   0  0  0  0  0  1  0  0  0  0  0  0
  183.7130  179.1130  144.6440 C   0  0  0  0  0  2  0  0  0  0  0  0
  184.7330  178.1890  142.1080 C   0  0  0  0  0  3  0  0  0  0  0  0
  187.0560  177.7220  145.5170 C   0  0  0  0  0  0  0  0  0  0  0  0
  185.8080  178.1910  145.6420 C   0  0  0  0  0  3  0  0  0  0  0  0
  184.9900  178.4160  144.4860 N   0  0  0  0  0  0  0  0  0  0  0  0
  186.9000  177.6400  143.0630 C   0  0  0  0  0  3  0  0  0  0  0  0
  185.5180  178.1180  143.1800 C   0  0  0  0  0  0  0  0  0  0  0  0
  187.6220  177.4520  144.1710 C   0  0  0  0  0  3  0  0  0  0  0  0
  183.3130  178.5700  142.2470 C   0  0  0  0  0  0  0  0  0  0  0  0
  182.8290  178.9450  143.4370 C   0  0  0  0  0  3  0  0  0  0  0  0
  187.8660  177.4850  146.7500 C   0  0  0  0  0  3  0  0  0  0  0  0
  187.4240  178.4040  147.8740 C   0  0  0  0  0  1  0  0  0  0  0  0
  189.3450  177.6780  146.4720 C   0  0  0  0  0  1  0  0  0  0  0  0
  1 19  1  1  0  0  0
  2 13  1  0  0  0  0
  3 13  2  0  0  0  0
  3  7  1  0  0  0  0
  6  5  1  0  0  0  0
  6  4  1  0  0  0  0
  7  9  1  6  0  0  0
  8  7  1  0  0  0  0
  8  4  1  1  0  0  0
  8  1  1  0  0  0  0
  9  5  1  0  0  0  0
 10  2  2  0  0  0  0
 10 11  1  0  0  0  0
 11 12  2  0  0  0  0
 12 14  1  0  0  0  0
 13 15  1  0  0  0  0
 15 14  2  0  0  0  0
 15  1  1  0  0  0  0
 16 11  1  0  0  0  0
 16 17  1  0  0  0  0
 18 16  2  0  0  0  0
 19 20  1  0  0  0  0
 20 21  1  6  0  0  0
 20 30  1  0  0  0  0
 23 30  1  0  0  0  0
 23 28  2  0  0  0  0
 24 25  2  0  0  0  0
 24 32  1  0  0  0  0
 26 22  1  0  0  0  0
 26 25  1  0  0  0  0
 27 28  1  0  0  0  0
 27 29  2  0  0  0  0
 28 26  1  0  0  0  0
 29 24  1  0  0  0  0
 30 31  2  0  0  0  0
 31 22  1  0  0  0  0
 32 33  1  0  0  0  0
 34 32  1  0  0  0  0
M  END
>  <MODEL>
5

>  <REMARK>
 VINA RESULT:      -8.9      2.043      3.811
  Name = 
  5 active torsions:
  status: ('A' for Active; 'I' for Inactive)
    1  A    between atoms: C_1  and  N_9
    2  A    between atoms: C_3  and  C_25
    3  A    between atoms: C_7  and  C_11
    4  A    between atoms: C_8  and  N_9
    5  A    between atoms: C_8  and  C_30
                            x       y       z     vdW  Elec       q    Type
                         _______ _______ _______ _____ _____    ______ ____

>  <TORSDO>
F 5

$$$$
=
 OpenBabel10262423173D

 34 38  0  0  1  0  0  0  0  0999 V2000
  188.6320  178.1150  143.5070 C   0  0  2  0  0  3  0  0  0  0  0  0
  191.6000  175.6180  144.4180 C   0  0  0  0  0  3  0  0  0  0  0  0
  190.3940  176.0650  142.4390 C   0  0  0  0  0  2  0  0  0  0  0  0
  188.0910  178.8130  141.1040 C   0  0  0  0  0  2  0  0  0  0  0  0
  188.6830  177.2610  139.3480 O   0  0  0  0  0  0  0  0  0  0  0  0
  188.5940  178.6300  139.6690 C   0  0  0  0  0  2  0  0  0  0  0  0
  189.3370  176.6930  141.5830 C   0  0  1  0  0  3  0  0  0  0  0  0
  189.0760  178.1230  142.0430 C   0  0  2  0  0  3  0  0  0  0  0  0
  189.7380  176.7190  140.1100 C   0  0  0  0  0  2  0  0  0  0  0  0
  192.0420  175.6970  145.6690 C   0  0  0  0  0  2  0  0  0  0  0  0
  191.6150  176.5630  146.7810 C   0  0  0  0  0  0  0  0  0  0  0  0
  190.6520  177.4810  146.7090 C   0  0  0  0  0  3  0  0  0  0  0  0
  190.5400  176.3660  143.7380 C   0  0  0  0  0  0  0  0  0  0  0  0
  189.7840  177.8770  145.5990 C   0  0  0  0  0  3  0  0  0  0  0  0
  189.6930  177.4390  144.3480 C   0  0  0  0  0  0  0  0  0  0  0  0
  192.3010  176.4170  148.0870 C   0  0  0  0  0  0  0  0  0  0  0  0
  192.4300  177.5120  148.9350 O   0  0  0  0  0  1  0  0  0  0  0  0
  192.8060  175.2530  148.4800 C   0  0  0  0  0  2  0  0  0  0  0  0
  187.3530  177.4100  143.6560 N   0  0  0  0  0  2  0  0  0  0  0  0
  186.4520  178.1250  144.5670 C   0  0  2  0  0  3  0  0  0  0  0  0
  186.4660  177.5600  145.8460 O   0  0  0  0  0  1  0  0  0  0  0  0
  182.6580  178.7990  144.3440 C   0  0  0  0  0  2  0  0  0  0  0  0
  184.8110  178.0630  142.5690 C   0  0  0  0  0  3  0  0  0  0  0  0
  181.2190  179.3780  140.9580 C   0  0  0  0  0  0  0  0  0  0  0  0
  181.3870  179.4170  142.2850 C   0  0  0  0  0  3  0  0  0  0  0  0
  182.5910  178.9240  142.8870 N   0  0  0  0  0  0  0  0  0  0  0  0
  183.4150  178.3300  140.5970 C   0  0  0  0  0  3  0  0  0  0  0  0
  183.6340  178.3970  142.0460 C   0  0  0  0  0  0  0  0  0  0  0  0
  182.2720  178.7980  140.0880 C   0  0  0  0  0  3  0  0  0  0  0  0
  185.0600  178.2330  144.0150 C   0  0  0  0  0  0  0  0  0  0  0  0
  184.0740  178.6280  144.8270 C   0  0  0  0  0  3  0  0  0  0  0  0
  179.9540  179.9190  140.3730 C   0  0  0  0  0  3  0  0  0  0  0  0
  180.2320  180.6770  139.0880 C   0  0  0  0  0  1  0  0  0  0  0  0
  179.2410  180.8200  141.3650 C   0  0  0  0  0  1  0  0  0  0  0  0
  1 19  1  6  0  0  0
  1 15  1  0  0  0  0
  2 10  1  0  0  0  0
  3 13  1  0  0  0  0
  5  6  1  0  0  0  0
  5  9  1  0  0  0  0
  6  4  1  0  0  0  0
  7  9  1  6  0  0  0
  7  8  1  0  0  0  0
  7  3  1  0  0  0  0
  8  4  1  6  0  0  0
  8  1  1  0  0  0  0
 10 11  1  0  0  0  0
 11 16  1  0  0  0  0
 12 11  2  0  0  0  0
 13 15  1  0  0  0  0
 13  2  2  0  0  0  0
 14 12  1  0  0  0  0
 15 14  2  0  0  0  0
 16 18  2  0  0  0  0
 16 17  1  0  0  0  0
 19 20  1  0  0  0  0
 20 21  1  1  0  0  0
 22 31  1  0  0  0  0
 23 30  1  0  0  0  0
 24 25  2  0  0  0  0
 25 26  1  0  0  0  0
 26 22  1  0  0  0  0
 27 28  1  0  0  0  0
 28 23  2  0  0  0  0
 28 26  1  0  0  0  0
 29 27  2  0  0  0  0
 29 24  1  0  0  0  0
 30 20  1  0  0  0  0
 30 31  2  0  0  0  0
 32 24  1  0  0  0  0
 32 34  1  0  0  0  0
 33 32  1  0  0  0  0
M  END
>  <MODEL>
6

>  <REMARK>
 VINA RESULT:      -8.9      2.543      9.189
  Name = 
  5 active torsions:
  status: ('A' for Active; 'I' for Inactive)
    1  A    between atoms: C_1  and  N_9
    2  A    between atoms: C_3  and  C_25
    3  A    between atoms: C_7  and  C_11
    4  A    between atoms: C_8  and  N_9
    5  A    between atoms: C_8  and  C_30
                            x       y       z     vdW  Elec       q    Type
                         _______ _______ _______ _____ _____    ______ ____

>  <TORSDO>
F 5

$$$$
=
 OpenBabel10262423173D

 34 38  0  0  1  0  0  0  0  0999 V2000
  184.5400  178.1060  142.0570 C   0  0  2  0  0  3  0  0  0  0  0  0
  185.2610  178.8640  145.9020 C   0  0  0  0  0  3  0  0  0  0  0  0
  183.4550  179.3350  144.4570 C   0  0  0  0  0  2  0  0  0  0  0  0
  182.1860  178.1400  141.0520 C   0  0  0  0  0  2  0  0  0  0  0  0
  180.5500  179.5570  142.1290 O   0  0  0  0  0  0  0  0  0  0  0  0
  180.7210  178.3300  141.4560 C   0  0  0  0  0  2  0  0  0  0  0  0
  182.7070  179.3880  143.1600 C   0  0  1  0  0  3  0  0  0  0  0  0
  183.0340  178.1590  142.3200 C   0  0  2  0  0  3  0  0  0  0  0  0
  181.1970  179.4450  143.3760 C   0  0  0  0  0  2  0  0  0  0  0  0
  186.4100  178.3850  146.3670 C   0  0  0  0  0  2  0  0  0  0  0  0
  187.4690  177.6140  145.6920 C   0  0  0  0  0  0  0  0  0  0  0  0
  187.4420  177.2340  144.4150 C   0  0  0  0  0  3  0  0  0  0  0  0
  184.6730  178.7810  144.5630 C   0  0  0  0  0  0  0  0  0  0  0  0
  186.4410  177.4540  143.3690 C   0  0  0  0  0  3  0  0  0  0  0  0
  185.2780  178.0970  143.3780 C   0  0  0  0  0  0  0  0  0  0  0  0
  188.6600  177.2180  146.4800 C   0  0  0  0  0  0  0  0  0  0  0  0
  188.5270  176.8650  147.8190 O   0  0  0  0  0  1  0  0  0  0  0  0
  189.8730  177.1910  145.9380 C   0  0  0  0  0  2  0  0  0  0  0  0
  184.9660  179.2600  141.2560 N   0  0  0  0  0  2  0  0  0  0  0  0
  185.2140  178.8790  139.8600 C   0  0  2  0  0  3  0  0  0  0  0  0
  184.3480  177.8610  139.4470 O   0  0  0  0  0  1  0  0  0  0  0  0
  188.9540  178.1760  140.5010 C   0  0  0  0  0  2  0  0  0  0  0  0
  187.0880  178.0060  138.3070 C   0  0  0  0  0  3  0  0  0  0  0  0
  190.7580  176.0900  137.9970 C   0  0  0  0  0  0  0  0  0  0  0  0
  190.4260  176.6720  139.1570 C   0  0  0  0  0  3  0  0  0  0  0  0
  189.1910  177.3890  139.2910 N   0  0  0  0  0  0  0  0  0  0  0  0
  188.6940  176.8520  136.8940 C   0  0  0  0  0  3  0  0  0  0  0  0
  188.2960  177.4660  138.1660 C   0  0  0  0  0  0  0  0  0  0  0  0
  189.8590  176.2010  136.8210 C   0  0  0  0  0  3  0  0  0  0  0  0
  186.6530  178.5270  139.6190 C   0  0  0  0  0  0  0  0  0  0  0  0
  187.5040  178.5530  140.6490 C   0  0  0  0  0  3  0  0  0  0  0  0
  192.0470  175.3380  137.9090 C   0  0  0  0  0  3  0  0  0  0  0  0
  193.1560  176.2250  137.3750 C   0  0  0  0  0  1  0  0  0  0  0  0
  191.8960  174.1080  137.0320 C   0  0  0  0  0  1  0  0  0  0  0  0
  1 19  1  6  0  0  0
  1  8  1  0  0  0  0
  1 15  1  0  0  0  0
  2 10  1  0  0  0  0
  3 13  1  0  0  0  0
  4  6  1  0  0  0  0
  5  9  1  0  0  0  0
  6  5  1  0  0  0  0
  7  9  1  1  0  0  0
  7  3  1  0  0  0  0
  8  4  1  6  0  0  0
  8  7  1  0  0  0  0
 11 10  1  0  0  0  0
 11 16  1  0  0  0  0
 12 11  2  0  0  0  0
 13  2  2  0  0  0  0
 14 15  2  0  0  0  0
 14 12  1  0  0  0  0
 15 13  1  0  0  0  0
 16 17  1  0  0  0  0
 18 16  2  0  0  0  0
 20 21  1  1  0  0  0
 20 19  1  0  0  0  0
 22 31  1  0  0  0  0
 23 30  1  0  0  0  0
 24 25  2  0  0  0  0
 25 26  1  0  0  0  0
 26 22  1  0  0  0  0
 27 28  1  0  0  0  0
 28 23  2  0  0  0  0
 28 26  1  0  0  0  0
 29 27  2  0  0  0  0
 29 24  1  0  0  0  0
 30 20  1  0  0  0  0
 30 31  2  0  0  0  0
 32 24  1  0  0  0  0
 33 32  1  0  0  0  0
 34 32  1  0  0  0  0
M  END
>  <MODEL>
7

>  <REMARK>
 VINA RESULT:      -8.7      3.061      6.602
  Name = 
  5 active torsions:
  status: ('A' for Active; 'I' for Inactive)
    1  A    between atoms: C_1  and  N_9
    2  A    between atoms: C_3  and  C_25
    3  A    between atoms: C_7  and  C_11
    4  A    between atoms: C_8  and  N_9
    5  A    between atoms: C_8  and  C_30
                            x       y       z     vdW  Elec       q    Type
                         _______ _______ _______ _____ _____    ______ ____

>  <TORSDO>
F 5

$$$$
=
 OpenBabel10262423173D

 34 38  0  0  1  0  0  0  0  0999 V2000
  184.6050  178.2520  141.7300 C   0  0  2  0  0  3  0  0  0  0  0  0
  185.5240  178.5910  145.5920 C   0  0  0  0  0  3  0  0  0  0  0  0
  183.5990  179.0960  144.3230 C   0  0  0  0  0  2  0  0  0  0  0  0
  182.1930  178.2300  140.8720 C   0  0  0  0  0  2  0  0  0  0  0  0
  180.5390  179.3780  142.2100 O   0  0  0  0  0  0  0  0  0  0  0  0
  180.7480  178.2580  141.3800 C   0  0  0  0  0  2  0  0  0  0  0  0
  182.7650  179.2490  143.0880 C   0  0  1  0  0  3  0  0  0  0  0  0
  183.1190  178.1590  142.0830 C   0  0  2  0  0  3  0  0  0  0  0  0
  181.2730  179.1660  143.3950 C   0  0  0  0  0  2  0  0  0  0  0  0
  186.7310  178.1470  145.9280 C   0  0  0  0  0  2  0  0  0  0  0  0
  187.7930  177.5450  145.1020 C   0  0  0  0  0  0  0  0  0  0  0  0
  187.7070  177.3220  143.7910 C   0  0  0  0  0  3  0  0  0  0  0  0
  184.8560  178.6260  144.2890 C   0  0  0  0  0  0  0  0  0  0  0  0
  186.6280  177.5910  142.8390 C   0  0  0  0  0  3  0  0  0  0  0  0
  185.4270  178.1380  142.9960 C   0  0  0  0  0  0  0  0  0  0  0  0
  189.0570  177.1480  145.7650 C   0  0  0  0  0  0  0  0  0  0  0  0
  189.0530  176.7520  147.0990 O   0  0  0  0  0  1  0  0  0  0  0  0
  190.2160  177.1590  145.1150 C   0  0  0  0  0  2  0  0  0  0  0  0
  184.8980  179.5230  141.0570 N   0  0  0  0  0  2  0  0  0  0  0  0
  184.9800  179.3510  139.6020 C   0  0  2  0  0  3  0  0  0  0  0  0
  183.7470  178.9710  139.0620 O   0  0  0  0  0  1  0  0  0  0  0  0
  187.0190  176.7610  137.5940 C   0  0  0  0  0  2  0  0  0  0  0  0
  187.3560  178.3910  139.9520 C   0  0  0  0  0  3  0  0  0  0  0  0
  190.6840  176.5940  138.2400 C   0  0  0  0  0  0  0  0  0  0  0  0
  189.5030  176.4970  137.6170 C   0  0  0  0  0  3  0  0  0  0  0  0
  188.3180  177.0580  138.2000 N   0  0  0  0  0  0  0  0  0  0  0  0
  189.7080  177.8100  140.1440 C   0  0  0  0  0  3  0  0  0  0  0  0
  188.4110  177.7460  139.4610 C   0  0  0  0  0  0  0  0  0  0  0  0
  190.7800  177.2650  139.5610 C   0  0  0  0  0  3  0  0  0  0  0  0
  186.0810  178.4100  139.2060 C   0  0  0  0  0  0  0  0  0  0  0  0
  185.9470  177.6970  138.0830 C   0  0  0  0  0  3  0  0  0  0  0  0
  191.8950  176.0100  137.5870 C   0  0  0  0  0  3  0  0  0  0  0  0
  191.7840  174.5010  137.4900 C   0  0  0  0  0  1  0  0  0  0  0  0
  193.1540  176.3920  138.3440 C   0  0  0  0  0  1  0  0  0  0  0  0
  1 19  1  1  0  0  0
  1  8  1  0  0  0  0
  1 15  1  0  0  0  0
  2 10  1  0  0  0  0
  4  6  1  0  0  0  0
  5  9  1  0  0  0  0
  6  5  1  0  0  0  0
  7  9  1  1  0  0  0
  7  3  1  0  0  0  0
  8  4  1  6  0  0  0
  8  7  1  0  0  0  0
 11 16  1  0  0  0  0
 11 10  1  0  0  0  0
 12 11  2  0  0  0  0
 13  3  1  0  0  0  0
 13  2  2  0  0  0  0
 14 15  2  0  0  0  0
 14 12  1  0  0  0  0
 15 13  1  0  0  0  0
 16 17  1  0  0  0  0
 18 16  2  0  0  0  0
 20 21  1  1  0  0  0
 20 19  1  0  0  0  0
 22 31  1  0  0  0  0
 22 26  1  0  0  0  0
 24 29  1  0  0  0  0
 25 26  1  0  0  0  0
 25 24  2  0  0  0  0
 26 28  1  0  0  0  0
 28 23  2  0  0  0  0
 28 27  1  0  0  0  0
 29 27  2  0  0  0  0
 30 20  1  0  0  0  0
 30 23  1  0  0  0  0
 31 30  2  0  0  0  0
 32 24  1  0  0  0  0
 32 34  1  0  0  0  0
 33 32  1  0  0  0  0
M  END
>  <MODEL>
8

>  <REMARK>
 VINA RESULT:      -8.6      3.111      6.228
  Name = 
  5 active torsions:
  status: ('A' for Active; 'I' for Inactive)
    1  A    between atoms: C_1  and  N_9
    2  A    between atoms: C_3  and  C_25
    3  A    between atoms: C_7  and  C_11
    4  A    between atoms: C_8  and  N_9
    5  A    between atoms: C_8  and  C_30
                            x       y       z     vdW  Elec       q    Type
                         _______ _______ _______ _____ _____    ______ ____

>  <TORSDO>
F 5

$$$$
=
 OpenBabel10262423173D

 34 38  0  0  1  0  0  0  0  0999 V2000
  183.3170  178.1140  139.0260 C   0  0  2  0  0  3  0  0  0  0  0  0
  184.5930  175.1840  136.6450 C   0  0  0  0  0  3  0  0  0  0  0  0
  182.5680  175.5940  137.7860 C   0  0  0  0  0  3  0  0  0  0  0  0
  180.8360  178.5570  139.4770 C   0  0  0  0  0  2  0  0  0  0  0  0
  179.3320  176.6750  139.2910 O   0  0  0  0  0  0  0  0  0  0  0  0
  179.4450  178.0630  139.0700 C   0  0  0  0  0  2  0  0  0  0  0  0
  181.6270  176.3080  138.7070 C   0  0  1  0  0  3  0  0  0  0  0  0
  181.8690  177.8110  138.6370 C   0  0  2  0  0  3  0  0  0  0  0  0
  180.1670  176.0310  138.3570 C   0  0  0  0  0  2  0  0  0  0  0  0
  185.8190  175.3450  136.1580 C   0  0  0  0  0  3  0  0  0  0  0  0
  186.7900  176.4360  136.3520 C   0  0  0  0  0  0  0  0  0  0  0  0
  186.5810  177.5230  137.0930 C   0  0  0  0  0  3  0  0  0  0  0  0
  183.8090  176.0410  137.5380 C   0  0  0  0  0  0  0  0  0  0  0  0
  185.4230  177.9340  137.8890 C   0  0  0  0  0  3  0  0  0  0  0  0
  184.2500  177.3500  138.1110 C   0  0  0  0  0  0  0  0  0  0  0  0
  188.1040  176.3340  135.6730 C   0  0  0  0  0  0  0  0  0  0  0  0
  188.5100  175.1270  135.1140 O   0  0  0  0  0  1  0  0  0  0  0  0
  188.9210  177.3780  135.5810 C   0  0  0  0  0  2  0  0  0  0  0  0
  183.5680  177.7370  140.4220 N   0  0  0  0  0  2  0  0  0  0  0  0
  184.1630  178.8450  141.1770 C   0  0  2  0  0  3  0  0  0  0  0  0
  184.7730  179.7730  140.3260 O   0  0  0  0  0  1  0  0  0  0  0  0
  187.3540  177.5510  142.9190 C   0  0  0  0  0  2  0  0  0  0  0  0
  184.7080  178.4260  143.6700 C   0  0  0  0  0  3  0  0  0  0  0  0
  187.6350  178.0840  146.5940 C   0  0  0  0  0  0  0  0  0  0  0  0
  187.9750  177.8980  145.3130 C   0  0  0  0  0  3  0  0  0  0  0  0
  186.9850  177.9550  144.2760 N   0  0  0  0  0  0  0  0  0  0  0  0
  185.2590  178.3980  146.0370 C   0  0  0  0  0  3  0  0  0  0  0  0
  185.6160  178.2320  144.6240 C   0  0  0  0  0  0  0  0  0  0  0  0
  186.2180  178.3290  146.9640 C   0  0  0  0  0  3  0  0  0  0  0  0
  185.0980  178.3620  142.2460 C   0  0  0  0  0  0  0  0  0  0  0  0
  186.3420  178.0090  141.9030 C   0  0  0  0  0  3  0  0  0  0  0  0
  188.7020  178.0330  147.6390 C   0  0  0  0  0  3  0  0  0  0  0  0
  189.6850  176.9130  147.3570 C   0  0  0  0  0  1  0  0  0  0  0  0
  188.0990  177.8600  149.0210 C   0  0  0  0  0  1  0  0  0  0  0  0
  1 19  1  1  0  0  0
  2 13  1  0  0  0  0
  6  5  1  0  0  0  0
  6  4  1  0  0  0  0
  7  3  1  6  0  0  0
  8  7  1  0  0  0  0
  8  1  1  0  0  0  0
  8  4  1  1  0  0  0
  9  7  1  0  0  0  0
  9  5  1  0  0  0  0
 10 11  1  0  0  0  0
 10  2  2  0  0  0  0
 11 12  2  0  0  0  0
 12 14  1  0  0  0  0
 13  3  2  0  0  0  0
 13 15  1  0  0  0  0
 14 15  2  0  0  0  0
 15  1  1  0  0  0  0
 16 11  1  0  0  0  0
 17 16  1  0  0  0  0
 18 16  2  0  0  0  0
 19 20  1  0  0  0  0
 20 21  1  6  0  0  0
 20 30  1  0  0  0  0
 22 26  1  0  0  0  0
 23 28  2  0  0  0  0
 24 29  1  0  0  0  0
 24 32  1  0  0  0  0
 25 24  2  0  0  0  0
 26 28  1  0  0  0  0
 26 25  1  0  0  0  0
 27 29  2  0  0  0  0
 28 27  1  0  0  0  0
 30 23  1  0  0  0  0
 31 30  2  0  0  0  0
 31 22  1  0  0  0  0
 32 34  1  0  0  0  0
 33 32  1  0  0  0  0
M  END
>  <MODEL>
9

>  <REMARK>
 VINA RESULT:      -8.3      2.069      3.033
  Name = 
  5 active torsions:
  status: ('A' for Active; 'I' for Inactive)
    1  A    between atoms: C_1  and  N_9
    2  A    between atoms: C_3  and  C_25
    3  A    between atoms: C_7  and  C_11
    4  A    between atoms: C_8  and  N_9
    5  A    between atoms: C_8  and  C_30
                            x       y       z     vdW  Elec       q    Type
                         _______ _______ _______ _____ _____    ______ ____

>  <TORSDO>
F 5

$$$$
