=
 OpenBabel10262420123D

 27 31  0  0  0  0  0  0  0  0999 V2000
  186.4090  178.7900  141.3050 N   0  0  0  0  0  0  0  0  0  0  0  0
  185.8820  178.5120  143.6930 C   0  0  0  0  0  0  0  0  0  0  0  0
  187.9540  177.2000  143.2650 N   0  0  0  0  0  0  0  0  0  0  0  0
  186.6980  178.5780  147.7690 C   0  0  0  0  0  3  0  0  0  0  0  0
  188.0800  177.9640  149.6110 F   0  0  0  0  0  0  0  0  0  0  0  0
  185.0750  179.1440  144.5910 N   0  0  0  0  0  0  0  0  0  0  0  0
  188.7060  177.2710  147.4180 C   0  0  0  0  0  3  0  0  0  0  0  0
  191.0340  176.3020  139.8860 F   0  0  0  0  0  0  0  0  0  0  0  0
  188.4520  177.2420  146.0450 C   0  0  0  0  0  3  0  0  0  0  0  0
  189.9270  176.9650  140.2970 C   0  0  0  0  0  0  0  0  0  0  0  0
  187.3160  177.8800  145.5210 C   0  0  0  0  0  0  0  0  0  0  0  0
  185.4950  178.4600  142.3170 N   0  0  0  0  0  0  0  0  0  0  0  0
  187.8300  177.9380  148.2800 C   0  0  0  0  0  0  0  0  0  0  0  0
  186.4400  178.5500  146.3960 C   0  0  0  0  0  0  0  0  0  0  0  0
  187.6060  178.3120  141.1400 C   0  0  0  0  0  0  0  0  0  0  0  0
  187.0440  177.8770  144.1430 C   0  0  0  0  0  0  0  0  0  0  0  0
  189.3680  176.6860  141.5430 C   0  0  0  0  0  3  0  0  0  0  0  0
  185.3440  179.1690  145.8960 N   0  0  0  0  0  0  0  0  0  0  0  0
  189.3760  177.9650  139.5020 C   0  0  0  0  0  3  0  0  0  0  0  0
  188.2210  178.6220  139.9200 C   0  0  0  0  0  3  0  0  0  0  0  0
  188.2360  177.3710  142.0060 C   0  0  0  0  0  0  0  0  0  0  0  0
  181.4230  178.2080  141.2420 N   0  0  0  0  0  0  0  0  0  0  0  0
  184.1020  178.3500  141.9550 C   0  0  0  0  0  0  0  0  0  0  0  0
  183.7160  177.7820  140.7310 C   0  0  0  0  0  3  0  0  0  0  0  0
  182.3630  177.7160  140.3930 C   0  0  0  0  0  3  0  0  0  0  0  0
  181.7660  178.7750  142.4300 C   0  0  0  0  0  3  0  0  0  0  0  0
  183.1090  178.8600  142.8040 C   0  0  0  0  0  3  0  0  0  0  0  0
  1 12  1  0  0  0  0
  2 16  2  0  0  0  0
  2  6  1  0  0  0  0
  3 16  1  0  0  0  0
  4 13  1  0  0  0  0
  6 18  2  0  0  0  0
  7 13  2  0  0  0  0
  8 10  1  0  0  0  0
  9  7  1  0  0  0  0
 10 17  2  0  0  0  0
 11  9  2  0  0  0  0
 11 14  1  0  0  0  0
 12  2  1  0  0  0  0
 13  5  1  0  0  0  0
 14  4  2  0  0  0  0
 15  1  2  0  0  0  0
 15 21  1  0  0  0  0
 16 11  1  0  0  0  0
 17 21  1  0  0  0  0
 18 14  1  0  0  0  0
 19 20  2  0  0  0  0
 19 10  1  0  0  0  0
 20 15  1  0  0  0  0
 21  3  2  0  0  0  0
 22 26  1  0  0  0  0
 23 12  1  0  0  0  0
 23 27  1  0  0  0  0
 24 23  2  0  0  0  0
 25 24  1  0  0  0  0
 25 22  2  0  0  0  0
 26 27  2  0  0  0  0
M  END
>  <MODEL>
1

>  <REMARK>
 VINA RESULT:     -10.0      0.000      0.000
  Name = 
  1 active torsions:
  status: ('A' for Active; 'I' for Inactive)
    1  A    between atoms: C_9  and  N_15
                            x       y       z     vdW  Elec       q    Type
                         _______ _______ _______ _____ _____    ______ ____

>  <TORSDO>
F 1

$$$$
=
 OpenBabel10262420123D

 27 31  0  0  0  0  0  0  0  0999 V2000
  186.8070  178.9100  140.1610 N   0  0  0  0  0  0  0  0  0  0  0  0
  185.9190  178.6310  142.4400 C   0  0  0  0  0  0  0  0  0  0  0  0
  187.9930  177.2600  142.3130 N   0  0  0  0  0  0  0  0  0  0  0  0
  186.1130  178.6440  146.5930 C   0  0  0  0  0  3  0  0  0  0  0  0
  187.1840  177.9760  148.6150 F   0  0  0  0  0  0  0  0  0  0  0  0
  185.0040  179.2800  143.2140 N   0  0  0  0  0  0  0  0  0  0  0  0
  188.1130  177.2790  146.5330 C   0  0  0  0  0  3  0  0  0  0  0  0
  191.5200  176.2940  139.4260 F   0  0  0  0  0  0  0  0  0  0  0  0
  188.0680  177.2680  145.1360 C   0  0  0  0  0  3  0  0  0  0  0  0
  190.3830  176.9870  139.6740 C   0  0  0  0  0  0  0  0  0  0  0  0
  187.0430  177.9430  144.4560 C   0  0  0  0  0  0  0  0  0  0  0  0
  185.7420  178.6000  141.0210 N   0  0  0  0  0  0  0  0  0  0  0  0
  187.1370  177.9660  147.2610 C   0  0  0  0  0  0  0  0  0  0  0  0
  186.0640  178.6330  145.1970 C   0  0  0  0  0  0  0  0  0  0  0  0
  188.0010  178.3970  140.1730 C   0  0  0  0  0  0  0  0  0  0  0  0
  186.9810  177.9580  143.0520 C   0  0  0  0  0  0  0  0  0  0  0  0
  189.6350  176.7160  140.8180 C   0  0  0  0  0  3  0  0  0  0  0  0
  185.0750  179.2880  144.5450 N   0  0  0  0  0  0  0  0  0  0  0  0
  189.9880  178.0080  138.8160 C   0  0  0  0  0  3  0  0  0  0  0  0
  188.8020  178.6970  139.0630 C   0  0  0  0  0  3  0  0  0  0  0  0
  188.4670  177.4310  141.1130 C   0  0  0  0  0  0  0  0  0  0  0  0
  181.8960  178.3790  139.3010 N   0  0  0  0  0  0  0  0  0  0  0  0
  184.4170  178.5350  140.4520 C   0  0  0  0  0  0  0  0  0  0  0  0
  183.5120  177.5350  140.8430 C   0  0  0  0  0  3  0  0  0  0  0  0
  182.2470  177.4760  140.2550 C   0  0  0  0  0  3  0  0  0  0  0  0
  182.7550  179.3510  138.8930 C   0  0  0  0  0  3  0  0  0  0  0  0
  184.0290  179.4430  139.4570 C   0  0  0  0  0  3  0  0  0  0  0  0
  1 15  2  0  0  0  0
  1 12  1  0  0  0  0
  2 16  2  0  0  0  0
  2  6  1  0  0  0  0
  3 16  1  0  0  0  0
  4 13  1  0  0  0  0
  6 18  2  0  0  0  0
  7 13  2  0  0  0  0
  8 10  1  0  0  0  0
  9  7  1  0  0  0  0
 10 17  2  0  0  0  0
 11  9  2  0  0  0  0
 11 14  1  0  0  0  0
 12  2  1  0  0  0  0
 13  5  1  0  0  0  0
 14  4  2  0  0  0  0
 15 21  1  0  0  0  0
 16 11  1  0  0  0  0
 17 21  1  0  0  0  0
 18 14  1  0  0  0  0
 19 20  2  0  0  0  0
 19 10  1  0  0  0  0
 20 15  1  0  0  0  0
 21  3  2  0  0  0  0
 22 25  1  0  0  0  0
 23 24  1  0  0  0  0
 23 12  1  0  0  0  0
 25 24  2  0  0  0  0
 26 22  2  0  0  0  0
 26 27  1  0  0  0  0
 27 23  2  0  0  0  0
M  END
>  <MODEL>
2

>  <REMARK>
 VINA RESULT:      -9.9      1.171      1.479
  Name = 
  1 active torsions:
  status: ('A' for Active; 'I' for Inactive)
    1  A    between atoms: C_9  and  N_15
                            x       y       z     vdW  Elec       q    Type
                         _______ _______ _______ _____ _____    ______ ____

>  <TORSDO>
F 1

$$$$
=
 OpenBabel10262420123D

 27 31  0  0  0  0  0  0  0  0999 V2000
  189.9630  178.1710  142.2830 N   0  0  0  0  0  0  0  0  0  0  0  0
  187.5740  178.2680  141.6950 C   0  0  0  0  0  0  0  0  0  0  0  0
  187.6950  177.4630  144.0480 N   0  0  0  0  0  0  0  0  0  0  0  0
  183.6020  179.3780  142.2180 C   0  0  0  0  0  3  0  0  0  0  0  0
  181.6610  179.5270  143.5940 F   0  0  0  0  0  0  0  0  0  0  0  0
  186.8390  178.8460  140.7040 N   0  0  0  0  0  0  0  0  0  0  0  0
  183.6490  178.5770  144.5030 C   0  0  0  0  0  3  0  0  0  0  0  0
  190.7790  176.6960  147.4550 F   0  0  0  0  0  0  0  0  0  0  0  0
  184.9860  178.2030  144.3490 C   0  0  0  0  0  3  0  0  0  0  0  0
  190.5280  177.1280  146.1960 C   0  0  0  0  0  0  0  0  0  0  0  0
  185.6430  178.4100  143.1260 C   0  0  0  0  0  0  0  0  0  0  0  0
  188.9100  177.8370  141.4170 N   0  0  0  0  0  0  0  0  0  0  0  0
  182.9570  179.1640  143.4400 C   0  0  0  0  0  0  0  0  0  0  0  0
  184.9390  179.0030  142.0600 C   0  0  0  0  0  0  0  0  0  0  0  0
  190.0120  177.9870  143.5680 C   0  0  0  0  0  0  0  0  0  0  0  0
  186.9900  178.0540  142.9470 C   0  0  0  0  0  0  0  0  0  0  0  0
  189.2560  176.9790  145.6470 C   0  0  0  0  0  3  0  0  0  0  0  0
  185.5680  179.2070  140.8790 N   0  0  0  0  0  0  0  0  0  0  0  0
  191.5240  177.7690  145.4670 C   0  0  0  0  0  3  0  0  0  0  0  0
  191.2660  178.1840  144.1620 C   0  0  0  0  0  3  0  0  0  0  0  0
  188.9590  177.4360  144.3560 C   0  0  0  0  0  0  0  0  0  0  0  0
  189.8950  176.2200  137.6470 N   0  0  0  0  0  0  0  0  0  0  0  0
  189.2490  177.3060  140.1190 C   0  0  0  0  0  0  0  0  0  0  0  0
  188.3070  177.2850  139.0780 C   0  0  0  0  0  3  0  0  0  0  0  0
  188.6530  176.7380  137.8410 C   0  0  0  0  0  3  0  0  0  0  0  0
  190.8250  176.2150  138.6390 C   0  0  0  0  0  3  0  0  0  0  0  0
  190.5180  176.7530  139.8910 C   0  0  0  0  0  3  0  0  0  0  0  0
  1 15  2  0  0  0  0
  2 16  1  0  0  0  0
  3 21  2  0  0  0  0
  4 13  2  0  0  0  0
  6 18  1  0  0  0  0
  6  2  2  0  0  0  0
  9  7  2  0  0  0  0
 10  8  1  0  0  0  0
 11  9  1  0  0  0  0
 12  2  1  0  0  0  0
 12  1  1  0  0  0  0
 13  5  1  0  0  0  0
 13  7  1  0  0  0  0
 14  4  1  0  0  0  0
 14 11  1  0  0  0  0
 15 20  1  0  0  0  0
 15 21  1  0  0  0  0
 16 11  2  0  0  0  0
 16  3  1  0  0  0  0
 17 10  2  0  0  0  0
 18 14  2  0  0  0  0
 19 10  1  0  0  0  0
 20 19  2  0  0  0  0
 21 17  1  0  0  0  0
 22 25  2  0  0  0  0
 22 26  1  0  0  0  0
 23 12  1  0  0  0  0
 24 23  2  0  0  0  0
 25 24  1  0  0  0  0
 26 27  2  0  0  0  0
 27 23  1  0  0  0  0
M  END
>  <MODEL>
3

>  <REMARK>
 VINA RESULT:      -9.7      2.697      5.733
  Name = 
  1 active torsions:
  status: ('A' for Active; 'I' for Inactive)
    1  A    between atoms: C_9  and  N_15
                            x       y       z     vdW  Elec       q    Type
                         _______ _______ _______ _____ _____    ______ ____

>  <TORSDO>
F 1

$$$$
=
 OpenBabel10262420123D

 27 31  0  0  0  0  0  0  0  0999 V2000
  190.7140  177.9170  142.2130 N   0  0  0  0  0  0  0  0  0  0  0  0
  188.4680  177.9730  141.2070 C   0  0  0  0  0  0  0  0  0  0  0  0
  188.1760  177.1930  143.5520 N   0  0  0  0  0  0  0  0  0  0  0  0
  184.4530  179.0300  140.9970 C   0  0  0  0  0  3  0  0  0  0  0  0
  182.2950  179.1640  142.0010 F   0  0  0  0  0  0  0  0  0  0  0  0
  187.9150  178.5310  140.0930 N   0  0  0  0  0  0  0  0  0  0  0  0
  184.1000  178.2520  143.2630 C   0  0  0  0  0  3  0  0  0  0  0  0
  190.6100  176.5040  147.4650 F   0  0  0  0  0  0  0  0  0  0  0  0
  185.4480  177.8960  143.3550 C   0  0  0  0  0  3  0  0  0  0  0  0
  190.5830  176.9200  146.1770 C   0  0  0  0  0  0  0  0  0  0  0  0
  186.3100  178.1010  142.2670 C   0  0  0  0  0  0  0  0  0  0  0  0
  189.8370  177.5590  141.1770 N   0  0  0  0  0  0  0  0  0  0  0  0
  183.6020  178.8190  142.0860 C   0  0  0  0  0  0  0  0  0  0  0  0
  185.8010  178.6730  141.0850 C   0  0  0  0  0  0  0  0  0  0  0  0
  190.5340  177.7460  143.4890 C   0  0  0  0  0  0  0  0  0  0  0  0
  187.6720  177.7630  142.3360 C   0  0  0  0  0  0  0  0  0  0  0  0
  189.4310  176.7470  145.4110 C   0  0  0  0  0  3  0  0  0  0  0  0
  186.6280  178.8750  140.0330 N   0  0  0  0  0  0  0  0  0  0  0  0
  191.6850  177.5680  145.6300 C   0  0  0  0  0  3  0  0  0  0  0  0
  191.6590  177.9670  144.2950 C   0  0  0  0  0  3  0  0  0  0  0  0
  189.3650  177.1870  144.0820 C   0  0  0  0  0  0  0  0  0  0  0  0
  191.5390  175.9300  137.6770 N   0  0  0  0  0  0  0  0  0  0  0  0
  190.4100  177.0200  139.9670 C   0  0  0  0  0  0  0  0  0  0  0  0
  189.6170  176.3310  139.0360 C   0  0  0  0  0  3  0  0  0  0  0  0
  190.2030  175.7940  137.8880 C   0  0  0  0  0  3  0  0  0  0  0  0
  192.3360  176.5820  138.5660 C   0  0  0  0  0  3  0  0  0  0  0  0
  191.7870  177.1330  139.7260 C   0  0  0  0  0  3  0  0  0  0  0  0
  1 15  2  0  0  0  0
  2 16  1  0  0  0  0
  3 21  2  0  0  0  0
  4 14  1  0  0  0  0
  4 13  2  0  0  0  0
  5 13  1  0  0  0  0
  6  2  2  0  0  0  0
  7  9  2  0  0  0  0
 10  8  1  0  0  0  0
 11 16  2  0  0  0  0
 11  9  1  0  0  0  0
 12  2  1  0  0  0  0
 12  1  1  0  0  0  0
 13  7  1  0  0  0  0
 14 11  1  0  0  0  0
 15 21  1  0  0  0  0
 15 20  1  0  0  0  0
 16  3  1  0  0  0  0
 17 10  2  0  0  0  0
 18  6  1  0  0  0  0
 18 14  2  0  0  0  0
 19 10  1  0  0  0  0
 20 19  2  0  0  0  0
 21 17  1  0  0  0  0
 22 25  2  0  0  0  0
 22 26  1  0  0  0  0
 23 12  1  0  0  0  0
 24 23  2  0  0  0  0
 25 24  1  0  0  0  0
 26 27  2  0  0  0  0
 27 23  1  0  0  0  0
M  END
>  <MODEL>
4

>  <REMARK>
 VINA RESULT:      -9.3      3.021      6.436
  Name = 
  1 active torsions:
  status: ('A' for Active; 'I' for Inactive)
    1  A    between atoms: C_9  and  N_15
                            x       y       z     vdW  Elec       q    Type
                         _______ _______ _______ _____ _____    ______ ____

>  <TORSDO>
F 1

$$$$
=
 OpenBabel10262420123D

 27 31  0  0  0  0  0  0  0  0999 V2000
  187.7890  178.7640  140.9450 N   0  0  0  0  0  0  0  0  0  0  0  0
  188.2500  177.8820  143.1970 C   0  0  0  0  0  0  0  0  0  0  0  0
  189.6620  176.5740  141.6190 N   0  0  0  0  0  0  0  0  0  0  0  0
  190.6660  176.7560  146.3860 C   0  0  0  0  0  3  0  0  0  0  0  0
  192.5360  175.5460  147.2370 F   0  0  0  0  0  0  0  0  0  0  0  0
  188.0230  178.3060  144.4720 N   0  0  0  0  0  0  0  0  0  0  0  0
  192.0550  175.4350  144.9050 C   0  0  0  0  0  3  0  0  0  0  0  0
  190.8390  176.3930  137.1150 F   0  0  0  0  0  0  0  0  0  0  0  0
  191.2580  175.8070  143.8200 C   0  0  0  0  0  3  0  0  0  0  0  0
  190.1520  177.0050  138.1080 C   0  0  0  0  0  0  0  0  0  0  0  0
  190.1560  176.6560  144.0090 C   0  0  0  0  0  0  0  0  0  0  0  0
  187.3280  178.2440  142.1640 N   0  0  0  0  0  0  0  0  0  0  0  0
  191.7600  175.9080  146.1870 C   0  0  0  0  0  0  0  0  0  0  0  0
  189.8660  177.1280  145.3030 C   0  0  0  0  0  0  0  0  0  0  0  0
  188.6940  178.2530  140.1650 C   0  0  0  0  0  0  0  0  0  0  0  0
  189.3450  177.0550  142.9330 C   0  0  0  0  0  0  0  0  0  0  0  0
  190.1130  176.4400  139.3810 C   0  0  0  0  0  3  0  0  0  0  0  0
  188.8050  177.9480  145.4910 N   0  0  0  0  0  0  0  0  0  0  0  0
  189.5280  178.2270  137.8750 C   0  0  0  0  0  3  0  0  0  0  0  0
  188.8000  178.8350  138.8950 C   0  0  0  0  0  3  0  0  0  0  0  0
  189.4290  177.0610  140.4350 C   0  0  0  0  0  0  0  0  0  0  0  0
  183.2140  178.6280  143.0190 N   0  0  0  0  0  0  0  0  0  0  0  0
  185.9170  178.3520  142.4500 C   0  0  0  0  0  0  0  0  0  0  0  0
  184.9790  178.4940  141.4160 C   0  0  0  0  0  3  0  0  0  0  0  0
  183.6230  178.6280  141.7230 C   0  0  0  0  0  3  0  0  0  0  0  0
  184.1010  178.5040  144.0440 C   0  0  0  0  0  3  0  0  0  0  0  0
  185.4650  178.3680  143.7780 C   0  0  0  0  0  3  0  0  0  0  0  0
  1 12  1  0  0  0  0
  2  6  1  0  0  0  0
  3 16  1  0  0  0  0
  6 18  2  0  0  0  0
  7 13  2  0  0  0  0
  8 10  1  0  0  0  0
  9 11  2  0  0  0  0
  9  7  1  0  0  0  0
 10 17  2  0  0  0  0
 11 14  1  0  0  0  0
 12 23  1  0  0  0  0
 12  2  1  0  0  0  0
 13  4  1  0  0  0  0
 13  5  1  0  0  0  0
 14 18  1  0  0  0  0
 14  4  2  0  0  0  0
 15 21  1  0  0  0  0
 15  1  2  0  0  0  0
 16  2  2  0  0  0  0
 16 11  1  0  0  0  0
 17 21  1  0  0  0  0
 19 10  1  0  0  0  0
 19 20  2  0  0  0  0
 20 15  1  0  0  0  0
 21  3  2  0  0  0  0
 22 26  1  0  0  0  0
 23 27  1  0  0  0  0
 24 25  1  0  0  0  0
 24 23  2  0  0  0  0
 25 22  2  0  0  0  0
 27 26  2  0  0  0  0
M  END
>  <MODEL>
5

>  <REMARK>
 VINA RESULT:      -9.0      2.304      3.024
  Name = 
  1 active torsions:
  status: ('A' for Active; 'I' for Inactive)
    1  A    between atoms: C_9  and  N_15
                            x       y       z     vdW  Elec       q    Type
                         _______ _______ _______ _____ _____    ______ ____

>  <TORSDO>
F 1

$$$$
=
 OpenBabel10262420123D

 27 31  0  0  0  0  0  0  0  0999 V2000
  189.7000  178.0950  141.9880 N   0  0  0  0  0  0  0  0  0  0  0  0
  187.5820  178.1360  140.7360 C   0  0  0  0  0  0  0  0  0  0  0  0
  187.0110  177.5050  143.0750 N   0  0  0  0  0  0  0  0  0  0  0  0
  183.6440  179.2600  140.0180 C   0  0  0  0  0  3  0  0  0  0  0  0
  181.3930  179.4980  140.7650 F   0  0  0  0  0  0  0  0  0  0  0  0
  187.1700  178.6370  139.5370 N   0  0  0  0  0  0  0  0  0  0  0  0
  183.0220  178.6270  142.2710 C   0  0  0  0  0  3  0  0  0  0  0  0
  188.9790  177.0040  147.2690 F   0  0  0  0  0  0  0  0  0  0  0  0
  184.3410  178.2500  142.5340 C   0  0  0  0  0  3  0  0  0  0  0  0
  189.1050  177.3420  145.9630 C   0  0  0  0  0  0  0  0  0  0  0  0
  185.3240  178.3720  141.5390 C   0  0  0  0  0  0  0  0  0  0  0  0
  188.9340  177.6930  140.8840 N   0  0  0  0  0  0  0  0  0  0  0  0
  182.6730  179.1310  141.0150 C   0  0  0  0  0  0  0  0  0  0  0  0
  184.9640  178.8810  140.2760 C   0  0  0  0  0  0  0  0  0  0  0  0
  189.3760  178.0050  143.2440 C   0  0  0  0  0  0  0  0  0  0  0  0
  186.6600  178.0110  141.7800 C   0  0  0  0  0  0  0  0  0  0  0  0
  188.0410  177.1470  145.0850 C   0  0  0  0  0  3  0  0  0  0  0  0
  185.9080  179.0030  139.3140 N   0  0  0  0  0  0  0  0  0  0  0  0
  190.2780  177.9340  145.5070 C   0  0  0  0  0  3  0  0  0  0  0  0
  190.4110  178.2520  144.1560 C   0  0  0  0  0  3  0  0  0  0  0  0
  188.1340  177.5070  143.7340 C   0  0  0  0  0  0  0  0  0  0  0  0
  190.9300  175.9310  137.6110 N   0  0  0  0  0  0  0  0  0  0  0  0
  189.6230  177.0710  139.7780 C   0  0  0  0  0  0  0  0  0  0  0  0
  191.0230  177.1150  139.6820 C   0  0  0  0  0  3  0  0  0  0  0  0
  191.6610  176.5320  138.5860 C   0  0  0  0  0  3  0  0  0  0  0  0
  189.5720  175.8820  137.6700 C   0  0  0  0  0  3  0  0  0  0  0  0
  188.8960  176.4540  138.7500 C   0  0  0  0  0  3  0  0  0  0  0  0
  1 15  2  0  0  0  0
  2 12  1  0  0  0  0
  2 16  1  0  0  0  0
  3 21  2  0  0  0  0
  4 14  1  0  0  0  0
  4 13  2  0  0  0  0
  5 13  1  0  0  0  0
  6  2  2  0  0  0  0
  7  9  2  0  0  0  0
 10  8  1  0  0  0  0
 11 16  2  0  0  0  0
 11  9  1  0  0  0  0
 12  1  1  0  0  0  0
 13  7  1  0  0  0  0
 14 11  1  0  0  0  0
 15 21  1  0  0  0  0
 15 20  1  0  0  0  0
 16  3  1  0  0  0  0
 17 10  2  0  0  0  0
 18  6  1  0  0  0  0
 18 14  2  0  0  0  0
 19 10  1  0  0  0  0
 20 19  2  0  0  0  0
 21 17  1  0  0  0  0
 22 26  2  0  0  0  0
 22 25  1  0  0  0  0
 23 12  1  0  0  0  0
 24 23  1  0  0  0  0
 25 24  2  0  0  0  0
 26 27  1  0  0  0  0
 27 23  2  0  0  0  0
M  END
>  <MODEL>
6

>  <REMARK>
 VINA RESULT:      -9.0      2.884      6.560
  Name = 
  1 active torsions:
  status: ('A' for Active; 'I' for Inactive)
    1  A    between atoms: C_9  and  N_15
                            x       y       z     vdW  Elec       q    Type
                         _______ _______ _______ _____ _____    ______ ____

>  <TORSDO>
F 1

$$$$
=
 OpenBabel10262420123D

 27 31  0  0  0  0  0  0  0  0999 V2000
  189.6680  177.9960  140.2930 N   0  0  0  0  0  0  0  0  0  0  0  0
  187.2370  178.2560  140.5820 C   0  0  0  0  0  0  0  0  0  0  0  0
  188.0730  177.0870  142.6140 N   0  0  0  0  0  0  0  0  0  0  0  0
  183.7750  179.3880  142.5860 C   0  0  0  0  0  3  0  0  0  0  0  0
  182.4260  179.3760  144.5510 F   0  0  0  0  0  0  0  0  0  0  0  0
  186.2620  179.0050  139.9930 N   0  0  0  0  0  0  0  0  0  0  0  0
  184.5190  178.2360  144.5820 C   0  0  0  0  0  3  0  0  0  0  0  0
  192.0460  175.7000  144.6130 F   0  0  0  0  0  0  0  0  0  0  0  0
  185.6920  177.8500  143.9270 C   0  0  0  0  0  3  0  0  0  0  0  0
  191.4240  176.3330  143.5900 C   0  0  0  0  0  0  0  0  0  0  0  0
  185.9150  178.2290  142.5940 C   0  0  0  0  0  0  0  0  0  0  0  0
  188.3620  177.8350  139.8050 N   0  0  0  0  0  0  0  0  0  0  0  0
  183.5610  179.0030  143.9130 C   0  0  0  0  0  0  0  0  0  0  0  0
  184.9460  179.0020  141.9280 C   0  0  0  0  0  0  0  0  0  0  0  0
  190.1300  177.6110  141.4450 C   0  0  0  0  0  0  0  0  0  0  0  0
  187.0910  177.8650  141.9160 C   0  0  0  0  0  0  0  0  0  0  0  0
  190.0340  176.3110  143.4970 C   0  0  0  0  0  3  0  0  0  0  0  0
  185.1570  179.3720  140.6430 N   0  0  0  0  0  0  0  0  0  0  0  0
  192.1680  177.0510  142.6580 C   0  0  0  0  0  3  0  0  0  0  0  0
  191.5210  177.6740  141.5930 C   0  0  0  0  0  3  0  0  0  0  0  0
  189.3600  176.9740  142.4620 C   0  0  0  0  0  0  0  0  0  0  0  0
  187.9610  176.8470  135.7230 N   0  0  0  0  0  0  0  0  0  0  0  0
  188.2020  177.5050  138.4090 C   0  0  0  0  0  0  0  0  0  0  0  0
  187.4920  176.3600  138.0130 C   0  0  0  0  0  3  0  0  0  0  0  0
  187.3790  176.0490  136.6570 C   0  0  0  0  0  3  0  0  0  0  0  0
  188.6650  177.9560  136.0750 C   0  0  0  0  0  3  0  0  0  0  0  0
  188.8010  178.3010  137.4210 C   0  0  0  0  0  3  0  0  0  0  0  0
  1 15  2  0  0  0  0
  2 16  1  0  0  0  0
  4 13  2  0  0  0  0
  6  2  2  0  0  0  0
  6 18  1  0  0  0  0
  9  7  2  0  0  0  0
 10  8  1  0  0  0  0
 11  9  1  0  0  0  0
 12  1  1  0  0  0  0
 12  2  1  0  0  0  0
 13  5  1  0  0  0  0
 13  7  1  0  0  0  0
 14  4  1  0  0  0  0
 14 11  1  0  0  0  0
 15 20  1  0  0  0  0
 15 21  1  0  0  0  0
 16 11  2  0  0  0  0
 16  3  1  0  0  0  0
 17 10  2  0  0  0  0
 18 14  2  0  0  0  0
 19 10  1  0  0  0  0
 20 19  2  0  0  0  0
 21  3  2  0  0  0  0
 21 17  1  0  0  0  0
 22 26  2  0  0  0  0
 22 25  1  0  0  0  0
 23 12  1  0  0  0  0
 24 23  1  0  0  0  0
 25 24  2  0  0  0  0
 26 27  1  0  0  0  0
 27 23  2  0  0  0  0
M  END
>  <MODEL>
7

>  <REMARK>
 VINA RESULT:      -9.0      2.981      5.110
  Name = 
  1 active torsions:
  status: ('A' for Active; 'I' for Inactive)
    1  A    between atoms: C_9  and  N_15
                            x       y       z     vdW  Elec       q    Type
                         _______ _______ _______ _____ _____    ______ ____

>  <TORSDO>
F 1

$$$$
=
 OpenBabel10262420123D

 27 31  0  0  0  0  0  0  0  0999 V2000
  189.7570  176.8070  140.8690 N   0  0  0  0  0  0  0  0  0  0  0  0
  187.8670  177.6880  142.1760 C   0  0  0  0  0  0  0  0  0  0  0  0
  187.5890  178.5490  139.8570 N   0  0  0  0  0  0  0  0  0  0  0  0
  183.8560  178.4170  142.9890 C   0  0  0  0  0  3  0  0  0  0  0  0
  181.7190  179.2160  142.3000 F   0  0  0  0  0  0  0  0  0  0  0  0
  187.3000  177.4010  143.3820 N   0  0  0  0  0  0  0  0  0  0  0  0
  183.5340  179.3000  140.7570 C   0  0  0  0  0  3  0  0  0  0  0  0
  189.4880  178.2000  135.6170 F   0  0  0  0  0  0  0  0  0  0  0  0
  184.8780  179.0570  140.4630 C   0  0  0  0  0  3  0  0  0  0  0  0
  189.4780  177.8170  136.9160 C   0  0  0  0  0  0  0  0  0  0  0  0
  185.7240  178.4940  141.4310 C   0  0  0  0  0  0  0  0  0  0  0  0
  189.2720  177.4870  141.9960 N   0  0  0  0  0  0  0  0  0  0  0  0
  183.0230  178.9810  142.0190 C   0  0  0  0  0  0  0  0  0  0  0  0
  185.2010  178.1750  142.6990 C   0  0  0  0  0  0  0  0  0  0  0  0
  189.4820  177.0530  139.6230 C   0  0  0  0  0  0  0  0  0  0  0  0
  187.0760  178.2280  141.1580 C   0  0  0  0  0  0  0  0  0  0  0  0
  188.6290  178.4490  137.8230 C   0  0  0  0  0  3  0  0  0  0  0  0
  186.0120  177.6290  143.6360 N   0  0  0  0  0  0  0  0  0  0  0  0
  190.2750  176.7580  137.3380 C   0  0  0  0  0  3  0  0  0  0  0  0
  190.2800  176.3900  138.6820 C   0  0  0  0  0  3  0  0  0  0  0  0
  188.5800  178.0600  139.1690 C   0  0  0  0  0  0  0  0  0  0  0  0
  192.0010  178.1340  145.1480 N   0  0  0  0  0  0  0  0  0  0  0  0
  190.1880  177.7190  143.0870 C   0  0  0  0  0  0  0  0  0  0  0  0
  190.7330  178.9920  143.3160 C   0  0  0  0  0  3  0  0  0  0  0  0
  191.6400  179.1810  144.3600 C   0  0  0  0  0  3  0  0  0  0  0  0
  191.5000  176.8870  144.9440 C   0  0  0  0  0  3  0  0  0  0  0  0
  190.5900  176.6570  143.9100 C   0  0  0  0  0  3  0  0  0  0  0  0
  1 12  1  0  0  0  0
  2  6  1  0  0  0  0
  3 16  1  0  0  0  0
  6 18  2  0  0  0  0
  7 13  1  0  0  0  0
  8 10  1  0  0  0  0
  9  7  2  0  0  0  0
  9 11  1  0  0  0  0
 10 19  1  0  0  0  0
 10 17  2  0  0  0  0
 11 14  2  0  0  0  0
 12  2  1  0  0  0  0
 12 23  1  0  0  0  0
 13  5  1  0  0  0  0
 13  4  2  0  0  0  0
 14  4  1  0  0  0  0
 14 18  1  0  0  0  0
 15  1  2  0  0  0  0
 16 11  1  0  0  0  0
 16  2  2  0  0  0  0
 17 21  1  0  0  0  0
 19 20  2  0  0  0  0
 20 15  1  0  0  0  0
 21 15  1  0  0  0  0
 21  3  2  0  0  0  0
 23 24  2  0  0  0  0
 23 27  1  0  0  0  0
 24 25  1  0  0  0  0
 25 22  2  0  0  0  0
 26 22  1  0  0  0  0
 27 26  2  0  0  0  0
M  END
>  <MODEL>
8

>  <REMARK>
 VINA RESULT:      -8.8      3.291      6.106
  Name = 
  1 active torsions:
  status: ('A' for Active; 'I' for Inactive)
    1  A    between atoms: C_9  and  N_15
                            x       y       z     vdW  Elec       q    Type
                         _______ _______ _______ _____ _____    ______ ____

>  <TORSDO>
F 1

$$$$
=
 OpenBabel10262420123D

 27 31  0  0  0  0  0  0  0  0999 V2000
  187.2450  177.1810  142.1860 N   0  0  0  0  0  0  0  0  0  0  0  0
  189.4860  176.8270  143.1420 C   0  0  0  0  0  0  0  0  0  0  0  0
  188.1790  178.0890  144.8430 N   0  0  0  0  0  0  0  0  0  0  0  0
  192.2000  175.6090  146.0450 C   0  0  0  0  0  3  0  0  0  0  0  0
  192.9520  175.6200  148.3070 F   0  0  0  0  0  0  0  0  0  0  0  0
  190.5480  176.0210  142.8590 N   0  0  0  0  0  0  0  0  0  0  0  0
  190.9910  176.8490  147.7380 C   0  0  0  0  0  3  0  0  0  0  0  0
  183.8800  179.7010  145.6390 F   0  0  0  0  0  0  0  0  0  0  0  0
  190.0650  177.2640  146.7770 C   0  0  0  0  0  3  0  0  0  0  0  0
  184.7290  179.0130  144.8390 C   0  0  0  0  0  0  0  0  0  0  0  0
  190.2000  176.8570  145.4410 C   0  0  0  0  0  0  0  0  0  0  0  0
  188.6410  177.2730  142.0770 N   0  0  0  0  0  0  0  0  0  0  0  0
  192.0570  176.0220  147.3730 C   0  0  0  0  0  0  0  0  0  0  0  0
  191.2770  176.0240  145.0820 C   0  0  0  0  0  0  0  0  0  0  0  0
  186.5020  177.6190  143.1580 C   0  0  0  0  0  0  0  0  0  0  0  0
  189.2770  177.2500  144.4580 C   0  0  0  0  0  0  0  0  0  0  0  0
  186.0900  178.9730  145.1350 C   0  0  0  0  0  3  0  0  0  0  0  0
  191.4110  175.6270  143.7950 N   0  0  0  0  0  0  0  0  0  0  0  0
  184.2380  178.3000  143.7500 C   0  0  0  0  0  3  0  0  0  0  0  0
  185.1220  177.6190  142.9150 C   0  0  0  0  0  3  0  0  0  0  0  0
  186.9910  178.2520  144.3390 C   0  0  0  0  0  0  0  0  0  0  0  0
  190.2380  178.0350  138.2460 N   0  0  0  0  0  0  0  0  0  0  0  0
  189.1960  177.5550  140.7740 C   0  0  0  0  0  0  0  0  0  0  0  0
  188.5680  178.4570  139.9010 C   0  0  0  0  0  3  0  0  0  0  0  0
  189.1100  178.6870  138.6350 C   0  0  0  0  0  3  0  0  0  0  0  0
  190.8620  177.1460  139.0650 C   0  0  0  0  0  3  0  0  0  0  0  0
  190.3510  176.8880  140.3390 C   0  0  0  0  0  3  0  0  0  0  0  0
  1 15  2  0  0  0  0
  2 16  1  0  0  0  0
  4 13  2  0  0  0  0
  6  2  2  0  0  0  0
  6 18  1  0  0  0  0
  9  7  2  0  0  0  0
 10 17  2  0  0  0  0
 10  8  1  0  0  0  0
 11  9  1  0  0  0  0
 12  1  1  0  0  0  0
 12  2  1  0  0  0  0
 13  7  1  0  0  0  0
 13  5  1  0  0  0  0
 14 11  1  0  0  0  0
 14  4  1  0  0  0  0
 15 21  1  0  0  0  0
 16  3  1  0  0  0  0
 16 11  2  0  0  0  0
 18 14  2  0  0  0  0
 19 10  1  0  0  0  0
 20 15  1  0  0  0  0
 20 19  2  0  0  0  0
 21  3  2  0  0  0  0
 21 17  1  0  0  0  0
 22 25  2  0  0  0  0
 22 26  1  0  0  0  0
 23 12  1  0  0  0  0
 24 23  2  0  0  0  0
 25 24  1  0  0  0  0
 26 27  2  0  0  0  0
 27 23  1  0  0  0  0
M  END
>  <MODEL>
9

>  <REMARK>
 VINA RESULT:      -8.6      2.986      5.722
  Name = 
  1 active torsions:
  status: ('A' for Active; 'I' for Inactive)
    1  A    between atoms: C_9  and  N_15
                            x       y       z     vdW  Elec       q    Type
                         _______ _______ _______ _____ _____    ______ ____

>  <TORSDO>
F 1

$$$$
