=
 OpenBabel10262422033D

 30 32  0  0  1  0  0  0  0  0999 V2000
  186.2460  177.4080  144.8860 C   0  0  2  0  0  3  0  0  0  0  0  0
  183.9520  178.9830  143.3000 C   0  0  2  0  0  3  0  0  0  0  0  0
  186.3910  179.4740  141.8560 O   0  0  0  0  0  1  0  0  0  0  0  0
  184.7670  177.9280  142.6700 N   0  0  0  0  0  0  0  0  0  0  0  0
  185.3780  178.4410  145.6000 C   0  0  0  0  0  2  0  0  0  0  0  0
  187.1440  176.7730  145.9380 C   0  0  0  0  0  1  0  0  0  0  0  0
  184.6910  180.1410  143.9640 C   0  0  0  0  0  2  0  0  0  0  0  0
  184.1860  178.9990  144.8140 C   0  0  1  0  0  0  0  0  0  0  0  0
  186.1940  178.2250  142.4550 C   0  0  2  0  0  3  0  0  0  0  0  0
  183.1010  179.4220  145.5800 O   0  0  0  0  0  1  0  0  0  0  0  0
  187.0420  178.0630  143.7300 C   0  0  2  0  0  3  0  0  0  0  0  0
  188.3570  177.3180  143.4170 C   0  0  1  0  0  3  0  0  0  0  0  0
  188.1160  176.1130  142.7520 O   0  0  0  0  0  1  0  0  0  0  0  0
  189.4120  178.1480  142.6760 C   0  0  2  0  0  3  0  0  0  0  0  0
  190.4830  175.7430  142.1070 O   0  0  0  0  0  0  0  0  0  0  0  0
  191.8150  177.7120  141.5430 O   0  0  0  0  0  0  0  0  0  0  0  0
  190.4210  177.1510  141.5870 S   0  0  0  0  0  0  0  0  0  0  0  0
  189.7490  177.1450  139.9620 C   0  0  0  0  0  0  0  0  0  0  0  0
  188.6800  177.8840  139.6800 C   0  0  0  0  0  2  0  0  0  0  0  0
  190.4460  176.1200  138.7190 Cl  0  0  0  0  0  0  0  0  0  0  0  0
  190.2170  178.8670  143.5640 O   0  0  0  0  0  0  0  0  0  0  0  0
  190.2030  178.1240  144.7430 C   0  0  0  0  0  2  0  0  0  0  0  0
  191.5620  176.5110  146.4620 S   0  0  0  0  0  1  0  0  0  0  0  0
  191.6090  177.6570  145.0590 C   0  0  0  0  0  2  0  0  0  0  0  0
  184.1650  177.6320  141.3790 C   0  0  0  0  0  2  0  0  0  0  0  0
  182.9000  178.4070  141.2200 C   0  0  0  0  0  3  0  0  0  0  0  0
  181.8990  177.9040  140.5070 C   0  0  0  0  0  3  0  0  0  0  0  0
  180.6350  178.6760  140.3470 C   0  0  0  0  0  3  0  0  0  0  0  0
  179.5510  178.0370  141.1910 C   0  0  0  0  0  2  0  0  0  0  0  0
  180.2550  179.2830  141.6800 C   0  0  0  0  0  2  0  0  0  0  0  0
  1  5  1  0  0  0  0
  1  6  1  1  0  0  0
  2  7  1  6  0  0  0
  2  8  1  0  0  0  0
  4  2  1  0  0  0  0
  7  8  1  0  0  0  0
  8 10  1  1  0  0  0
  8  5  1  0  0  0  0
  9  3  1  1  0  0  0
  9  4  1  0  0  0  0
  9 11  1  0  0  0  0
 11 12  1  6  0  0  0
 11  1  1  0  0  0  0
 12 13  1  6  0  0  0
 14 12  1  0  0  0  0
 14 21  1  1  0  0  0
 16 17  2  0  0  0  0
 17 15  2  0  0  0  0
 17 14  1  0  0  0  0
 18 17  1  0  0  0  0
 19 18  2  0  0  0  0
 20 18  1  0  0  0  0
 21 22  1  0  0  0  0
 22 24  1  0  0  0  0
 24 23  1  0  0  0  0
 25  4  1  0  0  0  0
 26 25  1  0  0  0  0
 27 26  2  0  0  0  0
 28 27  1  0  0  0  0
 28 29  1  0  0  0  0
 28 30  1  0  0  0  0
 29 30  1  0  0  0  0
M  END
>  <MODEL>
1

>  <REMARK>
 VINA RESULT:      -6.5      0.000      0.000
  Name = 
  10 active torsions:
  status: ('A' for Active; 'I' for Inactive)
    1  A    between atoms: C_1  and  C_4
    2  A    between atoms: C_1  and  C_29
    3  A    between atoms: C_4  and  O_5
    4  A    between atoms: C_4  and  S_12
    5  A    between atoms: O_5  and  C_21
    6  A    between atoms: C_10  and  C_25
    7  A    between atoms: N_11  and  C_24
    8  A    between atoms: S_12  and  C_13
    9  A    between atoms: C_15  and  C_24
   10  A    between atoms: C_17  and  C_21
                            x       y       z     vdW  Elec       q    Type
                         _______ _______ _______ _____ _____    ______ ____

>  <TORSDO>
F 10

$$$$
=
 OpenBabel10262422033D

 30 32  0  0  1  0  0  0  0  0999 V2000
  189.2510  178.3350  140.1570 C   0  0  2  0  0  3  0  0  0  0  0  0
  189.0030  177.7400  143.2940 C   0  0  2  0  0  3  0  0  0  0  0  0
  190.9090  175.8400  142.2780 O   0  0  0  0  0  1  0  0  0  0  0  0
  190.2810  178.1100  142.6590 N   0  0  0  0  0  0  0  0  0  0  0  0
  187.8930  178.0280  140.7840 C   0  0  0  0  0  2  0  0  0  0  0  0
  189.0020  178.6790  138.6960 C   0  0  0  0  0  1  0  0  0  0  0  0
  188.2470  176.5490  142.7150 C   0  0  0  0  0  2  0  0  0  0  0  0
  187.8440  177.9490  142.3150 C   0  0  1  0  0  0  0  0  0  0  0  0
  190.8750  177.1290  141.7330 C   0  0  2  0  0  3  0  0  0  0  0  0
  186.6220  178.2770  142.8990 O   0  0  0  0  0  1  0  0  0  0  0  0
  190.2220  177.1430  140.3380 C   0  0  2  0  0  3  0  0  0  0  0  0
  191.2980  177.0810  139.2340 C   0  0  1  0  0  3  0  0  0  0  0  0
  192.5850  177.1840  139.7680 O   0  0  0  0  0  1  0  0  0  0  0  0
  191.1940  175.8730  138.2950 C   0  0  2  0  0  3  0  0  0  0  0  0
  193.5560  176.8650  137.4610 O   0  0  0  0  0  0  0  0  0  0  0  0
  192.0450  176.0050  135.7440 O   0  0  0  0  0  0  0  0  0  0  0  0
  192.5570  175.7880  137.1400 S   0  0  0  0  0  0  0  0  0  0  0  0
  193.3420  174.2170  137.2310 C   0  0  0  0  0  0  0  0  0  0  0  0
  194.4380  174.0620  137.9660 C   0  0  0  0  0  2  0  0  0  0  0  0
  192.7180  172.8610  136.3070 Cl  0  0  0  0  0  0  0  0  0  0  0  0
  189.9750  175.8570  137.6120 O   0  0  0  0  0  0  0  0  0  0  0  0
  189.6900  174.5060  137.4170 C   0  0  0  0  0  2  0  0  0  0  0  0
  188.3240  175.9490  135.5590 S   0  0  0  0  0  1  0  0  0  0  0  0
  188.9270  174.3350  136.1200 C   0  0  0  0  0  2  0  0  0  0  0  0
  191.2360  178.3640  143.7260 C   0  0  0  0  0  2  0  0  0  0  0  0
  190.7760  177.7080  144.9840 C   0  0  0  0  0  3  0  0  0  0  0  0
  191.5680  176.8460  145.6110 C   0  0  0  0  0  3  0  0  0  0  0  0
  191.1110  176.1890  146.8680 C   0  0  0  0  0  3  0  0  0  0  0  0
  192.3180  175.7190  147.6530 C   0  0  0  0  0  2  0  0  0  0  0  0
  191.6050  176.9910  148.0530 C   0  0  0  0  0  2  0  0  0  0  0  0
  1  6  1  6  0  0  0
  1 11  1  0  0  0  0
  1  5  1  0  0  0  0
  2  7  1  6  0  0  0
  4  2  1  0  0  0  0
  4 25  1  0  0  0  0
  5  8  1  0  0  0  0
  8  7  1  0  0  0  0
  8 10  1  1  0  0  0
  8  2  1  0  0  0  0
  9  3  1  1  0  0  0
  9  4  1  0  0  0  0
 11 12  1  6  0  0  0
 11  9  1  0  0  0  0
 12 13  1  1  0  0  0
 14 21  1  6  0  0  0
 14 12  1  0  0  0  0
 16 17  2  0  0  0  0
 17 18  1  0  0  0  0
 17 15  2  0  0  0  0
 17 14  1  0  0  0  0
 18 19  2  0  0  0  0
 20 18  1  0  0  0  0
 22 21  1  0  0  0  0
 23 24  1  0  0  0  0
 24 22  1  0  0  0  0
 25 26  1  0  0  0  0
 26 27  2  0  0  0  0
 27 28  1  0  0  0  0
 28 29  1  0  0  0  0
 28 30  1  0  0  0  0
 29 30  1  0  0  0  0
M  END
>  <MODEL>
2

>  <REMARK>
 VINA RESULT:      -6.4      4.373      7.624
  Name = 
  10 active torsions:
  status: ('A' for Active; 'I' for Inactive)
    1  A    between atoms: C_1  and  C_4
    2  A    between atoms: C_1  and  C_29
    3  A    between atoms: C_4  and  O_5
    4  A    between atoms: C_4  and  S_12
    5  A    between atoms: O_5  and  C_21
    6  A    between atoms: C_10  and  C_25
    7  A    between atoms: N_11  and  C_24
    8  A    between atoms: S_12  and  C_13
    9  A    between atoms: C_15  and  C_24
   10  A    between atoms: C_17  and  C_21
                            x       y       z     vdW  Elec       q    Type
                         _______ _______ _______ _____ _____    ______ ____

>  <TORSDO>
F 10

$$$$
=
 OpenBabel10262422033D

 30 32  0  0  1  0  0  0  0  0999 V2000
  187.0470  178.5580  141.5580 C   0  0  2  0  0  3  0  0  0  0  0  0
  188.7360  177.3600  144.0010 C   0  0  2  0  0  3  0  0  0  0  0  0
  189.9650  176.3320  141.6120 O   0  0  0  0  0  1  0  0  0  0  0  0
  189.3460  178.2030  142.9570 N   0  0  0  0  0  0  0  0  0  0  0  0
  186.3580  177.7510  142.6560 C   0  0  0  0  0  2  0  0  0  0  0  0
  185.9570  179.0690  140.6270 C   0  0  0  0  0  1  0  0  0  0  0  0
  187.9680  176.1220  143.5470 C   0  0  0  0  0  2  0  0  0  0  0  0
  187.2090  177.3870  143.8780 C   0  0  1  0  0  0  0  0  0  0  0  0
  189.4370  177.6280  141.6030 C   0  0  2  0  0  3  0  0  0  0  0  0
  186.5120  177.2230  145.0730 O   0  0  0  0  0  1  0  0  0  0  0  0
  188.1080  177.6990  140.8270 C   0  0  2  0  0  3  0  0  0  0  0  0
  188.3500  178.1610  139.3750 C   0  0  1  0  0  3  0  0  0  0  0  0
  189.6800  178.5380  139.1730 O   0  0  0  0  0  1  0  0  0  0  0  0
  187.8950  177.1710  138.2960 C   0  0  2  0  0  3  0  0  0  0  0  0
  190.0890  175.6460  138.6390 O   0  0  0  0  0  0  0  0  0  0  0  0
  190.1320  177.2530  136.8000 O   0  0  0  0  0  0  0  0  0  0  0  0
  189.2650  176.2890  137.5580 S   0  0  0  0  0  0  0  0  0  0  0  0
  188.6760  175.0500  136.4570 C   0  0  0  0  0  0  0  0  0  0  0  0
  189.1420  174.9890  135.2140 C   0  0  0  0  0  2  0  0  0  0  0  0
  187.4300  173.9270  136.9730 Cl  0  0  0  0  0  0  0  0  0  0  0  0
  187.1340  177.8020  137.3080 O   0  0  0  0  0  0  0  0  0  0  0  0
  185.8770  177.2030  137.3860 C   0  0  0  0  0  2  0  0  0  0  0  0
  186.4530  177.6680  134.7680 S   0  0  0  0  0  1  0  0  0  0  0  0
  185.4050  176.8420  135.9940 C   0  0  0  0  0  2  0  0  0  0  0  0
  190.6920  178.5340  143.4010 C   0  0  0  0  0  2  0  0  0  0  0  0
  190.8120  178.2980  144.8690 C   0  0  0  0  0  3  0  0  0  0  0  0
  191.5060  177.2580  145.3180 C   0  0  0  0  0  3  0  0  0  0  0  0
  191.6280  177.0190  146.7840 C   0  0  0  0  0  3  0  0  0  0  0  0
  190.7480  175.8480  147.1730 C   0  0  0  0  0  2  0  0  0  0  0  0
  192.2400  175.6540  147.0130 C   0  0  0  0  0  2  0  0  0  0  0  0
  1  6  1  6  0  0  0
  1  5  1  0  0  0  0
  2  7  1  6  0  0  0
  4 25  1  0  0  0  0
  4  2  1  0  0  0  0
  5  8  1  0  0  0  0
  7  8  1  0  0  0  0
  8  2  1  0  0  0  0
  8 10  1  1  0  0  0
  9  3  1  1  0  0  0
  9  4  1  0  0  0  0
 11 12  1  6  0  0  0
 11  1  1  0  0  0  0
 11  9  1  0  0  0  0
 12 13  1  1  0  0  0
 14 21  1  6  0  0  0
 14 12  1  0  0  0  0
 16 17  2  0  0  0  0
 17 14  1  0  0  0  0
 17 15  2  0  0  0  0
 18 20  1  0  0  0  0
 18 17  1  0  0  0  0
 19 18  2  0  0  0  0
 21 22  1  0  0  0  0
 23 24  1  0  0  0  0
 24 22  1  0  0  0  0
 25 26  1  0  0  0  0
 26 27  2  0  0  0  0
 27 28  1  0  0  0  0
 28 30  1  0  0  0  0
 28 29  1  0  0  0  0
 30 29  1  0  0  0  0
M  END
>  <MODEL>
3

>  <REMARK>
 VINA RESULT:      -6.2      3.570      7.188
  Name = 
  10 active torsions:
  status: ('A' for Active; 'I' for Inactive)
    1  A    between atoms: C_1  and  C_4
    2  A    between atoms: C_1  and  C_29
    3  A    between atoms: C_4  and  O_5
    4  A    between atoms: C_4  and  S_12
    5  A    between atoms: O_5  and  C_21
    6  A    between atoms: C_10  and  C_25
    7  A    between atoms: N_11  and  C_24
    8  A    between atoms: S_12  and  C_13
    9  A    between atoms: C_15  and  C_24
   10  A    between atoms: C_17  and  C_21
                            x       y       z     vdW  Elec       q    Type
                         _______ _______ _______ _____ _____    ______ ____

>  <TORSDO>
F 10

$$$$
=
 OpenBabel10262422033D

 30 32  0  0  1  0  0  0  0  0999 V2000
  187.2130  178.5410  141.5660 C   0  0  2  0  0  3  0  0  0  0  0  0
  189.1180  177.1090  143.7060 C   0  0  2  0  0  3  0  0  0  0  0  0
  190.1190  176.3420  141.1210 O   0  0  0  0  0  1  0  0  0  0  0  0
  189.6310  178.0590  142.7030 N   0  0  0  0  0  0  0  0  0  0  0  0
  186.6260  177.6200  142.6330 C   0  0  0  0  0  2  0  0  0  0  0  0
  186.0430  179.1370  140.7970 C   0  0  0  0  0  1  0  0  0  0  0  0
  188.3080  175.9190  143.1990 C   0  0  0  0  0  2  0  0  0  0  0  0
  187.5860  177.1370  143.7270 C   0  0  1  0  0  0  0  0  0  0  0  0
  189.5950  177.6280  141.2950 C   0  0  2  0  0  3  0  0  0  0  0  0
  187.0010  176.8450  144.9580 O   0  0  0  0  0  1  0  0  0  0  0  0
  188.2010  177.7690  140.6560 C   0  0  2  0  0  3  0  0  0  0  0  0
  188.3090  178.3800  139.2430 C   0  0  1  0  0  3  0  0  0  0  0  0
  189.3370  179.3240  139.1720 O   0  0  0  0  0  1  0  0  0  0  0  0
  188.4250  177.3610  138.1040 C   0  0  2  0  0  3  0  0  0  0  0  0
  187.8580  177.2230  135.4730 O   0  0  0  0  0  0  0  0  0  0  0  0
  187.0150  179.1670  136.6890 O   0  0  0  0  0  0  0  0  0  0  0  0
  187.2710  177.6890  136.7760 S   0  0  0  0  0  0  0  0  0  0  0  0
  185.7500  176.8540  137.0650 C   0  0  0  0  0  0  0  0  0  0  0  0
  184.7350  177.4970  137.6340 C   0  0  0  0  0  2  0  0  0  0  0  0
  185.5820  175.1550  136.6580 Cl  0  0  0  0  0  0  0  0  0  0  0  0
  188.2740  176.0510  138.5670 O   0  0  0  0  0  0  0  0  0  0  0  0
  189.1280  175.2890  137.7710 C   0  0  0  0  0  2  0  0  0  0  0  0
  191.7470  174.6430  137.4140 S   0  0  0  0  0  1  0  0  0  0  0  0
  190.5070  175.9150  137.7700 C   0  0  0  0  0  2  0  0  0  0  0  0
  191.0120  178.3520  143.0530 C   0  0  0  0  0  2  0  0  0  0  0  0
  191.1830  178.2860  144.5340 C   0  0  0  0  0  3  0  0  0  0  0  0
  191.5130  177.1370  145.1130 C   0  0  0  0  0  3  0  0  0  0  0  0
  191.6840  177.0680  146.5910 C   0  0  0  0  0  3  0  0  0  0  0  0
  190.7300  176.0360  147.1560 C   0  0  0  0  0  2  0  0  0  0  0  0
  192.1910  175.6920  146.9670 C   0  0  0  0  0  2  0  0  0  0  0  0
  1  6  1  6  0  0  0
  1  5  1  0  0  0  0
  2  7  1  6  0  0  0
  2  8  1  0  0  0  0
  4 25  1  0  0  0  0
  4  2  1  0  0  0  0
  5  8  1  0  0  0  0
  7  8  1  0  0  0  0
  8 10  1  1  0  0  0
  9  3  1  1  0  0  0
  9  4  1  0  0  0  0
 11 12  1  6  0  0  0
 11  9  1  0  0  0  0
 11  1  1  0  0  0  0
 12 13  1  1  0  0  0
 14 21  1  1  0  0  0
 14 12  1  0  0  0  0
 15 17  2  0  0  0  0
 16 17  2  0  0  0  0
 17 18  1  0  0  0  0
 17 14  1  0  0  0  0
 18 19  2  0  0  0  0
 20 18  1  0  0  0  0
 22 21  1  0  0  0  0
 23 24  1  0  0  0  0
 24 22  1  0  0  0  0
 25 26  1  0  0  0  0
 26 27  2  0  0  0  0
 27 28  1  0  0  0  0
 28 30  1  0  0  0  0
 28 29  1  0  0  0  0
 30 29  1  0  0  0  0
M  END
>  <MODEL>
4

>  <REMARK>
 VINA RESULT:      -6.0      3.745      7.063
  Name = 
  10 active torsions:
  status: ('A' for Active; 'I' for Inactive)
    1  A    between atoms: C_1  and  C_4
    2  A    between atoms: C_1  and  C_29
    3  A    between atoms: C_4  and  O_5
    4  A    between atoms: C_4  and  S_12
    5  A    between atoms: O_5  and  C_21
    6  A    between atoms: C_10  and  C_25
    7  A    between atoms: N_11  and  C_24
    8  A    between atoms: S_12  and  C_13
    9  A    between atoms: C_15  and  C_24
   10  A    between atoms: C_17  and  C_21
                            x       y       z     vdW  Elec       q    Type
                         _______ _______ _______ _____ _____    ______ ____

>  <TORSDO>
F 10

$$$$
=
 OpenBabel10262422033D

 30 32  0  0  1  0  0  0  0  0999 V2000
  186.7270  177.0900  143.9040 C   0  0  2  0  0  3  0  0  0  0  0  0
  184.1330  178.9110  144.3620 C   0  0  2  0  0  3  0  0  0  0  0  0
  185.6540  180.2090  142.2950 O   0  0  0  0  0  1  0  0  0  0  0  0
  184.4480  178.2980  143.0590 N   0  0  0  0  0  0  0  0  0  0  0  0
  186.4020  177.6430  145.2900 C   0  0  0  0  0  2  0  0  0  0  0  0
  187.9420  176.1860  144.0570 C   0  0  0  0  0  1  0  0  0  0  0  0
  185.2090  179.7740  145.0130 C   0  0  0  0  0  2  0  0  0  0  0  0
  185.0450  178.3380  145.4520 C   0  0  1  0  0  0  0  0  0  0  0  0
  185.6330  178.8110  142.3490 C   0  0  2  0  0  3  0  0  0  0  0  0
  184.4910  178.2920  146.7300 O   0  0  0  0  0  1  0  0  0  0  0  0
  186.9560  178.2400  142.8930 C   0  0  2  0  0  3  0  0  0  0  0  0
  187.8900  177.8340  141.7330 C   0  0  1  0  0  3  0  0  0  0  0  0
  187.3870  178.2580  140.5000 O   0  0  0  0  0  1  0  0  0  0  0  0
  189.3530  178.2600  141.9010 C   0  0  2  0  0  3  0  0  0  0  0  0
  190.4190  175.8150  141.5210 O   0  0  0  0  0  0  0  0  0  0  0  0
  191.8780  177.7350  141.1290 O   0  0  0  0  0  0  0  0  0  0  0  0
  190.4760  177.2160  140.9790 S   0  0  0  0  0  0  0  0  0  0  0  0
  190.0420  177.2020  139.2750 C   0  0  0  0  0  0  0  0  0  0  0  0
  190.1890  176.0910  138.5600 C   0  0  0  0  0  2  0  0  0  0  0  0
  189.4710  178.6670  138.4940 Cl  0  0  0  0  0  0  0  0  0  0  0  0
  189.7250  178.3050  143.2470 O   0  0  0  0  0  0  0  0  0  0  0  0
  190.6360  179.3570  143.3330 C   0  0  0  0  0  2  0  0  0  0  0  0
  191.4530  177.3150  144.9340 S   0  0  0  0  0  1  0  0  0  0  0  0
  191.7300  178.9960  144.3150 C   0  0  0  0  0  2  0  0  0  0  0  0
  183.2870  178.4860  142.2020 C   0  0  0  0  0  2  0  0  0  0  0  0
  183.6150  178.0660  140.8090 C   0  0  0  0  0  3  0  0  0  0  0  0
  182.7820  177.2760  140.1400 C   0  0  0  0  0  3  0  0  0  0  0  0
  183.1070  176.8550  138.7480 C   0  0  0  0  0  3  0  0  0  0  0  0
  182.6380  175.4310  138.5360 C   0  0  0  0  0  2  0  0  0  0  0  0
  181.8190  176.5840  138.0010 C   0  0  0  0  0  2  0  0  0  0  0  0
  1  6  1  1  0  0  0
  1  5  1  0  0  0  0
  2  7  1  6  0  0  0
  2  8  1  0  0  0  0
  4  2  1  0  0  0  0
  5  8  1  0  0  0  0
  7  8  1  0  0  0  0
  8 10  1  1  0  0  0
  9  3  1  1  0  0  0
  9 11  1  0  0  0  0
  9  4  1  0  0  0  0
 11 12  1  6  0  0  0
 11  1  1  0  0  0  0
 12 13  1  6  0  0  0
 12 14  1  0  0  0  0
 14 21  1  1  0  0  0
 17 16  2  0  0  0  0
 17 15  2  0  0  0  0
 17 14  1  0  0  0  0
 18 17  1  0  0  0  0
 19 18  2  0  0  0  0
 20 18  1  0  0  0  0
 21 22  1  0  0  0  0
 22 24  1  0  0  0  0
 24 23  1  0  0  0  0
 25  4  1  0  0  0  0
 26 25  1  0  0  0  0
 27 26  2  0  0  0  0
 28 27  1  0  0  0  0
 29 28  1  0  0  0  0
 30 29  1  0  0  0  0
 30 28  1  0  0  0  0
M  END
>  <MODEL>
5

>  <REMARK>
 VINA RESULT:      -5.8      1.576      2.016
  Name = 
  10 active torsions:
  status: ('A' for Active; 'I' for Inactive)
    1  A    between atoms: C_1  and  C_4
    2  A    between atoms: C_1  and  C_29
    3  A    between atoms: C_4  and  O_5
    4  A    between atoms: C_4  and  S_12
    5  A    between atoms: O_5  and  C_21
    6  A    between atoms: C_10  and  C_25
    7  A    between atoms: N_11  and  C_24
    8  A    between atoms: S_12  and  C_13
    9  A    between atoms: C_15  and  C_24
   10  A    between atoms: C_17  and  C_21
                            x       y       z     vdW  Elec       q    Type
                         _______ _______ _______ _____ _____    ______ ____

>  <TORSDO>
F 10

$$$$
=
 OpenBabel10262422033D

 30 32  0  0  1  0  0  0  0  0999 V2000
  185.4970  179.3600  144.4400 C   0  0  2  0  0  3  0  0  0  0  0  0
  187.9400  177.5370  145.4250 C   0  0  2  0  0  3  0  0  0  0  0  0
  187.2740  176.6070  142.7860 O   0  0  0  0  0  1  0  0  0  0  0  0
  188.0150  178.3700  144.2120 N   0  0  0  0  0  0  0  0  0  0  0  0
  185.4000  178.5700  145.7440 C   0  0  0  0  0  2  0  0  0  0  0  0
  184.2310  180.1970  144.3280 C   0  0  0  0  0  1  0  0  0  0  0  0
  186.7820  176.5490  145.5310 C   0  0  0  0  0  2  0  0  0  0  0  0
  186.6830  177.8850  146.2290 C   0  0  1  0  0  0  0  0  0  0  0  0
  187.1670  177.9720  143.0750 C   0  0  2  0  0  3  0  0  0  0  0  0
  186.7890  177.7090  147.6080 O   0  0  0  0  0  1  0  0  0  0  0  0
  185.6980  178.4080  143.2350 C   0  0  2  0  0  3  0  0  0  0  0  0
  185.1600  178.9990  141.9150 C   0  0  1  0  0  3  0  0  0  0  0  0
  186.0690  179.8950  141.3470 O   0  0  0  0  0  1  0  0  0  0  0  0
  184.6970  177.9640  140.8830 C   0  0  2  0  0  3  0  0  0  0  0  0
  186.2260  178.4740  138.7240 O   0  0  0  0  0  0  0  0  0  0  0  0
  184.3890  180.0210  139.1730 O   0  0  0  0  0  0  0  0  0  0  0  0
  184.8060  178.5780  139.2060 S   0  0  0  0  0  0  0  0  0  0  0  0
  183.7580  177.6480  138.1430 C   0  0  0  0  0  0  0  0  0  0  0  0
  184.1650  176.4750  137.6660 C   0  0  0  0  0  2  0  0  0  0  0  0
  182.1970  178.2880  137.6570 Cl  0  0  0  0  0  0  0  0  0  0  0  0
  183.4030  177.5120  141.1520 O   0  0  0  0  0  0  0  0  0  0  0  0
  182.6870  178.6580  141.4990 C   0  0  0  0  0  2  0  0  0  0  0  0
  180.2190  178.6240  142.6420 S   0  0  0  0  0  1  0  0  0  0  0  0
  181.2280  178.4650  141.1450 C   0  0  0  0  0  2  0  0  0  0  0  0
  189.4010  178.3640  143.7690 C   0  0  0  0  0  2  0  0  0  0  0  0
  190.3070  178.2210  144.9450 C   0  0  0  0  0  3  0  0  0  0  0  0
  190.9070  177.0600  145.1830 C   0  0  0  0  0  3  0  0  0  0  0  0
  191.8120  176.9140  146.3570 C   0  0  0  0  0  3  0  0  0  0  0  0
  191.1250  176.0750  147.4150 C   0  0  0  0  0  2  0  0  0  0  0  0
  192.1760  175.4540  146.5230 C   0  0  0  0  0  2  0  0  0  0  0  0
  1  6  1  6  0  0  0
  1  5  1  0  0  0  0
  2  7  1  6  0  0  0
  2  8  1  0  0  0  0
  4  2  1  0  0  0  0
  5  8  1  0  0  0  0
  7  8  1  0  0  0  0
  8 10  1  1  0  0  0
  9  3  1  1  0  0  0
  9 11  1  0  0  0  0
  9  4  1  0  0  0  0
 11 12  1  6  0  0  0
 11  1  1  0  0  0  0
 12 13  1  6  0  0  0
 14 21  1  1  0  0  0
 14 12  1  0  0  0  0
 15 17  2  0  0  0  0
 16 17  2  0  0  0  0
 17 14  1  0  0  0  0
 18 17  1  0  0  0  0
 19 18  2  0  0  0  0
 20 18  1  0  0  0  0
 21 22  1  0  0  0  0
 24 22  1  0  0  0  0
 24 23  1  0  0  0  0
 25  4  1  0  0  0  0
 25 26  1  0  0  0  0
 26 27  2  0  0  0  0
 27 28  1  0  0  0  0
 28 30  1  0  0  0  0
 28 29  1  0  0  0  0
 30 29  1  0  0  0  0
M  END
>  <MODEL>
6

>  <REMARK>
 VINA RESULT:      -5.7      3.416      7.279
  Name = 
  10 active torsions:
  status: ('A' for Active; 'I' for Inactive)
    1  A    between atoms: C_1  and  C_4
    2  A    between atoms: C_1  and  C_29
    3  A    between atoms: C_4  and  O_5
    4  A    between atoms: C_4  and  S_12
    5  A    between atoms: O_5  and  C_21
    6  A    between atoms: C_10  and  C_25
    7  A    between atoms: N_11  and  C_24
    8  A    between atoms: S_12  and  C_13
    9  A    between atoms: C_15  and  C_24
   10  A    between atoms: C_17  and  C_21
                            x       y       z     vdW  Elec       q    Type
                         _______ _______ _______ _____ _____    ______ ____

>  <TORSDO>
F 10

$$$$
=
 OpenBabel10262422033D

 30 32  0  0  1  0  0  0  0  0999 V2000
  187.6500  175.9570  137.5110 C   0  0  2  0  0  3  0  0  0  0  0  0
  190.2670  176.8690  139.1170 C   0  0  2  0  0  3  0  0  0  0  0  0
  189.1180  179.2790  138.0470 O   0  0  0  0  0  1  0  0  0  0  0  0
  188.9200  177.3630  139.4550 N   0  0  0  0  0  0  0  0  0  0  0  0
  189.0150  175.3620  137.1720 C   0  0  0  0  0  2  0  0  0  0  0  0
  186.6210  175.2350  136.6530 C   0  0  0  0  0  1  0  0  0  0  0  0
  190.7390  177.0400  137.6760 C   0  0  0  0  0  2  0  0  0  0  0  0
  190.1710  175.7110  138.1170 C   0  0  1  0  0  0  0  0  0  0  0  0
  188.2700  178.2510  138.4760 C   0  0  2  0  0  3  0  0  0  0  0  0
  191.1900  174.7640  138.2020 O   0  0  0  0  0  1  0  0  0  0  0  0
  187.6480  177.4900  137.2900 C   0  0  2  0  0  3  0  0  0  0  0  0
  186.2450  178.0420  136.9650 C   0  0  1  0  0  3  0  0  0  0  0  0
  185.7510  177.5130  135.7700 O   0  0  0  0  0  1  0  0  0  0  0  0
  185.2150  177.8970  138.0920 C   0  0  2  0  0  3  0  0  0  0  0  0
  183.6860  177.1430  136.0050 O   0  0  0  0  0  0  0  0  0  0  0  0
  182.6090  178.4810  137.7430 O   0  0  0  0  0  0  0  0  0  0  0  0
  183.6090  177.3890  137.4860 S   0  0  0  0  0  0  0  0  0  0  0  0
  183.0840  175.9200  138.2970 C   0  0  0  0  0  0  0  0  0  0  0  0
  182.5070  175.9880  139.4920 C   0  0  0  0  0  2  0  0  0  0  0  0
  183.3700  174.3520  137.5610 Cl  0  0  0  0  0  0  0  0  0  0  0  0
  185.1030  179.0710  138.8420 O   0  0  0  0  0  0  0  0  0  0  0  0
  185.2940  178.6710  140.1640 C   0  0  0  0  0  2  0  0  0  0  0  0
  184.3460  178.6200  142.7140 S   0  0  0  0  0  1  0  0  0  0  0  0
  184.0330  178.9390  140.9580 C   0  0  0  0  0  2  0  0  0  0  0  0
  189.0280  178.0790  140.7170 C   0  0  0  0  0  2  0  0  0  0  0  0
  188.5930  177.1960  141.8380 C   0  0  0  0  0  3  0  0  0  0  0  0
  188.5310  177.6760  143.0750 C   0  0  0  0  0  3  0  0  0  0  0  0
  188.0970  176.7960  144.1970 C   0  0  0  0  0  3  0  0  0  0  0  0
  188.5760  177.3870  145.5070 C   0  0  0  0  0  2  0  0  0  0  0  0
  187.1350  177.5610  145.0810 C   0  0  0  0  0  2  0  0  0  0  0  0
  1  6  1  6  0  0  0
  2  7  1  6  0  0  0
  2  4  1  0  0  0  0
  4 25  1  0  0  0  0
  5  1  1  0  0  0  0
  5  8  1  0  0  0  0
  7  8  1  0  0  0  0
  8 10  1  1  0  0  0
  8  2  1  0  0  0  0
  9  3  1  6  0  0  0
  9  4  1  0  0  0  0
 11 12  1  1  0  0  0
 11  1  1  0  0  0  0
 11  9  1  0  0  0  0
 12 13  1  6  0  0  0
 12 14  1  0  0  0  0
 14 21  1  6  0  0  0
 15 17  2  0  0  0  0
 17 16  2  0  0  0  0
 17 14  1  0  0  0  0
 17 18  1  0  0  0  0
 18 19  2  0  0  0  0
 20 18  1  0  0  0  0
 21 22  1  0  0  0  0
 22 24  1  0  0  0  0
 24 23  1  0  0  0  0
 25 26  1  0  0  0  0
 26 27  2  0  0  0  0
 27 28  1  0  0  0  0
 28 30  1  0  0  0  0
 28 29  1  0  0  0  0
 30 29  1  0  0  0  0
M  END
>  <MODEL>
7

>  <REMARK>
 VINA RESULT:      -5.6      3.972      7.863
  Name = 
  10 active torsions:
  status: ('A' for Active; 'I' for Inactive)
    1  A    between atoms: C_1  and  C_4
    2  A    between atoms: C_1  and  C_29
    3  A    between atoms: C_4  and  O_5
    4  A    between atoms: C_4  and  S_12
    5  A    between atoms: O_5  and  C_21
    6  A    between atoms: C_10  and  C_25
    7  A    between atoms: N_11  and  C_24
    8  A    between atoms: S_12  and  C_13
    9  A    between atoms: C_15  and  C_24
   10  A    between atoms: C_17  and  C_21
                            x       y       z     vdW  Elec       q    Type
                         _______ _______ _______ _____ _____    ______ ____

>  <TORSDO>
F 10

$$$$
=
 OpenBabel10262422033D

 30 32  0  0  1  0  0  0  0  0999 V2000
  183.9030  176.9270  137.6500 C   0  0  2  0  0  3  0  0  0  0  0  0
  182.2680  178.6190  139.8240 C   0  0  2  0  0  3  0  0  0  0  0  0
  185.0130  179.4360  140.0880 O   0  0  0  0  0  1  0  0  0  0  0  0
  183.0470  179.2580  138.7480 N   0  0  0  0  0  0  0  0  0  0  0  0
  183.0500  176.2210  138.7020 C   0  0  0  0  0  2  0  0  0  0  0  0
  184.4440  175.8530  136.7170 C   0  0  0  0  0  1  0  0  0  0  0  0
  182.9930  177.6210  140.7210 C   0  0  0  0  0  2  0  0  0  0  0  0
  182.1550  177.1120  139.5720 C   0  0  1  0  0  0  0  0  0  0  0  0
  184.5130  179.1270  138.8180 C   0  0  2  0  0  3  0  0  0  0  0  0
  180.9950  176.5110  140.0590 O   0  0  0  0  0  1  0  0  0  0  0  0
  185.0220  177.7620  138.3200 C   0  0  2  0  0  3  0  0  0  0  0  0
  186.2560  177.9400  137.4110 C   0  0  1  0  0  3  0  0  0  0  0  0
  186.5580  179.2900  137.2180 O   0  0  0  0  0  1  0  0  0  0  0  0
  187.5010  177.1590  137.8480 C   0  0  2  0  0  3  0  0  0  0  0  0
  187.9060  178.6280  140.0710 O   0  0  0  0  0  0  0  0  0  0  0  0
  189.0550  179.3500  138.0390 O   0  0  0  0  0  0  0  0  0  0  0  0
  188.6160  178.1530  138.8340 S   0  0  0  0  0  0  0  0  0  0  0  0
  190.0300  177.2130  139.2950 C   0  0  0  0  0  0  0  0  0  0  0  0
  190.2200  176.8780  140.5680 C   0  0  0  0  0  2  0  0  0  0  0  0
  191.2260  176.7640  138.0920 Cl  0  0  0  0  0  0  0  0  0  0  0  0
  188.1760  176.6110  136.7540 O   0  0  0  0  0  0  0  0  0  0  0  0
  188.0180  175.2320  136.8900 C   0  0  0  0  0  2  0  0  0  0  0  0
  188.6220  172.8260  135.7730 S   0  0  0  0  0  1  0  0  0  0  0  0
  188.1940  174.5710  135.5390 C   0  0  0  0  0  2  0  0  0  0  0  0
  182.7160  180.6750  138.7590 C   0  0  0  0  0  2  0  0  0  0  0  0
  181.5550  180.9290  137.8570 C   0  0  0  0  0  3  0  0  0  0  0  0
  181.1810  182.1760  137.5940 C   0  0  0  0  0  3  0  0  0  0  0  0
  180.0210  182.4330  136.6940 C   0  0  0  0  0  3  0  0  0  0  0  0
  180.3550  183.5860  135.7690 C   0  0  0  0  0  2  0  0  0  0  0  0
  180.4370  182.1630  135.2640 C   0  0  0  0  0  2  0  0  0  0  0  0
  1  6  1  6  0  0  0
  1 11  1  0  0  0  0
  1  5  1  0  0  0  0
  2  7  1  1  0  0  0
  4 25  1  0  0  0  0
  4  9  1  0  0  0  0
  4  2  1  0  0  0  0
  5  8  1  0  0  0  0
  8  2  1  0  0  0  0
  8 10  1  1  0  0  0
  8  7  1  0  0  0  0
  9  3  1  1  0  0  0
 11 12  1  6  0  0  0
 11  9  1  0  0  0  0
 12 13  1  1  0  0  0
 12 14  1  0  0  0  0
 14 21  1  6  0  0  0
 14 17  1  0  0  0  0
 16 17  2  0  0  0  0
 17 18  1  0  0  0  0
 17 15  2  0  0  0  0
 18 19  2  0  0  0  0
 20 18  1  0  0  0  0
 21 22  1  0  0  0  0
 24 23  1  0  0  0  0
 24 22  1  0  0  0  0
 26 25  1  0  0  0  0
 27 26  2  0  0  0  0
 28 27  1  0  0  0  0
 29 28  1  0  0  0  0
 30 29  1  0  0  0  0
 30 28  1  0  0  0  0
M  END
>  <MODEL>
8

>  <REMARK>
 VINA RESULT:      -5.5      4.094      6.195
  Name = 
  10 active torsions:
  status: ('A' for Active; 'I' for Inactive)
    1  A    between atoms: C_1  and  C_4
    2  A    between atoms: C_1  and  C_29
    3  A    between atoms: C_4  and  O_5
    4  A    between atoms: C_4  and  S_12
    5  A    between atoms: O_5  and  C_21
    6  A    between atoms: C_10  and  C_25
    7  A    between atoms: N_11  and  C_24
    8  A    between atoms: S_12  and  C_13
    9  A    between atoms: C_15  and  C_24
   10  A    between atoms: C_17  and  C_21
                            x       y       z     vdW  Elec       q    Type
                         _______ _______ _______ _____ _____    ______ ____

>  <TORSDO>
F 10

$$$$
=
 OpenBabel10262422033D

 30 32  0  0  1  0  0  0  0  0999 V2000
  190.9280  176.9300  140.6240 C   0  0  2  0  0  3  0  0  0  0  0  0
  189.6880  177.8000  143.4460 C   0  0  2  0  0  3  0  0  0  0  0  0
  187.8290  178.7140  141.4510 O   0  0  0  0  0  1  0  0  0  0  0  0
  188.9760  176.9110  142.5110 N   0  0  0  0  0  0  0  0  0  0  0  0
  191.7340  177.7930  141.5930 C   0  0  0  0  0  2  0  0  0  0  0  0
  191.8390  176.6080  139.4480 C   0  0  0  0  0  1  0  0  0  0  0  0
  190.1640  179.1480  142.9130 C   0  0  0  0  0  2  0  0  0  0  0  0
  191.1380  177.9960  142.9910 C   0  0  1  0  0  0  0  0  0  0  0  0
  188.5080  177.5080  141.2470 C   0  0  2  0  0  3  0  0  0  0  0  0
  192.0580  178.2210  144.0140 O   0  0  0  0  0  1  0  0  0  0  0  0
  189.6260  177.6510  140.1970 C   0  0  2  0  0  3  0  0  0  0  0  0
  189.1270  177.2030  138.8080 C   0  0  1  0  0  3  0  0  0  0  0  0
  187.9310  176.4870  138.9000 O   0  0  0  0  0  1  0  0  0  0  0  0
  189.0120  178.3250  137.7680 C   0  0  2  0  0  3  0  0  0  0  0  0
  187.2050  180.0070  136.6900 O   0  0  0  0  0  0  0  0  0  0  0  0
  186.4250  178.5420  138.4830 O   0  0  0  0  0  0  0  0  0  0  0  0
  187.3190  178.6280  137.2780 S   0  0  0  0  0  0  0  0  0  0  0  0
  186.8020  177.4410  136.0880 C   0  0  0  0  0  0  0  0  0  0  0  0
  186.9380  177.6960  134.7900 C   0  0  0  0  0  2  0  0  0  0  0  0
  186.0510  175.9400  136.6020 Cl  0  0  0  0  0  0  0  0  0  0  0  0
  189.8050  178.0700  136.6460 O   0  0  0  0  0  0  0  0  0  0  0  0
  190.0810  176.7040  136.7050 C   0  0  0  0  0  2  0  0  0  0  0  0
  191.1210  174.5540  135.4020 S   0  0  0  0  0  1  0  0  0  0  0  0
  190.3280  176.1810  135.3060 C   0  0  0  0  0  2  0  0  0  0  0  0
  187.8210  176.3780  143.2160 C   0  0  0  0  0  2  0  0  0  0  0  0
  187.6740  177.0620  144.5340 C   0  0  0  0  0  3  0  0  0  0  0  0
  186.4640  177.3660  144.9920 C   0  0  0  0  0  3  0  0  0  0  0  0
  186.3140  178.0490  146.3080 C   0  0  0  0  0  3  0  0  0  0  0  0
  185.6810  179.4080  146.0940 C   0  0  0  0  0  2  0  0  0  0  0  0
  184.8420  178.2530  146.5940 C   0  0  0  0  0  2  0  0  0  0  0  0
  1  6  1  6  0  0  0
  1  5  1  0  0  0  0
  2  7  1  6  0  0  0
  4 25  1  0  0  0  0
  4  2  1  0  0  0  0
  5  8  1  0  0  0  0
  7  8  1  0  0  0  0
  8  2  1  0  0  0  0
  8 10  1  1  0  0  0
  9  3  1  1  0  0  0
  9  4  1  0  0  0  0
 11 12  1  6  0  0  0
 11  1  1  0  0  0  0
 11  9  1  0  0  0  0
 12 13  1  1  0  0  0
 14 21  1  6  0  0  0
 14 12  1  0  0  0  0
 15 17  2  0  0  0  0
 17 14  1  0  0  0  0
 17 16  2  0  0  0  0
 18 20  1  0  0  0  0
 18 17  1  0  0  0  0
 19 18  2  0  0  0  0
 21 22  1  0  0  0  0
 24 23  1  0  0  0  0
 24 22  1  0  0  0  0
 25 26  1  0  0  0  0
 26 27  2  0  0  0  0
 27 28  1  0  0  0  0
 28 30  1  0  0  0  0
 29 28  1  0  0  0  0
 29 30  1  0  0  0  0
M  END
>  <MODEL>
9

>  <REMARK>
 VINA RESULT:      -5.5      4.261      6.557
  Name = 
  10 active torsions:
  status: ('A' for Active; 'I' for Inactive)
    1  A    between atoms: C_1  and  C_4
    2  A    between atoms: C_1  and  C_29
    3  A    between atoms: C_4  and  O_5
    4  A    between atoms: C_4  and  S_12
    5  A    between atoms: O_5  and  C_21
    6  A    between atoms: C_10  and  C_25
    7  A    between atoms: N_11  and  C_24
    8  A    between atoms: S_12  and  C_13
    9  A    between atoms: C_15  and  C_24
   10  A    between atoms: C_17  and  C_21
                            x       y       z     vdW  Elec       q    Type
                         _______ _______ _______ _____ _____    ______ ____

>  <TORSDO>
F 10

$$$$
