=
 OpenBabel10262420093D

 27 30  0  0  1  0  0  0  0  0999 V2000
  188.0940  178.2360  140.6550 C   0  0  0  0  0  0  0  0  0  0  0  0
  189.0670  178.2750  139.8590 O   0  0  0  0  0  0  0  0  0  0  0  0
  185.9010  177.9570  142.3960 C   0  0  1  0  0  3  0  0  0  0  0  0
  188.2160  177.5040  141.9540 C   0  0  0  0  0  2  0  0  0  0  0  0
  186.8370  178.7940  140.2770 N   0  0  0  0  0  2  0  0  0  0  0  0
  185.7760  178.9720  141.2590 C   0  0  0  0  0  2  0  0  0  0  0  0
  187.2700  178.0120  142.9520 N   0  0  0  0  0  0  0  0  0  0  0  0
  184.8510  178.3340  143.4370 C   0  0  0  0  0  2  0  0  0  0  0  0
  183.8590  179.2180  142.8450 N   0  0  0  0  0  2  0  0  0  0  0  0
  179.7380  178.2760  142.6730 C   0  0  0  0  0  3  0  0  0  0  0  0
  182.4720  178.8870  142.7720 C   0  0  0  0  0  0  0  0  0  0  0  0
  181.7260  178.8000  143.9530 C   0  0  0  0  0  3  0  0  0  0  0  0
  180.3630  178.4930  143.9050 C   0  0  0  0  0  3  0  0  0  0  0  0
  180.4770  178.3640  141.4900 C   0  0  0  0  0  3  0  0  0  0  0  0
  181.8400  178.6700  141.5380 C   0  0  0  0  0  3  0  0  0  0  0  0
  187.3880  177.0880  144.0760 C   0  0  0  0  0  2  0  0  0  0  0  0
  186.8330  177.8020  146.3790 C   0  0  0  0  0  2  0  0  0  0  0  0
  190.7300  176.5930  147.6200 C   0  0  0  0  0  3  0  0  0  0  0  0
  192.9390  175.8480  147.1260 F   0  0  0  0  0  0  0  0  0  0  0  0
  187.3800  178.3140  147.7000 C   0  0  0  0  0  2  0  0  0  0  0  0
  190.2700  176.9610  144.8910 C   0  0  0  0  0  3  0  0  0  0  0  0
  191.5100  176.4950  145.3340 C   0  0  0  0  0  3  0  0  0  0  0  0
  189.2360  177.2250  145.8030 C   0  0  0  0  0  0  0  0  0  0  0  0
  191.7370  176.3050  146.6970 C   0  0  0  0  0  0  0  0  0  0  0  0
  189.4900  177.0700  147.1870 C   0  0  0  0  0  0  0  0  0  0  0  0
  187.9250  177.8110  145.3080 C   0  0  1  0  0  3  0  0  0  0  0  0
  188.4290  177.3360  148.2150 C   0  0  0  0  0  2  0  0  0  0  0  0
  1  4  1  0  0  0  0
  2  1  2  0  0  0  0
  3  7  1  0  0  0  0
  3  8  1  1  0  0  0
  4  7  1  0  0  0  0
  5  1  1  0  0  0  0
  5  6  1  0  0  0  0
  6  3  1  0  0  0  0
  7 16  1  0  0  0  0
  9  8  1  0  0  0  0
 10 13  1  0  0  0  0
 11  9  1  0  0  0  0
 11 12  1  0  0  0  0
 13 12  2  0  0  0  0
 14 15  1  0  0  0  0
 14 10  2  0  0  0  0
 15 11  2  0  0  0  0
 17 20  1  0  0  0  0
 20 27  1  0  0  0  0
 21 22  2  0  0  0  0
 21 23  1  0  0  0  0
 22 24  1  0  0  0  0
 23 25  2  0  0  0  0
 24 19  1  0  0  0  0
 24 18  2  0  0  0  0
 25 18  1  0  0  0  0
 25 27  1  0  0  0  0
 26 16  1  6  0  0  0
 26 23  1  0  0  0  0
 26 17  1  0  0  0  0
M  END
>  <MODEL>
1

>  <REMARK>
 VINA RESULT:      -9.7      0.000      0.000
  Name = 
  5 active torsions:
  status: ('A' for Active; 'I' for Inactive)
    1  A    between atoms: C_1  and  N_15
    2  A    between atoms: C_1  and  C_18
    3  A    between atoms: C_3  and  C_19
    4  A    between atoms: C_3  and  N_26
    5  A    between atoms: C_9  and  N_15
                            x       y       z     vdW  Elec       q    Type
                         _______ _______ _______ _____ _____    ______ ____

>  <TORSDO>
F 5

$$$$
=
 OpenBabel10262420093D

 27 30  0  0  1  0  0  0  0  0999 V2000
  190.1670  177.1300  140.3170 C   0  0  0  0  0  0  0  0  0  0  0  0
  191.2720  176.7000  139.8960 O   0  0  0  0  0  0  0  0  0  0  0  0
  187.6190  177.9140  141.2200 C   0  0  1  0  0  3  0  0  0  0  0  0
  189.5950  176.6050  141.5960 C   0  0  0  0  0  2  0  0  0  0  0  0
  189.4020  178.0370  139.5250 N   0  0  0  0  0  2  0  0  0  0  0  0
  188.2480  178.7250  140.0860 C   0  0  0  0  0  2  0  0  0  0  0  0
  188.6630  177.5590  142.2040 N   0  0  0  0  0  0  0  0  0  0  0  0
  186.5330  178.7900  141.8360 C   0  0  0  0  0  2  0  0  0  0  0  0
  185.2230  178.3530  141.3800 N   0  0  0  0  0  2  0  0  0  0  0  0
  181.7290  178.9370  143.6940 C   0  0  0  0  0  3  0  0  0  0  0  0
  184.0330  178.5380  142.1490 C   0  0  0  0  0  0  0  0  0  0  0  0
  184.1290  178.6550  143.5400 C   0  0  0  0  0  3  0  0  0  0  0  0
  182.9800  178.8530  144.3120 C   0  0  0  0  0  3  0  0  0  0  0  0
  181.6270  178.8230  142.3050 C   0  0  0  0  0  3  0  0  0  0  0  0
  182.7750  178.6250  141.5330 C   0  0  0  0  0  3  0  0  0  0  0  0
  188.0670  176.8310  143.3220 C   0  0  0  0  0  2  0  0  0  0  0  0
  186.9650  177.5470  145.4170 C   0  0  0  0  0  2  0  0  0  0  0  0
  190.5170  176.5400  147.5510 C   0  0  0  0  0  3  0  0  0  0  0  0
  192.8100  175.8930  147.5970 F   0  0  0  0  0  0  0  0  0  0  0  0
  187.1690  178.1020  146.8170 C   0  0  0  0  0  2  0  0  0  0  0  0
  190.6850  176.8500  144.7810 C   0  0  0  0  0  3  0  0  0  0  0  0
  191.8080  176.4490  145.5090 C   0  0  0  0  0  3  0  0  0  0  0  0
  189.4580  177.0770  145.4240 C   0  0  0  0  0  0  0  0  0  0  0  0
  191.7220  176.2880  146.8910 C   0  0  0  0  0  0  0  0  0  0  0  0
  189.3910  176.9520  146.8320 C   0  0  0  0  0  0  0  0  0  0  0  0
  188.2730  177.5940  144.6270 C   0  0  1  0  0  3  0  0  0  0  0  0
  188.1110  177.1810  147.5820 C   0  0  0  0  0  2  0  0  0  0  0  0
  1  4  1  0  0  0  0
  2  1  2  0  0  0  0
  3  8  1  1  0  0  0
  3  7  1  0  0  0  0
  4  7  1  0  0  0  0
  5  6  1  0  0  0  0
  5  1  1  0  0  0  0
  6  3  1  0  0  0  0
  7 16  1  0  0  0  0
  9  8  1  0  0  0  0
  9 11  1  0  0  0  0
 10 13  1  0  0  0  0
 11 12  1  0  0  0  0
 12 13  2  0  0  0  0
 14 10  2  0  0  0  0
 15 11  2  0  0  0  0
 15 14  1  0  0  0  0
 17 20  1  0  0  0  0
 20 27  1  0  0  0  0
 21 23  2  0  0  0  0
 21 22  1  0  0  0  0
 22 24  2  0  0  0  0
 23 25  1  0  0  0  0
 24 18  1  0  0  0  0
 24 19  1  0  0  0  0
 25 18  2  0  0  0  0
 25 27  1  0  0  0  0
 26 16  1  6  0  0  0
 26 17  1  0  0  0  0
 26 23  1  0  0  0  0
M  END
>  <MODEL>
2

>  <REMARK>
 VINA RESULT:      -9.6      1.268      1.702
  Name = 
  5 active torsions:
  status: ('A' for Active; 'I' for Inactive)
    1  A    between atoms: C_1  and  N_15
    2  A    between atoms: C_1  and  C_18
    3  A    between atoms: C_3  and  C_19
    4  A    between atoms: C_3  and  N_26
    5  A    between atoms: C_9  and  N_15
                            x       y       z     vdW  Elec       q    Type
                         _______ _______ _______ _____ _____    ______ ____

>  <TORSDO>
F 5

$$$$
=
 OpenBabel10262420093D

 27 30  0  0  1  0  0  0  0  0999 V2000
  188.6790  177.0870  139.1220 C   0  0  0  0  0  0  0  0  0  0  0  0
  188.3430  176.6350  137.9970 O   0  0  0  0  0  0  0  0  0  0  0  0
  189.4210  178.2760  141.5620 C   0  0  1  0  0  3  0  0  0  0  0  0
  187.7050  177.8830  139.9320 C   0  0  0  0  0  2  0  0  0  0  0  0
  190.0200  176.9370  139.5840 N   0  0  0  0  0  2  0  0  0  0  0  0
  190.3700  177.2350  140.9650 C   0  0  0  0  0  2  0  0  0  0  0  0
  188.0240  177.8360  141.3620 N   0  0  0  0  0  0  0  0  0  0  0  0
  189.7730  178.3920  143.0420 C   0  0  0  0  0  2  0  0  0  0  0  0
  189.9420  177.0670  143.6180 N   0  0  0  0  0  2  0  0  0  0  0  0
  191.2000  176.4270  147.6070 C   0  0  0  0  0  3  0  0  0  0  0  0
  190.3850  176.8560  144.9590 C   0  0  0  0  0  0  0  0  0  0  0  0
  189.5410  177.2000  146.0210 C   0  0  0  0  0  3  0  0  0  0  0  0
  189.9470  176.9880  147.3420 C   0  0  0  0  0  3  0  0  0  0  0  0
  192.0470  176.0800  146.5510 C   0  0  0  0  0  3  0  0  0  0  0  0
  191.6420  176.2920  145.2300 C   0  0  0  0  0  3  0  0  0  0  0  0
  187.1080  178.7930  141.9760 C   0  0  0  0  0  2  0  0  0  0  0  0
  186.6690  178.4310  144.3830 C   0  0  0  0  0  2  0  0  0  0  0  0
  182.4980  178.8940  143.6220 C   0  0  0  0  0  3  0  0  0  0  0  0
  180.6640  179.1030  142.1170 F   0  0  0  0  0  0  0  0  0  0  0  0
  185.6700  177.9400  145.4170 C   0  0  0  0  0  2  0  0  0  0  0  0
  184.1850  178.3800  141.4580 C   0  0  0  0  0  3  0  0  0  0  0  0
  182.8240  178.6100  141.2440 C   0  0  0  0  0  3  0  0  0  0  0  0
  184.7260  178.4280  142.7520 C   0  0  0  0  0  0  0  0  0  0  0  0
  181.9830  178.8740  142.3250 C   0  0  0  0  0  0  0  0  0  0  0  0
  183.8570  178.6530  143.8470 C   0  0  0  0  0  0  0  0  0  0  0  0
  186.1900  178.0910  142.9720 C   0  0  1  0  0  3  0  0  0  0  0  0
  184.3690  178.7160  145.2570 C   0  0  0  0  0  2  0  0  0  0  0  0
  1  5  1  0  0  0  0
  1  4  1  0  0  0  0
  2  1  2  0  0  0  0
  3  8  1  1  0  0  0
  4  7  1  0  0  0  0
  5  6  1  0  0  0  0
  6  3  1  0  0  0  0
  7  3  1  0  0  0  0
  7 16  1  0  0  0  0
  8  9  1  0  0  0  0
  9 11  1  0  0  0  0
 11 15  2  0  0  0  0
 11 12  1  0  0  0  0
 12 13  2  0  0  0  0
 13 10  1  0  0  0  0
 14 10  2  0  0  0  0
 15 14  1  0  0  0  0
 17 20  1  0  0  0  0
 18 25  1  0  0  0  0
 19 24  1  0  0  0  0
 21 23  1  0  0  0  0
 22 21  2  0  0  0  0
 22 24  1  0  0  0  0
 23 26  1  0  0  0  0
 23 25  2  0  0  0  0
 24 18  2  0  0  0  0
 25 27  1  0  0  0  0
 26 16  1  6  0  0  0
 26 17  1  0  0  0  0
 27 20  1  0  0  0  0
M  END
>  <MODEL>
3

>  <REMARK>
 VINA RESULT:      -8.7      3.119      7.446
  Name = 
  5 active torsions:
  status: ('A' for Active; 'I' for Inactive)
    1  A    between atoms: C_1  and  N_15
    2  A    between atoms: C_1  and  C_18
    3  A    between atoms: C_3  and  C_19
    4  A    between atoms: C_3  and  N_26
    5  A    between atoms: C_9  and  N_15
                            x       y       z     vdW  Elec       q    Type
                         _______ _______ _______ _____ _____    ______ ____

>  <TORSDO>
F 5

$$$$
=
 OpenBabel10262420093D

 27 30  0  0  1  0  0  0  0  0999 V2000
  186.2590  178.6360  140.6110 C   0  0  0  0  0  0  0  0  0  0  0  0
  185.0430  178.8850  140.8160 O   0  0  0  0  0  0  0  0  0  0  0  0
  189.0140  178.2730  140.1710 C   0  0  1  0  0  3  0  0  0  0  0  0
  187.2540  178.7900  141.7170 C   0  0  0  0  0  2  0  0  0  0  0  0
  186.7120  178.3140  139.2970 N   0  0  0  0  0  2  0  0  0  0  0  0
  188.0550  177.7960  139.0790 C   0  0  0  0  0  2  0  0  0  0  0  0
  188.4400  177.9590  141.4970 N   0  0  0  0  0  0  0  0  0  0  0  0
  190.3370  177.5490  139.9390 C   0  0  0  0  0  2  0  0  0  0  0  0
  190.4540  177.1610  138.5430 N   0  0  0  0  0  2  0  0  0  0  0  0
  193.1740  174.2370  137.1460 C   0  0  0  0  0  3  0  0  0  0  0  0
  191.3840  176.1780  138.0860 C   0  0  0  0  0  0  0  0  0  0  0  0
  190.9040  174.9900  137.5240 C   0  0  0  0  0  3  0  0  0  0  0  0
  191.7960  174.0210  137.0550 C   0  0  0  0  0  3  0  0  0  0  0  0
  193.6600  175.4210  137.7050 C   0  0  0  0  0  3  0  0  0  0  0  0
  192.7690  176.3910  138.1730 C   0  0  0  0  0  3  0  0  0  0  0  0
  189.3710  178.3580  142.5490 C   0  0  0  0  0  2  0  0  0  0  0  0
  191.2530  176.9340  143.2900 C   0  0  0  0  0  2  0  0  0  0  0  0
  189.6560  176.9980  147.2440 C   0  0  0  0  0  3  0  0  0  0  0  0
  187.9170  177.5330  148.7820 F   0  0  0  0  0  0  0  0  0  0  0  0
  191.7200  175.8930  144.2930 C   0  0  0  0  0  2  0  0  0  0  0  0
  187.9850  177.7410  145.1340 C   0  0  0  0  0  3  0  0  0  0  0  0
  187.5250  177.8180  146.4500 C   0  0  0  0  0  3  0  0  0  0  0  0
  189.2940  177.3160  144.8560 C   0  0  0  0  0  0  0  0  0  0  0  0
  188.3620  177.4530  147.5050 C   0  0  0  0  0  0  0  0  0  0  0  0
  190.1220  176.9070  145.9290 C   0  0  0  0  0  0  0  0  0  0  0  0
  189.7460  177.1590  143.4140 C   0  0  1  0  0  3  0  0  0  0  0  0
  191.5300  176.4410  145.7020 C   0  0  0  0  0  2  0  0  0  0  0  0
  1  2  2  0  0  0  0
  1  4  1  0  0  0  0
  3  8  1  6  0  0  0
  3  7  1  0  0  0  0
  5  1  1  0  0  0  0
  6  5  1  0  0  0  0
  6  3  1  0  0  0  0
  7  4  1  0  0  0  0
  7 16  1  0  0  0  0
  9  8  1  0  0  0  0
 10 14  1  0  0  0  0
 11 15  1  0  0  0  0
 11  9  1  0  0  0  0
 12 11  2  0  0  0  0
 13 10  2  0  0  0  0
 13 12  1  0  0  0  0
 14 15  2  0  0  0  0
 17 26  1  0  0  0  0
 17 20  1  0  0  0  0
 18 24  1  0  0  0  0
 20 27  1  0  0  0  0
 21 22  1  0  0  0  0
 22 24  2  0  0  0  0
 23 21  2  0  0  0  0
 23 25  1  0  0  0  0
 24 19  1  0  0  0  0
 25 18  2  0  0  0  0
 26 16  1  6  0  0  0
 26 23  1  0  0  0  0
 27 25  1  0  0  0  0
M  END
>  <MODEL>
4

>  <REMARK>
 VINA RESULT:      -8.7      3.469      7.049
  Name = 
  5 active torsions:
  status: ('A' for Active; 'I' for Inactive)
    1  A    between atoms: C_1  and  N_15
    2  A    between atoms: C_1  and  C_18
    3  A    between atoms: C_3  and  C_19
    4  A    between atoms: C_3  and  N_26
    5  A    between atoms: C_9  and  N_15
                            x       y       z     vdW  Elec       q    Type
                         _______ _______ _______ _____ _____    ______ ____

>  <TORSDO>
F 5

$$$$
=
 OpenBabel10262420093D

 27 30  0  0  1  0  0  0  0  0999 V2000
  182.2480  178.7510  143.2190 C   0  0  0  0  0  0  0  0  0  0  0  0
  181.2990  178.6990  144.0440 O   0  0  0  0  0  0  0  0  0  0  0  0
  184.3920  179.0570  141.4220 C   0  0  1  0  0  3  0  0  0  0  0  0
  183.6530  178.9280  143.7020 C   0  0  0  0  0  2  0  0  0  0  0  0
  181.9800  178.7520  141.8180 N   0  0  0  0  0  2  0  0  0  0  0  0
  183.0560  178.5730  140.8540 C   0  0  0  0  0  2  0  0  0  0  0  0
  184.6260  178.4150  142.7330 N   0  0  0  0  0  0  0  0  0  0  0  0
  185.4640  178.6770  140.4050 C   0  0  0  0  0  2  0  0  0  0  0  0
  185.0050  178.9860  139.0600 N   0  0  0  0  0  2  0  0  0  0  0  0
  185.8760  176.5860  135.6870 C   0  0  0  0  0  3  0  0  0  0  0  0
  185.3170  178.1720  137.9290 C   0  0  0  0  0  0  0  0  0  0  0  0
  184.3240  177.3530  137.3800 C   0  0  0  0  0  3  0  0  0  0  0  0
  184.6030  176.5600  136.2630 C   0  0  0  0  0  3  0  0  0  0  0  0
  186.8720  177.4030  136.2290 C   0  0  0  0  0  3  0  0  0  0  0  0
  186.5940  178.1960  137.3460 C   0  0  0  0  0  3  0  0  0  0  0  0
  185.9240  178.8230  143.2620 C   0  0  0  0  0  2  0  0  0  0  0  0
  187.8260  177.3290  142.7450 C   0  0  0  0  0  2  0  0  0  0  0  0
  188.9490  177.4460  146.8580 C   0  0  0  0  0  3  0  0  0  0  0  0
  188.5130  178.0430  149.1220 F   0  0  0  0  0  0  0  0  0  0  0  0
  188.7720  176.2690  143.2830 C   0  0  0  0  0  2  0  0  0  0  0  0
  186.3670  178.2550  146.1720 C   0  0  0  0  0  3  0  0  0  0  0  0
  186.7990  178.3460  147.4970 C   0  0  0  0  0  3  0  0  0  0  0  0
  187.2260  177.7820  145.1680 C   0  0  0  0  0  0  0  0  0  0  0  0
  188.0920  177.9490  147.8380 C   0  0  0  0  0  0  0  0  0  0  0  0
  188.5220  177.3400  145.5310 C   0  0  0  0  0  0  0  0  0  0  0  0
  186.7090  177.6100  143.7500 C   0  0  1  0  0  3  0  0  0  0  0  0
  189.4900  176.8220  144.5080 C   0  0  0  0  0  2  0  0  0  0  0  0
  1  4  1  0  0  0  0
  1  2  2  0  0  0  0
  3  8  1  6  0  0  0
  3  7  1  0  0  0  0
  5  1  1  0  0  0  0
  6  3  1  0  0  0  0
  6  5  1  0  0  0  0
  7 16  1  0  0  0  0
  7  4  1  0  0  0  0
  9  8  1  0  0  0  0
 10 14  2  0  0  0  0
 10 13  1  0  0  0  0
 11  9  1  0  0  0  0
 12 11  1  0  0  0  0
 13 12  2  0  0  0  0
 14 15  1  0  0  0  0
 15 11  2  0  0  0  0
 17 20  1  0  0  0  0
 17 26  1  0  0  0  0
 18 24  1  0  0  0  0
 20 27  1  0  0  0  0
 21 22  1  0  0  0  0
 22 24  2  0  0  0  0
 23 25  1  0  0  0  0
 23 21  2  0  0  0  0
 24 19  1  0  0  0  0
 25 18  2  0  0  0  0
 26 16  1  6  0  0  0
 26 23  1  0  0  0  0
 27 25  1  0  0  0  0
M  END
>  <MODEL>
5

>  <REMARK>
 VINA RESULT:      -8.7      3.137      5.276
  Name = 
  5 active torsions:
  status: ('A' for Active; 'I' for Inactive)
    1  A    between atoms: C_1  and  N_15
    2  A    between atoms: C_1  and  C_18
    3  A    between atoms: C_3  and  C_19
    4  A    between atoms: C_3  and  N_26
    5  A    between atoms: C_9  and  N_15
                            x       y       z     vdW  Elec       q    Type
                         _______ _______ _______ _____ _____    ______ ____

>  <TORSDO>
F 5

$$$$
=
 OpenBabel10262420093D

 27 30  0  0  1  0  0  0  0  0999 V2000
  192.0560  175.6340  146.0420 C   0  0  0  0  0  0  0  0  0  0  0  0
  192.6770  175.1850  147.0400 O   0  0  0  0  0  0  0  0  0  0  0  0
  190.5030  176.5630  143.8870 C   0  0  1  0  0  3  0  0  0  0  0  0
  191.0910  176.7650  146.2040 C   0  0  0  0  0  2  0  0  0  0  0  0
  192.1850  174.9970  144.7720 N   0  0  0  0  0  2  0  0  0  0  0  0
  191.6720  175.6300  143.5650 C   0  0  0  0  0  2  0  0  0  0  0  0
  190.9080  177.5040  144.9520 N   0  0  0  0  0  0  0  0  0  0  0  0
  190.1530  177.2890  142.5920 C   0  0  0  0  0  2  0  0  0  0  0  0
  190.3640  176.4070  141.4540 N   0  0  0  0  0  2  0  0  0  0  0  0
  189.8060  177.7100  137.4680 C   0  0  0  0  0  3  0  0  0  0  0  0
  190.1790  176.8280  140.1020 C   0  0  0  0  0  0  0  0  0  0  0  0
  189.2030  177.7880  139.8120 C   0  0  0  0  0  3  0  0  0  0  0  0
  189.0150  178.2280  138.4980 C   0  0  0  0  0  3  0  0  0  0  0  0
  190.7840  176.7530  137.7510 C   0  0  0  0  0  3  0  0  0  0  0  0
  190.9720  176.3130  139.0650 C   0  0  0  0  0  3  0  0  0  0  0  0
  189.8210  178.4390  145.2310 C   0  0  0  0  0  2  0  0  0  0  0  0
  189.0550  178.2540  147.5750 C   0  0  0  0  0  2  0  0  0  0  0  0
  185.0250  178.5570  146.2130 C   0  0  0  0  0  3  0  0  0  0  0  0
  183.4160  178.6050  144.4570 F   0  0  0  0  0  0  0  0  0  0  0  0
  187.9290  177.8200  148.4970 C   0  0  0  0  0  2  0  0  0  0  0  0
  187.0040  177.9170  144.3490 C   0  0  0  0  0  3  0  0  0  0  0  0
  185.6830  178.0980  143.9320 C   0  0  0  0  0  3  0  0  0  0  0  0
  187.3580  178.0780  145.6980 C   0  0  0  0  0  0  0  0  0  0  0  0
  184.6960  178.4240  144.8620 C   0  0  0  0  0  0  0  0  0  0  0  0
  186.3420  178.3670  146.6410 C   0  0  0  0  0  0  0  0  0  0  0  0
  188.7820  177.7940  146.1430 C   0  0  1  0  0  3  0  0  0  0  0  0
  186.6530  178.5500  148.0980 C   0  0  0  0  0  2  0  0  0  0  0  0
  1  4  1  0  0  0  0
  1  2  2  0  0  0  0
  3  8  1  6  0  0  0
  3  7  1  0  0  0  0
  5  1  1  0  0  0  0
  6  3  1  0  0  0  0
  6  5  1  0  0  0  0
  7 16  1  0  0  0  0
  7  4  1  0  0  0  0
  9  8  1  0  0  0  0
 10 14  2  0  0  0  0
 10 13  1  0  0  0  0
 11  9  1  0  0  0  0
 12 11  1  0  0  0  0
 13 12  2  0  0  0  0
 14 15  1  0  0  0  0
 15 11  2  0  0  0  0
 17 20  1  0  0  0  0
 18 25  1  0  0  0  0
 19 24  1  0  0  0  0
 21 23  1  0  0  0  0
 22 21  2  0  0  0  0
 22 24  1  0  0  0  0
 23 26  1  0  0  0  0
 23 25  2  0  0  0  0
 24 18  2  0  0  0  0
 25 27  1  0  0  0  0
 26 16  1  6  0  0  0
 26 17  1  0  0  0  0
 27 20  1  0  0  0  0
M  END
>  <MODEL>
6

>  <REMARK>
 VINA RESULT:      -8.6      3.903      6.880
  Name = 
  5 active torsions:
  status: ('A' for Active; 'I' for Inactive)
    1  A    between atoms: C_1  and  N_15
    2  A    between atoms: C_1  and  C_18
    3  A    between atoms: C_3  and  C_19
    4  A    between atoms: C_3  and  N_26
    5  A    between atoms: C_9  and  N_15
                            x       y       z     vdW  Elec       q    Type
                         _______ _______ _______ _____ _____    ______ ____

>  <TORSDO>
F 5

$$$$
=
 OpenBabel10262420093D

 27 30  0  0  1  0  0  0  0  0999 V2000
  191.1370  176.1920  142.9130 C   0  0  0  0  0  0  0  0  0  0  0  0
  192.0570  175.6840  143.6050 O   0  0  0  0  0  0  0  0  0  0  0  0
  189.0170  177.1470  141.3290 C   0  0  1  0  0  3  0  0  0  0  0  0
  189.7170  176.1150  143.3790 C   0  0  0  0  0  2  0  0  0  0  0  0
  191.4280  176.7470  141.6320 N   0  0  0  0  0  2  0  0  0  0  0  0
  190.4370  177.5450  140.9230 C   0  0  0  0  0  2  0  0  0  0  0  0
  188.9000  177.1860  142.8020 N   0  0  0  0  0  0  0  0  0  0  0  0
  188.0750  178.1430  140.6590 C   0  0  0  0  0  2  0  0  0  0  0  0
  188.6630  178.6280  139.4200 N   0  0  0  0  0  2  0  0  0  0  0  0
  187.2610  177.4960  135.5920 C   0  0  0  0  0  3  0  0  0  0  0  0
  188.1730  178.2560  138.1320 C   0  0  0  0  0  0  0  0  0  0  0  0
  189.0620  178.1970  137.0520 C   0  0  0  0  0  3  0  0  0  0  0  0
  188.6070  177.8200  135.7850 C   0  0  0  0  0  3  0  0  0  0  0  0
  186.3690  177.5510  136.6660 C   0  0  0  0  0  3  0  0  0  0  0  0
  186.8220  177.9280  137.9340 C   0  0  0  0  0  3  0  0  0  0  0  0
  187.5330  176.8630  143.2020 C   0  0  0  0  0  2  0  0  0  0  0  0
  185.4000  178.0460  143.6140 C   0  0  0  0  0  2  0  0  0  0  0  0
  186.4820  178.4270  147.7210 C   0  0  0  0  0  3  0  0  0  0  0  0
  188.0700  178.2290  149.4860 F   0  0  0  0  0  0  0  0  0  0  0  0
  184.6760  179.0640  144.4780 C   0  0  0  0  0  2  0  0  0  0  0  0
  188.4890  177.8120  145.8800 C   0  0  0  0  0  3  0  0  0  0  0  0
  188.7870  177.8740  147.2430 C   0  0  0  0  0  3  0  0  0  0  0  0
  187.1800  178.0310  145.4210 C   0  0  0  0  0  0  0  0  0  0  0  0
  187.7820  178.1740  148.1630 C   0  0  0  0  0  0  0  0  0  0  0  0
  186.1770  178.3780  146.3580 C   0  0  0  0  0  0  0  0  0  0  0  0
  186.8960  178.0440  143.9290 C   0  0  1  0  0  3  0  0  0  0  0  0
  184.7590  178.6270  145.9350 C   0  0  0  0  0  2  0  0  0  0  0  0
  1  4  1  0  0  0  0
  1  2  2  0  0  0  0
  3  8  1  6  0  0  0
  3  7  1  0  0  0  0
  5  1  1  0  0  0  0
  6  3  1  0  0  0  0
  6  5  1  0  0  0  0
  7 16  1  0  0  0  0
  7  4  1  0  0  0  0
  9  8  1  0  0  0  0
 10 13  2  0  0  0  0
 10 14  1  0  0  0  0
 11  9  1  0  0  0  0
 12 11  2  0  0  0  0
 13 12  1  0  0  0  0
 14 15  2  0  0  0  0
 15 11  1  0  0  0  0
 17 26  1  0  0  0  0
 17 20  1  0  0  0  0
 18 24  1  0  0  0  0
 20 27  1  0  0  0  0
 21 22  1  0  0  0  0
 22 24  2  0  0  0  0
 23 21  2  0  0  0  0
 23 25  1  0  0  0  0
 24 19  1  0  0  0  0
 25 18  2  0  0  0  0
 26 16  1  6  0  0  0
 26 23  1  0  0  0  0
 27 25  1  0  0  0  0
M  END
>  <MODEL>
7

>  <REMARK>
 VINA RESULT:      -8.5      3.054      5.560
  Name = 
  5 active torsions:
  status: ('A' for Active; 'I' for Inactive)
    1  A    between atoms: C_1  and  N_15
    2  A    between atoms: C_1  and  C_18
    3  A    between atoms: C_3  and  C_19
    4  A    between atoms: C_3  and  N_26
    5  A    between atoms: C_9  and  N_15
                            x       y       z     vdW  Elec       q    Type
                         _______ _______ _______ _____ _____    ______ ____

>  <TORSDO>
F 5

$$$$
=
 OpenBabel10262420093D

 27 30  0  0  1  0  0  0  0  0999 V2000
  184.6030  178.5550  145.7060 C   0  0  0  0  0  0  0  0  0  0  0  0
  184.1890  178.4790  146.8910 O   0  0  0  0  0  0  0  0  0  0  0  0
  185.5920  178.9060  143.0950 C   0  0  1  0  0  3  0  0  0  0  0  0
  186.0720  178.5960  145.4250 C   0  0  0  0  0  2  0  0  0  0  0  0
  183.6780  178.7130  144.6320 N   0  0  0  0  0  2  0  0  0  0  0  0
  184.1090  178.5650  143.2490 C   0  0  0  0  0  2  0  0  0  0  0  0
  186.3780  178.1230  144.0720 N   0  0  0  0  0  0  0  0  0  0  0  0
  185.9730  178.5650  141.6580 C   0  0  0  0  0  2  0  0  0  0  0  0
  185.2840  179.4540  140.7360 N   0  0  0  0  0  2  0  0  0  0  0  0
  183.0220  177.9960  137.4700 C   0  0  0  0  0  3  0  0  0  0  0  0
  184.5110  178.9790  139.6330 C   0  0  0  0  0  0  0  0  0  0  0  0
  185.1240  178.1820  138.6600 C   0  0  0  0  0  3  0  0  0  0  0  0
  184.3830  177.6920  137.5800 C   0  0  0  0  0  3  0  0  0  0  0  0
  182.4040  178.7900  138.4400 C   0  0  0  0  0  3  0  0  0  0  0  0
  183.1440  179.2800  139.5190 C   0  0  0  0  0  3  0  0  0  0  0  0
  187.8020  178.3960  143.8990 C   0  0  0  0  0  2  0  0  0  0  0  0
  189.2910  176.9320  142.5730 C   0  0  0  0  0  2  0  0  0  0  0  0
  191.7340  176.4020  146.0280 C   0  0  0  0  0  3  0  0  0  0  0  0
  192.1330  176.6710  148.3620 F   0  0  0  0  0  0  0  0  0  0  0  0
  190.2730  175.7740  142.6140 C   0  0  0  0  0  2  0  0  0  0  0  0
  189.1460  177.3890  146.3810 C   0  0  0  0  0  3  0  0  0  0  0  0
  190.0040  177.2690  147.4770 C   0  0  0  0  0  3  0  0  0  0  0  0
  189.5780  177.0410  145.0910 C   0  0  0  0  0  0  0  0  0  0  0  0
  191.2990  176.7820  147.2990 C   0  0  0  0  0  0  0  0  0  0  0  0
  190.8790  176.5070  144.9280 C   0  0  0  0  0  0  0  0  0  0  0  0
  188.6030  177.0980  143.9280 C   0  0  1  0  0  3  0  0  0  0  0  0
  191.4030  176.1150  143.5770 C   0  0  0  0  0  2  0  0  0  0  0  0
  1  2  2  0  0  0  0
  3  8  1  6  0  0  0
  3  6  1  0  0  0  0
  3  7  1  0  0  0  0
  4  1  1  0  0  0  0
  5  1  1  0  0  0  0
  6  5  1  0  0  0  0
  7  4  1  0  0  0  0
  9  8  1  0  0  0  0
 10 13  2  0  0  0  0
 10 14  1  0  0  0  0
 11  9  1  0  0  0  0
 12 11  2  0  0  0  0
 13 12  1  0  0  0  0
 14 15  2  0  0  0  0
 15 11  1  0  0  0  0
 16  7  1  0  0  0  0
 17 20  1  0  0  0  0
 17 26  1  0  0  0  0
 18 24  1  0  0  0  0
 20 27  1  0  0  0  0
 21 22  1  0  0  0  0
 23 21  2  0  0  0  0
 24 22  2  0  0  0  0
 24 19  1  0  0  0  0
 25 23  1  0  0  0  0
 25 18  2  0  0  0  0
 26 16  1  6  0  0  0
 26 23  1  0  0  0  0
 27 25  1  0  0  0  0
M  END
>  <MODEL>
8

>  <REMARK>
 VINA RESULT:      -8.5      2.550      4.183
  Name = 
  5 active torsions:
  status: ('A' for Active; 'I' for Inactive)
    1  A    between atoms: C_1  and  N_15
    2  A    between atoms: C_1  and  C_18
    3  A    between atoms: C_3  and  C_19
    4  A    between atoms: C_3  and  N_26
    5  A    between atoms: C_9  and  N_15
                            x       y       z     vdW  Elec       q    Type
                         _______ _______ _______ _____ _____    ______ ____

>  <TORSDO>
F 5

$$$$
=
 OpenBabel10262420093D

 27 30  0  0  1  0  0  0  0  0999 V2000
  190.2050  177.1230  140.8180 C   0  0  0  0  0  0  0  0  0  0  0  0
  191.3830  176.6830  140.7810 O   0  0  0  0  0  0  0  0  0  0  0  0
  187.5080  177.9260  140.8650 C   0  0  1  0  0  3  0  0  0  0  0  0
  189.2950  176.7400  141.9420 C   0  0  0  0  0  2  0  0  0  0  0  0
  189.6960  177.8990  139.7350 N   0  0  0  0  0  2  0  0  0  0  0  0
  188.4320  178.6130  139.8580 C   0  0  0  0  0  2  0  0  0  0  0  0
  188.2320  177.7300  142.1390 N   0  0  0  0  0  0  0  0  0  0  0  0
  186.2950  178.8340  141.0360 C   0  0  0  0  0  2  0  0  0  0  0  0
  185.5200  178.8670  139.8060 N   0  0  0  0  0  2  0  0  0  0  0  0
  181.2900  178.9320  139.8140 C   0  0  0  0  0  3  0  0  0  0  0  0
  184.0920  178.8930  139.7890 C   0  0  0  0  0  0  0  0  0  0  0  0
  183.3820  177.9850  140.5820 C   0  0  0  0  0  3  0  0  0  0  0  0
  181.9840  178.0030  140.5940 C   0  0  0  0  0  3  0  0  0  0  0  0
  181.9930  179.8430  139.0210 C   0  0  0  0  0  3  0  0  0  0  0  0
  183.3910  179.8260  139.0080 C   0  0  0  0  0  3  0  0  0  0  0  0
  187.3440  177.1260  143.1280 C   0  0  0  0  0  2  0  0  0  0  0  0
  185.3340  178.0910  144.1990 C   0  0  0  0  0  2  0  0  0  0  0  0
  187.4260  178.1560  147.9140 C   0  0  0  0  0  3  0  0  0  0  0  0
  189.4260  177.9130  149.1860 F   0  0  0  0  0  0  0  0  0  0  0  0
  184.8080  178.9610  145.3280 C   0  0  0  0  0  2  0  0  0  0  0  0
  188.9130  177.8820  145.5670 C   0  0  0  0  0  3  0  0  0  0  0  0
  189.5510  177.8350  146.8090 C   0  0  0  0  0  3  0  0  0  0  0  0
  187.5210  178.0420  145.4830 C   0  0  0  0  0  0  0  0  0  0  0  0
  188.8070  177.9650  147.9810 C   0  0  0  0  0  0  0  0  0  0  0  0
  186.7800  178.2160  146.6760 C   0  0  0  0  0  0  0  0  0  0  0  0
  186.8580  178.1760  144.1230 C   0  0  1  0  0  3  0  0  0  0  0  0
  185.2890  178.3920  146.6570 C   0  0  0  0  0  2  0  0  0  0  0  0
  1  4  1  0  0  0  0
  2  1  2  0  0  0  0
  3  8  1  1  0  0  0
  3  7  1  0  0  0  0
  4  7  1  0  0  0  0
  5  6  1  0  0  0  0
  5  1  1  0  0  0  0
  6  3  1  0  0  0  0
  7 16  1  0  0  0  0
  9  8  1  0  0  0  0
 10 13  1  0  0  0  0
 11  9  1  0  0  0  0
 11 12  1  0  0  0  0
 12 13  2  0  0  0  0
 14 10  2  0  0  0  0
 15 14  1  0  0  0  0
 15 11  2  0  0  0  0
 17 20  1  0  0  0  0
 18 24  1  0  0  0  0
 20 27  1  0  0  0  0
 21 22  1  0  0  0  0
 22 24  2  0  0  0  0
 23 21  2  0  0  0  0
 23 25  1  0  0  0  0
 24 19  1  0  0  0  0
 25 18  2  0  0  0  0
 26 16  1  6  0  0  0
 26 17  1  0  0  0  0
 26 23  1  0  0  0  0
 27 25  1  0  0  0  0
M  END
>  <MODEL>
9

>  <REMARK>
 VINA RESULT:      -8.5      2.123      2.987
  Name = 
  5 active torsions:
  status: ('A' for Active; 'I' for Inactive)
    1  A    between atoms: C_1  and  N_15
    2  A    between atoms: C_1  and  C_18
    3  A    between atoms: C_3  and  C_19
    4  A    between atoms: C_3  and  N_26
    5  A    between atoms: C_9  and  N_15
                            x       y       z     vdW  Elec       q    Type
                         _______ _______ _______ _____ _____    ______ ____

>  <TORSDO>
F 5

$$$$
