=
 OpenBabel10262420553D

 28 33  0  0  1  0  0  0  0  0999 V2000
  189.3870  177.6380  140.0250 C   0  0  2  0  0  3  0  0  0  0  0  0
  184.5110  178.0980  141.8950 C   0  0  0  0  0  3  0  0  0  0  0  0
  189.9070  178.1220  144.9870 C   0  0  0  0  0  1  0  0  0  0  0  0
  184.9040  178.6510  144.2250 C   0  0  0  0  0  0  0  0  0  0  0  0
  186.8130  177.6730  142.8730 C   0  0  1  0  0  3  0  0  0  0  0  0
  182.7170  179.0030  143.2430 C   0  0  0  0  0  0  0  0  0  0  0  0
  185.3920  178.1930  142.9830 C   0  0  0  0  0  0  0  0  0  0  0  0
  187.0430  177.8780  145.2250 C   0  0  0  0  0  2  0  0  0  0  0  0
  183.5750  179.0700  144.3420 C   0  0  0  0  0  3  0  0  0  0  0  0
  189.6780  177.7540  142.5410 C   0  0  1  0  0  3  0  0  0  0  0  0
  187.4150  178.0110  141.5140 C   0  0  0  0  0  2  0  0  0  0  0  0
  185.8060  178.7480  145.4180 C   0  0  0  0  0  2  0  0  0  0  0  0
  191.5060  176.8510  141.1400 C   0  0  0  0  0  2  0  0  0  0  0  0
  188.9950  177.5480  143.9040 C   0  0  2  0  0  3  0  0  0  0  0  0
  190.9580  177.0260  142.4970 N   0  0  0  0  0  2  0  0  0  0  0  0
  181.4290  179.4060  143.3630 F   0  0  0  0  0  0  0  0  0  0  0  0
  183.1820  178.5100  142.0220 C   0  0  0  0  0  3  0  0  0  0  0  0
  187.6770  178.2080  143.9460 N   0  0  1  0  0  0  0  0  0  0  0  0
  190.9060  177.8180  140.1160 C   0  0  0  0  0  2  0  0  0  0  0  0
  188.7600  177.3230  141.3900 C   0  0  1  0  0  3  0  0  0  0  0  0
  189.0450  176.5180  139.0340 C   0  0  2  0  0  3  0  0  0  0  0  0
  189.3210  176.8390  137.5640 C   0  0  2  0  0  3  0  0  0  0  0  0
  187.5300  178.2650  137.7470 C   0  0  0  0  0  0  0  0  0  0  0  0
  189.8050  178.1590  137.3630 O   0  0  0  0  0  0  0  0  0  0  0  0
  187.1020  175.7550  137.4680 C   0  0  0  0  0  1  0  0  0  0  0  0
  187.8960  176.8840  138.0910 C   0  0  2  0  0  0  0  0  0  0  0  0
  186.5090  178.8560  138.2450 N   0  0  0  0  0  2  0  0  0  0  0  0
  188.6880  179.0030  137.2190 C   0  0  0  0  0  2  0  0  0  0  0  0
  1 19  1  1  0  0  0
  1 20  1  0  0  0  0
  2 17  2  0  0  0  0
  2  7  1  0  0  0  0
  4  9  1  0  0  0  0
  4 12  1  0  0  0  0
  5 11  1  6  0  0  0
  5  7  1  0  0  0  0
  5 18  1  0  0  0  0
  6 16  1  0  0  0  0
  6  9  2  0  0  0  0
  7  4  2  0  0  0  0
  8 12  1  0  0  0  0
 10 15  1  1  0  0  0
 10 14  1  0  0  0  0
 13 15  1  0  0  0  0
 14 18  1  0  0  0  0
 14  3  1  1  0  0  0
 17  6  1  0  0  0  0
 18  8  1  1  0  0  0
 19 13  1  0  0  0  0
 20 11  1  1  0  0  0
 20 10  1  0  0  0  0
 21  1  1  1  0  0  0
 22 24  1  1  0  0  0
 22 26  1  0  0  0  0
 22 21  1  0  0  0  0
 23 26  1  0  0  0  0
 23 27  2  0  0  0  0
 26 25  1  6  0  0  0
 26 21  1  0  0  0  0
 28 24  1  0  0  0  0
 28 23  1  0  0  0  0
M  END
>  <MODEL>
1

>  <REMARK>
 VINA RESULT:      -9.2      0.000      0.000
  Name = 
  1 active torsions:
  status: ('A' for Active; 'I' for Inactive)
    1  A    between atoms: C_1  and  C_2
                            x       y       z     vdW  Elec       q    Type
                         _______ _______ _______ _____ _____    ______ ____

>  <TORSDO>
F 1

$$$$
=
 OpenBabel10262420553D

 28 33  0  0  1  0  0  0  0  0999 V2000
  189.0050  177.4120  138.7830 C   0  0  2  0  0  3  0  0  0  0  0  0
  185.5000  177.8340  142.6590 C   0  0  0  0  0  3  0  0  0  0  0  0
  191.6910  177.3520  143.0150 C   0  0  0  0  0  1  0  0  0  0  0  0
  186.9200  178.1240  144.6060 C   0  0  0  0  0  0  0  0  0  0  0  0
  187.9580  177.2320  142.4720 C   0  0  1  0  0  3  0  0  0  0  0  0
  184.5580  178.6510  144.7320 C   0  0  0  0  0  0  0  0  0  0  0  0
  186.7750  177.7840  143.2440 C   0  0  0  0  0  0  0  0  0  0  0  0
  189.2140  177.1800  144.4840 C   0  0  0  0  0  2  0  0  0  0  0  0
  185.8140  178.5730  145.3360 C   0  0  0  0  0  3  0  0  0  0  0  0
  190.3820  177.2530  140.9070 C   0  0  1  0  0  3  0  0  0  0  0  0
  187.9250  177.6910  141.0180 C   0  0  0  0  0  2  0  0  0  0  0  0
  188.2590  178.0650  145.2750 C   0  0  0  0  0  2  0  0  0  0  0  0
  191.3320  176.4420  138.7710 C   0  0  0  0  0  2  0  0  0  0  0  0
  190.3550  176.9260  142.4100 C   0  0  2  0  0  3  0  0  0  0  0  0
  191.4510  176.4910  140.2390 N   0  0  0  0  0  2  0  0  0  0  0  0
  183.4900  179.0820  145.4450 F   0  0  0  0  0  0  0  0  0  0  0  0
  184.3990  178.2740  143.3970 C   0  0  0  0  0  3  0  0  0  0  0  0
  189.2440  177.6220  143.0870 N   0  0  1  0  0  0  0  0  0  0  0  0
  190.4180  177.5310  138.2020 C   0  0  0  0  0  2  0  0  0  0  0  0
  189.0210  176.9760  140.2540 C   0  0  1  0  0  3  0  0  0  0  0  0
  188.1780  176.4160  137.9620 C   0  0  2  0  0  3  0  0  0  0  0  0
  187.8570  176.8530  136.5320 C   0  0  2  0  0  3  0  0  0  0  0  0
  186.4500  178.3720  137.5260 C   0  0  0  0  0  0  0  0  0  0  0  0
  188.3450  178.1510  136.2240 O   0  0  0  0  0  0  0  0  0  0  0  0
  185.6970  175.9340  137.3070 C   0  0  0  0  0  1  0  0  0  0  0  0
  186.7860  176.9440  137.6060 C   0  0  2  0  0  0  0  0  0  0  0  0
  185.7880  178.9810  138.4370 N   0  0  0  0  0  2  0  0  0  0  0  0
  187.3560  179.0770  136.6070 C   0  0  0  0  0  2  0  0  0  0  0  0
  1 19  1  6  0  0  0
  1 20  1  0  0  0  0
  2  7  2  0  0  0  0
  2 17  1  0  0  0  0
  4 12  1  0  0  0  0
  4  9  2  0  0  0  0
  5 11  1  6  0  0  0
  5 18  1  0  0  0  0
  5  7  1  0  0  0  0
  6  9  1  0  0  0  0
  6 16  1  0  0  0  0
  7  4  1  0  0  0  0
  8 12  1  0  0  0  0
 10 15  1  6  0  0  0
 10 14  1  0  0  0  0
 13 15  1  0  0  0  0
 14  3  1  1  0  0  0
 14 18  1  0  0  0  0
 17  6  2  0  0  0  0
 18  8  1  1  0  0  0
 19 13  1  0  0  0  0
 20 10  1  0  0  0  0
 20 11  1  1  0  0  0
 21  1  1  1  0  0  0
 22 24  1  1  0  0  0
 22 26  1  0  0  0  0
 22 21  1  0  0  0  0
 23 26  1  0  0  0  0
 23 27  2  0  0  0  0
 24 28  1  0  0  0  0
 26 25  1  6  0  0  0
 26 21  1  0  0  0  0
 28 23  1  0  0  0  0
M  END
>  <MODEL>
2

>  <REMARK>
 VINA RESULT:      -8.7      1.358      1.896
  Name = 
  1 active torsions:
  status: ('A' for Active; 'I' for Inactive)
    1  A    between atoms: C_1  and  C_2
                            x       y       z     vdW  Elec       q    Type
                         _______ _______ _______ _____ _____    ______ ____

>  <TORSDO>
F 1

$$$$
=
 OpenBabel10262420553D

 28 33  0  0  1  0  0  0  0  0999 V2000
  189.7960  177.3210  141.1660 C   0  0  2  0  0  3  0  0  0  0  0  0
  185.3610  178.8400  143.5120 C   0  0  0  0  0  3  0  0  0  0  0  0
  186.4480  177.8390  137.4710 C   0  0  0  0  0  1  0  0  0  0  0  0
  183.7560  178.7370  141.6940 C   0  0  0  0  0  0  0  0  0  0  0  0
  186.2280  178.7380  141.1300 C   0  0  1  0  0  3  0  0  0  0  0  0
  182.9890  178.8700  143.9890 C   0  0  0  0  0  0  0  0  0  0  0  0
  185.0950  178.7250  142.1380 C   0  0  0  0  0  0  0  0  0  0  0  0
  184.6400  179.0110  139.3890 C   0  0  0  0  0  2  0  0  0  0  0  0
  182.7110  178.7900  142.6220 C   0  0  0  0  0  3  0  0  0  0  0  0
  188.1630  177.6950  139.2610 C   0  0  1  0  0  3  0  0  0  0  0  0
  187.4180  177.9300  141.6340 C   0  0  0  0  0  2  0  0  0  0  0  0
  183.4290  178.6370  140.2350 C   0  0  0  0  0  2  0  0  0  0  0  0
  190.5930  177.6400  138.7950 C   0  0  0  0  0  2  0  0  0  0  0  0
  186.8720  178.4070  138.8240 C   0  0  2  0  0  3  0  0  0  0  0  0
  189.2440  177.9580  138.2950 N   0  0  0  0  0  2  0  0  0  0  0  0
  181.9740  178.9270  144.8830 F   0  0  0  0  0  0  0  0  0  0  0  0
  184.3120  178.9040  144.4330 C   0  0  0  0  0  3  0  0  0  0  0  0
  185.7970  178.2190  139.8150 N   0  0  1  0  0  0  0  0  0  0  0  0
  190.5840  176.7030  140.0050 C   0  0  0  0  0  2  0  0  0  0  0  0
  188.5780  178.1170  140.6770 C   0  0  1  0  0  3  0  0  0  0  0  0
  190.7060  178.2360  141.9940 C   0  0  2  0  0  3  0  0  0  0  0  0
  191.7420  177.5170  142.8600 C   0  0  2  0  0  3  0  0  0  0  0  0
  189.9420  176.8790  144.1340 C   0  0  0  0  0  0  0  0  0  0  0  0
  191.6470  176.1020  142.7840 O   0  0  0  0  0  0  0  0  0  0  0  0
  190.8750  179.2500  144.3940 C   0  0  0  0  0  1  0  0  0  0  0  0
  190.4890  178.0880  143.5030 C   0  0  2  0  0  0  0  0  0  0  0  0
  188.7370  176.8060  144.5630 N   0  0  0  0  0  2  0  0  0  0  0  0
  190.7170  175.6880  143.7560 C   0  0  0  0  0  2  0  0  0  0  0  0
  1 19  1  6  0  0  0
  2 17  1  0  0  0  0
  4  7  1  0  0  0  0
  4  9  2  0  0  0  0
  5 11  1  1  0  0  0
  5  7  1  0  0  0  0
  6 17  2  0  0  0  0
  6 16  1  0  0  0  0
  7  2  2  0  0  0  0
  8 12  1  0  0  0  0
  9  6  1  0  0  0  0
 10 15  1  6  0  0  0
 10 20  1  0  0  0  0
 12  4  1  0  0  0  0
 13 19  1  0  0  0  0
 14  3  1  6  0  0  0
 14 10  1  0  0  0  0
 14 18  1  0  0  0  0
 15 13  1  0  0  0  0
 18  8  1  6  0  0  0
 18  5  1  0  0  0  0
 20  1  1  0  0  0  0
 20 11  1  1  0  0  0
 21  1  1  6  0  0  0
 21 22  1  0  0  0  0
 21 26  1  0  0  0  0
 22 24  1  6  0  0  0
 22 26  1  0  0  0  0
 23 27  2  0  0  0  0
 24 28  1  0  0  0  0
 26 23  1  0  0  0  0
 26 25  1  1  0  0  0
 28 23  1  0  0  0  0
M  END
>  <MODEL>
3

>  <REMARK>
 VINA RESULT:      -8.4      1.917      4.722
  Name = 
  1 active torsions:
  status: ('A' for Active; 'I' for Inactive)
    1  A    between atoms: C_1  and  C_2
                            x       y       z     vdW  Elec       q    Type
                         _______ _______ _______ _____ _____    ______ ____

>  <TORSDO>
F 1

$$$$
=
 OpenBabel10262420553D

 28 33  0  0  1  0  0  0  0  0999 V2000
  188.9810  177.8780  145.2770 C   0  0  2  0  0  3  0  0  0  0  0  0
  187.8270  177.7580  140.1640 C   0  0  0  0  0  3  0  0  0  0  0  0
  184.1040  179.0010  144.9880 C   0  0  0  0  0  1  0  0  0  0  0  0
  185.5620  178.6280  140.1280 C   0  0  0  0  0  0  0  0  0  0  0  0
  186.5150  177.8220  142.3350 C   0  0  1  0  0  3  0  0  0  0  0  0
  186.8530  178.5100  138.0810 C   0  0  0  0  0  0  0  0  0  0  0  0
  186.6580  178.1160  140.8540 C   0  0  0  0  0  0  0  0  0  0  0  0
  184.2020  178.3280  142.1850 C   0  0  0  0  0  2  0  0  0  0  0  0
  185.6720  178.8390  138.7500 C   0  0  0  0  0  3  0  0  0  0  0  0
  186.4870  178.3250  145.1760 C   0  0  1  0  0  3  0  0  0  0  0  0
  187.8200  178.0960  143.0750 C   0  0  0  0  0  2  0  0  0  0  0  0
  184.2880  179.0040  140.8220 C   0  0  0  0  0  2  0  0  0  0  0  0
  187.5080  177.5740  147.3000 C   0  0  0  0  0  2  0  0  0  0  0  0
  185.2060  178.1680  144.3380 C   0  0  2  0  0  3  0  0  0  0  0  0
  186.2690  177.8110  146.5400 N   0  0  0  0  0  2  0  0  0  0  0  0
  186.9530  178.7120  136.7450 F   0  0  0  0  0  0  0  0  0  0  0  0
  187.9270  177.9620  138.7860 C   0  0  0  0  0  3  0  0  0  0  0  0
  185.4230  178.6080  142.9460 N   0  0  1  0  0  0  0  0  0  0  0  0
  188.7220  178.3090  146.7250 C   0  0  0  0  0  2  0  0  0  0  0  0
  187.6770  177.6230  144.5080 C   0  0  1  0  0  3  0  0  0  0  0  0
  189.8470  176.6130  145.2490 C   0  0  2  0  0  3  0  0  0  0  0  0
  191.3420  176.8380  145.4780 C   0  0  2  0  0  3  0  0  0  0  0  0
  191.3160  177.7880  143.3870 C   0  0  0  0  0  0  0  0  0  0  0  0
  191.6820  178.2090  145.6290 O   0  0  0  0  0  0  0  0  0  0  0  0
  191.3260  175.2360  143.5960 C   0  0  0  0  0  1  0  0  0  0  0  0
  190.8250  176.5840  144.0710 C   0  0  2  0  0  0  0  0  0  0  0  0
  190.8850  178.1570  142.2390 N   0  0  0  0  0  2  0  0  0  0  0  0
  191.9180  178.7310  144.3430 C   0  0  0  0  0  2  0  0  0  0  0  0
  1 19  1  1  0  0  0
  2  7  1  0  0  0  0
  4 12  1  0  0  0  0
  4  7  2  0  0  0  0
  5 18  1  0  0  0  0
  5 11  1  1  0  0  0
  6  9  2  0  0  0  0
  6 17  1  0  0  0  0
  7  5  1  0  0  0  0
  9  4  1  0  0  0  0
 10 15  1  1  0  0  0
 12  8  1  0  0  0  0
 14  3  1  1  0  0  0
 14 10  1  0  0  0  0
 15 13  1  0  0  0  0
 16  6  1  0  0  0  0
 17  2  2  0  0  0  0
 18  8  1  6  0  0  0
 18 14  1  0  0  0  0
 19 13  1  0  0  0  0
 20 11  1  6  0  0  0
 20 10  1  0  0  0  0
 20  1  1  0  0  0  0
 21  1  1  6  0  0  0
 21 22  1  0  0  0  0
 22 24  1  6  0  0  0
 23 26  1  0  0  0  0
 23 28  1  0  0  0  0
 26 25  1  6  0  0  0
 26 21  1  0  0  0  0
 26 22  1  0  0  0  0
 27 23  2  0  0  0  0
 28 24  1  0  0  0  0
M  END
>  <MODEL>
4

>  <REMARK>
 VINA RESULT:      -7.8      2.908      5.808
  Name = 
  1 active torsions:
  status: ('A' for Active; 'I' for Inactive)
    1  A    between atoms: C_1  and  C_2
                            x       y       z     vdW  Elec       q    Type
                         _______ _______ _______ _____ _____    ______ ____

>  <TORSDO>
F 1

$$$$
=
 OpenBabel10262420553D

 28 33  0  0  1  0  0  0  0  0999 V2000
  189.3460  177.7550  145.7600 C   0  0  2  0  0  3  0  0  0  0  0  0
  186.5950  178.0850  141.3090 C   0  0  0  0  0  3  0  0  0  0  0  0
  184.6290  178.6830  147.1790 C   0  0  0  0  0  1  0  0  0  0  0  0
  184.4320  178.8530  142.0980 C   0  0  0  0  0  0  0  0  0  0  0  0
  186.0580  177.8780  143.7810 C   0  0  1  0  0  3  0  0  0  0  0  0
  184.9890  178.9930  139.7440 C   0  0  0  0  0  0  0  0  0  0  0  0
  185.7100  178.3220  142.3730 C   0  0  0  0  0  0  0  0  0  0  0  0
  183.8180  178.2930  144.4390 C   0  0  0  0  0  2  0  0  0  0  0  0
  184.0860  179.2030  140.7890 C   0  0  0  0  0  3  0  0  0  0  0  0
  186.9500  178.0990  146.5160 C   0  0  1  0  0  3  0  0  0  0  0  0
  187.5300  178.1360  144.0860 C   0  0  0  0  0  2  0  0  0  0  0  0
  183.4490  179.1030  143.2010 C   0  0  0  0  0  2  0  0  0  0  0  0
  188.6140  177.1890  148.1050 C   0  0  0  0  0  2  0  0  0  0  0  0
  185.4680  177.9680  146.1230 C   0  0  2  0  0  3  0  0  0  0  0  0
  187.1920  177.4450  147.8140 N   0  0  0  0  0  2  0  0  0  0  0  0
  184.6480  179.3290  138.4770 F   0  0  0  0  0  0  0  0  0  0  0  0
  186.2390  178.4270  140.0020 C   0  0  0  0  0  3  0  0  0  0  0  0
  185.2160  178.5510  144.7910 N   0  0  1  0  0  0  0  0  0  0  0  0
  189.5670  178.0300  147.2510 C   0  0  0  0  0  2  0  0  0  0  0  0
  187.8660  177.5190  145.4300 C   0  0  1  0  0  3  0  0  0  0  0  0
  190.1680  176.5380  145.3190 C   0  0  2  0  0  3  0  0  0  0  0  0
  191.6460  176.8140  145.0380 C   0  0  2  0  0  3  0  0  0  0  0  0
  190.8800  177.9270  143.1820 C   0  0  0  0  0  0  0  0  0  0  0  0
  191.9950  178.1830  145.1880 O   0  0  0  0  0  0  0  0  0  0  0  0
  191.0030  175.3690  143.1390 C   0  0  0  0  0  1  0  0  0  0  0  0
  190.6770  176.6500  143.8790 C   0  0  2  0  0  0  0  0  0  0  0  0
  190.0710  178.3670  142.2910 N   0  0  0  0  0  2  0  0  0  0  0  0
  191.7610  178.8170  143.9530 C   0  0  0  0  0  2  0  0  0  0  0  0
  1 19  1  1  0  0  0
  2  7  1  0  0  0  0
  4  7  2  0  0  0  0
  4 12  1  0  0  0  0
  5 11  1  1  0  0  0
  5 18  1  0  0  0  0
  6 17  1  0  0  0  0
  6  9  2  0  0  0  0
  7  5  1  0  0  0  0
  9  4  1  0  0  0  0
 10 15  1  1  0  0  0
 12  8  1  0  0  0  0
 14 10  1  0  0  0  0
 14  3  1  1  0  0  0
 15 13  1  0  0  0  0
 16  6  1  0  0  0  0
 17  2  2  0  0  0  0
 18  8  1  6  0  0  0
 18 14  1  0  0  0  0
 19 13  1  0  0  0  0
 20 11  1  6  0  0  0
 20  1  1  0  0  0  0
 20 10  1  0  0  0  0
 21  1  1  1  0  0  0
 22 24  1  1  0  0  0
 22 21  1  0  0  0  0
 23 26  1  0  0  0  0
 23 28  1  0  0  0  0
 26 25  1  6  0  0  0
 26 22  1  0  0  0  0
 26 21  1  0  0  0  0
 27 23  2  0  0  0  0
 28 24  1  0  0  0  0
M  END
>  <MODEL>
5

>  <REMARK>
 VINA RESULT:      -7.8      3.039      5.288
  Name = 
  1 active torsions:
  status: ('A' for Active; 'I' for Inactive)
    1  A    between atoms: C_1  and  C_2
                            x       y       z     vdW  Elec       q    Type
                         _______ _______ _______ _____ _____    ______ ____

>  <TORSDO>
F 1

$$$$
=
 OpenBabel10262420553D

 28 33  0  0  1  0  0  0  0  0999 V2000
  185.6490  178.0260  138.7200 C   0  0  2  0  0  3  0  0  0  0  0  0
  189.0210  177.7550  142.7260 C   0  0  0  0  0  3  0  0  0  0  0  0
  182.8700  178.6630  142.8430 C   0  0  0  0  0  1  0  0  0  0  0  0
  187.5380  177.7440  144.6470 C   0  0  0  0  0  0  0  0  0  0  0  0
  186.6140  178.4920  142.4070 C   0  0  1  0  0  3  0  0  0  0  0  0
  189.8560  177.0820  144.8950 C   0  0  0  0  0  0  0  0  0  0  0  0
  187.7380  177.9420  143.2640 C   0  0  0  0  0  0  0  0  0  0  0  0
  185.3150  178.8170  144.3650 C   0  0  0  0  0  2  0  0  0  0  0  0
  188.5920  177.2970  145.4500 C   0  0  0  0  0  3  0  0  0  0  0  0
  184.2340  178.4760  140.7760 C   0  0  1  0  0  3  0  0  0  0  0  0
  186.6530  177.8940  141.0050 C   0  0  0  0  0  2  0  0  0  0  0  0
  186.1890  177.9520  145.2660 C   0  0  0  0  0  2  0  0  0  0  0  0
  183.3930  179.1370  138.5450 C   0  0  0  0  0  2  0  0  0  0  0  0
  184.2450  178.9430  142.2420 C   0  0  2  0  0  3  0  0  0  0  0  0
  183.2340  179.2370  140.0070 N   0  0  0  0  0  2  0  0  0  0  0  0
  190.8750  176.6550  145.6780 F   0  0  0  0  0  0  0  0  0  0  0  0
  190.0720  177.3190  143.5360 C   0  0  0  0  0  3  0  0  0  0  0  0
  185.2910  178.2460  143.0160 N   0  0  1  0  0  0  0  0  0  0  0  0
  184.2460  177.9430  138.1100 C   0  0  0  0  0  2  0  0  0  0  0  0
  185.6260  178.6020  140.1430 C   0  0  1  0  0  3  0  0  0  0  0  0
  186.5610  178.8850  137.8360 C   0  0  2  0  0  3  0  0  0  0  0  0
  186.9450  178.2610  136.4930 C   0  0  2  0  0  3  0  0  0  0  0  0
  188.2310  176.8340  137.7510 C   0  0  0  0  0  0  0  0  0  0  0  0
  186.4240  176.9520  136.3170 O   0  0  0  0  0  0  0  0  0  0  0  0
  189.0920  179.2000  137.2800 C   0  0  0  0  0  1  0  0  0  0  0  0
  187.9490  178.2710  137.6340 C   0  0  2  0  0  0  0  0  0  0  0  0
  188.8160  176.3230  138.7690 N   0  0  0  0  0  2  0  0  0  0  0  0
  187.3510  176.0490  136.8710 C   0  0  0  0  0  2  0  0  0  0  0  0
  1 19  1  6  0  0  0
  1 20  1  0  0  0  0
  2  7  2  0  0  0  0
  2 17  1  0  0  0  0
  4 12  1  0  0  0  0
  4  9  2  0  0  0  0
  5 11  1  6  0  0  0
  5 18  1  0  0  0  0
  5  7  1  0  0  0  0
  6  9  1  0  0  0  0
  6 16  1  0  0  0  0
  7  4  1  0  0  0  0
  8 12  1  0  0  0  0
 10 15  1  6  0  0  0
 10 14  1  0  0  0  0
 13 15  1  0  0  0  0
 14  3  1  1  0  0  0
 14 18  1  0  0  0  0
 17  6  2  0  0  0  0
 18  8  1  1  0  0  0
 19 13  1  0  0  0  0
 20 10  1  0  0  0  0
 20 11  1  1  0  0  0
 21  1  1  1  0  0  0
 22 24  1  1  0  0  0
 22 26  1  0  0  0  0
 22 21  1  0  0  0  0
 23 27  2  0  0  0  0
 24 28  1  0  0  0  0
 26 25  1  6  0  0  0
 26 23  1  0  0  0  0
 26 21  1  0  0  0  0
 28 23  1  0  0  0  0
M  END
>  <MODEL>
6

>  <REMARK>
 VINA RESULT:      -7.6      2.667      5.031
  Name = 
  1 active torsions:
  status: ('A' for Active; 'I' for Inactive)
    1  A    between atoms: C_1  and  C_2
                            x       y       z     vdW  Elec       q    Type
                         _______ _______ _______ _____ _____    ______ ____

>  <TORSDO>
F 1

$$$$
=
 OpenBabel10262420553D

 28 33  0  0  1  0  0  0  0  0999 V2000
  189.0280  177.1920  137.9010 C   0  0  2  0  0  3  0  0  0  0  0  0
  187.4930  177.1320  142.9140 C   0  0  0  0  0  3  0  0  0  0  0  0
  193.2490  177.5030  140.5870 C   0  0  0  0  0  1  0  0  0  0  0  0
  189.5610  177.6150  144.0900 C   0  0  0  0  0  0  0  0  0  0  0  0
  189.6900  176.8720  141.6700 C   0  0  1  0  0  3  0  0  0  0  0  0
  187.4340  177.8130  145.2350 C   0  0  0  0  0  0  0  0  0  0  0  0
  188.8920  177.2570  142.9000 C   0  0  0  0  0  0  0  0  0  0  0  0
  191.6800  176.9930  142.9530 C   0  0  0  0  0  2  0  0  0  0  0  0
  188.8270  177.9090  145.2440 C   0  0  0  0  0  3  0  0  0  0  0  0
  191.1890  177.2230  139.2300 C   0  0  1  0  0  3  0  0  0  0  0  0
  188.9810  177.3220  140.3960 C   0  0  0  0  0  2  0  0  0  0  0  0
  191.0540  177.7400  144.1250 C   0  0  0  0  0  2  0  0  0  0  0  0
  191.2280  176.5500  136.8490 C   0  0  0  0  0  2  0  0  0  0  0  0
  191.8470  176.8970  140.5810 C   0  0  2  0  0  3  0  0  0  0  0  0
  191.9560  176.6150  138.1280 N   0  0  0  0  0  2  0  0  0  0  0  0
  186.7290  178.0940  146.3560 F   0  0  0  0  0  0  0  0  0  0  0  0
  186.7680  177.4170  144.0730 C   0  0  0  0  0  3  0  0  0  0  0  0
  191.0550  177.4340  141.7040 N   0  0  1  0  0  0  0  0  0  0  0  0
  190.0310  177.5030  136.7840 C   0  0  0  0  0  2  0  0  0  0  0  0
  189.7250  176.7620  139.2000 C   0  0  1  0  0  3  0  0  0  0  0  0
  188.0610  176.0910  137.4520 C   0  0  2  0  0  3  0  0  0  0  0  0
  187.3250  176.3630  136.1390 C   0  0  2  0  0  3  0  0  0  0  0  0
  186.1730  177.9430  137.3440 C   0  0  0  0  0  0  0  0  0  0  0  0
  187.6320  177.6320  135.5800 O   0  0  0  0  0  0  0  0  0  0  0  0
  185.5270  175.4750  137.5850 C   0  0  0  0  0  1  0  0  0  0  0  0
  186.5970  176.5400  137.4610 C   0  0  2  0  0  0  0  0  0  0  0  0
  185.7610  178.6280  138.3440 N   0  0  0  0  0  2  0  0  0  0  0  0
  186.7410  178.5680  136.1400 C   0  0  0  0  0  2  0  0  0  0  0  0
  1 19  1  6  0  0  0
  1 20  1  0  0  0  0
  2 17  1  0  0  0  0
  4 12  1  0  0  0  0
  4  9  2  0  0  0  0
  5 11  1  6  0  0  0
  5 18  1  0  0  0  0
  5  7  1  0  0  0  0
  6  9  1  0  0  0  0
  6 16  1  0  0  0  0
  7  2  2  0  0  0  0
  7  4  1  0  0  0  0
  8 12  1  0  0  0  0
 10 15  1  6  0  0  0
 10 14  1  0  0  0  0
 13 15  1  0  0  0  0
 14  3  1  6  0  0  0
 14 18  1  0  0  0  0
 17  6  2  0  0  0  0
 18  8  1  1  0  0  0
 19 13  1  0  0  0  0
 20 10  1  0  0  0  0
 20 11  1  1  0  0  0
 21 26  1  0  0  0  0
 21  1  1  1  0  0  0
 22 24  1  1  0  0  0
 22 21  1  0  0  0  0
 22 26  1  0  0  0  0
 23 26  1  0  0  0  0
 23 27  2  0  0  0  0
 24 28  1  0  0  0  0
 26 25  1  1  0  0  0
 28 23  1  0  0  0  0
M  END
>  <MODEL>
7

>  <REMARK>
 VINA RESULT:      -7.5      2.367      3.812
  Name = 
  1 active torsions:
  status: ('A' for Active; 'I' for Inactive)
    1  A    between atoms: C_1  and  C_2
                            x       y       z     vdW  Elec       q    Type
                         _______ _______ _______ _____ _____    ______ ____

>  <TORSDO>
F 1

$$$$
=
 OpenBabel10262420553D

 28 33  0  0  1  0  0  0  0  0999 V2000
  190.0670  177.0130  144.9120 C   0  0  2  0  0  3  0  0  0  0  0  0
  185.1000  178.6890  144.9820 C   0  0  0  0  0  3  0  0  0  0  0  0
  188.7680  177.5220  140.0970 C   0  0  0  0  0  1  0  0  0  0  0  0
  184.4880  178.5810  142.6360 C   0  0  0  0  0  0  0  0  0  0  0  0
  186.9460  178.5110  143.2510 C   0  0  1  0  0  3  0  0  0  0  0  0
  182.7700  178.7850  144.3340 C   0  0  0  0  0  0  0  0  0  0  0  0
  185.4800  178.5480  143.6380 C   0  0  0  0  0  0  0  0  0  0  0  0
  186.3260  178.7800  140.9770 C   0  0  0  0  0  2  0  0  0  0  0  0
  183.1380  178.6800  142.9910 C   0  0  0  0  0  3  0  0  0  0  0  0
  189.4840  177.3800  142.4720 C   0  0  1  0  0  3  0  0  0  0  0  0
  187.7540  177.6870  144.2480 C   0  0  0  0  0  2  0  0  0  0  0  0
  184.8520  178.4540  141.1880 C   0  0  0  0  0  2  0  0  0  0  0  0
  191.8580  177.2590  143.1560 C   0  0  0  0  0  2  0  0  0  0  0  0
  188.5530  178.1110  141.4900 C   0  0  2  0  0  3  0  0  0  0  0  0
  190.8920  177.5950  142.0960 N   0  0  0  0  0  2  0  0  0  0  0  0
  181.4630  178.8860  144.6720 F   0  0  0  0  0  0  0  0  0  0  0  0
  183.7510  178.7980  145.3280 C   0  0  0  0  0  3  0  0  0  0  0  0
  187.1390  177.9710  141.8890 N   0  0  1  0  0  0  0  0  0  0  0  0
  191.2740  176.3500  144.2410 C   0  0  0  0  0  2  0  0  0  0  0  0
  189.2270  177.8260  143.9170 C   0  0  1  0  0  3  0  0  0  0  0  0
  190.5320  177.9260  146.0530 C   0  0  2  0  0  3  0  0  0  0  0  0
  191.1720  177.2100  147.2440 C   0  0  2  0  0  3  0  0  0  0  0  0
  189.0450  176.4650  147.6850 C   0  0  0  0  0  0  0  0  0  0  0  0
  191.1790  175.7970  147.1060 O   0  0  0  0  0  0  0  0  0  0  0  0
  189.6910  178.8550  148.3440 C   0  0  0  0  0  1  0  0  0  0  0  0
  189.7430  177.7150  147.3480 C   0  0  2  0  0  0  0  0  0  0  0  0
  187.7740  176.3370  147.5990 N   0  0  0  0  0  2  0  0  0  0  0  0
  189.9600  175.3150  147.6200 C   0  0  0  0  0  2  0  0  0  0  0  0
  1 19  1  6  0  0  0
  2 17  1  0  0  0  0
  4  9  2  0  0  0  0
  4  7  1  0  0  0  0
  5  7  1  0  0  0  0
  5 11  1  1  0  0  0
  6 16  1  0  0  0  0
  6 17  2  0  0  0  0
  7  2  2  0  0  0  0
  8 12  1  0  0  0  0
  9  6  1  0  0  0  0
 10 15  1  6  0  0  0
 10 20  1  0  0  0  0
 12  4  1  0  0  0  0
 13 19  1  0  0  0  0
 14  3  1  6  0  0  0
 14 18  1  0  0  0  0
 14 10  1  0  0  0  0
 15 13  1  0  0  0  0
 18  8  1  6  0  0  0
 18  5  1  0  0  0  0
 20 11  1  1  0  0  0
 20  1  1  0  0  0  0
 21  1  1  6  0  0  0
 21 22  1  0  0  0  0
 21 26  1  0  0  0  0
 22 24  1  6  0  0  0
 22 26  1  0  0  0  0
 24 28  1  0  0  0  0
 26 23  1  0  0  0  0
 26 25  1  1  0  0  0
 27 23  2  0  0  0  0
 28 23  1  0  0  0  0
M  END
>  <MODEL>
8

>  <REMARK>
 VINA RESULT:      -7.3      2.675      5.886
  Name = 
  1 active torsions:
  status: ('A' for Active; 'I' for Inactive)
    1  A    between atoms: C_1  and  C_2
                            x       y       z     vdW  Elec       q    Type
                         _______ _______ _______ _____ _____    ______ ____

>  <TORSDO>
F 1

$$$$
=
 OpenBabel10262420553D

 28 33  0  0  1  0  0  0  0  0999 V2000
  188.9720  177.9440  141.1260 C   0  0  2  0  0  3  0  0  0  0  0  0
  192.2140  175.3190  137.9500 C   0  0  0  0  0  3  0  0  0  0  0  0
  187.1330  178.6030  136.5090 C   0  0  0  0  0  1  0  0  0  0  0  0
  191.4250  175.9770  135.7520 C   0  0  0  0  0  0  0  0  0  0  0  0
  189.9170  176.3780  137.7500 C   0  0  1  0  0  3  0  0  0  0  0  0
  193.5960  174.9310  136.0020 C   0  0  0  0  0  0  0  0  0  0  0  0
  191.2330  175.9230  137.1480 C   0  0  0  0  0  0  0  0  0  0  0  0
  189.0440  176.6610  135.5630 C   0  0  0  0  0  2  0  0  0  0  0  0
  192.6120  175.4980  135.1900 C   0  0  0  0  0  3  0  0  0  0  0  0
  187.9450  178.1930  138.8200 C   0  0  1  0  0  3  0  0  0  0  0  0
  190.1340  177.0250  139.1140 C   0  0  0  0  0  2  0  0  0  0  0  0
  190.3930  176.5950  134.8570 C   0  0  0  0  0  2  0  0  0  0  0  0
  186.5570  178.6040  140.8270 C   0  0  0  0  0  2  0  0  0  0  0  0
  187.8620  177.6010  137.4030 C   0  0  2  0  0  3  0  0  0  0  0  0
  186.5930  178.3960  139.3680 N   0  0  0  0  0  2  0  0  0  0  0  0
  194.7420  174.4640  135.4520 F   0  0  0  0  0  0  0  0  0  0  0  0
  193.3940  174.8340  137.3810 C   0  0  0  0  0  3  0  0  0  0  0  0
  189.2050  177.3200  136.8620 N   0  0  1  0  0  0  0  0  0  0  0  0
  187.9110  179.0120  141.4130 C   0  0  0  0  0  2  0  0  0  0  0  0
  188.7840  177.3010  139.7450 C   0  0  1  0  0  3  0  0  0  0  0  0
  188.9340  176.8570  142.2060 C   0  0  2  0  0  3  0  0  0  0  0  0
  189.3970  177.2990  143.5960 C   0  0  2  0  0  3  0  0  0  0  0  0
  191.4920  177.3650  142.6570 C   0  0  0  0  0  0  0  0  0  0  0  0
  189.8380  178.6490  143.6320 O   0  0  0  0  0  0  0  0  0  0  0  0
  190.5010  175.1030  143.3380 C   0  0  0  0  0  1  0  0  0  0  0  0
  190.3250  176.4740  142.7190 C   0  0  2  0  0  0  0  0  0  0  0  0
  192.4300  177.2190  141.7970 N   0  0  0  0  0  2  0  0  0  0  0  0
  191.2060  178.6560  143.3000 C   0  0  0  0  0  2  0  0  0  0  0  0
  1 19  1  1  0  0  0
  4  7  1  0  0  0  0
  5 11  1  1  0  0  0
  6 17  2  0  0  0  0
  7  5  1  0  0  0  0
  7  2  2  0  0  0  0
  9  4  2  0  0  0  0
  9  6  1  0  0  0  0
 10 15  1  1  0  0  0
 10 20  1  0  0  0  0
 12  8  1  0  0  0  0
 12  4  1  0  0  0  0
 13 19  1  0  0  0  0
 14  3  1  6  0  0  0
 14 10  1  0  0  0  0
 15 13  1  0  0  0  0
 16  6  1  0  0  0  0
 17  2  1  0  0  0  0
 18  8  1  6  0  0  0
 18 14  1  0  0  0  0
 18  5  1  0  0  0  0
 20 11  1  6  0  0  0
 20  1  1  0  0  0  0
 21  1  1  6  0  0  0
 21 26  1  0  0  0  0
 21 22  1  0  0  0  0
 22 24  1  6  0  0  0
 23 26  1  0  0  0  0
 23 28  1  0  0  0  0
 26 25  1  1  0  0  0
 26 22  1  0  0  0  0
 27 23  2  0  0  0  0
 28 24  1  0  0  0  0
M  END
>  <MODEL>
9

>  <REMARK>
 VINA RESULT:      -7.0      4.075      8.232
  Name = 
  1 active torsions:
  status: ('A' for Active; 'I' for Inactive)
    1  A    between atoms: C_1  and  C_2
                            x       y       z     vdW  Elec       q    Type
                         _______ _______ _______ _____ _____    ______ ____

>  <TORSDO>
F 1

$$$$
