=
 OpenBabel10262421483D

 30 33  0  0  1  0  0  0  0  0999 V2000
  188.2760  177.7120  136.4570 C   0  0  1  0  0  0  0  0  0  0  0  0
  189.8780  175.8200  137.0230 C   0  0  0  0  0  0  0  0  0  0  0  0
  188.5520  178.7430  137.5590 C   0  0  2  0  0  3  0  0  0  0  0  0
  190.6300  176.8790  140.1890 C   0  0  0  0  0  3  0  0  0  0  0  0
  192.8380  173.6540  137.6110 C   0  0  0  0  0  1  0  0  0  0  0  0
  190.1710  177.3190  138.9340 C   0  0  0  0  0  0  0  0  0  0  0  0
  188.4770  178.6380  140.0680 C   0  0  0  0  0  3  0  0  0  0  0  0
  189.0430  178.1700  138.8740 C   0  0  0  0  0  0  0  0  0  0  0  0
  190.8040  176.8260  137.6500 C   0  0  1  0  0  3  0  0  0  0  0  0
  191.8330  174.7530  137.5160 C   0  0  0  0  0  0  0  0  0  0  0  0
  190.0270  177.3210  141.3670 C   0  0  0  0  0  3  0  0  0  0  0  0
  188.6420  178.2580  135.0870 C   0  0  0  0  0  1  0  0  0  0  0  0
  188.9550  178.2090  141.3050 C   0  0  0  0  0  3  0  0  0  0  0  0
  188.4290  176.1820  136.6970 C   0  0  2  0  0  3  0  0  0  0  0  0
  190.4700  174.6150  137.0210 C   0  0  0  0  0  0  0  0  0  0  0  0
  193.3420  176.5600  138.3510 C   0  0  0  0  0  1  0  0  0  0  0  0
  187.0990  178.4370  137.1160 C   0  0  2  0  0  3  0  0  0  0  0  0
  192.0450  176.0130  137.8540 C   0  0  0  0  0  0  0  0  0  0  0  0
  188.7020  175.0140  134.6000 F   0  0  0  0  0  0  0  0  0  0  0  0
  186.7690  176.0970  134.9390 F   0  0  0  0  0  0  0  0  0  0  0  0
  187.1800  174.2150  136.0850 O   0  0  0  0  0  1  0  0  0  0  0  0
  187.7680  175.3640  135.5590 C   0  0  0  0  0  0  0  0  0  0  0  0
  190.4970  172.7710  135.3740 C   0  0  0  0  0  1  0  0  0  0  0  0
  189.8630  173.3040  136.6450 C   0  0  0  0  0  2  0  0  0  0  0  0
  185.6680  176.5390  137.6050 O   0  0  0  0  0  1  0  0  0  0  0  0
  186.2700  177.6660  138.1670 C   0  0  2  0  0  3  0  0  0  0  0  0
  185.1800  178.5490  138.7890 C   0  0  1  0  0  3  0  0  0  0  0  0
  183.7880  178.1400  138.3390 C   0  0  0  0  0  1  0  0  0  0  0  0
  185.2590  178.5730  140.2860 C   0  0  0  0  0  3  0  0  0  0  0  0
  185.2060  179.6320  140.8910 O   0  0  0  0  0  0  0  0  0  0  0  0
  1 12  1  6  0  0  0
  1 14  1  0  0  0  0
  1 17  1  0  0  0  0
  1  3  1  0  0  0  0
  3  8  1  1  0  0  0
  4 11  1  0  0  0  0
  6  4  2  0  0  0  0
  7 13  1  0  0  0  0
  8  6  1  0  0  0  0
  8  7  2  0  0  0  0
  9  2  1  1  0  0  0
  9 18  1  0  0  0  0
  9  6  1  0  0  0  0
 10  5  1  0  0  0  0
 10 18  2  0  0  0  0
 13 11  2  0  0  0  0
 14 22  1  6  0  0  0
 14  2  1  0  0  0  0
 15  2  2  0  0  0  0
 15 10  1  0  0  0  0
 17  3  1  0  0  0  0
 17 26  1  1  0  0  0
 18 16  1  0  0  0  0
 19 22  1  0  0  0  0
 20 22  1  0  0  0  0
 22 21  1  0  0  0  0
 23 24  1  0  0  0  0
 24 15  1  0  0  0  0
 26 25  1  6  0  0  0
 26 27  1  0  0  0  0
 27 28  1  1  0  0  0
 27 29  1  0  0  0  0
 29 30  2  0  0  0  0
M  END
>  <MODEL>
1

>  <REMARK>
 VINA RESULT:      -5.6      0.000      0.000
  Name = 
  5 active torsions:
  status: ('A' for Active; 'I' for Inactive)
    1  A    between atoms: C_2  and  C_14
    2  A    between atoms: C_2  and  C_22
    3  A    between atoms: C_11  and  C_25
    4  A    between atoms: C_22  and  C_29
    5  A    between atoms: C_23  and  C_26
                            x       y       z     vdW  Elec       q    Type
                         _______ _______ _______ _____ _____    ______ ____

>  <TORSDO>
F 5

$$$$
=
 OpenBabel10262421483D

 30 33  0  0  1  0  0  0  0  0999 V2000
  181.9070  178.9470  138.2810 C   0  0  1  0  0  0  0  0  0  0  0  0
  182.4200  178.6310  140.7520 C   0  0  0  0  0  0  0  0  0  0  0  0
  180.4710  178.4230  138.1540 C   0  0  2  0  0  3  0  0  0  0  0  0
  179.7790  176.5650  141.4380 C   0  0  0  0  0  3  0  0  0  0  0  0
  182.5590  178.8150  144.4600 C   0  0  0  0  0  1  0  0  0  0  0  0
  180.2310  177.5570  140.5480 C   0  0  0  0  0  0  0  0  0  0  0  0
  179.3900  176.2220  138.7030 C   0  0  0  0  0  3  0  0  0  0  0  0
  180.0800  177.3550  139.1570 C   0  0  0  0  0  0  0  0  0  0  0  0
  180.9550  178.7900  141.0500 C   0  0  1  0  0  3  0  0  0  0  0  0
  182.1820  178.7670  143.0160 C   0  0  0  0  0  0  0  0  0  0  0  0
  179.1330  175.4230  140.9660 C   0  0  0  0  0  3  0  0  0  0  0  0
  181.9840  180.4300  137.9610 C   0  0  0  0  0  1  0  0  0  0  0  0
  178.9310  175.2560  139.5970 C   0  0  0  0  0  3  0  0  0  0  0  0
  182.9090  178.3740  139.3260 C   0  0  2  0  0  3  0  0  0  0  0  0
  183.1000  178.5500  141.9070 C   0  0  0  0  0  0  0  0  0  0  0  0
  179.7520  179.2330  143.3660 C   0  0  0  0  0  1  0  0  0  0  0  0
  181.5330  178.0740  137.0800 C   0  0  2  0  0  3  0  0  0  0  0  0
  180.9590  178.9310  142.5410 C   0  0  0  0  0  0  0  0  0  0  0  0
  184.6180  178.7490  137.6610 F   0  0  0  0  0  0  0  0  0  0  0  0
  185.2760  178.0140  139.6740 F   0  0  0  0  0  0  0  0  0  0  0  0
  184.5550  180.1270  139.4660 O   0  0  0  0  0  1  0  0  0  0  0  0
  184.3600  178.8210  139.0190 C   0  0  0  0  0  0  0  0  0  0  0  0
  185.2720  179.4010  142.7260 C   0  0  0  0  0  1  0  0  0  0  0  0
  184.5470  178.2300  142.0890 C   0  0  0  0  0  2  0  0  0  0  0  0
  183.3350  176.4750  136.7880 O   0  0  0  0  0  1  0  0  0  0  0  0
  181.9780  176.5940  137.0920 C   0  0  2  0  0  3  0  0  0  0  0  0
  181.1730  175.7510  136.0940 C   0  0  1  0  0  3  0  0  0  0  0  0
  181.3330  176.2490  134.6670 C   0  0  0  0  0  1  0  0  0  0  0  0
  181.5160  174.2940  136.1800 C   0  0  0  0  0  3  0  0  0  0  0  0
  181.4740  173.7120  137.2520 O   0  0  0  0  0  0  0  0  0  0  0  0
  1 12  1  6  0  0  0
  1 14  1  0  0  0  0
  2  9  1  0  0  0  0
  2 15  2  0  0  0  0
  3  1  1  0  0  0  0
  3  8  1  1  0  0  0
  6  4  2  0  0  0  0
  7  8  2  0  0  0  0
  7 13  1  0  0  0  0
  8  6  1  0  0  0  0
  9  6  1  1  0  0  0
  9 18  1  0  0  0  0
 10  5  1  0  0  0  0
 11  4  1  0  0  0  0
 13 11  2  0  0  0  0
 14 22  1  1  0  0  0
 14  2  1  0  0  0  0
 15 24  1  0  0  0  0
 15 10  1  0  0  0  0
 17 26  1  1  0  0  0
 17  3  1  0  0  0  0
 17  1  1  0  0  0  0
 18 10  2  0  0  0  0
 18 16  1  0  0  0  0
 19 22  1  0  0  0  0
 22 21  1  0  0  0  0
 22 20  1  0  0  0  0
 24 23  1  0  0  0  0
 26 25  1  6  0  0  0
 27 28  1  6  0  0  0
 27 29  1  0  0  0  0
 27 26  1  0  0  0  0
 29 30  2  0  0  0  0
M  END
>  <MODEL>
2

>  <REMARK>
 VINA RESULT:      -5.5      5.900      8.941
  Name = 
  5 active torsions:
  status: ('A' for Active; 'I' for Inactive)
    1  A    between atoms: C_2  and  C_14
    2  A    between atoms: C_2  and  C_22
    3  A    between atoms: C_11  and  C_25
    4  A    between atoms: C_22  and  C_29
    5  A    between atoms: C_23  and  C_26
                            x       y       z     vdW  Elec       q    Type
                         _______ _______ _______ _____ _____    ______ ____

>  <TORSDO>
F 5

$$$$
=
 OpenBabel10262421483D

 30 33  0  0  1  0  0  0  0  0999 V2000
  183.2920  177.3820  137.2430 C   0  0  1  0  0  0  0  0  0  0  0  0
  185.6580  176.4510  137.2760 C   0  0  0  0  0  0  0  0  0  0  0  0
  183.4020  178.6450  138.1050 C   0  0  2  0  0  3  0  0  0  0  0  0
  186.7940  178.3680  139.8750 C   0  0  0  0  0  3  0  0  0  0  0  0
  189.2940  175.8230  136.8410 C   0  0  0  0  0  1  0  0  0  0  0  0
  185.8230  178.3110  138.8580 C   0  0  0  0  0  0  0  0  0  0  0  0
  184.1620  179.0530  140.4650 C   0  0  0  0  0  3  0  0  0  0  0  0
  184.4780  178.6080  139.1740 C   0  0  0  0  0  0  0  0  0  0  0  0
  186.1780  177.8510  137.4590 C   0  0  1  0  0  3  0  0  0  0  0  0
  187.9280  176.3830  137.0660 C   0  0  0  0  0  0  0  0  0  0  0  0
  186.4550  178.7710  141.1650 C   0  0  0  0  0  3  0  0  0  0  0  0
  182.9300  177.7230  135.8070 C   0  0  0  0  0  1  0  0  0  0  0  0
  185.1380  179.1230  141.4580 C   0  0  0  0  0  3  0  0  0  0  0  0
  184.1800  176.1280  137.4920 C   0  0  2  0  0  3  0  0  0  0  0  0
  186.6940  175.6120  137.1200 C   0  0  0  0  0  0  0  0  0  0  0  0
  188.6430  178.7740  137.1810 C   0  0  0  0  0  1  0  0  0  0  0  0
  182.1830  177.6980  138.2510 C   0  0  2  0  0  3  0  0  0  0  0  0
  187.6470  177.6640  137.2320 C   0  0  0  0  0  0  0  0  0  0  0  0
  184.2150  174.8040  135.4710 F   0  0  0  0  0  0  0  0  0  0  0  0
  182.2660  174.9730  136.5660 F   0  0  0  0  0  0  0  0  0  0  0  0
  183.9110  173.7340  137.4520 O   0  0  0  0  0  1  0  0  0  0  0  0
  183.6400  174.8930  136.7270 C   0  0  0  0  0  0  0  0  0  0  0  0
  187.0430  173.6280  135.6870 C   0  0  0  0  0  1  0  0  0  0  0  0
  186.6560  174.1200  137.0690 C   0  0  0  0  0  2  0  0  0  0  0  0
  181.9560  175.5420  139.3400 O   0  0  0  0  0  1  0  0  0  0  0  0
  182.1590  176.9020  139.5750 C   0  0  2  0  0  3  0  0  0  0  0  0
  181.0610  177.4090  140.5210 C   0  0  1  0  0  3  0  0  0  0  0  0
  180.5540  178.7840  140.1210 C   0  0  0  0  0  1  0  0  0  0  0  0
  179.9200  176.4420  140.6290 C   0  0  0  0  0  3  0  0  0  0  0  0
  179.1250  176.5250  141.5520 O   0  0  0  0  0  0  0  0  0  0  0  0
  1 12  1  6  0  0  0
  1 14  1  0  0  0  0
  1  3  1  0  0  0  0
  1 17  1  0  0  0  0
  2  9  1  0  0  0  0
  2 14  1  0  0  0  0
  3 17  1  0  0  0  0
  3  8  1  1  0  0  0
  4 11  1  0  0  0  0
  5 10  1  0  0  0  0
  6  8  1  0  0  0  0
  6  4  2  0  0  0  0
  7 13  1  0  0  0  0
  8  7  2  0  0  0  0
  9 18  1  1  0  0  0
  9  6  1  0  0  0  0
 10 15  1  0  0  0  0
 10 18  2  0  0  0  0
 11 13  2  0  0  0  0
 14 22  1  6  0  0  0
 15  2  2  0  0  0  0
 16 18  1  0  0  0  0
 17 26  1  1  0  0  0
 19 22  1  0  0  0  0
 20 22  1  0  0  0  0
 22 21  1  0  0  0  0
 23 24  1  0  0  0  0
 24 15  1  0  0  0  0
 26 25  1  6  0  0  0
 26 27  1  0  0  0  0
 27 28  1  6  0  0  0
 27 29  1  0  0  0  0
 29 30  2  0  0  0  0
M  END
>  <MODEL>
3

>  <REMARK>
 VINA RESULT:      -5.5      2.738      4.597
  Name = 
  5 active torsions:
  status: ('A' for Active; 'I' for Inactive)
    1  A    between atoms: C_2  and  C_14
    2  A    between atoms: C_2  and  C_22
    3  A    between atoms: C_11  and  C_25
    4  A    between atoms: C_22  and  C_29
    5  A    between atoms: C_23  and  C_26
                            x       y       z     vdW  Elec       q    Type
                         _______ _______ _______ _____ _____    ______ ____

>  <TORSDO>
F 5

$$$$
=
 OpenBabel10262421483D

 30 33  0  0  1  0  0  0  0  0999 V2000
  187.9820  176.7250  135.8010 C   0  0  1  0  0  0  0  0  0  0  0  0
  185.8650  177.3460  137.0650 C   0  0  0  0  0  0  0  0  0  0  0  0
  187.7210  175.2740  135.3760 C   0  0  2  0  0  3  0  0  0  0  0  0
  184.6710  174.1570  137.4160 C   0  0  0  0  0  3  0  0  0  0  0  0
  182.4000  178.1940  138.1030 C   0  0  0  0  0  1  0  0  0  0  0  0
  185.5140  174.9640  136.6290 C   0  0  0  0  0  0  0  0  0  0  0  0
  187.1650  173.1840  136.6540 C   0  0  0  0  0  3  0  0  0  0  0  0
  186.8010  174.4870  136.2890 C   0  0  0  0  0  0  0  0  0  0  0  0
  185.1030  176.3630  136.2200 C   0  0  1  0  0  3  0  0  0  0  0  0
  183.6450  177.6290  137.5020 C   0  0  0  0  0  0  0  0  0  0  0  0
  185.0660  172.8790  137.8070 C   0  0  0  0  0  3  0  0  0  0  0  0
  188.1060  177.6390  134.5940 C   0  0  0  0  0  1  0  0  0  0  0  0
  186.3110  172.3880  137.4170 C   0  0  0  0  0  3  0  0  0  0  0  0
  187.3930  177.3230  137.1120 C   0  0  2  0  0  3  0  0  0  0  0  0
  185.0050  178.0160  137.8480 C   0  0  0  0  0  0  0  0  0  0  0  0
  182.4890  176.1010  135.8990 C   0  0  0  0  0  1  0  0  0  0  0  0
  189.1120  175.6970  135.9150 C   0  0  2  0  0  3  0  0  0  0  0  0
  183.6840  176.7060  136.5570 C   0  0  0  0  0  0  0  0  0  0  0  0
  187.3880  179.7320  136.9280 F   0  0  0  0  0  0  0  0  0  0  0  0
  189.3780  178.7030  136.9980 F   0  0  0  0  0  0  0  0  0  0  0  0
  188.1350  178.8030  138.8620 O   0  0  0  0  0  1  0  0  0  0  0  0
  188.0780  178.6650  137.4750 C   0  0  0  0  0  0  0  0  0  0  0  0
  184.9420  178.3760  140.2940 C   0  0  0  0  0  1  0  0  0  0  0  0
  185.3320  178.9670  138.9520 C   0  0  0  0  0  2  0  0  0  0  0  0
  189.8120  176.1560  138.1930 O   0  0  0  0  0  1  0  0  0  0  0  0
  189.4410  175.1350  137.3160 C   0  0  2  0  0  3  0  0  0  0  0  0
  190.5710  174.0980  137.2600 C   0  0  1  0  0  3  0  0  0  0  0  0
  190.6600  173.4250  135.9010 C   0  0  0  0  0  1  0  0  0  0  0  0
  191.8970  174.6860  137.6410 C   0  0  0  0  0  3  0  0  0  0  0  0
  192.9190  174.0280  137.5330 O   0  0  0  0  0  0  0  0  0  0  0  0
  1 12  1  6  0  0  0
  1 17  1  0  0  0  0
  1 14  1  0  0  0  0
  2 14  1  0  0  0  0
  2 15  2  0  0  0  0
  3  1  1  0  0  0  0
  3 17  1  0  0  0  0
  3  8  1  1  0  0  0
  4 11  1  0  0  0  0
  6  4  2  0  0  0  0
  7 13  1  0  0  0  0
  8  6  1  0  0  0  0
  8  7  2  0  0  0  0
  9 18  1  1  0  0  0
  9  6  1  0  0  0  0
  9  2  1  0  0  0  0
 10 15  1  0  0  0  0
 10  5  1  0  0  0  0
 13 11  2  0  0  0  0
 14 22  1  6  0  0  0
 15 24  1  0  0  0  0
 16 18  1  0  0  0  0
 17 26  1  1  0  0  0
 18 10  2  0  0  0  0
 19 22  1  0  0  0  0
 20 22  1  0  0  0  0
 22 21  1  0  0  0  0
 24 23  1  0  0  0  0
 26 25  1  1  0  0  0
 27 28  1  6  0  0  0
 27 26  1  0  0  0  0
 27 29  1  0  0  0  0
 30 29  2  0  0  0  0
M  END
>  <MODEL>
4

>  <REMARK>
 VINA RESULT:      -5.4      2.564      6.739
  Name = 
  5 active torsions:
  status: ('A' for Active; 'I' for Inactive)
    1  A    between atoms: C_2  and  C_14
    2  A    between atoms: C_2  and  C_22
    3  A    between atoms: C_11  and  C_25
    4  A    between atoms: C_22  and  C_29
    5  A    between atoms: C_23  and  C_26
                            x       y       z     vdW  Elec       q    Type
                         _______ _______ _______ _____ _____    ______ ____

>  <TORSDO>
F 5

$$$$
=
 OpenBabel10262421483D

 30 33  0  0  1  0  0  0  0  0999 V2000
  187.3430  177.9070  137.0650 C   0  0  1  0  0  0  0  0  0  0  0  0
  186.4010  178.2750  139.3980 C   0  0  0  0  0  0  0  0  0  0  0  0
  186.1380  177.3700  136.2840 C   0  0  2  0  0  3  0  0  0  0  0  0
  183.5240  176.4770  138.9460 C   0  0  0  0  0  3  0  0  0  0  0  0
  184.5620  179.4620  142.4000 C   0  0  0  0  0  1  0  0  0  0  0  0
  184.5270  177.1890  138.2620 C   0  0  0  0  0  0  0  0  0  0  0  0
  184.6110  175.4030  136.6190 C   0  0  0  0  0  3  0  0  0  0  0  0
  185.1140  176.6160  137.1100 C   0  0  0  0  0  0  0  0  0  0  0  0
  185.0480  178.5110  138.7860 C   0  0  1  0  0  3  0  0  0  0  0  0
  185.0130  179.0230  141.0470 C   0  0  0  0  0  0  0  0  0  0  0  0
  183.0660  175.2500  138.4680 C   0  0  0  0  0  3  0  0  0  0  0  0
  187.8040  179.2460  136.5170 C   0  0  0  0  0  1  0  0  0  0  0  0
  183.6040  174.7170  137.2980 C   0  0  0  0  0  3  0  0  0  0  0  0
  187.5300  177.6390  138.5880 C   0  0  2  0  0  3  0  0  0  0  0  0
  186.3370  178.5120  140.7180 C   0  0  0  0  0  0  0  0  0  0  0  0
  182.8780  179.5700  139.8710 C   0  0  0  0  0  1  0  0  0  0  0  0
  187.5420  176.7400  136.0940 C   0  0  2  0  0  3  0  0  0  0  0  0
  184.2760  179.0530  139.9500 C   0  0  0  0  0  0  0  0  0  0  0  0
  189.0370  179.2850  139.5140 F   0  0  0  0  0  0  0  0  0  0  0  0
  189.8680  177.8560  138.0010 F   0  0  0  0  0  0  0  0  0  0  0  0
  189.3660  177.1020  140.0520 O   0  0  0  0  0  1  0  0  0  0  0  0
  188.9700  177.9840  139.0480 C   0  0  0  0  0  0  0  0  0  0  0  0
  186.8150  177.4900  142.9190 C   0  0  0  0  0  1  0  0  0  0  0  0
  187.3930  178.2520  141.7410 C   0  0  0  0  0  2  0  0  0  0  0  0
  188.9270  175.1450  137.2880 O   0  0  0  0  0  1  0  0  0  0  0  0
  187.6800  175.3190  136.6850 C   0  0  2  0  0  3  0  0  0  0  0  0
  187.4960  174.2380  135.6120 C   0  0  1  0  0  3  0  0  0  0  0  0
  188.6230  174.2470  134.5940 C   0  0  0  0  0  1  0  0  0  0  0  0
  187.3420  172.8710  136.2090 C   0  0  0  0  0  3  0  0  0  0  0  0
  186.6820  172.7100  137.2240 O   0  0  0  0  0  0  0  0  0  0  0  0
  1 12  1  6  0  0  0
  1 14  1  0  0  0  0
  2 15  2  0  0  0  0
  3  1  1  0  0  0  0
  3  8  1  1  0  0  0
  6  4  2  0  0  0  0
  7  8  2  0  0  0  0
  7 13  1  0  0  0  0
  8  6  1  0  0  0  0
  9  6  1  1  0  0  0
  9  2  1  0  0  0  0
  9 18  1  0  0  0  0
 10  5  1  0  0  0  0
 11  4  1  0  0  0  0
 13 11  2  0  0  0  0
 14 22  1  1  0  0  0
 14  2  1  0  0  0  0
 15 10  1  0  0  0  0
 15 24  1  0  0  0  0
 16 18  1  0  0  0  0
 17  3  1  0  0  0  0
 17 26  1  1  0  0  0
 17  1  1  0  0  0  0
 18 10  2  0  0  0  0
 20 22  1  0  0  0  0
 22 19  1  0  0  0  0
 22 21  1  0  0  0  0
 24 23  1  0  0  0  0
 26 25  1  6  0  0  0
 27 28  1  6  0  0  0
 27 29  1  0  0  0  0
 27 26  1  0  0  0  0
 29 30  2  0  0  0  0
M  END
>  <MODEL>
5

>  <REMARK>
 VINA RESULT:      -5.3      2.778      6.530
  Name = 
  5 active torsions:
  status: ('A' for Active; 'I' for Inactive)
    1  A    between atoms: C_2  and  C_14
    2  A    between atoms: C_2  and  C_22
    3  A    between atoms: C_11  and  C_25
    4  A    between atoms: C_22  and  C_29
    5  A    between atoms: C_23  and  C_26
                            x       y       z     vdW  Elec       q    Type
                         _______ _______ _______ _____ _____    ______ ____

>  <TORSDO>
F 5

$$$$
=
 OpenBabel10262421483D

 30 33  0  0  1  0  0  0  0  0999 V2000
  182.4760  178.7120  138.3490 C   0  0  1  0  0  0  0  0  0  0  0  0
  184.2720  177.1680  137.4250 C   0  0  0  0  0  0  0  0  0  0  0  0
  183.2720  179.6900  139.2210 C   0  0  2  0  0  3  0  0  0  0  0  0
  186.7510  178.1150  139.5860 C   0  0  0  0  0  3  0  0  0  0  0  0
  187.1450  175.6450  135.6280 C   0  0  0  0  0  1  0  0  0  0  0  0
  185.5470  178.5420  138.9970 C   0  0  0  0  0  0  0  0  0  0  0  0
  184.8360  179.3780  141.1630 C   0  0  0  0  0  3  0  0  0  0  0  0
  184.5550  179.1350  139.8120 C   0  0  0  0  0  0  0  0  0  0  0  0
  185.2600  178.2970  137.5300 C   0  0  1  0  0  3  0  0  0  0  0  0
  186.1940  176.5080  136.3890 C   0  0  0  0  0  0  0  0  0  0  0  0
  186.9970  178.3260  140.9420 C   0  0  0  0  0  3  0  0  0  0  0  0
  181.8120  179.4270  137.1840 C   0  0  0  0  0  1  0  0  0  0  0  0
  186.0420  178.9660  141.7300 C   0  0  0  0  0  3  0  0  0  0  0  0
  182.9220  177.2360  138.1390 C   0  0  2  0  0  3  0  0  0  0  0  0
  184.8590  176.1210  136.8230 C   0  0  0  0  0  0  0  0  0  0  0  0
  187.6660  178.5260  136.4510 C   0  0  0  0  0  1  0  0  0  0  0  0
  181.9210  179.1150  139.7180 C   0  0  2  0  0  3  0  0  0  0  0  0
  186.4270  177.7550  136.7630 C   0  0  0  0  0  0  0  0  0  0  0  0
  181.9090  176.3340  136.1400 F   0  0  0  0  0  0  0  0  0  0  0  0
  180.5440  176.9250  137.8160 F   0  0  0  0  0  0  0  0  0  0  0  0
  181.8200  175.0960  138.0430 O   0  0  0  0  0  1  0  0  0  0  0  0
  181.7850  176.3870  137.5170 C   0  0  0  0  0  0  0  0  0  0  0  0
  185.0040  173.7760  137.5930 C   0  0  0  0  0  1  0  0  0  0  0  0
  184.3090  174.7440  136.6540 C   0  0  0  0  0  2  0  0  0  0  0  0
  181.5090  176.8680  140.5370 O   0  0  0  0  0  1  0  0  0  0  0  0
  182.0550  178.1060  140.8800 C   0  0  2  0  0  3  0  0  0  0  0  0
  181.3660  178.6130  142.1540 C   0  0  1  0  0  3  0  0  0  0  0  0
  182.3680  179.0030  143.2280 C   0  0  0  0  0  1  0  0  0  0  0  0
  180.4300  179.7510  141.8750 C   0  0  0  0  0  3  0  0  0  0  0  0
  180.1280  180.5340  142.7610 O   0  0  0  0  0  0  0  0  0  0  0  0
  1 12  1  6  0  0  0
  1  3  1  0  0  0  0
  1 17  1  0  0  0  0
  2  9  1  0  0  0  0
  2 14  1  0  0  0  0
  3 17  1  0  0  0  0
  3  8  1  1  0  0  0
  4 11  1  0  0  0  0
  5 10  1  0  0  0  0
  6  4  2  0  0  0  0
  6  8  1  0  0  0  0
  7 13  1  0  0  0  0
  8  7  2  0  0  0  0
  9 18  1  6  0  0  0
  9  6  1  0  0  0  0
 10 18  2  0  0  0  0
 10 15  1  0  0  0  0
 11 13  2  0  0  0  0
 14 22  1  6  0  0  0
 14  1  1  0  0  0  0
 15  2  2  0  0  0  0
 16 18  1  0  0  0  0
 17 26  1  1  0  0  0
 19 22  1  0  0  0  0
 22 20  1  0  0  0  0
 22 21  1  0  0  0  0
 24 15  1  0  0  0  0
 24 23  1  0  0  0  0
 26 25  1  6  0  0  0
 26 27  1  0  0  0  0
 27 28  1  1  0  0  0
 29 27  1  0  0  0  0
 29 30  2  0  0  0  0
M  END
>  <MODEL>
6

>  <REMARK>
 VINA RESULT:      -5.2      3.737      5.599
  Name = 
  5 active torsions:
  status: ('A' for Active; 'I' for Inactive)
    1  A    between atoms: C_2  and  C_14
    2  A    between atoms: C_2  and  C_22
    3  A    between atoms: C_11  and  C_25
    4  A    between atoms: C_22  and  C_29
    5  A    between atoms: C_23  and  C_26
                            x       y       z     vdW  Elec       q    Type
                         _______ _______ _______ _____ _____    ______ ____

>  <TORSDO>
F 5

$$$$
=
 OpenBabel10262421483D

 30 33  0  0  1  0  0  0  0  0999 V2000
  183.3480  177.1280  135.9470 C   0  0  1  0  0  0  0  0  0  0  0  0
  181.6860  175.5410  137.0360 C   0  0  0  0  0  0  0  0  0  0  0  0
  184.4610  176.1900  135.4650 C   0  0  2  0  0  3  0  0  0  0  0  0
  183.7790  172.8380  137.2010 C   0  0  0  0  0  3  0  0  0  0  0  0
  179.1340  172.9470  137.7850 C   0  0  0  0  0  1  0  0  0  0  0  0
  183.5470  174.0420  136.5110 C   0  0  0  0  0  0  0  0  0  0  0  0
  185.9250  174.5180  136.6370 C   0  0  0  0  0  3  0  0  0  0  0  0
  184.6320  174.9180  136.2740 C   0  0  0  0  0  0  0  0  0  0  0  0
  182.1490  174.4570  136.1020 C   0  0  1  0  0  3  0  0  0  0  0  0
  180.2790  173.7630  137.2820 C   0  0  0  0  0  0  0  0  0  0  0  0
  185.0660  172.4750  137.5930 C   0  0  0  0  0  3  0  0  0  0  0  0
  182.6610  177.8150  134.7780 C   0  0  0  0  0  1  0  0  0  0  0  0
  186.1420  173.3120  137.3030 C   0  0  0  0  0  3  0  0  0  0  0  0
  182.4980  176.8230  137.2150 C   0  0  2  0  0  3  0  0  0  0  0  0
  180.6460  175.0900  137.7560 C   0  0  0  0  0  0  0  0  0  0  0  0
  181.0220  172.1270  135.5470 C   0  0  0  0  0  1  0  0  0  0  0  0
  184.8090  177.5440  136.1350 C   0  0  2  0  0  3  0  0  0  0  0  0
  181.1100  173.4000  136.3220 C   0  0  0  0  0  0  0  0  0  0  0  0
  180.4060  178.0320  137.1790 F   0  0  0  0  0  0  0  0  0  0  0  0
  182.2970  179.2350  137.2170 F   0  0  0  0  0  0  0  0  0  0  0  0
  181.6720  178.1290  139.0640 O   0  0  0  0  0  1  0  0  0  0  0  0
  181.6990  178.0710  137.6710 C   0  0  0  0  0  0  0  0  0  0  0  0
  180.4310  175.1500  140.2190 C   0  0  0  0  0  1  0  0  0  0  0  0
  179.9770  175.7650  138.9070 C   0  0  0  0  0  2  0  0  0  0  0  0
  184.9410  178.3970  138.4030 O   0  0  0  0  0  1  0  0  0  0  0  0
  185.4260  177.4080  137.5450 C   0  0  2  0  0  3  0  0  0  0  0  0
  186.9570  177.4970  137.5050 C   0  0  1  0  0  3  0  0  0  0  0  0
  187.4540  178.2450  136.2800 C   0  0  0  0  0  1  0  0  0  0  0  0
  187.5200  178.1080  138.7540 C   0  0  0  0  0  3  0  0  0  0  0  0
  188.4410  178.9070  138.6910 O   0  0  0  0  0  0  0  0  0  0  0  0
  1 12  1  6  0  0  0
  1 17  1  0  0  0  0
  1 14  1  0  0  0  0
  2 14  1  0  0  0  0
  2 15  2  0  0  0  0
  3  1  1  0  0  0  0
  3 17  1  0  0  0  0
  3  8  1  1  0  0  0
  4 11  1  0  0  0  0
  6  4  2  0  0  0  0
  7 13  1  0  0  0  0
  8  6  1  0  0  0  0
  8  7  2  0  0  0  0
  9 18  1  1  0  0  0
  9  6  1  0  0  0  0
  9  2  1  0  0  0  0
 10 15  1  0  0  0  0
 10  5  1  0  0  0  0
 13 11  2  0  0  0  0
 14 22  1  6  0  0  0
 15 24  1  0  0  0  0
 16 18  1  0  0  0  0
 17 26  1  1  0  0  0
 18 10  2  0  0  0  0
 19 22  1  0  0  0  0
 20 22  1  0  0  0  0
 22 21  1  0  0  0  0
 24 23  1  0  0  0  0
 26 25  1  1  0  0  0
 27 28  1  6  0  0  0
 27 26  1  0  0  0  0
 27 29  1  0  0  0  0
 30 29  2  0  0  0  0
M  END
>  <MODEL>
7

>  <REMARK>
 VINA RESULT:      -5.0      4.204      7.831
  Name = 
  5 active torsions:
  status: ('A' for Active; 'I' for Inactive)
    1  A    between atoms: C_2  and  C_14
    2  A    between atoms: C_2  and  C_22
    3  A    between atoms: C_11  and  C_25
    4  A    between atoms: C_22  and  C_29
    5  A    between atoms: C_23  and  C_26
                            x       y       z     vdW  Elec       q    Type
                         _______ _______ _______ _____ _____    ______ ____

>  <TORSDO>
F 5

$$$$
=
 OpenBabel10262421483D

 30 33  0  0  1  0  0  0  0  0999 V2000
  181.6970  178.8270  139.5480 C   0  0  1  0  0  0  0  0  0  0  0  0
  182.9760  177.1860  138.0860 C   0  0  0  0  0  0  0  0  0  0  0  0
  180.3350  178.9260  138.8510 C   0  0  2  0  0  3  0  0  0  0  0  0
  180.8350  177.2910  135.4170 C   0  0  0  0  0  3  0  0  0  0  0  0
  184.2500  174.2040  136.2730 C   0  0  0  0  0  1  0  0  0  0  0  0
  180.9160  177.5040  136.8060 C   0  0  0  0  0  0  0  0  0  0  0  0
  179.6400  179.5500  136.5190 C   0  0  0  0  0  3  0  0  0  0  0  0
  180.3530  178.6800  137.3540 C   0  0  0  0  0  0  0  0  0  0  0  0
  181.6690  176.5470  137.7050 C   0  0  1  0  0  3  0  0  0  0  0  0
  183.4460  175.2820  136.9210 C   0  0  0  0  0  0  0  0  0  0  0  0
  180.1580  178.1890  134.5940 C   0  0  0  0  0  3  0  0  0  0  0  0
  181.5640  178.2290  140.9380 C   0  0  0  0  0  1  0  0  0  0  0  0
  179.5520  179.3160  135.1470 C   0  0  0  0  0  3  0  0  0  0  0  0
  183.0130  178.5570  138.7610 C   0  0  2  0  0  3  0  0  0  0  0  0
  183.9860  176.4730  137.5610 C   0  0  0  0  0  0  0  0  0  0  0  0
  181.2200  174.2170  136.5320 C   0  0  0  0  0  1  0  0  0  0  0  0
  181.0310  180.1980  139.3990 C   0  0  2  0  0  3  0  0  0  0  0  0
  182.1280  175.2970  137.0180 C   0  0  0  0  0  0  0  0  0  0  0  0
  184.7210  177.6870  140.2320 F   0  0  0  0  0  0  0  0  0  0  0  0
  183.9640  179.7580  140.6340 F   0  0  0  0  0  0  0  0  0  0  0  0
  185.2680  179.4010  138.8450 O   0  0  0  0  0  1  0  0  0  0  0  0
  184.2610  178.8470  139.6340 C   0  0  0  0  0  0  0  0  0  0  0  0
  185.8400  177.3630  136.1880 C   0  0  0  0  0  1  0  0  0  0  0  0
  185.4370  176.8260  137.5490 C   0  0  0  0  0  2  0  0  0  0  0  0
  182.7310  181.7880  138.7160 O   0  0  0  0  0  1  0  0  0  0  0  0
  181.5630  181.1470  138.3020 C   0  0  2  0  0  3  0  0  0  0  0  0
  180.5250  182.2110  137.9210 C   0  0  1  0  0  3  0  0  0  0  0  0
  179.4680  182.3880  138.9980 C   0  0  0  0  0  1  0  0  0  0  0  0
  181.1610  183.5280  137.5910 C   0  0  0  0  0  3  0  0  0  0  0  0
  181.1810  183.9340  136.4410 O   0  0  0  0  0  0  0  0  0  0  0  0
  1 12  1  1  0  0  0
  2 14  1  0  0  0  0
  3  8  1  6  0  0  0
  3 17  1  0  0  0  0
  3  1  1  0  0  0  0
  4  6  1  0  0  0  0
  5 10  1  0  0  0  0
  6  8  2  0  0  0  0
  7  8  1  0  0  0  0
  9  6  1  6  0  0  0
  9  2  1  0  0  0  0
 10 18  2  0  0  0  0
 10 15  1  0  0  0  0
 11 13  1  0  0  0  0
 11  4  2  0  0  0  0
 13  7  2  0  0  0  0
 14  1  1  0  0  0  0
 14 22  1  1  0  0  0
 15  2  2  0  0  0  0
 16 18  1  0  0  0  0
 17 26  1  6  0  0  0
 17  1  1  0  0  0  0
 18  9  1  0  0  0  0
 21 22  1  0  0  0  0
 22 19  1  0  0  0  0
 22 20  1  0  0  0  0
 23 24  1  0  0  0  0
 24 15  1  0  0  0  0
 26 25  1  1  0  0  0
 27 26  1  0  0  0  0
 27 28  1  1  0  0  0
 29 27  1  0  0  0  0
 30 29  2  0  0  0  0
M  END
>  <MODEL>
8

>  <REMARK>
 VINA RESULT:      -4.6      4.877      8.238
  Name = 
  5 active torsions:
  status: ('A' for Active; 'I' for Inactive)
    1  A    between atoms: C_2  and  C_14
    2  A    between atoms: C_2  and  C_22
    3  A    between atoms: C_11  and  C_25
    4  A    between atoms: C_22  and  C_29
    5  A    between atoms: C_23  and  C_26
                            x       y       z     vdW  Elec       q    Type
                         _______ _______ _______ _____ _____    ______ ____

>  <TORSDO>
F 5

$$$$
=
 OpenBabel10262421483D

 30 33  0  0  1  0  0  0  0  0999 V2000
  188.5680  178.1310  137.7380 C   0  0  1  0  0  0  0  0  0  0  0  0
  186.5550  178.1610  139.2920 C   0  0  0  0  0  0  0  0  0  0  0  0
  187.9930  177.5670  136.4330 C   0  0  2  0  0  3  0  0  0  0  0  0
  184.5520  176.1550  137.3730 C   0  0  0  0  0  3  0  0  0  0  0  0
  183.3310  178.8450  141.0050 C   0  0  0  0  0  1  0  0  0  0  0  0
  185.6550  177.0270  137.3190 C   0  0  0  0  0  0  0  0  0  0  0  0
  186.7820  175.4390  135.8680 C   0  0  0  0  0  3  0  0  0  0  0  0
  186.8070  176.6360  136.5970 C   0  0  0  0  0  0  0  0  0  0  0  0
  185.6650  178.3300  138.0920 C   0  0  1  0  0  3  0  0  0  0  0  0
  184.4470  178.5960  140.0460 C   0  0  0  0  0  0  0  0  0  0  0  0
  184.5610  174.9470  136.6770 C   0  0  0  0  0  3  0  0  0  0  0  0
  189.0550  179.5580  137.5550 C   0  0  0  0  0  1  0  0  0  0  0  0
  185.6740  174.5930  135.9160 C   0  0  0  0  0  3  0  0  0  0  0  0
  188.0110  177.7240  139.1340 C   0  0  2  0  0  3  0  0  0  0  0  0
  185.8140  178.2500  140.4080 C   0  0  0  0  0  0  0  0  0  0  0  0
  183.1220  179.0580  137.9790 C   0  0  0  0  0  1  0  0  0  0  0  0
  189.3770  177.0970  136.9500 C   0  0  2  0  0  3  0  0  0  0  0  0
  184.3530  178.6700  138.7300 C   0  0  0  0  0  0  0  0  0  0  0  0
  188.6050  179.3850  140.7850 F   0  0  0  0  0  0  0  0  0  0  0  0
  190.2750  178.2520  139.8080 F   0  0  0  0  0  0  0  0  0  0  0  0
  188.9590  177.1970  141.2860 O   0  0  0  0  0  1  0  0  0  0  0  0
  188.9730  178.1540  140.2710 C   0  0  0  0  0  0  0  0  0  0  0  0
  185.9090  179.1660  142.7030 C   0  0  0  0  0  1  0  0  0  0  0  0
  186.2500  177.9860  141.8110 C   0  0  0  0  0  2  0  0  0  0  0  0
  190.0020  175.5620  138.7230 O   0  0  0  0  0  1  0  0  0  0  0  0
  189.3950  175.6420  137.4680 C   0  0  2  0  0  3  0  0  0  0  0  0
  190.1330  174.7050  136.5030 C   0  0  1  0  0  3  0  0  0  0  0  0
  189.4340  173.3630  136.3640 C   0  0  0  0  0  1  0  0  0  0  0  0
  190.3380  175.3300  135.1560 C   0  0  0  0  0  3  0  0  0  0  0  0
  191.4640  175.5610  134.7460 O   0  0  0  0  0  0  0  0  0  0  0  0
  1 12  1  6  0  0  0
  1 14  1  0  0  0  0
  2 15  2  0  0  0  0
  3  8  1  1  0  0  0
  3 17  1  0  0  0  0
  3  1  1  0  0  0  0
  6  4  1  0  0  0  0
  7 13  2  0  0  0  0
  7  8  1  0  0  0  0
  8  6  2  0  0  0  0
  9  6  1  1  0  0  0
  9 18  1  0  0  0  0
  9  2  1  0  0  0  0
 10 15  1  0  0  0  0
 10  5  1  0  0  0  0
 11  4  2  0  0  0  0
 13 11  1  0  0  0  0
 14  2  1  0  0  0  0
 14 22  1  1  0  0  0
 15 24  1  0  0  0  0
 16 18  1  0  0  0  0
 17 26  1  1  0  0  0
 17  1  1  0  0  0  0
 18 10  2  0  0  0  0
 20 22  1  0  0  0  0
 22 19  1  0  0  0  0
 22 21  1  0  0  0  0
 24 23  1  0  0  0  0
 26 25  1  1  0  0  0
 27 28  1  6  0  0  0
 27 26  1  0  0  0  0
 29 27  1  0  0  0  0
 30 29  2  0  0  0  0
M  END
>  <MODEL>
9

>  <REMARK>
 VINA RESULT:      -4.6      2.631      6.758
  Name = 
  5 active torsions:
  status: ('A' for Active; 'I' for Inactive)
    1  A    between atoms: C_2  and  C_14
    2  A    between atoms: C_2  and  C_22
    3  A    between atoms: C_11  and  C_25
    4  A    between atoms: C_22  and  C_29
    5  A    between atoms: C_23  and  C_26
                            x       y       z     vdW  Elec       q    Type
                         _______ _______ _______ _____ _____    ______ ____

>  <TORSDO>
F 5

$$$$
