=
 OpenBabel10262422583D

 37 41  0  0  1  0  0  0  0  0999 V2000
  185.1030  178.6290  143.7210 C   0  0  1  0  0  3  0  0  0  0  0  0
  188.9090  178.3730  140.2510 C   0  0  0  0  0  2  0  0  0  0  0  0
  188.2740  177.4170  142.4870 C   0  0  1  0  0  3  0  0  0  0  0  0
  183.7330  177.7460  140.5170 O   0  0  0  0  0  0  0  0  0  0  0  0
  188.8140  177.1010  141.0870 C   0  0  0  0  0  2  0  0  0  0  0  0
  184.1980  178.5650  142.6160 O   0  0  0  0  0  0  0  0  0  0  0  0
  184.5920  177.9970  141.4020 C   0  0  0  0  0  0  0  0  0  0  0  0
  187.7050  178.6200  139.4450 N   0  0  2  0  0  0  0  0  0  0  0  0
  186.7460  177.6830  142.5030 C   0  0  2  0  0  3  0  0  0  0  0  0
  186.5670  178.9560  140.3140 C   0  0  0  0  0  2  0  0  0  0  0  0
  186.0440  177.7690  141.1340 C   0  0  2  0  0  3  0  0  0  0  0  0
  186.4300  178.8150  143.2780 O   0  0  0  0  0  0  0  0  0  0  0  0
  186.5970  177.9870  137.3340 C   0  0  0  0  0  0  0  0  0  0  0  0
  188.6950  176.8640  137.9770 C   0  0  0  0  0  2  0  0  0  0  0  0
  189.4460  177.8120  137.0380 C   0  0  0  0  0  2  0  0  0  0  0  0
  188.3320  177.0870  135.0500 F   0  0  0  0  0  0  0  0  0  0  0  0
  187.2540  178.8300  136.2790 C   0  0  2  0  0  3  0  0  0  0  0  0
  188.5770  178.1990  135.8370 C   0  0  1  0  0  3  0  0  0  0  0  0
  187.4060  177.5100  138.5140 C   0  0  1  0  0  3  0  0  0  0  0  0
  187.4810  180.1040  136.7690 F   0  0  0  0  0  0  0  0  0  0  0  0
  185.3580  177.5400  137.1490 C   0  0  0  0  0  2  0  0  0  0  0  0
  188.7210  176.3450  143.5330 C   0  0  0  0  0  0  0  0  0  0  0  0
  187.5260  175.4640  143.9080 C   0  0  0  0  0  1  0  0  0  0  0  0
  189.7330  175.3690  142.9310 C   0  0  0  0  0  1  0  0  0  0  0  0
  191.5380  177.0640  145.9240 C   0  0  0  0  0  3  0  0  0  0  0  0
  190.7420  177.4500  144.7010 C   0  0  0  0  0  0  0  0  0  0  0  0
  189.3330  176.9500  144.7520 N   0  0  0  0  0  0  0  0  0  0  0  0
  191.5370  177.1320  143.4390 C   0  0  0  0  0  2  0  0  0  0  0  0
  188.4220  177.8530  145.4830 C   0  0  0  0  0  2  0  0  0  0  0  0
  189.5860  176.9660  147.5340 C   0  0  0  0  0  2  0  0  0  0  0  0
  191.6690  178.6140  143.1430 C   0  0  0  0  0  2  0  0  0  0  0  0
  188.9110  178.1700  146.8980 C   0  0  0  0  0  2  0  0  0  0  0  0
  190.8720  178.9370  144.3920 C   0  0  0  0  0  2  0  0  0  0  0  0
  191.0420  176.8860  147.1600 C   0  0  0  0  0  3  0  0  0  0  0  0
  184.6900  179.7740  144.6270 C   0  0  0  0  0  2  0  0  0  0  0  0
  184.9500  178.2750  146.5770 C   0  0  0  0  0  1  0  0  0  0  0  0
  185.3210  179.6220  145.9960 C   0  0  0  0  0  2  0  0  0  0  0  0
  1 35  1  1  0  0  0
  2  5  1  0  0  0  0
  3  9  1  0  0  0  0
  3 22  1  1  0  0  0
  4  7  2  0  0  0  0
  5  3  1  0  0  0  0
  6  1  1  0  0  0  0
  7  6  1  0  0  0  0
  8  2  1  1  0  0  0
  8 10  1  0  0  0  0
  9 12  1  6  0  0  0
 11 10  1  6  0  0  0
 11  7  1  0  0  0  0
 11  9  1  0  0  0  0
 12  1  1  0  0  0  0
 13 19  1  0  0  0  0
 15 14  1  0  0  0  0
 17 20  1  1  0  0  0
 17 13  1  0  0  0  0
 18 16  1  1  0  0  0
 18 17  1  0  0  0  0
 18 15  1  0  0  0  0
 19 14  1  6  0  0  0
 19  8  1  0  0  0  0
 21 13  2  0  0  0  0
 22 23  1  0  0  0  0
 22 27  1  0  0  0  0
 24 22  1  0  0  0  0
 25 34  2  0  0  0  0
 26 27  1  0  0  0  0
 26 25  1  0  0  0  0
 27 29  1  0  0  0  0
 28 26  1  0  0  0  0
 29 32  1  0  0  0  0
 31 28  1  0  0  0  0
 31 33  1  0  0  0  0
 32 30  1  0  0  0  0
 33 26  1  0  0  0  0
 34 30  1  0  0  0  0
 35 37  1  0  0  0  0
 37 36  1  0  0  0  0
M  END
>  <MODEL>
1

>  <REMARK>
 VINA RESULT:      -6.5      0.000      0.000
  Name = 
  5 active torsions:
  status: ('A' for Active; 'I' for Inactive)
    1  A    between atoms: C_1  and  C_5
    2  A    between atoms: C_4  and  C_10
    3  A    between atoms: C_4  and  N_13
    4  A    between atoms: C_5  and  C_23
    5  A    between atoms: N_27  and  C_31
                            x       y       z     vdW  Elec       q    Type
                         _______ _______ _______ _____ _____    ______ ____

>  <TORSDO>
F 5

$$$$
=
 OpenBabel10262422583D

 37 41  0  0  1  0  0  0  0  0999 V2000
  183.4930  179.3870  139.1840 C   0  0  1  0  0  3  0  0  0  0  0  0
  188.5670  178.8350  139.9250 C   0  0  0  0  0  2  0  0  0  0  0  0
  186.4270  178.9260  141.2400 C   0  0  1  0  0  3  0  0  0  0  0  0
  184.6960  176.6530  137.1840 O   0  0  0  0  0  0  0  0  0  0  0  0
  187.7540  178.1850  141.0390 C   0  0  0  0  0  2  0  0  0  0  0  0
  183.6360  178.4860  138.0830 O   0  0  0  0  0  0  0  0  0  0  0  0
  184.6990  177.5820  138.0330 C   0  0  0  0  0  0  0  0  0  0  0  0
  188.3280  178.2250  138.6100 N   0  0  2  0  0  0  0  0  0  0  0  0
  185.3830  178.6130  140.1360 C   0  0  2  0  0  3  0  0  0  0  0  0
  186.9610  178.5170  138.1490 C   0  0  0  0  0  2  0  0  0  0  0  0
  185.8720  177.7770  138.9370 C   0  0  2  0  0  3  0  0  0  0  0  0
  184.7530  179.7860  139.6780 O   0  0  0  0  0  0  0  0  0  0  0  0
  188.5910  176.2280  137.1840 C   0  0  0  0  0  0  0  0  0  0  0  0
  190.0440  176.5010  139.1570 C   0  0  0  0  0  2  0  0  0  0  0  0
  191.1400  177.0320  138.2290 C   0  0  0  0  0  2  0  0  0  0  0  0
  191.3360  175.0260  136.9410 F   0  0  0  0  0  0  0  0  0  0  0  0
  189.6770  176.5830  136.2100 C   0  0  2  0  0  3  0  0  0  0  0  0
  191.0540  176.3780  136.8460 C   0  0  1  0  0  3  0  0  0  0  0  0
  188.6420  176.7790  138.5870 C   0  0  1  0  0  3  0  0  0  0  0  0
  189.5360  177.9000  135.8080 F   0  0  0  0  0  0  0  0  0  0  0  0
  187.6790  175.3160  136.8580 C   0  0  0  0  0  2  0  0  0  0  0  0
  185.8680  178.7240  142.6860 C   0  0  0  0  0  0  0  0  0  0  0  0
  185.4190  180.0730  143.2560 C   0  0  0  0  0  1  0  0  0  0  0  0
  184.5950  177.8780  142.6770 C   0  0  0  0  0  1  0  0  0  0  0  0
  188.0550  178.5120  145.7420 C   0  0  0  0  0  3  0  0  0  0  0  0
  186.7260  178.2530  145.0760 C   0  0  0  0  0  0  0  0  0  0  0  0
  186.8520  178.0690  143.5960 N   0  0  0  0  0  0  0  0  0  0  0  0
  185.6960  179.2700  145.5540 C   0  0  0  0  0  2  0  0  0  0  0  0
  187.1810  176.6820  143.2100 C   0  0  0  0  0  2  0  0  0  0  0  0
  189.4790  177.2480  144.0730 C   0  0  0  0  0  2  0  0  0  0  0  0
  184.9310  178.1690  146.2640 C   0  0  0  0  0  2  0  0  0  0  0  0
  188.4370  176.1540  143.9070 C   0  0  0  0  0  2  0  0  0  0  0  0
  185.9470  177.1510  145.7840 C   0  0  0  0  0  2  0  0  0  0  0  0
  189.2460  178.0480  145.3260 C   0  0  0  0  0  3  0  0  0  0  0  0
  182.7040  180.6000  138.7260 C   0  0  0  0  0  2  0  0  0  0  0  0
  180.8220  181.3710  137.3190 C   0  0  0  0  0  1  0  0  0  0  0  0
  181.4460  180.1710  137.9980 C   0  0  0  0  0  2  0  0  0  0  0  0
  1 35  1  6  0  0  0
  1 12  1  0  0  0  0
  2  5  1  0  0  0  0
  3 22  1  1  0  0  0
  4  7  2  0  0  0  0
  5  3  1  0  0  0  0
  6  1  1  0  0  0  0
  7  6  1  0  0  0  0
  7 11  1  0  0  0  0
  8 10  1  1  0  0  0
  8  2  1  0  0  0  0
  9 12  1  6  0  0  0
  9  3  1  0  0  0  0
 11 10  1  6  0  0  0
 11  9  1  0  0  0  0
 13 19  1  0  0  0  0
 15 14  1  0  0  0  0
 17 20  1  1  0  0  0
 17 18  1  0  0  0  0
 17 13  1  0  0  0  0
 18 16  1  1  0  0  0
 18 15  1  0  0  0  0
 19  8  1  0  0  0  0
 19 14  1  6  0  0  0
 21 13  2  0  0  0  0
 22 23  1  0  0  0  0
 22 27  1  0  0  0  0
 24 22  1  0  0  0  0
 26 28  1  0  0  0  0
 26 25  1  0  0  0  0
 26 33  1  0  0  0  0
 27 26  1  0  0  0  0
 28 31  1  0  0  0  0
 29 27  1  0  0  0  0
 29 32  1  0  0  0  0
 30 34  1  0  0  0  0
 32 30  1  0  0  0  0
 33 31  1  0  0  0  0
 34 25  2  0  0  0  0
 36 37  1  0  0  0  0
 37 35  1  0  0  0  0
M  END
>  <MODEL>
2

>  <REMARK>
 VINA RESULT:      -6.1      2.250      4.366
  Name = 
  5 active torsions:
  status: ('A' for Active; 'I' for Inactive)
    1  A    between atoms: C_1  and  C_5
    2  A    between atoms: C_4  and  C_10
    3  A    between atoms: C_4  and  N_13
    4  A    between atoms: C_5  and  C_23
    5  A    between atoms: N_27  and  C_31
                            x       y       z     vdW  Elec       q    Type
                         _______ _______ _______ _____ _____    ______ ____

>  <TORSDO>
F 5

$$$$
=
 OpenBabel10262422583D

 37 41  0  0  1  0  0  0  0  0999 V2000
  183.4580  178.6150  142.9930 C   0  0  1  0  0  3  0  0  0  0  0  0
  187.9210  178.9810  140.4350 C   0  0  0  0  0  2  0  0  0  0  0  0
  187.0340  178.2220  142.6600 C   0  0  1  0  0  3  0  0  0  0  0  0
  183.1670  176.9060  139.8450 O   0  0  0  0  0  0  0  0  0  0  0  0
  187.9550  177.8750  141.4850 C   0  0  0  0  0  2  0  0  0  0  0  0
  182.8920  178.1260  141.7750 O   0  0  0  0  0  0  0  0  0  0  0  0
  183.6960  177.5270  140.8030 C   0  0  0  0  0  0  0  0  0  0  0  0
  186.9230  178.7410  139.3830 N   0  0  2  0  0  0  0  0  0  0  0  0
  185.5310  178.0250  142.3320 C   0  0  2  0  0  3  0  0  0  0  0  0
  185.5630  178.8520  139.9320 C   0  0  0  0  0  2  0  0  0  0  0  0
  185.1780  177.6990  140.8680 C   0  0  2  0  0  3  0  0  0  0  0  0
  184.7610  179.1160  142.7800 O   0  0  0  0  0  0  0  0  0  0  0  0
  186.5780  177.5170  137.2690 C   0  0  0  0  0  0  0  0  0  0  0  0
  188.6470  177.1420  138.5540 C   0  0  0  0  0  2  0  0  0  0  0  0
  189.3640  178.1160  137.6130 C   0  0  0  0  0  2  0  0  0  0  0  0
  189.0030  176.8210  135.6350 F   0  0  0  0  0  0  0  0  0  0  0  0
  187.2600  178.3470  136.2200 C   0  0  2  0  0  3  0  0  0  0  0  0
  188.7640  178.0590  136.2050 C   0  0  1  0  0  3  0  0  0  0  0  0
  187.1480  177.4680  138.6640 C   0  0  1  0  0  3  0  0  0  0  0  0
  187.0420  179.6910  136.4680 F   0  0  0  0  0  0  0  0  0  0  0  0
  185.5720  176.7150  136.9290 C   0  0  0  0  0  2  0  0  0  0  0  0
  187.4750  177.4940  143.9710 C   0  0  0  0  0  0  0  0  0  0  0  0
  186.8780  178.2140  145.1840 C   0  0  0  0  0  1  0  0  0  0  0  0
  186.8910  176.0830  144.0480 C   0  0  0  0  0  1  0  0  0  0  0  0
  190.8620  178.5370  145.2390 C   0  0  0  0  0  3  0  0  0  0  0  0
  189.6120  177.7090  145.4060 C   0  0  0  0  0  0  0  0  0  0  0  0
  188.9570  177.3870  144.0990 N   0  0  0  0  0  0  0  0  0  0  0  0
  188.7240  178.3170  146.4850 C   0  0  0  0  0  2  0  0  0  0  0  0
  189.5210  176.1890  143.4470 C   0  0  0  0  0  2  0  0  0  0  0  0
  191.4780  177.6900  142.9340 C   0  0  0  0  0  2  0  0  0  0  0  0
  188.9750  177.1150  147.3770 C   0  0  0  0  0  2  0  0  0  0  0  0
  191.0380  176.2730  143.2610 C   0  0  0  0  0  2  0  0  0  0  0  0
  189.8530  176.5010  146.3040 C   0  0  0  0  0  2  0  0  0  0  0  0
  191.6910  178.5050  144.1810 C   0  0  0  0  0  3  0  0  0  0  0  0
  182.5630  179.7090  143.5460 C   0  0  0  0  0  2  0  0  0  0  0  0
  180.4180  178.5940  144.0680 C   0  0  0  0  0  1  0  0  0  0  0  0
  181.1320  179.5040  143.0920 C   0  0  0  0  0  2  0  0  0  0  0  0
  1 35  1  6  0  0  0
  2  5  1  0  0  0  0
  3 22  1  1  0  0  0
  4  7  2  0  0  0  0
  5  3  1  0  0  0  0
  6  1  1  0  0  0  0
  7 11  1  0  0  0  0
  7  6  1  0  0  0  0
  8 10  1  1  0  0  0
  8  2  1  0  0  0  0
  9  3  1  0  0  0  0
  9 12  1  6  0  0  0
 11 10  1  6  0  0  0
 11  9  1  0  0  0  0
 12  1  1  0  0  0  0
 13 19  1  0  0  0  0
 15 14  1  0  0  0  0
 17 20  1  1  0  0  0
 17 13  1  0  0  0  0
 18 16  1  1  0  0  0
 18 17  1  0  0  0  0
 18 15  1  0  0  0  0
 19 14  1  6  0  0  0
 19  8  1  0  0  0  0
 21 13  2  0  0  0  0
 22 24  1  0  0  0  0
 22 27  1  0  0  0  0
 22 23  1  0  0  0  0
 25 26  1  0  0  0  0
 26 33  1  0  0  0  0
 26 28  1  0  0  0  0
 27 26  1  0  0  0  0
 28 31  1  0  0  0  0
 29 27  1  0  0  0  0
 30 32  1  0  0  0  0
 30 34  1  0  0  0  0
 32 29  1  0  0  0  0
 33 31  1  0  0  0  0
 34 25  2  0  0  0  0
 37 35  1  0  0  0  0
 37 36  1  0  0  0  0
M  END
>  <MODEL>
3

>  <REMARK>
 VINA RESULT:      -5.6      1.430      2.520
  Name = 
  5 active torsions:
  status: ('A' for Active; 'I' for Inactive)
    1  A    between atoms: C_1  and  C_5
    2  A    between atoms: C_4  and  C_10
    3  A    between atoms: C_4  and  N_13
    4  A    between atoms: C_5  and  C_23
    5  A    between atoms: N_27  and  C_31
                            x       y       z     vdW  Elec       q    Type
                         _______ _______ _______ _____ _____    ______ ____

>  <TORSDO>
F 5

$$$$
=
 OpenBabel10262422583D

 37 41  0  0  1  0  0  0  0  0999 V2000
  184.8000  173.6340  136.0590 C   0  0  1  0  0  3  0  0  0  0  0  0
  184.5370  177.9050  138.9370 C   0  0  0  0  0  2  0  0  0  0  0  0
  186.0050  176.8450  137.1950 C   0  0  1  0  0  3  0  0  0  0  0  0
  181.6180  175.2230  135.5390 O   0  0  0  0  0  0  0  0  0  0  0  0
  185.3120  178.1360  137.6450 C   0  0  0  0  0  2  0  0  0  0  0  0
  183.3980  173.7960  135.8330 O   0  0  0  0  0  0  0  0  0  0  0  0
  182.7950  175.0500  135.9510 C   0  0  0  0  0  0  0  0  0  0  0  0
  183.1320  177.5410  138.7060 N   0  0  2  0  0  0  0  0  0  0  0  0
  185.0280  175.8190  136.5640 C   0  0  2  0  0  3  0  0  0  0  0  0
  183.0420  176.2040  138.0980 C   0  0  0  0  0  2  0  0  0  0  0  0
  183.5250  176.1540  136.6420 C   0  0  2  0  0  3  0  0  0  0  0  0
  185.2570  174.5210  137.0580 O   0  0  0  0  0  0  0  0  0  0  0  0
  180.9370  178.2120  137.8000 C   0  0  0  0  0  0  0  0  0  0  0  0
  182.4860  179.9480  138.6160 C   0  0  0  0  0  2  0  0  0  0  0  0
  181.7010  179.9770  139.9310 C   0  0  0  0  0  2  0  0  0  0  0  0
  179.6360  180.6690  138.9430 F   0  0  0  0  0  0  0  0  0  0  0  0
  180.0350  178.3130  138.9950 C   0  0  2  0  0  3  0  0  0  0  0  0
  180.2210  179.6630  139.6930 C   0  0  1  0  0  3  0  0  0  0  0  0
  182.3960  178.5690  137.9380 C   0  0  1  0  0  3  0  0  0  0  0  0
  180.3080  177.2850  139.8800 F   0  0  0  0  0  0  0  0  0  0  0  0
  180.4230  177.9590  136.5990 C   0  0  0  0  0  2  0  0  0  0  0  0
  187.2470  177.1410  136.2940 C   0  0  0  0  0  0  0  0  0  0  0  0
  186.9630  176.6870  134.8600 C   0  0  0  0  0  1  0  0  0  0  0  0
  187.4970  178.6450  136.1690 C   0  0  0  0  0  1  0  0  0  0  0  0
  190.7710  177.1560  137.6190 C   0  0  0  0  0  3  0  0  0  0  0  0
  189.2850  177.1940  137.8810 C   0  0  0  0  0  0  0  0  0  0  0  0
  188.4960  176.5080  136.8100 N   0  0  0  0  0  0  0  0  0  0  0  0
  188.8550  178.6100  138.2470 C   0  0  0  0  0  2  0  0  0  0  0  0
  188.3760  175.0520  137.0190 C   0  0  0  0  0  2  0  0  0  0  0  0
  190.7890  174.9970  136.2980 C   0  0  0  0  0  2  0  0  0  0  0  0
  188.5340  178.1520  139.6580 C   0  0  0  0  0  2  0  0  0  0  0  0
  189.7320  174.3620  137.1870 C   0  0  0  0  0  2  0  0  0  0  0  0
  188.9520  176.7400  139.2970 C   0  0  0  0  0  2  0  0  0  0  0  0
  191.4290  176.1860  136.9610 C   0  0  0  0  0  3  0  0  0  0  0  0
  185.0680  172.1990  136.4720 C   0  0  0  0  0  2  0  0  0  0  0  0
  183.6340  170.2310  136.0400 C   0  0  0  0  0  1  0  0  0  0  0  0
  183.7740  171.5040  136.8460 C   0  0  0  0  0  2  0  0  0  0  0  0
  1 35  1  1  0  0  0
  1 12  1  0  0  0  0
  3 22  1  6  0  0  0
  3  5  1  0  0  0  0
  4  7  2  0  0  0  0
  5  2  1  0  0  0  0
  6  7  1  0  0  0  0
  6  1  1  0  0  0  0
  7 11  1  0  0  0  0
  8 10  1  6  0  0  0
  8  2  1  0  0  0  0
  9 11  1  0  0  0  0
  9 12  1  1  0  0  0
  9  3  1  0  0  0  0
 11 10  1  1  0  0  0
 13 19  1  0  0  0  0
 13 17  1  0  0  0  0
 14 15  1  0  0  0  0
 17 18  1  0  0  0  0
 17 20  1  1  0  0  0
 18 16  1  6  0  0  0
 18 15  1  0  0  0  0
 19 14  1  1  0  0  0
 19  8  1  0  0  0  0
 21 13  2  0  0  0  0
 22 27  1  0  0  0  0
 23 22  1  0  0  0  0
 24 22  1  0  0  0  0
 25 26  1  0  0  0  0
 26 28  1  0  0  0  0
 26 33  1  0  0  0  0
 27 29  1  0  0  0  0
 27 26  1  0  0  0  0
 28 31  1  0  0  0  0
 29 32  1  0  0  0  0
 30 34  1  0  0  0  0
 30 32  1  0  0  0  0
 33 31  1  0  0  0  0
 34 25  2  0  0  0  0
 35 37  1  0  0  0  0
 36 37  1  0  0  0  0
M  END
>  <MODEL>
4

>  <REMARK>
 VINA RESULT:      -5.4      5.209      7.996
  Name = 
  5 active torsions:
  status: ('A' for Active; 'I' for Inactive)
    1  A    between atoms: C_1  and  C_5
    2  A    between atoms: C_4  and  C_10
    3  A    between atoms: C_4  and  N_13
    4  A    between atoms: C_5  and  C_23
    5  A    between atoms: N_27  and  C_31
                            x       y       z     vdW  Elec       q    Type
                         _______ _______ _______ _____ _____    ______ ____

>  <TORSDO>
F 5

$$$$
=
 OpenBabel10262422583D

 37 41  0  0  1  0  0  0  0  0999 V2000
  188.0160  178.0820  137.2880 C   0  0  1  0  0  3  0  0  0  0  0  0
  186.4140  179.1310  142.0760 C   0  0  0  0  0  2  0  0  0  0  0  0
  185.4870  178.4520  139.8400 C   0  0  1  0  0  3  0  0  0  0  0  0
  189.7960  176.0040  139.6190 O   0  0  0  0  0  0  0  0  0  0  0  0
  185.4610  178.1870  141.3500 C   0  0  0  0  0  2  0  0  0  0  0  0
  189.0810  177.3440  137.8910 O   0  0  0  0  0  0  0  0  0  0  0  0
  188.9530  176.8310  139.1840 C   0  0  0  0  0  0  0  0  0  0  0  0
  187.7540  178.5590  142.2640 N   0  0  2  0  0  0  0  0  0  0  0  0
  186.7570  177.8930  139.1470 C   0  0  2  0  0  3  0  0  0  0  0  0
  188.4420  178.4290  140.9690 C   0  0  0  0  0  2  0  0  0  0  0  0
  187.8590  177.3320  140.0680 C   0  0  2  0  0  3  0  0  0  0  0  0
  187.3080  178.8300  138.2530 O   0  0  0  0  0  0  0  0  0  0  0  0
  189.1110  176.9210  143.5140 C   0  0  0  0  0  0  0  0  0  0  0  0
  186.8080  177.3960  144.2550 C   0  0  0  0  0  2  0  0  0  0  0  0
  187.3850  178.3430  145.3120 C   0  0  0  0  0  2  0  0  0  0  0  0
  188.6270  176.6590  146.4690 F   0  0  0  0  0  0  0  0  0  0  0  0
  189.7400  177.7030  144.6300 C   0  0  2  0  0  3  0  0  0  0  0  0
  188.7570  177.8600  145.7930 C   0  0  1  0  0  3  0  0  0  0  0  0
  187.7320  177.2940  143.0290 C   0  0  1  0  0  3  0  0  0  0  0  0
  190.1260  178.9510  144.1710 F   0  0  0  0  0  0  0  0  0  0  0  0
  189.7000  175.8160  143.0640 C   0  0  0  0  0  2  0  0  0  0  0  0
  184.1610  177.9940  139.1520 C   0  0  0  0  0  0  0  0  0  0  0  0
  183.1610  177.5340  140.2170 C   0  0  0  0  0  1  0  0  0  0  0  0
  183.4610  179.1630  138.4590 C   0  0  0  0  0  1  0  0  0  0  0  0
  184.1810  174.4390  137.9120 C   0  0  0  0  0  3  0  0  0  0  0  0
  183.4520  175.7480  138.0900 C   0  0  0  0  0  0  0  0  0  0  0  0
  184.3800  176.9210  138.1380 N   0  0  0  0  0  0  0  0  0  0  0  0
  182.4380  175.6300  139.2240 C   0  0  0  0  0  2  0  0  0  0  0  0
  184.7330  177.4370  136.8010 C   0  0  0  0  0  2  0  0  0  0  0  0
  186.1710  175.3730  136.6550 C   0  0  0  0  0  2  0  0  0  0  0  0
  181.3020  175.7660  138.2270 C   0  0  0  0  0  2  0  0  0  0  0  0
  185.3090  176.3560  135.8810 C   0  0  0  0  0  2  0  0  0  0  0  0
  182.3050  175.8920  137.0970 C   0  0  0  0  0  2  0  0  0  0  0  0
  185.3450  174.2700  137.2610 C   0  0  0  0  0  3  0  0  0  0  0  0
  188.5950  179.0060  136.2330 C   0  0  0  0  0  2  0  0  0  0  0  0
  188.5800  177.1540  134.5940 C   0  0  0  0  0  1  0  0  0  0  0  0
  189.4320  178.2220  135.2420 C   0  0  0  0  0  2  0  0  0  0  0  0
  1 35  1  6  0  0  0
  1  6  1  0  0  0  0
  1 12  1  0  0  0  0
  2  8  1  0  0  0  0
  3 22  1  6  0  0  0
  3  5  1  0  0  0  0
  5  2  1  0  0  0  0
  6  7  1  0  0  0  0
  7  4  2  0  0  0  0
  7 11  1  0  0  0  0
  8 10  1  6  0  0  0
  8 19  1  0  0  0  0
  9 12  1  1  0  0  0
  9  3  1  0  0  0  0
  9 11  1  0  0  0  0
 11 10  1  1  0  0  0
 13 17  1  0  0  0  0
 14 15  1  0  0  0  0
 15 18  1  0  0  0  0
 17 20  1  6  0  0  0
 17 18  1  0  0  0  0
 18 16  1  6  0  0  0
 19 13  1  0  0  0  0
 19 14  1  1  0  0  0
 21 13  2  0  0  0  0
 22 23  1  0  0  0  0
 24 22  1  0  0  0  0
 25 26  1  0  0  0  0
 26 27  1  0  0  0  0
 26 28  1  0  0  0  0
 27 22  1  0  0  0  0
 29 27  1  0  0  0  0
 30 34  1  0  0  0  0
 31 28  1  0  0  0  0
 32 30  1  0  0  0  0
 32 29  1  0  0  0  0
 33 26  1  0  0  0  0
 33 31  1  0  0  0  0
 34 25  2  0  0  0  0
 36 37  1  0  0  0  0
 37 35  1  0  0  0  0
M  END
>  <MODEL>
5

>  <REMARK>
 VINA RESULT:      -5.3      3.323      8.328
  Name = 
  5 active torsions:
  status: ('A' for Active; 'I' for Inactive)
    1  A    between atoms: C_1  and  C_5
    2  A    between atoms: C_4  and  C_10
    3  A    between atoms: C_4  and  N_13
    4  A    between atoms: C_5  and  C_23
    5  A    between atoms: N_27  and  C_31
                            x       y       z     vdW  Elec       q    Type
                         _______ _______ _______ _____ _____    ______ ____

>  <TORSDO>
F 5

$$$$
=
 OpenBabel10262422583D

 37 41  0  0  1  0  0  0  0  0999 V2000
  190.0900  177.5260  140.0490 C   0  0  1  0  0  3  0  0  0  0  0  0
  190.6080  174.0680  136.2580 C   0  0  0  0  0  2  0  0  0  0  0  0
  189.3300  176.1660  136.7890 C   0  0  1  0  0  3  0  0  0  0  0  0
  193.5580  177.2700  139.1400 O   0  0  0  0  0  0  0  0  0  0  0  0
  190.1590  175.4270  135.7320 C   0  0  0  0  0  2  0  0  0  0  0  0
  191.5130  177.4870  140.1710 O   0  0  0  0  0  0  0  0  0  0  0  0
  192.3130  177.0910  139.0970 C   0  0  0  0  0  0  0  0  0  0  0  0
  191.9330  174.1080  136.8910 N   0  0  2  0  0  0  0  0  0  0  0  0
  190.1950  176.7620  137.9310 C   0  0  2  0  0  3  0  0  0  0  0  0
  191.8800  174.8750  138.1450 C   0  0  0  0  0  2  0  0  0  0  0  0
  191.6890  176.3840  137.9390 C   0  0  2  0  0  3  0  0  0  0  0  0
  189.6270  176.5030  139.1930 O   0  0  0  0  0  0  0  0  0  0  0  0
  194.3520  174.5040  136.6120 C   0  0  0  0  0  0  0  0  0  0  0  0
  193.0220  173.7590  134.6750 C   0  0  0  0  0  2  0  0  0  0  0  0
  193.5140  172.3320  134.9350 C   0  0  0  0  0  2  0  0  0  0  0  0
  195.8290  172.8280  134.6000 F   0  0  0  0  0  0  0  0  0  0  0  0
  194.9950  173.1630  136.8150 C   0  0  2  0  0  3  0  0  0  0  0  0
  194.9260  172.3370  135.5270 C   0  0  1  0  0  3  0  0  0  0  0  0
  192.9890  174.5870  135.9720 C   0  0  1  0  0  3  0  0  0  0  0  0
  194.3590  172.4870  137.8410 F   0  0  0  0  0  0  0  0  0  0  0  0
  195.0440  175.6150  136.8540 C   0  0  0  0  0  2  0  0  0  0  0  0
  188.3690  177.2130  136.1390 C   0  0  0  0  0  0  0  0  0  0  0  0
  188.8570  178.6280  136.4590 C   0  0  0  0  0  1  0  0  0  0  0  0
  188.4130  177.1360  134.6130 C   0  0  0  0  0  1  0  0  0  0  0  0
  184.8000  176.0920  135.7110 C   0  0  0  0  0  3  0  0  0  0  0  0
  186.2070  175.7980  136.1730 C   0  0  0  0  0  0  0  0  0  0  0  0
  186.9510  177.0360  136.5690 N   0  0  0  0  0  0  0  0  0  0  0  0
  186.9000  174.8720  135.1790 C   0  0  0  0  0  2  0  0  0  0  0  0
  186.7030  177.4390  137.9680 C   0  0  0  0  0  2  0  0  0  0  0  0
  184.4590  178.1830  137.0980 C   0  0  0  0  0  2  0  0  0  0  0  0
  186.9180  173.7660  136.2180 C   0  0  0  0  0  2  0  0  0  0  0  0
  185.2140  177.6050  138.2830 C   0  0  0  0  0  2  0  0  0  0  0  0
  186.2370  174.6850  137.2120 C   0  0  0  0  0  2  0  0  0  0  0  0
  184.0290  177.1070  136.1370 C   0  0  0  0  0  3  0  0  0  0  0  0
  189.4740  177.3720  141.4270 C   0  0  0  0  0  2  0  0  0  0  0  0
  190.3550  175.7860  143.1090 C   0  0  0  0  0  1  0  0  0  0  0  0
  190.5520  177.1430  142.4670 C   0  0  0  0  0  2  0  0  0  0  0  0
  1  6  1  0  0  0  0
  1 35  1  1  0  0  0
  3 22  1  6  0  0  0
  3  9  1  0  0  0  0
  5  2  1  0  0  0  0
  5  3  1  0  0  0  0
  7  4  2  0  0  0  0
  7  6  1  0  0  0  0
  8  2  1  6  0  0  0
  8 10  1  0  0  0  0
  9 11  1  0  0  0  0
  9 12  1  1  0  0  0
 11 10  1  1  0  0  0
 11  7  1  0  0  0  0
 12  1  1  0  0  0  0
 13 17  1  0  0  0  0
 13 21  2  0  0  0  0
 14 15  1  0  0  0  0
 15 18  1  0  0  0  0
 17 20  1  1  0  0  0
 18 16  1  6  0  0  0
 18 17  1  0  0  0  0
 19 14  1  6  0  0  0
 19 13  1  0  0  0  0
 19  8  1  0  0  0  0
 22 23  1  0  0  0  0
 22 27  1  0  0  0  0
 24 22  1  0  0  0  0
 25 34  2  0  0  0  0
 25 26  1  0  0  0  0
 26 27  1  0  0  0  0
 26 33  1  0  0  0  0
 27 29  1  0  0  0  0
 28 26  1  0  0  0  0
 28 31  1  0  0  0  0
 29 32  1  0  0  0  0
 30 32  1  0  0  0  0
 31 33  1  0  0  0  0
 34 30  1  0  0  0  0
 35 37  1  0  0  0  0
 37 36  1  0  0  0  0
M  END
>  <MODEL>
6

>  <REMARK>
 VINA RESULT:      -5.3      4.523      8.404
  Name = 
  5 active torsions:
  status: ('A' for Active; 'I' for Inactive)
    1  A    between atoms: C_1  and  C_5
    2  A    between atoms: C_4  and  C_10
    3  A    between atoms: C_4  and  N_13
    4  A    between atoms: C_5  and  C_23
    5  A    between atoms: N_27  and  C_31
                            x       y       z     vdW  Elec       q    Type
                         _______ _______ _______ _____ _____    ______ ____

>  <TORSDO>
F 5

$$$$
=
 OpenBabel10262422583D

 37 41  0  0  1  0  0  0  0  0999 V2000
  187.1210  178.3190  137.1540 C   0  0  1  0  0  3  0  0  0  0  0  0
  185.6840  179.1340  142.0400 C   0  0  0  0  0  2  0  0  0  0  0  0
  184.7050  178.4220  139.8370 C   0  0  1  0  0  3  0  0  0  0  0  0
  189.1880  176.3570  139.3440 O   0  0  0  0  0  0  0  0  0  0  0  0
  184.7790  178.1270  141.3400 C   0  0  0  0  0  2  0  0  0  0  0  0
  188.2740  177.6640  137.6870 O   0  0  0  0  0  0  0  0  0  0  0  0
  188.2570  177.1160  138.9710 C   0  0  0  0  0  0  0  0  0  0  0  0
  187.0770  178.6760  142.1470 N   0  0  2  0  0  0  0  0  0  0  0  0
  185.9800  177.9870  139.0690 C   0  0  2  0  0  3  0  0  0  0  0  0
  187.7050  178.6300  140.8170 C   0  0  0  0  0  2  0  0  0  0  0  0
  187.1710  177.5050  139.9200 C   0  0  2  0  0  3  0  0  0  0  0  0
  186.4030  178.9850  138.1710 O   0  0  0  0  0  0  0  0  0  0  0  0
  188.6430  177.0750  143.1810 C   0  0  0  0  0  0  0  0  0  0  0  0
  186.4370  177.4440  144.2180 C   0  0  0  0  0  2  0  0  0  0  0  0
  187.1070  178.3970  145.2130 C   0  0  0  0  0  2  0  0  0  0  0  0
  188.5500  176.7460  146.1680 F   0  0  0  0  0  0  0  0  0  0  0  0
  189.3780  177.8650  144.2250 C   0  0  2  0  0  3  0  0  0  0  0  0
  188.5460  177.9620  145.5060 C   0  0  1  0  0  3  0  0  0  0  0  0
  187.2010  177.3980  142.8820 C   0  0  1  0  0  3  0  0  0  0  0  0
  189.6550  179.1340  143.7470 F   0  0  0  0  0  0  0  0  0  0  0  0
  189.2130  176.0030  142.6370 C   0  0  0  0  0  2  0  0  0  0  0  0
  183.3880  177.8650  139.2050 C   0  0  0  0  0  0  0  0  0  0  0  0
  183.7010  177.2170  137.8540 C   0  0  0  0  0  1  0  0  0  0  0  0
  182.8070  176.7260  140.0430 C   0  0  0  0  0  1  0  0  0  0  0  0
  179.8500  179.1510  139.1980 C   0  0  0  0  0  3  0  0  0  0  0  0
  181.1320  178.8820  139.9470 C   0  0  0  0  0  0  0  0  0  0  0  0
  182.3350  178.9110  139.0560 N   0  0  0  0  0  0  0  0  0  0  0  0
  180.9690  177.6540  140.8360 C   0  0  0  0  0  2  0  0  0  0  0  0
  182.8760  180.2700  138.8570 C   0  0  0  0  0  2  0  0  0  0  0  0
  180.8620  180.5890  137.3760 C   0  0  0  0  0  2  0  0  0  0  0  0
  181.0780  178.5290  142.0710 C   0  0  0  0  0  2  0  0  0  0  0  0
  181.8250  181.2580  138.3430 C   0  0  0  0  0  2  0  0  0  0  0  0
  181.2490  179.7520  141.1920 C   0  0  0  0  0  2  0  0  0  0  0  0
  179.7270  179.9180  138.1010 C   0  0  0  0  0  3  0  0  0  0  0  0
  187.5650  179.3090  136.0940 C   0  0  0  0  0  2  0  0  0  0  0  0
  186.2540  177.6280  134.8400 C   0  0  0  0  0  1  0  0  0  0  0  0
  187.1820  178.8160  134.7130 C   0  0  0  0  0  2  0  0  0  0  0  0
  1 35  1  6  0  0  0
  1  6  1  0  0  0  0
  1 12  1  0  0  0  0
  2  8  1  0  0  0  0
  3 22  1  6  0  0  0
  3  5  1  0  0  0  0
  5  2  1  0  0  0  0
  6  7  1  0  0  0  0
  7  4  2  0  0  0  0
  7 11  1  0  0  0  0
  8 10  1  6  0  0  0
  8 19  1  0  0  0  0
  9 12  1  1  0  0  0
  9  3  1  0  0  0  0
  9 11  1  0  0  0  0
 11 10  1  1  0  0  0
 13 17  1  0  0  0  0
 14 15  1  0  0  0  0
 15 18  1  0  0  0  0
 17 20  1  6  0  0  0
 17 18  1  0  0  0  0
 18 16  1  6  0  0  0
 19 13  1  0  0  0  0
 19 14  1  1  0  0  0
 21 13  2  0  0  0  0
 22 24  1  0  0  0  0
 23 22  1  0  0  0  0
 25 26  1  0  0  0  0
 26 28  1  0  0  0  0
 26 33  1  0  0  0  0
 27 22  1  0  0  0  0
 27 26  1  0  0  0  0
 28 31  1  0  0  0  0
 29 27  1  0  0  0  0
 30 34  1  0  0  0  0
 30 32  1  0  0  0  0
 32 29  1  0  0  0  0
 33 31  1  0  0  0  0
 34 25  2  0  0  0  0
 37 36  1  0  0  0  0
 37 35  1  0  0  0  0
M  END
>  <MODEL>
7

>  <REMARK>
 VINA RESULT:      -5.2      3.693      8.498
  Name = 
  5 active torsions:
  status: ('A' for Active; 'I' for Inactive)
    1  A    between atoms: C_1  and  C_5
    2  A    between atoms: C_4  and  C_10
    3  A    between atoms: C_4  and  N_13
    4  A    between atoms: C_5  and  C_23
    5  A    between atoms: N_27  and  C_31
                            x       y       z     vdW  Elec       q    Type
                         _______ _______ _______ _____ _____    ______ ____

>  <TORSDO>
F 5

$$$$
=
 OpenBabel10262422583D

 37 41  0  0  1  0  0  0  0  0999 V2000
  191.3560  177.1600  140.4910 C   0  0  1  0  0  3  0  0  0  0  0  0
  186.5420  179.0060  140.4170 C   0  0  0  0  0  2  0  0  0  0  0  0
  188.0830  177.5890  139.0260 C   0  0  1  0  0  3  0  0  0  0  0  0
  189.6700  176.2020  143.5180 O   0  0  0  0  0  0  0  0  0  0  0  0
  186.6710  177.7190  139.6110 C   0  0  0  0  0  2  0  0  0  0  0  0
  191.1350  176.8610  141.8720 O   0  0  0  0  0  0  0  0  0  0  0  0
  189.8420  176.6790  142.3660 C   0  0  0  0  0  0  0  0  0  0  0  0
  186.8320  178.8190  141.8460 N   0  0  2  0  0  0  0  0  0  0  0  0
  189.1400  177.1720  140.0820 C   0  0  2  0  0  3  0  0  0  0  0  0
  188.2590  178.5210  142.0440 C   0  0  0  0  0  2  0  0  0  0  0  0
  188.6740  177.1290  141.5500 C   0  0  2  0  0  3  0  0  0  0  0  0
  190.3090  177.9500  139.9710 O   0  0  0  0  0  0  0  0  0  0  0  0
  185.8290  178.0550  143.9660 C   0  0  0  0  0  0  0  0  0  0  0  0
  184.5300  177.8620  141.8790 C   0  0  0  0  0  2  0  0  0  0  0  0
  183.8000  179.1540  142.2590 C   0  0  0  0  0  2  0  0  0  0  0  0
  182.8470  178.2880  144.2750 F   0  0  0  0  0  0  0  0  0  0  0  0
  185.0370  179.2260  144.4690 C   0  0  2  0  0  3  0  0  0  0  0  0
  183.6710  179.2850  143.7800 C   0  0  1  0  0  3  0  0  0  0  0  0
  185.9460  177.8190  142.4810 C   0  0  1  0  0  3  0  0  0  0  0  0
  185.7320  180.4000  144.2340 F   0  0  0  0  0  0  0  0  0  0  0  0
  186.2910  177.1490  144.8240 C   0  0  0  0  0  2  0  0  0  0  0  0
  188.0980  176.6830  137.7530 C   0  0  0  0  0  0  0  0  0  0  0  0
  188.9040  177.3670  136.6450 C   0  0  0  0  0  1  0  0  0  0  0  0
  188.8470  175.3750  138.0090 C   0  0  0  0  0  1  0  0  0  0  0  0
  184.5740  177.4710  136.6900 C   0  0  0  0  0  3  0  0  0  0  0  0
  186.0240  177.2650  136.3270 C   0  0  0  0  0  0  0  0  0  0  0  0
  186.7270  176.3420  137.2730 N   0  0  0  0  0  0  0  0  0  0  0  0
  186.6910  178.6100  136.0600 C   0  0  0  0  0  2  0  0  0  0  0  0
  186.5600  174.9170  136.9250 C   0  0  0  0  0  2  0  0  0  0  0  0
  184.2220  175.2280  137.8090 C   0  0  0  0  0  2  0  0  0  0  0  0
  186.8450  178.2480  134.5950 C   0  0  0  0  0  2  0  0  0  0  0  0
  185.0920  174.5060  136.7930 C   0  0  0  0  0  2  0  0  0  0  0  0
  186.1900  176.9050  134.8560 C   0  0  0  0  0  2  0  0  0  0  0  0
  183.7820  176.5750  137.3040 C   0  0  0  0  0  3  0  0  0  0  0  0
  192.6790  177.8900  140.3530 C   0  0  0  0  0  2  0  0  0  0  0  0
  192.9550  176.4580  138.3560 C   0  0  0  0  0  1  0  0  0  0  0  0
  193.6620  177.0620  139.5490 C   0  0  0  0  0  2  0  0  0  0  0  0
  1 35  1  1  0  0  0
  1  6  1  0  0  0  0
  3 22  1  6  0  0  0
  3  5  1  0  0  0  0
  3  9  1  0  0  0  0
  5  2  1  0  0  0  0
  6  7  1  0  0  0  0
  7  4  2  0  0  0  0
  8  2  1  6  0  0  0
  8 10  1  0  0  0  0
  8 19  1  0  0  0  0
  9 12  1  1  0  0  0
  9 11  1  0  0  0  0
 11 10  1  1  0  0  0
 11  7  1  0  0  0  0
 12  1  1  0  0  0  0
 13 17  1  0  0  0  0
 13 21  2  0  0  0  0
 14 15  1  0  0  0  0
 15 18  1  0  0  0  0
 17 20  1  6  0  0  0
 18 16  1  1  0  0  0
 18 17  1  0  0  0  0
 19 14  1  6  0  0  0
 19 13  1  0  0  0  0
 22 24  1  0  0  0  0
 23 22  1  0  0  0  0
 25 34  2  0  0  0  0
 26 25  1  0  0  0  0
 26 27  1  0  0  0  0
 27 22  1  0  0  0  0
 28 26  1  0  0  0  0
 29 27  1  0  0  0  0
 31 33  1  0  0  0  0
 31 28  1  0  0  0  0
 32 29  1  0  0  0  0
 32 30  1  0  0  0  0
 33 26  1  0  0  0  0
 34 30  1  0  0  0  0
 36 37  1  0  0  0  0
 37 35  1  0  0  0  0
M  END
>  <MODEL>
8

>  <REMARK>
 VINA RESULT:      -5.1      3.367      7.965
  Name = 
  5 active torsions:
  status: ('A' for Active; 'I' for Inactive)
    1  A    between atoms: C_1  and  C_5
    2  A    between atoms: C_4  and  C_10
    3  A    between atoms: C_4  and  N_13
    4  A    between atoms: C_5  and  C_23
    5  A    between atoms: N_27  and  C_31
                            x       y       z     vdW  Elec       q    Type
                         _______ _______ _______ _____ _____    ______ ____

>  <TORSDO>
F 5

$$$$
=
 OpenBabel10262422583D

 37 41  0  0  1  0  0  0  0  0999 V2000
  184.7070  178.6830  142.1610 C   0  0  1  0  0  3  0  0  0  0  0  0
  184.9420  176.8730  137.3370 C   0  0  0  0  0  2  0  0  0  0  0  0
  183.5200  178.3770  138.7630 C   0  0  1  0  0  3  0  0  0  0  0  0
  187.9340  179.4330  140.7650 O   0  0  0  0  0  0  0  0  0  0  0  0
  184.2190  178.2140  137.4080 C   0  0  0  0  0  2  0  0  0  0  0  0
  186.1200  178.8850  142.0690 O   0  0  0  0  0  0  0  0  0  0  0  0
  186.7410  179.0380  140.8270 C   0  0  0  0  0  0  0  0  0  0  0  0
  186.3480  176.9570  137.7580 N   0  0  2  0  0  0  0  0  0  0  0  0
  184.5010  178.7120  139.9160 C   0  0  2  0  0  3  0  0  0  0  0  0
  186.4360  177.2320  139.2000 C   0  0  0  0  0  2  0  0  0  0  0  0
  186.0050  178.6540  139.5850 C   0  0  2  0  0  3  0  0  0  0  0  0
  184.2300  177.9380  141.0610 O   0  0  0  0  0  0  0  0  0  0  0  0
  188.5960  177.8610  137.2930 C   0  0  0  0  0  0  0  0  0  0  0  0
  186.9870  177.6190  135.4410 C   0  0  0  0  0  2  0  0  0  0  0  0
  187.6810  176.3080  135.0600 C   0  0  0  0  0  2  0  0  0  0  0  0
  189.8060  177.3040  134.5980 F   0  0  0  0  0  0  0  0  0  0  0  0
  189.4150  176.6760  136.8710 C   0  0  2  0  0  3  0  0  0  0  0  0
  189.1760  176.3610  135.3920 C   0  0  1  0  0  3  0  0  0  0  0  0
  187.1290  177.9140  136.9440 C   0  0  1  0  0  3  0  0  0  0  0  0
  189.0860  175.5770  137.6440 F   0  0  0  0  0  0  0  0  0  0  0  0
  189.1920  178.9210  137.8340 C   0  0  0  0  0  2  0  0  0  0  0  0
  182.3170  179.3710  138.6740 C   0  0  0  0  0  0  0  0  0  0  0  0
  182.8370  180.8110  138.7020 C   0  0  0  0  0  1  0  0  0  0  0  0
  181.6000  179.2570  137.3280 C   0  0  0  0  0  1  0  0  0  0  0  0
  180.0210  180.4590  141.4510 C   0  0  0  0  0  3  0  0  0  0  0  0
  180.2430  180.1770  139.9850 C   0  0  0  0  0  0  0  0  0  0  0  0
  181.3100  179.1540  139.7530 N   0  0  0  0  0  0  0  0  0  0  0  0
  180.3710  181.4870  139.2160 C   0  0  0  0  0  2  0  0  0  0  0  0
  180.8090  177.7670  139.8220 C   0  0  0  0  0  2  0  0  0  0  0  0
  180.7230  178.1810  142.3060 C   0  0  0  0  0  2  0  0  0  0  0  0
  179.0600  181.2030  138.5060 C   0  0  0  0  0  2  0  0  0  0  0  0
  180.0770  177.4650  141.1320 C   0  0  0  0  0  2  0  0  0  0  0  0
  178.9310  179.8950  139.2620 C   0  0  0  0  0  2  0  0  0  0  0  0
  180.1980  179.5830  142.4560 C   0  0  0  0  0  3  0  0  0  0  0  0
  184.3990  177.9570  143.4570 C   0  0  0  0  0  2  0  0  0  0  0  0
  185.0610  179.0180  145.5900 C   0  0  0  0  0  1  0  0  0  0  0  0
  183.9830  178.9420  144.5310 C   0  0  0  0  0  2  0  0  0  0  0  0
  1 35  1  1  0  0  0
  2  5  1  0  0  0  0
  3 22  1  6  0  0  0
  3  9  1  0  0  0  0
  4  7  2  0  0  0  0
  5  3  1  0  0  0  0
  6  1  1  0  0  0  0
  7  6  1  0  0  0  0
  8  2  1  6  0  0  0
  8 10  1  0  0  0  0
  9 12  1  1  0  0  0
 11 10  1  1  0  0  0
 11  9  1  0  0  0  0
 11  7  1  0  0  0  0
 12  1  1  0  0  0  0
 13 21  2  0  0  0  0
 15 18  1  0  0  0  0
 15 14  1  0  0  0  0
 17 13  1  0  0  0  0
 17 20  1  1  0  0  0
 18 16  1  6  0  0  0
 18 17  1  0  0  0  0
 19 14  1  6  0  0  0
 19 13  1  0  0  0  0
 19  8  1  0  0  0  0
 22 23  1  0  0  0  0
 22 27  1  0  0  0  0
 24 22  1  0  0  0  0
 25 34  2  0  0  0  0
 26 25  1  0  0  0  0
 27 29  1  0  0  0  0
 27 26  1  0  0  0  0
 28 26  1  0  0  0  0
 29 32  1  0  0  0  0
 30 34  1  0  0  0  0
 31 28  1  0  0  0  0
 31 33  1  0  0  0  0
 32 30  1  0  0  0  0
 33 26  1  0  0  0  0
 35 37  1  0  0  0  0
 37 36  1  0  0  0  0
M  END
>  <MODEL>
9

>  <REMARK>
 VINA RESULT:      -4.8      3.557      7.170
  Name = 
  5 active torsions:
  status: ('A' for Active; 'I' for Inactive)
    1  A    between atoms: C_1  and  C_5
    2  A    between atoms: C_4  and  C_10
    3  A    between atoms: C_4  and  N_13
    4  A    between atoms: C_5  and  C_23
    5  A    between atoms: N_27  and  C_31
                            x       y       z     vdW  Elec       q    Type
                         _______ _______ _______ _____ _____    ______ ____

>  <TORSDO>
F 5

$$$$
