=
 OpenBabel10262419153D

 34 36  0  0  1  0  0  0  0  0999 V2000
  189.4580  177.3220  142.5020 C   0  0  1  0  0  3  0  0  0  0  0  0
  190.4340  177.8400  143.5490 C   0  0  2  0  0  3  0  0  0  0  0  0
  189.9060  177.6190  145.6790 N   0  0  0  0  0  0  0  0  0  0  0  0
  188.8050  178.2010  147.6290 O   0  0  0  0  0  0  0  0  0  0  0  0
  190.6810  176.9180  147.9170 O   0  0  0  0  0  0  0  0  0  0  0  0
  192.7480  176.0400  148.3550 O   0  0  0  0  0  0  0  0  0  0  0  0
  190.5740  176.8350  144.6400 C   0  0  2  0  0  3  0  0  0  0  0  0
  189.7540  177.5720  147.0940 C   0  0  0  0  0  0  0  0  0  0  0  0
  191.9870  175.5700  146.1680 C   0  0  0  0  0  2  0  0  0  0  0  0
  191.8290  176.2130  147.5130 C   0  0  0  0  0  0  0  0  0  0  0  0
  192.0100  176.5860  145.0430 C   0  0  0  0  0  2  0  0  0  0  0  0
  189.6920  178.5970  144.6030 C   0  0  0  0  0  2  0  0  0  0  0  0
  190.1610  176.5190  141.5130 N   0  0  0  0  0  2  0  0  0  0  0  0
  190.0900  176.8010  140.1130 C   0  0  0  0  0  0  0  0  0  0  0  0
  190.6640  176.0340  139.2970 O   0  0  0  0  0  0  0  0  0  0  0  0
  189.3900  178.0180  139.6090 C   0  0  0  0  0  2  0  0  0  0  0  0
  188.1040  177.6080  138.9140 C   0  0  0  0  0  2  0  0  0  0  0  0
  185.4200  177.9180  137.7040 C   0  0  0  0  0  1  0  0  0  0  0  0
  187.9200  178.3830  137.6100 C   0  0  2  0  0  3  0  0  0  0  0  0
  186.6680  177.9300  136.8380 C   0  0  1  0  0  3  0  0  0  0  0  0
  187.9910  176.6320  135.3100 O   0  0  0  0  0  0  0  0  0  0  0  0
  189.1510  176.8150  136.0830 C   0  0  0  0  0  2  0  0  0  0  0  0
  189.1520  178.2130  136.7140 C   0  0  0  0  0  2  0  0  0  0  0  0
  186.9080  176.5570  136.2050 C   0  0  0  0  0  2  0  0  0  0  0  0
  188.1610  176.3130  143.2860 S   0  0  0  0  0  0  0  0  0  0  0  0
  186.9040  177.6150  143.1010 C   0  0  0  0  0  2  0  0  0  0  0  0
  186.1250  177.7980  144.4010 C   0  0  0  0  0  2  0  0  0  0  0  0
  185.0210  178.8630  144.3110 C   0  0  1  0  0  3  0  0  0  0  0  0
  184.1120  179.0940  142.0790 O   0  0  0  0  0  1  0  0  0  0  0  0
  182.5470  178.9310  143.8740 C   0  0  0  0  0  1  0  0  0  0  0  0
  183.9000  178.5100  143.3300 C   0  0  2  0  0  3  0  0  0  0  0  0
  184.4960  179.1720  145.5690 O   0  0  0  0  0  0  0  0  0  0  0  0
  185.4070  178.6390  146.4840 C   0  0  0  0  0  2  0  0  0  0  0  0
  185.7430  179.6130  147.4240 O   0  0  0  0  0  1  0  0  0  0  0  0
  1 13  1  6  0  0  0
  1 25  1  0  0  0  0
  2  1  1  6  0  0  0
  2 12  1  0  0  0  0
  2  7  1  0  0  0  0
  3  8  1  0  0  0  0
  7 11  1  1  0  0  0
  7  3  1  0  0  0  0
  8  4  2  0  0  0  0
  8  5  1  0  0  0  0
  9 10  1  0  0  0  0
 10  5  1  0  0  0  0
 10  6  2  0  0  0  0
 11  9  1  0  0  0  0
 12  3  1  0  0  0  0
 14 13  1  0  0  0  0
 15 14  2  0  0  0  0
 16 14  1  0  0  0  0
 17 16  1  0  0  0  0
 19 17  1  1  0  0  0
 20 19  1  0  0  0  0
 20 18  1  1  0  0  0
 21 22  1  0  0  0  0
 21 24  1  0  0  0  0
 22 23  1  0  0  0  0
 23 19  1  0  0  0  0
 24 20  1  0  0  0  0
 26 25  1  0  0  0  0
 26 27  1  0  0  0  0
 28 27  1  1  0  0  0
 28 32  1  0  0  0  0
 29 31  1  0  0  0  0
 31 30  1  1  0  0  0
 31 28  1  0  0  0  0
 32 33  1  0  0  0  0
 33 34  1  0  0  0  0
M  END
>  <MODEL>
1

>  <REMARK>
 VINA RESULT:      -7.8      0.000      0.000
  Name = 
  12 active torsions:
  status: ('A' for Active; 'I' for Inactive)
    1  A    between atoms: O_1  and  C_15
    2  A    between atoms: O_1  and  C_24
    3  A    between atoms: C_2  and  C_15
    4  A    between atoms: C_2  and  C_25
    5  A    between atoms: C_3  and  C_13
    6  A    between atoms: C_3  and  C_17
    7  A    between atoms: C_4  and  C_31
    8  A    between atoms: N_5  and  C_31
    9  A    between atoms: S_10  and  C_25
   10  A    between atoms: S_10  and  C_31
   11  A    between atoms: C_15  and  C_19
   12  A    between atoms: C_17  and  C_18
                            x       y       z     vdW  Elec       q    Type
                         _______ _______ _______ _____ _____    ______ ____

>  <TORSDO>
F 12

$$$$
=
 OpenBabel10262419153D

 34 36  0  0  1  0  0  0  0  0999 V2000
  189.6180  177.0540  141.9290 C   0  0  1  0  0  3  0  0  0  0  0  0
  188.8220  178.2670  142.3890 C   0  0  2  0  0  3  0  0  0  0  0  0
  186.8140  178.5910  141.5370 N   0  0  0  0  0  0  0  0  0  0  0  0
  185.3230  179.2770  139.9070 O   0  0  0  0  0  0  0  0  0  0  0  0
  184.4480  179.1120  142.0180 O   0  0  0  0  0  0  0  0  0  0  0  0
  183.5900  179.4190  144.1170 O   0  0  0  0  0  0  0  0  0  0  0  0
  187.4130  177.8650  142.6570 C   0  0  2  0  0  3  0  0  0  0  0  0
  185.5100  178.9760  141.1140 C   0  0  0  0  0  0  0  0  0  0  0  0
  185.4360  177.9450  144.0770 C   0  0  0  0  0  2  0  0  0  0  0  0
  184.4750  178.8780  143.4040 C   0  0  0  0  0  0  0  0  0  0  0  0
  186.8730  178.4130  143.9590 C   0  0  0  0  0  2  0  0  0  0  0  0
  188.2030  178.9440  141.2090 C   0  0  0  0  0  2  0  0  0  0  0  0
  190.8970  177.4720  141.3750 N   0  0  0  0  0  2  0  0  0  0  0  0
  191.3480  177.0400  140.0900 C   0  0  0  0  0  0  0  0  0  0  0  0
  192.4920  177.3790  139.6880 O   0  0  0  0  0  0  0  0  0  0  0  0
  190.4650  176.2370  139.1950 C   0  0  0  0  0  2  0  0  0  0  0  0
  189.8730  177.1410  138.1280 C   0  0  0  0  0  2  0  0  0  0  0  0
  189.9050  175.3810  135.7480 C   0  0  0  0  0  1  0  0  0  0  0  0
  188.5760  176.5520  137.5750 C   0  0  2  0  0  3  0  0  0  0  0  0
  188.6830  176.2210  136.0760 C   0  0  1  0  0  3  0  0  0  0  0  0
  187.4650  178.2030  135.4770 O   0  0  0  0  0  0  0  0  0  0  0  0
  187.5140  178.6900  136.7960 C   0  0  0  0  0  2  0  0  0  0  0  0
  187.4150  177.5290  137.7930 C   0  0  0  0  0  2  0  0  0  0  0  0
  188.6680  177.5100  135.2500 C   0  0  0  0  0  2  0  0  0  0  0  0
  189.9060  175.9160  143.3210 S   0  0  0  0  0  0  0  0  0  0  0  0
  191.5370  176.6330  143.6930 C   0  0  0  0  0  2  0  0  0  0  0  0
  191.4710  177.4900  144.9540 C   0  0  0  0  0  2  0  0  0  0  0  0
  190.5130  176.9410  146.0220 C   0  0  1  0  0  3  0  0  0  0  0  0
  191.8870  177.4120  147.9590 O   0  0  0  0  0  1  0  0  0  0  0  0
  192.1940  175.2930  146.9040 C   0  0  0  0  0  1  0  0  0  0  0  0
  191.2200  176.3980  147.2670 C   0  0  2  0  0  3  0  0  0  0  0  0
  189.5400  177.8790  146.3770 O   0  0  0  0  0  0  0  0  0  0  0  0
  188.8380  177.2930  147.4320 C   0  0  0  0  0  2  0  0  0  0  0  0
  187.4890  177.1910  147.0890 O   0  0  0  0  0  1  0  0  0  0  0  0
  1 13  1  1  0  0  0
  1 25  1  0  0  0  0
  2  1  1  6  0  0  0
  2  7  1  0  0  0  0
  3  7  1  0  0  0  0
  4  8  2  0  0  0  0
  5 10  1  0  0  0  0
  7 11  1  1  0  0  0
  8  3  1  0  0  0  0
  8  5  1  0  0  0  0
 10  9  1  0  0  0  0
 10  6  2  0  0  0  0
 11  9  1  0  0  0  0
 12  3  1  0  0  0  0
 12  2  1  0  0  0  0
 14 13  1  0  0  0  0
 15 14  2  0  0  0  0
 16 14  1  0  0  0  0
 17 16  1  0  0  0  0
 19 23  1  0  0  0  0
 19 17  1  6  0  0  0
 20 18  1  1  0  0  0
 20 19  1  0  0  0  0
 21 22  1  0  0  0  0
 22 23  1  0  0  0  0
 24 21  1  0  0  0  0
 24 20  1  0  0  0  0
 25 26  1  0  0  0  0
 26 27  1  0  0  0  0
 28 27  1  6  0  0  0
 28 32  1  0  0  0  0
 28 31  1  0  0  0  0
 31 30  1  6  0  0  0
 31 29  1  0  0  0  0
 32 33  1  0  0  0  0
 34 33  1  0  0  0  0
M  END
>  <MODEL>
2

>  <REMARK>
 VINA RESULT:      -7.4      1.676      5.560
  Name = 
  12 active torsions:
  status: ('A' for Active; 'I' for Inactive)
    1  A    between atoms: O_1  and  C_15
    2  A    between atoms: O_1  and  C_24
    3  A    between atoms: C_2  and  C_15
    4  A    between atoms: C_2  and  C_25
    5  A    between atoms: C_3  and  C_13
    6  A    between atoms: C_3  and  C_17
    7  A    between atoms: C_4  and  C_31
    8  A    between atoms: N_5  and  C_31
    9  A    between atoms: S_10  and  C_25
   10  A    between atoms: S_10  and  C_31
   11  A    between atoms: C_15  and  C_19
   12  A    between atoms: C_17  and  C_18
                            x       y       z     vdW  Elec       q    Type
                         _______ _______ _______ _____ _____    ______ ____

>  <TORSDO>
F 12

$$$$
=
 OpenBabel10262419153D

 34 36  0  0  1  0  0  0  0  0999 V2000
  188.3820  177.4930  142.5220 C   0  0  1  0  0  3  0  0  0  0  0  0
  187.0590  177.0240  143.1090 C   0  0  2  0  0  3  0  0  0  0  0  0
  186.0170  178.3420  144.5380 N   0  0  0  0  0  0  0  0  0  0  0  0
  185.6430  179.2900  146.6150 O   0  0  0  0  0  0  0  0  0  0  0  0
  183.8650  179.3760  145.1730 O   0  0  0  0  0  0  0  0  0  0  0  0
  181.9120  179.1200  144.0080 O   0  0  0  0  0  0  0  0  0  0  0  0
  186.0800  178.1470  143.0890 C   0  0  2  0  0  3  0  0  0  0  0  0
  185.1930  179.0390  145.4670 C   0  0  0  0  0  0  0  0  0  0  0  0
  183.8330  178.9710  142.6400 C   0  0  0  0  0  2  0  0  0  0  0  0
  183.1700  179.1290  143.9750 C   0  0  0  0  0  0  0  0  0  0  0  0
  184.7160  177.7420  142.5760 C   0  0  0  0  0  2  0  0  0  0  0  0
  187.0370  177.2840  144.5810 C   0  0  0  0  0  2  0  0  0  0  0  0
  188.1470  178.3100  141.3410 N   0  0  0  0  0  2  0  0  0  0  0  0
  188.9220  178.1650  140.1490 C   0  0  0  0  0  0  0  0  0  0  0  0
  188.7190  178.9430  139.1800 O   0  0  0  0  0  0  0  0  0  0  0  0
  189.9290  177.0730  140.0150 C   0  0  0  0  0  2  0  0  0  0  0  0
  190.4260  177.0180  138.5810 C   0  0  0  0  0  2  0  0  0  0  0  0
  192.3950  175.0070  137.6650 C   0  0  0  0  0  1  0  0  0  0  0  0
  189.9670  175.7320  137.8950 C   0  0  2  0  0  3  0  0  0  0  0  0
  191.0500  175.1490  136.9710 C   0  0  1  0  0  3  0  0  0  0  0  0
  189.9480  176.0060  135.0170 O   0  0  0  0  0  0  0  0  0  0  0  0
  189.0450  176.7530  135.7950 C   0  0  0  0  0  2  0  0  0  0  0  0
  188.6950  175.9910  137.0790 C   0  0  0  0  0  2  0  0  0  0  0  0
  191.1750  175.9990  135.7050 C   0  0  0  0  0  2  0  0  0  0  0  0
  189.3140  178.4610  143.7500 S   0  0  0  0  0  0  0  0  0  0  0  0
  190.4990  177.1140  144.0550 C   0  0  0  0  0  2  0  0  0  0  0  0
  191.2950  177.3780  145.3300 C   0  0  0  0  0  2  0  0  0  0  0  0
  190.5990  176.8770  146.6040 C   0  0  1  0  0  3  0  0  0  0  0  0
  192.2490  177.1710  148.3520 O   0  0  0  0  0  1  0  0  0  0  0  0
  192.5210  175.2870  146.9120 C   0  0  0  0  0  1  0  0  0  0  0  0
  191.5470  176.2180  147.6100 C   0  0  2  0  0  3  0  0  0  0  0  0
  189.8540  177.8870  147.2190 O   0  0  0  0  0  0  0  0  0  0  0  0
  188.6730  177.2680  147.6320 C   0  0  0  0  0  2  0  0  0  0  0  0
  188.2890  177.7820  148.8700 O   0  0  0  0  0  1  0  0  0  0  0  0
  1 13  1  6  0  0  0
  1 25  1  0  0  0  0
  2  1  1  6  0  0  0
  2 12  1  0  0  0  0
  3 12  1  0  0  0  0
  3  8  1  0  0  0  0
  5  8  1  0  0  0  0
  7 11  1  1  0  0  0
  7  2  1  0  0  0  0
  7  3  1  0  0  0  0
  8  4  2  0  0  0  0
  9 10  1  0  0  0  0
 10  6  2  0  0  0  0
 10  5  1  0  0  0  0
 11  9  1  0  0  0  0
 14 13  1  0  0  0  0
 15 14  2  0  0  0  0
 16 14  1  0  0  0  0
 17 16  1  0  0  0  0
 19 17  1  6  0  0  0
 20 18  1  1  0  0  0
 20 19  1  0  0  0  0
 21 24  1  0  0  0  0
 21 22  1  0  0  0  0
 22 23  1  0  0  0  0
 23 19  1  0  0  0  0
 24 20  1  0  0  0  0
 25 26  1  0  0  0  0
 26 27  1  0  0  0  0
 28 27  1  6  0  0  0
 28 32  1  0  0  0  0
 28 31  1  0  0  0  0
 31 30  1  6  0  0  0
 31 29  1  0  0  0  0
 32 33  1  0  0  0  0
 33 34  1  0  0  0  0
M  END
>  <MODEL>
3

>  <REMARK>
 VINA RESULT:      -7.4      1.849      5.863
  Name = 
  12 active torsions:
  status: ('A' for Active; 'I' for Inactive)
    1  A    between atoms: O_1  and  C_15
    2  A    between atoms: O_1  and  C_24
    3  A    between atoms: C_2  and  C_15
    4  A    between atoms: C_2  and  C_25
    5  A    between atoms: C_3  and  C_13
    6  A    between atoms: C_3  and  C_17
    7  A    between atoms: C_4  and  C_31
    8  A    between atoms: N_5  and  C_31
    9  A    between atoms: S_10  and  C_25
   10  A    between atoms: S_10  and  C_31
   11  A    between atoms: C_15  and  C_19
   12  A    between atoms: C_17  and  C_18
                            x       y       z     vdW  Elec       q    Type
                         _______ _______ _______ _____ _____    ______ ____

>  <TORSDO>
F 12

$$$$
=
 OpenBabel10262419153D

 34 36  0  0  1  0  0  0  0  0999 V2000
  188.3010  177.9450  142.5990 C   0  0  1  0  0  3  0  0  0  0  0  0
  187.0230  177.2910  143.1050 C   0  0  2  0  0  3  0  0  0  0  0  0
  185.8770  178.3120  144.6880 N   0  0  0  0  0  0  0  0  0  0  0  0
  185.4290  178.9360  146.8710 O   0  0  0  0  0  0  0  0  0  0  0  0
  183.6460  179.0650  145.4370 O   0  0  0  0  0  0  0  0  0  0  0  0
  181.7200  178.8060  144.2310 O   0  0  0  0  0  0  0  0  0  0  0  0
  185.9530  178.3200  143.2280 C   0  0  2  0  0  3  0  0  0  0  0  0
  184.9990  178.8040  145.6960 C   0  0  0  0  0  0  0  0  0  0  0  0
  183.6430  179.0060  142.8730 C   0  0  0  0  0  2  0  0  0  0  0  0
  182.9730  178.9250  144.2110 C   0  0  0  0  0  0  0  0  0  0  0  0
  184.6270  177.8750  142.6520 C   0  0  0  0  0  2  0  0  0  0  0  0
  186.9830  177.3480  144.5990 C   0  0  0  0  0  2  0  0  0  0  0  0
  189.3250  176.9370  142.3680 N   0  0  0  0  0  2  0  0  0  0  0  0
  190.6840  177.1270  142.7680 C   0  0  0  0  0  0  0  0  0  0  0  0
  191.5410  176.2500  142.4840 O   0  0  0  0  0  0  0  0  0  0  0  0
  191.0920  178.3230  143.5600 C   0  0  0  0  0  2  0  0  0  0  0  0
  191.5870  177.8780  144.9250 C   0  0  0  0  0  2  0  0  0  0  0  0
  189.2080  178.1490  146.6660 C   0  0  0  0  0  1  0  0  0  0  0  0
  190.8240  176.6430  145.4040 C   0  0  2  0  0  3  0  0  0  0  0  0
  190.0720  176.9010  146.7210 C   0  0  1  0  0  3  0  0  0  0  0  0
  191.7550  175.7530  147.9930 O   0  0  0  0  0  0  0  0  0  0  0  0
  192.6090  175.6680  146.8780 C   0  0  0  0  0  2  0  0  0  0  0  0
  191.7890  175.4670  145.5970 C   0  0  0  0  0  2  0  0  0  0  0  0
  191.0610  176.9710  147.8870 C   0  0  0  0  0  2  0  0  0  0  0  0
  187.9840  178.8470  141.0500 S   0  0  0  0  0  0  0  0  0  0  0  0
  188.5390  177.4580  140.0150 C   0  0  0  0  0  2  0  0  0  0  0  0
  189.7540  177.8600  139.1840 C   0  0  0  0  0  2  0  0  0  0  0  0
  189.6770  177.4000  137.7200 C   0  0  1  0  0  3  0  0  0  0  0  0
  188.9990  179.6990  137.3810 O   0  0  0  0  0  1  0  0  0  0  0  0
  187.7010  178.0160  136.2950 C   0  0  0  0  0  1  0  0  0  0  0  0
  189.0750  178.4430  136.7750 C   0  0  2  0  0  3  0  0  0  0  0  0
  190.9190  176.9650  137.2480 O   0  0  0  0  0  0  0  0  0  0  0  0
  190.7260  175.6260  136.9020 C   0  0  0  0  0  2  0  0  0  0  0  0
  190.8110  174.8350  138.0480 O   0  0  0  0  0  1  0  0  0  0  0  0
  1 25  1  6  0  0  0
  2  1  1  6  0  0  0
  2  7  1  0  0  0  0
  2 12  1  0  0  0  0
  3  8  1  0  0  0  0
  5  8  1  0  0  0  0
  7 11  1  6  0  0  0
  7  3  1  0  0  0  0
  8  4  2  0  0  0  0
  9 10  1  0  0  0  0
 10  6  2  0  0  0  0
 10  5  1  0  0  0  0
 11  9  1  0  0  0  0
 12  3  1  0  0  0  0
 13  1  1  0  0  0  0
 13 14  1  0  0  0  0
 14 16  1  0  0  0  0
 15 14  2  0  0  0  0
 16 17  1  0  0  0  0
 19 17  1  1  0  0  0
 19 23  1  0  0  0  0
 19 20  1  0  0  0  0
 20 18  1  6  0  0  0
 20 24  1  0  0  0  0
 22 21  1  0  0  0  0
 23 22  1  0  0  0  0
 24 21  1  0  0  0  0
 26 25  1  0  0  0  0
 27 26  1  0  0  0  0
 28 27  1  1  0  0  0
 31 30  1  1  0  0  0
 31 29  1  0  0  0  0
 31 28  1  0  0  0  0
 32 28  1  0  0  0  0
 33 32  1  0  0  0  0
 33 34  1  0  0  0  0
M  END
>  <MODEL>
4

>  <REMARK>
 VINA RESULT:      -7.4      1.745      8.030
  Name = 
  12 active torsions:
  status: ('A' for Active; 'I' for Inactive)
    1  A    between atoms: O_1  and  C_15
    2  A    between atoms: O_1  and  C_24
    3  A    between atoms: C_2  and  C_15
    4  A    between atoms: C_2  and  C_25
    5  A    between atoms: C_3  and  C_13
    6  A    between atoms: C_3  and  C_17
    7  A    between atoms: C_4  and  C_31
    8  A    between atoms: N_5  and  C_31
    9  A    between atoms: S_10  and  C_25
   10  A    between atoms: S_10  and  C_31
   11  A    between atoms: C_15  and  C_19
   12  A    between atoms: C_17  and  C_18
                            x       y       z     vdW  Elec       q    Type
                         _______ _______ _______ _____ _____    ______ ____

>  <TORSDO>
F 12

$$$$
=
 OpenBabel10262419153D

 34 36  0  0  1  0  0  0  0  0999 V2000
  188.5940  177.1810  141.9510 C   0  0  1  0  0  3  0  0  0  0  0  0
  187.7000  178.4030  142.1000 C   0  0  2  0  0  3  0  0  0  0  0  0
  185.6300  178.2890  141.3470 N   0  0  0  0  0  0  0  0  0  0  0  0
  183.9990  178.3340  139.7060 O   0  0  0  0  0  0  0  0  0  0  0  0
  183.2480  178.7250  141.8350 O   0  0  0  0  0  0  0  0  0  0  0  0
  182.4650  179.5640  143.8140 O   0  0  0  0  0  0  0  0  0  0  0  0
  186.3540  177.9800  142.5800 C   0  0  2  0  0  3  0  0  0  0  0  0
  184.2740  178.4190  140.9310 C   0  0  0  0  0  0  0  0  0  0  0  0
  184.4500  178.3060  144.0620 C   0  0  0  0  0  2  0  0  0  0  0  0
  183.3660  178.9130  143.2230 C   0  0  0  0  0  0  0  0  0  0  0  0
  185.8230  178.8390  143.7040 C   0  0  0  0  0  2  0  0  0  0  0  0
  186.9570  178.6460  140.8250 C   0  0  0  0  0  2  0  0  0  0  0  0
  189.9750  177.5900  141.7430 N   0  0  0  0  0  2  0  0  0  0  0  0
  190.6800  177.3040  140.5330 C   0  0  0  0  0  0  0  0  0  0  0  0
  191.8930  177.6230  140.4330 O   0  0  0  0  0  0  0  0  0  0  0  0
  189.9870  176.6800  139.3690 C   0  0  0  0  0  2  0  0  0  0  0  0
  190.8870  176.7540  138.1480 C   0  0  0  0  0  2  0  0  0  0  0  0
  193.5500  176.3260  136.9290 C   0  0  0  0  0  1  0  0  0  0  0  0
  191.3320  175.3570  137.7150 C   0  0  2  0  0  3  0  0  0  0  0  0
  192.3870  175.4070  136.5960 C   0  0  1  0  0  3  0  0  0  0  0  0
  190.7470  174.8690  134.9260 O   0  0  0  0  0  0  0  0  0  0  0  0
  189.6910  175.0210  135.8440 C   0  0  0  0  0  2  0  0  0  0  0  0
  190.1260  174.5420  137.2340 C   0  0  0  0  0  2  0  0  0  0  0  0
  191.7320  175.8110  135.2730 C   0  0  0  0  0  2  0  0  0  0  0  0
  188.4930  176.1330  143.4360 S   0  0  0  0  0  0  0  0  0  0  0  0
  189.8970  176.9680  144.2370 C   0  0  0  0  0  2  0  0  0  0  0  0
  189.4040  177.9750  145.2720 C   0  0  0  0  0  2  0  0  0  0  0  0
  189.5310  177.4800  146.7210 C   0  0  1  0  0  3  0  0  0  0  0  0
  187.1180  177.6440  146.6080 O   0  0  0  0  0  1  0  0  0  0  0  0
  188.1280  177.9950  148.7420 C   0  0  0  0  0  1  0  0  0  0  0  0
  188.1870  177.2550  147.4190 C   0  0  2  0  0  3  0  0  0  0  0  0
  190.3300  176.3370  146.8100 O   0  0  0  0  0  0  0  0  0  0  0  0
  191.4410  176.7280  147.5610 C   0  0  0  0  0  2  0  0  0  0  0  0
  192.5530  175.9880  147.1610 O   0  0  0  0  0  1  0  0  0  0  0  0
  1 13  1  1  0  0  0
  1 25  1  0  0  0  0
  2  1  1  6  0  0  0
  2  7  1  0  0  0  0
  3  7  1  0  0  0  0
  4  8  2  0  0  0  0
  5 10  1  0  0  0  0
  7 11  1  1  0  0  0
  8  3  1  0  0  0  0
  8  5  1  0  0  0  0
 10  6  2  0  0  0  0
 10  9  1  0  0  0  0
 11  9  1  0  0  0  0
 12  3  1  0  0  0  0
 12  2  1  0  0  0  0
 14 13  1  0  0  0  0
 15 14  2  0  0  0  0
 16 14  1  0  0  0  0
 17 16  1  0  0  0  0
 19 17  1  6  0  0  0
 20 18  1  1  0  0  0
 20 19  1  0  0  0  0
 21 24  1  0  0  0  0
 21 22  1  0  0  0  0
 22 23  1  0  0  0  0
 23 19  1  0  0  0  0
 24 20  1  0  0  0  0
 25 26  1  0  0  0  0
 26 27  1  0  0  0  0
 28 27  1  6  0  0  0
 28 32  1  0  0  0  0
 28 31  1  0  0  0  0
 29 31  1  0  0  0  0
 31 30  1  1  0  0  0
 32 33  1  0  0  0  0
 34 33  1  0  0  0  0
M  END
>  <MODEL>
5

>  <REMARK>
 VINA RESULT:      -7.2      2.155      5.976
  Name = 
  12 active torsions:
  status: ('A' for Active; 'I' for Inactive)
    1  A    between atoms: O_1  and  C_15
    2  A    between atoms: O_1  and  C_24
    3  A    between atoms: C_2  and  C_15
    4  A    between atoms: C_2  and  C_25
    5  A    between atoms: C_3  and  C_13
    6  A    between atoms: C_3  and  C_17
    7  A    between atoms: C_4  and  C_31
    8  A    between atoms: N_5  and  C_31
    9  A    between atoms: S_10  and  C_25
   10  A    between atoms: S_10  and  C_31
   11  A    between atoms: C_15  and  C_19
   12  A    between atoms: C_17  and  C_18
                            x       y       z     vdW  Elec       q    Type
                         _______ _______ _______ _____ _____    ______ ____

>  <TORSDO>
F 12

$$$$
=
 OpenBabel10262419153D

 34 36  0  0  1  0  0  0  0  0999 V2000
  186.9610  177.6090  142.8730 C   0  0  1  0  0  3  0  0  0  0  0  0
  187.6490  176.6250  143.8090 C   0  0  2  0  0  3  0  0  0  0  0  0
  189.8500  176.6770  143.9530 N   0  0  0  0  0  0  0  0  0  0  0  0
  192.0010  176.2130  143.2380 O   0  0  0  0  0  0  0  0  0  0  0  0
  191.8010  176.7000  145.4680 O   0  0  0  0  0  0  0  0  0  0  0  0
  191.6660  176.7220  147.7510 O   0  0  0  0  0  0  0  0  0  0  0  0
  188.7060  177.3330  144.5860 C   0  0  2  0  0  3  0  0  0  0  0  0
  191.2480  176.5480  144.1890 C   0  0  0  0  0  0  0  0  0  0  0  0
  189.8230  177.7670  146.7050 C   0  0  0  0  0  2  0  0  0  0  0  0
  191.1190  177.0160  146.6560 C   0  0  0  0  0  0  0  0  0  0  0  0
  188.6870  177.0000  146.0600 C   0  0  0  0  0  2  0  0  0  0  0  0
  188.8310  176.0170  143.1230 C   0  0  0  0  0  2  0  0  0  0  0  0
  186.0090  178.4240  143.6130 N   0  0  0  0  0  2  0  0  0  0  0  0
  184.6850  178.6710  143.1350 C   0  0  0  0  0  0  0  0  0  0  0  0
  183.9250  179.4370  143.7820 O   0  0  0  0  0  0  0  0  0  0  0  0
  184.1720  177.9940  141.9080 C   0  0  0  0  0  2  0  0  0  0  0  0
  182.8240  178.5830  141.5330 C   0  0  0  0  0  2  0  0  0  0  0  0
  183.6130  179.8580  138.9800 C   0  0  0  0  0  1  0  0  0  0  0  0
  182.3380  178.0220  140.1970 C   0  0  2  0  0  3  0  0  0  0  0  0
  182.3030  179.0960  139.0960 C   0  0  1  0  0  3  0  0  0  0  0  0
  179.9220  179.3360  139.3040 O   0  0  0  0  0  0  0  0  0  0  0  0
  179.8940  178.5350  140.4600 C   0  0  0  0  0  2  0  0  0  0  0  0
  180.9380  177.4170  140.3540 C   0  0  0  0  0  2  0  0  0  0  0  0
  181.1320  180.0540  139.3310 C   0  0  0  0  0  2  0  0  0  0  0  0
  188.1880  178.6910  142.0740 S   0  0  0  0  0  0  0  0  0  0  0  0
  187.6350  178.2410  140.4000 C   0  0  0  0  0  2  0  0  0  0  0  0
  188.7590  178.4520  139.3890 C   0  0  0  0  0  2  0  0  0  0  0  0
  188.7060  177.4820  138.1990 C   0  0  1  0  0  3  0  0  0  0  0  0
  187.8040  179.3890  137.0100 O   0  0  0  0  0  1  0  0  0  0  0  0
  186.4740  177.4080  137.0450 C   0  0  0  0  0  1  0  0  0  0  0  0
  187.8730  177.9940  137.0210 C   0  0  2  0  0  3  0  0  0  0  0  0
  189.9850  177.1110  137.7750 O   0  0  0  0  0  0  0  0  0  0  0  0
  190.4750  176.2800  138.7840 C   0  0  0  0  0  2  0  0  0  0  0  0
  190.7080  175.0080  138.2620 O   0  0  0  0  0  1  0  0  0  0  0  0
  1 25  1  1  0  0  0
  1 13  1  0  0  0  0
  2  1  1  6  0  0  0
  2  7  1  0  0  0  0
  3  8  1  0  0  0  0
  3  7  1  0  0  0  0
  4  8  2  0  0  0  0
  5 10  1  0  0  0  0
  7 11  1  1  0  0  0
  8  5  1  0  0  0  0
 10  9  1  0  0  0  0
 10  6  2  0  0  0  0
 11  9  1  0  0  0  0
 12  2  1  0  0  0  0
 12  3  1  0  0  0  0
 14 13  1  0  0  0  0
 14 15  2  0  0  0  0
 16 14  1  0  0  0  0
 17 16  1  0  0  0  0
 19 23  1  0  0  0  0
 19 17  1  1  0  0  0
 20 18  1  1  0  0  0
 20 24  1  0  0  0  0
 20 19  1  0  0  0  0
 21 24  1  0  0  0  0
 21 22  1  0  0  0  0
 23 22  1  0  0  0  0
 26 25  1  0  0  0  0
 27 26  1  0  0  0  0
 28 27  1  1  0  0  0
 29 31  1  0  0  0  0
 31 30  1  1  0  0  0
 31 28  1  0  0  0  0
 32 28  1  0  0  0  0
 32 33  1  0  0  0  0
 34 33  1  0  0  0  0
M  END
>  <MODEL>
6

>  <REMARK>
 VINA RESULT:      -7.0      2.563      6.194
  Name = 
  12 active torsions:
  status: ('A' for Active; 'I' for Inactive)
    1  A    between atoms: O_1  and  C_15
    2  A    between atoms: O_1  and  C_24
    3  A    between atoms: C_2  and  C_15
    4  A    between atoms: C_2  and  C_25
    5  A    between atoms: C_3  and  C_13
    6  A    between atoms: C_3  and  C_17
    7  A    between atoms: C_4  and  C_31
    8  A    between atoms: N_5  and  C_31
    9  A    between atoms: S_10  and  C_25
   10  A    between atoms: S_10  and  C_31
   11  A    between atoms: C_15  and  C_19
   12  A    between atoms: C_17  and  C_18
                            x       y       z     vdW  Elec       q    Type
                         _______ _______ _______ _____ _____    ______ ____

>  <TORSDO>
F 12

$$$$
=
 OpenBabel10262419153D

 34 36  0  0  1  0  0  0  0  0999 V2000
  190.6160  177.0750  140.1050 C   0  0  1  0  0  3  0  0  0  0  0  0
  189.7500  178.2990  139.8430 C   0  0  2  0  0  3  0  0  0  0  0  0
  187.8520  178.0280  138.7510 N   0  0  0  0  0  0  0  0  0  0  0  0
  186.5550  177.7400  136.8570 O   0  0  0  0  0  0  0  0  0  0  0  0
  185.4360  178.5410  138.6890 O   0  0  0  0  0  0  0  0  0  0  0  0
  184.3290  179.7510  140.2840 O   0  0  0  0  0  0  0  0  0  0  0  0
  188.3250  177.9720  140.1340 C   0  0  2  0  0  3  0  0  0  0  0  0
  186.6020  178.0670  138.0710 C   0  0  0  0  0  0  0  0  0  0  0  0
  186.1920  178.5770  141.1410 C   0  0  0  0  0  2  0  0  0  0  0  0
  185.3020  179.0010  140.0110 C   0  0  0  0  0  0  0  0  0  0  0  0
  187.6240  179.0350  140.9500 C   0  0  0  0  0  2  0  0  0  0  0  0
  189.2640  178.2810  138.4280 C   0  0  0  0  0  2  0  0  0  0  0  0
  189.9160  176.1410  140.9740 N   0  0  0  0  0  2  0  0  0  0  0  0
  190.2350  176.0040  142.3600 C   0  0  0  0  0  0  0  0  0  0  0  0
  189.6430  175.1340  143.0500 O   0  0  0  0  0  0  0  0  0  0  0  0
  191.2220  176.9120  143.0140 C   0  0  0  0  0  2  0  0  0  0  0  0
  191.5160  176.4100  144.4170 C   0  0  0  0  0  2  0  0  0  0  0  0
  192.0710  175.9320  147.2850 C   0  0  0  0  0  1  0  0  0  0  0  0
  191.3530  177.5320  145.4420 C   0  0  2  0  0  3  0  0  0  0  0  0
  191.0700  176.9900  146.8530 C   0  0  1  0  0  3  0  0  0  0  0  0
  188.7290  177.4920  146.6560 O   0  0  0  0  0  0  0  0  0  0  0  0
  188.8600  177.7970  145.2890 C   0  0  0  0  0  2  0  0  0  0  0  0
  190.2130  178.4690  145.0240 C   0  0  0  0  0  2  0  0  0  0  0  0
  189.6380  176.4550  146.9350 C   0  0  0  0  0  2  0  0  0  0  0  0
  191.0350  176.2450  138.5400 S   0  0  0  0  0  0  0  0  0  0  0  0
  192.7780  176.7600  138.6240 C   0  0  0  0  0  2  0  0  0  0  0  0
  193.5340  176.3010  137.3800 C   0  0  0  0  0  2  0  0  0  0  0  0
  194.2140  174.9340  137.5440 C   0  0  1  0  0  3  0  0  0  0  0  0
  194.0370  174.6770  135.1420 O   0  0  0  0  0  1  0  0  0  0  0  0
  192.6840  173.2430  136.4870 C   0  0  0  0  0  1  0  0  0  0  0  0
  193.9980  173.9890  136.3580 C   0  0  2  0  0  3  0  0  0  0  0  0
  195.5760  175.0620  137.8290 O   0  0  0  0  0  0  0  0  0  0  0  0
  195.7710  174.3340  139.0040 C   0  0  0  0  0  2  0  0  0  0  0  0
  195.9210  175.2160  140.0750 O   0  0  0  0  0  1  0  0  0  0  0  0
  1 25  1  6  0  0  0
  1 13  1  0  0  0  0
  2  1  1  6  0  0  0
  2  7  1  0  0  0  0
  3  7  1  0  0  0  0
  4  8  2  0  0  0  0
  5 10  1  0  0  0  0
  7 11  1  1  0  0  0
  8  5  1  0  0  0  0
  8  3  1  0  0  0  0
 10  6  2  0  0  0  0
 10  9  1  0  0  0  0
 11  9  1  0  0  0  0
 12  3  1  0  0  0  0
 12  2  1  0  0  0  0
 13 14  1  0  0  0  0
 14 16  1  0  0  0  0
 14 15  2  0  0  0  0
 16 17  1  0  0  0  0
 19 17  1  6  0  0  0
 19 20  1  0  0  0  0
 20 24  1  0  0  0  0
 20 18  1  6  0  0  0
 21 24  1  0  0  0  0
 22 21  1  0  0  0  0
 23 22  1  0  0  0  0
 23 19  1  0  0  0  0
 25 26  1  0  0  0  0
 27 26  1  0  0  0  0
 28 27  1  6  0  0  0
 28 32  1  0  0  0  0
 29 31  1  0  0  0  0
 31 30  1  1  0  0  0
 31 28  1  0  0  0  0
 32 33  1  0  0  0  0
 33 34  1  0  0  0  0
M  END
>  <MODEL>
7

>  <REMARK>
 VINA RESULT:      -7.0      3.256      9.520
  Name = 
  12 active torsions:
  status: ('A' for Active; 'I' for Inactive)
    1  A    between atoms: O_1  and  C_15
    2  A    between atoms: O_1  and  C_24
    3  A    between atoms: C_2  and  C_15
    4  A    between atoms: C_2  and  C_25
    5  A    between atoms: C_3  and  C_13
    6  A    between atoms: C_3  and  C_17
    7  A    between atoms: C_4  and  C_31
    8  A    between atoms: N_5  and  C_31
    9  A    between atoms: S_10  and  C_25
   10  A    between atoms: S_10  and  C_31
   11  A    between atoms: C_15  and  C_19
   12  A    between atoms: C_17  and  C_18
                            x       y       z     vdW  Elec       q    Type
                         _______ _______ _______ _____ _____    ______ ____

>  <TORSDO>
F 12

$$$$
=
 OpenBabel10262419153D

 34 36  0  0  1  0  0  0  0  0999 V2000
  189.2360  178.0050  142.1870 C   0  0  1  0  0  3  0  0  0  0  0  0
  189.8870  178.4770  143.4790 C   0  0  2  0  0  3  0  0  0  0  0  0
  189.3070  177.4950  145.3670 N   0  0  0  0  0  0  0  0  0  0  0  0
  187.9270  177.1120  147.1840 O   0  0  0  0  0  0  0  0  0  0  0  0
  190.1050  176.4560  147.4620 O   0  0  0  0  0  0  0  0  0  0  0  0
  192.3080  176.1840  148.0150 O   0  0  0  0  0  0  0  0  0  0  0  0
  190.2840  177.2960  144.2970 C   0  0  2  0  0  3  0  0  0  0  0  0
  189.0740  176.9950  146.6800 C   0  0  0  0  0  0  0  0  0  0  0  0
  191.9280  176.1540  145.6840 C   0  0  0  0  0  2  0  0  0  0  0  0
  191.4530  176.2960  147.0980 C   0  0  0  0  0  0  0  0  0  0  0  0
  191.6820  177.4040  144.8640 C   0  0  0  0  0  2  0  0  0  0  0  0
  188.8490  178.6240  144.5450 C   0  0  0  0  0  2  0  0  0  0  0  0
  190.0330  176.9500  141.5790 N   0  0  0  0  0  2  0  0  0  0  0  0
  190.2480  176.8760  140.1670 C   0  0  0  0  0  0  0  0  0  0  0  0
  190.8910  175.9050  139.6890 O   0  0  0  0  0  0  0  0  0  0  0  0
  189.7690  177.9580  139.2590 C   0  0  0  0  0  2  0  0  0  0  0  0
  189.4590  177.3700  137.8940 C   0  0  0  0  0  2  0  0  0  0  0  0
  189.0180  174.6400  136.8380 C   0  0  0  0  0  1  0  0  0  0  0  0
  188.0590  176.7580  137.8710 C   0  0  2  0  0  3  0  0  0  0  0  0
  187.9140  175.6830  136.7800 C   0  0  1  0  0  3  0  0  0  0  0  0
  186.7430  177.2020  135.3340 O   0  0  0  0  0  0  0  0  0  0  0  0
  187.0230  178.2940  136.1750 C   0  0  0  0  0  2  0  0  0  0  0  0
  187.0070  177.8500  137.6430 C   0  0  0  0  0  2  0  0  0  0  0  0
  187.8530  176.3390  135.3990 C   0  0  0  0  0  2  0  0  0  0  0  0
  187.5570  177.3810  142.5110 S   0  0  0  0  0  0  0  0  0  0  0  0
  186.7860  178.6060  141.4090 C   0  0  0  0  0  2  0  0  0  0  0  0
  185.6660  179.3500  142.1310 C   0  0  0  0  0  2  0  0  0  0  0  0
  184.3730  178.5330  142.2660 C   0  0  1  0  0  3  0  0  0  0  0  0
  182.5510  179.3690  143.6240 O   0  0  0  0  0  1  0  0  0  0  0  0
  184.6910  179.2060  144.6670 C   0  0  0  0  0  1  0  0  0  0  0  0
  183.7280  178.6180  143.6530 C   0  0  2  0  0  3  0  0  0  0  0  0
  183.4470  178.8600  141.2720 O   0  0  0  0  0  0  0  0  0  0  0  0
  183.2470  177.6760  140.5580 C   0  0  0  0  0  2  0  0  0  0  0  0
  182.7490  177.9790  139.2910 O   0  0  0  0  0  1  0  0  0  0  0  0
  1 13  1  1  0  0  0
  1 25  1  0  0  0  0
  2  1  1  6  0  0  0
  2  7  1  0  0  0  0
  2 12  1  0  0  0  0
  3  8  1  0  0  0  0
  7 11  1  1  0  0  0
  7  3  1  0  0  0  0
  8  4  2  0  0  0  0
  8  5  1  0  0  0  0
  9 10  1  0  0  0  0
 10  5  1  0  0  0  0
 10  6  2  0  0  0  0
 11  9  1  0  0  0  0
 12  3  1  0  0  0  0
 14 13  1  0  0  0  0
 15 14  2  0  0  0  0
 16 14  1  0  0  0  0
 17 16  1  0  0  0  0
 19 17  1  6  0  0  0
 20 18  1  6  0  0  0
 20 19  1  0  0  0  0
 21 24  1  0  0  0  0
 21 22  1  0  0  0  0
 22 23  1  0  0  0  0
 23 19  1  0  0  0  0
 24 20  1  0  0  0  0
 26 27  1  0  0  0  0
 26 25  1  0  0  0  0
 28 27  1  1  0  0  0
 28 31  1  0  0  0  0
 29 31  1  0  0  0  0
 31 30  1  1  0  0  0
 32 28  1  0  0  0  0
 33 32  1  0  0  0  0
 34 33  1  0  0  0  0
M  END
>  <MODEL>
8

>  <REMARK>
 VINA RESULT:      -7.0      1.380      2.595
  Name = 
  12 active torsions:
  status: ('A' for Active; 'I' for Inactive)
    1  A    between atoms: O_1  and  C_15
    2  A    between atoms: O_1  and  C_24
    3  A    between atoms: C_2  and  C_15
    4  A    between atoms: C_2  and  C_25
    5  A    between atoms: C_3  and  C_13
    6  A    between atoms: C_3  and  C_17
    7  A    between atoms: C_4  and  C_31
    8  A    between atoms: N_5  and  C_31
    9  A    between atoms: S_10  and  C_25
   10  A    between atoms: S_10  and  C_31
   11  A    between atoms: C_15  and  C_19
   12  A    between atoms: C_17  and  C_18
                            x       y       z     vdW  Elec       q    Type
                         _______ _______ _______ _____ _____    ______ ____

>  <TORSDO>
F 12

$$$$
=
 OpenBabel10262419153D

 34 36  0  0  1  0  0  0  0  0999 V2000
  186.8220  177.6540  142.8620 C   0  0  1  0  0  3  0  0  0  0  0  0
  187.5410  176.6700  143.7740 C   0  0  2  0  0  3  0  0  0  0  0  0
  189.7380  176.7920  143.9250 N   0  0  0  0  0  0  0  0  0  0  0  0
  191.9050  176.4200  143.2050 O   0  0  0  0  0  0  0  0  0  0  0  0
  191.6840  176.8420  145.4460 O   0  0  0  0  0  0  0  0  0  0  0  0
  191.5440  176.8010  147.7290 O   0  0  0  0  0  0  0  0  0  0  0  0
  188.5710  177.3920  144.5720 C   0  0  2  0  0  3  0  0  0  0  0  0
  191.1400  176.7050  144.1620 C   0  0  0  0  0  0  0  0  0  0  0  0
  189.6690  177.8100  146.7050 C   0  0  0  0  0  2  0  0  0  0  0  0
  190.9900  177.1040  146.6410 C   0  0  0  0  0  0  0  0  0  0  0  0
  188.5610  177.0210  146.0370 C   0  0  0  0  0  2  0  0  0  0  0  0
  188.7440  176.1200  143.0760 C   0  0  0  0  0  2  0  0  0  0  0  0
  186.0270  178.5830  143.6520 N   0  0  0  0  0  2  0  0  0  0  0  0
  184.6720  178.8970  143.3230 C   0  0  0  0  0  0  0  0  0  0  0  0
  184.0530  179.7560  144.0020 O   0  0  0  0  0  0  0  0  0  0  0  0
  183.9640  178.1830  142.2200 C   0  0  0  0  0  2  0  0  0  0  0  0
  182.7440  178.9840  141.8030 C   0  0  0  0  0  2  0  0  0  0  0  0
  183.3910  179.5250  138.9660 C   0  0  0  0  0  1  0  0  0  0  0  0
  181.9860  178.2760  140.6810 C   0  0  2  0  0  3  0  0  0  0  0  0
  181.9940  179.0890  139.3740 C   0  0  1  0  0  3  0  0  0  0  0  0
  179.7470  179.8510  139.7480 O   0  0  0  0  0  0  0  0  0  0  0  0
  179.7330  179.3230  141.0520 C   0  0  0  0  0  2  0  0  0  0  0  0
  180.5350  178.0170  141.1020 C   0  0  0  0  0  2  0  0  0  0  0  0
  181.0590  180.2940  139.4970 C   0  0  0  0  0  2  0  0  0  0  0  0
  188.0220  178.5870  141.8610 S   0  0  0  0  0  0  0  0  0  0  0  0
  186.9780  178.5190  140.3730 C   0  0  0  0  0  2  0  0  0  0  0  0
  187.7250  177.8500  139.2220 C   0  0  0  0  0  2  0  0  0  0  0  0
  189.1010  178.4730  138.9390 C   0  0  1  0  0  3  0  0  0  0  0  0
  189.7030  176.1790  138.4500 O   0  0  0  0  0  1  0  0  0  0  0  0
  191.1060  177.3640  139.9750 C   0  0  0  0  0  1  0  0  0  0  0  0
  190.2180  177.4430  138.7470 C   0  0  2  0  0  3  0  0  0  0  0  0
  189.0570  179.3600  137.8600 O   0  0  0  0  0  0  0  0  0  0  0  0
  188.2380  178.7390  136.9140 C   0  0  0  0  0  2  0  0  0  0  0  0
  187.2900  179.6530  136.4530 O   0  0  0  0  0  1  0  0  0  0  0  0
  1 25  1  1  0  0  0
  1 13  1  0  0  0  0
  2  1  1  6  0  0  0
  2  7  1  0  0  0  0
  3  8  1  0  0  0  0
  3  7  1  0  0  0  0
  4  8  2  0  0  0  0
  5 10  1  0  0  0  0
  7 11  1  1  0  0  0
  8  5  1  0  0  0  0
 10  9  1  0  0  0  0
 10  6  2  0  0  0  0
 11  9  1  0  0  0  0
 12  2  1  0  0  0  0
 12  3  1  0  0  0  0
 14 13  1  0  0  0  0
 14 15  2  0  0  0  0
 16 14  1  0  0  0  0
 17 16  1  0  0  0  0
 19 23  1  0  0  0  0
 19 17  1  1  0  0  0
 20 18  1  1  0  0  0
 20 24  1  0  0  0  0
 20 19  1  0  0  0  0
 21 22  1  0  0  0  0
 22 23  1  0  0  0  0
 24 21  1  0  0  0  0
 26 25  1  0  0  0  0
 27 26  1  0  0  0  0
 28 27  1  6  0  0  0
 29 31  1  0  0  0  0
 31 28  1  0  0  0  0
 31 30  1  1  0  0  0
 32 28  1  0  0  0  0
 33 32  1  0  0  0  0
 34 33  1  0  0  0  0
M  END
>  <MODEL>
9

>  <REMARK>
 VINA RESULT:      -7.0      2.578      6.395
  Name = 
  12 active torsions:
  status: ('A' for Active; 'I' for Inactive)
    1  A    between atoms: O_1  and  C_15
    2  A    between atoms: O_1  and  C_24
    3  A    between atoms: C_2  and  C_15
    4  A    between atoms: C_2  and  C_25
    5  A    between atoms: C_3  and  C_13
    6  A    between atoms: C_3  and  C_17
    7  A    between atoms: C_4  and  C_31
    8  A    between atoms: N_5  and  C_31
    9  A    between atoms: S_10  and  C_25
   10  A    between atoms: S_10  and  C_31
   11  A    between atoms: C_15  and  C_19
   12  A    between atoms: C_17  and  C_18
                            x       y       z     vdW  Elec       q    Type
                         _______ _______ _______ _____ _____    ______ ____

>  <TORSDO>
F 12

$$$$
