=
 OpenBabel10262421113D

 32 36  0  0  1  0  0  0  0  0999 V2000
  187.0760  177.4750  143.3840 C   0  0  2  0  0  3  0  0  0  0  0  0
  189.3730  177.8300  142.3500 C   0  0  1  0  0  3  0  0  0  0  0  0
  186.1680  177.8190  144.5680 C   0  0  0  0  0  2  0  0  0  0  0  0
  188.4850  178.0590  143.5990 C   0  0  2  0  0  3  0  0  0  0  0  0
  190.1400  176.5070  142.4310 C   0  0  0  0  0  2  0  0  0  0  0  0
  188.5630  177.9120  141.0430 C   0  0  1  0  0  3  0  0  0  0  0  0
  191.4180  176.6130  143.2750 C   0  0  2  0  0  3  0  0  0  0  0  0
  189.0820  177.5080  144.9140 C   0  0  1  0  0  3  0  0  0  0  0  0
  190.4840  178.0300  145.2460 C   0  0  0  0  0  2  0  0  0  0  0  0
  188.1560  177.8240  146.0880 C   0  0  0  0  0  2  0  0  0  0  0  0
  187.3860  178.6530  141.2440 O   0  0  0  0  0  0  0  0  0  0  0  0
  191.6220  175.3570  144.1010 C   0  0  0  0  0  1  0  0  0  0  0  0
  186.5140  177.8230  141.9770 C   0  0  2  0  0  3  0  0  0  0  0  0
  191.5300  177.8850  144.1320 C   0  0  0  0  0  2  0  0  0  0  0  0
  186.7630  177.2500  145.8510 C   0  0  0  0  0  2  0  0  0  0  0  0
  182.9450  178.7710  140.6840 C   0  0  0  0  0  0  0  0  0  0  0  0
  182.2120  178.7130  139.5050 O   0  0  0  0  0  1  0  0  0  0  0  0
  185.1110  178.3660  141.9540 C   0  0  0  0  0  0  0  0  0  0  0  0
  182.3270  179.0490  141.8330 C   0  0  0  0  0  3  0  0  0  0  0  0
  184.4710  178.6310  143.1000 C   0  0  0  0  0  3  0  0  0  0  0  0
  184.3920  178.4980  140.6730 C   0  0  0  0  0  0  0  0  0  0  0  0
  184.9950  178.3300  139.5800 O   0  0  0  0  0  0  0  0  0  0  0  0
  183.0750  179.1980  143.1370 C   0  0  2  0  0  3  0  0  0  0  0  0
  180.9800  178.5160  144.2310 C   0  0  0  0  0  2  0  0  0  0  0  0
  182.3090  178.5930  144.2680 C   0  0  0  0  0  3  0  0  0  0  0  0
  189.3810  178.5740  139.9420 C   0  0  0  0  0  2  0  0  0  0  0  0
  189.2420  176.5560  138.3420 C   0  0  0  0  0  3  0  0  0  0  0  0
  188.7940  177.5740  136.5030 O   0  0  0  0  0  0  0  0  0  0  0  0
  188.8790  178.5000  137.4190 C   0  0  0  0  0  0  0  0  0  0  0  0
  188.7280  179.7320  137.2090 O   0  0  0  0  0  0  0  0  0  0  0  0
  189.1610  177.9080  138.6240 C   0  0  0  0  0  0  0  0  0  0  0  0
  189.0070  176.4260  137.0480 O   0  0  0  0  0  0  0  0  0  0  0  0
  1  4  1  0  0  0  0
  1  3  1  1  0  0  0
  2  5  1  1  0  0  0
  2  4  1  0  0  0  0
  3 15  1  0  0  0  0
  4  8  1  0  0  0  0
  5  7  1  0  0  0  0
  6 11  1  0  0  0  0
  6  2  1  0  0  0  0
  7 12  1  0  0  0  0
  7 14  1  0  0  0  0
  8  9  1  0  0  0  0
  8 10  1  0  0  0  0
 11 13  1  0  0  0  0
 13  1  1  0  0  0  0
 14  9  1  0  0  0  0
 15 10  1  0  0  0  0
 16 19  2  0  0  0  0
 17 16  1  0  0  0  0
 18 13  1  0  0  0  0
 18 20  2  0  0  0  0
 19 23  1  0  0  0  0
 20 23  1  0  0  0  0
 21 16  1  0  0  0  0
 21 18  1  0  0  0  0
 22 21  2  0  0  0  0
 23 25  1  0  0  0  0
 24 25  2  0  0  0  0
 26  6  1  0  0  0  0
 27 31  2  0  0  0  0
 28 32  1  0  0  0  0
 28 29  1  0  0  0  0
 29 31  1  0  0  0  0
 30 29  2  0  0  0  0
 31 26  1  0  0  0  0
 32 27  1  0  0  0  0
M  END
>  <MODEL>
1

>  <REMARK>
 VINA RESULT:      -9.8      0.000      0.000
  Name = 
  4 active torsions:
  status: ('A' for Active; 'I' for Inactive)
    1  A    between atoms: C_10  and  C_32
    2  A    between atoms: C_15  and  C_26
    3  A    between atoms: C_16  and  C_27
    4  A    between atoms: C_28  and  C_32
                            x       y       z     vdW  Elec       q    Type
                         _______ _______ _______ _____ _____    ______ ____

>  <TORSDO>
F 4

$$$$
=
 OpenBabel10262421113D

 32 36  0  0  1  0  0  0  0  0999 V2000
  186.9850  178.3880  142.1710 C   0  0  2  0  0  3  0  0  0  0  0  0
  188.3280  177.3040  144.0390 C   0  0  1  0  0  3  0  0  0  0  0  0
  186.6120  178.3100  140.6870 C   0  0  0  0  0  2  0  0  0  0  0  0
  188.0410  177.3220  142.5160 C   0  0  2  0  0  3  0  0  0  0  0  0
  189.4700  178.2540  144.4140 C   0  0  0  0  0  2  0  0  0  0  0  0
  187.0680  177.6130  144.8680 C   0  0  1  0  0  3  0  0  0  0  0  0
  190.8560  177.6340  144.1830 C   0  0  2  0  0  3  0  0  0  0  0  0
  189.2940  177.5250  141.6340 C   0  0  1  0  0  3  0  0  0  0  0  0
  190.4170  176.5110  141.8780 C   0  0  0  0  0  2  0  0  0  0  0  0
  188.9130  177.4800  140.1550 C   0  0  0  0  0  2  0  0  0  0  0  0
  185.9110  177.3340  144.1200 O   0  0  0  0  0  0  0  0  0  0  0  0
  191.8240  178.6700  143.6420 C   0  0  0  0  0  1  0  0  0  0  0  0
  185.7930  178.3670  143.1690 C   0  0  2  0  0  3  0  0  0  0  0  0
  190.8640  176.3490  143.3380 C   0  0  0  0  0  2  0  0  0  0  0  0
  187.8560  178.5330  139.8350 C   0  0  0  0  0  2  0  0  0  0  0  0
  181.9840  179.0830  142.6330 C   0  0  0  0  0  0  0  0  0  0  0  0
  180.9330  179.6960  143.3040 O   0  0  0  0  0  1  0  0  0  0  0  0
  184.4240  178.3690  142.5460 C   0  0  0  0  0  0  0  0  0  0  0  0
  181.8430  178.7480  141.3500 C   0  0  0  0  0  3  0  0  0  0  0  0
  184.2690  178.0530  141.2540 C   0  0  0  0  0  3  0  0  0  0  0  0
  183.2600  178.8330  143.3250 C   0  0  0  0  0  0  0  0  0  0  0  0
  183.3650  179.0600  144.5590 O   0  0  0  0  0  0  0  0  0  0  0  0
  182.9190  178.0150  140.5840 C   0  0  2  0  0  3  0  0  0  0  0  0
  183.5500  179.7310  138.9390 C   0  0  0  0  0  2  0  0  0  0  0  0
  183.0300  178.5310  139.1860 C   0  0  0  0  0  3  0  0  0  0  0  0
  187.0440  176.7820  146.1440 C   0  0  0  0  0  2  0  0  0  0  0  0
  187.2880  178.5310  148.0230 C   0  0  0  0  0  3  0  0  0  0  0  0
  189.2820  178.0810  148.6890 O   0  0  0  0  0  0  0  0  0  0  0  0
  189.0220  177.2400  147.7250 C   0  0  0  0  0  0  0  0  0  0  0  0
  189.8220  176.3640  147.3040 O   0  0  0  0  0  0  0  0  0  0  0  0
  187.7530  177.4760  147.2600 C   0  0  0  0  0  0  0  0  0  0  0  0
  188.2570  178.8430  148.8650 O   0  0  0  0  0  0  0  0  0  0  0  0
  1  3  1  6  0  0  0
  1  4  1  0  0  0  0
  1 13  1  0  0  0  0
  2  5  1  6  0  0  0
  2  6  1  0  0  0  0
  4  2  1  0  0  0  0
  6 26  1  0  0  0  0
  7  5  1  0  0  0  0
  8  9  1  0  0  0  0
  8  4  1  0  0  0  0
  9 14  1  0  0  0  0
 10  8  1  0  0  0  0
 11  6  1  0  0  0  0
 12  7  1  0  0  0  0
 13 11  1  0  0  0  0
 14  7  1  0  0  0  0
 15 10  1  0  0  0  0
 15  3  1  0  0  0  0
 16 17  1  0  0  0  0
 16 21  1  0  0  0  0
 18 13  1  0  0  0  0
 18 21  1  0  0  0  0
 19 16  2  0  0  0  0
 20 18  2  0  0  0  0
 21 22  2  0  0  0  0
 23 20  1  0  0  0  0
 23 19  1  0  0  0  0
 24 25  2  0  0  0  0
 25 23  1  0  0  0  0
 26 31  1  0  0  0  0
 27 32  1  0  0  0  0
 28 32  1  0  0  0  0
 29 28  1  0  0  0  0
 30 29  2  0  0  0  0
 31 29  1  0  0  0  0
 31 27  2  0  0  0  0
M  END
>  <MODEL>
2

>  <REMARK>
 VINA RESULT:      -9.6      2.944      5.743
  Name = 
  4 active torsions:
  status: ('A' for Active; 'I' for Inactive)
    1  A    between atoms: C_10  and  C_32
    2  A    between atoms: C_15  and  C_26
    3  A    between atoms: C_16  and  C_27
    4  A    between atoms: C_28  and  C_32
                            x       y       z     vdW  Elec       q    Type
                         _______ _______ _______ _____ _____    ______ ____

>  <TORSDO>
F 4

$$$$
=
 OpenBabel10262421113D

 32 36  0  0  1  0  0  0  0  0999 V2000
  189.6430  177.8930  143.5520 C   0  0  2  0  0  3  0  0  0  0  0  0
  187.7940  177.3260  145.2020 C   0  0  1  0  0  3  0  0  0  0  0  0
  191.0230  177.4840  143.0250 C   0  0  0  0  0  2  0  0  0  0  0  0
  189.2400  177.0090  144.7460 C   0  0  2  0  0  3  0  0  0  0  0  0
  187.7610  178.4210  146.2730 C   0  0  0  0  0  2  0  0  0  0  0  0
  186.8820  177.6960  144.0180 C   0  0  1  0  0  3  0  0  0  0  0  0
  188.0470  177.8800  147.6820 C   0  0  2  0  0  3  0  0  0  0  0  0
  190.3010  177.1270  145.8640 C   0  0  1  0  0  3  0  0  0  0  0  0
  190.0150  176.2790  147.1080 C   0  0  0  0  0  2  0  0  0  0  0  0
  191.6800  176.7510  145.3260 C   0  0  0  0  0  2  0  0  0  0  0  0
  187.4040  177.1770  142.8200 O   0  0  0  0  0  0  0  0  0  0  0  0
  188.9000  178.8590  148.4690 C   0  0  0  0  0  1  0  0  0  0  0  0
  188.5130  177.9810  142.4880 C   0  0  2  0  0  3  0  0  0  0  0  0
  188.6220  176.4550  147.7300 C   0  0  0  0  0  2  0  0  0  0  0  0
  192.0570  177.6270  144.1360 C   0  0  0  0  0  2  0  0  0  0  0  0
  188.7170  178.3080  138.5950 C   0  0  0  0  0  0  0  0  0  0  0  0
  188.0850  179.0030  137.5710 O   0  0  0  0  0  1  0  0  0  0  0  0
  188.9400  177.7450  141.0650 C   0  0  0  0  0  0  0  0  0  0  0  0
  189.8550  177.6580  138.3470 C   0  0  0  0  0  3  0  0  0  0  0  0
  190.0890  177.1100  140.8010 C   0  0  0  0  0  3  0  0  0  0  0  0
  188.1530  178.3150  139.9550 C   0  0  0  0  0  0  0  0  0  0  0  0
  187.0320  178.8460  140.1720 O   0  0  0  0  0  0  0  0  0  0  0  0
  190.5550  176.8260  139.3960 C   0  0  2  0  0  3  0  0  0  0  0  0
  192.7320  176.4010  138.3340 C   0  0  0  0  0  2  0  0  0  0  0  0
  192.0370  176.9860  139.3080 C   0  0  0  0  0  3  0  0  0  0  0  0
  185.4780  177.1440  144.2240 C   0  0  0  0  0  2  0  0  0  0  0  0
  183.8650  178.6070  142.8420 C   0  0  0  0  0  3  0  0  0  0  0  0
  183.0440  179.8300  144.4060 O   0  0  0  0  0  0  0  0  0  0  0  0
  183.8860  179.0170  144.9850 C   0  0  0  0  0  0  0  0  0  0  0  0
  184.1340  179.0030  146.2190 O   0  0  0  0  0  0  0  0  0  0  0  0
  184.4420  178.2020  144.0320 C   0  0  0  0  0  0  0  0  0  0  0  0
  183.0320  179.5870  143.1410 O   0  0  0  0  0  0  0  0  0  0  0  0
  1  3  1  6  0  0  0
  1  4  1  0  0  0  0
  2  5  1  1  0  0  0
  3 15  1  0  0  0  0
  4  2  1  0  0  0  0
  4  8  1  0  0  0  0
  5  7  1  0  0  0  0
  6 26  1  0  0  0  0
  6  2  1  0  0  0  0
  7 14  1  0  0  0  0
  7 12  1  0  0  0  0
  8  9  1  0  0  0  0
  9 14  1  0  0  0  0
 10  8  1  0  0  0  0
 11  6  1  0  0  0  0
 13 11  1  0  0  0  0
 13  1  1  0  0  0  0
 15 10  1  0  0  0  0
 16 21  1  0  0  0  0
 17 16  1  0  0  0  0
 18 13  1  0  0  0  0
 19 16  2  0  0  0  0
 19 23  1  0  0  0  0
 20 18  2  0  0  0  0
 21 22  2  0  0  0  0
 21 18  1  0  0  0  0
 23 20  1  0  0  0  0
 24 25  2  0  0  0  0
 25 23  1  0  0  0  0
 27 32  1  0  0  0  0
 27 31  2  0  0  0  0
 28 29  1  0  0  0  0
 29 30  2  0  0  0  0
 31 26  1  0  0  0  0
 31 29  1  0  0  0  0
 32 28  1  0  0  0  0
M  END
>  <MODEL>
3

>  <REMARK>
 VINA RESULT:      -9.5      2.164      6.486
  Name = 
  4 active torsions:
  status: ('A' for Active; 'I' for Inactive)
    1  A    between atoms: C_10  and  C_32
    2  A    between atoms: C_15  and  C_26
    3  A    between atoms: C_16  and  C_27
    4  A    between atoms: C_28  and  C_32
                            x       y       z     vdW  Elec       q    Type
                         _______ _______ _______ _____ _____    ______ ____

>  <TORSDO>
F 4

$$$$
=
 OpenBabel10262421113D

 32 36  0  0  1  0  0  0  0  0999 V2000
  184.8570  178.9850  141.7990 C   0  0  2  0  0  3  0  0  0  0  0  0
  184.1940  178.6990  139.3610 C   0  0  1  0  0  3  0  0  0  0  0  0
  184.5370  178.5800  143.2420 C   0  0  0  0  0  2  0  0  0  0  0  0
  183.8080  178.4070  140.8320 C   0  0  2  0  0  3  0  0  0  0  0  0
  183.6050  180.0260  138.8710 C   0  0  0  0  0  2  0  0  0  0  0  0
  185.7180  178.6680  139.1470 C   0  0  1  0  0  3  0  0  0  0  0  0
  182.1420  179.8950  138.4210 C   0  0  2  0  0  3  0  0  0  0  0  0
  182.4000  178.9040  141.2320 C   0  0  1  0  0  3  0  0  0  0  0  0
  181.2630  178.3830  140.3470 C   0  0  0  0  0  2  0  0  0  0  0  0
  182.0980  178.5270  142.6820 C   0  0  0  0  0  2  0  0  0  0  0  0
  186.3370  177.9070  140.1530 O   0  0  0  0  0  0  0  0  0  0  0  0
  181.3420  181.1160  138.8380 C   0  0  0  0  0  1  0  0  0  0  0  0
  186.3080  178.6940  141.3220 C   0  0  2  0  0  3  0  0  0  0  0  0
  181.4470  178.5880  138.8360 C   0  0  0  0  0  2  0  0  0  0  0  0
  183.1540  179.0970  143.6230 C   0  0  0  0  0  2  0  0  0  0  0  0
  189.6070  177.7930  143.2220 C   0  0  0  0  0  0  0  0  0  0  0  0
  190.9790  177.9200  143.0480 O   0  0  0  0  0  1  0  0  0  0  0  0
  187.2370  178.1390  142.3670 C   0  0  0  0  0  0  0  0  0  0  0  0
  189.1220  177.4340  144.4120 C   0  0  0  0  0  3  0  0  0  0  0  0
  186.7670  177.7930  143.5720 C   0  0  0  0  0  3  0  0  0  0  0  0
  188.6880  178.0830  142.1080 C   0  0  0  0  0  0  0  0  0  0  0  0
  189.1440  178.3280  140.9600 O   0  0  0  0  0  0  0  0  0  0  0  0
  187.6470  177.2090  144.6480 C   0  0  2  0  0  3  0  0  0  0  0  0
  185.9550  178.0050  146.2450 C   0  0  0  0  0  2  0  0  0  0  0  0
  187.2310  177.7310  145.9850 C   0  0  0  0  0  3  0  0  0  0  0  0
  186.0600  178.0640  137.7910 C   0  0  0  0  0  2  0  0  0  0  0  0
  188.0480  176.4220  137.8490 C   0  0  0  0  0  3  0  0  0  0  0  0
  189.6720  177.7980  137.5500 O   0  0  0  0  0  0  0  0  0  0  0  0
  188.5800  178.5140  137.5280 C   0  0  0  0  0  0  0  0  0  0  0  0
  188.5460  179.7620  137.3690 O   0  0  0  0  0  0  0  0  0  0  0  0
  187.5020  177.6850  137.7100 C   0  0  0  0  0  0  0  0  0  0  0  0
  189.3570  176.5630  137.7380 O   0  0  0  0  0  0  0  0  0  0  0  0
  1  3  1  1  0  0  0
  2  5  1  1  0  0  0
  2  4  1  0  0  0  0
  3 15  1  0  0  0  0
  4  8  1  0  0  0  0
  4  1  1  0  0  0  0
  6  2  1  0  0  0  0
  6 11  1  0  0  0  0
  7 14  1  0  0  0  0
  7 12  1  0  0  0  0
  7  5  1  0  0  0  0
  8 10  1  0  0  0  0
  9  8  1  0  0  0  0
 10 15  1  0  0  0  0
 11 13  1  0  0  0  0
 13  1  1  0  0  0  0
 13 18  1  0  0  0  0
 14  9  1  0  0  0  0
 16 19  2  0  0  0  0
 17 16  1  0  0  0  0
 18 20  2  0  0  0  0
 19 23  1  0  0  0  0
 20 23  1  0  0  0  0
 21 18  1  0  0  0  0
 21 16  1  0  0  0  0
 22 21  2  0  0  0  0
 23 25  1  0  0  0  0
 25 24  2  0  0  0  0
 26  6  1  0  0  0  0
 28 32  1  0  0  0  0
 29 28  1  0  0  0  0
 29 31  1  0  0  0  0
 30 29  2  0  0  0  0
 31 26  1  0  0  0  0
 31 27  2  0  0  0  0
 32 27  1  0  0  0  0
M  END
>  <MODEL>
4

>  <REMARK>
 VINA RESULT:      -9.3      1.643      6.067
  Name = 
  4 active torsions:
  status: ('A' for Active; 'I' for Inactive)
    1  A    between atoms: C_10  and  C_32
    2  A    between atoms: C_15  and  C_26
    3  A    between atoms: C_16  and  C_27
    4  A    between atoms: C_28  and  C_32
                            x       y       z     vdW  Elec       q    Type
                         _______ _______ _______ _____ _____    ______ ____

>  <TORSDO>
F 4

$$$$
=
 OpenBabel10262421113D

 32 36  0  0  1  0  0  0  0  0999 V2000
  187.3200  177.4750  143.2700 C   0  0  2  0  0  3  0  0  0  0  0  0
  189.6410  177.6510  142.2440 C   0  0  1  0  0  3  0  0  0  0  0  0
  186.4160  177.9450  144.4150 C   0  0  0  0  0  2  0  0  0  0  0  0
  188.7510  178.0090  143.4610 C   0  0  2  0  0  3  0  0  0  0  0  0
  190.3450  176.3030  142.4310 C   0  0  0  0  0  2  0  0  0  0  0  0
  188.8480  177.6740  140.9240 C   0  0  1  0  0  3  0  0  0  0  0  0
  191.6190  176.4130  143.2810 C   0  0  2  0  0  3  0  0  0  0  0  0
  189.3090  177.5290  144.8210 C   0  0  1  0  0  3  0  0  0  0  0  0
  190.7310  178.0100  145.1320 C   0  0  0  0  0  2  0  0  0  0  0  0
  188.3880  177.9710  145.9560 C   0  0  0  0  0  2  0  0  0  0  0  0
  187.7040  178.4790  141.0550 O   0  0  0  0  0  0  0  0  0  0  0  0
  191.7560  175.2120  144.1980 C   0  0  0  0  0  1  0  0  0  0  0  0
  186.7880  177.7450  141.8340 C   0  0  2  0  0  3  0  0  0  0  0  0
  191.7800  177.7370  144.0450 C   0  0  0  0  0  2  0  0  0  0  0  0
  186.9720  177.4450  145.7430 C   0  0  0  0  0  2  0  0  0  0  0  0
  183.3070  178.8170  140.4050 C   0  0  0  0  0  0  0  0  0  0  0  0
  182.6110  178.7640  139.2050 O   0  0  0  0  0  1  0  0  0  0  0  0
  185.4120  178.3470  141.7540 C   0  0  0  0  0  0  0  0  0  0  0  0
  182.6650  179.1480  141.5270 C   0  0  0  0  0  3  0  0  0  0  0  0
  184.7480  178.6660  142.8730 C   0  0  0  0  0  3  0  0  0  0  0  0
  184.7400  178.4810  140.4470 C   0  0  0  0  0  0  0  0  0  0  0  0
  185.3700  178.2630  139.3790 O   0  0  0  0  0  0  0  0  0  0  0  0
  183.3770  179.2940  142.8520 C   0  0  2  0  0  3  0  0  0  0  0  0
  182.9230  178.9060  145.2370 C   0  0  0  0  0  2  0  0  0  0  0  0
  182.5500  178.7480  143.9690 C   0  0  0  0  0  3  0  0  0  0  0  0
  189.7070  178.2160  139.7890 C   0  0  0  0  0  2  0  0  0  0  0  0
  189.6070  176.2290  138.1470 C   0  0  0  0  0  3  0  0  0  0  0  0
  191.6880  175.6940  138.0890 O   0  0  0  0  0  0  0  0  0  0  0  0
  191.5980  176.7190  138.8930 C   0  0  0  0  0  0  0  0  0  0  0  0
  192.5710  177.2430  139.4950 O   0  0  0  0  0  0  0  0  0  0  0  0
  190.2860  177.1110  138.9670 C   0  0  0  0  0  0  0  0  0  0  0  0
  190.5110  175.4060  137.6480 O   0  0  0  0  0  0  0  0  0  0  0  0
  1  4  1  0  0  0  0
  1  3  1  1  0  0  0
  2  5  1  1  0  0  0
  2  4  1  0  0  0  0
  3 15  1  0  0  0  0
  4  8  1  0  0  0  0
  5  7  1  0  0  0  0
  6 11  1  0  0  0  0
  6  2  1  0  0  0  0
  7 14  1  0  0  0  0
  7 12  1  0  0  0  0
  8  9  1  0  0  0  0
  8 10  1  0  0  0  0
 11 13  1  0  0  0  0
 13  1  1  0  0  0  0
 14  9  1  0  0  0  0
 15 10  1  0  0  0  0
 16 21  1  0  0  0  0
 16 19  2  0  0  0  0
 17 16  1  0  0  0  0
 18 13  1  0  0  0  0
 18 20  2  0  0  0  0
 19 23  1  0  0  0  0
 21 18  1  0  0  0  0
 22 21  2  0  0  0  0
 23 20  1  0  0  0  0
 23 25  1  0  0  0  0
 25 24  2  0  0  0  0
 26  6  1  0  0  0  0
 27 31  2  0  0  0  0
 28 29  1  0  0  0  0
 29 31  1  0  0  0  0
 29 30  2  0  0  0  0
 31 26  1  0  0  0  0
 32 28  1  0  0  0  0
 32 27  1  0  0  0  0
M  END
>  <MODEL>
5

>  <REMARK>
 VINA RESULT:      -9.0      1.180      1.453
  Name = 
  4 active torsions:
  status: ('A' for Active; 'I' for Inactive)
    1  A    between atoms: C_10  and  C_32
    2  A    between atoms: C_15  and  C_26
    3  A    between atoms: C_16  and  C_27
    4  A    between atoms: C_28  and  C_32
                            x       y       z     vdW  Elec       q    Type
                         _______ _______ _______ _____ _____    ______ ____

>  <TORSDO>
F 4

$$$$
=
 OpenBabel10262421113D

 32 36  0  0  1  0  0  0  0  0999 V2000
  186.3650  177.7590  142.7610 C   0  0  2  0  0  3  0  0  0  0  0  0
  184.1250  178.8160  142.1810 C   0  0  1  0  0  3  0  0  0  0  0  0
  187.8750  177.8060  142.5100 C   0  0  0  0  0  2  0  0  0  0  0  0
  185.6360  178.7600  141.8450 C   0  0  2  0  0  3  0  0  0  0  0  0
  183.3210  177.8040  141.3590 C   0  0  0  0  0  2  0  0  0  0  0  0
  183.8610  178.6280  143.6860 C   0  0  1  0  0  3  0  0  0  0  0  0
  182.9890  178.3150  139.9500 C   0  0  2  0  0  3  0  0  0  0  0  0
  185.9480  178.4360  140.3660 C   0  0  1  0  0  3  0  0  0  0  0  0
  185.2870  179.3770  139.3530 C   0  0  0  0  0  2  0  0  0  0  0  0
  187.4580  178.4520  140.1280 C   0  0  0  0  0  2  0  0  0  0  0  0
  185.0080  178.9590  144.4280 O   0  0  0  0  0  0  0  0  0  0  0  0
  183.0940  177.1940  138.9330 C   0  0  0  0  0  1  0  0  0  0  0  0
  185.9200  177.9020  144.2440 C   0  0  2  0  0  3  0  0  0  0  0  0
  183.7710  179.5630  139.5070 C   0  0  0  0  0  2  0  0  0  0  0  0
  188.1630  177.4640  141.0530 C   0  0  0  0  0  2  0  0  0  0  0  0
  187.7910  177.9260  147.6800 C   0  0  0  0  0  0  0  0  0  0  0  0
  187.4860  177.8780  149.0340 O   0  0  0  0  0  1  0  0  0  0  0  0
  187.0350  177.9730  145.2520 C   0  0  0  0  0  0  0  0  0  0  0  0
  189.0530  177.7620  147.2800 C   0  0  0  0  0  3  0  0  0  0  0  0
  188.3050  177.7900  144.8680 C   0  0  0  0  0  3  0  0  0  0  0  0
  186.7230  178.1260  146.6860 C   0  0  0  0  0  0  0  0  0  0  0  0
  185.5480  178.3760  147.0620 O   0  0  0  0  0  0  0  0  0  0  0  0
  189.4620  177.8740  145.8300 C   0  0  2  0  0  3  0  0  0  0  0  0
  191.6240  176.7530  146.1710 C   0  0  0  0  0  2  0  0  0  0  0  0
  190.4900  176.8480  145.4810 C   0  0  0  0  0  3  0  0  0  0  0  0
  182.7050  179.5070  144.1450 C   0  0  0  0  0  2  0  0  0  0  0  0
  180.8400  177.7350  144.3430 C   0  0  0  0  0  3  0  0  0  0  0  0
  179.4620  178.4860  142.8740 O   0  0  0  0  0  0  0  0  0  0  0  0
  180.4690  179.3160  142.8850 C   0  0  0  0  0  0  0  0  0  0  0  0
  180.5640  180.3350  142.1520 O   0  0  0  0  0  0  0  0  0  0  0  0
  181.3860  178.8910  143.8120 C   0  0  0  0  0  0  0  0  0  0  0  0
  179.6820  177.5530  143.7360 O   0  0  0  0  0  0  0  0  0  0  0  0
  1  3  1  1  0  0  0
  1 13  1  0  0  0  0
  2  5  1  6  0  0  0
  2  6  1  0  0  0  0
  4  2  1  0  0  0  0
  4  1  1  0  0  0  0
  6 26  1  0  0  0  0
  6 11  1  0  0  0  0
  7  5  1  0  0  0  0
  8  4  1  0  0  0  0
  9 14  1  0  0  0  0
  9  8  1  0  0  0  0
 10  8  1  0  0  0  0
 10 15  1  0  0  0  0
 12  7  1  0  0  0  0
 13 11  1  0  0  0  0
 13 18  1  0  0  0  0
 14  7  1  0  0  0  0
 15  3  1  0  0  0  0
 16 17  1  0  0  0  0
 18 21  1  0  0  0  0
 19 16  2  0  0  0  0
 20 18  2  0  0  0  0
 20 23  1  0  0  0  0
 21 22  2  0  0  0  0
 21 16  1  0  0  0  0
 23 19  1  0  0  0  0
 25 23  1  0  0  0  0
 25 24  2  0  0  0  0
 28 29  1  0  0  0  0
 28 32  1  0  0  0  0
 29 31  1  0  0  0  0
 30 29  2  0  0  0  0
 31 26  1  0  0  0  0
 31 27  2  0  0  0  0
 32 27  1  0  0  0  0
M  END
>  <MODEL>
6

>  <REMARK>
 VINA RESULT:      -8.8      3.281      7.771
  Name = 
  4 active torsions:
  status: ('A' for Active; 'I' for Inactive)
    1  A    between atoms: C_10  and  C_32
    2  A    between atoms: C_15  and  C_26
    3  A    between atoms: C_16  and  C_27
    4  A    between atoms: C_28  and  C_32
                            x       y       z     vdW  Elec       q    Type
                         _______ _______ _______ _____ _____    ______ ____

>  <TORSDO>
F 4

$$$$
=
 OpenBabel10262421113D

 32 36  0  0  1  0  0  0  0  0999 V2000
  183.8690  178.2120  141.8290 C   0  0  2  0  0  3  0  0  0  0  0  0
  186.2350  178.5860  142.6840 C   0  0  1  0  0  3  0  0  0  0  0  0
  182.4090  178.6630  141.9420 C   0  0  0  0  0  2  0  0  0  0  0  0
  184.7380  178.9350  142.8750 C   0  0  2  0  0  3  0  0  0  0  0  0
  186.6430  177.3580  143.5050 C   0  0  0  0  0  2  0  0  0  0  0  0
  186.5990  178.3950  141.2000 C   0  0  1  0  0  3  0  0  0  0  0  0
  186.9480  177.6990  144.9700 C   0  0  2  0  0  3  0  0  0  0  0  0
  184.1930  178.6480  144.2930 C   0  0  1  0  0  3  0  0  0  0  0  0
  184.9710  179.3270  145.4250 C   0  0  0  0  0  2  0  0  0  0  0  0
  182.7270  179.0690  144.3910 C   0  0  0  0  0  2  0  0  0  0  0  0
  185.6710  179.0600  140.3810 O   0  0  0  0  0  0  0  0  0  0  0  0
  186.4350  176.6090  145.8930 C   0  0  0  0  0  1  0  0  0  0  0  0
  184.4920  178.2880  140.4070 C   0  0  2  0  0  3  0  0  0  0  0  0
  186.4890  179.0940  145.4240 C   0  0  0  0  0  2  0  0  0  0  0  0
  181.8850  178.3540  143.3390 C   0  0  0  0  0  2  0  0  0  0  0  0
  181.9340  178.0610  137.4550 C   0  0  0  0  0  0  0  0  0  0  0  0
  181.3170  177.0860  136.6820 O   0  0  0  0  0  1  0  0  0  0  0  0
  183.5530  178.7050  139.3080 C   0  0  0  0  0  0  0  0  0  0  0  0
  181.4950  179.3200  137.4050 C   0  0  0  0  0  3  0  0  0  0  0  0
  183.0890  179.9610  139.2560 C   0  0  0  0  0  3  0  0  0  0  0  0
  183.0470  177.7030  138.3500 C   0  0  0  0  0  0  0  0  0  0  0  0
  183.5260  176.5390  138.3290 O   0  0  0  0  0  0  0  0  0  0  0  0
  182.1660  180.4400  138.1650 C   0  0  2  0  0  3  0  0  0  0  0  0
  180.3050  180.9920  139.6750 C   0  0  0  0  0  2  0  0  0  0  0  0
  181.1570  181.3850  138.7300 C   0  0  0  0  0  3  0  0  0  0  0  0
  187.9920  178.9400  140.9120 C   0  0  0  0  0  2  0  0  0  0  0  0
  189.1290  177.1660  139.4240 C   0  0  0  0  0  3  0  0  0  0  0  0
  190.4820  176.3000  140.8510 O   0  0  0  0  0  0  0  0  0  0  0  0
  189.8390  177.2420  141.4860 C   0  0  0  0  0  0  0  0  0  0  0  0
  190.0120  177.5360  142.6970 O   0  0  0  0  0  0  0  0  0  0  0  0
  188.9580  177.8390  140.6200 C   0  0  0  0  0  0  0  0  0  0  0  0
  190.0630  176.2560  139.6330 O   0  0  0  0  0  0  0  0  0  0  0  0
  1  3  1  6  0  0  0
  1  4  1  0  0  0  0
  2  4  1  0  0  0  0
  2  5  1  1  0  0  0
  3 15  1  0  0  0  0
  4  8  1  0  0  0  0
  5  7  1  0  0  0  0
  6  2  1  0  0  0  0
  7 14  1  0  0  0  0
  7 12  1  0  0  0  0
  8 10  1  0  0  0  0
  8  9  1  0  0  0  0
 11 13  1  0  0  0  0
 11  6  1  0  0  0  0
 13  1  1  0  0  0  0
 14  9  1  0  0  0  0
 15 10  1  0  0  0  0
 16 21  1  0  0  0  0
 17 16  1  0  0  0  0
 18 13  1  0  0  0  0
 19 16  2  0  0  0  0
 19 23  1  0  0  0  0
 20 18  2  0  0  0  0
 21 18  1  0  0  0  0
 22 21  2  0  0  0  0
 23 25  1  0  0  0  0
 23 20  1  0  0  0  0
 25 24  2  0  0  0  0
 26  6  1  0  0  0  0
 27 32  1  0  0  0  0
 27 31  2  0  0  0  0
 28 29  1  0  0  0  0
 29 30  2  0  0  0  0
 31 26  1  0  0  0  0
 31 29  1  0  0  0  0
 32 28  1  0  0  0  0
M  END
>  <MODEL>
7

>  <REMARK>
 VINA RESULT:      -8.8      2.142      4.232
  Name = 
  4 active torsions:
  status: ('A' for Active; 'I' for Inactive)
    1  A    between atoms: C_10  and  C_32
    2  A    between atoms: C_15  and  C_26
    3  A    between atoms: C_16  and  C_27
    4  A    between atoms: C_28  and  C_32
                            x       y       z     vdW  Elec       q    Type
                         _______ _______ _______ _____ _____    ______ ____

>  <TORSDO>
F 4

$$$$
=
 OpenBabel10262421113D

 32 36  0  0  1  0  0  0  0  0999 V2000
  188.4300  178.3000  143.1300 C   0  0  2  0  0  3  0  0  0  0  0  0
  186.0450  178.1120  143.9940 C   0  0  1  0  0  3  0  0  0  0  0  0
  189.8410  177.7100  143.2060 C   0  0  0  0  0  2  0  0  0  0  0  0
  187.5040  177.6150  144.1520 C   0  0  2  0  0  3  0  0  0  0  0  0
  185.7610  179.3330  144.8740 C   0  0  0  0  0  2  0  0  0  0  0  0
  185.6910  178.4040  142.5240 C   0  0  1  0  0  3  0  0  0  0  0  0
  185.4350  178.9540  146.3260 C   0  0  2  0  0  3  0  0  0  0  0  0
  188.0830  177.7830  145.5750 C   0  0  1  0  0  3  0  0  0  0  0  0
  187.2520  177.1280  146.6840 C   0  0  0  0  0  2  0  0  0  0  0  0
  189.5030  177.2220  145.6380 C   0  0  0  0  0  2  0  0  0  0  0  0
  186.5470  177.6940  141.6650 O   0  0  0  0  0  0  0  0  0  0  0  0
  186.0550  179.9480  147.2910 C   0  0  0  0  0  1  0  0  0  0  0  0
  187.7930  178.3500  141.7130 C   0  0  2  0  0  3  0  0  0  0  0  0
  185.7640  177.5020  146.7110 C   0  0  0  0  0  2  0  0  0  0  0  0
  190.4020  177.9030  144.6100 C   0  0  0  0  0  2  0  0  0  0  0  0
  189.2870  177.9730  138.1160 C   0  0  0  0  0  0  0  0  0  0  0  0
  189.0160  178.4030  136.8240 O   0  0  0  0  0  1  0  0  0  0  0  0
  188.6810  177.8980  140.5860 C   0  0  0  0  0  0  0  0  0  0  0  0
  190.4600  177.3990  138.3900 C   0  0  0  0  0  3  0  0  0  0  0  0
  189.8700  177.3380  140.8450 C   0  0  0  0  0  3  0  0  0  0  0  0
  188.2970  178.1750  139.1880 C   0  0  0  0  0  0  0  0  0  0  0  0
  187.1540  178.6280  138.9160 O   0  0  0  0  0  0  0  0  0  0  0  0
  190.7890  176.8450  139.7570 C   0  0  2  0  0  3  0  0  0  0  0  0
  193.1800  177.0360  139.2170 C   0  0  0  0  0  2  0  0  0  0  0  0
  192.2090  177.1280  140.1230 C   0  0  0  0  0  3  0  0  0  0  0  0
  184.2510  178.0070  142.2270 C   0  0  0  0  0  2  0  0  0  0  0  0
  184.1880  179.4080  140.0620 C   0  0  0  0  0  3  0  0  0  0  0  0
  183.0460  178.0910  138.8040 O   0  0  0  0  0  0  0  0  0  0  0  0
  183.1660  177.4830  139.9530 C   0  0  0  0  0  0  0  0  0  0  0  0
  182.6800  176.3530  140.2190 O   0  0  0  0  0  0  0  0  0  0  0  0
  183.8940  178.2770  140.8020 C   0  0  0  0  0  0  0  0  0  0  0  0
  183.6510  179.2270  138.8690 O   0  0  0  0  0  0  0  0  0  0  0  0
  1  3  1  6  0  0  0
  1  4  1  0  0  0  0
  2  4  1  0  0  0  0
  2  5  1  1  0  0  0
  3 15  1  0  0  0  0
  4  8  1  0  0  0  0
  5  7  1  0  0  0  0
  6  2  1  0  0  0  0
  7 14  1  0  0  0  0
  7 12  1  0  0  0  0
  8 10  1  0  0  0  0
  8  9  1  0  0  0  0
  9 14  1  0  0  0  0
 11 13  1  0  0  0  0
 11  6  1  0  0  0  0
 13  1  1  0  0  0  0
 15 10  1  0  0  0  0
 16 19  2  0  0  0  0
 16 21  1  0  0  0  0
 17 16  1  0  0  0  0
 18 20  2  0  0  0  0
 18 13  1  0  0  0  0
 19 23  1  0  0  0  0
 21 18  1  0  0  0  0
 22 21  2  0  0  0  0
 23 25  1  0  0  0  0
 23 20  1  0  0  0  0
 24 25  2  0  0  0  0
 26  6  1  0  0  0  0
 27 31  2  0  0  0  0
 28 32  1  0  0  0  0
 28 29  1  0  0  0  0
 29 30  2  0  0  0  0
 29 31  1  0  0  0  0
 31 26  1  0  0  0  0
 32 27  1  0  0  0  0
M  END
>  <MODEL>
8

>  <REMARK>
 VINA RESULT:      -8.6      1.637      6.042
  Name = 
  4 active torsions:
  status: ('A' for Active; 'I' for Inactive)
    1  A    between atoms: C_10  and  C_32
    2  A    between atoms: C_15  and  C_26
    3  A    between atoms: C_16  and  C_27
    4  A    between atoms: C_28  and  C_32
                            x       y       z     vdW  Elec       q    Type
                         _______ _______ _______ _____ _____    ______ ____

>  <TORSDO>
F 4

$$$$
=
 OpenBabel10262421113D

 32 36  0  0  1  0  0  0  0  0999 V2000
  186.5600  177.8690  144.1330 C   0  0  2  0  0  3  0  0  0  0  0  0
  188.6350  177.8660  145.6040 C   0  0  1  0  0  3  0  0  0  0  0  0
  185.2600  178.6080  143.7990 C   0  0  0  0  0  2  0  0  0  0  0  0
  187.2560  178.5230  145.3400 C   0  0  2  0  0  3  0  0  0  0  0  0
  188.5260  176.6860  146.5750 C   0  0  0  0  0  2  0  0  0  0  0  0
  189.3290  177.4370  144.2990 C   0  0  1  0  0  3  0  0  0  0  0  0
  188.4980  177.1280  148.0450 C   0  0  2  0  0  3  0  0  0  0  0  0
  186.3040  178.5160  146.5580 C   0  0  1  0  0  3  0  0  0  0  0  0
  186.8830  179.1550  147.8250 C   0  0  0  0  0  2  0  0  0  0  0  0
  184.9960  179.2250  146.2110 C   0  0  0  0  0  2  0  0  0  0  0  0
  188.8230  178.1720  143.2130 O   0  0  0  0  0  0  0  0  0  0  0  0
  187.5290  176.2740  148.8430 C   0  0  0  0  0  1  0  0  0  0  0  0
  187.5400  177.6550  142.9450 C   0  0  2  0  0  3  0  0  0  0  0  0
  188.2550  178.6290  148.2700 C   0  0  0  0  0  2  0  0  0  0  0  0
  184.3280  178.5720  145.0050 C   0  0  0  0  0  2  0  0  0  0  0  0
  187.3530  178.2360  139.0800 C   0  0  0  0  0  0  0  0  0  0  0  0
  188.1160  177.9790  137.9480 O   0  0  0  0  0  1  0  0  0  0  0  0
  187.0440  178.1190  141.6020 C   0  0  0  0  0  0  0  0  0  0  0  0
  186.0880  178.6380  138.9470 C   0  0  0  0  0  3  0  0  0  0  0  0
  185.7720  178.5070  141.4490 C   0  0  0  0  0  3  0  0  0  0  0  0
  187.9260  178.0360  140.4220 C   0  0  0  0  0  0  0  0  0  0  0  0
  189.1450  177.7500  140.5530 O   0  0  0  0  0  0  0  0  0  0  0  0
  185.2270  179.0030  140.1340 C   0  0  2  0  0  3  0  0  0  0  0  0
  183.1510  177.9730  140.9580 C   0  0  0  0  0  2  0  0  0  0  0  0
  183.8260  178.5210  139.9490 C   0  0  0  0  0  3  0  0  0  0  0  0
  190.8330  177.6590  144.3890 C   0  0  0  0  0  2  0  0  0  0  0  0
  191.8120  175.3110  143.9690 C   0  0  0  0  0  3  0  0  0  0  0  0
  192.5690  174.8710  145.9320 O   0  0  0  0  0  0  0  0  0  0  0  0
  192.0470  176.0650  146.0030 C   0  0  0  0  0  0  0  0  0  0  0  0
  192.0140  176.7710  147.0450 O   0  0  0  0  0  0  0  0  0  0  0  0
  191.5480  176.4060  144.7720 C   0  0  0  0  0  0  0  0  0  0  0  0
  192.4310  174.4260  144.7310 O   0  0  0  0  0  0  0  0  0  0  0  0
  1  3  1  6  0  0  0
  1  4  1  0  0  0  0
  2  5  1  1  0  0  0
  3 15  1  0  0  0  0
  4  2  1  0  0  0  0
  4  8  1  0  0  0  0
  5  7  1  0  0  0  0
  6 26  1  0  0  0  0
  6  2  1  0  0  0  0
  7 14  1  0  0  0  0
  7 12  1  0  0  0  0
  8  9  1  0  0  0  0
  9 14  1  0  0  0  0
 10  8  1  0  0  0  0
 11  6  1  0  0  0  0
 13 11  1  0  0  0  0
 13  1  1  0  0  0  0
 15 10  1  0  0  0  0
 16 21  1  0  0  0  0
 17 16  1  0  0  0  0
 18 13  1  0  0  0  0
 19 16  2  0  0  0  0
 19 23  1  0  0  0  0
 20 18  2  0  0  0  0
 21 22  2  0  0  0  0
 21 18  1  0  0  0  0
 23 20  1  0  0  0  0
 25 23  1  0  0  0  0
 25 24  2  0  0  0  0
 26 31  1  0  0  0  0
 27 32  1  0  0  0  0
 27 31  2  0  0  0  0
 28 29  1  0  0  0  0
 29 30  2  0  0  0  0
 31 29  1  0  0  0  0
 32 28  1  0  0  0  0
M  END
>  <MODEL>
9

>  <REMARK>
 VINA RESULT:      -8.6      2.830      5.254
  Name = 
  4 active torsions:
  status: ('A' for Active; 'I' for Inactive)
    1  A    between atoms: C_10  and  C_32
    2  A    between atoms: C_15  and  C_26
    3  A    between atoms: C_16  and  C_27
    4  A    between atoms: C_28  and  C_32
                            x       y       z     vdW  Elec       q    Type
                         _______ _______ _______ _____ _____    ______ ____

>  <TORSDO>
F 4

$$$$
