=
 OpenBabel10262422463D

 37 42  0  0  1  0  0  0  0  0999 V2000
  188.1940  176.6290  143.9810 C   0  0  0  0  0  2  0  0  0  0  0  0
  188.1750  177.7710  139.3920 C   0  0  2  0  0  3  0  0  0  0  0  0
  188.6160  177.5650  145.0080 N   0  0  0  0  0  0  0  0  0  0  0  0
  185.3090  179.2280  141.5560 C   0  0  0  0  0  2  0  0  0  0  0  0
  187.4380  178.4480  140.5430 C   0  0  1  0  0  3  0  0  0  0  0  0
  189.5890  177.5600  139.8930 C   0  0  1  0  0  3  0  0  0  0  0  0
  185.8940  178.2800  140.5130 C   0  0  2  0  0  3  0  0  0  0  0  0
  187.4700  177.7940  145.8910 C   0  0  0  0  0  2  0  0  0  0  0  0
  189.4040  177.1870  141.3600 C   0  0  2  0  0  3  0  0  0  0  0  0
  186.8970  178.4530  137.2520 C   0  0  0  0  0  2  0  0  0  0  0  0
  188.8740  179.5200  137.9590 O   0  0  0  0  0  0  0  0  0  0  0  0
  189.1620  175.8110  141.4750 O   0  0  0  0  0  1  0  0  0  0  0  0
  186.1790  178.1490  145.1140 C   0  0  2  0  0  3  0  0  0  0  0  0
  185.1200  178.5180  142.8800 C   0  0  0  0  0  2  0  0  0  0  0  0
  188.0870  178.6060  138.1490 C   0  0  0  0  0  0  0  0  0  0  0  0
  188.1790  178.0000  141.8250 C   0  0  2  0  0  3  0  0  0  0  0  0
  185.2320  178.6130  139.1370 C   0  0  1  0  0  3  0  0  0  0  0  0
  186.4440  178.4250  143.6190 C   0  0  2  0  0  3  0  0  0  0  0  0
  187.3240  177.3560  142.9430 C   0  0  2  0  0  3  0  0  0  0  0  0
  185.7440  177.7590  137.9740 C   0  0  0  0  0  2  0  0  0  0  0  0
  182.9930  179.7870  138.7940 C   0  0  0  0  0  3  0  0  0  0  0  0
  183.6990  178.4980  139.1450 C   0  0  1  0  0  3  0  0  0  0  0  0
  183.1930  177.2680  138.3610 C   0  0  0  0  0  2  0  0  0  0  0  0
  180.9410  175.8410  137.8040 Cl  0  0  0  0  0  0  0  0  0  0  0  0
  180.9460  178.4670  138.5180 C   0  0  0  0  0  2  0  0  0  0  0  0
  181.7770  177.4170  137.7770 C   0  0  1  0  0  3  0  0  0  0  0  0
  181.6870  179.7720  138.5070 C   0  0  0  0  0  3  0  0  0  0  0  0
  190.3280  176.4820  139.0930 C   0  0  1  0  0  3  0  0  0  0  0  0
  191.1550  177.0700  138.1150 O   0  0  0  0  0  0  0  0  0  0  0  0
  191.8220  176.4980  139.2220 C   0  0  1  0  0  3  0  0  0  0  0  0
  192.3890  177.6170  140.0770 C   0  0  0  0  0  2  0  0  0  0  0  0
  193.8970  177.4990  140.1640 C   0  0  0  0  0  2  0  0  0  0  0  0
  194.3160  176.3500  139.4870 O   0  0  0  0  0  1  0  0  0  0  0  0
  185.4860  179.3470  145.7810 C   0  0  0  0  0  2  0  0  0  0  0  0
  184.2410  178.9560  146.2850 O   0  0  0  0  0  1  0  0  0  0  0  0
  189.2790  176.9770  147.2640 C   0  0  0  0  0  1  0  0  0  0  0  0
  189.6410  176.8940  145.7900 C   0  0  0  0  0  2  0  0  0  0  0  0
  1  3  1  0  0  0  0
  2 15  1  6  0  0  0
  2  6  1  0  0  0  0
  2  5  1  0  0  0  0
  3 37  1  0  0  0  0
  3  8  1  0  0  0  0
  4 14  1  0  0  0  0
  5 16  1  0  0  0  0
  6  9  1  0  0  0  0
  7  5  1  0  0  0  0
  7  4  1  0  0  0  0
  9 12  1  0  0  0  0
  9 16  1  0  0  0  0
 10 20  1  0  0  0  0
 10 15  1  0  0  0  0
 11 15  2  0  0  0  0
 13 34  1  0  0  0  0
 13  8  1  0  0  0  0
 14 18  1  0  0  0  0
 16 19  1  0  0  0  0
 17 22  1  0  0  0  0
 17  7  1  0  0  0  0
 18 13  1  0  0  0  0
 19 18  1  0  0  0  0
 19  1  1  0  0  0  0
 20 17  1  0  0  0  0
 21 22  1  0  0  0  0
 23 22  1  0  0  0  0
 26 24  1  0  0  0  0
 26 23  1  0  0  0  0
 26 25  1  0  0  0  0
 27 25  1  0  0  0  0
 27 21  2  0  0  0  0
 28 30  1  0  0  0  0
 28  6  1  0  0  0  0
 29 28  1  0  0  0  0
 29 30  1  0  0  0  0
 30 31  1  0  0  0  0
 31 32  1  0  0  0  0
 33 32  1  0  0  0  0
 34 35  1  0  0  0  0
 37 36  1  0  0  0  0
M  END
>  <MODEL>
1

>  <REMARK>
 VINA RESULT:      -8.3      0.000      0.000
  Name = 
  6 active torsions:
  status: ('A' for Active; 'I' for Inactive)
    1  A    between atoms: C_3  and  C_21
    2  A    between atoms: C_3  and  C_30
    3  A    between atoms: N_5  and  C_23
    4  A    between atoms: C_6  and  C_31
    5  A    between atoms: C_9  and  C_13
    6  A    between atoms: C_11  and  C_26
                            x       y       z     vdW  Elec       q    Type
                         _______ _______ _______ _____ _____    ______ ____

>  <TORSDO>
F 6

$$$$
=
 OpenBabel10262422463D

 37 42  0  0  1  0  0  0  0  0999 V2000
  186.1530  177.4370  144.2220 C   0  0  0  0  0  2  0  0  0  0  0  0
  188.1570  177.8250  139.9560 C   0  0  2  0  0  3  0  0  0  0  0  0
  185.9440  178.5860  145.0840 N   0  0  0  0  0  0  0  0  0  0  0  0
  184.4750  178.9970  140.2590 C   0  0  0  0  0  2  0  0  0  0  0  0
  186.9000  178.5110  140.4820 C   0  0  1  0  0  3  0  0  0  0  0  0
  189.1860  177.9830  141.0560 C   0  0  1  0  0  3  0  0  0  0  0  0
  185.5760  178.0350  139.8220 C   0  0  2  0  0  3  0  0  0  0  0  0
  184.5010  178.7150  145.3020 C   0  0  0  0  0  2  0  0  0  0  0  0
  188.3790  177.8120  142.3380 C   0  0  2  0  0  3  0  0  0  0  0  0
  187.9600  177.8970  137.3800 C   0  0  0  0  0  2  0  0  0  0  0  0
  189.2520  179.4350  138.6100 O   0  0  0  0  0  0  0  0  0  0  0  0
  188.2590  176.4500  142.6490 O   0  0  0  0  0  1  0  0  0  0  0  0
  183.6920  178.6790  143.9820 C   0  0  2  0  0  3  0  0  0  0  0  0
  183.7670  178.4780  141.4920 C   0  0  0  0  0  2  0  0  0  0  0  0
  188.5700  178.4230  138.6440 C   0  0  0  0  0  0  0  0  0  0  0  0
  186.9990  178.4250  142.0240 C   0  0  2  0  0  3  0  0  0  0  0  0
  185.6020  178.0110  138.2600 C   0  0  1  0  0  3  0  0  0  0  0  0
  184.5940  178.7670  142.7320 C   0  0  2  0  0  3  0  0  0  0  0  0
  185.7960  177.8050  142.7730 C   0  0  2  0  0  3  0  0  0  0  0  0
  186.6860  177.1070  137.6670 C   0  0  0  0  0  2  0  0  0  0  0  0
  184.3500  177.3510  136.1370 C   0  0  0  0  0  3  0  0  0  0  0  0
  184.2650  177.5940  137.6260 C   0  0  1  0  0  3  0  0  0  0  0  0
  183.5650  176.4640  138.4110 C   0  0  0  0  0  2  0  0  0  0  0  0
  181.2410  175.0490  138.5450 Cl  0  0  0  0  0  0  0  0  0  0  0  0
  182.1520  176.2780  136.2940 C   0  0  0  0  0  2  0  0  0  0  0  0
  182.6350  175.5750  137.5650 C   0  0  1  0  0  3  0  0  0  0  0  0
  183.3430  176.7370  135.5060 C   0  0  0  0  0  3  0  0  0  0  0  0
  190.3230  176.9640  140.9280 C   0  0  1  0  0  3  0  0  0  0  0  0
  191.5200  177.6020  140.5470 O   0  0  0  0  0  0  0  0  0  0  0  0
  191.4640  177.1510  141.8850 C   0  0  1  0  0  3  0  0  0  0  0  0
  191.3540  178.3580  142.7990 C   0  0  0  0  0  2  0  0  0  0  0  0
  191.6150  177.9540  144.2360 C   0  0  0  0  0  2  0  0  0  0  0  0
  191.1020  176.6750  144.4630 O   0  0  0  0  0  1  0  0  0  0  0  0
  182.6440  179.8040  143.9860 C   0  0  0  0  0  2  0  0  0  0  0  0
  181.3770  179.2730  143.7210 O   0  0  0  0  0  1  0  0  0  0  0  0
  187.9400  177.6960  146.1310 C   0  0  0  0  0  1  0  0  0  0  0  0
  186.5500  178.2640  146.3650 C   0  0  0  0  0  2  0  0  0  0  0  0
  1  3  1  0  0  0  0
  2 15  1  6  0  0  0
  2  5  1  0  0  0  0
  2  6  1  0  0  0  0
  3  8  1  0  0  0  0
  3 37  1  0  0  0  0
  4 14  1  0  0  0  0
  5 16  1  0  0  0  0
  6  9  1  0  0  0  0
  7  4  1  0  0  0  0
  7  5  1  0  0  0  0
  9 12  1  0  0  0  0
 10 20  1  0  0  0  0
 10 15  1  0  0  0  0
 11 15  2  0  0  0  0
 13 34  1  0  0  0  0
 13  8  1  0  0  0  0
 14 18  1  0  0  0  0
 16  9  1  0  0  0  0
 16 19  1  0  0  0  0
 17  7  1  0  0  0  0
 18 19  1  0  0  0  0
 18 13  1  0  0  0  0
 19  1  1  0  0  0  0
 20 17  1  0  0  0  0
 21 22  1  0  0  0  0
 22 17  1  0  0  0  0
 22 23  1  0  0  0  0
 25 26  1  0  0  0  0
 26 23  1  0  0  0  0
 26 24  1  0  0  0  0
 27 21  2  0  0  0  0
 27 25  1  0  0  0  0
 28  6  1  0  0  0  0
 28 30  1  0  0  0  0
 29 28  1  0  0  0  0
 29 30  1  0  0  0  0
 30 31  1  0  0  0  0
 31 32  1  0  0  0  0
 32 33  1  0  0  0  0
 35 34  1  0  0  0  0
 36 37  1  0  0  0  0
M  END
>  <MODEL>
2

>  <REMARK>
 VINA RESULT:      -8.0      1.858      2.551
  Name = 
  6 active torsions:
  status: ('A' for Active; 'I' for Inactive)
    1  A    between atoms: C_3  and  C_21
    2  A    between atoms: C_3  and  C_30
    3  A    between atoms: N_5  and  C_23
    4  A    between atoms: C_6  and  C_31
    5  A    between atoms: C_9  and  C_13
    6  A    between atoms: C_11  and  C_26
                            x       y       z     vdW  Elec       q    Type
                         _______ _______ _______ _____ _____    ______ ____

>  <TORSDO>
F 6

$$$$
=
 OpenBabel10262422463D

 37 42  0  0  1  0  0  0  0  0999 V2000
  184.9800  177.6060  142.7790 C   0  0  0  0  0  2  0  0  0  0  0  0
  189.6970  177.5150  143.0930 C   0  0  2  0  0  3  0  0  0  0  0  0
  184.2250  178.8440  142.8580 N   0  0  0  0  0  0  0  0  0  0  0  0
  188.2040  178.7400  139.7330 C   0  0  0  0  0  2  0  0  0  0  0  0
  188.8260  178.2630  142.0900 C   0  0  1  0  0  3  0  0  0  0  0  0
  189.0680  177.7830  144.4440 C   0  0  1  0  0  3  0  0  0  0  0  0
  188.9080  177.7280  140.6330 C   0  0  2  0  0  3  0  0  0  0  0  0
  183.5140  179.0070  141.5870 C   0  0  0  0  0  2  0  0  0  0  0  0
  187.5700  177.7590  144.1610 C   0  0  2  0  0  3  0  0  0  0  0  0
  192.0200  177.3070  141.9780 C   0  0  0  0  0  2  0  0  0  0  0  0
  191.5080  178.9600  143.5760 O   0  0  0  0  0  0  0  0  0  0  0  0
  187.0970  176.4390  144.2060 O   0  0  0  0  0  1  0  0  0  0  0  0
  184.4390  178.8340  140.3580 C   0  0  2  0  0  3  0  0  0  0  0  0
  186.7510  178.3620  139.5350 C   0  0  0  0  0  2  0  0  0  0  0  0
  191.1250  177.9630  142.9850 C   0  0  0  0  0  0  0  0  0  0  0  0
  187.4250  178.3440  142.7420 C   0  0  2  0  0  3  0  0  0  0  0  0
  190.3620  177.5340  140.0930 C   0  0  1  0  0  3  0  0  0  0  0  0
  185.9320  178.7790  140.7440 C   0  0  2  0  0  3  0  0  0  0  0  0
  186.2310  177.8180  141.9110 C   0  0  2  0  0  3  0  0  0  0  0  0
  191.2100  176.5630  140.9190 C   0  0  0  0  0  2  0  0  0  0  0  0
  191.8160  176.7270  138.1600 C   0  0  0  0  0  3  0  0  0  0  0  0
  190.4210  177.0600  138.6320 C   0  0  1  0  0  3  0  0  0  0  0  0
  189.3720  175.9720  138.3200 C   0  0  0  0  0  2  0  0  0  0  0  0
  188.2960  174.5370  136.2700 Cl  0  0  0  0  0  0  0  0  0  0  0  0
  190.7850  175.6360  136.2220 C   0  0  0  0  0  2  0  0  0  0  0  0
  189.7560  175.0200  137.1730 C   0  0  1  0  0  3  0  0  0  0  0  0
  191.9870  176.0610  137.0120 C   0  0  0  0  0  3  0  0  0  0  0  0
  189.4930  176.7480  145.4910 C   0  0  1  0  0  3  0  0  0  0  0  0
  190.5310  177.2550  146.2980 O   0  0  0  0  0  0  0  0  0  0  0  0
  189.2660  177.1480  146.9190 C   0  0  1  0  0  3  0  0  0  0  0  0
  188.7060  178.5450  147.1220 C   0  0  0  0  0  2  0  0  0  0  0  0
  187.5760  178.5160  148.1300 C   0  0  0  0  0  2  0  0  0  0  0  0
  186.3560  178.3860  147.4620 O   0  0  0  0  0  1  0  0  0  0  0  0
  184.1720  179.9600  139.3470 C   0  0  0  0  0  2  0  0  0  0  0  0
  183.0010  179.6870  138.6310 O   0  0  0  0  0  1  0  0  0  0  0  0
  183.8610  178.9070  145.2540 C   0  0  0  0  0  1  0  0  0  0  0  0
  183.2250  178.6580  143.8960 C   0  0  0  0  0  2  0  0  0  0  0  0
  1  3  1  0  0  0  0
  2 15  1  1  0  0  0
  2  6  1  0  0  0  0
  3 37  1  0  0  0  0
  4  7  1  0  0  0  0
  5 16  1  0  0  0  0
  5  2  1  0  0  0  0
  6 28  1  0  0  0  0
  7  5  1  0  0  0  0
  8  3  1  0  0  0  0
  9 12  1  0  0  0  0
  9  6  1  0  0  0  0
 10 15  1  0  0  0  0
 13 18  1  0  0  0  0
 13  8  1  0  0  0  0
 14  4  1  0  0  0  0
 14 18  1  0  0  0  0
 15 11  2  0  0  0  0
 16  9  1  0  0  0  0
 17  7  1  0  0  0  0
 17 20  1  0  0  0  0
 18 19  1  0  0  0  0
 19 16  1  0  0  0  0
 19  1  1  0  0  0  0
 20 10  1  0  0  0  0
 21 22  1  0  0  0  0
 22 17  1  0  0  0  0
 23 22  1  0  0  0  0
 24 26  1  0  0  0  0
 25 27  1  0  0  0  0
 25 26  1  0  0  0  0
 26 23  1  0  0  0  0
 27 21  2  0  0  0  0
 28 29  1  0  0  0  0
 28 30  1  0  0  0  0
 29 30  1  0  0  0  0
 30 31  1  0  0  0  0
 31 32  1  0  0  0  0
 33 32  1  0  0  0  0
 34 13  1  0  0  0  0
 35 34  1  0  0  0  0
 37 36  1  0  0  0  0
M  END
>  <MODEL>
3

>  <REMARK>
 VINA RESULT:      -7.1      2.824      6.581
  Name = 
  6 active torsions:
  status: ('A' for Active; 'I' for Inactive)
    1  A    between atoms: C_3  and  C_21
    2  A    between atoms: C_3  and  C_30
    3  A    between atoms: N_5  and  C_23
    4  A    between atoms: C_6  and  C_31
    5  A    between atoms: C_9  and  C_13
    6  A    between atoms: C_11  and  C_26
                            x       y       z     vdW  Elec       q    Type
                         _______ _______ _______ _____ _____    ______ ____

>  <TORSDO>
F 6

$$$$
=
 OpenBabel10262422463D

 37 42  0  0  1  0  0  0  0  0999 V2000
  185.1950  176.6300  137.7840 C   0  0  0  0  0  2  0  0  0  0  0  0
  182.0360  178.3630  140.8460 C   0  0  2  0  0  3  0  0  0  0  0  0
  185.7620  177.4390  136.7190 N   0  0  0  0  0  0  0  0  0  0  0  0
  185.7280  179.4130  141.3790 C   0  0  0  0  0  2  0  0  0  0  0  0
  183.4510  178.8540  140.5610 C   0  0  1  0  0  3  0  0  0  0  0  0
  181.4080  178.1430  139.4860 C   0  0  1  0  0  3  0  0  0  0  0  0
  184.4620  178.6340  141.7200 C   0  0  2  0  0  3  0  0  0  0  0  0
  187.2090  177.5060  136.9430 C   0  0  0  0  0  2  0  0  0  0  0  0
  182.5480  177.5730  138.6470 C   0  0  2  0  0  3  0  0  0  0  0  0
  181.4460  179.2710  143.1940 C   0  0  0  0  0  2  0  0  0  0  0  0
  180.7390  180.3100  141.2020 O   0  0  0  0  0  0  0  0  0  0  0  0
  182.6280  176.1850  138.8310 O   0  0  0  0  0  1  0  0  0  0  0  0
  187.5710  177.9110  138.3930 C   0  0  2  0  0  3  0  0  0  0  0  0
  186.7260  178.5290  140.6610 C   0  0  0  0  0  2  0  0  0  0  0  0
  181.3010  179.3500  141.7050 C   0  0  0  0  0  0  0  0  0  0  0  0
  183.8170  178.2710  139.1760 C   0  0  2  0  0  3  0  0  0  0  0  0
  183.9610  179.1190  143.1190 C   0  0  1  0  0  3  0  0  0  0  0  0
  186.3450  178.3900  139.1980 C   0  0  2  0  0  3  0  0  0  0  0  0
  185.1280  177.4530  139.0800 C   0  0  2  0  0  3  0  0  0  0  0  0
  182.6680  178.4450  143.5880 C   0  0  0  0  0  2  0  0  0  0  0  0
  184.3830  178.7850  145.6120 C   0  0  0  0  0  3  0  0  0  0  0  0
  184.9970  178.9450  144.2410 C   0  0  1  0  0  3  0  0  0  0  0  0
  186.0670  177.8870  143.9000 C   0  0  0  0  0  2  0  0  0  0  0  0
  188.4150  176.8280  144.7870 Cl  0  0  0  0  0  0  0  0  0  0  0  0
  186.5850  178.0440  146.3940 C   0  0  0  0  0  2  0  0  0  0  0  0
  186.7030  177.2000  145.1230 C   0  0  1  0  0  3  0  0  0  0  0  0
  185.1400  178.3680  146.6330 C   0  0  0  0  0  3  0  0  0  0  0  0
  180.1960  177.2080  139.5570 C   0  0  1  0  0  3  0  0  0  0  0  0
  179.1020  177.8600  140.1590 O   0  0  0  0  0  0  0  0  0  0  0  0
  179.0000  177.6470  138.7660 C   0  0  1  0  0  3  0  0  0  0  0  0
  179.1420  178.9840  138.0600 C   0  0  0  0  0  2  0  0  0  0  0  0
  179.0390  178.7980  136.5600 C   0  0  0  0  0  2  0  0  0  0  0  0
  179.9080  177.7830  136.1530 O   0  0  0  0  0  1  0  0  0  0  0  0
  188.6710  178.9840  138.3710 C   0  0  0  0  0  2  0  0  0  0  0  0
  188.5870  179.7250  137.1880 O   0  0  0  0  0  1  0  0  0  0  0  0
  184.0550  176.5040  135.2760 C   0  0  0  0  0  1  0  0  0  0  0  0
  185.5460  176.7100  135.4810 C   0  0  0  0  0  2  0  0  0  0  0  0
  1 19  1  0  0  0  0
  2 15  1  6  0  0  0
  3  8  1  0  0  0  0
  3  1  1  0  0  0  0
  4  7  1  0  0  0  0
  5  2  1  0  0  0  0
  5  7  1  0  0  0  0
  6 28  1  0  0  0  0
  6  2  1  0  0  0  0
  7 17  1  0  0  0  0
  8 13  1  0  0  0  0
  9 12  1  0  0  0  0
  9 16  1  0  0  0  0
  9  6  1  0  0  0  0
 10 20  1  0  0  0  0
 11 15  2  0  0  0  0
 13 18  1  0  0  0  0
 14  4  1  0  0  0  0
 15 10  1  0  0  0  0
 16  5  1  0  0  0  0
 17 20  1  0  0  0  0
 17 22  1  0  0  0  0
 18 14  1  0  0  0  0
 19 16  1  0  0  0  0
 19 18  1  0  0  0  0
 21 27  2  0  0  0  0
 22 21  1  0  0  0  0
 23 22  1  0  0  0  0
 23 26  1  0  0  0  0
 24 26  1  0  0  0  0
 25 27  1  0  0  0  0
 26 25  1  0  0  0  0
 28 29  1  0  0  0  0
 30 28  1  0  0  0  0
 30 29  1  0  0  0  0
 31 30  1  0  0  0  0
 32 31  1  0  0  0  0
 33 32  1  0  0  0  0
 34 13  1  0  0  0  0
 35 34  1  0  0  0  0
 36 37  1  0  0  0  0
 37  3  1  0  0  0  0
M  END
>  <MODEL>
4

>  <REMARK>
 VINA RESULT:      -6.9      3.754      8.716
  Name = 
  6 active torsions:
  status: ('A' for Active; 'I' for Inactive)
    1  A    between atoms: C_3  and  C_21
    2  A    between atoms: C_3  and  C_30
    3  A    between atoms: N_5  and  C_23
    4  A    between atoms: C_6  and  C_31
    5  A    between atoms: C_9  and  C_13
    6  A    between atoms: C_11  and  C_26
                            x       y       z     vdW  Elec       q    Type
                         _______ _______ _______ _____ _____    ______ ____

>  <TORSDO>
F 6

$$$$
=
 OpenBabel10262422463D

 37 42  0  0  1  0  0  0  0  0999 V2000
  185.2670  177.0870  137.9590 C   0  0  0  0  0  2  0  0  0  0  0  0
  184.4130  178.4800  142.3960 C   0  0  2  0  0  3  0  0  0  0  0  0
  185.5110  178.0340  136.8850 N   0  0  0  0  0  0  0  0  0  0  0  0
  188.0910  178.6790  141.1910 C   0  0  0  0  0  2  0  0  0  0  0  0
  185.6320  178.7700  141.5270 C   0  0  1  0  0  3  0  0  0  0  0  0
  183.2170  178.7430  141.5050 C   0  0  1  0  0  3  0  0  0  0  0  0
  186.9420  178.0750  141.9920 C   0  0  2  0  0  3  0  0  0  0  0  0
  186.8610  177.7830  136.3750 C   0  0  0  0  0  2  0  0  0  0  0  0
  183.6570  178.2220  140.1400 C   0  0  2  0  0  3  0  0  0  0  0  0
  185.2000  178.8240  144.8340 C   0  0  0  0  0  2  0  0  0  0  0  0
  184.0140  180.4620  143.6260 O   0  0  0  0  0  0  0  0  0  0  0  0
  183.4150  176.8440  140.0540 O   0  0  0  0  0  1  0  0  0  0  0  0
  187.9230  177.7180  137.5000 C   0  0  2  0  0  3  0  0  0  0  0  0
  188.3760  177.8530  139.9540 C   0  0  0  0  0  2  0  0  0  0  0  0
  184.4440  179.3190  143.6390 C   0  0  0  0  0  0  0  0  0  0  0  0
  185.1690  178.5180  140.0720 C   0  0  2  0  0  3  0  0  0  0  0  0
  187.2670  178.2530  143.5100 C   0  0  1  0  0  3  0  0  0  0  0  0
  187.3680  178.1770  138.8650 C   0  0  2  0  0  3  0  0  0  0  0  0
  186.0130  177.5360  139.2250 C   0  0  2  0  0  3  0  0  0  0  0  0
  186.1820  177.7200  144.4490 C   0  0  0  0  0  2  0  0  0  0  0  0
  189.8120  178.2690  143.3330 C   0  0  0  0  0  3  0  0  0  0  0  0
  188.5960  177.6080  143.9370 C   0  0  1  0  0  3  0  0  0  0  0  0
  188.6860  177.3930  145.4630 C   0  0  0  0  0  2  0  0  0  0  0  0
  190.2260  176.2420  147.3920 Cl  0  0  0  0  0  0  0  0  0  0  0  0
  191.1620  177.0330  144.9630 C   0  0  0  0  0  2  0  0  0  0  0  0
  190.1190  177.3830  146.0260 C   0  0  1  0  0  3  0  0  0  0  0  0
  191.0280  177.9880  143.8130 C   0  0  0  0  0  3  0  0  0  0  0  0
  181.9510  178.0530  142.0240 C   0  0  1  0  0  3  0  0  0  0  0  0
  181.2080  178.9310  142.8390 O   0  0  0  0  0  0  0  0  0  0  0  0
  180.6570  178.6580  141.5660 C   0  0  1  0  0  3  0  0  0  0  0  0
  180.7890  179.9010  140.7050 C   0  0  0  0  0  2  0  0  0  0  0  0
  179.4860  180.6750  140.6980 C   0  0  0  0  0  2  0  0  0  0  0  0
  179.3460  181.3650  141.9050 O   0  0  0  0  0  1  0  0  0  0  0  0
  189.1540  178.5450  137.0980 C   0  0  0  0  0  2  0  0  0  0  0  0
  188.9180  179.9010  137.3510 O   0  0  0  0  0  1  0  0  0  0  0  0
  183.2700  177.2290  136.4320 C   0  0  0  0  0  1  0  0  0  0  0  0
  184.5760  177.7100  135.8210 C   0  0  0  0  0  2  0  0  0  0  0  0
  1 19  1  0  0  0  0
  2 15  1  1  0  0  0
  3  1  1  0  0  0  0
  4  7  1  0  0  0  0
  5  7  1  0  0  0  0
  5  2  1  0  0  0  0
  6 28  1  0  0  0  0
  6  2  1  0  0  0  0
  7 17  1  0  0  0  0
  8  3  1  0  0  0  0
  8 13  1  0  0  0  0
  9  6  1  0  0  0  0
 11 15  2  0  0  0  0
 12  9  1  0  0  0  0
 13 18  1  0  0  0  0
 14  4  1  0  0  0  0
 15 10  1  0  0  0  0
 16  9  1  0  0  0  0
 16  5  1  0  0  0  0
 17 22  1  0  0  0  0
 17 20  1  0  0  0  0
 18 19  1  0  0  0  0
 18 14  1  0  0  0  0
 19 16  1  0  0  0  0
 20 10  1  0  0  0  0
 21 27  2  0  0  0  0
 21 22  1  0  0  0  0
 22 23  1  0  0  0  0
 23 26  1  0  0  0  0
 25 26  1  0  0  0  0
 26 24  1  0  0  0  0
 27 25  1  0  0  0  0
 28 29  1  0  0  0  0
 30 28  1  0  0  0  0
 30 29  1  0  0  0  0
 31 30  1  0  0  0  0
 32 31  1  0  0  0  0
 32 33  1  0  0  0  0
 34 35  1  0  0  0  0
 34 13  1  0  0  0  0
 37 36  1  0  0  0  0
 37  3  1  0  0  0  0
M  END
>  <MODEL>
5

>  <REMARK>
 VINA RESULT:      -6.8      3.545      8.902
  Name = 
  6 active torsions:
  status: ('A' for Active; 'I' for Inactive)
    1  A    between atoms: C_3  and  C_21
    2  A    between atoms: C_3  and  C_30
    3  A    between atoms: N_5  and  C_23
    4  A    between atoms: C_6  and  C_31
    5  A    between atoms: C_9  and  C_13
    6  A    between atoms: C_11  and  C_26
                            x       y       z     vdW  Elec       q    Type
                         _______ _______ _______ _____ _____    ______ ____

>  <TORSDO>
F 6

$$$$
=
 OpenBabel10262422463D

 37 42  0  0  1  0  0  0  0  0999 V2000
  187.5900  178.7100  140.3600 C   0  0  0  0  0  2  0  0  0  0  0  0
  183.0160  179.0100  141.5210 C   0  0  2  0  0  3  0  0  0  0  0  0
  188.2730  177.4340  140.2370 N   0  0  0  0  0  0  0  0  0  0  0  0
  183.8180  177.9280  137.8870 C   0  0  0  0  0  2  0  0  0  0  0  0
  183.6500  178.2850  140.3390 C   0  0  1  0  0  3  0  0  0  0  0  0
  183.8560  178.6270  142.7210 C   0  0  1  0  0  3  0  0  0  0  0  0
  183.3450  178.9140  138.9520 C   0  0  2  0  0  3  0  0  0  0  0  0
  188.7370  177.3170  138.8520 C   0  0  0  0  0  2  0  0  0  0  0  0
  185.2800  178.5970  142.1750 C   0  0  2  0  0  3  0  0  0  0  0  0
  180.5490  179.3990  140.8540 C   0  0  0  0  0  2  0  0  0  0  0  0
  181.2370  177.6270  142.2440 O   0  0  0  0  0  0  0  0  0  0  0  0
  185.8300  179.8860  142.2040 O   0  0  0  0  0  1  0  0  0  0  0  0
  187.6210  177.6120  137.8200 C   0  0  2  0  0  3  0  0  0  0  0  0
  185.2320  178.2460  137.4520 C   0  0  0  0  0  2  0  0  0  0  0  0
  181.5670  178.6390  141.6480 C   0  0  0  0  0  0  0  0  0  0  0  0
  185.1370  178.0950  140.7240 C   0  0  2  0  0  3  0  0  0  0  0  0
  181.8320  179.2120  138.6930 C   0  0  1  0  0  3  0  0  0  0  0  0
  186.2260  177.7150  138.4700 C   0  0  2  0  0  3  0  0  0  0  0  0
  186.1950  178.6150  139.7210 C   0  0  2  0  0  3  0  0  0  0  0  0
  181.2020  180.1690  139.7080 C   0  0  0  0  0  2  0  0  0  0  0  0
  180.5960  178.9290  136.4800 C   0  0  0  0  0  3  0  0  0  0  0  0
  181.5440  179.7790  137.2930 C   0  0  1  0  0  3  0  0  0  0  0  0
  181.1800  181.2780  137.3250 C   0  0  0  0  0  2  0  0  0  0  0  0
  180.7090  183.4180  135.7080 Cl  0  0  0  0  0  0  0  0  0  0  0  0
  180.3840  180.8270  134.9430 C   0  0  0  0  0  2  0  0  0  0  0  0
  180.2860  181.7460  136.1630 C   0  0  1  0  0  3  0  0  0  0  0  0
  180.0550  179.4240  135.3610 C   0  0  0  0  0  3  0  0  0  0  0  0
  183.6850  179.6140  143.8810 C   0  0  1  0  0  3  0  0  0  0  0  0
  183.0540  178.9890  144.9750 O   0  0  0  0  0  0  0  0  0  0  0  0
  184.4300  179.2660  145.1360 C   0  0  1  0  0  3  0  0  0  0  0  0
  185.1960  177.9560  145.0950 C   0  0  0  0  0  2  0  0  0  0  0  0
  186.2240  177.9140  146.2070 C   0  0  0  0  0  2  0  0  0  0  0  0
  185.9190  178.8860  147.1630 O   0  0  0  0  0  1  0  0  0  0  0  0
  187.6390  176.5400  136.7190 C   0  0  0  0  0  2  0  0  0  0  0  0
  187.2420  175.3080  137.2490 O   0  0  0  0  0  1  0  0  0  0  0  0
  189.0530  178.0640  142.4430 C   0  0  0  0  0  1  0  0  0  0  0  0
  189.4500  177.5060  141.0860 C   0  0  0  0  0  2  0  0  0  0  0  0
  2 15  1  1  0  0  0
  2  6  1  0  0  0  0
  3  1  1  0  0  0  0
  3 37  1  0  0  0  0
  4  7  1  0  0  0  0
  5 16  1  0  0  0  0
  5  2  1  0  0  0  0
  6 28  1  0  0  0  0
  7  5  1  0  0  0  0
  8  3  1  0  0  0  0
  9 12  1  0  0  0  0
  9  6  1  0  0  0  0
 10 15  1  0  0  0  0
 13 18  1  0  0  0  0
 13  8  1  0  0  0  0
 14  4  1  0  0  0  0
 14 18  1  0  0  0  0
 15 11  2  0  0  0  0
 16  9  1  0  0  0  0
 17  7  1  0  0  0  0
 17 20  1  0  0  0  0
 18 19  1  0  0  0  0
 19  1  1  0  0  0  0
 19 16  1  0  0  0  0
 20 10  1  0  0  0  0
 21 22  1  0  0  0  0
 22 23  1  0  0  0  0
 22 17  1  0  0  0  0
 24 26  1  0  0  0  0
 25 27  1  0  0  0  0
 25 26  1  0  0  0  0
 26 23  1  0  0  0  0
 27 21  2  0  0  0  0
 28 29  1  0  0  0  0
 28 30  1  0  0  0  0
 29 30  1  0  0  0  0
 31 30  1  0  0  0  0
 31 32  1  0  0  0  0
 32 33  1  0  0  0  0
 34 35  1  0  0  0  0
 34 13  1  0  0  0  0
 37 36  1  0  0  0  0
M  END
>  <MODEL>
6

>  <REMARK>
 VINA RESULT:      -6.2      2.889      6.630
  Name = 
  6 active torsions:
  status: ('A' for Active; 'I' for Inactive)
    1  A    between atoms: C_3  and  C_21
    2  A    between atoms: C_3  and  C_30
    3  A    between atoms: N_5  and  C_23
    4  A    between atoms: C_6  and  C_31
    5  A    between atoms: C_9  and  C_13
    6  A    between atoms: C_11  and  C_26
                            x       y       z     vdW  Elec       q    Type
                         _______ _______ _______ _____ _____    ______ ____

>  <TORSDO>
F 6

$$$$
=
 OpenBabel10262422463D

 37 42  0  0  1  0  0  0  0  0999 V2000
  185.3980  179.3800  139.3750 C   0  0  0  0  0  2  0  0  0  0  0  0
  189.4090  177.0870  138.3710 C   0  0  2  0  0  3  0  0  0  0  0  0
  184.1560  178.6790  139.6500 N   0  0  0  0  0  0  0  0  0  0  0  0
  188.3060  177.1110  142.0860 C   0  0  0  0  0  2  0  0  0  0  0  0
  188.5380  176.9750  139.6170 C   0  0  1  0  0  3  0  0  0  0  0  0
  188.4460  177.0310  137.2040 C   0  0  1  0  0  3  0  0  0  0  0  0
  189.1800  177.5430  140.9130 C   0  0  2  0  0  3  0  0  0  0  0  0
  183.7540  179.0200  141.0180 C   0  0  0  0  0  2  0  0  0  0  0  0
  187.2370  177.8240  137.6910 C   0  0  2  0  0  3  0  0  0  0  0  0
  191.7420  176.2260  139.0760 C   0  0  0  0  0  2  0  0  0  0  0  0
  190.1780  174.8930  137.9260 O   0  0  0  0  0  0  0  0  0  0  0  0
  187.4380  179.1920  137.4560 O   0  0  0  0  0  1  0  0  0  0  0  0
  184.9000  178.8340  142.0420 C   0  0  2  0  0  3  0  0  0  0  0  0
  187.2820  178.1770  142.4130 C   0  0  0  0  0  2  0  0  0  0  0  0
  190.4470  176.0030  138.3580 C   0  0  0  0  0  0  0  0  0  0  0  0
  187.1560  177.5340  139.2030 C   0  0  2  0  0  3  0  0  0  0  0  0
  190.6360  177.0440  141.1880 C   0  0  1  0  0  3  0  0  0  0  0  0
  186.1180  178.1010  141.4410 C   0  0  2  0  0  3  0  0  0  0  0  0
  186.5630  178.6650  140.0780 C   0  0  2  0  0  3  0  0  0  0  0  0
  191.6320  177.3770  140.0740 C   0  0  0  0  0  2  0  0  0  0  0  0
  190.7000  178.9250  142.9080 C   0  0  0  0  0  3  0  0  0  0  0  0
  191.2320  177.5710  142.5030 C   0  0  1  0  0  3  0  0  0  0  0  0
  191.2010  176.5170  143.6310 C   0  0  0  0  0  2  0  0  0  0  0  0
  192.0600  176.0530  146.1740 Cl  0  0  0  0  0  0  0  0  0  0  0  0
  191.6870  178.5330  145.1180 C   0  0  0  0  0  2  0  0  0  0  0  0
  191.1500  177.1020  145.0540 C   0  0  1  0  0  3  0  0  0  0  0  0
  190.9260  179.3850  144.1440 C   0  0  0  0  0  3  0  0  0  0  0  0
  189.0600  177.6080  135.9240 C   0  0  1  0  0  3  0  0  0  0  0  0
  189.8530  176.6400  135.2750 O   0  0  0  0  0  0  0  0  0  0  0  0
  188.6240  176.9480  134.6490 C   0  0  1  0  0  3  0  0  0  0  0  0
  187.6870  175.7650  134.8160 C   0  0  0  0  0  2  0  0  0  0  0  0
  188.4350  174.4670  134.5940 C   0  0  0  0  0  2  0  0  0  0  0  0
  188.0480  173.5330  135.5580 O   0  0  0  0  0  1  0  0  0  0  0  0
  184.3710  178.0980  143.2830 C   0  0  0  0  0  2  0  0  0  0  0  0
  184.5210  178.9070  144.4150 O   0  0  0  0  0  1  0  0  0  0  0  0
  182.8980  178.2440  137.6250 C   0  0  0  0  0  1  0  0  0  0  0  0
  183.1560  179.2310  138.7520 C   0  0  0  0  0  2  0  0  0  0  0  0
  1  3  1  0  0  0  0
  1 19  1  0  0  0  0
  2 15  1  6  0  0  0
  2  5  1  0  0  0  0
  3  8  1  0  0  0  0
  4 14  1  0  0  0  0
  5  7  1  0  0  0  0
  6  9  1  0  0  0  0
  6  2  1  0  0  0  0
  7 17  1  0  0  0  0
  7  4  1  0  0  0  0
  8 13  1  0  0  0  0
  9 16  1  0  0  0  0
 10 20  1  0  0  0  0
 11 15  2  0  0  0  0
 12  9  1  0  0  0  0
 13 34  1  0  0  0  0
 15 10  1  0  0  0  0
 16  5  1  0  0  0  0
 16 19  1  0  0  0  0
 17 22  1  0  0  0  0
 18 13  1  0  0  0  0
 18 14  1  0  0  0  0
 19 18  1  0  0  0  0
 20 17  1  0  0  0  0
 21 27  2  0  0  0  0
 22 21  1  0  0  0  0
 22 23  1  0  0  0  0
 23 26  1  0  0  0  0
 26 25  1  0  0  0  0
 26 24  1  0  0  0  0
 27 25  1  0  0  0  0
 28  6  1  0  0  0  0
 29 28  1  0  0  0  0
 30 31  1  0  0  0  0
 30 29  1  0  0  0  0
 30 28  1  0  0  0  0
 32 31  1  0  0  0  0
 32 33  1  0  0  0  0
 34 35  1  0  0  0  0
 36 37  1  0  0  0  0
 37  3  1  0  0  0  0
M  END
>  <MODEL>
7

>  <REMARK>
 VINA RESULT:      -6.0      3.343      6.843
  Name = 
  6 active torsions:
  status: ('A' for Active; 'I' for Inactive)
    1  A    between atoms: C_3  and  C_21
    2  A    between atoms: C_3  and  C_30
    3  A    between atoms: N_5  and  C_23
    4  A    between atoms: C_6  and  C_31
    5  A    between atoms: C_9  and  C_13
    6  A    between atoms: C_11  and  C_26
                            x       y       z     vdW  Elec       q    Type
                         _______ _______ _______ _____ _____    ______ ____

>  <TORSDO>
F 6

$$$$
=
 OpenBabel10262422463D

 37 42  0  0  1  0  0  0  0  0999 V2000
  188.4260  178.6930  140.4050 C   0  0  0  0  0  2  0  0  0  0  0  0
  188.8400  176.2490  136.3790 C   0  0  2  0  0  3  0  0  0  0  0  0
  187.9860  178.0730  141.6430 N   0  0  0  0  0  0  0  0  0  0  0  0
  191.6220  175.7190  139.0250 C   0  0  0  0  0  2  0  0  0  0  0  0
  189.5300  176.0010  137.7160 C   0  0  1  0  0  3  0  0  0  0  0  0
  187.3850  176.4910  136.7200 C   0  0  1  0  0  3  0  0  0  0  0  0
  191.0610  176.2690  137.7170 C   0  0  2  0  0  3  0  0  0  0  0  0
  189.0770  178.2030  142.6120 C   0  0  0  0  0  2  0  0  0  0  0  0
  187.4420  177.2940  138.0150 C   0  0  2  0  0  3  0  0  0  0  0  0
  190.3070  175.0640  134.6110 C   0  0  0  0  0  2  0  0  0  0  0  0
  188.3480  174.1070  135.5020 O   0  0  0  0  0  0  0  0  0  0  0  0
  187.5970  178.6570  137.7240 O   0  0  0  0  0  1  0  0  0  0  0  0
  190.4390  177.7330  142.0450 C   0  0  2  0  0  3  0  0  0  0  0  0
  191.6740  176.8020  140.0830 C   0  0  0  0  0  2  0  0  0  0  0  0
  189.0660  175.0930  135.4500 C   0  0  0  0  0  0  0  0  0  0  0  0
  188.6750  176.7510  138.7650 C   0  0  2  0  0  3  0  0  0  0  0  0
  191.8380  175.5950  136.5400 C   0  0  1  0  0  3  0  0  0  0  0  0
  190.2980  177.0080  140.6900 C   0  0  2  0  0  3  0  0  0  0  0  0
  189.4090  177.7600  139.6800 C   0  0  2  0  0  3  0  0  0  0  0  0
  191.3630  176.0250  135.1500 C   0  0  0  0  0  2  0  0  0  0  0  0
  194.1560  174.5480  136.7290 C   0  0  0  0  0  3  0  0  0  0  0  0
  193.3580  175.8230  136.5920 C   0  0  1  0  0  3  0  0  0  0  0  0
  193.8540  176.7620  135.4720 C   0  0  0  0  0  2  0  0  0  0  0  0
  196.0610  178.0940  134.5940 Cl  0  0  0  0  0  0  0  0  0  0  0  0
  196.1440  175.8570  136.1400 C   0  0  0  0  0  2  0  0  0  0  0  0
  195.3170  176.5380  135.0480 C   0  0  1  0  0  3  0  0  0  0  0  0
  195.4780  174.5690  136.5250 C   0  0  0  0  0  3  0  0  0  0  0  0
  186.6450  177.2240  135.5960 C   0  0  1  0  0  3  0  0  0  0  0  0
  186.1770  176.3100  134.6320 O   0  0  0  0  0  0  0  0  0  0  0  0
  185.1890  176.8890  135.4600 C   0  0  1  0  0  3  0  0  0  0  0  0
  184.6740  175.8280  136.4150 C   0  0  0  0  0  2  0  0  0  0  0  0
  183.2840  176.1860  136.8990 C   0  0  0  0  0  2  0  0  0  0  0  0
  183.2310  176.0780  138.2910 O   0  0  0  0  0  1  0  0  0  0  0  0
  191.1490  176.8420  143.0760 C   0  0  0  0  0  2  0  0  0  0  0  0
  190.5300  175.5890  143.1270 O   0  0  0  0  0  1  0  0  0  0  0  0
  185.8070  178.9550  141.0520 C   0  0  0  0  0  1  0  0  0  0  0  0
  186.8710  178.8660  142.1340 C   0  0  0  0  0  2  0  0  0  0  0  0
  1  3  1  0  0  0  0
  2 15  1  6  0  0  0
  2  6  1  0  0  0  0
  2  5  1  0  0  0  0
  3 37  1  0  0  0  0
  3  8  1  0  0  0  0
  4 14  1  0  0  0  0
  5  7  1  0  0  0  0
  5 16  1  0  0  0  0
  6  9  1  0  0  0  0
  7  4  1  0  0  0  0
  9 16  1  0  0  0  0
 10 20  1  0  0  0  0
 10 15  1  0  0  0  0
 12  9  1  0  0  0  0
 13  8  1  0  0  0  0
 13 34  1  0  0  0  0
 14 18  1  0  0  0  0
 15 11  2  0  0  0  0
 16 19  1  0  0  0  0
 17 22  1  0  0  0  0
 17  7  1  0  0  0  0
 18 13  1  0  0  0  0
 19  1  1  0  0  0  0
 19 18  1  0  0  0  0
 20 17  1  0  0  0  0
 22 21  1  0  0  0  0
 23 22  1  0  0  0  0
 24 26  1  0  0  0  0
 25 27  1  0  0  0  0
 26 23  1  0  0  0  0
 26 25  1  0  0  0  0
 27 21  2  0  0  0  0
 28  6  1  0  0  0  0
 29 30  1  0  0  0  0
 29 28  1  0  0  0  0
 30 28  1  0  0  0  0
 30 31  1  0  0  0  0
 31 32  1  0  0  0  0
 32 33  1  0  0  0  0
 34 35  1  0  0  0  0
 36 37  1  0  0  0  0
M  END
>  <MODEL>
8

>  <REMARK>
 VINA RESULT:      -6.0      4.044      8.165
  Name = 
  6 active torsions:
  status: ('A' for Active; 'I' for Inactive)
    1  A    between atoms: C_3  and  C_21
    2  A    between atoms: C_3  and  C_30
    3  A    between atoms: N_5  and  C_23
    4  A    between atoms: C_6  and  C_31
    5  A    between atoms: C_9  and  C_13
    6  A    between atoms: C_11  and  C_26
                            x       y       z     vdW  Elec       q    Type
                         _______ _______ _______ _____ _____    ______ ____

>  <TORSDO>
F 6

$$$$
=
 OpenBabel10262422463D

 37 42  0  0  1  0  0  0  0  0999 V2000
  185.3530  179.4330  141.0850 C   0  0  0  0  0  2  0  0  0  0  0  0
  189.4530  177.2930  142.0670 C   0  0  2  0  0  3  0  0  0  0  0  0
  184.1360  178.6860  140.8200 N   0  0  0  0  0  0  0  0  0  0  0  0
  186.8210  177.3890  144.9090 C   0  0  0  0  0  2  0  0  0  0  0  0
  188.1240  177.1830  142.8050 C   0  0  1  0  0  3  0  0  0  0  0  0
  189.1070  177.1550  140.5990 C   0  0  1  0  0  3  0  0  0  0  0  0
  188.1120  177.8220  144.2210 C   0  0  2  0  0  3  0  0  0  0  0  0
  183.1620  179.0530  141.8510 C   0  0  0  0  0  2  0  0  0  0  0  0
  187.7880  177.9080  140.4630 C   0  0  2  0  0  3  0  0  0  0  0  0
  191.2560  176.5630  143.7700 C   0  0  0  0  0  2  0  0  0  0  0  0
  190.3970  175.1230  142.1150 O   0  0  0  0  0  0  0  0  0  0  0  0
  188.0350  179.2750  140.2740 O   0  0  0  0  0  1  0  0  0  0  0  0
  183.7410  178.9530  143.2840 C   0  0  2  0  0  3  0  0  0  0  0  0
  185.7300  178.4180  144.6990 C   0  0  0  0  0  2  0  0  0  0  0  0
  190.4180  176.2580  142.5660 C   0  0  0  0  0  0  0  0  0  0  0  0
  187.0530  177.6650  141.7970 C   0  0  2  0  0  3  0  0  0  0  0  0
  189.3090  177.3980  145.1340 C   0  0  1  0  0  3  0  0  0  0  0  0
  185.1180  178.2580  143.3180 C   0  0  2  0  0  3  0  0  0  0  0  0
  186.1050  178.7960  142.2640 C   0  0  2  0  0  3  0  0  0  0  0  0
  190.6850  177.7400  144.5580 C   0  0  0  0  0  2  0  0  0  0  0  0
  187.9890  177.6350  147.3040 C   0  0  0  0  0  3  0  0  0  0  0  0
  189.2470  177.9950  146.5500 C   0  0  1  0  0  3  0  0  0  0  0  0
  190.5490  177.7640  147.3460 C   0  0  0  0  0  2  0  0  0  0  0  0
  191.7990  178.4230  149.6750 Cl  0  0  0  0  0  0  0  0  0  0  0  0
  189.1000  178.4470  149.3320 C   0  0  0  0  0  2  0  0  0  0  0  0
  190.3670  177.7230  148.8740 C   0  0  1  0  0  3  0  0  0  0  0  0
  187.9170  177.8600  148.6200 C   0  0  0  0  0  3  0  0  0  0  0  0
  190.2080  177.7170  139.6930 C   0  0  1  0  0  3  0  0  0  0  0  0
  191.1730  176.7280  139.4150 O   0  0  0  0  0  0  0  0  0  0  0  0
  190.3190  177.0730  138.3430 C   0  0  1  0  0  3  0  0  0  0  0  0
  189.3660  175.9190  138.0920 C   0  0  0  0  0  2  0  0  0  0  0  0
  189.9140  175.0100  137.0120 C   0  0  0  0  0  2  0  0  0  0  0  0
  190.1540  173.7410  137.5450 O   0  0  0  0  0  1  0  0  0  0  0  0
  182.7370  178.2350  144.1990 C   0  0  0  0  0  2  0  0  0  0  0  0
  181.4450  178.7110  143.9520 O   0  0  0  0  0  1  0  0  0  0  0  0
  184.6240  178.8370  138.4510 C   0  0  0  0  0  1  0  0  0  0  0  0
  183.6220  179.1620  139.5470 C   0  0  0  0  0  2  0  0  0  0  0  0
  1 19  1  0  0  0  0
  2 15  1  1  0  0  0
  2  5  1  0  0  0  0
  3  1  1  0  0  0  0
  3  8  1  0  0  0  0
  5  7  1  0  0  0  0
  6  2  1  0  0  0  0
  7  4  1  0  0  0  0
  7 17  1  0  0  0  0
  8 13  1  0  0  0  0
  9  6  1  0  0  0  0
  9 16  1  0  0  0  0
 10 20  1  0  0  0  0
 11 15  2  0  0  0  0
 12  9  1  0  0  0  0
 13 18  1  0  0  0  0
 13 34  1  0  0  0  0
 14  4  1  0  0  0  0
 15 10  1  0  0  0  0
 16 19  1  0  0  0  0
 16  5  1  0  0  0  0
 17 22  1  0  0  0  0
 18 14  1  0  0  0  0
 19 18  1  0  0  0  0
 20 17  1  0  0  0  0
 21 27  2  0  0  0  0
 22 21  1  0  0  0  0
 22 23  1  0  0  0  0
 23 26  1  0  0  0  0
 26 25  1  0  0  0  0
 26 24  1  0  0  0  0
 27 25  1  0  0  0  0
 28  6  1  0  0  0  0
 29 28  1  0  0  0  0
 30 29  1  0  0  0  0
 30 28  1  0  0  0  0
 31 30  1  0  0  0  0
 32 33  1  0  0  0  0
 32 31  1  0  0  0  0
 35 34  1  0  0  0  0
 36 37  1  0  0  0  0
 37  3  1  0  0  0  0
M  END
>  <MODEL>
9

>  <REMARK>
 VINA RESULT:      -5.9      3.386      7.076
  Name = 
  6 active torsions:
  status: ('A' for Active; 'I' for Inactive)
    1  A    between atoms: C_3  and  C_21
    2  A    between atoms: C_3  and  C_30
    3  A    between atoms: N_5  and  C_23
    4  A    between atoms: C_6  and  C_31
    5  A    between atoms: C_9  and  C_13
    6  A    between atoms: C_11  and  C_26
                            x       y       z     vdW  Elec       q    Type
                         _______ _______ _______ _____ _____    ______ ____

>  <TORSDO>
F 6

$$$$
