=
 OpenBabel10262420303D

 55 59  0  0  1  0  0  0  0  0999 V2000
  190.6820  176.2610  137.1360 C   0  0  2  0  0  3  0  0  0  0  0  0
  189.4770  177.8020  134.7620 C   0  0  0  0  0  1  0  0  0  0  0  0
  186.7140  177.5770  134.5980 O   0  0  0  0  0  0  0  0  0  0  0  0
  187.2760  176.9250  135.5220 C   0  0  0  0  0  0  0  0  0  0  0  0
  189.3980  175.9250  136.4250 C   0  0  0  0  0  0  0  0  0  0  0  0
  188.7110  176.8760  135.5880 N   0  0  0  0  0  0  0  0  0  0  0  0
  188.9100  174.7760  136.5960 O   0  0  0  0  0  0  0  0  0  0  0  0
  186.4370  176.2740  136.5920 C   0  0  2  0  0  3  0  0  0  0  0  0
  186.1320  174.2350  135.1060 C   0  0  0  0  0  3  0  0  0  0  0  0
  185.7800  172.8910  134.9420 C   0  0  0  0  0  3  0  0  0  0  0  0
  185.7070  174.0590  137.4800 C   0  0  0  0  0  3  0  0  0  0  0  0
  185.3560  172.7150  137.3170 C   0  0  0  0  0  3  0  0  0  0  0  0
  185.3910  172.1300  136.0490 C   0  0  0  0  0  3  0  0  0  0  0  0
  186.1020  174.8250  136.3790 C   0  0  0  0  0  0  0  0  0  0  0  0
  184.2360  177.1350  136.1230 O   0  0  0  0  0  1  0  0  0  0  0  0
  185.2410  177.8610  138.1960 C   0  0  0  0  0  0  0  0  0  0  0  0
  186.3030  178.0990  138.8290 O   0  0  0  0  0  0  0  0  0  0  0  0
  185.2840  177.0860  136.9810 N   0  0  0  0  0  0  0  0  0  0  0  0
  183.0950  175.7380  139.1140 Cl  0  0  0  0  0  0  0  0  0  0  0  0
  183.7450  179.7420  138.8030 C   0  0  0  0  0  3  0  0  0  0  0  0
  182.5280  180.2550  139.2550 C   0  0  0  0  0  3  0  0  0  0  0  0
  182.9150  177.4850  139.1210 C   0  0  0  0  0  0  0  0  0  0  0  0
  181.7030  178.0080  139.5790 C   0  0  0  0  0  3  0  0  0  0  0  0
  181.5020  179.3880  139.6560 C   0  0  0  0  0  0  0  0  0  0  0  0
  183.9550  178.3580  138.7300 C   0  0  0  0  0  0  0  0  0  0  0  0
  180.1650  179.9000  140.1010 C   0  0  0  0  0  3  0  0  0  0  0  0
  180.0600  180.0360  141.6110 C   0  0  0  0  0  2  0  0  0  0  0  0
  179.4670  178.8260  140.9250 C   0  0  0  0  0  2  0  0  0  0  0  0
  194.2830  174.1730  135.8600 C   0  0  0  0  0  3  0  0  0  0  0  0
  191.9370  175.7030  136.4470 C   0  0  2  0  0  3  0  0  0  0  0  0
  191.8030  174.1950  136.2070 C   0  0  0  0  0  2  0  0  0  0  0  0
  194.4270  175.5790  136.3840 C   0  0  0  0  0  2  0  0  0  0  0  0
  193.0920  173.5660  135.7370 C   0  0  0  0  0  3  0  0  0  0  0  0
  193.2230  176.0070  137.2200 C   0  0  0  0  0  2  0  0  0  0  0  0
  190.6310  175.8830  138.5070 O   0  0  0  0  0  0  0  0  0  0  0  0
  190.2050  176.7570  139.5070 C   0  0  0  0  0  0  0  0  0  0  0  0
  190.1930  176.3460  140.8790 N   0  0  0  0  0  2  0  0  0  0  0  0
  189.8200  177.9170  139.1840 O   0  0  0  0  0  0  0  0  0  0  0  0
  189.6890  177.1770  145.4610 C   0  0  1  0  0  3  0  0  0  0  0  0
  189.9800  177.2890  141.9620 C   0  0  1  0  0  3  0  0  0  0  0  0
  191.8970  177.9570  144.8500 O   0  0  0  0  0  1  0  0  0  0  0  0
  187.7380  176.4780  142.8980 C   0  0  0  0  0  3  0  0  0  0  0  0
  188.4780  177.5430  142.1270 C   0  0  1  0  0  3  0  0  0  0  0  0
  190.5970  177.7590  144.3680 C   0  0  1  0  0  3  0  0  0  0  0  0
  190.0280  177.7350  146.8450 C   0  0  0  0  0  1  0  0  0  0  0  0
  190.6720  176.7700  143.2190 C   0  0  0  0  0  2  0  0  0  0  0  0
  187.6480  176.4070  144.2320 C   0  0  0  0  0  3  0  0  0  0  0  0
  188.2680  177.3480  145.1190 N   0  0  0  0  0  0  0  0  0  0  0  0
  188.2350  178.8220  142.6300 O   0  0  0  0  0  0  0  0  0  0  0  0
  186.9740  179.1730  142.1340 C   0  0  0  0  0  1  0  0  0  0  0  0
  187.3760  178.1210  145.9810 C   0  0  0  0  0  2  0  0  0  0  0  0
  185.9290  177.8470  145.6220 C   0  0  0  0  0  2  0  0  0  0  0  0
  185.0160  178.6620  146.5120 C   0  0  0  0  0  2  0  0  0  0  0  0
  183.9950  178.9920  144.5870 C   0  0  0  0  0  1  0  0  0  0  0  0
  183.7500  178.7420  145.9350 O   0  0  0  0  0  0  0  0  0  0  0  0
  1  5  1  6  0  0  0
  1 35  1  0  0  0  0
  2  6  1  0  0  0  0
  3  4  2  0  0  0  0
  4  6  1  0  0  0  0
  5  7  2  0  0  0  0
  6  5  1  0  0  0  0
  8  4  1  6  0  0  0
  8 18  1  0  0  0  0
  9 14  1  0  0  0  0
 10  9  2  0  0  0  0
 10 13  1  0  0  0  0
 12 11  1  0  0  0  0
 13 12  2  0  0  0  0
 14  8  1  0  0  0  0
 14 11  2  0  0  0  0
 15 18  1  0  0  0  0
 16 25  1  0  0  0  0
 16 17  2  0  0  0  0
 18 16  1  0  0  0  0
 19 22  1  0  0  0  0
 20 21  1  0  0  0  0
 21 24  2  0  0  0  0
 22 23  2  0  0  0  0
 23 24  1  0  0  0  0
 24 26  1  0  0  0  0
 25 20  2  0  0  0  0
 25 22  1  0  0  0  0
 26 28  1  0  0  0  0
 26 27  1  0  0  0  0
 28 27  1  0  0  0  0
 29 32  1  0  0  0  0
 30  1  1  1  0  0  0
 30 34  1  0  0  0  0
 31 30  1  0  0  0  0
 32 34  1  0  0  0  0
 33 29  2  0  0  0  0
 33 31  1  0  0  0  0
 35 36  1  0  0  0  0
 36 37  1  0  0  0  0
 38 36  2  0  0  0  0
 39 45  1  1  0  0  0
 40 37  1  6  0  0  0
 40 43  1  0  0  0  0
 40 46  1  0  0  0  0
 42 47  2  0  0  0  0
 43 49  1  1  0  0  0
 43 42  1  0  0  0  0
 44 41  1  1  0  0  0
 44 39  1  0  0  0  0
 46 44  1  0  0  0  0
 47 48  1  0  0  0  0
 48 39  1  0  0  0  0
 48 51  1  0  0  0  0
 50 49  1  0  0  0  0
 52 51  1  0  0  0  0
 52 53  1  0  0  0  0
 54 55  1  0  0  0  0
 55 53  1  0  0  0  0
M  END
>  <MODEL>
1

>  <REMARK>
 VINA RESULT:      -7.2      0.000      0.000
  Name = 
  15 active torsions:
  status: ('A' for Active; 'I' for Inactive)
    1  A    between atoms: C_3  and  O_25
    2  A    between atoms: C_3  and  C_38
    3  A    between atoms: C_6  and  N_22
    4  A    between atoms: C_8  and  O_54
    5  A    between atoms: C_10  and  C_48
    6  A    between atoms: C_14  and  O_20
    7  A    between atoms: C_19  and  C_45
    8  A    between atoms: C_26  and  C_45
    9  A    between atoms: C_27  and  C_51
   10  A    between atoms: C_29  and  C_38
   11  A    between atoms: C_29  and  N_53
   12  A    between atoms: C_33  and  C_52
   13  A    between atoms: C_35  and  C_51
   14  A    between atoms: C_45  and  N_49
   15  A    between atoms: C_51  and  O_54
                            x       y       z     vdW  Elec       q    Type
                         _______ _______ _______ _____ _____    ______ ____

>  <TORSDO>
F 15

$$$$
=
 OpenBabel10262420303D

 55 59  0  0  1  0  0  0  0  0999 V2000
  189.3780  177.2410  136.6630 C   0  0  2  0  0  3  0  0  0  0  0  0
  187.3920  178.4370  134.6410 C   0  0  0  0  0  1  0  0  0  0  0  0
  184.7960  177.5050  134.9710 O   0  0  0  0  0  0  0  0  0  0  0  0
  185.6700  177.0140  135.7390 C   0  0  0  0  0  0  0  0  0  0  0  0
  188.1080  176.5900  136.1800 C   0  0  0  0  0  0  0  0  0  0  0  0
  187.0560  177.3370  135.5390 N   0  0  0  0  0  0  0  0  0  0  0  0
  187.9690  175.3520  136.3710 O   0  0  0  0  0  0  0  0  0  0  0  0
  185.2430  176.1590  136.9040 C   0  0  2  0  0  3  0  0  0  0  0  0
  184.6390  174.2810  135.3010 C   0  0  0  0  0  3  0  0  0  0  0  0
  184.3460  172.9350  135.0600 C   0  0  0  0  0  3  0  0  0  0  0  0
  184.9720  173.7910  137.6460 C   0  0  0  0  0  3  0  0  0  0  0  0
  184.6790  172.4450  137.4050 C   0  0  0  0  0  3  0  0  0  0  0  0
  184.3660  172.0160  136.1130 C   0  0  0  0  0  3  0  0  0  0  0  0
  184.9590  174.7160  136.5970 C   0  0  0  0  0  0  0  0  0  0  0  0
  182.9520  176.3020  137.6340 O   0  0  0  0  0  1  0  0  0  0  0  0
  184.4700  177.9290  138.5730 C   0  0  0  0  0  0  0  0  0  0  0  0
  185.5240  178.6010  138.4240 O   0  0  0  0  0  0  0  0  0  0  0  0
  184.2120  176.7930  137.7250 N   0  0  0  0  0  0  0  0  0  0  0  0
  181.7990  179.3920  137.7490 Cl  0  0  0  0  0  0  0  0  0  0  0  0
  183.8500  177.9960  140.9740 C   0  0  0  0  0  3  0  0  0  0  0  0
  183.0090  178.3740  142.0210 C   0  0  0  0  0  3  0  0  0  0  0  0
  182.3240  179.0040  139.3800 C   0  0  0  0  0  0  0  0  0  0  0  0
  181.4840  179.3710  140.4340 C   0  0  0  0  0  3  0  0  0  0  0  0
  181.8140  179.0570  141.7540 C   0  0  0  0  0  0  0  0  0  0  0  0
  183.5230  178.3030  139.6450 C   0  0  0  0  0  0  0  0  0  0  0  0
  180.9080  179.5210  142.8550 C   0  0  0  0  0  3  0  0  0  0  0  0
  180.7550  178.4940  143.9640 C   0  0  0  0  0  2  0  0  0  0  0  0
  179.6810  178.6210  142.9080 C   0  0  0  0  0  2  0  0  0  0  0  0
  193.2160  175.1960  136.4670 C   0  0  0  0  0  3  0  0  0  0  0  0
  190.5820  176.2910  136.7130 C   0  0  2  0  0  3  0  0  0  0  0  0
  191.7240  176.8980  137.5380 C   0  0  0  0  0  2  0  0  0  0  0  0
  192.1580  174.8150  135.4630 C   0  0  0  0  0  2  0  0  0  0  0  0
  193.0020  176.1030  137.4340 C   0  0  0  0  0  3  0  0  0  0  0  0
  191.0840  175.8930  135.3230 C   0  0  0  0  0  2  0  0  0  0  0  0
  189.1830  177.8990  137.9100 O   0  0  0  0  0  0  0  0  0  0  0  0
  189.1400  177.2070  139.1210 C   0  0  0  0  0  0  0  0  0  0  0  0
  189.5120  177.8530  140.3430 N   0  0  0  0  0  2  0  0  0  0  0  0
  188.7770  175.9960  139.1220 O   0  0  0  0  0  0  0  0  0  0  0  0
  187.9420  178.2360  144.7390 C   0  0  1  0  0  3  0  0  0  0  0  0
  189.2640  177.2480  141.6390 C   0  0  1  0  0  3  0  0  0  0  0  0
  186.2890  176.9580  143.5180 O   0  0  0  0  0  1  0  0  0  0  0  0
  190.7980  178.6390  143.1450 C   0  0  0  0  0  3  0  0  0  0  0  0
  190.5410  177.3090  142.4820 C   0  0  1  0  0  3  0  0  0  0  0  0
  187.6550  177.2610  143.5890 C   0  0  1  0  0  3  0  0  0  0  0  0
  187.0450  177.9730  145.9510 C   0  0  0  0  0  1  0  0  0  0  0  0
  188.0540  177.9200  142.2800 C   0  0  0  0  0  2  0  0  0  0  0  0
  190.2740  179.0400  144.3100 C   0  0  0  0  0  3  0  0  0  0  0  0
  189.3710  178.2420  145.0880 N   0  0  0  0  0  0  0  0  0  0  0  0
  190.5990  176.2490  143.3890 O   0  0  0  0  0  0  0  0  0  0  0  0
  190.0780  175.1500  142.6960 C   0  0  0  0  0  1  0  0  0  0  0  0
  189.8180  177.8660  146.4280 C   0  0  0  0  0  2  0  0  0  0  0  0
  190.3290  176.4390  146.4300 C   0  0  0  0  0  2  0  0  0  0  0  0
  191.7700  176.4100  146.8950 C   0  0  0  0  0  2  0  0  0  0  0  0
  193.1060  175.8330  148.5500 C   0  0  0  0  0  1  0  0  0  0  0  0
  191.9100  175.4850  147.9270 O   0  0  0  0  0  0  0  0  0  0  0  0
  1  5  1  1  0  0  0
  1 35  1  0  0  0  0
  2  6  1  0  0  0  0
  3  4  2  0  0  0  0
  5  7  2  0  0  0  0
  6  4  1  0  0  0  0
  6  5  1  0  0  0  0
  8  4  1  6  0  0  0
  8 18  1  0  0  0  0
  9 14  1  0  0  0  0
 10  9  2  0  0  0  0
 10 13  1  0  0  0  0
 12 11  1  0  0  0  0
 13 12  2  0  0  0  0
 14  8  1  0  0  0  0
 14 11  2  0  0  0  0
 15 18  1  0  0  0  0
 16 25  1  0  0  0  0
 17 16  2  0  0  0  0
 18 16  1  0  0  0  0
 19 22  1  0  0  0  0
 20 21  1  0  0  0  0
 22 25  1  0  0  0  0
 22 23  2  0  0  0  0
 23 24  1  0  0  0  0
 24 21  2  0  0  0  0
 24 26  1  0  0  0  0
 25 20  2  0  0  0  0
 26 28  1  0  0  0  0
 26 27  1  0  0  0  0
 28 27  1  0  0  0  0
 29 33  2  0  0  0  0
 30  1  1  6  0  0  0
 30 31  1  0  0  0  0
 32 29  1  0  0  0  0
 33 31  1  0  0  0  0
 34 32  1  0  0  0  0
 34 30  1  0  0  0  0
 35 36  1  0  0  0  0
 36 38  2  0  0  0  0
 36 37  1  0  0  0  0
 39 48  1  0  0  0  0
 39 45  1  1  0  0  0
 40 37  1  6  0  0  0
 40 46  1  0  0  0  0
 40 43  1  0  0  0  0
 42 47  2  0  0  0  0
 43 42  1  0  0  0  0
 43 49  1  1  0  0  0
 44 41  1  6  0  0  0
 44 39  1  0  0  0  0
 46 44  1  0  0  0  0
 47 48  1  0  0  0  0
 48 51  1  0  0  0  0
 50 49  1  0  0  0  0
 51 52  1  0  0  0  0
 52 53  1  0  0  0  0
 53 55  1  0  0  0  0
 55 54  1  0  0  0  0
M  END
>  <MODEL>
2

>  <REMARK>
 VINA RESULT:      -6.5      1.737      3.219
  Name = 
  15 active torsions:
  status: ('A' for Active; 'I' for Inactive)
    1  A    between atoms: C_3  and  O_25
    2  A    between atoms: C_3  and  C_38
    3  A    between atoms: C_6  and  N_22
    4  A    between atoms: C_8  and  O_54
    5  A    between atoms: C_10  and  C_48
    6  A    between atoms: C_14  and  O_20
    7  A    between atoms: C_19  and  C_45
    8  A    between atoms: C_26  and  C_45
    9  A    between atoms: C_27  and  C_51
   10  A    between atoms: C_29  and  C_38
   11  A    between atoms: C_29  and  N_53
   12  A    between atoms: C_33  and  C_52
   13  A    between atoms: C_35  and  C_51
   14  A    between atoms: C_45  and  N_49
   15  A    between atoms: C_51  and  O_54
                            x       y       z     vdW  Elec       q    Type
                         _______ _______ _______ _____ _____    ______ ____

>  <TORSDO>
F 15

$$$$
=
 OpenBabel10262420303D

 55 59  0  0  1  0  0  0  0  0999 V2000
  188.9640  178.0770  140.5030 C   0  0  2  0  0  3  0  0  0  0  0  0
  188.9330  179.5260  137.7900 C   0  0  0  0  0  1  0  0  0  0  0  0
  189.5200  177.8570  135.6490 O   0  0  0  0  0  0  0  0  0  0  0  0
  189.5660  177.3330  136.7970 C   0  0  0  0  0  0  0  0  0  0  0  0
  189.7480  177.6790  139.2800 C   0  0  0  0  0  0  0  0  0  0  0  0
  189.4140  178.1600  137.9630 N   0  0  0  0  0  0  0  0  0  0  0  0
  190.7130  176.8820  139.4280 O   0  0  0  0  0  0  0  0  0  0  0  0
  189.7000  175.8380  136.9300 C   0  0  2  0  0  3  0  0  0  0  0  0
  191.5940  175.6170  135.2500 C   0  0  0  0  0  3  0  0  0  0  0  0
  192.7890  175.0190  134.8360 C   0  0  0  0  0  3  0  0  0  0  0  0
  191.6100  174.2660  137.2550 C   0  0  0  0  0  3  0  0  0  0  0  0
  192.8050  173.6680  136.8420 C   0  0  0  0  0  3  0  0  0  0  0  0
  193.3950  174.0420  135.6330 C   0  0  0  0  0  3  0  0  0  0  0  0
  191.0010  175.2460  136.4670 C   0  0  0  0  0  0  0  0  0  0  0  0
  188.7250  174.1780  135.4810 O   0  0  0  0  0  1  0  0  0  0  0  0
  187.1850  175.3990  136.8860 C   0  0  0  0  0  0  0  0  0  0  0  0
  186.9380  176.4680  137.5040 O   0  0  0  0  0  0  0  0  0  0  0  0
  188.5260  175.1180  136.4370 N   0  0  0  0  0  0  0  0  0  0  0  0
  185.1070  176.0210  134.5940 Cl  0  0  0  0  0  0  0  0  0  0  0  0
  186.0240  173.2850  137.4620 C   0  0  0  0  0  3  0  0  0  0  0  0
  184.9820  172.3690  137.3130 C   0  0  0  0  0  3  0  0  0  0  0  0
  185.0860  174.6450  135.6860 C   0  0  0  0  0  0  0  0  0  0  0  0
  184.0520  173.7190  135.5390 C   0  0  0  0  0  3  0  0  0  0  0  0
  183.9940  172.5770  136.3410 C   0  0  0  0  0  0  0  0  0  0  0  0
  186.0920  174.4300  136.6560 C   0  0  0  0  0  0  0  0  0  0  0  0
  182.8330  171.6400  136.1830 C   0  0  0  0  0  3  0  0  0  0  0  0
  183.2470  170.1790  136.2190 C   0  0  0  0  0  2  0  0  0  0  0  0
  182.9960  170.8540  134.8890 C   0  0  0  0  0  2  0  0  0  0  0  0
  190.1130  177.1810  144.6050 C   0  0  0  0  0  3  0  0  0  0  0  0
  189.6040  177.6250  141.8240 C   0  0  2  0  0  3  0  0  0  0  0  0
  188.6340  176.7530  142.6300 C   0  0  0  0  0  2  0  0  0  0  0  0
  190.8750  178.2570  143.8750 C   0  0  0  0  0  2  0  0  0  0  0  0
  189.1330  176.4700  144.0260 C   0  0  0  0  0  3  0  0  0  0  0  0
  190.0980  178.7970  142.6750 C   0  0  0  0  0  2  0  0  0  0  0  0
  187.6080  177.6540  140.4110 O   0  0  0  0  0  0  0  0  0  0  0  0
  186.5400  178.5050  140.6950 C   0  0  0  0  0  0  0  0  0  0  0  0
  185.2290  178.2220  140.1930 N   0  0  0  0  0  2  0  0  0  0  0  0
  186.7480  179.5370  141.3950 O   0  0  0  0  0  0  0  0  0  0  0  0
  181.2040  178.2800  142.5880 C   0  0  1  0  0  3  0  0  0  0  0  0
  184.0580  178.9470  140.6510 C   0  0  1  0  0  3  0  0  0  0  0  0
  182.8190  179.5060  143.9090 O   0  0  0  0  0  1  0  0  0  0  0  0
  182.1780  177.6380  139.5050 C   0  0  0  0  0  3  0  0  0  0  0  0
  182.9810  178.9140  139.5620 C   0  0  1  0  0  3  0  0  0  0  0  0
  182.4610  179.1610  142.6000 C   0  0  1  0  0  3  0  0  0  0  0  0
  180.2130  178.6800  143.6830 C   0  0  0  0  0  1  0  0  0  0  0  0
  183.6120  178.3770  141.9940 C   0  0  0  0  0  2  0  0  0  0  0  0
  181.1080  177.3590  140.2610 C   0  0  0  0  0  3  0  0  0  0  0  0
  180.5850  178.2530  141.2530 N   0  0  0  0  0  0  0  0  0  0  0  0
  182.1660  180.0460  139.6230 O   0  0  0  0  0  0  0  0  0  0  0  0
  182.6410  180.8890  138.6130 C   0  0  0  0  0  1  0  0  0  0  0  0
  179.2180  178.7290  141.0500 C   0  0  0  0  0  2  0  0  0  0  0  0
  178.9340  178.8970  139.5700 C   0  0  0  0  0  2  0  0  0  0  0  0
  178.9330  180.3670  139.2110 C   0  0  0  0  0  2  0  0  0  0  0  0
  179.3710  179.2170  137.3830 C   0  0  0  0  0  1  0  0  0  0  0  0
  179.1870  180.5170  137.8490 O   0  0  0  0  0  0  0  0  0  0  0  0
  1  5  1  6  0  0  0
  2  6  1  0  0  0  0
  3  4  2  0  0  0  0
  4  6  1  0  0  0  0
  5  7  2  0  0  0  0
  6  5  1  0  0  0  0
  8  4  1  6  0  0  0
  9 14  1  0  0  0  0
 10  9  2  0  0  0  0
 10 13  1  0  0  0  0
 12 11  1  0  0  0  0
 13 12  2  0  0  0  0
 14  8  1  0  0  0  0
 14 11  2  0  0  0  0
 15 18  1  0  0  0  0
 16 17  2  0  0  0  0
 18 16  1  0  0  0  0
 18  8  1  0  0  0  0
 19 22  1  0  0  0  0
 21 20  1  0  0  0  0
 22 25  1  0  0  0  0
 23 22  2  0  0  0  0
 23 24  1  0  0  0  0
 24 21  2  0  0  0  0
 25 16  1  0  0  0  0
 25 20  2  0  0  0  0
 26 27  1  0  0  0  0
 26 24  1  0  0  0  0
 28 26  1  0  0  0  0
 28 27  1  0  0  0  0
 30  1  1  6  0  0  0
 30 31  1  0  0  0  0
 30 34  1  0  0  0  0
 31 33  1  0  0  0  0
 32 29  1  0  0  0  0
 33 29  2  0  0  0  0
 34 32  1  0  0  0  0
 35  1  1  0  0  0  0
 35 36  1  0  0  0  0
 36 38  2  0  0  0  0
 37 36  1  0  0  0  0
 39 44  1  0  0  0  0
 39 45  1  1  0  0  0
 40 37  1  6  0  0  0
 40 46  1  0  0  0  0
 42 43  1  0  0  0  0
 42 47  2  0  0  0  0
 43 49  1  1  0  0  0
 43 40  1  0  0  0  0
 44 41  1  1  0  0  0
 46 44  1  0  0  0  0
 47 48  1  0  0  0  0
 48 39  1  0  0  0  0
 50 49  1  0  0  0  0
 51 48  1  0  0  0  0
 52 51  1  0  0  0  0
 53 52  1  0  0  0  0
 54 55  1  0  0  0  0
 55 53  1  0  0  0  0
M  END
>  <MODEL>
3

>  <REMARK>
 VINA RESULT:      -6.5      2.340      7.038
  Name = 
  15 active torsions:
  status: ('A' for Active; 'I' for Inactive)
    1  A    between atoms: C_3  and  O_25
    2  A    between atoms: C_3  and  C_38
    3  A    between atoms: C_6  and  N_22
    4  A    between atoms: C_8  and  O_54
    5  A    between atoms: C_10  and  C_48
    6  A    between atoms: C_14  and  O_20
    7  A    between atoms: C_19  and  C_45
    8  A    between atoms: C_26  and  C_45
    9  A    between atoms: C_27  and  C_51
   10  A    between atoms: C_29  and  C_38
   11  A    between atoms: C_29  and  N_53
   12  A    between atoms: C_33  and  C_52
   13  A    between atoms: C_35  and  C_51
   14  A    between atoms: C_45  and  N_49
   15  A    between atoms: C_51  and  O_54
                            x       y       z     vdW  Elec       q    Type
                         _______ _______ _______ _____ _____    ______ ____

>  <TORSDO>
F 15

$$$$
=
 OpenBabel10262420303D

 55 59  0  0  1  0  0  0  0  0999 V2000
  187.4420  177.9730  139.7100 C   0  0  2  0  0  3  0  0  0  0  0  0
  189.4050  176.0200  141.0480 C   0  0  0  0  0  1  0  0  0  0  0  0
  189.5420  176.3210  143.8060 O   0  0  0  0  0  0  0  0  0  0  0  0
  188.7910  177.1280  143.1900 C   0  0  0  0  0  0  0  0  0  0  0  0
  188.1740  178.2060  141.0050 C   0  0  0  0  0  0  0  0  0  0  0  0
  188.7740  177.1300  141.7530 N   0  0  0  0  0  0  0  0  0  0  0  0
  188.2370  179.3850  141.4450 O   0  0  0  0  0  0  0  0  0  0  0  0
  187.8620  178.0240  143.9690 C   0  0  2  0  0  3  0  0  0  0  0  0
  189.3210  177.9370  146.0480 C   0  0  0  0  0  3  0  0  0  0  0  0
  189.4550  177.9180  147.4400 C   0  0  0  0  0  3  0  0  0  0  0  0
  186.9200  178.1080  146.2790 C   0  0  0  0  0  3  0  0  0  0  0  0
  187.0530  178.0900  147.6710 C   0  0  0  0  0  3  0  0  0  0  0  0
  188.3190  177.9950  148.2530 C   0  0  0  0  0  3  0  0  0  0  0  0
  188.0510  178.0370  145.4600 C   0  0  0  0  0  0  0  0  0  0  0  0
  185.9700  176.6260  143.4510 O   0  0  0  0  0  1  0  0  0  0  0  0
  185.6230  179.0060  143.2320 C   0  0  0  0  0  0  0  0  0  0  0  0
  186.1370  180.1330  143.0030 O   0  0  0  0  0  0  0  0  0  0  0  0
  186.4640  177.8830  143.5620 N   0  0  0  0  0  0  0  0  0  0  0  0
  184.0580  178.9300  145.9710 Cl  0  0  0  0  0  0  0  0  0  0  0  0
  183.5200  178.7640  141.9410 C   0  0  0  0  0  3  0  0  0  0  0  0
  182.1400  178.5780  141.8550 C   0  0  0  0  0  3  0  0  0  0  0  0
  183.3700  178.7690  144.3620 C   0  0  0  0  0  0  0  0  0  0  0  0
  181.9880  178.5910  144.2660 C   0  0  0  0  0  3  0  0  0  0  0  0
  181.3640  178.5000  143.0190 C   0  0  0  0  0  0  0  0  0  0  0  0
  184.1520  178.8620  143.1890 C   0  0  0  0  0  0  0  0  0  0  0  0
  179.8860  178.2530  142.9680 C   0  0  0  0  0  3  0  0  0  0  0  0
  179.2490  178.7560  141.6830 C   0  0  0  0  0  2  0  0  0  0  0  0
  179.1550  179.5890  142.9420 C   0  0  0  0  0  2  0  0  0  0  0  0
  189.3840  177.1880  135.8930 C   0  0  0  0  0  3  0  0  0  0  0  0
  188.3610  177.6190  138.5320 C   0  0  2  0  0  3  0  0  0  0  0  0
  188.5330  178.8190  137.5930 C   0  0  0  0  0  2  0  0  0  0  0  0
  188.9350  176.0080  136.7170 C   0  0  0  0  0  2  0  0  0  0  0  0
  189.2440  178.4560  136.3120 C   0  0  0  0  0  3  0  0  0  0  0  0
  187.8790  176.3960  137.7490 C   0  0  0  0  0  2  0  0  0  0  0  0
  186.5890  179.0670  139.3920 O   0  0  0  0  0  0  0  0  0  0  0  0
  185.2920  178.8870  138.9080 C   0  0  0  0  0  0  0  0  0  0  0  0
  184.8860  177.6260  138.3650 N   0  0  0  0  0  2  0  0  0  0  0  0
  184.4830  179.8570  138.9480 O   0  0  0  0  0  0  0  0  0  0  0  0
  181.3630  174.5430  138.2170 C   0  0  1  0  0  3  0  0  0  0  0  0
  183.4960  177.3300  138.0680 C   0  0  1  0  0  3  0  0  0  0  0  0
  180.9360  175.9990  140.1020 O   0  0  0  0  0  1  0  0  0  0  0  0
  183.7410  175.6010  136.1950 C   0  0  0  0  0  3  0  0  0  0  0  0
  183.3520  177.0070  136.5780 C   0  0  1  0  0  3  0  0  0  0  0  0
  181.5290  175.9380  138.8350 C   0  0  1  0  0  3  0  0  0  0  0  0
  180.0150  173.9140  138.5770 C   0  0  0  0  0  1  0  0  0  0  0  0
  183.0110  176.2240  139.0010 C   0  0  0  0  0  2  0  0  0  0  0  0
  182.9470  174.5250  136.2780 C   0  0  0  0  0  3  0  0  0  0  0  0
  181.5990  174.5720  136.7640 N   0  0  0  0  0  0  0  0  0  0  0  0
  182.0820  177.3480  136.1080 O   0  0  0  0  0  0  0  0  0  0  0  0
  181.8370  178.6260  136.6210 C   0  0  0  0  0  1  0  0  0  0  0  0
  180.5500  174.1800  135.8250 C   0  0  0  0  0  2  0  0  0  0  0  0
  180.9900  172.9730  135.0200 C   0  0  0  0  0  2  0  0  0  0  0  0
  180.4270  171.7110  135.6380 C   0  0  0  0  0  2  0  0  0  0  0  0
  182.4620  170.8750  135.5030 C   0  0  0  0  0  1  0  0  0  0  0  0
  181.1360  170.6060  135.1710 O   0  0  0  0  0  0  0  0  0  0  0  0
  1 35  1  6  0  0  0
  1  5  1  0  0  0  0
  2  6  1  0  0  0  0
  4  3  2  0  0  0  0
  5  7  2  0  0  0  0
  5  6  1  0  0  0  0
  6  4  1  0  0  0  0
  8  4  1  6  0  0  0
  8 14  1  0  0  0  0
  9 10  1  0  0  0  0
 10 13  2  0  0  0  0
 11 12  2  0  0  0  0
 12 13  1  0  0  0  0
 14  9  2  0  0  0  0
 14 11  1  0  0  0  0
 15 18  1  0  0  0  0
 16 18  1  0  0  0  0
 17 16  2  0  0  0  0
 18  8  1  0  0  0  0
 20 25  1  0  0  0  0
 21 20  2  0  0  0  0
 21 24  1  0  0  0  0
 22 19  1  0  0  0  0
 23 22  1  0  0  0  0
 24 23  2  0  0  0  0
 25 16  1  0  0  0  0
 25 22  2  0  0  0  0
 26 24  1  0  0  0  0
 27 28  1  0  0  0  0
 27 26  1  0  0  0  0
 28 26  1  0  0  0  0
 29 33  2  0  0  0  0
 29 32  1  0  0  0  0
 30  1  1  1  0  0  0
 31 30  1  0  0  0  0
 32 34  1  0  0  0  0
 33 31  1  0  0  0  0
 34 30  1  0  0  0  0
 36 38  2  0  0  0  0
 36 35  1  0  0  0  0
 37 36  1  0  0  0  0
 39 45  1  6  0  0  0
 39 44  1  0  0  0  0
 40 37  1  6  0  0  0
 40 46  1  0  0  0  0
 42 47  2  0  0  0  0
 42 43  1  0  0  0  0
 43 49  1  1  0  0  0
 43 40  1  0  0  0  0
 44 46  1  0  0  0  0
 44 41  1  1  0  0  0
 47 48  1  0  0  0  0
 48 39  1  0  0  0  0
 49 50  1  0  0  0  0
 51 48  1  0  0  0  0
 52 53  1  0  0  0  0
 52 51  1  0  0  0  0
 55 54  1  0  0  0  0
 55 53  1  0  0  0  0
M  END
>  <MODEL>
4

>  <REMARK>
 VINA RESULT:      -6.1      2.947      8.447
  Name = 
  15 active torsions:
  status: ('A' for Active; 'I' for Inactive)
    1  A    between atoms: C_3  and  O_25
    2  A    between atoms: C_3  and  C_38
    3  A    between atoms: C_6  and  N_22
    4  A    between atoms: C_8  and  O_54
    5  A    between atoms: C_10  and  C_48
    6  A    between atoms: C_14  and  O_20
    7  A    between atoms: C_19  and  C_45
    8  A    between atoms: C_26  and  C_45
    9  A    between atoms: C_27  and  C_51
   10  A    between atoms: C_29  and  C_38
   11  A    between atoms: C_29  and  N_53
   12  A    between atoms: C_33  and  C_52
   13  A    between atoms: C_35  and  C_51
   14  A    between atoms: C_45  and  N_49
   15  A    between atoms: C_51  and  O_54
                            x       y       z     vdW  Elec       q    Type
                         _______ _______ _______ _____ _____    ______ ____

>  <TORSDO>
F 15

$$$$
=
 OpenBabel10262420303D

 55 59  0  0  1  0  0  0  0  0999 V2000
  189.4230  177.4530  142.4180 C   0  0  2  0  0  3  0  0  0  0  0  0
  192.0880  178.9270  141.9930 C   0  0  0  0  0  1  0  0  0  0  0  0
  193.5510  177.9480  139.8440 O   0  0  0  0  0  0  0  0  0  0  0  0
  192.4690  177.3520  140.1040 C   0  0  0  0  0  0  0  0  0  0  0  0
  190.6590  176.8760  141.7820 C   0  0  0  0  0  0  0  0  0  0  0  0
  191.7260  177.7060  141.2820 N   0  0  0  0  0  0  0  0  0  0  0  0
  190.7380  175.6230  141.6710 O   0  0  0  0  0  0  0  0  0  0  0  0
  191.9280  176.3340  139.1330 C   0  0  2  0  0  3  0  0  0  0  0  0
  193.8330  174.9120  138.2350 C   0  0  0  0  0  3  0  0  0  0  0  0
  194.7070  174.5630  137.2010 C   0  0  0  0  0  3  0  0  0  0  0  0
  192.7800  176.5470  136.7980 C   0  0  0  0  0  3  0  0  0  0  0  0
  193.6540  176.1980  135.7620 C   0  0  0  0  0  3  0  0  0  0  0  0
  194.6180  175.2070  135.9620 C   0  0  0  0  0  3  0  0  0  0  0  0
  192.8610  175.9040  138.0370 C   0  0  0  0  0  0  0  0  0  0  0  0
  190.1170  177.9080  138.9130 O   0  0  0  0  0  1  0  0  0  0  0  0
  189.7340  175.7110  137.9860 C   0  0  0  0  0  0  0  0  0  0  0  0
  190.0000  174.4810  138.0350 O   0  0  0  0  0  0  0  0  0  0  0  0
  190.5840  176.6610  138.6580 N   0  0  0  0  0  0  0  0  0  0  0  0
  189.9820  175.7900  134.8410 Cl  0  0  0  0  0  0  0  0  0  0  0  0
  187.3980  176.5390  137.8940 C   0  0  0  0  0  3  0  0  0  0  0  0
  186.2860  177.0190  137.2020 C   0  0  0  0  0  3  0  0  0  0  0  0
  188.5930  176.2800  135.7980 C   0  0  0  0  0  0  0  0  0  0  0  0
  187.4710  176.7540  135.1140 C   0  0  0  0  0  3  0  0  0  0  0  0
  186.3130  177.1200  135.8040 C   0  0  0  0  0  0  0  0  0  0  0  0
  188.5610  176.1640  137.2070 C   0  0  0  0  0  0  0  0  0  0  0  0
  185.1560  177.6760  135.0300 C   0  0  0  0  0  3  0  0  0  0  0  0
  183.8220  177.4480  135.7210 C   0  0  0  0  0  2  0  0  0  0  0  0
  184.2480  176.5320  134.5960 C   0  0  0  0  0  2  0  0  0  0  0  0
  188.9240  177.2670  146.7390 C   0  0  0  0  0  3  0  0  0  0  0  0
  189.2620  177.0920  143.9020 C   0  0  2  0  0  3  0  0  0  0  0  0
  187.9530  177.6590  144.4640 C   0  0  0  0  0  2  0  0  0  0  0  0
  190.2940  176.9940  146.1710 C   0  0  0  0  0  2  0  0  0  0  0  0
  187.8580  177.5200  145.9640 C   0  0  0  0  0  3  0  0  0  0  0  0
  190.4490  177.5470  144.7560 C   0  0  0  0  0  2  0  0  0  0  0  0
  188.2540  177.1240  141.6750 O   0  0  0  0  0  0  0  0  0  0  0  0
  187.2160  178.0350  141.4740 C   0  0  0  0  0  0  0  0  0  0  0  0
  185.8520  177.6020  141.4930 N   0  0  0  0  0  2  0  0  0  0  0  0
  187.4990  179.2500  141.2660 O   0  0  0  0  0  0  0  0  0  0  0  0
  181.4400  178.6090  142.7030 C   0  0  1  0  0  3  0  0  0  0  0  0
  184.7470  178.5430  141.5190 C   0  0  1  0  0  3  0  0  0  0  0  0
  182.8760  179.8300  144.2220 O   0  0  0  0  0  1  0  0  0  0  0  0
  183.0020  177.3060  140.1090 C   0  0  0  0  0  3  0  0  0  0  0  0
  183.9740  178.4570  140.1990 C   0  0  1  0  0  3  0  0  0  0  0  0
  182.7900  179.3070  142.9250 C   0  0  1  0  0  3  0  0  0  0  0  0
  180.2990  179.3240  143.4300 C   0  0  0  0  0  1  0  0  0  0  0  0
  183.9000  178.2840  142.7610 C   0  0  0  0  0  2  0  0  0  0  0  0
  181.7500  177.3090  140.5860 C   0  0  0  0  0  3  0  0  0  0  0  0
  181.1660  178.4260  141.2690 N   0  0  0  0  0  0  0  0  0  0  0  0
  183.3750  179.6780  139.8840 O   0  0  0  0  0  0  0  0  0  0  0  0
  184.0250  180.1120  138.7230 C   0  0  0  0  0  1  0  0  0  0  0  0
  179.9900  179.0310  140.6470 C   0  0  0  0  0  2  0  0  0  0  0  0
  179.9490  178.7010  139.1680 C   0  0  0  0  0  2  0  0  0  0  0  0
  180.1440  179.9610  138.3540 C   0  0  0  0  0  2  0  0  0  0  0  0
  180.9160  182.0260  138.3840 C   0  0  0  0  0  1  0  0  0  0  0  0
  180.3840  181.0370  139.2080 O   0  0  0  0  0  0  0  0  0  0  0  0
  1 35  1  6  0  0  0
  3  4  2  0  0  0  0
  4  6  1  0  0  0  0
  5  1  1  0  0  0  0
  6  5  1  0  0  0  0
  6  2  1  0  0  0  0
  7  5  2  0  0  0  0
  8  4  1  6  0  0  0
 10  9  2  0  0  0  0
 11 14  2  0  0  0  0
 12 13  2  0  0  0  0
 12 11  1  0  0  0  0
 13 10  1  0  0  0  0
 14  9  1  0  0  0  0
 14  8  1  0  0  0  0
 16 17  2  0  0  0  0
 16 18  1  0  0  0  0
 18 15  1  0  0  0  0
 18  8  1  0  0  0  0
 19 22  1  0  0  0  0
 21 20  2  0  0  0  0
 22 25  2  0  0  0  0
 23 22  1  0  0  0  0
 23 24  2  0  0  0  0
 24 21  1  0  0  0  0
 25 20  1  0  0  0  0
 25 16  1  0  0  0  0
 26 27  1  0  0  0  0
 26 24  1  0  0  0  0
 28 26  1  0  0  0  0
 28 27  1  0  0  0  0
 30  1  1  6  0  0  0
 30 31  1  0  0  0  0
 30 34  1  0  0  0  0
 31 33  1  0  0  0  0
 32 29  1  0  0  0  0
 33 29  2  0  0  0  0
 34 32  1  0  0  0  0
 36 37  1  0  0  0  0
 36 35  1  0  0  0  0
 38 36  2  0  0  0  0
 39 44  1  0  0  0  0
 39 45  1  6  0  0  0
 40 37  1  6  0  0  0
 40 46  1  0  0  0  0
 42 43  1  0  0  0  0
 42 47  2  0  0  0  0
 43 49  1  1  0  0  0
 43 40  1  0  0  0  0
 44 41  1  1  0  0  0
 46 44  1  0  0  0  0
 47 48  1  0  0  0  0
 48 39  1  0  0  0  0
 50 49  1  0  0  0  0
 51 48  1  0  0  0  0
 52 51  1  0  0  0  0
 53 52  1  0  0  0  0
 53 55  1  0  0  0  0
 54 55  1  0  0  0  0
M  END
>  <MODEL>
5

>  <REMARK>
 VINA RESULT:      -5.1      2.592      7.522
  Name = 
  15 active torsions:
  status: ('A' for Active; 'I' for Inactive)
    1  A    between atoms: C_3  and  O_25
    2  A    between atoms: C_3  and  C_38
    3  A    between atoms: C_6  and  N_22
    4  A    between atoms: C_8  and  O_54
    5  A    between atoms: C_10  and  C_48
    6  A    between atoms: C_14  and  O_20
    7  A    between atoms: C_19  and  C_45
    8  A    between atoms: C_26  and  C_45
    9  A    between atoms: C_27  and  C_51
   10  A    between atoms: C_29  and  C_38
   11  A    between atoms: C_29  and  N_53
   12  A    between atoms: C_33  and  C_52
   13  A    between atoms: C_35  and  C_51
   14  A    between atoms: C_45  and  N_49
   15  A    between atoms: C_51  and  O_54
                            x       y       z     vdW  Elec       q    Type
                         _______ _______ _______ _____ _____    ______ ____

>  <TORSDO>
F 15

$$$$
=
 OpenBabel10262420303D

 55 59  0  0  1  0  0  0  0  0999 V2000
  187.5200  177.9090  139.6550 C   0  0  2  0  0  3  0  0  0  0  0  0
  189.5460  175.8950  140.7950 C   0  0  0  0  0  1  0  0  0  0  0  0
  189.8910  176.1230  143.5410 O   0  0  0  0  0  0  0  0  0  0  0  0
  189.1090  176.9560  143.0030 C   0  0  0  0  0  0  0  0  0  0  0  0
  188.3500  178.0980  140.8970 C   0  0  0  0  0  0  0  0  0  0  0  0
  188.9860  176.9950  141.5720 N   0  0  0  0  0  0  0  0  0  0  0  0
  188.4640  179.2640  141.3610 O   0  0  0  0  0  0  0  0  0  0  0  0
  188.2550  177.8430  143.8710 C   0  0  2  0  0  3  0  0  0  0  0  0
  187.5820  178.0830  146.3100 C   0  0  0  0  0  3  0  0  0  0  0  0
  187.9150  178.0940  147.6680 C   0  0  0  0  0  3  0  0  0  0  0  0
  189.8820  177.5950  145.7470 C   0  0  0  0  0  3  0  0  0  0  0  0
  190.2160  177.6050  147.1050 C   0  0  0  0  0  3  0  0  0  0  0  0
  189.2340  177.8550  148.0660 C   0  0  0  0  0  3  0  0  0  0  0  0
  188.5640  177.8280  145.3410 C   0  0  0  0  0  0  0  0  0  0  0  0
  186.2890  176.4770  143.6020 O   0  0  0  0  0  1  0  0  0  0  0  0
  185.9980  178.8440  143.2170 C   0  0  0  0  0  0  0  0  0  0  0  0
  186.5280  179.9300  142.8620 O   0  0  0  0  0  0  0  0  0  0  0  0
  186.8270  177.7210  143.5760 N   0  0  0  0  0  0  0  0  0  0  0  0
  184.6390  179.0020  146.0600 Cl  0  0  0  0  0  0  0  0  0  0  0  0
  183.7990  178.5920  142.1000 C   0  0  0  0  0  3  0  0  0  0  0  0
  182.4110  178.4490  142.1260 C   0  0  0  0  0  3  0  0  0  0  0  0
  183.8290  178.7610  144.5200 C   0  0  0  0  0  0  0  0  0  0  0  0
  182.4390  178.6260  144.5350 C   0  0  0  0  0  3  0  0  0  0  0  0
  181.7220  178.4760  143.3460 C   0  0  0  0  0  0  0  0  0  0  0  0
  184.5250  178.7500  143.2890 C   0  0  0  0  0  0  0  0  0  0  0  0
  180.2370  178.2780  143.4180 C   0  0  0  0  0  3  0  0  0  0  0  0
  179.5150  178.7820  142.1790 C   0  0  0  0  0  2  0  0  0  0  0  0
  179.5500  179.6370  143.4250 C   0  0  0  0  0  2  0  0  0  0  0  0
  189.1190  176.9190  135.7280 C   0  0  0  0  0  3  0  0  0  0  0  0
  188.3360  177.5040  138.4190 C   0  0  2  0  0  3  0  0  0  0  0  0
  188.3650  178.6380  137.3870 C   0  0  0  0  0  2  0  0  0  0  0  0
  188.8030  175.7860  136.6710 C   0  0  0  0  0  2  0  0  0  0  0  0
  188.9650  178.2080  136.0710 C   0  0  0  0  0  3  0  0  0  0  0  0
  187.8340  176.2100  137.7740 C   0  0  0  0  0  2  0  0  0  0  0  0
  186.7120  179.0510  139.3910 O   0  0  0  0  0  0  0  0  0  0  0  0
  185.4720  178.9580  138.7570 C   0  0  0  0  0  0  0  0  0  0  0  0
  185.1110  177.7770  138.0330 N   0  0  0  0  0  2  0  0  0  0  0  0
  184.6750  179.9370  138.8250 O   0  0  0  0  0  0  0  0  0  0  0  0
  180.5090  177.6370  138.8930 C   0  0  1  0  0  3  0  0  0  0  0  0
  183.7580  177.5500  137.5600 C   0  0  1  0  0  3  0  0  0  0  0  0
  180.9160  179.6450  137.6040 O   0  0  0  0  0  1  0  0  0  0  0  0
  183.0560  175.5470  138.9930 C   0  0  0  0  0  3  0  0  0  0  0  0
  183.4400  176.0520  137.6250 C   0  0  1  0  0  3  0  0  0  0  0  0
  181.3720  178.3410  137.8370 C   0  0  1  0  0  3  0  0  0  0  0  0
  179.0350  178.0380  138.7890 C   0  0  0  0  0  1  0  0  0  0  0  0
  182.7970  178.4310  138.3530 C   0  0  0  0  0  2  0  0  0  0  0  0
  181.8280  175.6040  139.5250 C   0  0  0  0  0  3  0  0  0  0  0  0
  180.6990  176.1790  138.8510 N   0  0  0  0  0  0  0  0  0  0  0  0
  182.5100  175.6900  136.6490 O   0  0  0  0  0  0  0  0  0  0  0  0
  183.2200  174.8810  135.7540 C   0  0  0  0  0  1  0  0  0  0  0  0
  179.5780  175.2830  138.5720 C   0  0  0  0  0  2  0  0  0  0  0  0
  179.3380  174.3590  139.7490 C   0  0  0  0  0  2  0  0  0  0  0  0
  178.9310  175.1670  140.9620 C   0  0  0  0  0  2  0  0  0  0  0  0
  180.0140  173.3980  141.7050 C   0  0  0  0  0  1  0  0  0  0  0  0
  179.1770  174.4310  142.1200 O   0  0  0  0  0  0  0  0  0  0  0  0
  1 35  1  6  0  0  0
  1  5  1  0  0  0  0
  2  6  1  0  0  0  0
  4  3  2  0  0  0  0
  5  7  2  0  0  0  0
  5  6  1  0  0  0  0
  6  4  1  0  0  0  0
  8  4  1  6  0  0  0
  8 14  1  0  0  0  0
  9 10  1  0  0  0  0
 10 13  2  0  0  0  0
 11 12  2  0  0  0  0
 12 13  1  0  0  0  0
 14 11  1  0  0  0  0
 14  9  2  0  0  0  0
 16 25  1  0  0  0  0
 16 18  1  0  0  0  0
 17 16  2  0  0  0  0
 18 15  1  0  0  0  0
 18  8  1  0  0  0  0
 20 21  2  0  0  0  0
 20 25  1  0  0  0  0
 21 24  1  0  0  0  0
 22 23  1  0  0  0  0
 22 19  1  0  0  0  0
 24 26  1  0  0  0  0
 24 23  2  0  0  0  0
 25 22  2  0  0  0  0
 26 28  1  0  0  0  0
 27 26  1  0  0  0  0
 27 28  1  0  0  0  0
 29 33  2  0  0  0  0
 29 32  1  0  0  0  0
 30  1  1  1  0  0  0
 31 30  1  0  0  0  0
 32 34  1  0  0  0  0
 33 31  1  0  0  0  0
 34 30  1  0  0  0  0
 36 38  2  0  0  0  0
 36 35  1  0  0  0  0
 37 36  1  0  0  0  0
 39 45  1  6  0  0  0
 40 43  1  0  0  0  0
 40 37  1  1  0  0  0
 40 46  1  0  0  0  0
 42 47  2  0  0  0  0
 43 49  1  6  0  0  0
 43 42  1  0  0  0  0
 44 41  1  1  0  0  0
 44 46  1  0  0  0  0
 44 39  1  0  0  0  0
 48 39  1  0  0  0  0
 48 47  1  0  0  0  0
 50 49  1  0  0  0  0
 51 48  1  0  0  0  0
 51 52  1  0  0  0  0
 52 53  1  0  0  0  0
 53 55  1  0  0  0  0
 54 55  1  0  0  0  0
M  END
>  <MODEL>
6

>  <REMARK>
 VINA RESULT:      -5.1      2.927      7.932
  Name = 
  15 active torsions:
  status: ('A' for Active; 'I' for Inactive)
    1  A    between atoms: C_3  and  O_25
    2  A    between atoms: C_3  and  C_38
    3  A    between atoms: C_6  and  N_22
    4  A    between atoms: C_8  and  O_54
    5  A    between atoms: C_10  and  C_48
    6  A    between atoms: C_14  and  O_20
    7  A    between atoms: C_19  and  C_45
    8  A    between atoms: C_26  and  C_45
    9  A    between atoms: C_27  and  C_51
   10  A    between atoms: C_29  and  C_38
   11  A    between atoms: C_29  and  N_53
   12  A    between atoms: C_33  and  C_52
   13  A    between atoms: C_35  and  C_51
   14  A    between atoms: C_45  and  N_49
   15  A    between atoms: C_51  and  O_54
                            x       y       z     vdW  Elec       q    Type
                         _______ _______ _______ _____ _____    ______ ____

>  <TORSDO>
F 15

$$$$
=
 OpenBabel10262420303D

 55 59  0  0  1  0  0  0  0  0999 V2000
  189.5970  177.2920  140.8380 C   0  0  2  0  0  3  0  0  0  0  0  0
  190.6380  175.1850  142.8230 C   0  0  0  0  0  1  0  0  0  0  0  0
  189.8860  175.6870  145.4490 O   0  0  0  0  0  0  0  0  0  0  0  0
  189.5330  176.5440  144.5910 C   0  0  0  0  0  0  0  0  0  0  0  0
  189.8780  177.5180  142.3000 C   0  0  0  0  0  0  0  0  0  0  0  0
  190.0010  176.4310  143.2370 N   0  0  0  0  0  0  0  0  0  0  0  0
  189.9860  178.7070  142.7050 O   0  0  0  0  0  0  0  0  0  0  0  0
  188.5600  177.6280  144.9770 C   0  0  2  0  0  3  0  0  0  0  0  0
  189.5500  178.1090  147.2680 C   0  0  0  0  0  3  0  0  0  0  0  0
  189.3900  178.3310  148.6390 C   0  0  0  0  0  3  0  0  0  0  0  0
  187.1520  177.9190  147.0180 C   0  0  0  0  0  3  0  0  0  0  0  0
  186.9920  178.1430  148.3890 C   0  0  0  0  0  3  0  0  0  0  0  0
  188.1100  178.3480  149.2010 C   0  0  0  0  0  3  0  0  0  0  0  0
  188.4290  177.9060  146.4480 C   0  0  0  0  0  0  0  0  0  0  0  0
  186.6640  176.2950  144.3190 O   0  0  0  0  0  1  0  0  0  0  0  0
  186.6640  178.5890  143.5620 C   0  0  0  0  0  0  0  0  0  0  0  0
  187.3490  179.5960  143.2420 O   0  0  0  0  0  0  0  0  0  0  0  0
  187.2730  177.5050  144.2920 N   0  0  0  0  0  0  0  0  0  0  0  0
  184.5570  179.1960  145.8310 Cl  0  0  0  0  0  0  0  0  0  0  0  0
  184.8690  178.2430  141.8870 C   0  0  0  0  0  3  0  0  0  0  0  0
  183.5260  178.1460  141.5200 C   0  0  0  0  0  3  0  0  0  0  0  0
  184.2110  178.7590  144.1650 C   0  0  0  0  0  0  0  0  0  0  0  0
  182.8700  178.6680  143.7860 C   0  0  0  0  0  3  0  0  0  0  0  0
  182.5170  178.3690  142.4680 C   0  0  0  0  0  0  0  0  0  0  0  0
  185.2290  178.5490  143.2070 C   0  0  0  0  0  0  0  0  0  0  0  0
  181.0650  178.2270  142.1230 C   0  0  0  0  0  3  0  0  0  0  0  0
  180.8270  178.0740  140.6290 C   0  0  0  0  0  2  0  0  0  0  0  0
  180.6300  179.4230  141.2860 C   0  0  0  0  0  2  0  0  0  0  0  0
  192.9210  176.2270  138.2370 C   0  0  0  0  0  3  0  0  0  0  0  0
  190.7680  176.6590  140.0720 C   0  0  2  0  0  3  0  0  0  0  0  0
  192.0260  177.5290  140.1800 C   0  0  0  0  0  2  0  0  0  0  0  0
  191.5790  175.5960  137.9670 C   0  0  0  0  0  2  0  0  0  0  0  0
  193.1320  177.0630  139.2660 C   0  0  0  0  0  3  0  0  0  0  0  0
  190.4360  176.3830  138.6030 C   0  0  0  0  0  2  0  0  0  0  0  0
  189.1470  178.4850  140.2050 O   0  0  0  0  0  0  0  0  0  0  0  0
  187.9760  178.5310  139.4470 C   0  0  0  0  0  0  0  0  0  0  0  0
  187.9730  178.0920  138.0840 N   0  0  0  0  0  2  0  0  0  0  0  0
  186.9190  178.9750  139.9780 O   0  0  0  0  0  0  0  0  0  0  0  0
  183.6450  176.3220  137.8220 C   0  0  1  0  0  3  0  0  0  0  0  0
  186.7410  177.9080  137.3390 C   0  0  1  0  0  3  0  0  0  0  0  0
  183.4030  178.7050  138.1680 O   0  0  0  0  0  1  0  0  0  0  0  0
  186.7030  175.3640  137.0530 C   0  0  0  0  0  3  0  0  0  0  0  0
  186.8900  176.7090  136.3970 C   0  0  1  0  0  3  0  0  0  0  0  0
  184.2350  177.7230  137.6130 C   0  0  1  0  0  3  0  0  0  0  0  0
  182.1170  176.3220  137.7270 C   0  0  0  0  0  1  0  0  0  0  0  0
  185.5770  177.7980  138.3180 C   0  0  0  0  0  2  0  0  0  0  0  0
  185.5260  174.7640  137.2720 C   0  0  0  0  0  3  0  0  0  0  0  0
  184.2630  175.3430  136.9140 N   0  0  0  0  0  0  0  0  0  0  0  0
  186.0920  176.8570  135.2610 O   0  0  0  0  0  0  0  0  0  0  0  0
  186.5820  178.0000  134.6190 C   0  0  0  0  0  1  0  0  0  0  0  0
  183.4580  174.6070  135.9420 C   0  0  0  0  0  2  0  0  0  0  0  0
  183.9410  173.1740  135.8350 C   0  0  0  0  0  2  0  0  0  0  0  0
  182.8130  172.2250  136.1790 C   0  0  0  0  0  2  0  0  0  0  0  0
  180.8480  171.9900  137.1490 C   0  0  0  0  0  1  0  0  0  0  0  0
  181.9600  172.8280  137.1020 O   0  0  0  0  0  0  0  0  0  0  0  0
  1 35  1  6  0  0  0
  1  5  1  0  0  0  0
  2  6  1  0  0  0  0
  4  3  2  0  0  0  0
  5  7  2  0  0  0  0
  5  6  1  0  0  0  0
  6  4  1  0  0  0  0
  8  4  1  1  0  0  0
  8 14  1  0  0  0  0
  9 10  1  0  0  0  0
 10 13  2  0  0  0  0
 11 12  2  0  0  0  0
 12 13  1  0  0  0  0
 14 11  1  0  0  0  0
 14  9  2  0  0  0  0
 16 18  1  0  0  0  0
 17 16  2  0  0  0  0
 18 15  1  0  0  0  0
 18  8  1  0  0  0  0
 20 25  1  0  0  0  0
 21 20  2  0  0  0  0
 21 24  1  0  0  0  0
 22 19  1  0  0  0  0
 23 22  1  0  0  0  0
 24 23  2  0  0  0  0
 25 16  1  0  0  0  0
 25 22  2  0  0  0  0
 26 24  1  0  0  0  0
 27 28  1  0  0  0  0
 27 26  1  0  0  0  0
 28 26  1  0  0  0  0
 29 33  2  0  0  0  0
 30 31  1  0  0  0  0
 30  1  1  6  0  0  0
 32 29  1  0  0  0  0
 32 34  1  0  0  0  0
 33 31  1  0  0  0  0
 34 30  1  0  0  0  0
 36 38  2  0  0  0  0
 36 35  1  0  0  0  0
 37 36  1  0  0  0  0
 39 45  1  6  0  0  0
 40 37  1  1  0  0  0
 40 46  1  0  0  0  0
 42 47  2  0  0  0  0
 43 49  1  6  0  0  0
 43 42  1  0  0  0  0
 43 40  1  0  0  0  0
 44 39  1  0  0  0  0
 44 41  1  1  0  0  0
 44 46  1  0  0  0  0
 48 47  1  0  0  0  0
 48 39  1  0  0  0  0
 50 49  1  0  0  0  0
 51 48  1  0  0  0  0
 52 51  1  0  0  0  0
 52 53  1  0  0  0  0
 53 55  1  0  0  0  0
 55 54  1  0  0  0  0
M  END
>  <MODEL>
7

>  <REMARK>
 VINA RESULT:      -5.0      2.272      8.031
  Name = 
  15 active torsions:
  status: ('A' for Active; 'I' for Inactive)
    1  A    between atoms: C_3  and  O_25
    2  A    between atoms: C_3  and  C_38
    3  A    between atoms: C_6  and  N_22
    4  A    between atoms: C_8  and  O_54
    5  A    between atoms: C_10  and  C_48
    6  A    between atoms: C_14  and  O_20
    7  A    between atoms: C_19  and  C_45
    8  A    between atoms: C_26  and  C_45
    9  A    between atoms: C_27  and  C_51
   10  A    between atoms: C_29  and  C_38
   11  A    between atoms: C_29  and  N_53
   12  A    between atoms: C_33  and  C_52
   13  A    between atoms: C_35  and  C_51
   14  A    between atoms: C_45  and  N_49
   15  A    between atoms: C_51  and  O_54
                            x       y       z     vdW  Elec       q    Type
                         _______ _______ _______ _____ _____    ______ ____

>  <TORSDO>
F 15

$$$$
=
 OpenBabel10262420303D

 55 59  0  0  1  0  0  0  0  0999 V2000
  185.0920  178.6760  140.6890 C   0  0  2  0  0  3  0  0  0  0  0  0
  182.1480  178.2390  141.4640 C   0  0  0  0  0  1  0  0  0  0  0  0
  180.3820  178.7100  139.3720 O   0  0  0  0  0  0  0  0  0  0  0  0
  181.6040  178.9200  139.1330 C   0  0  0  0  0  0  0  0  0  0  0  0
  183.9020  179.3470  140.0550 C   0  0  0  0  0  0  0  0  0  0  0  0
  182.5630  178.8370  140.2000 N   0  0  0  0  0  0  0  0  0  0  0  0
  184.1060  180.3790  139.3600 O   0  0  0  0  0  0  0  0  0  0  0  0
  182.0520  179.1780  137.7170 C   0  0  2  0  0  3  0  0  0  0  0  0
  180.9750  180.0170  135.5740 C   0  0  0  0  0  3  0  0  0  0  0  0
  180.2530  180.9910  134.8770 C   0  0  0  0  0  3  0  0  0  0  0  0
  180.8000  181.3330  137.5960 C   0  0  0  0  0  3  0  0  0  0  0  0
  180.0770  182.3070  136.8990 C   0  0  0  0  0  3  0  0  0  0  0  0
  179.8030  182.1370  135.5400 C   0  0  0  0  0  3  0  0  0  0  0  0
  181.2480  180.1820  136.9410 C   0  0  0  0  0  0  0  0  0  0  0  0
  183.5480  177.8040  136.4210 O   0  0  0  0  0  1  0  0  0  0  0  0
  181.3270  176.9200  136.7690 C   0  0  0  0  0  0  0  0  0  0  0  0
  180.1100  177.1700  136.9740 O   0  0  0  0  0  0  0  0  0  0  0  0
  182.3190  177.9460  136.9740 N   0  0  0  0  0  0  0  0  0  0  0  0
  180.8830  174.5500  138.8040 Cl  0  0  0  0  0  0  0  0  0  0  0  0
  182.2790  175.3810  135.0740 C   0  0  0  0  0  3  0  0  0  0  0  0
  182.7120  174.1220  134.6550 C   0  0  0  0  0  3  0  0  0  0  0  0
  181.6090  174.4430  137.2080 C   0  0  0  0  0  0  0  0  0  0  0  0
  182.0380  173.1850  136.7770 C   0  0  0  0  0  3  0  0  0  0  0  0
  182.5840  173.0140  135.5030 C   0  0  0  0  0  0  0  0  0  0  0  0
  181.7240  175.5590  136.3490 C   0  0  0  0  0  0  0  0  0  0  0  0
  183.0810  171.6550  135.1070 C   0  0  0  0  0  3  0  0  0  0  0  0
  182.7970  170.5950  136.1580 C   0  0  0  0  0  2  0  0  0  0  0  0
  184.1720  171.2200  136.0750 C   0  0  0  0  0  2  0  0  0  0  0  0
  185.4010  178.5960  145.0300 C   0  0  0  0  0  3  0  0  0  0  0  0
  185.2270  178.9440  142.1950 C   0  0  2  0  0  3  0  0  0  0  0  0
  186.4200  178.1790  142.7810 C   0  0  0  0  0  2  0  0  0  0  0  0
  184.1090  179.0780  144.4200 C   0  0  0  0  0  2  0  0  0  0  0  0
  186.4600  178.2350  144.2880 C   0  0  0  0  0  3  0  0  0  0  0  0
  183.9510  178.6160  142.9730 C   0  0  0  0  0  2  0  0  0  0  0  0
  186.2960  178.9890  139.9960 O   0  0  0  0  0  0  0  0  0  0  0  0
  186.9910  178.0420  139.2430 C   0  0  0  0  0  0  0  0  0  0  0  0
  188.4140  177.9270  139.3510 N   0  0  0  0  0  2  0  0  0  0  0  0
  186.3470  177.2920  138.4550 O   0  0  0  0  0  0  0  0  0  0  0  0
  191.9370  176.3670  136.6880 C   0  0  1  0  0  3  0  0  0  0  0  0
  189.1420  176.8150  138.7670 C   0  0  1  0  0  3  0  0  0  0  0  0
  192.5500  175.9180  138.9860 O   0  0  0  0  0  1  0  0  0  0  0  0
  188.7870  177.2410  136.2670 C   0  0  0  0  0  3  0  0  0  0  0  0
  188.4580  176.3860  137.4650 C   0  0  1  0  0  3  0  0  0  0  0  0
  191.4620  176.0530  138.1130 C   0  0  1  0  0  3  0  0  0  0  0  0
  193.2430  175.6440  136.3460 C   0  0  0  0  0  1  0  0  0  0  0  0
  190.6080  177.2060  138.6080 C   0  0  0  0  0  2  0  0  0  0  0  0
  189.8660  177.1000  135.4870 C   0  0  0  0  0  3  0  0  0  0  0  0
  190.8760  176.1050  135.7030 N   0  0  0  0  0  0  0  0  0  0  0  0
  188.6560  175.0270  137.2140 O   0  0  0  0  0  0  0  0  0  0  0  0
  187.3720  174.4980  137.0460 C   0  0  0  0  0  1  0  0  0  0  0  0
  191.0670  175.1240  134.6370 C   0  0  0  0  0  2  0  0  0  0  0  0
  190.2610  173.8720  134.9240 C   0  0  0  0  0  2  0  0  0  0  0  0
  191.1800  172.6710  134.9810 C   0  0  0  0  0  2  0  0  0  0  0  0
  189.1130  171.9330  134.7780 C   0  0  0  0  0  1  0  0  0  0  0  0
  190.4380  171.5050  134.8040 O   0  0  0  0  0  0  0  0  0  0  0  0
  1 35  1  6  0  0  0
  4  3  2  0  0  0  0
  4  6  1  0  0  0  0
  5  6  1  0  0  0  0
  5  1  1  0  0  0  0
  6  2  1  0  0  0  0
  7  5  2  0  0  0  0
  8  4  1  1  0  0  0
  9 14  1  0  0  0  0
 10 13  1  0  0  0  0
 10  9  2  0  0  0  0
 12 11  1  0  0  0  0
 13 12  2  0  0  0  0
 14 11  2  0  0  0  0
 14  8  1  0  0  0  0
 15 18  1  0  0  0  0
 16 17  2  0  0  0  0
 16 18  1  0  0  0  0
 18  8  1  0  0  0  0
 20 25  1  0  0  0  0
 21 20  2  0  0  0  0
 21 24  1  0  0  0  0
 22 19  1  0  0  0  0
 23 22  1  0  0  0  0
 24 23  2  0  0  0  0
 25 16  1  0  0  0  0
 25 22  2  0  0  0  0
 26 24  1  0  0  0  0
 26 28  1  0  0  0  0
 26 27  1  0  0  0  0
 28 27  1  0  0  0  0
 30  1  1  6  0  0  0
 30 31  1  0  0  0  0
 30 34  1  0  0  0  0
 31 33  1  0  0  0  0
 32 29  1  0  0  0  0
 33 29  2  0  0  0  0
 34 32  1  0  0  0  0
 36 37  1  0  0  0  0
 36 35  1  0  0  0  0
 38 36  2  0  0  0  0
 39 45  1  6  0  0  0
 39 44  1  0  0  0  0
 40 37  1  6  0  0  0
 42 43  1  0  0  0  0
 43 49  1  6  0  0  0
 43 40  1  0  0  0  0
 44 46  1  0  0  0  0
 44 41  1  1  0  0  0
 46 40  1  0  0  0  0
 47 48  1  0  0  0  0
 47 42  2  0  0  0  0
 48 39  1  0  0  0  0
 50 49  1  0  0  0  0
 51 52  1  0  0  0  0
 51 48  1  0  0  0  0
 52 53  1  0  0  0  0
 54 55  1  0  0  0  0
 55 53  1  0  0  0  0
M  END
>  <MODEL>
8

>  <REMARK>
 VINA RESULT:      -4.5      2.681      8.600
  Name = 
  15 active torsions:
  status: ('A' for Active; 'I' for Inactive)
    1  A    between atoms: C_3  and  O_25
    2  A    between atoms: C_3  and  C_38
    3  A    between atoms: C_6  and  N_22
    4  A    between atoms: C_8  and  O_54
    5  A    between atoms: C_10  and  C_48
    6  A    between atoms: C_14  and  O_20
    7  A    between atoms: C_19  and  C_45
    8  A    between atoms: C_26  and  C_45
    9  A    between atoms: C_27  and  C_51
   10  A    between atoms: C_29  and  C_38
   11  A    between atoms: C_29  and  N_53
   12  A    between atoms: C_33  and  C_52
   13  A    between atoms: C_35  and  C_51
   14  A    between atoms: C_45  and  N_49
   15  A    between atoms: C_51  and  O_54
                            x       y       z     vdW  Elec       q    Type
                         _______ _______ _______ _____ _____    ______ ____

>  <TORSDO>
F 15

$$$$
=
 OpenBabel10262420303D

 55 59  0  0  1  0  0  0  0  0999 V2000
  188.5110  176.6790  137.8700 C   0  0  2  0  0  3  0  0  0  0  0  0
  187.5170  177.8460  135.2040 C   0  0  0  0  0  1  0  0  0  0  0  0
  184.9070  177.1200  134.5940 O   0  0  0  0  0  0  0  0  0  0  0  0
  185.3920  176.6310  135.6520 C   0  0  0  0  0  0  0  0  0  0  0  0
  187.4510  176.0800  136.9840 C   0  0  0  0  0  0  0  0  0  0  0  0
  186.7780  176.8440  135.9640 N   0  0  0  0  0  0  0  0  0  0  0  0
  187.1390  174.8720  137.1680 O   0  0  0  0  0  0  0  0  0  0  0  0
  184.4930  175.9000  136.6160 C   0  0  2  0  0  3  0  0  0  0  0  0
  184.6400  173.3660  136.7310 C   0  0  0  0  0  3  0  0  0  0  0  0
  184.2300  172.1020  136.2920 C   0  0  0  0  0  3  0  0  0  0  0  0
  183.0660  174.4050  135.2180 C   0  0  0  0  0  3  0  0  0  0  0  0
  182.6550  173.1420  134.7790 C   0  0  0  0  0  3  0  0  0  0  0  0
  183.2360  171.9900  135.3140 C   0  0  0  0  0  3  0  0  0  0  0  0
  184.0550  174.5250  136.1980 C   0  0  0  0  0  0  0  0  0  0  0  0
  182.1440  176.4290  136.6990 O   0  0  0  0  0  1  0  0  0  0  0  0
  183.6040  177.8720  137.9720 C   0  0  0  0  0  0  0  0  0  0  0  0
  184.7540  178.3700  138.0950 O   0  0  0  0  0  0  0  0  0  0  0  0
  183.3980  176.7330  137.1140 N   0  0  0  0  0  0  0  0  0  0  0  0
  183.7420  177.7500  141.1220 Cl  0  0  0  0  0  0  0  0  0  0  0  0
  181.4090  179.0250  138.0420 C   0  0  0  0  0  3  0  0  0  0  0  0
  180.3070  179.5400  138.7250 C   0  0  0  0  0  3  0  0  0  0  0  0
  182.4300  178.4010  140.1520 C   0  0  0  0  0  0  0  0  0  0  0  0
  181.3260  178.9260  140.8280 C   0  0  0  0  0  3  0  0  0  0  0  0
  180.2650  179.5020  140.1260 C   0  0  0  0  0  0  0  0  0  0  0  0
  182.4810  178.4520  138.7400 C   0  0  0  0  0  0  0  0  0  0  0  0
  179.0770  180.0010  140.8930 C   0  0  0  0  0  3  0  0  0  0  0  0
  179.4560  180.6100  142.2330 C   0  0  0  0  0  2  0  0  0  0  0  0
  178.9330  179.1920  142.1750 C   0  0  0  0  0  2  0  0  0  0  0  0
  192.3720  174.8030  137.1500 C   0  0  0  0  0  3  0  0  0  0  0  0
  189.8280  175.8910  137.8830 C   0  0  2  0  0  3  0  0  0  0  0  0
  191.0300  176.8330  137.7410 C   0  0  0  0  0  2  0  0  0  0  0  0
  191.1340  173.9540  137.0080 C   0  0  0  0  0  2  0  0  0  0  0  0
  192.3260  176.0910  137.5270 C   0  0  0  0  0  3  0  0  0  0  0  0
  189.8780  174.8000  136.8100 C   0  0  0  0  0  2  0  0  0  0  0  0
  188.0230  176.8950  139.1900 O   0  0  0  0  0  0  0  0  0  0  0  0
  188.8430  177.3460  140.2250 C   0  0  0  0  0  0  0  0  0  0  0  0
  188.9800  176.5850  141.4300 N   0  0  0  0  0  2  0  0  0  0  0  0
  189.4580  178.4420  140.0860 O   0  0  0  0  0  0  0  0  0  0  0  0
  190.8960  175.7690  145.6260 C   0  0  1  0  0  3  0  0  0  0  0  0
  189.9910  176.8970  142.4250 C   0  0  1  0  0  3  0  0  0  0  0  0
  192.4090  174.8460  143.9780 O   0  0  0  0  0  1  0  0  0  0  0  0
  188.5420  177.7070  144.3750 C   0  0  0  0  0  3  0  0  0  0  0  0
  189.5150  178.0730  143.2820 C   0  0  1  0  0  3  0  0  0  0  0  0
  191.4560  175.8480  144.1990 C   0  0  1  0  0  3  0  0  0  0  0  0
  191.9630  175.3450  146.6380 C   0  0  0  0  0  1  0  0  0  0  0  0
  190.3180  175.6340  143.2160 C   0  0  0  0  0  2  0  0  0  0  0  0
  188.8740  177.2450  145.5870 C   0  0  0  0  0  3  0  0  0  0  0  0
  190.2270  177.0230  146.0070 N   0  0  0  0  0  0  0  0  0  0  0  0
  190.5940  178.8150  143.7660 O   0  0  0  0  0  0  0  0  0  0  0  0
  191.5500  178.7740  142.7440 C   0  0  0  0  0  1  0  0  0  0  0  0
  190.6960  177.8070  147.1470 C   0  0  0  0  0  2  0  0  0  0  0  0
  189.7900  177.5900  148.3430 C   0  0  0  0  0  2  0  0  0  0  0  0
  188.6830  178.6230  148.3420 C   0  0  0  0  0  2  0  0  0  0  0  0
  186.5230  178.8240  147.9490 C   0  0  0  0  0  1  0  0  0  0  0  0
  187.4580  177.9960  148.5650 O   0  0  0  0  0  0  0  0  0  0  0  0
  1  5  1  6  0  0  0
  1 35  1  0  0  0  0
  2  6  1  0  0  0  0
  3  4  2  0  0  0  0
  4  6  1  0  0  0  0
  5  7  2  0  0  0  0
  6  5  1  0  0  0  0
  8  4  1  6  0  0  0
  8 18  1  0  0  0  0
 10  9  1  0  0  0  0
 11 14  1  0  0  0  0
 12 11  2  0  0  0  0
 12 13  1  0  0  0  0
 13 10  2  0  0  0  0
 14  8  1  0  0  0  0
 14  9  2  0  0  0  0
 15 18  1  0  0  0  0
 16 17  2  0  0  0  0
 16 25  1  0  0  0  0
 18 16  1  0  0  0  0
 20 21  2  0  0  0  0
 20 25  1  0  0  0  0
 21 24  1  0  0  0  0
 22 23  1  0  0  0  0
 22 19  1  0  0  0  0
 24 23  2  0  0  0  0
 24 26  1  0  0  0  0
 25 22  2  0  0  0  0
 26 28  1  0  0  0  0
 26 27  1  0  0  0  0
 28 27  1  0  0  0  0
 29 33  2  0  0  0  0
 30  1  1  6  0  0  0
 31 30  1  0  0  0  0
 32 29  1  0  0  0  0
 33 31  1  0  0  0  0
 34 32  1  0  0  0  0
 34 30  1  0  0  0  0
 35 36  1  0  0  0  0
 36 37  1  0  0  0  0
 38 36  2  0  0  0  0
 39 48  1  0  0  0  0
 39 45  1  1  0  0  0
 40 37  1  6  0  0  0
 40 46  1  0  0  0  0
 40 43  1  0  0  0  0
 42 47  2  0  0  0  0
 43 49  1  1  0  0  0
 43 42  1  0  0  0  0
 44 41  1  1  0  0  0
 44 39  1  0  0  0  0
 46 44  1  0  0  0  0
 47 48  1  0  0  0  0
 48 51  1  0  0  0  0
 50 49  1  0  0  0  0
 51 52  1  0  0  0  0
 53 52  1  0  0  0  0
 53 55  1  0  0  0  0
 54 55  1  0  0  0  0
M  END
>  <MODEL>
9

>  <REMARK>
 VINA RESULT:      -4.4      1.898      2.575
  Name = 
  15 active torsions:
  status: ('A' for Active; 'I' for Inactive)
    1  A    between atoms: C_3  and  O_25
    2  A    between atoms: C_3  and  C_38
    3  A    between atoms: C_6  and  N_22
    4  A    between atoms: C_8  and  O_54
    5  A    between atoms: C_10  and  C_48
    6  A    between atoms: C_14  and  O_20
    7  A    between atoms: C_19  and  C_45
    8  A    between atoms: C_26  and  C_45
    9  A    between atoms: C_27  and  C_51
   10  A    between atoms: C_29  and  C_38
   11  A    between atoms: C_29  and  N_53
   12  A    between atoms: C_33  and  C_52
   13  A    between atoms: C_35  and  C_51
   14  A    between atoms: C_45  and  N_49
   15  A    between atoms: C_51  and  O_54
                            x       y       z     vdW  Elec       q    Type
                         _______ _______ _______ _____ _____    ______ ____

>  <TORSDO>
F 15

$$$$
