=
 OpenBabel10262420393D

 55 61  0  0  1  0  0  0  0  0999 V2000
  185.2700  178.8380  141.1750 C   0  0  0  0  0  3  0  0  0  0  0  0
  186.8060  178.2010  138.9250 C   0  0  0  0  0  0  0  0  0  0  0  0
  185.4160  178.3170  138.8170 C   0  0  0  0  0  3  0  0  0  0  0  0
  186.6590  178.7250  141.2860 C   0  0  0  0  0  3  0  0  0  0  0  0
  184.6440  178.6410  139.9360 C   0  0  0  0  0  0  0  0  0  0  0  0
  187.4260  178.4050  140.1620 C   0  0  0  0  0  3  0  0  0  0  0  0
  183.1610  178.7320  139.7880 C   0  0  1  0  0  3  0  0  0  0  0  0
  181.0680  178.4980  141.0970 C   0  0  0  0  0  2  0  0  0  0  0  0
  179.6660  180.4120  141.8280 C   0  0  0  0  0  1  0  0  0  0  0  0
  180.4740  180.4240  139.4570 C   0  0  1  0  0  3  0  0  0  0  0  0
  182.4970  179.0230  141.1270 C   0  0  0  0  0  2  0  0  0  0  0  0
  179.2860  181.1640  138.8660 C   0  0  0  0  0  1  0  0  0  0  0  0
  180.0460  179.5450  140.6450 C   0  0  1  0  0  3  0  0  0  0  0  0
  181.2850  179.7250  138.3530 C   0  0  1  0  0  3  0  0  0  0  0  0
  182.7760  179.7420  138.7070 C   0  0  0  0  0  2  0  0  0  0  0  0
  179.3160  178.5070  137.3780 C   0  0  0  0  0  2  0  0  0  0  0  0
  179.2870  179.7840  135.2420 C   0  0  0  0  0  1  0  0  0  0  0  0
  181.4510  177.8490  136.6960 C   0  0  0  0  0  0  0  0  0  0  0  0
  180.7610  177.8920  135.6100 N   0  0  0  0  0  0  0  0  0  0  0  0
  179.4280  178.4050  135.8600 C   0  0  1  0  0  3  0  0  0  0  0  0
  180.7400  178.3480  137.9060 C   0  0  1  0  0  3  0  0  0  0  0  0
  182.7650  177.2950  136.7420 N   0  0  0  0  0  2  0  0  0  0  0  0
  183.5790  177.1140  135.5520 C   0  0  0  0  0  2  0  0  0  0  0  0
  185.8230  176.1680  135.0130 C   0  0  0  0  0  3  0  0  0  0  0  0
  186.8230  174.4320  136.3780 C   0  0  0  0  0  0  0  0  0  0  0  0
  184.6660  175.3700  136.9800 C   0  0  0  0  0  3  0  0  0  0  0  0
  185.7160  174.4830  137.2350 C   0  0  0  0  0  3  0  0  0  0  0  0
  186.8700  175.2790  135.2660 C   0  0  0  0  0  3  0  0  0  0  0  0
  184.7230  176.2160  135.8710 C   0  0  0  0  0  0  0  0  0  0  0  0
  187.9280  173.4970  136.6370 C   0  0  0  0  0  0  0  0  0  0  0  0
  187.6990  172.3480  137.0950 O   0  0  0  0  0  1  0  0  0  0  0  0
  189.2420  173.8730  136.3790 O   0  0  0  0  0  0  0  0  0  0  0  0
  187.6240  177.8390  137.7310 C   0  0  0  0  0  2  0  0  0  0  0  0
  189.0560  178.3320  137.8820 C   0  0  0  0  0  2  0  0  0  0  0  0
  190.0360  177.2530  137.4500 C   0  0  0  0  0  2  0  0  0  0  0  0
  190.3440  176.3140  138.6030 C   0  0  0  0  0  2  0  0  0  0  0  0
  190.9620  177.0730  139.7630 C   0  0  0  0  0  2  0  0  0  0  0  0
  191.9300  177.7920  142.3420 O   0  0  0  0  0  0  0  0  0  0  0  0
  191.1410  176.8140  142.2660 C   0  0  0  0  0  0  0  0  0  0  0  0
  190.5990  176.4160  141.0050 N   0  0  0  0  0  2  0  0  0  0  0  0
  191.9140  175.4110  143.9840 O   0  0  0  0  0  1  0  0  0  0  0  0
  190.7760  176.0580  143.5040 C   0  0  1  0  0  3  0  0  0  0  0  0
  188.6730  177.3450  144.3630 C   0  0  0  0  0  0  0  0  0  0  0  0
  189.2360  177.2710  146.8320 C   0  0  2  0  0  3  0  0  0  0  0  0
  186.8210  176.8310  146.1690 C   0  0  0  0  0  2  0  0  0  0  0  0
  189.6730  178.5340  147.2420 O   0  0  0  0  0  1  0  0  0  0  0  0
  187.9200  176.2700  143.5700 C   0  0  0  0  0  1  0  0  0  0  0  0
  188.5580  178.6750  143.6330 C   0  0  0  0  0  1  0  0  0  0  0  0
  190.3180  176.5400  146.0180 C   0  0  1  0  0  3  0  0  0  0  0  0
  190.1740  177.0110  144.5620 C   0  0  1  0  0  3  0  0  0  0  0  0
  186.9650  178.3460  146.1310 C   0  0  0  0  0  2  0  0  0  0  0  0
  188.1540  177.4590  145.8030 C   0  0  0  0  0  0  0  0  0  0  0  0
  191.7770  176.5210  146.5300 C   0  0  2  0  0  3  0  0  0  0  0  0
  192.0020  175.4700  147.5470 C   0  0  0  0  0  2  0  0  0  0  0  0
  191.8770  176.8310  147.8960 O   0  0  0  0  0  0  0  0  0  0  0  0
  1  4  1  0  0  0  0
  2  6  1  0  0  0  0
  3  2  2  0  0  0  0
  3  5  1  0  0  0  0
  5  1  2  0  0  0  0
  6  4  2  0  0  0  0
  7  5  1  1  0  0  0
  7 11  1  0  0  0  0
  8 11  1  0  0  0  0
 10 12  1  6  0  0  0
 10 13  1  0  0  0  0
 13  8  1  0  0  0  0
 13  9  1  1  0  0  0
 14 15  1  1  0  0  0
 14 10  1  0  0  0  0
 15  7  1  0  0  0  0
 18 22  1  0  0  0  0
 18 21  1  0  0  0  0
 19 20  1  0  0  0  0
 19 18  2  0  0  0  0
 20 17  1  6  0  0  0
 20 16  1  0  0  0  0
 21 16  1  6  0  0  0
 21 14  1  0  0  0  0
 23 29  1  0  0  0  0
 23 22  1  0  0  0  0
 24 28  2  0  0  0  0
 24 29  1  0  0  0  0
 25 30  1  0  0  0  0
 25 27  2  0  0  0  0
 26 27  1  0  0  0  0
 28 25  1  0  0  0  0
 29 26  2  0  0  0  0
 30 31  1  0  0  0  0
 32 30  2  0  0  0  0
 33 34  1  0  0  0  0
 33  2  1  0  0  0  0
 35 34  1  0  0  0  0
 35 36  1  0  0  0  0
 36 37  1  0  0  0  0
 37 40  1  0  0  0  0
 39 38  2  0  0  0  0
 39 42  1  0  0  0  0
 40 39  1  0  0  0  0
 42 41  1  1  0  0  0
 43 50  1  0  0  0  0
 43 52  1  0  0  0  0
 44 46  1  6  0  0  0
 47 43  1  0  0  0  0
 48 43  1  0  0  0  0
 49 53  1  1  0  0  0
 49 44  1  0  0  0  0
 50 42  1  6  0  0  0
 50 49  1  0  0  0  0
 51 45  1  0  0  0  0
 52 51  1  0  0  0  0
 52 45  1  0  0  0  0
 52 44  1  0  0  0  0
 53 54  1  1  0  0  0
 53 55  1  0  0  0  0
 54 55  1  0  0  0  0
M  END
>  <MODEL>
1

>  <REMARK>
 VINA RESULT:      -8.0      0.000      0.000
  Name = 
  14 active torsions:
  status: ('A' for Active; 'I' for Inactive)
    1  A    between atoms: C_2  and  C_44
    2  A    between atoms: C_8  and  N_22
    3  A    between atoms: C_8  and  C_35
    4  A    between atoms: C_10  and  C_32
    5  A    between atoms: C_11  and  C_38
    6  A    between atoms: C_20  and  C_50
    7  A    between atoms: C_26  and  C_45
    8  A    between atoms: C_27  and  C_54
    9  A    between atoms: C_33  and  N_36
   10  A    between atoms: C_33  and  C_52
   11  A    between atoms: C_35  and  C_43
   12  A    between atoms: C_42  and  C_50
   13  A    between atoms: C_43  and  C_51
   14  A    between atoms: C_51  and  C_54
                            x       y       z     vdW  Elec       q    Type
                         _______ _______ _______ _____ _____    ______ ____

>  <TORSDO>
F 14

$$$$
=
 OpenBabel10262420393D

 55 61  0  0  1  0  0  0  0  0999 V2000
  184.6980  177.5270  137.7240 C   0  0  0  0  0  3  0  0  0  0  0  0
  182.8360  177.7650  139.7990 C   0  0  0  0  0  0  0  0  0  0  0  0
  182.8430  176.6250  138.9890 C   0  0  0  0  0  3  0  0  0  0  0  0
  184.6950  178.6670  138.5340 C   0  0  0  0  0  3  0  0  0  0  0  0
  183.7730  176.4980  137.9550 C   0  0  0  0  0  0  0  0  0  0  0  0
  183.7640  178.7870  139.5700 C   0  0  0  0  0  3  0  0  0  0  0  0
  183.7340  175.2790  137.0930 C   0  0  1  0  0  3  0  0  0  0  0  0
  185.0810  174.0530  135.4100 C   0  0  0  0  0  2  0  0  0  0  0  0
  186.2810  171.9290  135.8720 C   0  0  0  0  0  1  0  0  0  0  0  0
  183.9250  172.1160  136.7000 C   0  0  1  0  0  3  0  0  0  0  0  0
  185.1400  174.8300  136.7180 C   0  0  0  0  0  2  0  0  0  0  0  0
  183.5730  170.6430  136.5760 C   0  0  0  0  0  1  0  0  0  0  0  0
  184.9210  172.5430  135.6080 C   0  0  1  0  0  3  0  0  0  0  0  0
  182.6530  172.9710  136.8290 C   0  0  1  0  0  3  0  0  0  0  0  0
  182.9160  174.1660  137.7510 C   0  0  0  0  0  2  0  0  0  0  0  0
  181.4310  172.0470  134.8380 C   0  0  0  0  0  2  0  0  0  0  0  0
  179.5560  171.0680  136.1490 C   0  0  0  0  0  1  0  0  0  0  0  0
  180.6930  174.0780  135.7220 C   0  0  0  0  0  0  0  0  0  0  0  0
  179.6160  173.4070  135.5060 N   0  0  0  0  0  0  0  0  0  0  0  0
  179.9220  172.0610  135.0620 C   0  0  1  0  0  3  0  0  0  0  0  0
  181.9550  173.3220  135.4930 C   0  0  1  0  0  3  0  0  0  0  0  0
  180.6710  175.4600  136.0780 N   0  0  0  0  0  2  0  0  0  0  0  0
  179.4870  176.1100  136.6130 C   0  0  0  0  0  2  0  0  0  0  0  0
  180.8460  178.1850  136.3510 C   0  0  0  0  0  3  0  0  0  0  0  0
  180.5850  180.0660  137.8590 C   0  0  0  0  0  0  0  0  0  0  0  0
  179.1930  178.0920  138.1120 C   0  0  0  0  0  3  0  0  0  0  0  0
  179.5670  179.3730  138.5280 C   0  0  0  0  0  3  0  0  0  0  0  0
  181.2220  179.4640  136.7680 C   0  0  0  0  0  3  0  0  0  0  0  0
  179.8300  177.5000  137.0190 C   0  0  0  0  0  0  0  0  0  0  0  0
  180.9880  181.4110  138.2950 C   0  0  0  0  0  0  0  0  0  0  0  0
  182.1980  181.6770  138.5090 O   0  0  0  0  0  1  0  0  0  0  0  0
  180.0320  182.4060  138.4750 O   0  0  0  0  0  0  0  0  0  0  0  0
  181.8290  177.9040  140.8920 C   0  0  0  0  0  2  0  0  0  0  0  0
  182.2190  179.0170  141.8540 C   0  0  0  0  0  2  0  0  0  0  0  0
  182.9850  178.4480  143.0380 C   0  0  0  0  0  2  0  0  0  0  0  0
  183.2150  179.5150  144.0930 C   0  0  0  0  0  2  0  0  0  0  0  0
  184.6750  179.9290  144.1290 C   0  0  0  0  0  2  0  0  0  0  0  0
  185.9590  179.1480  146.5470 O   0  0  0  0  0  0  0  0  0  0  0  0
  186.1340  178.4230  145.5320 C   0  0  0  0  0  0  0  0  0  0  0  0
  185.4990  178.7450  144.2940 N   0  0  0  0  0  2  0  0  0  0  0  0
  186.8450  176.4490  144.4750 O   0  0  0  0  0  1  0  0  0  0  0  0
  187.0210  177.2220  145.6230 C   0  0  1  0  0  3  0  0  0  0  0  0
  189.1320  177.2590  147.1570 C   0  0  0  0  0  0  0  0  0  0  0  0
  190.8710  177.1780  145.3160 C   0  0  2  0  0  3  0  0  0  0  0  0
  191.2720  175.7310  147.3690 C   0  0  0  0  0  2  0  0  0  0  0  0
  191.4520  178.4410  145.1760 O   0  0  0  0  0  1  0  0  0  0  0  0
  188.4480  176.0550  147.8150 C   0  0  0  0  0  1  0  0  0  0  0  0
  189.0550  178.4520  148.0990 C   0  0  0  0  0  1  0  0  0  0  0  0
  189.4560  177.1410  144.7130 C   0  0  1  0  0  3  0  0  0  0  0  0
  188.4960  177.6510  145.7990 C   0  0  1  0  0  3  0  0  0  0  0  0
  191.7080  177.1290  147.7860 C   0  0  0  0  0  2  0  0  0  0  0  0
  190.5870  176.9500  146.7770 C   0  0  0  0  0  0  0  0  0  0  0  0
  189.2040  177.7530  143.3150 C   0  0  2  0  0  3  0  0  0  0  0  0
  189.3780  176.7640  142.2290 C   0  0  0  0  0  2  0  0  0  0  0  0
  190.3520  177.7470  142.5060 O   0  0  0  0  0  0  0  0  0  0  0  0
  1  5  2  0  0  0  0
  1  4  1  0  0  0  0
  2 33  1  0  0  0  0
  3  2  2  0  0  0  0
  4  6  2  0  0  0  0
  5  3  1  0  0  0  0
  6  2  1  0  0  0  0
  7 15  1  0  0  0  0
  7  5  1  1  0  0  0
  8 13  1  0  0  0  0
  8 11  1  0  0  0  0
 10 12  1  6  0  0  0
 10 14  1  0  0  0  0
 11  7  1  0  0  0  0
 13  9  1  1  0  0  0
 13 10  1  0  0  0  0
 14 15  1  6  0  0  0
 16 20  1  0  0  0  0
 18 22  1  0  0  0  0
 19 18  2  0  0  0  0
 20 19  1  0  0  0  0
 20 17  1  1  0  0  0
 21 16  1  1  0  0  0
 21 18  1  0  0  0  0
 21 14  1  0  0  0  0
 22 23  1  0  0  0  0
 23 29  1  0  0  0  0
 24 28  2  0  0  0  0
 24 29  1  0  0  0  0
 25 30  1  0  0  0  0
 25 27  2  0  0  0  0
 26 27  1  0  0  0  0
 28 25  1  0  0  0  0
 29 26  2  0  0  0  0
 30 32  2  0  0  0  0
 30 31  1  0  0  0  0
 33 34  1  0  0  0  0
 34 35  1  0  0  0  0
 35 36  1  0  0  0  0
 36 37  1  0  0  0  0
 37 40  1  0  0  0  0
 39 42  1  0  0  0  0
 39 38  2  0  0  0  0
 40 39  1  0  0  0  0
 42 41  1  6  0  0  0
 43 47  1  0  0  0  0
 43 48  1  0  0  0  0
 44 46  1  1  0  0  0
 44 52  1  0  0  0  0
 45 51  1  0  0  0  0
 49 53  1  6  0  0  0
 49 44  1  0  0  0  0
 49 50  1  0  0  0  0
 50 42  1  6  0  0  0
 50 43  1  0  0  0  0
 52 43  1  0  0  0  0
 52 45  1  0  0  0  0
 52 51  1  0  0  0  0
 53 54  1  6  0  0  0
 54 55  1  0  0  0  0
 55 53  1  0  0  0  0
M  END
>  <MODEL>
2

>  <REMARK>
 VINA RESULT:      -7.9      3.474      6.670
  Name = 
  14 active torsions:
  status: ('A' for Active; 'I' for Inactive)
    1  A    between atoms: C_2  and  C_44
    2  A    between atoms: C_8  and  N_22
    3  A    between atoms: C_8  and  C_35
    4  A    between atoms: C_10  and  C_32
    5  A    between atoms: C_11  and  C_38
    6  A    between atoms: C_20  and  C_50
    7  A    between atoms: C_26  and  C_45
    8  A    between atoms: C_27  and  C_54
    9  A    between atoms: C_33  and  N_36
   10  A    between atoms: C_33  and  C_52
   11  A    between atoms: C_35  and  C_43
   12  A    between atoms: C_42  and  C_50
   13  A    between atoms: C_43  and  C_51
   14  A    between atoms: C_51  and  C_54
                            x       y       z     vdW  Elec       q    Type
                         _______ _______ _______ _____ _____    ______ ____

>  <TORSDO>
F 14

$$$$
=
 OpenBabel10262420393D

 55 61  0  0  1  0  0  0  0  0999 V2000
  189.0470  178.5990  137.7180 C   0  0  0  0  0  3  0  0  0  0  0  0
  187.3490  176.6650  136.6200 C   0  0  0  0  0  0  0  0  0  0  0  0
  187.3350  176.9120  137.9970 C   0  0  0  0  0  3  0  0  0  0  0  0
  189.0610  178.3560  136.3400 C   0  0  0  0  0  3  0  0  0  0  0  0
  188.1770  177.8800  138.5500 C   0  0  0  0  0  0  0  0  0  0  0  0
  188.2130  177.3880  135.7930 C   0  0  0  0  0  3  0  0  0  0  0  0
  188.1540  178.0990  140.0270 C   0  0  1  0  0  3  0  0  0  0  0  0
  186.9640  179.3960  141.7740 C   0  0  0  0  0  2  0  0  0  0  0  0
  185.3100  178.4180  143.3450 C   0  0  0  0  0  1  0  0  0  0  0  0
  187.4410  177.1510  142.9910 C   0  0  1  0  0  3  0  0  0  0  0  0
  186.7930  178.6090  140.4820 C   0  0  0  0  0  2  0  0  0  0  0  0
  187.5200  176.5400  144.3810 C   0  0  0  0  0  1  0  0  0  0  0  0
  186.7870  178.5430  143.0330 C   0  0  1  0  0  3  0  0  0  0  0  0
  188.8010  177.0610  142.2790 C   0  0  1  0  0  3  0  0  0  0  0  0
  188.5930  176.8400  140.7770 C   0  0  0  0  0  2  0  0  0  0  0  0
  190.0180  178.2170  144.1480 C   0  0  0  0  0  2  0  0  0  0  0  0
  191.2130  176.1830  144.9410 C   0  0  0  0  0  1  0  0  0  0  0  0
  191.1790  177.8500  142.1560 C   0  0  0  0  0  0  0  0  0  0  0  0
  192.0110  177.5230  143.0820 N   0  0  0  0  0  0  0  0  0  0  0  0
  191.3860  177.5860  144.3880 C   0  0  1  0  0  3  0  0  0  0  0  0
  189.8090  178.1800  142.6370 C   0  0  1  0  0  3  0  0  0  0  0  0
  191.5680  177.9610  140.7870 N   0  0  0  0  0  2  0  0  0  0  0  0
  192.7750  177.3430  140.2650 C   0  0  0  0  0  2  0  0  0  0  0  0
  191.2800  176.0180  138.7710 C   0  0  0  0  0  3  0  0  0  0  0  0
  191.9590  175.4080  136.5250 C   0  0  0  0  0  0  0  0  0  0  0  0
  193.4200  176.7560  137.9200 C   0  0  0  0  0  3  0  0  0  0  0  0
  193.1590  176.1070  136.7090 C   0  0  0  0  0  3  0  0  0  0  0  0
  191.0220  175.3670  137.5630 C   0  0  0  0  0  3  0  0  0  0  0  0
  192.4760  176.7150  138.9490 C   0  0  0  0  0  0  0  0  0  0  0  0
  191.6810  174.7180  135.2560 C   0  0  0  0  0  0  0  0  0  0  0  0
  190.5290  174.7470  134.7520 O   0  0  0  0  0  1  0  0  0  0  0  0
  192.6910  174.0250  134.5980 O   0  0  0  0  0  0  0  0  0  0  0  0
  186.4600  175.6170  136.0360 C   0  0  0  0  0  2  0  0  0  0  0  0
  187.2450  174.3540  135.7150 C   0  0  0  0  0  2  0  0  0  0  0  0
  186.3900  173.1220  135.9650 C   0  0  0  0  0  2  0  0  0  0  0  0
  185.9890  173.0330  137.4270 C   0  0  0  0  0  2  0  0  0  0  0  0
  184.5070  172.7330  137.5600 C   0  0  0  0  0  2  0  0  0  0  0  0
  181.7370  172.8730  136.9180 O   0  0  0  0  0  0  0  0  0  0  0  0
  182.3690  173.9570  137.0180 C   0  0  0  0  0  0  0  0  0  0  0  0
  183.7560  173.9580  137.3610 N   0  0  0  0  0  2  0  0  0  0  0  0
  180.2960  175.0030  136.6590 O   0  0  0  0  0  1  0  0  0  0  0  0
  181.6640  175.2520  136.7650 C   0  0  1  0  0  3  0  0  0  0  0  0
  182.4130  177.6690  137.4060 C   0  0  0  0  0  0  0  0  0  0  0  0
  181.0820  177.8600  139.5550 C   0  0  2  0  0  3  0  0  0  0  0  0
  181.1220  179.8860  138.0190 C   0  0  0  0  0  2  0  0  0  0  0  0
  181.9500  177.7400  140.6440 O   0  0  0  0  0  1  0  0  0  0  0  0
  181.9120  178.0000  135.9950 C   0  0  0  0  0  1  0  0  0  0  0  0
  183.9330  177.7420  137.4260 C   0  0  0  0  0  1  0  0  0  0  0  0
  180.8260  176.4960  138.8900 C   0  0  1  0  0  3  0  0  0  0  0  0
  181.9730  176.2650  137.8920 C   0  0  1  0  0  3  0  0  0  0  0  0
  182.4420  179.9440  138.7740 C   0  0  0  0  0  2  0  0  0  0  0  0
  181.8020  178.6030  138.4610 C   0  0  0  0  0  0  0  0  0  0  0  0
  180.5010  175.2660  139.7680 C   0  0  2  0  0  3  0  0  0  0  0  0
  179.0710  174.8910  139.7030 C   0  0  0  0  0  2  0  0  0  0  0  0
  179.6140  175.5660  140.8160 O   0  0  0  0  0  0  0  0  0  0  0  0
  1  5  1  0  0  0  0
  2  3  1  0  0  0  0
  3  5  2  0  0  0  0
  4  1  2  0  0  0  0
  6  4  1  0  0  0  0
  6  2  2  0  0  0  0
  7  5  1  6  0  0  0
  7 11  1  0  0  0  0
  7 15  1  0  0  0  0
  8 13  1  0  0  0  0
 10 13  1  0  0  0  0
 10 12  1  1  0  0  0
 11  8  1  0  0  0  0
 13  9  1  6  0  0  0
 14 15  1  6  0  0  0
 14 21  1  0  0  0  0
 14 10  1  0  0  0  0
 16 20  1  0  0  0  0
 18 21  1  0  0  0  0
 18 19  2  0  0  0  0
 19 20  1  0  0  0  0
 20 17  1  6  0  0  0
 21 16  1  1  0  0  0
 22 18  1  0  0  0  0
 23 22  1  0  0  0  0
 24 29  1  0  0  0  0
 25 27  2  0  0  0  0
 25 28  1  0  0  0  0
 26 29  2  0  0  0  0
 27 26  1  0  0  0  0
 28 24  2  0  0  0  0
 29 23  1  0  0  0  0
 30 25  1  0  0  0  0
 31 30  1  0  0  0  0
 32 30  2  0  0  0  0
 33  2  1  0  0  0  0
 34 35  1  0  0  0  0
 34 33  1  0  0  0  0
 35 36  1  0  0  0  0
 36 37  1  0  0  0  0
 38 39  2  0  0  0  0
 39 40  1  0  0  0  0
 40 37  1  0  0  0  0
 42 41  1  1  0  0  0
 42 39  1  0  0  0  0
 43 48  1  0  0  0  0
 43 50  1  0  0  0  0
 43 52  1  0  0  0  0
 44 46  1  1  0  0  0
 45 52  1  0  0  0  0
 45 51  1  0  0  0  0
 47 43  1  0  0  0  0
 49 44  1  0  0  0  0
 49 53  1  1  0  0  0
 50 42  1  6  0  0  0
 50 49  1  0  0  0  0
 52 51  1  0  0  0  0
 52 44  1  0  0  0  0
 53 54  1  6  0  0  0
 53 55  1  0  0  0  0
 54 55  1  0  0  0  0
M  END
>  <MODEL>
3

>  <REMARK>
 VINA RESULT:      -7.6      3.388      9.156
  Name = 
  14 active torsions:
  status: ('A' for Active; 'I' for Inactive)
    1  A    between atoms: C_2  and  C_44
    2  A    between atoms: C_8  and  N_22
    3  A    between atoms: C_8  and  C_35
    4  A    between atoms: C_10  and  C_32
    5  A    between atoms: C_11  and  C_38
    6  A    between atoms: C_20  and  C_50
    7  A    between atoms: C_26  and  C_45
    8  A    between atoms: C_27  and  C_54
    9  A    between atoms: C_33  and  N_36
   10  A    between atoms: C_33  and  C_52
   11  A    between atoms: C_35  and  C_43
   12  A    between atoms: C_42  and  C_50
   13  A    between atoms: C_43  and  C_51
   14  A    between atoms: C_51  and  C_54
                            x       y       z     vdW  Elec       q    Type
                         _______ _______ _______ _____ _____    ______ ____

>  <TORSDO>
F 14

$$$$
=
 OpenBabel10262420393D

 55 61  0  0  1  0  0  0  0  0999 V2000
  182.9750  178.2680  137.4360 C   0  0  0  0  0  3  0  0  0  0  0  0
  184.5530  178.7760  139.6900 C   0  0  0  0  0  0  0  0  0  0  0  0
  184.9060  177.7550  138.8010 C   0  0  0  0  0  3  0  0  0  0  0  0
  182.6210  179.2900  138.3220 C   0  0  0  0  0  3  0  0  0  0  0  0
  184.1250  177.5010  137.6710 C   0  0  0  0  0  0  0  0  0  0  0  0
  183.4090  179.5430  139.4490 C   0  0  0  0  0  3  0  0  0  0  0  0
  184.5180  176.3870  136.7570 C   0  0  1  0  0  3  0  0  0  0  0  0
  185.8380  175.9390  134.7060 C   0  0  0  0  0  2  0  0  0  0  0  0
  188.0450  174.8020  134.6950 C   0  0  0  0  0  1  0  0  0  0  0  0
  186.2360  173.7780  136.0930 C   0  0  1  0  0  3  0  0  0  0  0  0
  185.8040  176.7190  136.0130 C   0  0  0  0  0  2  0  0  0  0  0  0
  186.6920  172.3360  135.9500 C   0  0  0  0  0  1  0  0  0  0  0  0
  186.5500  174.5890  134.8230 C   0  0  1  0  0  3  0  0  0  0  0  0
  184.7850  173.8430  136.5970 C   0  0  1  0  0  3  0  0  0  0  0  0
  184.6010  175.0590  137.5120 C   0  0  0  0  0  2  0  0  0  0  0  0
  183.9140  172.3670  134.7600 C   0  0  0  0  0  2  0  0  0  0  0  0
  183.4530  170.4130  136.2310 C   0  0  0  0  0  1  0  0  0  0  0  0
  182.3540  173.4650  136.1070 C   0  0  0  0  0  0  0  0  0  0  0  0
  181.9020  172.2640  135.9980 N   0  0  0  0  0  0  0  0  0  0  0  0
  182.8360  171.4200  135.2790 C   0  0  1  0  0  3  0  0  0  0  0  0
  183.6990  173.6810  135.5070 C   0  0  1  0  0  3  0  0  0  0  0  0
  181.5870  174.5170  136.6910 N   0  0  0  0  0  2  0  0  0  0  0  0
  180.4450  174.2660  137.5540 C   0  0  0  0  0  2  0  0  0  0  0  0
  181.4180  175.7120  139.3390 C   0  0  0  0  0  3  0  0  0  0  0  0
  180.0720  177.3580  140.5040 C   0  0  0  0  0  0  0  0  0  0  0  0
  179.0990  176.0190  138.7280 C   0  0  0  0  0  3  0  0  0  0  0  0
  178.9750  177.0120  139.7040 C   0  0  0  0  0  3  0  0  0  0  0  0
  181.2930  176.7020  140.3160 C   0  0  0  0  0  3  0  0  0  0  0  0
  180.3230  175.3720  138.5420 C   0  0  0  0  0  0  0  0  0  0  0  0
  179.9470  178.3970  141.5370 C   0  0  0  0  0  0  0  0  0  0  0  0
  180.2950  178.1640  142.7230 O   0  0  0  0  0  1  0  0  0  0  0  0
  179.4420  179.6520  141.2130 O   0  0  0  0  0  0  0  0  0  0  0  0
  185.3810  179.0330  140.9050 C   0  0  0  0  0  2  0  0  0  0  0  0
  184.7810  178.3530  142.1270 C   0  0  0  0  0  2  0  0  0  0  0  0
  185.1640  179.1050  143.3920 C   0  0  0  0  0  2  0  0  0  0  0  0
  184.0560  179.0180  144.4260 C   0  0  0  0  0  2  0  0  0  0  0  0
  184.6140  178.6120  145.7780 C   0  0  0  0  0  2  0  0  0  0  0  0
  186.6000  176.5740  145.8790 O   0  0  0  0  0  0  0  0  0  0  0  0
  186.9910  177.7710  145.8610 C   0  0  0  0  0  0  0  0  0  0  0  0
  186.0470  178.8410  145.7870 N   0  0  0  0  0  2  0  0  0  0  0  0
  188.8570  178.0390  147.2640 O   0  0  0  0  0  1  0  0  0  0  0  0
  188.4540  178.0740  145.9290 C   0  0  1  0  0  3  0  0  0  0  0  0
  189.2940  177.3960  143.5520 C   0  0  0  0  0  0  0  0  0  0  0  0
  191.4680  176.3130  144.2740 C   0  0  2  0  0  3  0  0  0  0  0  0
  191.5300  177.8010  142.2130 C   0  0  0  0  0  2  0  0  0  0  0  0
  191.3430  174.9250  144.1810 O   0  0  0  0  0  1  0  0  0  0  0  0
  189.0750  178.8830  143.2520 C   0  0  0  0  0  1  0  0  0  0  0  0
  188.2190  176.5820  142.8470 C   0  0  0  0  0  1  0  0  0  0  0  0
  190.7160  176.8630  145.4990 C   0  0  1  0  0  3  0  0  0  0  0  0
  189.2550  177.0700  145.0670 C   0  0  1  0  0  3  0  0  0  0  0  0
  190.9760  176.4720  141.7180 C   0  0  0  0  0  2  0  0  0  0  0  0
  190.6970  176.9320  143.1380 C   0  0  0  0  0  0  0  0  0  0  0  0
  190.8720  176.1650  146.8700 C   0  0  2  0  0  3  0  0  0  0  0  0
  191.9140  176.7990  147.7070 C   0  0  0  0  0  2  0  0  0  0  0  0
  192.1370  175.5770  147.0380 O   0  0  0  0  0  0  0  0  0  0  0  0
  1  5  2  0  0  0  0
  1  4  1  0  0  0  0
  2 33  1  0  0  0  0
  3  2  2  0  0  0  0
  4  6  2  0  0  0  0
  5  3  1  0  0  0  0
  6  2  1  0  0  0  0
  7 15  1  0  0  0  0
  7  5  1  1  0  0  0
  8 13  1  0  0  0  0
  8 11  1  0  0  0  0
 10 12  1  6  0  0  0
 10 14  1  0  0  0  0
 11  7  1  0  0  0  0
 13  9  1  1  0  0  0
 13 10  1  0  0  0  0
 14 15  1  6  0  0  0
 16 20  1  0  0  0  0
 18 22  1  0  0  0  0
 19 18  2  0  0  0  0
 20 19  1  0  0  0  0
 20 17  1  1  0  0  0
 21 16  1  6  0  0  0
 21 18  1  0  0  0  0
 21 14  1  0  0  0  0
 22 23  1  0  0  0  0
 23 29  1  0  0  0  0
 24 28  1  0  0  0  0
 25 30  1  0  0  0  0
 26 27  2  0  0  0  0
 27 25  1  0  0  0  0
 28 25  2  0  0  0  0
 29 26  1  0  0  0  0
 29 24  2  0  0  0  0
 30 31  1  0  0  0  0
 32 30  2  0  0  0  0
 33 34  1  0  0  0  0
 34 35  1  0  0  0  0
 35 36  1  0  0  0  0
 36 37  1  0  0  0  0
 37 40  1  0  0  0  0
 39 38  2  0  0  0  0
 39 42  1  0  0  0  0
 40 39  1  0  0  0  0
 42 41  1  1  0  0  0
 43 50  1  0  0  0  0
 44 46  1  6  0  0  0
 44 49  1  0  0  0  0
 45 52  1  0  0  0  0
 47 43  1  0  0  0  0
 48 43  1  0  0  0  0
 49 53  1  1  0  0  0
 50 49  1  0  0  0  0
 50 42  1  1  0  0  0
 51 45  1  0  0  0  0
 51 52  1  0  0  0  0
 52 43  1  0  0  0  0
 52 44  1  0  0  0  0
 53 55  1  0  0  0  0
 53 54  1  1  0  0  0
 55 54  1  0  0  0  0
M  END
>  <MODEL>
4

>  <REMARK>
 VINA RESULT:      -7.5      3.124      6.581
  Name = 
  14 active torsions:
  status: ('A' for Active; 'I' for Inactive)
    1  A    between atoms: C_2  and  C_44
    2  A    between atoms: C_8  and  N_22
    3  A    between atoms: C_8  and  C_35
    4  A    between atoms: C_10  and  C_32
    5  A    between atoms: C_11  and  C_38
    6  A    between atoms: C_20  and  C_50
    7  A    between atoms: C_26  and  C_45
    8  A    between atoms: C_27  and  C_54
    9  A    between atoms: C_33  and  N_36
   10  A    between atoms: C_33  and  C_52
   11  A    between atoms: C_35  and  C_43
   12  A    between atoms: C_42  and  C_50
   13  A    between atoms: C_43  and  C_51
   14  A    between atoms: C_51  and  C_54
                            x       y       z     vdW  Elec       q    Type
                         _______ _______ _______ _____ _____    ______ ____

>  <TORSDO>
F 14

$$$$
=
 OpenBabel10262420393D

 55 61  0  0  1  0  0  0  0  0999 V2000
  184.8400  178.4590  137.7860 C   0  0  0  0  0  3  0  0  0  0  0  0
  185.4290  178.8740  140.4900 C   0  0  0  0  0  0  0  0  0  0  0  0
  186.3300  178.1820  139.6730 C   0  0  0  0  0  3  0  0  0  0  0  0
  183.9390  179.1530  138.6000 C   0  0  0  0  0  3  0  0  0  0  0  0
  186.0440  177.9760  138.3210 C   0  0  0  0  0  0  0  0  0  0  0  0
  184.2330  179.3590  139.9510 C   0  0  0  0  0  3  0  0  0  0  0  0
  187.0160  177.2110  137.4860 C   0  0  1  0  0  3  0  0  0  0  0  0
  189.0770  177.5190  136.1420 C   0  0  0  0  0  2  0  0  0  0  0  0
  191.3340  176.7870  136.8720 C   0  0  0  0  0  1  0  0  0  0  0  0
  189.4490  175.1660  137.1790 C   0  0  1  0  0  3  0  0  0  0  0  0
  188.3600  177.9220  137.4230 C   0  0  0  0  0  2  0  0  0  0  0  0
  190.2700  173.9000  137.0010 C   0  0  0  0  0  1  0  0  0  0  0  0
  190.0050  176.3140  136.3190 C   0  0  1  0  0  3  0  0  0  0  0  0
  187.9480  174.8680  137.0260 C   0  0  1  0  0  3  0  0  0  0  0  0
  187.1370  175.7640  137.9680 C   0  0  0  0  0  2  0  0  0  0  0  0
  188.2490  173.8140  134.7650 C   0  0  0  0  0  2  0  0  0  0  0  0
  187.8150  171.4870  135.5340 C   0  0  0  0  0  1  0  0  0  0  0  0
  186.0690  174.2230  135.4950 C   0  0  0  0  0  0  0  0  0  0  0  0
  186.0280  173.0370  134.9950 N   0  0  0  0  0  0  0  0  0  0  0  0
  187.3500  172.5920  134.6030 C   0  0  1  0  0  3  0  0  0  0  0  0
  187.4300  174.8220  135.5680 C   0  0  1  0  0  3  0  0  0  0  0  0
  184.8890  174.9310  135.8740 N   0  0  0  0  0  2  0  0  0  0  0  0
  183.6210  174.2640  136.1130 C   0  0  0  0  0  2  0  0  0  0  0  0
  181.8020  175.9240  136.5150 C   0  0  0  0  0  3  0  0  0  0  0  0
  181.3260  176.7630  138.7400 C   0  0  0  0  0  0  0  0  0  0  0  0
  183.0630  175.0980  138.4060 C   0  0  0  0  0  3  0  0  0  0  0  0
  182.3260  175.9280  139.2560 C   0  0  0  0  0  3  0  0  0  0  0  0
  181.0690  176.7550  137.3640 C   0  0  0  0  0  3  0  0  0  0  0  0
  182.7960  175.0930  137.0350 C   0  0  0  0  0  0  0  0  0  0  0  0
  180.5520  177.6430  139.6280 C   0  0  0  0  0  0  0  0  0  0  0  0
  180.3920  178.8570  139.3420 O   0  0  0  0  0  0  0  0  0  0  0  0
  179.9890  177.1420  140.7960 O   0  0  0  0  0  1  0  0  0  0  0  0
  185.7310  179.0770  141.9370 C   0  0  0  0  0  2  0  0  0  0  0  0
  184.4560  179.3240  142.7300 C   0  0  0  0  0  2  0  0  0  0  0  0
  184.7840  179.5810  144.1920 C   0  0  0  0  0  2  0  0  0  0  0  0
  184.8950  178.2750  144.9580 C   0  0  0  0  0  2  0  0  0  0  0  0
  185.4680  178.5100  146.3430 C   0  0  0  0  0  2  0  0  0  0  0  0
  187.3570  176.7780  147.5830 O   0  0  0  0  0  0  0  0  0  0  0  0
  187.8040  177.7440  146.9100 C   0  0  0  0  0  0  0  0  0  0  0  0
  186.9110  178.6370  146.2430 N   0  0  0  0  0  2  0  0  0  0  0  0
  189.8380  177.7880  148.0850 O   0  0  0  0  0  1  0  0  0  0  0  0
  189.2800  177.9630  146.8190 C   0  0  1  0  0  3  0  0  0  0  0  0
  189.8430  177.4910  144.3140 C   0  0  0  0  0  0  0  0  0  0  0  0
  191.9640  176.1610  144.7050 C   0  0  2  0  0  3  0  0  0  0  0  0
  191.9810  177.8620  142.8140 C   0  0  0  0  0  2  0  0  0  0  0  0
  191.7050  174.8060  144.4790 O   0  0  0  0  0  1  0  0  0  0  0  0
  189.7360  179.0160  144.1940 C   0  0  0  0  0  1  0  0  0  0  0  0
  188.6410  176.8520  143.6350 C   0  0  0  0  0  1  0  0  0  0  0  0
  191.3750  176.6290  146.0470 C   0  0  1  0  0  3  0  0  0  0  0  0
  189.9070  177.0010  145.7830 C   0  0  1  0  0  3  0  0  0  0  0  0
  191.2670  176.6460  142.2380 C   0  0  0  0  0  2  0  0  0  0  0  0
  191.1570  176.9640  143.7200 C   0  0  0  0  0  0  0  0  0  0  0  0
  191.5860  175.7700  147.3160 C   0  0  2  0  0  3  0  0  0  0  0  0
  192.5960  176.3530  148.2270 C   0  0  0  0  0  2  0  0  0  0  0  0
  192.8860  175.2440  147.4040 O   0  0  0  0  0  0  0  0  0  0  0  0
  1  5  2  0  0  0  0
  1  4  1  0  0  0  0
  2 33  1  0  0  0  0
  3  2  2  0  0  0  0
  4  6  2  0  0  0  0
  5  3  1  0  0  0  0
  6  2  1  0  0  0  0
  7 15  1  0  0  0  0
  7  5  1  1  0  0  0
  8 13  1  0  0  0  0
  8 11  1  0  0  0  0
 10 12  1  6  0  0  0
 11  7  1  0  0  0  0
 13  9  1  1  0  0  0
 13 10  1  0  0  0  0
 14 10  1  0  0  0  0
 14 15  1  1  0  0  0
 18 21  1  0  0  0  0
 18 22  1  0  0  0  0
 19 18  2  0  0  0  0
 20 16  1  0  0  0  0
 20 19  1  0  0  0  0
 20 17  1  1  0  0  0
 21 16  1  6  0  0  0
 21 14  1  0  0  0  0
 22 23  1  0  0  0  0
 23 29  1  0  0  0  0
 24 29  2  0  0  0  0
 24 28  1  0  0  0  0
 25 27  1  0  0  0  0
 25 30  1  0  0  0  0
 26 27  2  0  0  0  0
 28 25  2  0  0  0  0
 29 26  1  0  0  0  0
 30 32  1  0  0  0  0
 31 30  2  0  0  0  0
 33 34  1  0  0  0  0
 34 35  1  0  0  0  0
 35 36  1  0  0  0  0
 36 37  1  0  0  0  0
 39 38  2  0  0  0  0
 40 37  1  0  0  0  0
 40 39  1  0  0  0  0
 42 39  1  0  0  0  0
 42 41  1  1  0  0  0
 43 50  1  0  0  0  0
 44 46  1  6  0  0  0
 44 49  1  0  0  0  0
 45 52  1  0  0  0  0
 47 43  1  0  0  0  0
 48 43  1  0  0  0  0
 49 53  1  1  0  0  0
 50 49  1  0  0  0  0
 50 42  1  1  0  0  0
 51 45  1  0  0  0  0
 51 52  1  0  0  0  0
 52 43  1  0  0  0  0
 52 44  1  0  0  0  0
 53 55  1  0  0  0  0
 53 54  1  1  0  0  0
 55 54  1  0  0  0  0
M  END
>  <MODEL>
5

>  <REMARK>
 VINA RESULT:      -7.1      2.746      6.707
  Name = 
  14 active torsions:
  status: ('A' for Active; 'I' for Inactive)
    1  A    between atoms: C_2  and  C_44
    2  A    between atoms: C_8  and  N_22
    3  A    between atoms: C_8  and  C_35
    4  A    between atoms: C_10  and  C_32
    5  A    between atoms: C_11  and  C_38
    6  A    between atoms: C_20  and  C_50
    7  A    between atoms: C_26  and  C_45
    8  A    between atoms: C_27  and  C_54
    9  A    between atoms: C_33  and  N_36
   10  A    between atoms: C_33  and  C_52
   11  A    between atoms: C_35  and  C_43
   12  A    between atoms: C_42  and  C_50
   13  A    between atoms: C_43  and  C_51
   14  A    between atoms: C_51  and  C_54
                            x       y       z     vdW  Elec       q    Type
                         _______ _______ _______ _____ _____    ______ ____

>  <TORSDO>
F 14

$$$$
=
 OpenBabel10262420393D

 55 61  0  0  1  0  0  0  0  0999 V2000
  185.5950  178.4260  145.8380 C   0  0  0  0  0  3  0  0  0  0  0  0
  183.6020  178.7020  143.8930 C   0  0  0  0  0  0  0  0  0  0  0  0
  184.9310  178.4900  143.5110 C   0  0  0  0  0  3  0  0  0  0  0  0
  184.2660  178.6350  146.2220 C   0  0  0  0  0  3  0  0  0  0  0  0
  185.9290  178.3460  144.4780 C   0  0  0  0  0  0  0  0  0  0  0  0
  183.2710  178.7740  145.2500 C   0  0  0  0  0  3  0  0  0  0  0  0
  187.3410  178.1470  144.0340 C   0  0  1  0  0  3  0  0  0  0  0  0
  189.6760  178.5430  144.7700 C   0  0  0  0  0  2  0  0  0  0  0  0
  191.1980  176.7570  145.5800 C   0  0  0  0  0  1  0  0  0  0  0  0
  189.8780  176.2820  143.5050 C   0  0  1  0  0  3  0  0  0  0  0  0
  188.2890  178.1130  145.2260 C   0  0  0  0  0  2  0  0  0  0  0  0
  190.9000  175.3710  142.8460 C   0  0  0  0  0  1  0  0  0  0  0  0
  190.5660  177.3710  144.3470 C   0  0  1  0  0  3  0  0  0  0  0  0
  188.8430  176.7710  142.4790 C   0  0  1  0  0  3  0  0  0  0  0  0
  187.4690  176.9090  143.1440 C   0  0  0  0  0  2  0  0  0  0  0  0
  190.7740  177.9020  141.3370 C   0  0  0  0  0  2  0  0  0  0  0  0
  191.2790  176.0080  139.8030 C   0  0  0  0  0  1  0  0  0  0  0  0
  188.7040  177.9310  140.2590 C   0  0  0  0  0  0  0  0  0  0  0  0
  189.5490  177.6430  139.3320 N   0  0  0  0  0  0  0  0  0  0  0  0
  190.8810  177.4710  139.8780 C   0  0  1  0  0  3  0  0  0  0  0  0
  189.2790  177.9900  141.6310 C   0  0  1  0  0  3  0  0  0  0  0  0
  187.3400  178.2440  139.9760 N   0  0  0  0  0  2  0  0  0  0  0  0
  186.6990  177.8800  138.7240 C   0  0  0  0  0  2  0  0  0  0  0  0
  184.3990  177.9760  137.7640 C   0  0  0  0  0  3  0  0  0  0  0  0
  182.7870  179.6270  138.5090 C   0  0  0  0  0  0  0  0  0  0  0  0
  184.9930  179.5300  139.5190 C   0  0  0  0  0  3  0  0  0  0  0  0
  183.7240  180.1100  139.4320 C   0  0  0  0  0  3  0  0  0  0  0  0
  183.1320  178.5570  137.6760 C   0  0  0  0  0  3  0  0  0  0  0  0
  185.3280  178.4580  138.6870 C   0  0  0  0  0  0  0  0  0  0  0  0
  181.4520  180.2370  138.4080 C   0  0  0  0  0  0  0  0  0  0  0  0
  180.4290  179.5160  138.2790 O   0  0  0  0  0  0  0  0  0  0  0  0
  181.3060  181.6190  138.4540 O   0  0  0  0  0  1  0  0  0  0  0  0
  182.5410  178.8720  142.8570 C   0  0  0  0  0  2  0  0  0  0  0  0
  182.8290  178.0100  141.6360 C   0  0  0  0  0  2  0  0  0  0  0  0
  181.5290  177.5220  141.0150 C   0  0  0  0  0  2  0  0  0  0  0  0
  181.7950  176.4160  140.0100 C   0  0  0  0  0  2  0  0  0  0  0  0
  180.4990  175.9380  139.3820 C   0  0  0  0  0  2  0  0  0  0  0  0
  180.4670  176.6450  136.6240 O   0  0  0  0  0  0  0  0  0  0  0  0
  180.7510  175.4540  136.9190 C   0  0  0  0  0  0  0  0  0  0  0  0
  180.8070  175.0390  138.2850 N   0  0  0  0  0  2  0  0  0  0  0  0
  181.3720  175.1580  134.6730 O   0  0  0  0  0  1  0  0  0  0  0  0
  181.0190  174.4640  135.8300 C   0  0  1  0  0  3  0  0  0  0  0  0
  181.7470  171.9770  136.1420 C   0  0  0  0  0  0  0  0  0  0  0  0
  184.2130  172.2980  135.6550 C   0  0  2  0  0  3  0  0  0  0  0  0
  183.0780  170.2550  134.6510 C   0  0  0  0  0  2  0  0  0  0  0  0
  184.9300  172.2320  136.8530 O   0  0  0  0  0  1  0  0  0  0  0  0
  180.6430  171.7170  135.1100 C   0  0  0  0  0  1  0  0  0  0  0  0
  181.2830  171.4790  137.5030 C   0  0  0  0  0  1  0  0  0  0  0  0
  183.4660  173.6360  135.5210 C   0  0  1  0  0  3  0  0  0  0  0  0
  182.1270  173.4740  136.2600 C   0  0  1  0  0  3  0  0  0  0  0  0
  183.3630  169.8710  136.0970 C   0  0  0  0  0  2  0  0  0  0  0  0
  183.0720  171.3180  135.7360 C   0  0  0  0  0  0  0  0  0  0  0  0
  184.2020  174.9580  135.8400 C   0  0  2  0  0  3  0  0  0  0  0  0
  185.1940  175.3130  134.8010 C   0  0  0  0  0  2  0  0  0  0  0  0
  185.5800  174.7750  136.0460 O   0  0  0  0  0  0  0  0  0  0  0  0
  1  4  1  0  0  0  0
  2  6  1  0  0  0  0
  3  2  2  0  0  0  0
  3  5  1  0  0  0  0
  5  1  2  0  0  0  0
  6  4  2  0  0  0  0
  7  5  1  1  0  0  0
  7 11  1  0  0  0  0
  8 11  1  0  0  0  0
 10 12  1  6  0  0  0
 10 13  1  0  0  0  0
 13  8  1  0  0  0  0
 13  9  1  1  0  0  0
 14 15  1  1  0  0  0
 14 10  1  0  0  0  0
 15  7  1  0  0  0  0
 18 21  1  0  0  0  0
 19 20  1  0  0  0  0
 19 18  2  0  0  0  0
 20 17  1  1  0  0  0
 20 16  1  0  0  0  0
 21 16  1  6  0  0  0
 21 14  1  0  0  0  0
 22 18  1  0  0  0  0
 23 22  1  0  0  0  0
 24 29  1  0  0  0  0
 25 27  2  0  0  0  0
 27 26  1  0  0  0  0
 28 24  2  0  0  0  0
 28 25  1  0  0  0  0
 29 23  1  0  0  0  0
 29 26  2  0  0  0  0
 30 32  1  0  0  0  0
 30 25  1  0  0  0  0
 31 30  2  0  0  0  0
 33  2  1  0  0  0  0
 34 33  1  0  0  0  0
 35 34  1  0  0  0  0
 36 35  1  0  0  0  0
 37 36  1  0  0  0  0
 38 39  2  0  0  0  0
 39 40  1  0  0  0  0
 40 37  1  0  0  0  0
 42 41  1  6  0  0  0
 42 39  1  0  0  0  0
 43 50  1  0  0  0  0
 43 48  1  0  0  0  0
 44 52  1  0  0  0  0
 44 46  1  1  0  0  0
 45 52  1  0  0  0  0
 45 51  1  0  0  0  0
 47 43  1  0  0  0  0
 49 44  1  0  0  0  0
 49 53  1  1  0  0  0
 49 50  1  0  0  0  0
 50 42  1  6  0  0  0
 52 51  1  0  0  0  0
 52 43  1  0  0  0  0
 53 54  1  6  0  0  0
 53 55  1  0  0  0  0
 54 55  1  0  0  0  0
M  END
>  <MODEL>
6

>  <REMARK>
 VINA RESULT:      -6.6      3.708     10.161
  Name = 
  14 active torsions:
  status: ('A' for Active; 'I' for Inactive)
    1  A    between atoms: C_2  and  C_44
    2  A    between atoms: C_8  and  N_22
    3  A    between atoms: C_8  and  C_35
    4  A    between atoms: C_10  and  C_32
    5  A    between atoms: C_11  and  C_38
    6  A    between atoms: C_20  and  C_50
    7  A    between atoms: C_26  and  C_45
    8  A    between atoms: C_27  and  C_54
    9  A    between atoms: C_33  and  N_36
   10  A    between atoms: C_33  and  C_52
   11  A    between atoms: C_35  and  C_43
   12  A    between atoms: C_42  and  C_50
   13  A    between atoms: C_43  and  C_51
   14  A    between atoms: C_51  and  C_54
                            x       y       z     vdW  Elec       q    Type
                         _______ _______ _______ _____ _____    ______ ____

>  <TORSDO>
F 14

$$$$
=
 OpenBabel10262420393D

 55 61  0  0  1  0  0  0  0  0999 V2000
  188.3400  178.6540  139.9050 C   0  0  0  0  0  3  0  0  0  0  0  0
  186.0360  178.1770  138.3890 C   0  0  0  0  0  0  0  0  0  0  0  0
  185.9480  178.3050  139.7800 C   0  0  0  0  0  3  0  0  0  0  0  0
  188.4300  178.5280  138.5150 C   0  0  0  0  0  3  0  0  0  0  0  0
  187.0940  178.5490  140.5410 C   0  0  0  0  0  0  0  0  0  0  0  0
  187.2790  178.2880  137.7580 C   0  0  0  0  0  3  0  0  0  0  0  0
  186.9660  178.6550  142.0250 C   0  0  1  0  0  3  0  0  0  0  0  0
  185.6890  179.8590  143.7770 C   0  0  0  0  0  2  0  0  0  0  0  0
  183.8900  178.8260  145.1400 C   0  0  0  0  0  1  0  0  0  0  0  0
  186.0010  177.5110  144.8450 C   0  0  1  0  0  3  0  0  0  0  0  0
  185.5920  179.1790  142.4180 C   0  0  0  0  0  2  0  0  0  0  0  0
  185.9550  176.7940  146.1840 C   0  0  0  0  0  1  0  0  0  0  0  0
  185.3900  178.9190  144.9480 C   0  0  1  0  0  3  0  0  0  0  0  0
  187.4080  177.4260  144.2290 C   0  0  1  0  0  3  0  0  0  0  0  0
  187.3070  177.3270  142.7030 C   0  0  0  0  0  2  0  0  0  0  0  0
  188.4080  178.4900  146.2730 C   0  0  0  0  0  2  0  0  0  0  0  0
  189.3460  176.3780  147.1990 C   0  0  0  0  0  1  0  0  0  0  0  0
  189.8220  178.0620  144.4650 C   0  0  0  0  0  0  0  0  0  0  0  0
  190.4890  177.6770  145.4970 N   0  0  0  0  0  0  0  0  0  0  0  0
  189.6850  177.7710  146.6990 C   0  0  1  0  0  3  0  0  0  0  0  0
  188.4200  178.4750  144.7470 C   0  0  1  0  0  3  0  0  0  0  0  0
  190.4130  178.1560  143.1680 N   0  0  0  0  0  2  0  0  0  0  0  0
  191.6420  177.4660  142.8190 C   0  0  0  0  0  2  0  0  0  0  0  0
  190.5670  176.4150  140.8290 C   0  0  0  0  0  3  0  0  0  0  0  0
  191.6530  176.4090  138.6610 C   0  0  0  0  0  0  0  0  0  0  0  0
  192.7090  177.5030  140.5550 C   0  0  0  0  0  3  0  0  0  0  0  0
  192.7180  177.1390  139.2050 C   0  0  0  0  0  3  0  0  0  0  0  0
  190.5780  176.0490  139.4810 C   0  0  0  0  0  3  0  0  0  0  0  0
  191.6290  177.1440  141.3650 C   0  0  0  0  0  0  0  0  0  0  0  0
  191.6600  176.0180  137.2430 C   0  0  0  0  0  0  0  0  0  0  0  0
  192.7240  175.6390  136.6900 O   0  0  0  0  0  1  0  0  0  0  0  0
  190.4870  176.0650  136.4960 O   0  0  0  0  0  0  0  0  0  0  0  0
  184.8120  177.8990  137.5820 C   0  0  0  0  0  2  0  0  0  0  0  0
  185.1610  177.1520  136.3030 C   0  0  0  0  0  2  0  0  0  0  0  0
  184.1130  176.0910  136.0070 C   0  0  0  0  0  2  0  0  0  0  0  0
  184.4570  174.7860  136.7030 C   0  0  0  0  0  2  0  0  0  0  0  0
  183.3380  174.3640  137.6370 C   0  0  0  0  0  2  0  0  0  0  0  0
  180.5790  174.0400  138.2580 O   0  0  0  0  0  0  0  0  0  0  0  0
  180.9930  175.2070  138.0290 C   0  0  0  0  0  0  0  0  0  0  0  0
  182.3710  175.4410  137.7350 N   0  0  0  0  0  2  0  0  0  0  0  0
  179.2240  176.2330  139.1860 O   0  0  0  0  0  1  0  0  0  0  0  0
  180.0330  176.3530  138.0560 C   0  0  1  0  0  3  0  0  0  0  0  0
  180.4630  178.6260  136.8470 C   0  0  0  0  0  0  0  0  0  0  0  0
  180.9610  180.0030  138.9150 C   0  0  2  0  0  3  0  0  0  0  0  0
  179.4960  181.0640  137.1270 C   0  0  0  0  0  2  0  0  0  0  0  0
  182.3350  180.2460  138.9850 O   0  0  0  0  0  1  0  0  0  0  0  0
  179.0790  178.3570  136.2450 C   0  0  0  0  0  1  0  0  0  0  0  0
  181.5200  178.4350  135.7680 C   0  0  0  0  0  1  0  0  0  0  0  0
  180.6260  178.5540  139.3090 C   0  0  1  0  0  3  0  0  0  0  0  0
  180.7960  177.6980  138.0430 C   0  0  1  0  0  3  0  0  0  0  0  0
  180.9190  181.2310  136.6130 C   0  0  0  0  0  2  0  0  0  0  0  0
  180.5530  180.0280  137.4650 C   0  0  0  0  0  0  0  0  0  0  0  0
  181.2690  177.9370  140.5730 C   0  0  2  0  0  3  0  0  0  0  0  0
  180.2930  177.7650  141.6720 C   0  0  0  0  0  2  0  0  0  0  0  0
  181.2420  178.8090  141.6750 O   0  0  0  0  0  0  0  0  0  0  0  0
  1  5  1  0  0  0  0
  2  3  1  0  0  0  0
  3  5  2  0  0  0  0
  4  1  2  0  0  0  0
  6  2  2  0  0  0  0
  6  4  1  0  0  0  0
  7  5  1  6  0  0  0
  7 11  1  0  0  0  0
  7 15  1  0  0  0  0
  8 13  1  0  0  0  0
 10 13  1  0  0  0  0
 10 12  1  1  0  0  0
 11  8  1  0  0  0  0
 13  9  1  6  0  0  0
 14 15  1  6  0  0  0
 14 21  1  0  0  0  0
 14 10  1  0  0  0  0
 16 20  1  0  0  0  0
 18 21  1  0  0  0  0
 18 19  2  0  0  0  0
 19 20  1  0  0  0  0
 20 17  1  6  0  0  0
 21 16  1  1  0  0  0
 22 18  1  0  0  0  0
 23 22  1  0  0  0  0
 24 29  1  0  0  0  0
 25 27  2  0  0  0  0
 25 28  1  0  0  0  0
 26 29  2  0  0  0  0
 27 26  1  0  0  0  0
 28 24  2  0  0  0  0
 29 23  1  0  0  0  0
 30 25  1  0  0  0  0
 31 30  1  0  0  0  0
 32 30  2  0  0  0  0
 33  2  1  0  0  0  0
 34 33  1  0  0  0  0
 35 34  1  0  0  0  0
 35 36  1  0  0  0  0
 36 37  1  0  0  0  0
 37 40  1  0  0  0  0
 39 42  1  0  0  0  0
 39 38  2  0  0  0  0
 40 39  1  0  0  0  0
 42 41  1  1  0  0  0
 43 52  1  0  0  0  0
 43 50  1  0  0  0  0
 44 46  1  6  0  0  0
 44 49  1  0  0  0  0
 45 52  1  0  0  0  0
 47 43  1  0  0  0  0
 48 43  1  0  0  0  0
 49 53  1  1  0  0  0
 50 42  1  1  0  0  0
 50 49  1  0  0  0  0
 51 45  1  0  0  0  0
 51 52  1  0  0  0  0
 52 44  1  0  0  0  0
 53 54  1  1  0  0  0
 53 55  1  0  0  0  0
 54 55  1  0  0  0  0
M  END
>  <MODEL>
7

>  <REMARK>
 VINA RESULT:      -6.5      3.007      9.396
  Name = 
  14 active torsions:
  status: ('A' for Active; 'I' for Inactive)
    1  A    between atoms: C_2  and  C_44
    2  A    between atoms: C_8  and  N_22
    3  A    between atoms: C_8  and  C_35
    4  A    between atoms: C_10  and  C_32
    5  A    between atoms: C_11  and  C_38
    6  A    between atoms: C_20  and  C_50
    7  A    between atoms: C_26  and  C_45
    8  A    between atoms: C_27  and  C_54
    9  A    between atoms: C_33  and  N_36
   10  A    between atoms: C_33  and  C_52
   11  A    between atoms: C_35  and  C_43
   12  A    between atoms: C_42  and  C_50
   13  A    between atoms: C_43  and  C_51
   14  A    between atoms: C_51  and  C_54
                            x       y       z     vdW  Elec       q    Type
                         _______ _______ _______ _____ _____    ______ ____

>  <TORSDO>
F 14

$$$$
=
 OpenBabel10262420393D

 55 61  0  0  1  0  0  0  0  0999 V2000
  192.2960  177.5000  141.5380 C   0  0  0  0  0  3  0  0  0  0  0  0
  190.7460  176.8800  139.2920 C   0  0  0  0  0  0  0  0  0  0  0  0
  190.2040  176.7550  140.5770 C   0  0  0  0  0  3  0  0  0  0  0  0
  192.8390  177.6280  140.2550 C   0  0  0  0  0  3  0  0  0  0  0  0
  190.9720  177.0680  141.7010 C   0  0  0  0  0  0  0  0  0  0  0  0
  192.0650  177.3170  139.1340 C   0  0  0  0  0  3  0  0  0  0  0  0
  190.3700  176.8980  143.0570 C   0  0  1  0  0  3  0  0  0  0  0  0
  190.5080  175.4570  145.0700 C   0  0  0  0  0  2  0  0  0  0  0  0
  191.5610  176.1540  147.2070 C   0  0  0  0  0  1  0  0  0  0  0  0
  190.0210  177.7910  146.1020 C   0  0  1  0  0  3  0  0  0  0  0  0
  191.3190  176.1540  143.9860 C   0  0  0  0  0  2  0  0  0  0  0  0
  189.5170  178.4510  147.3750 C   0  0  0  0  0  1  0  0  0  0  0  0
  190.3310  176.3020  146.3340 C   0  0  1  0  0  3  0  0  0  0  0  0
  189.0950  178.1140  144.9180 C   0  0  1  0  0  3  0  0  0  0  0  0
  189.9160  178.2420  143.6300 C   0  0  0  0  0  2  0  0  0  0  0  0
  187.1790  177.0780  146.1700 C   0  0  0  0  0  2  0  0  0  0  0  0
  186.2000  179.2380  146.9250 C   0  0  0  0  0  1  0  0  0  0  0  0
  186.7620  177.8960  144.0230 C   0  0  0  0  0  0  0  0  0  0  0  0
  185.7650  178.3060  144.7270 N   0  0  0  0  0  0  0  0  0  0  0  0
  185.9450  177.9730  146.1260 C   0  0  1  0  0  3  0  0  0  0  0  0
  187.8370  177.2200  144.8000 C   0  0  1  0  0  3  0  0  0  0  0  0
  186.7900  178.0150  142.6010 N   0  0  0  0  0  2  0  0  0  0  0  0
  185.9330  178.9380  141.8770 C   0  0  0  0  0  2  0  0  0  0  0  0
  187.1350  178.1340  139.8450 C   0  0  0  0  0  3  0  0  0  0  0  0
  186.0520  178.0790  137.6760 C   0  0  0  0  0  0  0  0  0  0  0  0
  184.8210  178.8070  139.6390 C   0  0  0  0  0  3  0  0  0  0  0  0
  184.8700  178.5450  138.2670 C   0  0  0  0  0  3  0  0  0  0  0  0
  187.1840  177.8760  138.4730 C   0  0  0  0  0  3  0  0  0  0  0  0
  185.9540  178.5960  140.4290 C   0  0  0  0  0  0  0  0  0  0  0  0
  186.1120  177.8080  136.2320 C   0  0  0  0  0  0  0  0  0  0  0  0
  185.2690  177.0470  135.6900 O   0  0  0  0  0  1  0  0  0  0  0  0
  187.1030  178.3890  135.4480 O   0  0  0  0  0  0  0  0  0  0  0  0
  189.9280  176.5280  138.0950 C   0  0  0  0  0  2  0  0  0  0  0  0
  190.2530  175.1240  137.6070 C   0  0  0  0  0  2  0  0  0  0  0  0
  189.6570  174.8930  136.2270 C   0  0  0  0  0  2  0  0  0  0  0  0
  189.5960  173.4100  135.9090 C   0  0  0  0  0  2  0  0  0  0  0  0
  188.3980  172.7650  136.5810 C   0  0  0  0  0  2  0  0  0  0  0  0
  185.7970  172.6540  137.7340 O   0  0  0  0  0  0  0  0  0  0  0  0
  185.9040  173.1470  136.5800 C   0  0  0  0  0  0  0  0  0  0  0  0
  187.1840  173.2540  135.9540 N   0  0  0  0  0  2  0  0  0  0  0  0
  184.6550  173.0230  134.5940 O   0  0  0  0  0  1  0  0  0  0  0  0
  184.6810  173.6140  135.8570 C   0  0  1  0  0  3  0  0  0  0  0  0
  182.3960  174.4390  136.8110 C   0  0  0  0  0  0  0  0  0  0  0  0
  181.1760  172.2210  136.6910 C   0  0  2  0  0  3  0  0  0  0  0  0
  179.8990  174.2990  135.9710 C   0  0  0  0  0  2  0  0  0  0  0  0
  181.0590  171.6900  137.9790 O   0  0  0  0  0  1  0  0  0  0  0  0
  182.5100  175.4750  135.6870 C   0  0  0  0  0  1  0  0  0  0  0  0
  182.6230  175.1280  138.1490 C   0  0  0  0  0  1  0  0  0  0  0  0
  182.6080  172.0700  136.1500 C   0  0  1  0  0  3  0  0  0  0  0  0
  183.4090  173.2750  136.6690 C   0  0  1  0  0  3  0  0  0  0  0  0
  179.8320  174.3090  137.4910 C   0  0  0  0  0  2  0  0  0  0  0  0
  181.0410  173.7180  136.7860 C   0  0  0  0  0  0  0  0  0  0  0  0
  183.3430  170.7180  136.2980 C   0  0  2  0  0  3  0  0  0  0  0  0
  183.7360  170.1460  134.9910 C   0  0  0  0  0  2  0  0  0  0  0  0
  182.6350  169.6500  135.7220 O   0  0  0  0  0  0  0  0  0  0  0  0
  1  5  1  0  0  0  0
  2  3  1  0  0  0  0
  3  5  2  0  0  0  0
  4  1  2  0  0  0  0
  6  2  2  0  0  0  0
  6  4  1  0  0  0  0
  7  5  1  6  0  0  0
  7 15  1  0  0  0  0
  7 11  1  0  0  0  0
  8 13  1  0  0  0  0
 10 13  1  0  0  0  0
 10 12  1  1  0  0  0
 11  8  1  0  0  0  0
 13  9  1  1  0  0  0
 14 15  1  6  0  0  0
 14 10  1  0  0  0  0
 18 19  2  0  0  0  0
 18 21  1  0  0  0  0
 19 20  1  0  0  0  0
 20 16  1  0  0  0  0
 20 17  1  1  0  0  0
 21 14  1  0  0  0  0
 21 16  1  1  0  0  0
 22 18  1  0  0  0  0
 23 22  1  0  0  0  0
 24 29  1  0  0  0  0
 25 27  2  0  0  0  0
 25 28  1  0  0  0  0
 26 29  2  0  0  0  0
 27 26  1  0  0  0  0
 28 24  2  0  0  0  0
 29 23  1  0  0  0  0
 30 25  1  0  0  0  0
 31 30  1  0  0  0  0
 32 30  2  0  0  0  0
 33  2  1  0  0  0  0
 34 33  1  0  0  0  0
 35 34  1  0  0  0  0
 36 35  1  0  0  0  0
 36 37  1  0  0  0  0
 39 38  2  0  0  0  0
 40 39  1  0  0  0  0
 40 37  1  0  0  0  0
 42 41  1  6  0  0  0
 42 39  1  0  0  0  0
 43 48  1  0  0  0  0
 44 52  1  0  0  0  0
 44 46  1  1  0  0  0
 45 52  1  0  0  0  0
 45 51  1  0  0  0  0
 47 43  1  0  0  0  0
 49 53  1  1  0  0  0
 49 50  1  0  0  0  0
 49 44  1  0  0  0  0
 50 42  1  6  0  0  0
 50 43  1  0  0  0  0
 52 43  1  0  0  0  0
 52 51  1  0  0  0  0
 53 54  1  6  0  0  0
 54 55  1  0  0  0  0
 55 53  1  0  0  0  0
M  END
>  <MODEL>
8

>  <REMARK>
 VINA RESULT:      -6.4      4.033      9.627
  Name = 
  14 active torsions:
  status: ('A' for Active; 'I' for Inactive)
    1  A    between atoms: C_2  and  C_44
    2  A    between atoms: C_8  and  N_22
    3  A    between atoms: C_8  and  C_35
    4  A    between atoms: C_10  and  C_32
    5  A    between atoms: C_11  and  C_38
    6  A    between atoms: C_20  and  C_50
    7  A    between atoms: C_26  and  C_45
    8  A    between atoms: C_27  and  C_54
    9  A    between atoms: C_33  and  N_36
   10  A    between atoms: C_33  and  C_52
   11  A    between atoms: C_35  and  C_43
   12  A    between atoms: C_42  and  C_50
   13  A    between atoms: C_43  and  C_51
   14  A    between atoms: C_51  and  C_54
                            x       y       z     vdW  Elec       q    Type
                         _______ _______ _______ _____ _____    ______ ____

>  <TORSDO>
F 14

$$$$
=
 OpenBabel10262420393D

 55 61  0  0  1  0  0  0  0  0999 V2000
  192.1070  177.7790  141.9580 C   0  0  0  0  0  3  0  0  0  0  0  0
  190.8210  176.5050  139.8240 C   0  0  0  0  0  0  0  0  0  0  0  0
  190.2850  176.4280  141.1140 C   0  0  0  0  0  3  0  0  0  0  0  0
  192.6440  177.8590  140.6690 C   0  0  0  0  0  3  0  0  0  0  0  0
  190.9200  177.0670  142.1820 C   0  0  0  0  0  0  0  0  0  0  0  0
  192.0020  177.2210  139.6030 C   0  0  0  0  0  3  0  0  0  0  0  0
  190.3330  176.9420  143.5500 C   0  0  1  0  0  3  0  0  0  0  0  0
  190.5420  175.6120  145.6320 C   0  0  0  0  0  2  0  0  0  0  0  0
  191.5790  176.4590  147.7220 C   0  0  0  0  0  1  0  0  0  0  0  0
  189.9660  177.9740  146.5490 C   0  0  1  0  0  3  0  0  0  0  0  0
  191.3170  176.2850  144.5080 C   0  0  0  0  0  2  0  0  0  0  0  0
  189.4440  178.6770  147.7900 C   0  0  0  0  0  1  0  0  0  0  0  0
  190.3390  176.5120  146.8530 C   0  0  1  0  0  3  0  0  0  0  0  0
  189.0210  178.1990  145.3570 C   0  0  1  0  0  3  0  0  0  0  0  0
  189.8280  178.2940  144.0580 C   0  0  0  0  0  2  0  0  0  0  0  0
  187.1800  177.1220  146.6830 C   0  0  0  0  0  2  0  0  0  0  0  0
  186.1260  179.2600  147.3980 C   0  0  0  0  0  1  0  0  0  0  0  0
  186.6800  177.8570  144.5240 C   0  0  0  0  0  0  0  0  0  0  0  0
  185.6820  178.2460  145.2390 N   0  0  0  0  0  0  0  0  0  0  0  0
  185.9070  177.9630  146.6430 C   0  0  1  0  0  3  0  0  0  0  0  0
  187.8000  177.2500  145.2950 C   0  0  1  0  0  3  0  0  0  0  0  0
  186.6710  177.9340  143.0990 N   0  0  0  0  0  2  0  0  0  0  0  0
  185.7600  178.7980  142.3690 C   0  0  0  0  0  2  0  0  0  0  0  0
  184.9220  178.6260  140.0250 C   0  0  0  0  0  3  0  0  0  0  0  0
  186.4320  178.2270  138.1700 C   0  0  0  0  0  0  0  0  0  0  0  0
  187.3000  178.4530  140.4270 C   0  0  0  0  0  3  0  0  0  0  0  0
  187.5140  178.2470  139.0610 C   0  0  0  0  0  3  0  0  0  0  0  0
  185.1360  178.4180  138.6610 C   0  0  0  0  0  3  0  0  0  0  0  0
  186.0040  178.6480  140.9080 C   0  0  0  0  0  0  0  0  0  0  0  0
  186.6490  178.0050  136.7330 C   0  0  0  0  0  0  0  0  0  0  0  0
  185.8950  177.2340  136.0850 O   0  0  0  0  0  1  0  0  0  0  0  0
  187.6920  178.6460  136.0730 O   0  0  0  0  0  0  0  0  0  0  0  0
  190.1500  175.8070  138.6880 C   0  0  0  0  0  2  0  0  0  0  0  0
  190.1750  176.6640  137.4310 C   0  0  0  0  0  2  0  0  0  0  0  0
  189.7230  175.8500  136.2280 C   0  0  0  0  0  2  0  0  0  0  0  0
  190.7210  175.9710  135.0910 C   0  0  0  0  0  2  0  0  0  0  0  0
  192.1380  176.0640  135.6270 C   0  0  0  0  0  2  0  0  0  0  0  0
  193.2790  174.3600  137.6020 O   0  0  0  0  0  0  0  0  0  0  0  0
  193.3990  174.0180  136.3960 C   0  0  0  0  0  0  0  0  0  0  0  0
  192.8280  174.8160  135.3570 N   0  0  0  0  0  2  0  0  0  0  0  0
  194.3450  172.7380  134.6680 O   0  0  0  0  0  1  0  0  0  0  0  0
  194.1520  172.7740  136.0480 C   0  0  1  0  0  3  0  0  0  0  0  0
  196.0970  171.3070  136.9870 C   0  0  0  0  0  0  0  0  0  0  0  0
  197.9480  173.0180  136.7260 C   0  0  2  0  0  3  0  0  0  0  0  0
  198.4750  170.6150  136.0800 C   0  0  0  0  0  2  0  0  0  0  0  0
  198.2760  173.5350  137.9820 O   0  0  0  0  0  1  0  0  0  0  0  0
  195.6180  170.3160  135.9200 C   0  0  0  0  0  1  0  0  0  0  0  0
  195.7160  170.7790  138.3630 C   0  0  0  0  0  1  0  0  0  0  0  0
  196.6160  173.5930  136.2130 C   0  0  1  0  0  3  0  0  0  0  0  0
  195.4970  172.7250  136.8110 C   0  0  1  0  0  3  0  0  0  0  0  0
  198.5950  170.6450  137.5970 C   0  0  0  0  0  2  0  0  0  0  0  0
  197.6080  171.5600  136.8920 C   0  0  0  0  0  0  0  0  0  0  0  0
  196.3510  175.1130  136.3110 C   0  0  2  0  0  3  0  0  0  0  0  0
  196.5680  175.8050  135.0210 C   0  0  0  0  0  2  0  0  0  0  0  0
  197.5040  175.8810  136.0750 O   0  0  0  0  0  0  0  0  0  0  0  0
  1  5  1  0  0  0  0
  2  3  1  0  0  0  0
  3  5  2  0  0  0  0
  4  1  2  0  0  0  0
  6  2  2  0  0  0  0
  6  4  1  0  0  0  0
  7  5  1  6  0  0  0
  7 15  1  0  0  0  0
  7 11  1  0  0  0  0
  8 13  1  0  0  0  0
 10 13  1  0  0  0  0
 10 12  1  1  0  0  0
 11  8  1  0  0  0  0
 13  9  1  6  0  0  0
 14 15  1  6  0  0  0
 14 10  1  0  0  0  0
 18 19  2  0  0  0  0
 18 21  1  0  0  0  0
 19 20  1  0  0  0  0
 20 16  1  0  0  0  0
 20 17  1  1  0  0  0
 21 14  1  0  0  0  0
 21 16  1  1  0  0  0
 22 18  1  0  0  0  0
 23 22  1  0  0  0  0
 24 29  1  0  0  0  0
 25 28  1  0  0  0  0
 25 27  2  0  0  0  0
 26 29  2  0  0  0  0
 27 26  1  0  0  0  0
 28 24  2  0  0  0  0
 29 23  1  0  0  0  0
 30 25  1  0  0  0  0
 31 30  1  0  0  0  0
 32 30  2  0  0  0  0
 33  2  1  0  0  0  0
 34 33  1  0  0  0  0
 35 34  1  0  0  0  0
 36 37  1  0  0  0  0
 36 35  1  0  0  0  0
 39 38  2  0  0  0  0
 40 37  1  0  0  0  0
 40 39  1  0  0  0  0
 42 41  1  6  0  0  0
 42 39  1  0  0  0  0
 43 48  1  0  0  0  0
 44 52  1  0  0  0  0
 44 46  1  1  0  0  0
 45 52  1  0  0  0  0
 45 51  1  0  0  0  0
 47 43  1  0  0  0  0
 49 53  1  1  0  0  0
 49 44  1  0  0  0  0
 49 50  1  0  0  0  0
 50 42  1  6  0  0  0
 50 43  1  0  0  0  0
 52 43  1  0  0  0  0
 52 51  1  0  0  0  0
 53 54  1  6  0  0  0
 54 55  1  0  0  0  0
 55 53  1  0  0  0  0
M  END
>  <MODEL>
9

>  <REMARK>
 VINA RESULT:      -6.4      4.670      9.696
  Name = 
  14 active torsions:
  status: ('A' for Active; 'I' for Inactive)
    1  A    between atoms: C_2  and  C_44
    2  A    between atoms: C_8  and  N_22
    3  A    between atoms: C_8  and  C_35
    4  A    between atoms: C_10  and  C_32
    5  A    between atoms: C_11  and  C_38
    6  A    between atoms: C_20  and  C_50
    7  A    between atoms: C_26  and  C_45
    8  A    between atoms: C_27  and  C_54
    9  A    between atoms: C_33  and  N_36
   10  A    between atoms: C_33  and  C_52
   11  A    between atoms: C_35  and  C_43
   12  A    between atoms: C_42  and  C_50
   13  A    between atoms: C_43  and  C_51
   14  A    between atoms: C_51  and  C_54
                            x       y       z     vdW  Elec       q    Type
                         _______ _______ _______ _____ _____    ______ ____

>  <TORSDO>
F 14

$$$$
