=
 OpenBabel10262421183D

 32 33  0  0  1  0  0  0  0  0999 V2000
  186.8440  178.0720  142.5400 C   0  0  2  0  0  3  0  0  0  0  0  0
  184.2900  178.5610  143.0880 C   0  0  1  0  0  3  0  0  0  0  0  0
  184.6500  179.1570  141.7390 C   0  0  0  0  0  2  0  0  0  0  0  0
  185.3440  177.8840  142.1950 C   0  0  1  0  0  3  0  0  0  0  0  0
  184.8300  179.4490  144.2040 C   0  0  0  0  0  2  0  0  0  0  0  0
  185.5540  179.0050  146.5100 C   0  0  0  0  0  2  0  0  0  0  0  0
  184.6820  178.7790  145.5310 C   0  0  0  0  0  3  0  0  0  0  0  0
  187.6700  178.4530  141.3560 C   0  0  0  0  0  0  0  0  0  0  0  0
  188.1050  179.6310  141.2370 O   0  0  0  0  0  0  0  0  0  0  0  0
  187.9190  177.4860  140.3720 O   0  0  0  0  0  0  0  0  0  0  0  0
  188.8300  177.6350  139.2790 C   0  0  1  0  0  3  0  0  0  0  0  0
  190.2060  177.0040  139.5360 C   0  0  1  0  0  3  0  0  0  0  0  0
  190.9230  176.5560  138.2620 C   0  0  0  0  0  1  0  0  0  0  0  0
  191.0030  177.6690  140.4970 O   0  0  0  0  0  0  0  0  0  0  0  0
  192.3460  177.2870  140.3470 C   0  0  0  0  0  1  0  0  0  0  0  0
  188.2230  177.2380  137.9360 C   0  0  0  0  0  2  0  0  0  0  0  0
  187.1320  178.3880  136.1560 O   0  0  0  0  0  0  0  0  0  0  0  0
  188.6890  179.6090  137.3160 O   0  0  0  0  0  1  0  0  0  0  0  0
  187.9730  178.4400  137.0910 C   0  0  0  0  0  0  0  0  0  0  0  0
  187.5440  177.0240  143.4110 C   0  0  0  0  0  2  0  0  0  0  0  0
  189.5200  175.5670  142.9090 C   0  0  0  0  0  1  0  0  0  0  0  0
  189.0420  176.9940  143.1450 C   0  0  2  0  0  3  0  0  0  0  0  0
  189.8020  177.6790  144.2810 C   0  0  2  0  0  3  0  0  0  0  0  0
  191.1520  176.9900  144.5250 C   0  0  0  0  0  2  0  0  0  0  0  0
  188.9500  177.8710  145.5520 C   0  0  0  0  0  2  0  0  0  0  0  0
  190.7280  176.8220  147.0100 C   0  0  1  0  0  3  0  0  0  0  0  0
  191.6970  177.3040  145.9140 C   0  0  0  0  0  2  0  0  0  0  0  0
  189.2370  176.8010  146.6040 C   0  0  1  0  0  3  0  0  0  0  0  0
  188.7270  178.3360  148.5060 C   0  0  0  0  0  1  0  0  0  0  0  0
  188.3470  177.0430  147.8110 C   0  0  0  0  0  2  0  0  0  0  0  0
  191.1570  175.6370  147.6470 O   0  0  0  0  0  0  0  0  0  0  0  0
  192.5440  175.7110  147.8590 C   0  0  0  0  0  1  0  0  0  0  0  0
  1 20  1  6  0  0  0
  2  5  1  1  0  0  0
  3  4  1  0  0  0  0
  3  2  1  0  0  0  0
  4  1  1  1  0  0  0
  4  2  1  0  0  0  0
  5  7  1  0  0  0  0
  7  6  2  0  0  0  0
  8  1  1  0  0  0  0
  9  8  2  0  0  0  0
 10  8  1  0  0  0  0
 11 16  1  6  0  0  0
 11 12  1  0  0  0  0
 11 10  1  0  0  0  0
 12 13  1  6  0  0  0
 12 14  1  0  0  0  0
 15 14  1  0  0  0  0
 17 19  2  0  0  0  0
 19 18  1  0  0  0  0
 19 16  1  0  0  0  0
 22 21  1  1  0  0  0
 22 20  1  0  0  0  0
 23 22  1  6  0  0  0
 23 24  1  0  0  0  0
 23 25  1  0  0  0  0
 24 27  1  0  0  0  0
 25 28  1  0  0  0  0
 26 31  1  6  0  0  0
 27 26  1  0  0  0  0
 28 26  1  0  0  0  0
 28 30  1  1  0  0  0
 30 29  1  0  0  0  0
 31 32  1  0  0  0  0
M  END
>  <MODEL>
1

>  <REMARK>
 VINA RESULT:      -7.3      0.000      0.000
  Name = 
  15 active torsions:
  status: ('A' for Active; 'I' for Inactive)
    1  A    between atoms: C_2  and  C_5
    2  A    between atoms: C_3  and  C_20
    3  A    between atoms: C_3  and  O_22
    4  A    between atoms: C_4  and  C_14
    5  A    between atoms: C_4  and  C_24
    6  A    between atoms: C_4  and  C_30
    7  A    between atoms: C_5  and  C_14
    8  A    between atoms: O_11  and  C_12
    9  A    between atoms: C_13  and  C_18
   10  A    between atoms: C_13  and  C_29
   11  A    between atoms: C_15  and  C_20
   12  A    between atoms: C_15  and  C_26
   13  A    between atoms: O_16  and  C_20
   14  A    between atoms: O_16  and  C_24
   15  A    between atoms: C_28  and  C_32
                            x       y       z     vdW  Elec       q    Type
                         _______ _______ _______ _____ _____    ______ ____

>  <TORSDO>
F 15

$$$$
=
 OpenBabel10262421183D

 32 33  0  0  1  0  0  0  0  0999 V2000
  186.8190  178.0860  142.5900 C   0  0  2  0  0  3  0  0  0  0  0  0
  184.2780  178.5580  143.2100 C   0  0  1  0  0  3  0  0  0  0  0  0
  184.6160  179.2210  141.8870 C   0  0  0  0  0  2  0  0  0  0  0  0
  185.3110  177.9230  142.2640 C   0  0  1  0  0  3  0  0  0  0  0  0
  184.8430  179.3840  144.3610 C   0  0  0  0  0  2  0  0  0  0  0  0
  185.4850  178.9430  146.6910 C   0  0  0  0  0  2  0  0  0  0  0  0
  184.7000  178.6550  145.6560 C   0  0  0  0  0  3  0  0  0  0  0  0
  187.6180  178.5610  141.4220 C   0  0  0  0  0  0  0  0  0  0  0  0
  188.5490  179.3960  141.5860 O   0  0  0  0  0  0  0  0  0  0  0  0
  187.2890  178.0840  140.1450 O   0  0  0  0  0  0  0  0  0  0  0  0
  188.1940  177.4290  139.2500 C   0  0  1  0  0  3  0  0  0  0  0  0
  187.5970  177.1650  137.8600 C   0  0  1  0  0  3  0  0  0  0  0  0
  186.5160  178.1670  137.4560 C   0  0  0  0  0  1  0  0  0  0  0  0
  188.5350  176.8240  136.8580 O   0  0  0  0  0  0  0  0  0  0  0  0
  188.2500  177.5320  135.6790 C   0  0  0  0  0  1  0  0  0  0  0  0
  189.5700  178.0870  139.2030 C   0  0  0  0  0  2  0  0  0  0  0  0
  191.4690  177.5440  140.5380 O   0  0  0  0  0  1  0  0  0  0  0  0
  190.6850  175.8560  139.1970 O   0  0  0  0  0  0  0  0  0  0  0  0
  190.6220  177.1510  139.6930 C   0  0  0  0  0  0  0  0  0  0  0  0
  187.5370  176.9740  143.3600 C   0  0  0  0  0  2  0  0  0  0  0  0
  189.5590  175.5870  142.8410 C   0  0  0  0  0  1  0  0  0  0  0  0
  189.0360  176.9960  143.0930 C   0  0  2  0  0  3  0  0  0  0  0  0
  189.7740  177.6930  144.2370 C   0  0  2  0  0  3  0  0  0  0  0  0
  191.1350  177.0280  144.4890 C   0  0  0  0  0  2  0  0  0  0  0  0
  188.9090  177.8660  145.5020 C   0  0  0  0  0  2  0  0  0  0  0  0
  190.6950  176.8460  146.9710 C   0  0  1  0  0  3  0  0  0  0  0  0
  191.6630  177.3490  145.8840 C   0  0  0  0  0  2  0  0  0  0  0  0
  189.2080  176.7990  146.5530 C   0  0  1  0  0  3  0  0  0  0  0  0
  188.7360  178.2520  148.5280 C   0  0  0  0  0  1  0  0  0  0  0  0
  188.3040  177.0210  147.7540 C   0  0  0  0  0  2  0  0  0  0  0  0
  191.1410  175.6680  147.6090 O   0  0  0  0  0  0  0  0  0  0  0  0
  192.5440  175.6960  147.6860 C   0  0  0  0  0  1  0  0  0  0  0  0
  1 20  1  6  0  0  0
  2  5  1  1  0  0  0
  3  4  1  0  0  0  0
  3  2  1  0  0  0  0
  4  1  1  1  0  0  0
  4  2  1  0  0  0  0
  5  7  1  0  0  0  0
  7  6  2  0  0  0  0
  8  9  2  0  0  0  0
  8  1  1  0  0  0  0
 10  8  1  0  0  0  0
 11 16  1  6  0  0  0
 11 10  1  0  0  0  0
 12 13  1  6  0  0  0
 12 11  1  0  0  0  0
 14 12  1  0  0  0  0
 15 14  1  0  0  0  0
 16 19  1  0  0  0  0
 18 19  2  0  0  0  0
 19 17  1  0  0  0  0
 22 21  1  1  0  0  0
 22 20  1  0  0  0  0
 23 22  1  6  0  0  0
 23 24  1  0  0  0  0
 23 25  1  0  0  0  0
 24 27  1  0  0  0  0
 25 28  1  0  0  0  0
 26 31  1  6  0  0  0
 27 26  1  0  0  0  0
 28 26  1  0  0  0  0
 28 30  1  1  0  0  0
 30 29  1  0  0  0  0
 31 32  1  0  0  0  0
M  END
>  <MODEL>
2

>  <REMARK>
 VINA RESULT:      -7.2      0.864      2.324
  Name = 
  15 active torsions:
  status: ('A' for Active; 'I' for Inactive)
    1  A    between atoms: C_2  and  C_5
    2  A    between atoms: C_3  and  C_20
    3  A    between atoms: C_3  and  O_22
    4  A    between atoms: C_4  and  C_14
    5  A    between atoms: C_4  and  C_24
    6  A    between atoms: C_4  and  C_30
    7  A    between atoms: C_5  and  C_14
    8  A    between atoms: O_11  and  C_12
    9  A    between atoms: C_13  and  C_18
   10  A    between atoms: C_13  and  C_29
   11  A    between atoms: C_15  and  C_20
   12  A    between atoms: C_15  and  C_26
   13  A    between atoms: O_16  and  C_20
   14  A    between atoms: O_16  and  C_24
   15  A    between atoms: C_28  and  C_32
                            x       y       z     vdW  Elec       q    Type
                         _______ _______ _______ _____ _____    ______ ____

>  <TORSDO>
F 15

$$$$
=
 OpenBabel10262421183D

 32 33  0  0  1  0  0  0  0  0999 V2000
  184.2830  178.7210  140.9860 C   0  0  2  0  0  3  0  0  0  0  0  0
  181.7750  177.8800  141.2490 C   0  0  1  0  0  3  0  0  0  0  0  0
  182.2170  177.7350  139.8040 C   0  0  0  0  0  2  0  0  0  0  0  0
  183.2440  177.5720  140.9130 C   0  0  1  0  0  3  0  0  0  0  0  0
  181.4490  179.3400  141.5450 C   0  0  0  0  0  2  0  0  0  0  0  0
  181.1100  178.7090  143.8960 C   0  0  0  0  0  2  0  0  0  0  0  0
  180.7590  179.4710  142.8630 C   0  0  0  0  0  3  0  0  0  0  0  0
  184.8750  179.0560  139.6570 C   0  0  0  0  0  0  0  0  0  0  0  0
  184.5910  180.1480  139.0920 O   0  0  0  0  0  0  0  0  0  0  0  0
  185.7190  178.1210  139.0430 O   0  0  0  0  0  0  0  0  0  0  0  0
  186.3990  178.3130  137.7990 C   0  0  1  0  0  3  0  0  0  0  0  0
  187.9250  178.1760  137.9060 C   0  0  1  0  0  3  0  0  0  0  0  0
  188.6670  178.5820  136.6320 C   0  0  0  0  0  1  0  0  0  0  0  0
  188.4850  178.6260  139.1240 O   0  0  0  0  0  0  0  0  0  0  0  0
  189.7140  177.9830  139.3470 C   0  0  0  0  0  1  0  0  0  0  0  0
  185.7960  177.5010  136.6560 C   0  0  0  0  0  2  0  0  0  0  0  0
  186.3260  175.2290  137.1470 O   0  0  0  0  0  0  0  0  0  0  0  0
  184.1350  175.8260  137.4640 O   0  0  0  0  0  1  0  0  0  0  0  0
  185.4430  176.1260  137.1100 C   0  0  0  0  0  0  0  0  0  0  0  0
  185.3410  178.6970  142.0930 C   0  0  0  0  0  2  0  0  0  0  0  0
  184.8330  180.2330  144.0070 C   0  0  0  0  0  1  0  0  0  0  0  0
  184.7030  178.8130  143.4710 C   0  0  2  0  0  3  0  0  0  0  0  0
  185.2970  177.7760  144.4250 C   0  0  2  0  0  3  0  0  0  0  0  0
  185.3910  178.3400  145.8490 C   0  0  0  0  0  2  0  0  0  0  0  0
  186.6070  177.1500  143.9040 C   0  0  0  0  0  2  0  0  0  0  0  0
  187.8050  177.6290  146.0770 C   0  0  1  0  0  3  0  0  0  0  0  0
  186.3950  177.5610  146.6930 C   0  0  0  0  0  2  0  0  0  0  0  0
  187.8410  177.7870  144.5400 C   0  0  1  0  0  3  0  0  0  0  0  0
  188.7650  176.4300  142.6590 C   0  0  0  0  0  1  0  0  0  0  0  0
  189.0870  177.1370  143.9610 C   0  0  0  0  0  2  0  0  0  0  0  0
  188.6660  178.5180  146.7570 O   0  0  0  0  0  0  0  0  0  0  0  0
  189.0690  177.9240  147.9650 C   0  0  0  0  0  1  0  0  0  0  0  0
  1 20  1  1  0  0  0
  2  5  1  6  0  0  0
  3  4  1  0  0  0  0
  3  2  1  0  0  0  0
  4  1  1  6  0  0  0
  4  2  1  0  0  0  0
  5  7  1  0  0  0  0
  7  6  2  0  0  0  0
  8  1  1  0  0  0  0
  9  8  2  0  0  0  0
 10  8  1  0  0  0  0
 11 16  1  6  0  0  0
 11 12  1  0  0  0  0
 11 10  1  0  0  0  0
 12 13  1  6  0  0  0
 12 14  1  0  0  0  0
 14 15  1  0  0  0  0
 16 19  1  0  0  0  0
 19 17  2  0  0  0  0
 19 18  1  0  0  0  0
 20 22  1  0  0  0  0
 22 21  1  1  0  0  0
 23 22  1  6  0  0  0
 23 24  1  0  0  0  0
 24 27  1  0  0  0  0
 25 23  1  0  0  0  0
 25 28  1  0  0  0  0
 26 27  1  0  0  0  0
 26 31  1  1  0  0  0
 28 30  1  6  0  0  0
 28 26  1  0  0  0  0
 29 30  1  0  0  0  0
 31 32  1  0  0  0  0
M  END
>  <MODEL>
3

>  <REMARK>
 VINA RESULT:      -6.3      2.330      4.062
  Name = 
  15 active torsions:
  status: ('A' for Active; 'I' for Inactive)
    1  A    between atoms: C_2  and  C_5
    2  A    between atoms: C_3  and  C_20
    3  A    between atoms: C_3  and  O_22
    4  A    between atoms: C_4  and  C_14
    5  A    between atoms: C_4  and  C_24
    6  A    between atoms: C_4  and  C_30
    7  A    between atoms: C_5  and  C_14
    8  A    between atoms: O_11  and  C_12
    9  A    between atoms: C_13  and  C_18
   10  A    between atoms: C_13  and  C_29
   11  A    between atoms: C_15  and  C_20
   12  A    between atoms: C_15  and  C_26
   13  A    between atoms: O_16  and  C_20
   14  A    between atoms: O_16  and  C_24
   15  A    between atoms: C_28  and  C_32
                            x       y       z     vdW  Elec       q    Type
                         _______ _______ _______ _____ _____    ______ ____

>  <TORSDO>
F 15

$$$$
=
 OpenBabel10262421183D

 32 33  0  0  1  0  0  0  0  0999 V2000
  187.9710  178.1680  140.6640 C   0  0  2  0  0  3  0  0  0  0  0  0
  190.1820  177.8430  139.2260 C   0  0  1  0  0  3  0  0  0  0  0  0
  189.1590  178.6270  138.4250 C   0  0  0  0  0  2  0  0  0  0  0  0
  189.1950  178.7830  139.9360 C   0  0  1  0  0  3  0  0  0  0  0  0
  189.8140  176.3630  139.2250 C   0  0  0  0  0  2  0  0  0  0  0  0
  190.2560  175.3010  137.0530 C   0  0  0  0  0  2  0  0  0  0  0  0
  190.6820  175.6010  138.2780 C   0  0  0  0  0  3  0  0  0  0  0  0
  186.6690  178.5770  140.0590 C   0  0  0  0  0  0  0  0  0  0  0  0
  186.3410  178.1600  138.9140 O   0  0  0  0  0  0  0  0  0  0  0  0
  185.8430  179.4550  140.7750 O   0  0  0  0  0  0  0  0  0  0  0  0
  184.4910  179.1870  141.1610 C   0  0  1  0  0  3  0  0  0  0  0  0
  183.5130  179.1370  139.9790 C   0  0  1  0  0  3  0  0  0  0  0  0
  182.0850  178.7670  140.3800 C   0  0  0  0  0  1  0  0  0  0  0  0
  183.6440  180.1910  139.0440 O   0  0  0  0  0  0  0  0  0  0  0  0
  182.3720  180.6380  138.6520 C   0  0  0  0  0  1  0  0  0  0  0  0
  184.3640  177.9940  142.1040 C   0  0  0  0  0  2  0  0  0  0  0  0
  185.2050  178.5220  144.2710 O   0  0  0  0  0  1  0  0  0  0  0  0
  182.9400  178.7590  144.0030 O   0  0  0  0  0  0  0  0  0  0  0  0
  184.2010  178.4470  143.5140 C   0  0  0  0  0  0  0  0  0  0  0  0
  187.9240  178.1970  142.1940 C   0  0  0  0  0  2  0  0  0  0  0  0
  188.0370  175.9780  143.3540 C   0  0  0  0  0  1  0  0  0  0  0  0
  188.8440  177.1430  142.7960 C   0  0  2  0  0  3  0  0  0  0  0  0
  189.7610  177.7690  143.8470 C   0  0  2  0  0  3  0  0  0  0  0  0
  191.0330  176.9290  144.0260 C   0  0  0  0  0  2  0  0  0  0  0  0
  189.0340  178.1070  145.1640 C   0  0  0  0  0  2  0  0  0  0  0  0
  190.7760  176.9000  146.5400 C   0  0  1  0  0  3  0  0  0  0  0  0
  191.7130  177.2220  145.3600 C   0  0  0  0  0  2  0  0  0  0  0  0
  189.2680  177.0470  146.2380 C   0  0  1  0  0  3  0  0  0  0  0  0
  187.1870  178.0970  147.1330 C   0  0  0  0  0  1  0  0  0  0  0  0
  188.5040  177.4370  147.4930 C   0  0  0  0  0  2  0  0  0  0  0  0
  191.1070  175.6940  147.1970 O   0  0  0  0  0  0  0  0  0  0  0  0
  192.3700  175.8340  147.7960 C   0  0  0  0  0  1  0  0  0  0  0  0
  1 20  1  1  0  0  0
  2  5  1  1  0  0  0
  2  4  1  0  0  0  0
  3  2  1  0  0  0  0
  3  4  1  0  0  0  0
  4  1  1  1  0  0  0
  6  7  2  0  0  0  0
  7  5  1  0  0  0  0
  8  1  1  0  0  0  0
  8 10  1  0  0  0  0
  9  8  2  0  0  0  0
 10 11  1  0  0  0  0
 11 16  1  6  0  0  0
 12 13  1  1  0  0  0
 12 11  1  0  0  0  0
 14 12  1  0  0  0  0
 15 14  1  0  0  0  0
 16 19  1  0  0  0  0
 19 18  2  0  0  0  0
 19 17  1  0  0  0  0
 20 22  1  0  0  0  0
 22 21  1  1  0  0  0
 23 22  1  6  0  0  0
 23 24  1  0  0  0  0
 23 25  1  0  0  0  0
 24 27  1  0  0  0  0
 25 28  1  0  0  0  0
 26 31  1  6  0  0  0
 27 26  1  0  0  0  0
 28 26  1  0  0  0  0
 28 30  1  1  0  0  0
 29 30  1  0  0  0  0
 31 32  1  0  0  0  0
M  END
>  <MODEL>
4

>  <REMARK>
 VINA RESULT:      -6.2      2.090      5.586
  Name = 
  15 active torsions:
  status: ('A' for Active; 'I' for Inactive)
    1  A    between atoms: C_2  and  C_5
    2  A    between atoms: C_3  and  C_20
    3  A    between atoms: C_3  and  O_22
    4  A    between atoms: C_4  and  C_14
    5  A    between atoms: C_4  and  C_24
    6  A    between atoms: C_4  and  C_30
    7  A    between atoms: C_5  and  C_14
    8  A    between atoms: O_11  and  C_12
    9  A    between atoms: C_13  and  C_18
   10  A    between atoms: C_13  and  C_29
   11  A    between atoms: C_15  and  C_20
   12  A    between atoms: C_15  and  C_26
   13  A    between atoms: O_16  and  C_20
   14  A    between atoms: O_16  and  C_24
   15  A    between atoms: C_28  and  C_32
                            x       y       z     vdW  Elec       q    Type
                         _______ _______ _______ _____ _____    ______ ____

>  <TORSDO>
F 15

$$$$
=
 OpenBabel10262421183D

 32 33  0  0  1  0  0  0  0  0999 V2000
  187.7820  178.1010  140.7720 C   0  0  2  0  0  3  0  0  0  0  0  0
  189.9730  177.9290  139.2770 C   0  0  1  0  0  3  0  0  0  0  0  0
  188.8670  178.6100  138.4910 C   0  0  0  0  0  2  0  0  0  0  0  0
  188.9310  178.7990  139.9980 C   0  0  1  0  0  3  0  0  0  0  0  0
  189.7290  176.4240  139.3140 C   0  0  0  0  0  2  0  0  0  0  0  0
  191.7340  175.9930  137.9610 C   0  0  0  0  0  2  0  0  0  0  0  0
  190.4490  175.7420  138.1980 C   0  0  0  0  0  3  0  0  0  0  0  0
  186.4280  178.5510  140.3330 C   0  0  0  0  0  0  0  0  0  0  0  0
  186.1160  178.5280  139.1110 O   0  0  0  0  0  0  0  0  0  0  0  0
  185.5330  179.0260  141.3010 O   0  0  0  0  0  0  0  0  0  0  0  0
  184.2560  178.4520  141.5990 C   0  0  1  0  0  3  0  0  0  0  0  0
  183.8040  178.6780  143.0490 C   0  0  1  0  0  3  0  0  0  0  0  0
  184.9320  179.1240  143.9800 C   0  0  0  0  0  1  0  0  0  0  0  0
  182.5710  179.3560  143.1950 O   0  0  0  0  0  0  0  0  0  0  0  0
  181.7280  178.6270  144.0500 C   0  0  0  0  0  1  0  0  0  0  0  0
  183.1860  178.8040  140.5690 C   0  0  0  0  0  2  0  0  0  0  0  0
  181.1350  177.5990  140.4140 O   0  0  0  0  0  1  0  0  0  0  0  0
  182.9990  176.4790  139.6850 O   0  0  0  0  0  0  0  0  0  0  0  0
  182.3780  177.6030  140.2120 C   0  0  0  0  0  0  0  0  0  0  0  0
  187.8790  177.9800  142.2950 C   0  0  0  0  0  2  0  0  0  0  0  0
  188.5950  175.7180  143.1030 C   0  0  0  0  0  1  0  0  0  0  0  0
  189.0610  177.1130  142.7080 C   0  0  2  0  0  3  0  0  0  0  0  0
  189.8620  177.7940  143.8190 C   0  0  2  0  0  3  0  0  0  0  0  0
  191.1160  176.9780  144.1600 C   0  0  0  0  0  2  0  0  0  0  0  0
  189.0030  178.1770  145.0400 C   0  0  0  0  0  2  0  0  0  0  0  0
  190.6070  177.0490  146.6350 C   0  0  1  0  0  3  0  0  0  0  0  0
  191.6550  177.3350  145.5430 C   0  0  0  0  0  2  0  0  0  0  0  0
  189.1360  177.1650  146.1770 C   0  0  1  0  0  3  0  0  0  0  0  0
  186.8700  177.9870  146.8260 C   0  0  0  0  0  1  0  0  0  0  0  0
  188.2450  177.5960  147.3300 C   0  0  0  0  0  2  0  0  0  0  0  0
  190.8790  175.8750  147.3720 O   0  0  0  0  0  0  0  0  0  0  0  0
  192.2710  175.7430  147.5170 C   0  0  0  0  0  1  0  0  0  0  0  0
  1 20  1  1  0  0  0
  2  5  1  1  0  0  0
  2  4  1  0  0  0  0
  3  2  1  0  0  0  0
  3  4  1  0  0  0  0
  4  1  1  1  0  0  0
  6  7  2  0  0  0  0
  7  5  1  0  0  0  0
  8  1  1  0  0  0  0
  8 10  1  0  0  0  0
  9  8  2  0  0  0  0
 10 11  1  0  0  0  0
 11 16  1  6  0  0  0
 11 12  1  0  0  0  0
 12 14  1  0  0  0  0
 12 13  1  1  0  0  0
 14 15  1  0  0  0  0
 18 19  2  0  0  0  0
 19 17  1  0  0  0  0
 19 16  1  0  0  0  0
 20 22  1  0  0  0  0
 22 21  1  1  0  0  0
 23 22  1  6  0  0  0
 23 24  1  0  0  0  0
 23 25  1  0  0  0  0
 24 27  1  0  0  0  0
 25 28  1  0  0  0  0
 26 31  1  6  0  0  0
 27 26  1  0  0  0  0
 28 26  1  0  0  0  0
 28 30  1  1  0  0  0
 29 30  1  0  0  0  0
 31 32  1  0  0  0  0
M  END
>  <MODEL>
5

>  <REMARK>
 VINA RESULT:      -6.1      2.228      5.455
  Name = 
  15 active torsions:
  status: ('A' for Active; 'I' for Inactive)
    1  A    between atoms: C_2  and  C_5
    2  A    between atoms: C_3  and  C_20
    3  A    between atoms: C_3  and  O_22
    4  A    between atoms: C_4  and  C_14
    5  A    between atoms: C_4  and  C_24
    6  A    between atoms: C_4  and  C_30
    7  A    between atoms: C_5  and  C_14
    8  A    between atoms: O_11  and  C_12
    9  A    between atoms: C_13  and  C_18
   10  A    between atoms: C_13  and  C_29
   11  A    between atoms: C_15  and  C_20
   12  A    between atoms: C_15  and  C_26
   13  A    between atoms: O_16  and  C_20
   14  A    between atoms: O_16  and  C_24
   15  A    between atoms: C_28  and  C_32
                            x       y       z     vdW  Elec       q    Type
                         _______ _______ _______ _____ _____    ______ ____

>  <TORSDO>
F 15

$$$$
=
 OpenBabel10262421183D

 32 33  0  0  1  0  0  0  0  0999 V2000
  187.9820  177.9260  140.8470 C   0  0  2  0  0  3  0  0  0  0  0  0
  189.8840  177.7280  139.0010 C   0  0  1  0  0  3  0  0  0  0  0  0
  188.8560  178.7590  138.5710 C   0  0  0  0  0  2  0  0  0  0  0  0
  189.1460  178.5740  140.0520 C   0  0  1  0  0  3  0  0  0  0  0  0
  189.3360  176.3240  138.7660 C   0  0  0  0  0  2  0  0  0  0  0  0
  187.7320  175.4360  137.1300 C   0  0  0  0  0  2  0  0  0  0  0  0
  188.8000  176.1900  137.3790 C   0  0  0  0  0  3  0  0  0  0  0  0
  186.7290  178.7370  140.8090 C   0  0  0  0  0  0  0  0  0  0  0  0
  186.2560  179.2240  141.8720 O   0  0  0  0  0  0  0  0  0  0  0  0
  186.0810  178.9140  139.5790 O   0  0  0  0  0  0  0  0  0  0  0  0
  184.9510  178.1620  139.1250 C   0  0  1  0  0  3  0  0  0  0  0  0
  183.6030  178.7880  139.5090 C   0  0  1  0  0  3  0  0  0  0  0  0
  183.0200  178.2360  140.8100 C   0  0  0  0  0  1  0  0  0  0  0  0
  183.5180  180.1890  139.3340 O   0  0  0  0  0  0  0  0  0  0  0  0
  182.3790  180.5040  138.5750 C   0  0  0  0  0  1  0  0  0  0  0  0
  185.0420  177.7760  137.6510 C   0  0  0  0  0  2  0  0  0  0  0  0
  183.0850  177.2230  136.4080 O   0  0  0  0  0  0  0  0  0  0  0  0
  183.8020  175.6270  137.8910 O   0  0  0  0  0  1  0  0  0  0  0  0
  183.9280  176.8630  137.2720 C   0  0  0  0  0  0  0  0  0  0  0  0
  188.2590  177.3660  142.2450 C   0  0  0  0  0  2  0  0  0  0  0  0
  190.1020  175.6890  142.5110 C   0  0  0  0  0  1  0  0  0  0  0  0
  189.7510  177.1710  142.4780 C   0  0  2  0  0  3  0  0  0  0  0  0
  190.1960  177.9000  143.7460 C   0  0  2  0  0  3  0  0  0  0  0  0
  191.4260  177.2180  144.3610 C   0  0  0  0  0  2  0  0  0  0  0  0
  189.0430  178.1450  144.7420 C   0  0  0  0  0  2  0  0  0  0  0  0
  190.3650  177.1530  146.6540 C   0  0  1  0  0  3  0  0  0  0  0  0
  191.5930  177.5880  145.8320 C   0  0  0  0  0  2  0  0  0  0  0  0
  189.0320  177.1180  145.8720 C   0  0  1  0  0  3  0  0  0  0  0  0
  186.6000  177.6700  145.9920 C   0  0  0  0  0  1  0  0  0  0  0  0
  187.8600  177.4100  146.7940 C   0  0  0  0  0  2  0  0  0  0  0  0
  190.5980  175.9940  147.4260 O   0  0  0  0  0  0  0  0  0  0  0  0
  191.9820  175.8470  147.6200 C   0  0  0  0  0  1  0  0  0  0  0  0
  1 20  1  1  0  0  0
  2  5  1  1  0  0  0
  2  4  1  0  0  0  0
  3  2  1  0  0  0  0
  3  4  1  0  0  0  0
  4  1  1  1  0  0  0
  6  7  2  0  0  0  0
  7  5  1  0  0  0  0
  8  1  1  0  0  0  0
  8  9  2  0  0  0  0
 10  8  1  0  0  0  0
 11 16  1  6  0  0  0
 11 12  1  0  0  0  0
 11 10  1  0  0  0  0
 12 13  1  1  0  0  0
 14 12  1  0  0  0  0
 15 14  1  0  0  0  0
 17 19  2  0  0  0  0
 19 16  1  0  0  0  0
 19 18  1  0  0  0  0
 20 22  1  0  0  0  0
 22 21  1  1  0  0  0
 23 22  1  6  0  0  0
 23 24  1  0  0  0  0
 23 25  1  0  0  0  0
 24 27  1  0  0  0  0
 25 28  1  0  0  0  0
 26 31  1  6  0  0  0
 27 26  1  0  0  0  0
 28 26  1  0  0  0  0
 28 30  1  1  0  0  0
 29 30  1  0  0  0  0
 31 32  1  0  0  0  0
M  END
>  <MODEL>
6

>  <REMARK>
 VINA RESULT:      -5.8      2.258      4.950
  Name = 
  15 active torsions:
  status: ('A' for Active; 'I' for Inactive)
    1  A    between atoms: C_2  and  C_5
    2  A    between atoms: C_3  and  C_20
    3  A    between atoms: C_3  and  O_22
    4  A    between atoms: C_4  and  C_14
    5  A    between atoms: C_4  and  C_24
    6  A    between atoms: C_4  and  C_30
    7  A    between atoms: C_5  and  C_14
    8  A    between atoms: O_11  and  C_12
    9  A    between atoms: C_13  and  C_18
   10  A    between atoms: C_13  and  C_29
   11  A    between atoms: C_15  and  C_20
   12  A    between atoms: C_15  and  C_26
   13  A    between atoms: O_16  and  C_20
   14  A    between atoms: O_16  and  C_24
   15  A    between atoms: C_28  and  C_32
                            x       y       z     vdW  Elec       q    Type
                         _______ _______ _______ _____ _____    ______ ____

>  <TORSDO>
F 15

$$$$
=
 OpenBabel10262421183D

 32 33  0  0  1  0  0  0  0  0999 V2000
  188.9770  178.1960  141.6530 C   0  0  2  0  0  3  0  0  0  0  0  0
  189.7180  177.8280  139.1270 C   0  0  1  0  0  3  0  0  0  0  0  0
  188.2050  177.9030  139.2130 C   0  0  0  0  0  2  0  0  0  0  0  0
  189.0430  178.7100  140.1910 C   0  0  1  0  0  3  0  0  0  0  0  0
  190.1950  176.4580  139.5980 C   0  0  0  0  0  2  0  0  0  0  0  0
  192.2560  176.7530  138.2940 C   0  0  0  0  0  2  0  0  0  0  0  0
  191.2870  175.9460  138.7190 C   0  0  0  0  0  3  0  0  0  0  0  0
  187.5960  177.8150  142.0730 C   0  0  0  0  0  0  0  0  0  0  0  0
  187.3560  176.6450  142.4800 O   0  0  0  0  0  0  0  0  0  0  0  0
  186.5760  178.7710  141.9730 O   0  0  0  0  0  0  0  0  0  0  0  0
  185.1790  178.5090  142.1390 C   0  0  1  0  0  3  0  0  0  0  0  0
  184.6470  178.8720  143.5330 C   0  0  1  0  0  3  0  0  0  0  0  0
  183.1250  179.0030  143.5940 C   0  0  0  0  0  1  0  0  0  0  0  0
  185.2560  178.1810  144.6080 O   0  0  0  0  0  0  0  0  0  0  0  0
  185.2830  179.0040  145.7460 C   0  0  0  0  0  1  0  0  0  0  0  0
  184.3260  179.0660  141.0020 C   0  0  0  0  0  2  0  0  0  0  0  0
  184.6500  177.9960  138.8960 O   0  0  0  0  0  0  0  0  0  0  0  0
  183.0550  177.0560  140.2500 O   0  0  0  0  0  1  0  0  0  0  0  0
  184.0320  178.0090  139.9930 C   0  0  0  0  0  0  0  0  0  0  0  0
  189.7130  178.9730  142.7480 C   0  0  0  0  0  2  0  0  0  0  0  0
  191.5780  177.3180  142.5000 C   0  0  0  0  0  1  0  0  0  0  0  0
  190.7060  178.0850  143.4850 C   0  0  2  0  0  3  0  0  0  0  0  0
  189.9750  177.1570  144.4580 C   0  0  2  0  0  3  0  0  0  0  0  0
  188.8010  177.8870  145.1240 C   0  0  0  0  0  2  0  0  0  0  0  0
  190.9220  176.4460  145.4450 C   0  0  0  0  0  2  0  0  0  0  0  0
  189.5290  177.1570  147.4310 C   0  0  1  0  0  3  0  0  0  0  0  0
  188.3730  177.1940  146.4140 C   0  0  0  0  0  2  0  0  0  0  0  0
  190.9450  177.1280  146.8120 C   0  0  1  0  0  3  0  0  0  0  0  0
  192.4310  175.1340  147.0380 C   0  0  0  0  0  1  0  0  0  0  0  0
  191.9140  176.3870  147.7180 C   0  0  0  0  0  2  0  0  0  0  0  0
  189.3860  178.1030  148.4700 O   0  0  0  0  0  0  0  0  0  0  0  0
  188.0240  178.2120  148.7990 C   0  0  0  0  0  1  0  0  0  0  0  0
  1  8  1  0  0  0  0
  1 20  1  1  0  0  0
  2  3  1  0  0  0  0
  2  5  1  1  0  0  0
  2  4  1  0  0  0  0
  3  4  1  0  0  0  0
  4  1  1  1  0  0  0
  6  7  2  0  0  0  0
  7  5  1  0  0  0  0
  8  9  2  0  0  0  0
 10  8  1  0  0  0  0
 10 11  1  0  0  0  0
 11 16  1  6  0  0  0
 11 12  1  0  0  0  0
 12 13  1  6  0  0  0
 12 14  1  0  0  0  0
 14 15  1  0  0  0  0
 17 19  2  0  0  0  0
 19 18  1  0  0  0  0
 19 16  1  0  0  0  0
 20 22  1  0  0  0  0
 22 21  1  6  0  0  0
 23 22  1  1  0  0  0
 23 24  1  0  0  0  0
 23 25  1  0  0  0  0
 24 27  1  0  0  0  0
 25 28  1  0  0  0  0
 26 31  1  1  0  0  0
 27 26  1  0  0  0  0
 28 26  1  0  0  0  0
 28 30  1  1  0  0  0
 29 30  1  0  0  0  0
 31 32  1  0  0  0  0
M  END
>  <MODEL>
7

>  <REMARK>
 VINA RESULT:      -5.8      1.864      5.366
  Name = 
  15 active torsions:
  status: ('A' for Active; 'I' for Inactive)
    1  A    between atoms: C_2  and  C_5
    2  A    between atoms: C_3  and  C_20
    3  A    between atoms: C_3  and  O_22
    4  A    between atoms: C_4  and  C_14
    5  A    between atoms: C_4  and  C_24
    6  A    between atoms: C_4  and  C_30
    7  A    between atoms: C_5  and  C_14
    8  A    between atoms: O_11  and  C_12
    9  A    between atoms: C_13  and  C_18
   10  A    between atoms: C_13  and  C_29
   11  A    between atoms: C_15  and  C_20
   12  A    between atoms: C_15  and  C_26
   13  A    between atoms: O_16  and  C_20
   14  A    between atoms: O_16  and  C_24
   15  A    between atoms: C_28  and  C_32
                            x       y       z     vdW  Elec       q    Type
                         _______ _______ _______ _____ _____    ______ ____

>  <TORSDO>
F 15

$$$$
=
 OpenBabel10262421183D

 32 33  0  0  1  0  0  0  0  0999 V2000
  185.6100  178.4680  142.9720 C   0  0  2  0  0  3  0  0  0  0  0  0
  184.1290  178.8430  145.1470 C   0  0  1  0  0  3  0  0  0  0  0  0
  183.4870  179.5400  143.9610 C   0  0  0  0  0  2  0  0  0  0  0  0
  184.2740  178.2600  143.7320 C   0  0  1  0  0  3  0  0  0  0  0  0
  185.3070  179.6680  145.6540 C   0  0  0  0  0  2  0  0  0  0  0  0
  185.5400  177.8960  147.3410 C   0  0  0  0  0  2  0  0  0  0  0  0
  185.7900  179.1490  146.9690 C   0  0  0  0  0  3  0  0  0  0  0  0
  185.4160  178.7390  141.5170 C   0  0  0  0  0  0  0  0  0  0  0  0
  185.9500  179.7500  140.9830 O   0  0  0  0  0  0  0  0  0  0  0  0
  184.6070  177.8680  140.7740 O   0  0  0  0  0  0  0  0  0  0  0  0
  184.3240  177.9940  139.3770 C   0  0  1  0  0  3  0  0  0  0  0  0
  182.9100  178.5170  139.0820 C   0  0  1  0  0  3  0  0  0  0  0  0
  181.8080  177.4940  139.3600 C   0  0  0  0  0  1  0  0  0  0  0  0
  182.6550  179.8390  139.5150 O   0  0  0  0  0  0  0  0  0  0  0  0
  181.9780  180.5460  138.5080 C   0  0  0  0  0  1  0  0  0  0  0  0
  185.4160  178.7340  138.6090 C   0  0  0  0  0  2  0  0  0  0  0  0
  185.8590  177.1650  136.8700 O   0  0  0  0  0  0  0  0  0  0  0  0
  187.5840  177.5340  138.3350 O   0  0  0  0  0  1  0  0  0  0  0  0
  186.2950  177.7760  137.8810 C   0  0  0  0  0  0  0  0  0  0  0  0
  186.7660  177.4950  143.2230 C   0  0  0  0  0  2  0  0  0  0  0  0
  188.6740  176.8500  141.7320 C   0  0  0  0  0  1  0  0  0  0  0  0
  188.0460  177.9710  142.5500 C   0  0  2  0  0  3  0  0  0  0  0  0
  189.0140  178.5460  143.5850 C   0  0  2  0  0  3  0  0  0  0  0  0
  190.4640  178.1930  143.2270 C   0  0  0  0  0  2  0  0  0  0  0  0
  188.6200  178.2100  145.0380 C   0  0  0  0  0  2  0  0  0  0  0  0
  190.9380  177.3480  145.5610 C   0  0  1  0  0  3  0  0  0  0  0  0
  191.3820  178.3060  144.4400 C   0  0  0  0  0  2  0  0  0  0  0  0
  189.4240  177.0360  145.5950 C   0  0  1  0  0  3  0  0  0  0  0  0
  189.1600  177.9710  147.8950 C   0  0  0  0  0  1  0  0  0  0  0  0
  188.9650  176.7510  147.0150 C   0  0  0  0  0  2  0  0  0  0  0  0
  191.7530  176.2000  145.6660 O   0  0  0  0  0  0  0  0  0  0  0  0
  192.0630  175.9840  147.0200 C   0  0  0  0  0  1  0  0  0  0  0  0
  1 20  1  6  0  0  0
  2  5  1  6  0  0  0
  3  2  1  0  0  0  0
  4  1  1  6  0  0  0
  4  3  1  0  0  0  0
  4  2  1  0  0  0  0
  5  7  1  0  0  0  0
  7  6  2  0  0  0  0
  8  1  1  0  0  0  0
  9  8  2  0  0  0  0
 10  8  1  0  0  0  0
 11 16  1  1  0  0  0
 11 10  1  0  0  0  0
 12 13  1  1  0  0  0
 12 11  1  0  0  0  0
 12 14  1  0  0  0  0
 15 14  1  0  0  0  0
 17 19  2  0  0  0  0
 19 18  1  0  0  0  0
 19 16  1  0  0  0  0
 22 21  1  1  0  0  0
 22 20  1  0  0  0  0
 23 22  1  6  0  0  0
 23 25  1  0  0  0  0
 24 23  1  0  0  0  0
 24 27  1  0  0  0  0
 25 28  1  0  0  0  0
 26 28  1  0  0  0  0
 26 31  1  6  0  0  0
 27 26  1  0  0  0  0
 28 30  1  1  0  0  0
 30 29  1  0  0  0  0
 31 32  1  0  0  0  0
M  END
>  <MODEL>
8

>  <REMARK>
 VINA RESULT:      -5.8      2.162      3.771
  Name = 
  15 active torsions:
  status: ('A' for Active; 'I' for Inactive)
    1  A    between atoms: C_2  and  C_5
    2  A    between atoms: C_3  and  C_20
    3  A    between atoms: C_3  and  O_22
    4  A    between atoms: C_4  and  C_14
    5  A    between atoms: C_4  and  C_24
    6  A    between atoms: C_4  and  C_30
    7  A    between atoms: C_5  and  C_14
    8  A    between atoms: O_11  and  C_12
    9  A    between atoms: C_13  and  C_18
   10  A    between atoms: C_13  and  C_29
   11  A    between atoms: C_15  and  C_20
   12  A    between atoms: C_15  and  C_26
   13  A    between atoms: O_16  and  C_20
   14  A    between atoms: O_16  and  C_24
   15  A    between atoms: C_28  and  C_32
                            x       y       z     vdW  Elec       q    Type
                         _______ _______ _______ _____ _____    ______ ____

>  <TORSDO>
F 15

$$$$
=
 OpenBabel10262421183D

 32 33  0  0  1  0  0  0  0  0999 V2000
  188.9890  178.3280  141.7140 C   0  0  2  0  0  3  0  0  0  0  0  0
  189.5610  177.9760  139.1420 C   0  0  1  0  0  3  0  0  0  0  0  0
  188.0750  178.2350  139.3080 C   0  0  0  0  0  2  0  0  0  0  0  0
  189.0530  178.8900  140.2700 C   0  0  1  0  0  3  0  0  0  0  0  0
  189.8820  176.5380  139.5400 C   0  0  0  0  0  2  0  0  0  0  0  0
  191.3060  176.3300  137.5480 C   0  0  0  0  0  2  0  0  0  0  0  0
  191.1060  176.0540  138.8340 C   0  0  0  0  0  3  0  0  0  0  0  0
  187.5940  178.0600  142.1730 C   0  0  0  0  0  0  0  0  0  0  0  0
  187.2180  176.8790  142.4050 O   0  0  0  0  0  0  0  0  0  0  0  0
  186.7130  179.1410  142.3070 O   0  0  0  0  0  0  0  0  0  0  0  0
  185.2850  179.0440  142.3380 C   0  0  1  0  0  3  0  0  0  0  0  0
  184.6670  178.6490  140.9890 C   0  0  1  0  0  3  0  0  0  0  0  0
  183.2460  178.0980  141.1040 C   0  0  0  0  0  1  0  0  0  0  0  0
  184.8980  179.5590  139.9320 O   0  0  0  0  0  0  0  0  0  0  0  0
  184.4370  179.0110  138.7240 C   0  0  0  0  0  1  0  0  0  0  0  0
  184.7670  178.2130  143.5090 C   0  0  0  0  0  2  0  0  0  0  0  0
  184.6550  179.1750  145.6870 O   0  0  0  0  0  1  0  0  0  0  0  0
  182.9710  179.7750  144.2520 O   0  0  0  0  0  0  0  0  0  0  0  0
  184.1400  179.0850  144.5420 C   0  0  0  0  0  0  0  0  0  0  0  0
  189.8330  178.9910  142.8070 C   0  0  0  0  0  2  0  0  0  0  0  0
  191.5200  177.1880  142.3770 C   0  0  0  0  0  1  0  0  0  0  0  0
  190.7940  177.9960  143.4440 C   0  0  2  0  0  3  0  0  0  0  0  0
  190.0560  177.1050  144.4440 C   0  0  2  0  0  3  0  0  0  0  0  0
  188.8930  177.8660  145.0940 C   0  0  0  0  0  2  0  0  0  0  0  0
  190.9970  176.4090  145.4480 C   0  0  0  0  0  2  0  0  0  0  0  0
  189.6210  177.1910  147.4180 C   0  0  1  0  0  3  0  0  0  0  0  0
  188.4610  177.2150  146.4050 C   0  0  0  0  0  2  0  0  0  0  0  0
  191.0340  177.1280  146.7960 C   0  0  1  0  0  3  0  0  0  0  0  0
  192.4330  175.0840  147.1060 C   0  0  0  0  0  1  0  0  0  0  0  0
  191.9970  176.4000  147.7190 C   0  0  0  0  0  2  0  0  0  0  0  0
  189.4920  178.1670  148.4310 O   0  0  0  0  0  0  0  0  0  0  0  0
  188.1490  178.2210  148.8410 C   0  0  0  0  0  1  0  0  0  0  0  0
  1  8  1  0  0  0  0
  1 20  1  1  0  0  0
  2  3  1  0  0  0  0
  2  5  1  1  0  0  0
  2  4  1  0  0  0  0
  3  4  1  0  0  0  0
  4  1  1  1  0  0  0
  6  7  2  0  0  0  0
  7  5  1  0  0  0  0
  8 10  1  0  0  0  0
  8  9  2  0  0  0  0
 10 11  1  0  0  0  0
 11 16  1  1  0  0  0
 12 13  1  1  0  0  0
 12 11  1  0  0  0  0
 14 12  1  0  0  0  0
 15 14  1  0  0  0  0
 16 19  1  0  0  0  0
 18 19  2  0  0  0  0
 19 17  1  0  0  0  0
 20 22  1  0  0  0  0
 22 21  1  6  0  0  0
 23 22  1  1  0  0  0
 23 24  1  0  0  0  0
 23 25  1  0  0  0  0
 24 27  1  0  0  0  0
 25 28  1  0  0  0  0
 26 31  1  6  0  0  0
 27 26  1  0  0  0  0
 28 26  1  0  0  0  0
 28 30  1  1  0  0  0
 29 30  1  0  0  0  0
 31 32  1  0  0  0  0
M  END
>  <MODEL>
9

>  <REMARK>
 VINA RESULT:      -5.7      2.076      5.676
  Name = 
  15 active torsions:
  status: ('A' for Active; 'I' for Inactive)
    1  A    between atoms: C_2  and  C_5
    2  A    between atoms: C_3  and  C_20
    3  A    between atoms: C_3  and  O_22
    4  A    between atoms: C_4  and  C_14
    5  A    between atoms: C_4  and  C_24
    6  A    between atoms: C_4  and  C_30
    7  A    between atoms: C_5  and  C_14
    8  A    between atoms: O_11  and  C_12
    9  A    between atoms: C_13  and  C_18
   10  A    between atoms: C_13  and  C_29
   11  A    between atoms: C_15  and  C_20
   12  A    between atoms: C_15  and  C_26
   13  A    between atoms: O_16  and  C_20
   14  A    between atoms: O_16  and  C_24
   15  A    between atoms: C_28  and  C_32
                            x       y       z     vdW  Elec       q    Type
                         _______ _______ _______ _____ _____    ______ ____

>  <TORSDO>
F 15

$$$$
