=
 OpenBabel10262421013D

 32 34  0  0  1  0  0  0  0  0999 V2000
  187.0660  177.6200  144.7260 C   0  0  1  0  0  3  0  0  0  0  0  0
  186.7830  178.8750  142.7570 C   0  0  1  0  0  3  0  0  0  0  0  0
  187.3950  177.7500  146.2160 C   0  0  0  0  0  2  0  0  0  0  0  0
  186.5300  178.9140  144.2460 C   0  0  1  0  0  3  0  0  0  0  0  0
  187.9720  178.1330  142.5690 O   0  0  0  0  0  0  0  0  0  0  0  0
  185.1450  179.1910  144.8460 C   0  0  2  0  0  3  0  0  0  0  0  0
  185.2480  179.0690  146.3570 C   0  0  0  0  0  3  0  0  0  0  0  0
  187.9470  175.8650  143.2550 C   0  0  0  0  0  1  0  0  0  0  0  0
  188.1650  177.3020  143.7040 C   0  0  2  0  0  0  0  0  0  0  0  0
  186.2370  178.3810  146.9710 C   0  0  0  0  0  3  0  0  0  0  0  0
  189.6270  177.4110  144.2240 C   0  0  2  0  0  3  0  0  0  0  0  0
  189.9520  178.7480  144.4850 O   0  0  0  0  0  1  0  0  0  0  0  0
  190.7860  176.6610  143.4760 C   0  0  2  0  0  0  0  0  0  0  0  0
  190.2670  175.5540  142.7970 O   0  0  0  0  0  1  0  0  0  0  0  0
  191.8640  176.1590  144.4850 C   0  0  1  0  0  3  0  0  0  0  0  0
  191.4980  176.3550  145.9480 C   0  0  0  0  0  1  0  0  0  0  0  0
  192.1420  174.8090  144.2770 O   0  0  0  0  0  1  0  0  0  0  0  0
  191.3770  177.5060  142.4920 O   0  0  0  0  0  0  0  0  0  0  0  0
  190.9870  177.1140  141.1920 C   0  0  0  0  0  2  0  0  0  0  0  0
  191.9640  177.5090  140.2770 O   0  0  0  0  0  1  0  0  0  0  0  0
  185.7390  178.2560  142.0640 O   0  0  0  0  0  0  0  0  0  0  0  0
  185.7710  178.8170  140.7880 C   0  0  0  0  0  2  0  0  0  0  0  0
  182.2030  179.1410  138.4490 C   0  0  0  0  0  2  0  0  0  0  0  0
  184.3920  179.9130  139.1660 O   0  0  0  0  0  0  0  0  0  0  0  0
  184.3580  179.0780  140.3000 C   0  0  1  0  0  3  0  0  0  0  0  0
  183.6460  177.7460  139.9950 C   0  0  0  0  0  2  0  0  0  0  0  0
  183.0620  180.3150  138.9400 C   0  0  0  0  0  2  0  0  0  0  0  0
  182.9000  177.7940  138.6600 C   0  0  0  0  0  2  0  0  0  0  0  0
  184.0890  178.2070  144.3380 C   0  0  0  0  0  2  0  0  0  0  0  0
  182.0430  178.9890  143.2740 C   0  0  0  0  0  0  0  0  0  0  0  0
  182.7170  178.7950  144.3740 C   0  0  0  0  0  3  0  0  0  0  0  0
  181.4140  179.1770  142.2270 O   0  0  0  0  0  0  0  0  0  0  0  0
  1  3  1  1  0  0  0
  2 21  1  6  0  0  0
  2  4  1  0  0  0  0
  3 10  1  0  0  0  0
  4  1  1  0  0  0  0
  4  6  1  0  0  0  0
  5  2  1  0  0  0  0
  5  9  1  0  0  0  0
  6  7  1  0  0  0  0
  7 10  2  0  0  0  0
  8  9  1  0  0  0  0
  9 11  1  0  0  0  0
  9  1  1  0  0  0  0
 11 12  1  0  0  0  0
 13 11  1  0  0  0  0
 13 15  1  0  0  0  0
 14 13  1  0  0  0  0
 15 16  1  0  0  0  0
 17 15  1  0  0  0  0
 18 13  1  0  0  0  0
 19 18  1  0  0  0  0
 20 19  1  0  0  0  0
 22 21  1  0  0  0  0
 23 28  1  0  0  0  0
 23 27  1  0  0  0  0
 24 25  1  0  0  0  0
 25 22  1  0  0  0  0
 26 25  1  0  0  0  0
 27 24  1  0  0  0  0
 28 26  1  0  0  0  0
 29 31  1  0  0  0  0
 29  6  1  0  0  0  0
 30 31  2  0  0  0  0
 32 30  2  0  0  0  0
M  END
>  <MODEL>
1

>  <REMARK>
 VINA RESULT:      -7.4      0.000      0.000
  Name = 
  10 active torsions:
  status: ('A' for Active; 'I' for Inactive)
    1  A    between atoms: C_2  and  O_6
    2  A    between atoms: C_3  and  C_22
    3  A    between atoms: O_6  and  C_17
    4  A    between atoms: C_7  and  O_15
    5  A    between atoms: C_12  and  C_17
    6  A    between atoms: C_14  and  C_29
    7  A    between atoms: O_15  and  C_22
    8  A    between atoms: C_16  and  C_22
    9  A    between atoms: C_16  and  C_27
   10  A    between atoms: C_18  and  C_29
                            x       y       z     vdW  Elec       q    Type
                         _______ _______ _______ _____ _____    ______ ____

>  <TORSDO>
F 10

$$$$
=
 OpenBabel10262421013D

 32 34  0  0  1  0  0  0  0  0999 V2000
  187.0460  177.5780  143.6730 C   0  0  1  0  0  3  0  0  0  0  0  0
  187.7390  178.8160  141.7970 C   0  0  1  0  0  3  0  0  0  0  0  0
  186.5420  177.7260  145.1110 C   0  0  0  0  0  2  0  0  0  0  0  0
  186.7470  178.8280  142.9370 C   0  0  1  0  0  3  0  0  0  0  0  0
  188.9020  178.1720  142.2810 O   0  0  0  0  0  0  0  0  0  0  0  0
  185.2370  178.9900  142.7200 C   0  0  2  0  0  3  0  0  0  0  0  0
  184.5470  178.8680  144.0690 C   0  0  0  0  0  3  0  0  0  0  0  0
  188.6840  175.9060  142.9390 C   0  0  0  0  0  1  0  0  0  0  0  0
  188.5350  177.3540  143.3810 C   0  0  2  0  0  0  0  0  0  0  0  0
  185.1190  178.2590  145.1320 C   0  0  0  0  0  3  0  0  0  0  0  0
  189.5020  177.5760  144.5800 C   0  0  2  0  0  3  0  0  0  0  0  0
  189.5730  178.9380  144.9000 O   0  0  0  0  0  1  0  0  0  0  0  0
  190.9170  176.8980  144.5850 C   0  0  2  0  0  0  0  0  0  0  0  0
  190.8260  175.6170  144.0320 O   0  0  0  0  0  1  0  0  0  0  0  0
  191.4650  176.7680  146.0400 C   0  0  1  0  0  3  0  0  0  0  0  0
  190.3920  176.7390  147.1160 C   0  0  0  0  0  1  0  0  0  0  0  0
  192.2520  175.6240  146.1690 O   0  0  0  0  0  1  0  0  0  0  0  0
  191.8280  177.6320  143.7710 O   0  0  0  0  0  0  0  0  0  0  0  0
  192.1520  176.9110  142.6000 C   0  0  0  0  0  2  0  0  0  0  0  0
  191.8500  177.6870  141.4810 O   0  0  0  0  0  1  0  0  0  0  0  0
  187.2550  178.1190  140.6870 O   0  0  0  0  0  0  0  0  0  0  0  0
  188.2900  178.1630  139.7540 C   0  0  0  0  0  2  0  0  0  0  0  0
  187.3600  177.6860  135.6050 C   0  0  0  0  0  2  0  0  0  0  0  0
  186.9550  178.6060  137.8160 O   0  0  0  0  0  0  0  0  0  0  0  0
  187.8010  177.6500  138.4120 C   0  0  1  0  0  3  0  0  0  0  0  0
  188.9990  177.3170  137.5010 C   0  0  0  0  0  2  0  0  0  0  0  0
  186.3460  177.9590  136.7250 C   0  0  0  0  0  2  0  0  0  0  0  0
  188.8040  177.8610  136.0850 C   0  0  0  0  0  2  0  0  0  0  0  0
  184.6710  177.9270  141.7760 C   0  0  0  0  0  2  0  0  0  0  0  0
  184.0500  179.3770  139.9200 C   0  0  0  0  0  0  0  0  0  0  0  0
  183.6820  178.5030  140.8170 C   0  0  0  0  0  3  0  0  0  0  0  0
  184.4050  180.2100  139.0790 O   0  0  0  0  0  0  0  0  0  0  0  0
  1  3  1  1  0  0  0
  2 21  1  6  0  0  0
  2  5  1  0  0  0  0
  2  4  1  0  0  0  0
  3 10  1  0  0  0  0
  4  1  1  0  0  0  0
  5  9  1  0  0  0  0
  6  4  1  0  0  0  0
  6  7  1  0  0  0  0
  7 10  2  0  0  0  0
  8  9  1  0  0  0  0
  9  1  1  0  0  0  0
  9 11  1  0  0  0  0
 11 13  1  0  0  0  0
 11 12  1  0  0  0  0
 13 15  1  0  0  0  0
 14 13  1  0  0  0  0
 15 17  1  0  0  0  0
 15 16  1  0  0  0  0
 18 13  1  0  0  0  0
 19 18  1  0  0  0  0
 20 19  1  0  0  0  0
 22 21  1  0  0  0  0
 23 28  1  0  0  0  0
 23 27  1  0  0  0  0
 24 25  1  0  0  0  0
 25 22  1  0  0  0  0
 26 25  1  0  0  0  0
 27 24  1  0  0  0  0
 28 26  1  0  0  0  0
 29  6  1  0  0  0  0
 30 31  2  0  0  0  0
 31 29  1  0  0  0  0
 32 30  2  0  0  0  0
M  END
>  <MODEL>
2

>  <REMARK>
 VINA RESULT:      -7.3      2.218      2.926
  Name = 
  10 active torsions:
  status: ('A' for Active; 'I' for Inactive)
    1  A    between atoms: C_2  and  O_6
    2  A    between atoms: C_3  and  C_22
    3  A    between atoms: O_6  and  C_17
    4  A    between atoms: C_7  and  O_15
    5  A    between atoms: C_12  and  C_17
    6  A    between atoms: C_14  and  C_29
    7  A    between atoms: O_15  and  C_22
    8  A    between atoms: C_16  and  C_22
    9  A    between atoms: C_16  and  C_27
   10  A    between atoms: C_18  and  C_29
                            x       y       z     vdW  Elec       q    Type
                         _______ _______ _______ _____ _____    ______ ____

>  <TORSDO>
F 10

$$$$
=
 OpenBabel10262421013D

 32 34  0  0  1  0  0  0  0  0999 V2000
  186.9970  177.4550  144.0200 C   0  0  1  0  0  3  0  0  0  0  0  0
  187.8260  178.7450  142.2370 C   0  0  1  0  0  3  0  0  0  0  0  0
  186.4140  177.5620  145.4310 C   0  0  0  0  0  2  0  0  0  0  0  0
  186.7700  178.7380  143.3170 C   0  0  1  0  0  3  0  0  0  0  0  0
  188.9440  178.0540  142.7610 O   0  0  0  0  0  0  0  0  0  0  0  0
  185.2790  178.9470  143.0210 C   0  0  2  0  0  3  0  0  0  0  0  0
  184.5100  178.7920  144.3230 C   0  0  0  0  0  3  0  0  0  0  0  0
  188.6360  175.7710  143.3160 C   0  0  0  0  0  1  0  0  0  0  0  0
  188.4950  177.2040  143.8060 C   0  0  2  0  0  0  0  0  0  0  0  0
  185.0040  178.1280  145.3920 C   0  0  0  0  0  3  0  0  0  0  0  0
  189.3950  177.3570  145.0660 C   0  0  2  0  0  3  0  0  0  0  0  0
  189.2200  178.6240  145.6360 O   0  0  0  0  0  1  0  0  0  0  0  0
  190.9080  176.9450  145.0060 C   0  0  2  0  0  0  0  0  0  0  0  0
  191.7100  178.0810  145.1520 O   0  0  0  0  0  1  0  0  0  0  0  0
  191.2470  176.2750  143.6390 C   0  0  1  0  0  3  0  0  0  0  0  0
  191.9700  177.1810  142.6550 C   0  0  0  0  0  1  0  0  0  0  0  0
  192.0180  175.1280  143.8310 O   0  0  0  0  0  1  0  0  0  0  0  0
  191.2340  176.0730  146.0850 O   0  0  0  0  0  0  0  0  0  0  0  0
  191.2700  176.7760  147.3100 C   0  0  0  0  0  2  0  0  0  0  0  0
  192.4120  176.4090  148.0210 O   0  0  0  0  0  1  0  0  0  0  0  0
  187.3920  178.1030  141.0740 O   0  0  0  0  0  0  0  0  0  0  0  0
  188.5250  178.0080  140.2690 C   0  0  0  0  0  2  0  0  0  0  0  0
  187.5900  178.2140  136.0990 C   0  0  0  0  0  2  0  0  0  0  0  0
  187.0590  178.5260  138.4480 O   0  0  0  0  0  0  0  0  0  0  0  0
  188.1230  177.6910  138.8400 C   0  0  1  0  0  3  0  0  0  0  0  0
  189.3340  177.8460  137.9000 C   0  0  0  0  0  2  0  0  0  0  0  0
  186.5790  178.0000  137.2350 C   0  0  0  0  0  2  0  0  0  0  0  0
  188.9700  178.6160  136.6290 C   0  0  0  0  0  2  0  0  0  0  0  0
  184.7450  177.9350  142.0050 C   0  0  0  0  0  2  0  0  0  0  0  0
  184.0480  179.3300  140.1350 C   0  0  0  0  0  0  0  0  0  0  0  0
  183.7100  178.5350  141.1120 C   0  0  0  0  0  3  0  0  0  0  0  0
  184.3770  180.0880  139.2160 O   0  0  0  0  0  0  0  0  0  0  0  0
  1  3  1  1  0  0  0
  2 21  1  6  0  0  0
  2  5  1  0  0  0  0
  2  4  1  0  0  0  0
  4  1  1  0  0  0  0
  5  9  1  0  0  0  0
  6  4  1  0  0  0  0
  6  7  1  0  0  0  0
  7 10  2  0  0  0  0
  8  9  1  0  0  0  0
  9  1  1  0  0  0  0
  9 11  1  0  0  0  0
 10  3  1  0  0  0  0
 11 12  1  0  0  0  0
 13 11  1  0  0  0  0
 13 14  1  0  0  0  0
 13 18  1  0  0  0  0
 15 17  1  0  0  0  0
 15 13  1  0  0  0  0
 16 15  1  0  0  0  0
 18 19  1  0  0  0  0
 19 20  1  0  0  0  0
 22 21  1  0  0  0  0
 23 28  1  0  0  0  0
 23 27  1  0  0  0  0
 24 25  1  0  0  0  0
 25 22  1  0  0  0  0
 26 25  1  0  0  0  0
 27 24  1  0  0  0  0
 28 26  1  0  0  0  0
 29  6  1  0  0  0  0
 30 31  2  0  0  0  0
 31 29  1  0  0  0  0
 32 30  2  0  0  0  0
M  END
>  <MODEL>
3

>  <REMARK>
 VINA RESULT:      -7.3      2.243      3.488
  Name = 
  10 active torsions:
  status: ('A' for Active; 'I' for Inactive)
    1  A    between atoms: C_2  and  O_6
    2  A    between atoms: C_3  and  C_22
    3  A    between atoms: O_6  and  C_17
    4  A    between atoms: C_7  and  O_15
    5  A    between atoms: C_12  and  C_17
    6  A    between atoms: C_14  and  C_29
    7  A    between atoms: O_15  and  C_22
    8  A    between atoms: C_16  and  C_22
    9  A    between atoms: C_16  and  C_27
   10  A    between atoms: C_18  and  C_29
                            x       y       z     vdW  Elec       q    Type
                         _______ _______ _______ _____ _____    ______ ____

>  <TORSDO>
F 10

$$$$
=
 OpenBabel10262421013D

 32 34  0  0  1  0  0  0  0  0999 V2000
  190.6010  177.6230  142.6710 C   0  0  1  0  0  3  0  0  0  0  0  0
  188.6210  176.3750  142.9110 C   0  0  1  0  0  3  0  0  0  0  0  0
  192.0480  177.5260  142.1830 C   0  0  0  0  0  2  0  0  0  0  0  0
  189.8020  176.5760  141.9910 C   0  0  1  0  0  3  0  0  0  0  0  0
  189.0890  176.6060  144.2260 O   0  0  0  0  0  0  0  0  0  0  0  0
  189.6470  176.8880  140.4970 C   0  0  2  0  0  3  0  0  0  0  0  0
  191.0320  177.1100  139.9110 C   0  0  0  0  0  3  0  0  0  0  0  0
  189.8960  178.7800  144.7160 C   0  0  0  0  0  1  0  0  0  0  0  0
  190.2540  177.4130  144.1500 C   0  0  2  0  0  0  0  0  0  0  0  0
  192.1030  177.4420  140.6660 C   0  0  0  0  0  3  0  0  0  0  0  0
  191.3900  176.8260  145.0360 C   0  0  2  0  0  3  0  0  0  0  0  0
  191.8730  175.6350  144.4800 O   0  0  0  0  0  1  0  0  0  0  0  0
  191.1970  176.7110  146.5890 C   0  0  2  0  0  0  0  0  0  0  0  0
  191.6430  177.8850  147.2060 O   0  0  0  0  0  1  0  0  0  0  0  0
  192.0140  175.5130  147.1630 C   0  0  1  0  0  3  0  0  0  0  0  0
  192.9690  175.8820  148.2860 C   0  0  0  0  0  1  0  0  0  0  0  0
  191.1600  174.5100  147.6210 O   0  0  0  0  0  1  0  0  0  0  0  0
  189.8160  176.5770  146.9150 O   0  0  0  0  0  0  0  0  0  0  0  0
  189.4230  177.5530  147.8580 C   0  0  0  0  0  2  0  0  0  0  0  0
  188.1840  177.2040  148.3960 O   0  0  0  0  0  1  0  0  0  0  0  0
  187.5800  177.2640  142.6300 O   0  0  0  0  0  0  0  0  0  0  0  0
  186.8270  177.3200  143.8020 C   0  0  0  0  0  2  0  0  0  0  0  0
  183.0740  179.3740  143.8560 C   0  0  0  0  0  2  0  0  0  0  0  0
  184.6510  177.7830  142.9160 O   0  0  0  0  0  0  0  0  0  0  0  0
  185.7130  178.3400  143.6550 C   0  0  1  0  0  3  0  0  0  0  0  0
  185.2420  178.8170  145.0430 C   0  0  0  0  0  2  0  0  0  0  0  0
  183.7930  178.8540  142.6020 C   0  0  0  0  0  2  0  0  0  0  0  0
  183.7150  178.8480  145.1430 C   0  0  0  0  0  2  0  0  0  0  0  0
  188.7980  178.1370  140.2520 C   0  0  0  0  0  2  0  0  0  0  0  0
  187.3230  178.1280  138.3150 C   0  0  0  0  0  0  0  0  0  0  0  0
  188.5140  178.3430  138.8010 C   0  0  0  0  0  3  0  0  0  0  0  0
  186.1930  177.9140  137.8620 O   0  0  0  0  0  0  0  0  0  0  0  0
  1  3  1  1  0  0  0
  1  9  1  0  0  0  0
  2 21  1  6  0  0  0
  2  5  1  0  0  0  0
  4  1  1  0  0  0  0
  4  2  1  0  0  0  0
  6  4  1  0  0  0  0
  7  6  1  0  0  0  0
  7 10  2  0  0  0  0
  9  5  1  0  0  0  0
  9  8  1  0  0  0  0
  9 11  1  0  0  0  0
 10  3  1  0  0  0  0
 11 13  1  0  0  0  0
 12 11  1  0  0  0  0
 13 18  1  0  0  0  0
 13 15  1  0  0  0  0
 13 14  1  0  0  0  0
 15 17  1  0  0  0  0
 15 16  1  0  0  0  0
 18 19  1  0  0  0  0
 19 20  1  0  0  0  0
 21 22  1  0  0  0  0
 23 28  1  0  0  0  0
 24 25  1  0  0  0  0
 25 22  1  0  0  0  0
 25 26  1  0  0  0  0
 26 28  1  0  0  0  0
 27 24  1  0  0  0  0
 27 23  1  0  0  0  0
 29  6  1  0  0  0  0
 30 31  2  0  0  0  0
 31 29  1  0  0  0  0
 32 30  2  0  0  0  0
M  END
>  <MODEL>
4

>  <REMARK>
 VINA RESULT:      -7.2      2.288      5.334
  Name = 
  10 active torsions:
  status: ('A' for Active; 'I' for Inactive)
    1  A    between atoms: C_2  and  O_6
    2  A    between atoms: C_3  and  C_22
    3  A    between atoms: O_6  and  C_17
    4  A    between atoms: C_7  and  O_15
    5  A    between atoms: C_12  and  C_17
    6  A    between atoms: C_14  and  C_29
    7  A    between atoms: O_15  and  C_22
    8  A    between atoms: C_16  and  C_22
    9  A    between atoms: C_16  and  C_27
   10  A    between atoms: C_18  and  C_29
                            x       y       z     vdW  Elec       q    Type
                         _______ _______ _______ _____ _____    ______ ____

>  <TORSDO>
F 10

$$$$
=
 OpenBabel10262421013D

 32 34  0  0  1  0  0  0  0  0999 V2000
  186.9340  177.6670  143.9220 C   0  0  1  0  0  3  0  0  0  0  0  0
  187.6390  178.8420  142.0100 C   0  0  1  0  0  3  0  0  0  0  0  0
  186.4860  177.8600  145.3730 C   0  0  0  0  0  2  0  0  0  0  0  0
  186.6850  178.9240  143.1790 C   0  0  1  0  0  3  0  0  0  0  0  0
  188.7760  178.1350  142.4650 O   0  0  0  0  0  0  0  0  0  0  0  0
  185.1810  179.1730  143.0080 C   0  0  2  0  0  3  0  0  0  0  0  0
  184.5300  179.1070  144.3800 C   0  0  0  0  0  3  0  0  0  0  0  0
  188.4470  175.8930  143.1580 C   0  0  0  0  0  1  0  0  0  0  0  0
  188.3980  177.3520  143.5860 C   0  0  2  0  0  0  0  0  0  0  0  0
  185.0980  178.4760  145.4320 C   0  0  0  0  0  3  0  0  0  0  0  0
  189.4140  177.5300  144.7510 C   0  0  2  0  0  3  0  0  0  0  0  0
  189.4880  178.8760  145.1290 O   0  0  0  0  0  1  0  0  0  0  0  0
  190.8330  176.8660  144.6660 C   0  0  2  0  0  0  0  0  0  0  0  0
  190.7210  175.5900  144.1020 O   0  0  0  0  0  1  0  0  0  0  0  0
  191.4650  176.7230  146.0840 C   0  0  1  0  0  3  0  0  0  0  0  0
  190.4650  176.7640  147.2270 C   0  0  0  0  0  1  0  0  0  0  0  0
  192.1970  175.5400  146.1800 O   0  0  0  0  0  1  0  0  0  0  0  0
  191.6880  177.6180  143.8090 O   0  0  0  0  0  0  0  0  0  0  0  0
  191.8710  176.9590  142.5730 C   0  0  0  0  0  2  0  0  0  0  0  0
  191.8780  177.9000  141.5430 O   0  0  0  0  0  1  0  0  0  0  0  0
  187.0790  178.1620  140.9240 O   0  0  0  0  0  0  0  0  0  0  0  0
  188.1010  178.0890  139.9790 C   0  0  0  0  0  2  0  0  0  0  0  0
  186.0550  177.3030  136.3040 C   0  0  0  0  0  2  0  0  0  0  0  0
  187.9290  177.0490  137.8290 O   0  0  0  0  0  0  0  0  0  0  0  0
  187.5210  178.1690  138.5790 C   0  0  1  0  0  3  0  0  0  0  0  0
  185.9850  178.2720  138.6440 C   0  0  0  0  0  2  0  0  0  0  0  0
  187.5790  177.3270  136.4940 C   0  0  0  0  0  2  0  0  0  0  0  0
  185.3100  177.3320  137.6420 C   0  0  0  0  0  2  0  0  0  0  0  0
  184.5240  178.1350  142.0950 C   0  0  0  0  0  2  0  0  0  0  0  0
  182.2110  178.6140  141.5060 C   0  0  0  0  0  0  0  0  0  0  0  0
  183.4780  178.7440  141.2230 C   0  0  0  0  0  3  0  0  0  0  0  0
  181.0130  178.4790  141.7780 O   0  0  0  0  0  0  0  0  0  0  0  0
  1  3  1  1  0  0  0
  2 21  1  6  0  0  0
  2  5  1  0  0  0  0
  2  4  1  0  0  0  0
  3 10  1  0  0  0  0
  4  1  1  0  0  0  0
  5  9  1  0  0  0  0
  6  4  1  0  0  0  0
  6  7  1  0  0  0  0
  7 10  2  0  0  0  0
  8  9  1  0  0  0  0
  9  1  1  0  0  0  0
  9 11  1  0  0  0  0
 11 12  1  0  0  0  0
 13 11  1  0  0  0  0
 13 15  1  0  0  0  0
 14 13  1  0  0  0  0
 15 17  1  0  0  0  0
 15 16  1  0  0  0  0
 18 13  1  0  0  0  0
 19 18  1  0  0  0  0
 20 19  1  0  0  0  0
 22 21  1  0  0  0  0
 23 27  1  0  0  0  0
 23 28  1  0  0  0  0
 24 25  1  0  0  0  0
 25 26  1  0  0  0  0
 25 22  1  0  0  0  0
 27 24  1  0  0  0  0
 28 26  1  0  0  0  0
 29  6  1  0  0  0  0
 30 32  2  0  0  0  0
 31 30  2  0  0  0  0
 31 29  1  0  0  0  0
M  END
>  <MODEL>
5

>  <REMARK>
 VINA RESULT:      -6.7      1.990      2.349
  Name = 
  10 active torsions:
  status: ('A' for Active; 'I' for Inactive)
    1  A    between atoms: C_2  and  O_6
    2  A    between atoms: C_3  and  C_22
    3  A    between atoms: O_6  and  C_17
    4  A    between atoms: C_7  and  O_15
    5  A    between atoms: C_12  and  C_17
    6  A    between atoms: C_14  and  C_29
    7  A    between atoms: O_15  and  C_22
    8  A    between atoms: C_16  and  C_22
    9  A    between atoms: C_16  and  C_27
   10  A    between atoms: C_18  and  C_29
                            x       y       z     vdW  Elec       q    Type
                         _______ _______ _______ _____ _____    ______ ____

>  <TORSDO>
F 10

$$$$
=
 OpenBabel10262421013D

 32 34  0  0  1  0  0  0  0  0999 V2000
  186.4020  177.6310  144.1460 C   0  0  1  0  0  3  0  0  0  0  0  0
  187.5400  178.8590  142.4930 C   0  0  1  0  0  3  0  0  0  0  0  0
  185.6850  177.7740  145.4900 C   0  0  0  0  0  2  0  0  0  0  0  0
  186.3780  178.9420  143.4560 C   0  0  1  0  0  3  0  0  0  0  0  0
  188.5220  178.0520  143.1140 O   0  0  0  0  0  0  0  0  0  0  0  0
  184.9560  179.3020  143.0110 C   0  0  2  0  0  3  0  0  0  0  0  0
  184.0400  179.2050  144.2200 C   0  0  0  0  0  3  0  0  0  0  0  0
  187.9360  175.8030  143.5750 C   0  0  0  0  0  1  0  0  0  0  0  0
  187.8830  177.2360  144.0840 C   0  0  2  0  0  0  0  0  0  0  0  0
  184.3500  178.4800  145.3180 C   0  0  0  0  0  3  0  0  0  0  0  0
  188.6540  177.2790  145.4340 C   0  0  2  0  0  3  0  0  0  0  0  0
  188.2210  178.3640  146.2060 O   0  0  0  0  0  1  0  0  0  0  0  0
  190.2160  177.1320  145.4540 C   0  0  2  0  0  0  0  0  0  0  0  0
  190.6320  176.3850  144.3460 O   0  0  0  0  0  1  0  0  0  0  0  0
  190.6890  176.4000  146.7470 C   0  0  1  0  0  3  0  0  0  0  0  0
  192.0400  175.7130  146.6250 C   0  0  0  0  0  1  0  0  0  0  0  0
  190.7400  177.2860  147.8230 O   0  0  0  0  0  1  0  0  0  0  0  0
  190.8420  178.4080  145.3440 O   0  0  0  0  0  0  0  0  0  0  0  0
  191.6560  178.4740  144.1920 C   0  0  0  0  0  2  0  0  0  0  0  0
  191.3490  179.6290  143.4730 O   0  0  0  0  0  1  0  0  0  0  0  0
  187.1720  178.2810  141.2750 O   0  0  0  0  0  0  0  0  0  0  0  0
  188.3700  178.0890  140.5900 C   0  0  0  0  0  2  0  0  0  0  0  0
  187.5980  178.5160  136.4030 C   0  0  0  0  0  2  0  0  0  0  0  0
  186.9170  178.5140  138.7350 O   0  0  0  0  0  0  0  0  0  0  0  0
  188.0940  177.8420  139.1180 C   0  0  1  0  0  3  0  0  0  0  0  0
  189.2980  178.2890  138.2680 C   0  0  0  0  0  2  0  0  0  0  0  0
  186.5910  178.0270  137.4550 C   0  0  0  0  0  2  0  0  0  0  0  0
  188.8600  179.0990  137.0460 C   0  0  0  0  0  2  0  0  0  0  0  0
  184.4370  178.3640  141.9180 C   0  0  0  0  0  2  0  0  0  0  0  0
  182.4120  178.2530  140.5710 C   0  0  0  0  0  0  0  0  0  0  0  0
  182.9620  178.4900  141.7300 C   0  0  0  0  0  3  0  0  0  0  0  0
  181.9010  178.0340  139.4670 O   0  0  0  0  0  0  0  0  0  0  0  0
  1  3  1  1  0  0  0
  2 21  1  6  0  0  0
  2  5  1  0  0  0  0
  2  4  1  0  0  0  0
  4  1  1  0  0  0  0
  5  9  1  0  0  0  0
  6  4  1  0  0  0  0
  6  7  1  0  0  0  0
  7 10  2  0  0  0  0
  8  9  1  0  0  0  0
  9  1  1  0  0  0  0
  9 11  1  0  0  0  0
 10  3  1  0  0  0  0
 11 13  1  0  0  0  0
 11 12  1  0  0  0  0
 13 15  1  0  0  0  0
 14 13  1  0  0  0  0
 15 17  1  0  0  0  0
 16 15  1  0  0  0  0
 18 13  1  0  0  0  0
 19 18  1  0  0  0  0
 20 19  1  0  0  0  0
 22 21  1  0  0  0  0
 23 28  1  0  0  0  0
 23 27  1  0  0  0  0
 24 25  1  0  0  0  0
 25 22  1  0  0  0  0
 26 25  1  0  0  0  0
 27 24  1  0  0  0  0
 28 26  1  0  0  0  0
 29  6  1  0  0  0  0
 30 31  2  0  0  0  0
 31 29  1  0  0  0  0
 32 30  2  0  0  0  0
M  END
>  <MODEL>
6

>  <REMARK>
 VINA RESULT:      -6.7      2.289      3.045
  Name = 
  10 active torsions:
  status: ('A' for Active; 'I' for Inactive)
    1  A    between atoms: C_2  and  O_6
    2  A    between atoms: C_3  and  C_22
    3  A    between atoms: O_6  and  C_17
    4  A    between atoms: C_7  and  O_15
    5  A    between atoms: C_12  and  C_17
    6  A    between atoms: C_14  and  C_29
    7  A    between atoms: O_15  and  C_22
    8  A    between atoms: C_16  and  C_22
    9  A    between atoms: C_16  and  C_27
   10  A    between atoms: C_18  and  C_29
                            x       y       z     vdW  Elec       q    Type
                         _______ _______ _______ _____ _____    ______ ____

>  <TORSDO>
F 10

$$$$
=
 OpenBabel10262421013D

 32 34  0  0  1  0  0  0  0  0999 V2000
  189.1260  177.2650  140.7240 C   0  0  1  0  0  3  0  0  0  0  0  0
  187.6300  179.0100  141.2210 C   0  0  1  0  0  3  0  0  0  0  0  0
  190.6110  176.8930  140.7420 C   0  0  0  0  0  2  0  0  0  0  0  0
  188.8990  178.3500  141.7060 C   0  0  1  0  0  3  0  0  0  0  0  0
  187.6270  178.8950  139.8120 O   0  0  0  0  0  0  0  0  0  0  0  0
  189.0730  177.8380  143.1410 C   0  0  2  0  0  3  0  0  0  0  0  0
  190.4310  177.1630  143.2450 C   0  0  0  0  0  3  0  0  0  0  0  0
  187.5730  176.7040  138.9090 C   0  0  0  0  0  1  0  0  0  0  0  0
  188.4680  177.8100  139.4500 C   0  0  2  0  0  0  0  0  0  0  0  0
  191.1010  176.6970  142.1670 C   0  0  0  0  0  3  0  0  0  0  0  0
  189.4400  178.2230  138.3080 C   0  0  2  0  0  3  0  0  0  0  0  0
  189.0500  179.4500  137.7580 O   0  0  0  0  0  1  0  0  0  0  0  0
  189.8390  177.1850  137.2000 C   0  0  2  0  0  0  0  0  0  0  0  0
  191.2320  177.1250  137.0920 O   0  0  0  0  0  1  0  0  0  0  0  0
  189.2550  177.5990  135.8150 C   0  0  1  0  0  3  0  0  0  0  0  0
  189.9250  176.9340  134.6240 C   0  0  0  0  0  1  0  0  0  0  0  0
  187.8870  177.3320  135.7580 O   0  0  0  0  0  1  0  0  0  0  0  0
  189.4000  175.8760  137.5570 O   0  0  0  0  0  0  0  0  0  0  0  0
  190.4790  174.9640  137.5580 C   0  0  0  0  0  2  0  0  0  0  0  0
  189.9830  173.6610  137.5890 O   0  0  0  0  0  1  0  0  0  0  0  0
  186.4870  178.3900  141.7360 O   0  0  0  0  0  0  0  0  0  0  0  0
  185.4190  179.0080  141.0870 C   0  0  0  0  0  2  0  0  0  0  0  0
  182.5760  178.9800  144.2850 C   0  0  0  0  0  2  0  0  0  0  0  0
  183.3000  178.4200  142.0350 O   0  0  0  0  0  0  0  0  0  0  0  0
  184.3400  179.3680  142.0920 C   0  0  1  0  0  3  0  0  0  0  0  0
  184.9390  179.4600  143.5080 C   0  0  0  0  0  2  0  0  0  0  0  0
  182.2400  178.9610  142.7870 C   0  0  0  0  0  2  0  0  0  0  0  0
  184.0670  178.7420  144.5400 C   0  0  0  0  0  2  0  0  0  0  0  0
  187.9870  176.8320  143.5310 C   0  0  0  0  0  2  0  0  0  0  0  0
  188.0900  177.4210  145.8910 C   0  0  0  0  0  0  0  0  0  0  0  0
  187.3570  177.1710  144.8410 C   0  0  0  0  0  3  0  0  0  0  0  0
  188.7910  177.6490  146.8830 O   0  0  0  0  0  0  0  0  0  0  0  0
  1  3  1  6  0  0  0
  1  4  1  0  0  0  0
  2  4  1  0  0  0  0
  2 21  1  1  0  0  0
  3 10  1  0  0  0  0
  4  6  1  0  0  0  0
  5  2  1  0  0  0  0
  6  7  1  0  0  0  0
  6 29  1  0  0  0  0
  8  9  1  0  0  0  0
  9  5  1  0  0  0  0
  9  1  1  0  0  0  0
 10  7  2  0  0  0  0
 11  9  1  0  0  0  0
 12 11  1  0  0  0  0
 13 18  1  0  0  0  0
 13 11  1  0  0  0  0
 14 13  1  0  0  0  0
 15 13  1  0  0  0  0
 16 15  1  0  0  0  0
 17 15  1  0  0  0  0
 18 19  1  0  0  0  0
 19 20  1  0  0  0  0
 22 21  1  0  0  0  0
 22 25  1  0  0  0  0
 23 28  1  0  0  0  0
 24 25  1  0  0  0  0
 24 27  1  0  0  0  0
 25 26  1  0  0  0  0
 26 28  1  0  0  0  0
 27 23  1  0  0  0  0
 29 31  1  0  0  0  0
 30 32  2  0  0  0  0
 31 30  2  0  0  0  0
M  END
>  <MODEL>
7

>  <REMARK>
 VINA RESULT:      -6.6      3.021      5.774
  Name = 
  10 active torsions:
  status: ('A' for Active; 'I' for Inactive)
    1  A    between atoms: C_2  and  O_6
    2  A    between atoms: C_3  and  C_22
    3  A    between atoms: O_6  and  C_17
    4  A    between atoms: C_7  and  O_15
    5  A    between atoms: C_12  and  C_17
    6  A    between atoms: C_14  and  C_29
    7  A    between atoms: O_15  and  C_22
    8  A    between atoms: C_16  and  C_22
    9  A    between atoms: C_16  and  C_27
   10  A    between atoms: C_18  and  C_29
                            x       y       z     vdW  Elec       q    Type
                         _______ _______ _______ _____ _____    ______ ____

>  <TORSDO>
F 10

$$$$
=
 OpenBabel10262421013D

 32 34  0  0  1  0  0  0  0  0999 V2000
  190.4890  177.6100  143.0390 C   0  0  1  0  0  3  0  0  0  0  0  0
  188.4560  176.4520  143.2820 C   0  0  1  0  0  3  0  0  0  0  0  0
  191.9350  177.4440  142.5640 C   0  0  0  0  0  2  0  0  0  0  0  0
  189.6520  176.5890  142.3680 C   0  0  1  0  0  3  0  0  0  0  0  0
  188.9240  176.6820  144.5960 O   0  0  0  0  0  0  0  0  0  0  0  0
  189.5210  176.8850  140.8690 C   0  0  2  0  0  3  0  0  0  0  0  0
  190.9180  177.0390  140.2910 C   0  0  0  0  0  3  0  0  0  0  0  0
  189.8200  178.8260  145.0620 C   0  0  0  0  0  1  0  0  0  0  0  0
  190.1230  177.4370  144.5190 C   0  0  2  0  0  0  0  0  0  0  0  0
  191.9970  177.3350  141.0500 C   0  0  0  0  0  3  0  0  0  0  0  0
  191.2260  176.8150  145.4220 C   0  0  2  0  0  3  0  0  0  0  0  0
  191.7260  175.6430  144.8400 O   0  0  0  0  0  1  0  0  0  0  0  0
  190.9780  176.6440  146.9620 C   0  0  2  0  0  0  0  0  0  0  0  0
  190.7950  175.2900  147.2610 O   0  0  0  0  0  1  0  0  0  0  0  0
  189.7040  177.4240  147.4090 C   0  0  1  0  0  3  0  0  0  0  0  0
  188.5270  176.5410  147.7910 C   0  0  0  0  0  1  0  0  0  0  0  0
  189.9930  178.2650  148.4830 O   0  0  0  0  0  1  0  0  0  0  0  0
  192.1150  177.0770  147.7050 O   0  0  0  0  0  0  0  0  0  0  0  0
  192.7650  175.9820  148.3160 C   0  0  0  0  0  2  0  0  0  0  0  0
  193.6150  176.4490  149.3190 O   0  0  0  0  0  1  0  0  0  0  0  0
  187.4560  177.3810  142.9800 O   0  0  0  0  0  0  0  0  0  0  0  0
  186.9180  177.7450  144.2130 C   0  0  0  0  0  2  0  0  0  0  0  0
  182.9360  179.1570  143.5370 C   0  0  0  0  0  2  0  0  0  0  0  0
  184.9760  178.9960  144.8450 O   0  0  0  0  0  0  0  0  0  0  0  0
  185.4100  177.8810  144.1020 C   0  0  1  0  0  3  0  0  0  0  0  0
  184.9930  177.9950  142.6230 C   0  0  0  0  0  2  0  0  0  0  0  0
  183.5740  178.8970  144.9100 C   0  0  0  0  0  2  0  0  0  0  0  0
  183.9690  179.1110  142.4070 C   0  0  0  0  0  2  0  0  0  0  0  0
  188.7280  178.1660  140.5990 C   0  0  0  0  0  2  0  0  0  0  0  0
  188.0560  177.3180  138.4180 C   0  0  0  0  0  0  0  0  0  0  0  0
  188.4200  178.3360  139.1490 C   0  0  0  0  0  3  0  0  0  0  0  0
  187.7190  176.3470  137.7310 O   0  0  0  0  0  0  0  0  0  0  0  0
  1  3  1  1  0  0  0
  1  9  1  0  0  0  0
  2 21  1  6  0  0  0
  2  5  1  0  0  0  0
  4  1  1  0  0  0  0
  4  2  1  0  0  0  0
  6  4  1  0  0  0  0
  7  6  1  0  0  0  0
  7 10  2  0  0  0  0
  9  5  1  0  0  0  0
  9  8  1  0  0  0  0
  9 11  1  0  0  0  0
 10  3  1  0  0  0  0
 11 13  1  0  0  0  0
 12 11  1  0  0  0  0
 13 14  1  0  0  0  0
 13 15  1  0  0  0  0
 13 18  1  0  0  0  0
 15 16  1  0  0  0  0
 15 17  1  0  0  0  0
 18 19  1  0  0  0  0
 19 20  1  0  0  0  0
 21 22  1  0  0  0  0
 23 27  1  0  0  0  0
 24 27  1  0  0  0  0
 25 22  1  0  0  0  0
 25 24  1  0  0  0  0
 26 25  1  0  0  0  0
 28 26  1  0  0  0  0
 28 23  1  0  0  0  0
 29  6  1  0  0  0  0
 30 31  2  0  0  0  0
 31 29  1  0  0  0  0
 32 30  2  0  0  0  0
M  END
>  <MODEL>
8

>  <REMARK>
 VINA RESULT:      -6.6      2.491      5.452
  Name = 
  10 active torsions:
  status: ('A' for Active; 'I' for Inactive)
    1  A    between atoms: C_2  and  O_6
    2  A    between atoms: C_3  and  C_22
    3  A    between atoms: O_6  and  C_17
    4  A    between atoms: C_7  and  O_15
    5  A    between atoms: C_12  and  C_17
    6  A    between atoms: C_14  and  C_29
    7  A    between atoms: O_15  and  C_22
    8  A    between atoms: C_16  and  C_22
    9  A    between atoms: C_16  and  C_27
   10  A    between atoms: C_18  and  C_29
                            x       y       z     vdW  Elec       q    Type
                         _______ _______ _______ _____ _____    ______ ____

>  <TORSDO>
F 10

$$$$
=
 OpenBabel10262421013D

 32 34  0  0  1  0  0  0  0  0999 V2000
  185.6420  178.1260  140.2980 C   0  0  1  0  0  3  0  0  0  0  0  0
  185.1870  179.1950  142.3430 C   0  0  1  0  0  3  0  0  0  0  0  0
  186.3800  178.3050  138.9690 C   0  0  0  0  0  2  0  0  0  0  0  0
  186.2740  179.0030  141.3100 C   0  0  1  0  0  3  0  0  0  0  0  0
  183.9570  179.1650  141.6450 O   0  0  0  0  0  0  0  0  0  0  0  0
  187.6800  178.5060  141.6680 C   0  0  2  0  0  3  0  0  0  0  0  0
  188.4720  178.3520  140.3800 C   0  0  0  0  0  3  0  0  0  0  0  0
  183.4010  177.1530  140.5250 C   0  0  0  0  0  1  0  0  0  0  0  0
  184.1530  178.4720  140.4230 C   0  0  2  0  0  0  0  0  0  0  0  0
  187.8840  178.2160  139.1700 C   0  0  0  0  0  3  0  0  0  0  0  0
  183.5400  179.2670  139.2340 C   0  0  2  0  0  3  0  0  0  0  0  0
  184.1820  180.5030  139.0930 O   0  0  0  0  0  1  0  0  0  0  0  0
  181.9820  179.3970  139.0950 C   0  0  2  0  0  0  0  0  0  0  0  0
  181.4530  178.2020  138.5960 O   0  0  0  0  0  1  0  0  0  0  0  0
  181.6060  180.5490  138.1130 C   0  0  1  0  0  3  0  0  0  0  0  0
  180.6440  180.1460  137.0080 C   0  0  0  0  0  1  0  0  0  0  0  0
  181.0570  181.6270  138.8070 O   0  0  0  0  0  1  0  0  0  0  0  0
  181.3800  179.6100  140.3700 O   0  0  0  0  0  0  0  0  0  0  0  0
  180.2390  178.7940  140.5320 C   0  0  0  0  0  2  0  0  0  0  0  0
  179.1580  179.5830  140.9240 O   0  0  0  0  0  1  0  0  0  0  0  0
  185.1950  178.1820  143.3060 O   0  0  0  0  0  0  0  0  0  0  0  0
  184.6190  178.7560  144.4380 C   0  0  0  0  0  2  0  0  0  0  0  0
  187.2570  178.3200  147.7780 C   0  0  0  0  0  2  0  0  0  0  0  0
  185.0960  178.8100  146.7840 O   0  0  0  0  0  0  0  0  0  0  0  0
  185.6740  178.9650  145.5090 C   0  0  1  0  0  3  0  0  0  0  0  0
  186.8450  177.9860  145.3010 C   0  0  0  0  0  2  0  0  0  0  0  0
  186.0560  179.2730  147.7040 C   0  0  0  0  0  2  0  0  0  0  0  0
  187.2730  177.3250  146.6130 C   0  0  0  0  0  2  0  0  0  0  0  0
  187.6490  177.1600  142.3950 C   0  0  0  0  0  2  0  0  0  0  0  0
  189.7140  176.6490  143.5810 C   0  0  0  0  0  0  0  0  0  0  0  0
  189.0060  176.5460  142.4890 C   0  0  0  0  0  3  0  0  0  0  0  0
  190.3800  176.7570  144.6160 O   0  0  0  0  0  0  0  0  0  0  0  0
  1  3  1  6  0  0  0
  1  9  1  0  0  0  0
  1  4  1  0  0  0  0
  2 21  1  1  0  0  0
  3 10  1  0  0  0  0
  4  6  1  0  0  0  0
  4  2  1  0  0  0  0
  5  2  1  0  0  0  0
  6 29  1  0  0  0  0
  7  6  1  0  0  0  0
  9  8  1  0  0  0  0
  9  5  1  0  0  0  0
 10  7  2  0  0  0  0
 11  9  1  0  0  0  0
 12 11  1  0  0  0  0
 13 11  1  0  0  0  0
 13 18  1  0  0  0  0
 14 13  1  0  0  0  0
 15 17  1  0  0  0  0
 15 13  1  0  0  0  0
 16 15  1  0  0  0  0
 18 19  1  0  0  0  0
 19 20  1  0  0  0  0
 21 22  1  0  0  0  0
 22 25  1  0  0  0  0
 24 27  1  0  0  0  0
 25 24  1  0  0  0  0
 26 25  1  0  0  0  0
 26 28  1  0  0  0  0
 27 23  1  0  0  0  0
 28 23  1  0  0  0  0
 29 31  1  0  0  0  0
 30 32  2  0  0  0  0
 31 30  2  0  0  0  0
M  END
>  <MODEL>
9

>  <REMARK>
 VINA RESULT:      -6.5      1.979      8.384
  Name = 
  10 active torsions:
  status: ('A' for Active; 'I' for Inactive)
    1  A    between atoms: C_2  and  O_6
    2  A    between atoms: C_3  and  C_22
    3  A    between atoms: O_6  and  C_17
    4  A    between atoms: C_7  and  O_15
    5  A    between atoms: C_12  and  C_17
    6  A    between atoms: C_14  and  C_29
    7  A    between atoms: O_15  and  C_22
    8  A    between atoms: C_16  and  C_22
    9  A    between atoms: C_16  and  C_27
   10  A    between atoms: C_18  and  C_29
                            x       y       z     vdW  Elec       q    Type
                         _______ _______ _______ _____ _____    ______ ____

>  <TORSDO>
F 10

$$$$
