=
 OpenBabel10262421253D

 32 37  0  0  1  0  0  0  0  0999 V2000
  186.8380  173.5390  135.7200 C   0  0  0  0  0  0  0  0  0  0  0  0
  189.9120  173.9590  137.6000 O   0  0  0  0  0  0  0  0  0  0  0  0
  188.5690  178.5830  138.7680 C   0  0  0  0  0  3  0  0  0  0  0  0
  190.8370  176.6840  143.9620 C   0  0  0  0  0  2  0  0  0  0  0  0
  189.3600  176.3040  144.0640 C   0  0  0  0  0  2  0  0  0  0  0  0
  189.7920  176.9950  137.2820 C   0  0  0  0  0  0  0  0  0  0  0  0
  190.8230  176.5810  139.5340 C   0  0  0  0  0  3  0  0  0  0  0  0
  187.8310  173.1460  136.6050 C   0  0  0  0  0  3  0  0  0  0  0  0
  190.9960  174.8830  137.6790 C   0  0  0  0  0  2  0  0  0  0  0  0
  191.2610  176.7110  142.4960 C   0  0  0  0  0  2  0  0  0  0  0  0
  190.1540  177.4450  140.3070 C   0  0  0  0  0  0  0  0  0  0  0  0
  190.3200  177.5160  141.7200 N   0  0  0  0  0  0  0  0  0  0  0  0
  188.2870  178.5320  141.1860 N   0  0  0  0  0  0  0  0  0  0  0  0
  187.1510  175.0760  135.1160 S   0  0  0  0  0  0  0  0  0  0  0  0
  188.5760  175.2810  135.9840 C   0  0  0  0  0  0  0  0  0  0  0  0
  185.7080  172.7500  135.3710 N   0  0  0  0  0  1  0  0  0  0  0  0
  190.5180  176.2300  138.1280 C   0  0  0  0  0  0  0  0  0  0  0  0
  189.4450  176.4960  135.9090 C   0  0  0  0  0  2  0  0  0  0  0  0
  188.8150  174.1330  136.7460 C   0  0  0  0  0  0  0  0  0  0  0  0
  188.4280  177.2530  143.2870 C   0  0  0  0  0  2  0  0  0  0  0  0
  189.1570  178.1870  142.3110 C   0  0  1  0  0  3  0  0  0  0  0  0
  189.4490  178.4200  137.5730 C   0  0  0  0  0  2  0  0  0  0  0  0
  188.9350  178.1550  139.9740 C   0  0  0  0  0  0  0  0  0  0  0  0
  187.1570  179.4510  141.2840 C   0  0  0  0  0  2  0  0  0  0  0  0
  185.2420  178.9890  142.8210 C   0  0  0  0  0  2  0  0  0  0  0  0
  183.8030  178.5640  142.9520 C   0  0  0  0  0  0  0  0  0  0  0  0
  184.8610  179.0660  140.3450 C   0  0  2  0  0  3  0  0  0  0  0  0
  183.6030  178.2150  140.4920 C   0  0  0  0  0  2  0  0  0  0  0  0
  183.0500  178.2700  141.8890 C   0  0  0  0  0  3  0  0  0  0  0  0
  183.2240  178.5440  144.2130 O   0  0  0  0  0  1  0  0  0  0  0  0
  185.4210  178.8270  139.0890 O   0  0  0  0  0  1  0  0  0  0  0  0
  185.8480  178.6850  141.4470 C   0  0  1  0  0  3  0  0  0  0  0  0
  1  8  2  0  0  0  0
  2  9  1  0  0  0  0
  3 23  2  0  0  0  0
  4  5  1  0  0  0  0
  6 22  1  0  0  0  0
  6 17  2  0  0  0  0
  7 11  2  0  0  0  0
  8 19  1  0  0  0  0
  9 17  1  0  0  0  0
 10  4  1  0  0  0  0
 11 12  1  0  0  0  0
 12 21  1  0  0  0  0
 12 10  1  0  0  0  0
 13 24  1  0  0  0  0
 13 21  1  0  0  0  0
 14  1  1  0  0  0  0
 14 15  1  0  0  0  0
 15 19  2  0  0  0  0
 16  1  1  0  0  0  0
 17  7  1  0  0  0  0
 18 15  1  0  0  0  0
 18  6  1  0  0  0  0
 19  2  1  0  0  0  0
 20  5  1  0  0  0  0
 21 20  1  1  0  0  0
 22  3  1  0  0  0  0
 23 11  1  0  0  0  0
 23 13  1  0  0  0  0
 25 26  1  0  0  0  0
 26 30  1  0  0  0  0
 27 31  1  6  0  0  0
 27 28  1  0  0  0  0
 27 32  1  0  0  0  0
 28 29  1  0  0  0  0
 29 26  2  0  0  0  0
 32 24  1  6  0  0  0
 32 25  1  0  0  0  0
M  END
>  <MODEL>
1

>  <REMARK>
 VINA RESULT:      -8.3      0.000      0.000
  Name = 
  2 active torsions:
  status: ('A' for Active; 'I' for Inactive)
    1  A    between atoms: N_16  and  C_27
    2  A    between atoms: C_27  and  C_32
                            x       y       z     vdW  Elec       q    Type
                         _______ _______ _______ _____ _____    ______ ____

>  <TORSDO>
F 2

$$$$
=
 OpenBabel10262421253D

 32 37  0  0  1  0  0  0  0  0999 V2000
  183.3050  173.5970  136.7950 C   0  0  0  0  0  0  0  0  0  0  0  0
  186.8940  173.8860  137.2300 O   0  0  0  0  0  0  0  0  0  0  0  0
  186.3380  178.5750  138.7320 C   0  0  0  0  0  3  0  0  0  0  0  0
  190.4680  176.6050  142.5770 C   0  0  0  0  0  2  0  0  0  0  0  0
  189.1510  176.2950  143.2870 C   0  0  0  0  0  2  0  0  0  0  0  0
  186.7740  176.9220  136.9140 C   0  0  0  0  0  0  0  0  0  0  0  0
  188.6250  176.4750  138.5520 C   0  0  0  0  0  3  0  0  0  0  0  0
  184.5570  173.1640  137.2020 C   0  0  0  0  0  3  0  0  0  0  0  0
  187.9500  174.7580  136.8330 C   0  0  0  0  0  2  0  0  0  0  0  0
  190.2510  176.6040  141.0660 C   0  0  0  0  0  2  0  0  0  0  0  0
  188.3700  177.3740  139.5100 C   0  0  0  0  0  0  0  0  0  0  0  0
  189.1070  177.4460  140.7260 N   0  0  0  0  0  0  0  0  0  0  0  0
  187.0760  178.5530  141.0520 N   0  0  0  0  0  0  0  0  0  0  0  0
  183.4010  175.1140  136.0770 S   0  0  0  0  0  0  0  0  0  0  0  0
  185.0640  175.2580  136.2760 C   0  0  0  0  0  0  0  0  0  0  0  0
  182.1000  172.8590  136.9620 N   0  0  0  0  0  1  0  0  0  0  0  0
  187.7530  176.1290  137.4050 C   0  0  0  0  0  0  0  0  0  0  0  0
  185.8720  176.4310  135.8190 C   0  0  0  0  0  2  0  0  0  0  0  0
  185.5500  174.1050  136.9010 C   0  0  0  0  0  0  0  0  0  0  0  0
  188.0210  177.2810  142.9400 C   0  0  0  0  0  2  0  0  0  0  0  0
  188.3190  178.1740  141.7270 C   0  0  1  0  0  3  0  0  0  0  0  0
  186.6380  178.3630  137.2860 C   0  0  0  0  0  2  0  0  0  0  0  0
  187.1510  178.1380  139.6900 C   0  0  0  0  0  0  0  0  0  0  0  0
  186.1250  179.5230  141.5840 C   0  0  0  0  0  2  0  0  0  0  0  0
  185.1140  179.2620  143.8540 C   0  0  0  0  0  2  0  0  0  0  0  0
  183.8900  178.9070  144.6570 C   0  0  0  0  0  0  0  0  0  0  0  0
  183.6520  179.1610  141.8200 C   0  0  2  0  0  3  0  0  0  0  0  0
  182.5960  178.3760  142.5940 C   0  0  0  0  0  2  0  0  0  0  0  0
  182.7360  178.5620  144.0790 C   0  0  0  0  0  3  0  0  0  0  0  0
  183.9450  179.0100  146.0400 O   0  0  0  0  0  1  0  0  0  0  0  0
  183.5820  178.8020  140.4730 O   0  0  0  0  0  1  0  0  0  0  0  0
  185.0310  178.8270  142.3870 C   0  0  1  0  0  3  0  0  0  0  0  0
  1 16  1  0  0  0  0
  1  8  2  0  0  0  0
  3 23  2  0  0  0  0
  4  5  1  0  0  0  0
  6 22  1  0  0  0  0
  6 17  2  0  0  0  0
  7 11  2  0  0  0  0
  9  2  1  0  0  0  0
  9 17  1  0  0  0  0
 10  4  1  0  0  0  0
 11 23  1  0  0  0  0
 11 12  1  0  0  0  0
 12 10  1  0  0  0  0
 12 21  1  0  0  0  0
 13 24  1  0  0  0  0
 13 21  1  0  0  0  0
 14 15  1  0  0  0  0
 14  1  1  0  0  0  0
 15 19  2  0  0  0  0
 17  7  1  0  0  0  0
 18 15  1  0  0  0  0
 18  6  1  0  0  0  0
 19  8  1  0  0  0  0
 19  2  1  0  0  0  0
 20  5  1  0  0  0  0
 21 20  1  1  0  0  0
 22  3  1  0  0  0  0
 23 13  1  0  0  0  0
 25 26  1  0  0  0  0
 26 30  1  0  0  0  0
 27 31  1  6  0  0  0
 27 32  1  0  0  0  0
 27 28  1  0  0  0  0
 28 29  1  0  0  0  0
 29 26  2  0  0  0  0
 32 24  1  6  0  0  0
 32 25  1  0  0  0  0
M  END
>  <MODEL>
2

>  <REMARK>
 VINA RESULT:      -8.0      2.058      2.469
  Name = 
  2 active torsions:
  status: ('A' for Active; 'I' for Inactive)
    1  A    between atoms: N_16  and  C_27
    2  A    between atoms: C_27  and  C_32
                            x       y       z     vdW  Elec       q    Type
                         _______ _______ _______ _____ _____    ______ ____

>  <TORSDO>
F 2

$$$$
=
 OpenBabel10262421253D

 32 37  0  0  1  0  0  0  0  0999 V2000
  186.6330  172.9190  135.7970 C   0  0  0  0  0  0  0  0  0  0  0  0
  189.4580  174.3140  137.5940 O   0  0  0  0  0  0  0  0  0  0  0  0
  186.8800  178.4610  138.4330 C   0  0  0  0  0  3  0  0  0  0  0  0
  189.5510  177.6630  143.7200 C   0  0  0  0  0  2  0  0  0  0  0  0
  188.2370  176.8980  143.8720 C   0  0  0  0  0  2  0  0  0  0  0  0
  188.5050  177.1650  137.0520 C   0  0  0  0  0  0  0  0  0  0  0  0
  189.5950  177.2250  139.3130 C   0  0  0  0  0  3  0  0  0  0  0  0
  187.6900  172.8840  136.6940 C   0  0  0  0  0  3  0  0  0  0  0  0
  190.2440  175.5040  137.5880 C   0  0  0  0  0  2  0  0  0  0  0  0
  189.9610  177.6950  142.2510 C   0  0  0  0  0  2  0  0  0  0  0  0
  188.7080  177.9260  140.0290 C   0  0  0  0  0  0  0  0  0  0  0  0
  188.8390  178.1470  141.4300 N   0  0  0  0  0  0  0  0  0  0  0  0
  186.6070  178.5180  140.8520 N   0  0  0  0  0  0  0  0  0  0  0  0
  186.5120  174.4310  135.0750 S   0  0  0  0  0  0  0  0  0  0  0  0
  187.8180  175.0880  135.9040 C   0  0  0  0  0  0  0  0  0  0  0  0
  185.7670  171.8230  135.5250 N   0  0  0  0  0  1  0  0  0  0  0  0
  189.4080  176.6970  137.9420 C   0  0  0  0  0  0  0  0  0  0  0  0
  188.3170  176.4870  135.7250 C   0  0  0  0  0  2  0  0  0  0  0  0
  188.3610  174.1120  136.7460 C   0  0  0  0  0  0  0  0  0  0  0  0
  187.0830  177.4910  143.0410 C   0  0  0  0  0  2  0  0  0  0  0  0
  187.5320  178.5130  141.9870 C   0  0  1  0  0  3  0  0  0  0  0  0
  187.7780  178.4570  137.2410 C   0  0  0  0  0  2  0  0  0  0  0  0
  187.3420  178.2440  139.6620 C   0  0  0  0  0  0  0  0  0  0  0  0
  185.2670  179.0930  140.8980 C   0  0  0  0  0  2  0  0  0  0  0  0
  183.5590  177.3330  140.4170 C   0  0  0  0  0  2  0  0  0  0  0  0
  182.4150  176.8900  139.5420 C   0  0  0  0  0  0  0  0  0  0  0  0
  183.4430  179.5390  139.2310 C   0  0  2  0  0  3  0  0  0  0  0  0
  182.6360  178.9100  138.0990 C   0  0  0  0  0  2  0  0  0  0  0  0
  181.9650  177.6360  138.5290 C   0  0  0  0  0  3  0  0  0  0  0  0
  181.7660  175.7010  139.8430 O   0  0  0  0  0  1  0  0  0  0  0  0
  184.1810  180.6070  138.7190 O   0  0  0  0  0  1  0  0  0  0  0  0
  184.3770  178.4820  139.8200 C   0  0  1  0  0  3  0  0  0  0  0  0
  1  8  2  0  0  0  0
  3 23  2  0  0  0  0
  4  5  1  0  0  0  0
  6 22  1  0  0  0  0
  6 17  2  0  0  0  0
  7 11  2  0  0  0  0
  8 19  1  0  0  0  0
  9  2  1  0  0  0  0
  9 17  1  0  0  0  0
 10  4  1  0  0  0  0
 11 12  1  0  0  0  0
 12 21  1  0  0  0  0
 12 10  1  0  0  0  0
 13 24  1  0  0  0  0
 13 21  1  0  0  0  0
 14  1  1  0  0  0  0
 14 15  1  0  0  0  0
 15 19  2  0  0  0  0
 16  1  1  0  0  0  0
 17  7  1  0  0  0  0
 18 15  1  0  0  0  0
 18  6  1  0  0  0  0
 19  2  1  0  0  0  0
 20  5  1  0  0  0  0
 21 20  1  1  0  0  0
 22  3  1  0  0  0  0
 23 11  1  0  0  0  0
 23 13  1  0  0  0  0
 26 30  1  0  0  0  0
 26 25  1  0  0  0  0
 27 31  1  6  0  0  0
 27 32  1  0  0  0  0
 28 29  1  0  0  0  0
 28 27  1  0  0  0  0
 29 26  2  0  0  0  0
 32 25  1  0  0  0  0
 32 24  1  1  0  0  0
M  END
>  <MODEL>
3

>  <REMARK>
 VINA RESULT:      -7.5      1.579      2.041
  Name = 
  2 active torsions:
  status: ('A' for Active; 'I' for Inactive)
    1  A    between atoms: N_16  and  C_27
    2  A    between atoms: C_27  and  C_32
                            x       y       z     vdW  Elec       q    Type
                         _______ _______ _______ _____ _____    ______ ____

>  <TORSDO>
F 2

$$$$
=
 OpenBabel10262421253D

 32 37  0  0  1  0  0  0  0  0999 V2000
  181.0090  175.2600  139.3870 C   0  0  0  0  0  0  0  0  0  0  0  0
  183.6200  177.5520  138.3440 O   0  0  0  0  0  0  0  0  0  0  0  0
  184.9380  178.2080  143.0750 C   0  0  0  0  0  3  0  0  0  0  0  0
  190.2800  177.8640  140.4170 C   0  0  0  0  0  2  0  0  0  0  0  0
  189.9730  176.4110  140.7770 C   0  0  0  0  0  2  0  0  0  0  0  0
  183.6270  178.9210  141.0750 C   0  0  0  0  0  0  0  0  0  0  0  0
  186.0010  178.9990  140.2620 C   0  0  0  0  0  3  0  0  0  0  0  0
  182.0600  175.6840  138.5880 C   0  0  0  0  0  3  0  0  0  0  0  0
  184.0660  178.8710  138.6510 C   0  0  0  0  0  2  0  0  0  0  0  0
  188.9760  178.6320  140.2190 C   0  0  0  0  0  2  0  0  0  0  0  0
  186.6800  178.6180  141.3510 C   0  0  0  0  0  0  0  0  0  0  0  0
  188.0890  178.4100  141.3580 N   0  0  0  0  0  0  0  0  0  0  0  0
  187.1900  177.2930  143.2020 N   0  0  0  0  0  0  0  0  0  0  0  0
  180.6770  176.3900  140.5870 S   0  0  0  0  0  0  0  0  0  0  0  0
  181.8860  177.4570  140.1130 C   0  0  0  0  0  0  0  0  0  0  0  0
  180.3060  174.0350  139.2160 N   0  0  0  0  0  1  0  0  0  0  0  0
  184.5330  178.9590  140.0730 C   0  0  0  0  0  0  0  0  0  0  0  0
  182.1630  178.7690  140.7760 C   0  0  0  0  0  2  0  0  0  0  0  0
  182.5480  176.9310  138.9990 C   0  0  0  0  0  0  0  0  0  0  0  0
  189.1040  176.2630  142.0400 C   0  0  0  0  0  2  0  0  0  0  0  0
  188.4490  177.5710  142.5060 C   0  0  1  0  0  3  0  0  0  0  0  0
  183.9840  179.2010  142.4990 C   0  0  0  0  0  2  0  0  0  0  0  0
  186.1400  177.9980  142.5450 C   0  0  0  0  0  0  0  0  0  0  0  0
  187.1120  176.7280  144.5450 C   0  0  0  0  0  2  0  0  0  0  0  0
  186.3580  178.3710  146.2710 C   0  0  0  0  0  2  0  0  0  0  0  0
  186.6960  179.1200  147.5330 C   0  0  0  0  0  0  0  0  0  0  0  0
  188.4700  177.0700  146.6290 C   0  0  2  0  0  3  0  0  0  0  0  0
  188.9830  178.1310  147.5980 C   0  0  0  0  0  2  0  0  0  0  0  0
  187.8650  178.9630  148.1610 C   0  0  0  0  0  3  0  0  0  0  0  0
  185.7350  179.9460  148.0980 O   0  0  0  0  0  1  0  0  0  0  0  0
  189.5620  176.4600  146.0100 O   0  0  0  0  0  1  0  0  0  0  0  0
  187.5760  177.7410  145.5870 C   0  0  1  0  0  3  0  0  0  0  0  0
  1 14  1  0  0  0  0
  2  9  1  0  0  0  0
  2 19  1  0  0  0  0
  4  5  1  0  0  0  0
  5 20  1  0  0  0  0
  6 22  1  0  0  0  0
  7 11  2  0  0  0  0
  8 19  1  0  0  0  0
  8  1  2  0  0  0  0
  9 17  1  0  0  0  0
 10  4  1  0  0  0  0
 10 12  1  0  0  0  0
 11 12  1  0  0  0  0
 11 23  1  0  0  0  0
 12 21  1  0  0  0  0
 13 24  1  0  0  0  0
 15 14  1  0  0  0  0
 15 18  1  0  0  0  0
 16  1  1  0  0  0  0
 17  7  1  0  0  0  0
 17  6  2  0  0  0  0
 18  6  1  0  0  0  0
 19 15  2  0  0  0  0
 21 20  1  6  0  0  0
 21 13  1  0  0  0  0
 22  3  1  0  0  0  0
 23  3  2  0  0  0  0
 23 13  1  0  0  0  0
 25 26  1  0  0  0  0
 26 30  1  0  0  0  0
 26 29  2  0  0  0  0
 27 31  1  6  0  0  0
 27 28  1  0  0  0  0
 28 29  1  0  0  0  0
 32 24  1  6  0  0  0
 32 25  1  0  0  0  0
 32 27  1  0  0  0  0
M  END
>  <MODEL>
4

>  <REMARK>
 VINA RESULT:      -7.2      3.595      6.153
  Name = 
  2 active torsions:
  status: ('A' for Active; 'I' for Inactive)
    1  A    between atoms: N_16  and  C_27
    2  A    between atoms: C_27  and  C_32
                            x       y       z     vdW  Elec       q    Type
                         _______ _______ _______ _____ _____    ______ ____

>  <TORSDO>
F 2

$$$$
=
 OpenBabel10262421253D

 32 37  0  0  1  0  0  0  0  0999 V2000
  188.4490  176.5630  142.9630 C   0  0  0  0  0  0  0  0  0  0  0  0
  185.1260  177.8650  143.6110 O   0  0  0  0  0  0  0  0  0  0  0  0
  184.2120  177.9650  138.7420 C   0  0  0  0  0  3  0  0  0  0  0  0
  179.0190  175.8940  140.8570 C   0  0  0  0  0  2  0  0  0  0  0  0
  179.8290  174.6230  140.6080 C   0  0  0  0  0  2  0  0  0  0  0  0
  184.9760  179.1080  140.8250 C   0  0  0  0  0  0  0  0  0  0  0  0
  182.6340  178.3990  141.3860 C   0  0  0  0  0  3  0  0  0  0  0  0
  187.2330  176.6230  143.6270 C   0  0  0  0  0  3  0  0  0  0  0  0
  184.3060  178.9530  143.1900 C   0  0  0  0  0  2  0  0  0  0  0  0
  179.9640  177.0570  141.1460 C   0  0  0  0  0  2  0  0  0  0  0  0
  182.2480  177.7950  140.2560 C   0  0  0  0  0  0  0  0  0  0  0  0
  180.9980  177.1280  140.1160 N   0  0  0  0  0  0  0  0  0  0  0  0
  182.4190  176.3470  138.4360 N   0  0  0  0  0  0  0  0  0  0  0  0
  188.5220  177.7190  141.7450 S   0  0  0  0  0  0  0  0  0  0  0  0
  186.9820  178.3270  142.0360 C   0  0  0  0  0  0  0  0  0  0  0  0
  189.4930  175.6470  143.2690 N   0  0  0  0  0  1  0  0  0  0  0  0
  184.0000  178.8560  141.7260 C   0  0  0  0  0  0  0  0  0  0  0  0
  186.3630  179.4590  141.2790 C   0  0  0  0  0  2  0  0  0  0  0  0
  186.4100  177.6270  143.1030 C   0  0  0  0  0  0  0  0  0  0  0  0
  180.8350  174.7530  139.4500 C   0  0  0  0  0  2  0  0  0  0  0  0
  181.0690  176.1970  138.9840 C   0  0  1  0  0  3  0  0  0  0  0  0
  184.7100  179.2290  139.3590 C   0  0  0  0  0  2  0  0  0  0  0  0
  183.0950  177.3730  139.1580 C   0  0  0  0  0  0  0  0  0  0  0  0
  182.8320  175.8190  137.1400 C   0  0  0  0  0  2  0  0  0  0  0  0
  183.0340  173.3300  137.0460 C   0  0  0  0  0  2  0  0  0  0  0  0
  183.9420  172.1430  136.8560 C   0  0  0  0  0  0  0  0  0  0  0  0
  184.9730  174.7620  136.3620 C   0  0  2  0  0  3  0  0  0  0  0  0
  185.9410  173.6140  136.6300 C   0  0  0  0  0  2  0  0  0  0  0  0
  185.2480  172.2810  136.6110 C   0  0  0  0  0  3  0  0  0  0  0  0
  183.3900  170.8700  136.8680 O   0  0  0  0  0  1  0  0  0  0  0  0
  185.6390  175.9710  136.5740 O   0  0  0  0  0  1  0  0  0  0  0  0
  183.7830  174.6390  137.3130 C   0  0  1  0  0  3  0  0  0  0  0  0
  1 16  1  0  0  0  0
  1  8  2  0  0  0  0
  3 23  2  0  0  0  0
  3 22  1  0  0  0  0
  4 10  1  0  0  0  0
  5  4  1  0  0  0  0
  6 18  1  0  0  0  0
  6 17  2  0  0  0  0
  7 17  1  0  0  0  0
  9  2  1  0  0  0  0
 11  7  2  0  0  0  0
 12 11  1  0  0  0  0
 12 10  1  0  0  0  0
 13 21  1  0  0  0  0
 13 23  1  0  0  0  0
 14 15  1  0  0  0  0
 14  1  1  0  0  0  0
 15 19  2  0  0  0  0
 17  9  1  0  0  0  0
 18 15  1  0  0  0  0
 19  2  1  0  0  0  0
 19  8  1  0  0  0  0
 20  5  1  0  0  0  0
 21 20  1  1  0  0  0
 21 12  1  0  0  0  0
 22  6  1  0  0  0  0
 23 11  1  0  0  0  0
 24 13  1  0  0  0  0
 25 32  1  0  0  0  0
 26 30  1  0  0  0  0
 26 25  1  0  0  0  0
 27 31  1  1  0  0  0
 27 28  1  0  0  0  0
 27 32  1  0  0  0  0
 29 28  1  0  0  0  0
 29 26  2  0  0  0  0
 32 24  1  6  0  0  0
M  END
>  <MODEL>
5

>  <REMARK>
 VINA RESULT:      -7.0      3.554      8.085
  Name = 
  2 active torsions:
  status: ('A' for Active; 'I' for Inactive)
    1  A    between atoms: N_16  and  C_27
    2  A    between atoms: C_27  and  C_32
                            x       y       z     vdW  Elec       q    Type
                         _______ _______ _______ _____ _____    ______ ____

>  <TORSDO>
F 2

$$$$
=
 OpenBabel10262421253D

 32 37  0  0  1  0  0  0  0  0999 V2000
  184.0080  174.6470  137.2900 C   0  0  0  0  0  0  0  0  0  0  0  0
  186.9880  176.7150  137.2580 O   0  0  0  0  0  0  0  0  0  0  0  0
  186.0610  178.1300  141.9150 C   0  0  0  0  0  3  0  0  0  0  0  0
  191.9780  177.3090  142.1050 C   0  0  0  0  0  2  0  0  0  0  0  0
  191.4210  175.9380  142.4850 C   0  0  0  0  0  2  0  0  0  0  0  0
  185.8670  178.5150  139.4570 C   0  0  0  0  0  0  0  0  0  0  0  0
  188.3480  178.4390  139.8310 C   0  0  0  0  0  3  0  0  0  0  0  0
  185.3380  174.9250  137.0170 C   0  0  0  0  0  3  0  0  0  0  0  0
  187.3540  178.0630  137.5450 C   0  0  0  0  0  2  0  0  0  0  0  0
  190.9760  178.0440  141.2200 C   0  0  0  0  0  2  0  0  0  0  0  0
  188.4230  178.2360  141.1520 C   0  0  0  0  0  0  0  0  0  0  0  0
  189.6520  178.0210  141.8390 N   0  0  0  0  0  0  0  0  0  0  0  0
  187.9240  177.2300  143.1970 N   0  0  0  0  0  0  0  0  0  0  0  0
  183.2620  175.9620  138.0270 S   0  0  0  0  0  0  0  0  0  0  0  0
  184.6380  176.9270  138.0180 C   0  0  0  0  0  0  0  0  0  0  0  0
  183.3600  173.4170  136.9900 N   0  0  0  0  0  1  0  0  0  0  0  0
  187.1300  178.3800  138.9930 C   0  0  0  0  0  0  0  0  0  0  0  0
  184.6920  178.3270  138.5410 C   0  0  0  0  0  2  0  0  0  0  0  0
  185.6880  176.2180  137.4250 C   0  0  0  0  0  0  0  0  0  0  0  0
  190.0640  176.0070  143.2110 C   0  0  0  0  0  2  0  0  0  0  0  0
  189.3800  177.3790  143.1300 C   0  0  1  0  0  3  0  0  0  0  0  0
  185.5600  179.0220  140.8280 C   0  0  0  0  0  2  0  0  0  0  0  0
  187.3510  177.8260  142.0360 C   0  0  0  0  0  0  0  0  0  0  0  0
  187.1970  176.8950  144.4170 C   0  0  0  0  0  2  0  0  0  0  0  0
  186.4000  178.5250  146.1350 C   0  0  0  0  0  2  0  0  0  0  0  0
  186.6480  179.1700  147.4730 C   0  0  0  0  0  0  0  0  0  0  0  0
  188.3040  176.9840  146.6690 C   0  0  2  0  0  3  0  0  0  0  0  0
  188.7940  177.9350  147.7570 C   0  0  0  0  0  2  0  0  0  0  0  0
  187.7040  178.8560  148.2280 C   0  0  0  0  0  3  0  0  0  0  0  0
  185.7120  180.0680  147.9660 O   0  0  0  0  0  1  0  0  0  0  0  0
  189.3990  176.2900  146.1520 O   0  0  0  0  0  1  0  0  0  0  0  0
  187.6250  177.7990  145.5680 C   0  0  1  0  0  3  0  0  0  0  0  0
  1 14  1  0  0  0  0
  2 19  1  0  0  0  0
  2  9  1  0  0  0  0
  3 23  2  0  0  0  0
  4  5  1  0  0  0  0
  5 20  1  0  0  0  0
  6 22  1  0  0  0  0
  7 11  2  0  0  0  0
  8  1  2  0  0  0  0
  8 19  1  0  0  0  0
  9 17  1  0  0  0  0
 10 12  1  0  0  0  0
 10  4  1  0  0  0  0
 11 12  1  0  0  0  0
 11 23  1  0  0  0  0
 12 21  1  0  0  0  0
 13 24  1  0  0  0  0
 15 14  1  0  0  0  0
 15 18  1  0  0  0  0
 16  1  1  0  0  0  0
 17  6  2  0  0  0  0
 17  7  1  0  0  0  0
 18  6  1  0  0  0  0
 19 15  2  0  0  0  0
 21 13  1  0  0  0  0
 21 20  1  6  0  0  0
 22  3  1  0  0  0  0
 23 13  1  0  0  0  0
 25 26  1  0  0  0  0
 26 30  1  0  0  0  0
 26 29  2  0  0  0  0
 27 31  1  6  0  0  0
 27 28  1  0  0  0  0
 28 29  1  0  0  0  0
 32 24  1  6  0  0  0
 32 25  1  0  0  0  0
 32 27  1  0  0  0  0
M  END
>  <MODEL>
6

>  <REMARK>
 VINA RESULT:      -6.8      2.944      4.561
  Name = 
  2 active torsions:
  status: ('A' for Active; 'I' for Inactive)
    1  A    between atoms: N_16  and  C_27
    2  A    between atoms: C_27  and  C_32
                            x       y       z     vdW  Elec       q    Type
                         _______ _______ _______ _____ _____    ______ ____

>  <TORSDO>
F 2

$$$$
=
 OpenBabel10262421253D

 32 37  0  0  1  0  0  0  0  0999 V2000
  187.2080  173.8260  135.9850 C   0  0  0  0  0  0  0  0  0  0  0  0
  189.7920  176.1290  137.0680 O   0  0  0  0  0  0  0  0  0  0  0  0
  186.8770  177.6630  140.7700 C   0  0  0  0  0  3  0  0  0  0  0  0
  192.1750  177.3420  143.5190 C   0  0  0  0  0  2  0  0  0  0  0  0
  191.5860  175.9470  143.7270 C   0  0  0  0  0  2  0  0  0  0  0  0
  187.7370  177.9230  138.4410 C   0  0  0  0  0  0  0  0  0  0  0  0
  189.8170  178.0680  139.8400 C   0  0  0  0  0  3  0  0  0  0  0  0
  188.5090  174.2000  136.2830 C   0  0  0  0  0  3  0  0  0  0  0  0
  189.9230  177.5130  137.3830 C   0  0  0  0  0  2  0  0  0  0  0  0
  191.6100  177.9530  142.2390 C   0  0  0  0  0  2  0  0  0  0  0  0
  189.3280  177.9300  141.0780 C   0  0  0  0  0  0  0  0  0  0  0  0
  190.1530  177.8470  142.2360 N   0  0  0  0  0  0  0  0  0  0  0  0
  188.0570  176.9760  142.7860 N   0  0  0  0  0  0  0  0  0  0  0  0
  186.1460  175.1050  136.2340 S   0  0  0  0  0  0  0  0  0  0  0  0
  187.3360  176.1780  136.7400 C   0  0  0  0  0  0  0  0  0  0  0  0
  186.8220  172.5340  135.5300 N   0  0  0  0  0  1  0  0  0  0  0  0
  189.0810  177.8730  138.5700 C   0  0  0  0  0  0  0  0  0  0  0  0
  187.0820  177.6000  137.1300 C   0  0  0  0  0  2  0  0  0  0  0  0
  188.5770  175.5340  136.7030 C   0  0  0  0  0  0  0  0  0  0  0  0
  190.0480  175.9350  143.7990 C   0  0  0  0  0  2  0  0  0  0  0  0
  189.3890  177.2410  143.3330 C   0  0  1  0  0  3  0  0  0  0  0  0
  186.8420  178.4630  139.5110 C   0  0  0  0  0  2  0  0  0  0  0  0
  188.0050  177.4710  141.4500 C   0  0  0  0  0  0  0  0  0  0  0  0
  186.8970  176.6350  143.6020 C   0  0  0  0  0  2  0  0  0  0  0  0
  184.9620  178.2010  143.8220 C   0  0  0  0  0  2  0  0  0  0  0  0
  184.2190  179.1730  144.7010 C   0  0  0  0  0  0  0  0  0  0  0  0
  186.3300  177.6210  145.8400 C   0  0  2  0  0  3  0  0  0  0  0  0
  185.8810  178.9020  146.5380 C   0  0  0  0  0  2  0  0  0  0  0  0
  184.6080  179.4430  145.9500 C   0  0  0  0  0  3  0  0  0  0  0  0
  183.0540  179.7530  144.2190 O   0  0  0  0  0  1  0  0  0  0  0  0
  187.6000  177.2770  146.3060 O   0  0  0  0  0  1  0  0  0  0  0  0
  186.3670  177.8650  144.3320 C   0  0  1  0  0  3  0  0  0  0  0  0
  1 14  1  0  0  0  0
  1  8  2  0  0  0  0
  2  9  1  0  0  0  0
  3 23  2  0  0  0  0
  4  5  1  0  0  0  0
  5 20  1  0  0  0  0
  6 17  2  0  0  0  0
  6 22  1  0  0  0  0
  7 11  2  0  0  0  0
  8 19  1  0  0  0  0
  9 17  1  0  0  0  0
 10  4  1  0  0  0  0
 11 23  1  0  0  0  0
 11 12  1  0  0  0  0
 12 10  1  0  0  0  0
 12 21  1  0  0  0  0
 13 21  1  0  0  0  0
 13 24  1  0  0  0  0
 14 15  1  0  0  0  0
 15 18  1  0  0  0  0
 16  1  1  0  0  0  0
 17  7  1  0  0  0  0
 18  6  1  0  0  0  0
 19 15  2  0  0  0  0
 19  2  1  0  0  0  0
 21 20  1  6  0  0  0
 22  3  1  0  0  0  0
 23 13  1  0  0  0  0
 25 32  1  0  0  0  0
 25 26  1  0  0  0  0
 26 29  2  0  0  0  0
 27 31  1  1  0  0  0
 27 28  1  0  0  0  0
 29 28  1  0  0  0  0
 30 26  1  0  0  0  0
 32 24  1  6  0  0  0
 32 27  1  0  0  0  0
M  END
>  <MODEL>
7

>  <REMARK>
 VINA RESULT:      -6.4      1.930      2.942
  Name = 
  2 active torsions:
  status: ('A' for Active; 'I' for Inactive)
    1  A    between atoms: N_16  and  C_27
    2  A    between atoms: C_27  and  C_32
                            x       y       z     vdW  Elec       q    Type
                         _______ _______ _______ _____ _____    ______ ____

>  <TORSDO>
F 2

$$$$
=
 OpenBabel10262421253D

 32 37  0  0  1  0  0  0  0  0999 V2000
  180.2840  174.8660  139.4820 C   0  0  0  0  0  0  0  0  0  0  0  0
  183.4190  175.3320  137.7170 O   0  0  0  0  0  0  0  0  0  0  0  0
  184.2000  179.5420  140.2090 C   0  0  0  0  0  3  0  0  0  0  0  0
  189.6680  177.1300  140.2590 C   0  0  0  0  0  2  0  0  0  0  0  0
  189.0290  176.5780  141.5320 C   0  0  0  0  0  2  0  0  0  0  0  0
  183.3380  178.3480  138.1950 C   0  0  0  0  0  0  0  0  0  0  0  0
  185.7660  177.7100  138.2450 C   0  0  0  0  0  3  0  0  0  0  0  0
  181.4960  174.4550  138.9490 C   0  0  0  0  0  3  0  0  0  0  0  0
  184.0770  176.3470  136.9620 C   0  0  0  0  0  2  0  0  0  0  0  0
  188.5840  177.4300  139.2280 C   0  0  0  0  0  2  0  0  0  0  0  0
  186.2030  178.3650  139.3270 C   0  0  0  0  0  0  0  0  0  0  0  0
  187.5270  178.2350  139.8350 N   0  0  0  0  0  0  0  0  0  0  0  0
  186.1840  179.0890  141.5450 N   0  0  0  0  0  0  0  0  0  0  0  0
  180.0300  176.5030  139.1950 S   0  0  0  0  0  0  0  0  0  0  0  0
  181.4820  176.7290  138.3780 C   0  0  0  0  0  0  0  0  0  0  0  0
  179.3780  174.0190  140.1780 N   0  0  0  0  0  1  0  0  0  0  0  0
  184.3590  177.5470  137.8140 C   0  0  0  0  0  0  0  0  0  0  0  0
  181.9270  178.0310  137.7910 C   0  0  0  0  0  2  0  0  0  0  0  0
  182.1660  175.5110  138.3200 C   0  0  0  0  0  0  0  0  0  0  0  0
  187.9880  177.5250  142.1570 C   0  0  0  0  0  2  0  0  0  0  0  0
  187.5540  178.6730  141.2350 C   0  0  1  0  0  3  0  0  0  0  0  0
  183.5520  179.6630  138.8700 C   0  0  0  0  0  2  0  0  0  0  0  0
  185.3950  178.9770  140.3630 C   0  0  0  0  0  0  0  0  0  0  0  0
  185.8150  179.8500  142.7340 C   0  0  0  0  0  2  0  0  0  0  0  0
  186.5100  178.7070  144.8440 C   0  0  0  0  0  2  0  0  0  0  0  0
  186.0740  178.0920  146.1490 C   0  0  0  0  0  0  0  0  0  0  0  0
  184.1470  179.5020  144.5780 C   0  0  2  0  0  3  0  0  0  0  0  0
  183.6720  178.5020  145.6280 C   0  0  0  0  0  2  0  0  0  0  0  0
  184.7920  178.0540  146.5230 C   0  0  0  0  0  3  0  0  0  0  0  0
  187.0440  177.6130  147.0180 O   0  0  0  0  0  1  0  0  0  0  0  0
  183.1090  179.7340  143.6740 O   0  0  0  0  0  1  0  0  0  0  0  0
  185.3610  178.9200  143.8530 C   0  0  1  0  0  3  0  0  0  0  0  0
  1 16  1  0  0  0  0
  2 19  1  0  0  0  0
  3 23  2  0  0  0  0
  4  5  1  0  0  0  0
  5 20  1  0  0  0  0
  6 22  1  0  0  0  0
  7 11  2  0  0  0  0
  8  1  2  0  0  0  0
  9  2  1  0  0  0  0
  9 17  1  0  0  0  0
 10 12  1  0  0  0  0
 10  4  1  0  0  0  0
 11 12  1  0  0  0  0
 11 23  1  0  0  0  0
 12 21  1  0  0  0  0
 13 24  1  0  0  0  0
 14  1  1  0  0  0  0
 15 14  1  0  0  0  0
 17  6  2  0  0  0  0
 17  7  1  0  0  0  0
 18  6  1  0  0  0  0
 18 15  1  0  0  0  0
 19 15  2  0  0  0  0
 19  8  1  0  0  0  0
 21 13  1  0  0  0  0
 21 20  1  1  0  0  0
 22  3  1  0  0  0  0
 23 13  1  0  0  0  0
 25 26  1  0  0  0  0
 26 29  2  0  0  0  0
 26 30  1  0  0  0  0
 27 31  1  6  0  0  0
 27 28  1  0  0  0  0
 28 29  1  0  0  0  0
 32 24  1  6  0  0  0
 32 27  1  0  0  0  0
 32 25  1  0  0  0  0
M  END
>  <MODEL>
8

>  <REMARK>
 VINA RESULT:      -6.3      3.364      5.367
  Name = 
  2 active torsions:
  status: ('A' for Active; 'I' for Inactive)
    1  A    between atoms: N_16  and  C_27
    2  A    between atoms: C_27  and  C_32
                            x       y       z     vdW  Elec       q    Type
                         _______ _______ _______ _____ _____    ______ ____

>  <TORSDO>
F 2

$$$$
=
 OpenBabel10262421253D

 32 37  0  0  1  0  0  0  0  0999 V2000
  180.1990  174.8070  140.1700 C   0  0  0  0  0  0  0  0  0  0  0  0
  182.1750  175.5140  137.2110 O   0  0  0  0  0  0  0  0  0  0  0  0
  184.4320  179.2210  139.6020 C   0  0  0  0  0  3  0  0  0  0  0  0
  189.0300  176.7430  136.6960 C   0  0  0  0  0  2  0  0  0  0  0  0
  189.0090  175.9910  138.0260 C   0  0  0  0  0  2  0  0  0  0  0  0
  182.6190  178.4040  138.0940 C   0  0  0  0  0  0  0  0  0  0  0  0
  184.7150  177.7260  136.8900 C   0  0  0  0  0  3  0  0  0  0  0  0
  180.9750  174.4720  139.0710 C   0  0  0  0  0  3  0  0  0  0  0  0
  182.5000  176.6320  136.3870 C   0  0  0  0  0  2  0  0  0  0  0  0
  187.6240  177.2340  136.3600 C   0  0  0  0  0  2  0  0  0  0  0  0
  185.6670  178.1780  137.7150 C   0  0  0  0  0  0  0  0  0  0  0  0
  187.0560  177.9400  137.5060 N   0  0  0  0  0  0  0  0  0  0  0  0
  186.7560  178.5120  139.7500 N   0  0  0  0  0  0  0  0  0  0  0  0
  180.0000  176.4730  140.2750 S   0  0  0  0  0  0  0  0  0  0  0  0
  180.9160  176.8100  138.9070 C   0  0  0  0  0  0  0  0  0  0  0  0
  179.6460  173.8690  141.0840 N   0  0  0  0  0  1  0  0  0  0  0  0
  183.2610  177.6640  137.1630 C   0  0  0  0  0  0  0  0  0  0  0  0
  181.1600  178.1860  138.3710 C   0  0  0  0  0  2  0  0  0  0  0  0
  181.3730  175.6090  138.3560 C   0  0  0  0  0  0  0  0  0  0  0  0
  188.4770  176.8350  139.1990 C   0  0  0  0  0  2  0  0  0  0  0  0
  187.7760  178.1320  138.7700 C   0  0  1  0  0  3  0  0  0  0  0  0
  183.2490  179.5810  138.7660 C   0  0  0  0  0  2  0  0  0  0  0  0
  185.5000  178.6180  139.0860 C   0  0  0  0  0  0  0  0  0  0  0  0
  187.0600  179.0640  141.0660 C   0  0  0  0  0  2  0  0  0  0  0  0
  188.8470  177.9860  142.4410 C   0  0  0  0  0  2  0  0  0  0  0  0
  189.1800  177.1650  143.6590 C   0  0  0  0  0  0  0  0  0  0  0  0
  186.5020  178.1040  143.3180 C   0  0  2  0  0  3  0  0  0  0  0  0
  186.7700  176.9260  144.2490 C   0  0  0  0  0  2  0  0  0  0  0  0
  188.2390  176.7360  144.5050 C   0  0  0  0  0  3  0  0  0  0  0  0
  190.5120  176.9050  143.9470 O   0  0  0  0  0  1  0  0  0  0  0  0
  185.1480  178.1120  142.9790 O   0  0  0  0  0  1  0  0  0  0  0  0
  187.3620  177.9510  142.0640 C   0  0  1  0  0  3  0  0  0  0  0  0
  1 14  1  0  0  0  0
  1 16  1  0  0  0  0
  2 19  1  0  0  0  0
  4  5  1  0  0  0  0
  5 20  1  0  0  0  0
  6 18  1  0  0  0  0
  6 22  1  0  0  0  0
  7 17  1  0  0  0  0
  7 11  2  0  0  0  0
  8  1  2  0  0  0  0
  9 17  1  0  0  0  0
  9  2  1  0  0  0  0
 10  4  1  0  0  0  0
 10 12  1  0  0  0  0
 11 23  1  0  0  0  0
 12 11  1  0  0  0  0
 12 21  1  0  0  0  0
 13 24  1  0  0  0  0
 15 14  1  0  0  0  0
 17  6  2  0  0  0  0
 18 15  1  0  0  0  0
 19 15  2  0  0  0  0
 19  8  1  0  0  0  0
 21 20  1  1  0  0  0
 21 13  1  0  0  0  0
 22  3  1  0  0  0  0
 23  3  2  0  0  0  0
 23 13  1  0  0  0  0
 25 26  1  0  0  0  0
 26 30  1  0  0  0  0
 26 29  2  0  0  0  0
 27 31  1  6  0  0  0
 27 28  1  0  0  0  0
 28 29  1  0  0  0  0
 32 24  1  6  0  0  0
 32 25  1  0  0  0  0
 32 27  1  0  0  0  0
M  END
>  <MODEL>
9

>  <REMARK>
 VINA RESULT:      -6.2      3.648      6.313
  Name = 
  2 active torsions:
  status: ('A' for Active; 'I' for Inactive)
    1  A    between atoms: N_16  and  C_27
    2  A    between atoms: C_27  and  C_32
                            x       y       z     vdW  Elec       q    Type
                         _______ _______ _______ _____ _____    ______ ____

>  <TORSDO>
F 2

$$$$
