=
 OpenBabel10262421023D

 32 35  0  0  1  0  0  0  0  0999 V2000
  180.7650  177.7160  138.4380 C   0  0  1  0  0  3  0  0  0  0  0  0
  181.2320  178.8390  139.3980 C   0  0  2  0  0  3  0  0  0  0  0  0
  181.3840  177.7240  137.0300 C   0  0  2  0  0  3  0  0  0  0  0  0
  181.3250  183.1080  137.5070 C   0  0  0  0  0  2  0  0  0  0  0  0
  182.4110  179.7010  138.9280 C   0  0  0  0  0  2  0  0  0  0  0  0
  180.4270  181.3570  135.9770 C   0  0  0  0  0  2  0  0  0  0  0  0
  180.8070  180.2630  136.9720 C   0  0  1  0  0  3  0  0  0  0  0  0
  182.8520  177.4420  136.9510 C   0  0  0  0  0  3  0  0  0  0  0  0
  180.6680  176.3040  139.0150 C   0  0  2  0  0  3  0  0  0  0  0  0
  181.0500  178.9660  136.1910 C   0  0  0  0  0  2  0  0  0  0  0  0
  181.9630  175.6920  139.4460 C   0  0  0  0  0  3  0  0  0  0  0  0
  180.0100  175.4540  138.1250 O   0  0  0  0  0  1  0  0  0  0  0  0
  183.5770  176.6260  137.7200 C   0  0  0  0  0  3  0  0  0  0  0  0
  182.0040  180.7120  137.8490 C   0  0  1  0  0  3  0  0  0  0  0  0
  183.1650  175.8170  138.8810 C   0  0  0  0  0  3  0  0  0  0  0  0
  180.1120  182.6590  136.7040 C   0  0  0  0  0  2  0  0  0  0  0  0
  181.6900  182.0430  138.5340 C   0  0  0  0  0  2  0  0  0  0  0  0
  179.9590  177.6390  141.2220 C   0  0  0  0  0  1  0  0  0  0  0  0
  180.8520  178.8360  140.9050 C   0  0  1  0  0  0  0  0  0  0  0  0
  183.2650  178.6780  143.9190 C   0  0  0  0  0  3  0  0  0  0  0  0
  184.5260  178.3060  141.8980 C   0  0  0  0  0  3  0  0  0  0  0  0
  182.1180  178.7020  141.7620 C   0  0  0  0  0  0  0  0  0  0  0  0
  184.4890  178.4190  143.2900 C   0  0  0  0  0  0  0  0  0  0  0  0
  183.3590  178.4470  141.1480 C   0  0  0  0  0  3  0  0  0  0  0  0
  182.0890  178.8210  143.1780 C   0  0  0  0  0  0  0  0  0  0  0  0
  180.8340  179.1010  143.9350 C   0  0  0  0  0  1  0  0  0  0  0  0
  185.7860  178.7540  145.4190 N   0  0  0  0  0  1  0  0  0  0  0  0
  186.7650  177.6900  143.5730 N   0  0  0  0  0  2  0  0  0  0  0  0
  185.7250  178.2670  144.0810 C   0  0  0  0  0  0  0  0  0  0  0  0
  180.0720  180.1250  141.2550 C   0  0  0  0  0  2  0  0  0  0  0  0
  179.0120  180.5350  140.2350 C   0  0  0  0  0  2  0  0  0  0  0  0
  178.9310  182.0440  140.1340 C   0  0  0  0  0  1  0  0  0  0  0  0
  1  9  1  0  0  0  0
  1  2  1  0  0  0  0
  2 19  1  0  0  0  0
  3  1  1  0  0  0  0
  4 17  1  0  0  0  0
  5  2  1  0  0  0  0
  6 16  1  0  0  0  0
  6  7  1  0  0  0  0
  7 14  1  0  0  0  0
  8  3  1  0  0  0  0
  8 13  2  0  0  0  0
  9 11  1  0  0  0  0
 10  7  1  0  0  0  0
 10  3  1  0  0  0  0
 12  9  1  0  0  0  0
 13 15  1  0  0  0  0
 14 17  1  0  0  0  0
 14  5  1  0  0  0  0
 15 11  2  0  0  0  0
 16  4  1  0  0  0  0
 19 18  1  0  0  0  0
 19 30  1  0  0  0  0
 19 22  1  0  0  0  0
 21 23  2  0  0  0  0
 22 25  1  0  0  0  0
 23 20  1  0  0  0  0
 23 29  1  0  0  0  0
 24 22  2  0  0  0  0
 24 21  1  0  0  0  0
 25 20  2  0  0  0  0
 25 26  1  0  0  0  0
 28 29  2  0  0  0  0
 29 27  1  0  0  0  0
 31 30  1  0  0  0  0
 32 31  1  0  0  0  0
M  END
>  <MODEL>
1

>  <REMARK>
 VINA RESULT:      -6.8      0.000      0.000
  Name = 
  5 active torsions:
  status: ('A' for Active; 'I' for Inactive)
    1  A    between atoms: C_1  and  C_4
    2  A    between atoms: C_1  and  C_27
    3  A    between atoms: C_5  and  C_27
    4  A    between atoms: C_16  and  C_27
    5  A    between atoms: C_19  and  C_26
                            x       y       z     vdW  Elec       q    Type
                         _______ _______ _______ _____ _____    ______ ____

>  <TORSDO>
F 5

$$$$
=
 OpenBabel10262421023D

 32 35  0  0  1  0  0  0  0  0999 V2000
  181.1870  178.3500  138.6640 C   0  0  1  0  0  3  0  0  0  0  0  0
  182.5450  177.7430  139.1030 C   0  0  2  0  0  3  0  0  0  0  0  0
  179.9880  177.3860  138.6380 C   0  0  2  0  0  3  0  0  0  0  0  0
  183.5820  173.6460  137.1160 C   0  0  0  0  0  2  0  0  0  0  0  0
  182.5100  176.3180  139.6700 C   0  0  0  0  0  2  0  0  0  0  0  0
  181.4660  174.6580  136.2730 C   0  0  0  0  0  2  0  0  0  0  0  0
  181.5420  175.7530  137.3330 C   0  0  1  0  0  3  0  0  0  0  0  0
  179.5390  176.8540  139.9630 C   0  0  0  0  0  3  0  0  0  0  0  0
  180.8160  179.7130  139.2450 C   0  0  2  0  0  3  0  0  0  0  0  0
  180.1160  176.2320  137.6330 C   0  0  0  0  0  2  0  0  0  0  0  0
  180.5980  179.7480  140.7240 C   0  0  0  0  0  3  0  0  0  0  0  0
  179.7060  180.2430  138.5850 O   0  0  0  0  0  1  0  0  0  0  0  0
  179.5500  177.4720  141.1460 C   0  0  0  0  0  3  0  0  0  0  0  0
  182.3230  175.2570  138.5780 C   0  0  1  0  0  3  0  0  0  0  0  0
  180.0470  178.8140  141.5010 C   0  0  0  0  0  3  0  0  0  0  0  0
  182.8620  174.1840  135.8870 C   0  0  0  0  0  2  0  0  0  0  0  0
  183.7030  174.7420  138.1680 C   0  0  0  0  0  2  0  0  0  0  0  0
  183.4890  180.0850  139.0030 C   0  0  0  0  0  1  0  0  0  0  0  0
  183.7880  178.6330  139.3730 C   0  0  1  0  0  0  0  0  0  0  0  0
  185.7470  178.5660  142.7040 C   0  0  0  0  0  3  0  0  0  0  0  0
  183.3870  178.6010  143.1940 C   0  0  0  0  0  3  0  0  0  0  0  0
  184.1350  178.6050  140.8670 C   0  0  0  0  0  0  0  0  0  0  0  0
  184.7100  178.5790  143.6440 C   0  0  0  0  0  0  0  0  0  0  0  0
  183.1060  178.6130  141.8290 C   0  0  0  0  0  3  0  0  0  0  0  0
  185.4780  178.5770  141.3320 C   0  0  0  0  0  0  0  0  0  0  0  0
  186.6490  178.5560  140.4070 C   0  0  0  0  0  1  0  0  0  0  0  0
  186.2790  178.1420  145.5610 N   0  0  0  0  0  2  0  0  0  0  0  0
  184.1110  178.9490  145.9450 N   0  0  0  0  0  1  0  0  0  0  0  0
  185.0040  178.5700  145.0900 C   0  0  0  0  0  0  0  0  0  0  0  0
  184.9790  178.1530  138.5120 C   0  0  0  0  0  2  0  0  0  0  0  0
  184.6360  177.8290  137.0590 C   0  0  0  0  0  2  0  0  0  0  0  0
  185.7920  177.1120  136.3900 C   0  0  0  0  0  1  0  0  0  0  0  0
  1  2  1  0  0  0  0
  1  9  1  0  0  0  0
  2 19  1  0  0  0  0
  2  5  1  0  0  0  0
  3  1  1  0  0  0  0
  3  8  1  0  0  0  0
  4 17  1  0  0  0  0
  6  7  1  0  0  0  0
  7 10  1  0  0  0  0
  7 14  1  0  0  0  0
  8 13  2  0  0  0  0
  9 11  1  0  0  0  0
 10  3  1  0  0  0  0
 11 15  2  0  0  0  0
 12  9  1  0  0  0  0
 13 15  1  0  0  0  0
 14  5  1  0  0  0  0
 16  6  1  0  0  0  0
 16  4  1  0  0  0  0
 17 14  1  0  0  0  0
 18 19  1  0  0  0  0
 19 22  1  0  0  0  0
 20 23  1  0  0  0  0
 21 23  2  0  0  0  0
 22 25  1  0  0  0  0
 22 24  2  0  0  0  0
 23 29  1  0  0  0  0
 24 21  1  0  0  0  0
 25 20  2  0  0  0  0
 26 25  1  0  0  0  0
 29 27  2  0  0  0  0
 29 28  1  0  0  0  0
 30 19  1  0  0  0  0
 31 30  1  0  0  0  0
 32 31  1  0  0  0  0
M  END
>  <MODEL>
2

>  <REMARK>
 VINA RESULT:      -6.2      2.073      4.965
  Name = 
  5 active torsions:
  status: ('A' for Active; 'I' for Inactive)
    1  A    between atoms: C_1  and  C_4
    2  A    between atoms: C_1  and  C_27
    3  A    between atoms: C_5  and  C_27
    4  A    between atoms: C_16  and  C_27
    5  A    between atoms: C_19  and  C_26
                            x       y       z     vdW  Elec       q    Type
                         _______ _______ _______ _____ _____    ______ ____

>  <TORSDO>
F 5

$$$$
=
 OpenBabel10262421023D

 32 35  0  0  1  0  0  0  0  0999 V2000
  181.3420  175.9310  138.1670 C   0  0  1  0  0  3  0  0  0  0  0  0
  180.7510  177.2830  137.6930 C   0  0  2  0  0  3  0  0  0  0  0  0
  180.4790  175.1180  139.1470 C   0  0  2  0  0  3  0  0  0  0  0  0
  178.9380  179.9200  141.0940 C   0  0  0  0  0  2  0  0  0  0  0  0
  179.2920  177.5670  138.0700 C   0  0  0  0  0  2  0  0  0  0  0  0
  180.0090  177.8260  141.9170 C   0  0  0  0  0  2  0  0  0  0  0  0
  180.2040  177.3370  140.4850 C   0  0  1  0  0  3  0  0  0  0  0  0
  179.1900  174.5830  138.6050 C   0  0  0  0  0  3  0  0  0  0  0  0
  181.9930  175.0470  137.1050 C   0  0  2  0  0  3  0  0  0  0  0  0
  180.2270  175.8030  140.4980 C   0  0  0  0  0  2  0  0  0  0  0  0
  181.0730  174.5200  136.0500 C   0  0  0  0  0  3  0  0  0  0  0  0
  182.6900  173.9940  137.7020 O   0  0  0  0  0  1  0  0  0  0  0  0
  178.9310  174.1540  137.3680 C   0  0  0  0  0  3  0  0  0  0  0  0
  179.1320  177.9490  139.5470 C   0  0  1  0  0  3  0  0  0  0  0  0
  179.8030  174.1290  136.1810 C   0  0  0  0  0  3  0  0  0  0  0  0
  180.0410  179.3480  141.9750 C   0  0  0  0  0  2  0  0  0  0  0  0
  179.1430  179.4740  139.6510 C   0  0  0  0  0  2  0  0  0  0  0  0
  180.6920  177.8510  135.2310 C   0  0  0  0  0  1  0  0  0  0  0  0
  181.4110  178.1080  136.5540 C   0  0  1  0  0  0  0  0  0  0  0  0
  181.7900  181.5800  138.2080 C   0  0  0  0  0  3  0  0  0  0  0  0
  180.4140  181.8060  136.2420 C   0  0  0  0  0  3  0  0  0  0  0  0
  181.2880  179.6070  136.8560 C   0  0  0  0  0  0  0  0  0  0  0  0
  181.0420  182.3890  137.3450 C   0  0  0  0  0  0  0  0  0  0  0  0
  180.5350  180.4370  136.0030 C   0  0  0  0  0  3  0  0  0  0  0  0
  181.9180  180.2070  137.9800 C   0  0  0  0  0  0  0  0  0  0  0  0
  182.7310  179.4250  138.9580 C   0  0  0  0  0  1  0  0  0  0  0  0
  179.6480  184.4000  137.9280 N   0  0  0  0  0  1  0  0  0  0  0  0
  181.9450  184.6130  137.5120 N   0  0  0  0  0  2  0  0  0  0  0  0
  180.9140  183.8380  137.5930 C   0  0  0  0  0  0  0  0  0  0  0  0
  182.8900  177.6890  136.3870 C   0  0  0  0  0  2  0  0  0  0  0  0
  183.3340  177.4450  134.9460 C   0  0  0  0  0  2  0  0  0  0  0  0
  184.7990  177.0580  134.9020 C   0  0  0  0  0  1  0  0  0  0  0  0
  1  3  1  0  0  0  0
  2  5  1  0  0  0  0
  2  1  1  0  0  0  0
  3 10  1  0  0  0  0
  4 16  1  0  0  0  0
  5 14  1  0  0  0  0
  6 16  1  0  0  0  0
  7 10  1  0  0  0  0
  7  6  1  0  0  0  0
  8  3  1  0  0  0  0
  9 12  1  0  0  0  0
  9  1  1  0  0  0  0
 11 15  2  0  0  0  0
 11  9  1  0  0  0  0
 13  8  2  0  0  0  0
 14 17  1  0  0  0  0
 14  7  1  0  0  0  0
 15 13  1  0  0  0  0
 17  4  1  0  0  0  0
 18 19  1  0  0  0  0
 19 22  1  0  0  0  0
 19  2  1  0  0  0  0
 21 23  1  0  0  0  0
 22 25  2  0  0  0  0
 23 29  1  0  0  0  0
 23 20  2  0  0  0  0
 24 21  2  0  0  0  0
 24 22  1  0  0  0  0
 25 20  1  0  0  0  0
 25 26  1  0  0  0  0
 28 29  2  0  0  0  0
 29 27  1  0  0  0  0
 30 19  1  0  0  0  0
 31 30  1  0  0  0  0
 32 31  1  0  0  0  0
M  END
>  <MODEL>
3

>  <REMARK>
 VINA RESULT:      -6.0      3.384      6.109
  Name = 
  5 active torsions:
  status: ('A' for Active; 'I' for Inactive)
    1  A    between atoms: C_1  and  C_4
    2  A    between atoms: C_1  and  C_27
    3  A    between atoms: C_5  and  C_27
    4  A    between atoms: C_16  and  C_27
    5  A    between atoms: C_19  and  C_26
                            x       y       z     vdW  Elec       q    Type
                         _______ _______ _______ _____ _____    ______ ____

>  <TORSDO>
F 5

$$$$
=
 OpenBabel10262421023D

 32 35  0  0  1  0  0  0  0  0999 V2000
  187.8310  176.1240  137.5530 C   0  0  1  0  0  3  0  0  0  0  0  0
  189.3560  176.0070  137.3040 C   0  0  2  0  0  3  0  0  0  0  0  0
  187.3390  177.4560  138.1440 C   0  0  2  0  0  3  0  0  0  0  0  0
  192.0290  177.4980  140.8300 C   0  0  0  0  0  2  0  0  0  0  0  0
  190.1800  177.2900  137.4620 C   0  0  0  0  0  2  0  0  0  0  0  0
  189.5890  177.5640  141.3310 C   0  0  0  0  0  2  0  0  0  0  0  0
  189.2610  177.2030  139.8840 C   0  0  1  0  0  3  0  0  0  0  0  0
  187.4810  178.6610  137.2670 C   0  0  0  0  0  3  0  0  0  0  0  0
  186.9050  175.6070  136.4530 C   0  0  2  0  0  3  0  0  0  0  0  0
  187.8770  177.7720  139.5470 C   0  0  0  0  0  2  0  0  0  0  0  0
  186.9670  176.3470  135.1550 C   0  0  0  0  0  3  0  0  0  0  0  0
  185.5870  175.5470  136.9080 O   0  0  0  0  0  1  0  0  0  0  0  0
  187.3740  178.7300  135.9380 C   0  0  0  0  0  3  0  0  0  0  0  0
  190.3910  177.6740  138.9330 C   0  0  1  0  0  3  0  0  0  0  0  0
  187.1400  177.6550  134.9570 C   0  0  0  0  0  3  0  0  0  0  0  0
  190.9300  176.9690  141.7430 C   0  0  0  0  0  2  0  0  0  0  0  0
  191.7370  177.1080  139.3870 C   0  0  0  0  0  2  0  0  0  0  0  0
  189.5780  174.8830  135.0510 C   0  0  0  0  0  1  0  0  0  0  0  0
  189.9670  174.8090  136.5260 C   0  0  1  0  0  0  0  0  0  0  0  0
  193.6630  175.6750  135.8040 C   0  0  0  0  0  3  0  0  0  0  0  0
  193.5740  174.1790  137.6910 C   0  0  0  0  0  3  0  0  0  0  0  0
  191.4980  174.8660  136.5980 C   0  0  0  0  0  0  0  0  0  0  0  0
  194.3260  174.9490  136.8010 C   0  0  0  0  0  0  0  0  0  0  0  0
  192.1840  174.1380  137.5900 C   0  0  0  0  0  3  0  0  0  0  0  0
  192.2700  175.6420  135.6920 C   0  0  0  0  0  0  0  0  0  0  0  0
  191.6540  176.4450  134.5940 C   0  0  0  0  0  1  0  0  0  0  0  0
  196.5540  175.8730  136.0880 N   0  0  0  0  0  2  0  0  0  0  0  0
  196.4140  174.2330  137.7570 N   0  0  0  0  0  1  0  0  0  0  0  0
  195.7960  174.9910  136.9120 C   0  0  0  0  0  0  0  0  0  0  0  0
  189.4280  173.4770  137.0990 C   0  0  0  0  0  2  0  0  0  0  0  0
  188.7310  172.5730  136.0860 C   0  0  0  0  0  2  0  0  0  0  0  0
  187.5270  171.9020  136.7150 C   0  0  0  0  0  1  0  0  0  0  0  0
  1  3  1  0  0  0  0
  2  5  1  0  0  0  0
  2  1  1  0  0  0  0
  3 10  1  0  0  0  0
  4 16  1  0  0  0  0
  5 14  1  0  0  0  0
  6 16  1  0  0  0  0
  7  6  1  0  0  0  0
  8  3  1  0  0  0  0
  9 12  1  0  0  0  0
  9  1  1  0  0  0  0
 10  7  1  0  0  0  0
 11  9  1  0  0  0  0
 13  8  2  0  0  0  0
 14 17  1  0  0  0  0
 14  7  1  0  0  0  0
 15 11  2  0  0  0  0
 15 13  1  0  0  0  0
 17  4  1  0  0  0  0
 18 19  1  0  0  0  0
 19 22  1  0  0  0  0
 19 30  1  0  0  0  0
 19  2  1  0  0  0  0
 20 23  1  0  0  0  0
 22 24  2  0  0  0  0
 23 29  1  0  0  0  0
 23 21  2  0  0  0  0
 24 21  1  0  0  0  0
 25 20  2  0  0  0  0
 25 22  1  0  0  0  0
 26 25  1  0  0  0  0
 27 29  2  0  0  0  0
 29 28  1  0  0  0  0
 31 32  1  0  0  0  0
 31 30  1  0  0  0  0
M  END
>  <MODEL>
4

>  <REMARK>
 VINA RESULT:      -5.7      7.494     10.616
  Name = 
  5 active torsions:
  status: ('A' for Active; 'I' for Inactive)
    1  A    between atoms: C_1  and  C_4
    2  A    between atoms: C_1  and  C_27
    3  A    between atoms: C_5  and  C_27
    4  A    between atoms: C_16  and  C_27
    5  A    between atoms: C_19  and  C_26
                            x       y       z     vdW  Elec       q    Type
                         _______ _______ _______ _____ _____    ______ ____

>  <TORSDO>
F 5

$$$$
=
 OpenBabel10262421023D

 32 35  0  0  1  0  0  0  0  0999 V2000
  186.8140  174.0120  137.0710 C   0  0  1  0  0  3  0  0  0  0  0  0
  186.6940  175.3730  136.3390 C   0  0  2  0  0  3  0  0  0  0  0  0
  185.5850  173.0890  136.9940 C   0  0  2  0  0  3  0  0  0  0  0  0
  182.6900  177.6530  137.1010 C   0  0  0  0  0  2  0  0  0  0  0  0
  185.4660  175.5670  135.4410 C   0  0  0  0  0  2  0  0  0  0  0  0
  182.9040  175.5440  138.4120 C   0  0  0  0  0  2  0  0  0  0  0  0
  184.1800  175.1800  137.6580 C   0  0  1  0  0  3  0  0  0  0  0  0
  185.2480  172.5480  135.6400 C   0  0  0  0  0  3  0  0  0  0  0  0
  188.1220  173.2430  136.8980 C   0  0  2  0  0  3  0  0  0  0  0  0
  184.3190  173.6520  137.6560 C   0  0  0  0  0  2  0  0  0  0  0  0
  188.4130  172.7660  135.5100 C   0  0  0  0  0  3  0  0  0  0  0  0
  188.1870  172.1750  137.7940 O   0  0  0  0  0  1  0  0  0  0  0  0
  186.0850  172.2090  134.6560 C   0  0  0  0  0  3  0  0  0  0  0  0
  184.1850  175.8220  136.2470 C   0  0  1  0  0  3  0  0  0  0  0  0
  187.5540  172.3160  134.5940 C   0  0  0  0  0  3  0  0  0  0  0  0
  182.7450  177.0560  138.5010 C   0  0  0  0  0  2  0  0  0  0  0  0
  183.9770  177.3330  136.3510 C   0  0  0  0  0  2  0  0  0  0  0  0
  187.4730  177.6520  135.5710 C   0  0  0  0  0  1  0  0  0  0  0  0
  187.9180  176.3130  136.1570 C   0  0  1  0  0  0  0  0  0  0  0  0
  188.5490  177.6520  139.7270 C   0  0  0  0  0  3  0  0  0  0  0  0
  190.4160  176.2710  139.0760 C   0  0  0  0  0  3  0  0  0  0  0  0
  188.5600  176.6030  137.5200 C   0  0  0  0  0  0  0  0  0  0  0  0
  189.7900  177.0780  140.0300 C   0  0  0  0  0  0  0  0  0  0  0  0
  189.8100  176.0390  137.8420 C   0  0  0  0  0  3  0  0  0  0  0  0
  187.9330  177.4270  138.4930 C   0  0  0  0  0  0  0  0  0  0  0  0
  186.6140  178.0850  138.2590 C   0  0  0  0  0  1  0  0  0  0  0  0
  189.6370  177.5190  142.5020 N   0  0  0  0  0  1  0  0  0  0  0  0
  191.7210  177.3520  141.4400 N   0  0  0  0  0  2  0  0  0  0  0  0
  190.4330  177.3190  141.3360 C   0  0  0  0  0  0  0  0  0  0  0  0
  188.9340  175.6750  135.1820 C   0  0  0  0  0  2  0  0  0  0  0  0
  189.9850  176.6330  134.6250 C   0  0  0  0  0  2  0  0  0  0  0  0
  191.3450  175.9650  134.5940 C   0  0  0  0  0  1  0  0  0  0  0  0
  2  1  1  0  0  0  0
  3  1  1  0  0  0  0
  3 10  1  0  0  0  0
  4 16  1  0  0  0  0
  5 14  1  0  0  0  0
  5  2  1  0  0  0  0
  6 16  1  0  0  0  0
  7  6  1  0  0  0  0
  8  3  1  0  0  0  0
  9  1  1  0  0  0  0
  9 12  1  0  0  0  0
 10  7  1  0  0  0  0
 11  9  1  0  0  0  0
 13  8  2  0  0  0  0
 14 17  1  0  0  0  0
 14  7  1  0  0  0  0
 15 13  1  0  0  0  0
 15 11  2  0  0  0  0
 17  4  1  0  0  0  0
 18 19  1  0  0  0  0
 19  2  1  0  0  0  0
 19 22  1  0  0  0  0
 20 23  1  0  0  0  0
 21 23  2  0  0  0  0
 22 24  2  0  0  0  0
 22 25  1  0  0  0  0
 23 29  1  0  0  0  0
 24 21  1  0  0  0  0
 25 20  2  0  0  0  0
 26 25  1  0  0  0  0
 29 28  2  0  0  0  0
 29 27  1  0  0  0  0
 30 19  1  0  0  0  0
 31 30  1  0  0  0  0
 32 31  1  0  0  0  0
M  END
>  <MODEL>
5

>  <REMARK>
 VINA RESULT:      -5.7      4.989      7.763
  Name = 
  5 active torsions:
  status: ('A' for Active; 'I' for Inactive)
    1  A    between atoms: C_1  and  C_4
    2  A    between atoms: C_1  and  C_27
    3  A    between atoms: C_5  and  C_27
    4  A    between atoms: C_16  and  C_27
    5  A    between atoms: C_19  and  C_26
                            x       y       z     vdW  Elec       q    Type
                         _______ _______ _______ _____ _____    ______ ____

>  <TORSDO>
F 5

$$$$
=
 OpenBabel10262421023D

 32 35  0  0  1  0  0  0  0  0999 V2000
  184.6130  173.3210  136.9810 C   0  0  1  0  0  3  0  0  0  0  0  0
  183.8250  174.3760  136.1620 C   0  0  2  0  0  3  0  0  0  0  0  0
  184.1950  171.8540  136.7810 C   0  0  2  0  0  3  0  0  0  0  0  0
  179.1900  173.8130  136.2060 C   0  0  0  0  0  2  0  0  0  0  0  0
  182.8710  173.8410  135.0870 C   0  0  0  0  0  2  0  0  0  0  0  0
  180.4060  172.1890  137.6530 C   0  0  0  0  0  2  0  0  0  0  0  0
  181.7470  172.6810  137.1140 C   0  0  1  0  0  3  0  0  0  0  0  0
  184.4500  171.2730  135.4250 C   0  0  0  0  0  3  0  0  0  0  0  0
  186.1310  173.4820  137.0430 C   0  0  2  0  0  3  0  0  0  0  0  0
  182.7590  171.5330  137.2190 C   0  0  0  0  0  2  0  0  0  0  0  0
  186.8510  173.3260  135.7420 C   0  0  0  0  0  3  0  0  0  0  0  0
  186.6770  172.6250  137.9990 O   0  0  0  0  0  1  0  0  0  0  0  0
  185.4620  171.5340  134.5940 C   0  0  0  0  0  3  0  0  0  0  0  0
  181.5840  173.2570  135.6830 C   0  0  1  0  0  3  0  0  0  0  0  0
  186.5740  172.4910  134.7380 C   0  0  0  0  0  3  0  0  0  0  0  0
  179.3740  173.3090  137.6310 C   0  0  0  0  0  2  0  0  0  0  0  0
  180.5120  174.3470  135.6690 C   0  0  0  0  0  2  0  0  0  0  0  0
  184.8580  176.1870  134.7340 C   0  0  0  0  0  1  0  0  0  0  0  0
  184.2680  175.8640  136.1060 C   0  0  1  0  0  0  0  0  0  0  0  0
  181.2350  177.6730  137.6740 C   0  0  0  0  0  3  0  0  0  0  0  0
  181.5370  178.4780  135.4220 C   0  0  0  0  0  3  0  0  0  0  0  0
  183.0540  176.7780  136.3090 C   0  0  0  0  0  0  0  0  0  0  0  0
  180.8310  178.5110  136.6280 C   0  0  0  0  0  0  0  0  0  0  0  0
  182.6290  177.6240  135.2660 C   0  0  0  0  0  3  0  0  0  0  0  0
  182.3280  176.8130  137.5300 C   0  0  0  0  0  0  0  0  0  0  0  0
  182.6790  175.9540  138.6990 C   0  0  0  0  0  1  0  0  0  0  0  0
  179.0790  180.0280  135.6510 N   0  0  0  0  0  2  0  0  0  0  0  0
  179.1970  179.6650  137.9640 N   0  0  0  0  0  1  0  0  0  0  0  0
  179.6780  179.4160  136.7900 C   0  0  0  0  0  0  0  0  0  0  0  0
  185.3560  176.1310  137.1720 C   0  0  0  0  0  2  0  0  0  0  0  0
  185.9970  177.5160  137.1080 C   0  0  0  0  0  2  0  0  0  0  0  0
  185.6480  178.3170  138.3460 C   0  0  0  0  0  1  0  0  0  0  0  0
  1  9  1  0  0  0  0
  2  1  1  0  0  0  0
  3  1  1  0  0  0  0
  3 10  1  0  0  0  0
  4 16  1  0  0  0  0
  5 14  1  0  0  0  0
  5  2  1  0  0  0  0
  7 10  1  0  0  0  0
  7  6  1  0  0  0  0
  8  3  1  0  0  0  0
  9 12  1  0  0  0  0
 11  9  1  0  0  0  0
 13 15  1  0  0  0  0
 13  8  2  0  0  0  0
 14  7  1  0  0  0  0
 15 11  2  0  0  0  0
 16  6  1  0  0  0  0
 17 14  1  0  0  0  0
 17  4  1  0  0  0  0
 18 19  1  0  0  0  0
 19  2  1  0  0  0  0
 19 22  1  0  0  0  0
 19 30  1  0  0  0  0
 21 23  1  0  0  0  0
 22 25  2  0  0  0  0
 23 29  1  0  0  0  0
 23 20  2  0  0  0  0
 24 21  2  0  0  0  0
 24 22  1  0  0  0  0
 25 20  1  0  0  0  0
 25 26  1  0  0  0  0
 27 29  2  0  0  0  0
 29 28  1  0  0  0  0
 31 30  1  0  0  0  0
 31 32  1  0  0  0  0
M  END
>  <MODEL>
6

>  <REMARK>
 VINA RESULT:      -5.7      4.460      7.639
  Name = 
  5 active torsions:
  status: ('A' for Active; 'I' for Inactive)
    1  A    between atoms: C_1  and  C_4
    2  A    between atoms: C_1  and  C_27
    3  A    between atoms: C_5  and  C_27
    4  A    between atoms: C_16  and  C_27
    5  A    between atoms: C_19  and  C_26
                            x       y       z     vdW  Elec       q    Type
                         _______ _______ _______ _____ _____    ______ ____

>  <TORSDO>
F 5

$$$$
=
 OpenBabel10262421023D

 32 35  0  0  1  0  0  0  0  0999 V2000
  182.0780  178.2390  139.7150 C   0  0  1  0  0  3  0  0  0  0  0  0
  181.4230  177.5070  138.5160 C   0  0  2  0  0  3  0  0  0  0  0  0
  183.0430  179.3860  139.3660 C   0  0  2  0  0  3  0  0  0  0  0  0
  184.3680  176.3850  135.0700 C   0  0  0  0  0  2  0  0  0  0  0  0
  181.6290  178.1330  137.1310 C   0  0  0  0  0  2  0  0  0  0  0  0
  185.4860  177.4250  137.0400 C   0  0  0  0  0  2  0  0  0  0  0  0
  184.1310  177.7330  137.6730 C   0  0  1  0  0  3  0  0  0  0  0  0
  182.4320  180.5900  138.7180 C   0  0  0  0  0  3  0  0  0  0  0  0
  181.1730  178.5890  140.8940 C   0  0  2  0  0  3  0  0  0  0  0  0
  184.2920  178.9560  138.5840 C   0  0  0  0  0  2  0  0  0  0  0  0
  180.0880  179.5780  140.6060 C   0  0  0  0  0  3  0  0  0  0  0  0
  181.9300  179.0150  141.9860 O   0  0  0  0  0  1  0  0  0  0  0  0
  181.2220  181.1130  138.9270 C   0  0  0  0  0  3  0  0  0  0  0  0
  183.0400  177.8910  136.5820 C   0  0  1  0  0  3  0  0  0  0  0  0
  180.1310  180.6400  139.7990 C   0  0  0  0  0  3  0  0  0  0  0  0
  185.4020  176.1780  136.1690 C   0  0  0  0  0  2  0  0  0  0  0  0
  183.0010  176.6510  135.6880 C   0  0  0  0  0  2  0  0  0  0  0  0
  178.9310  177.1080  138.3840 C   0  0  0  0  0  1  0  0  0  0  0  0
  180.2800  176.4740  138.7160 C   0  0  1  0  0  0  0  0  0  0  0  0
  181.7760  173.4070  136.9020 C   0  0  0  0  0  3  0  0  0  0  0  0
  179.6100  173.8840  135.9580 C   0  0  0  0  0  3  0  0  0  0  0  0
  180.4750  175.2880  137.7620 C   0  0  0  0  0  0  0  0  0  0  0  0
  180.7630  173.0950  135.9870 C   0  0  0  0  0  0  0  0  0  0  0  0
  179.4710  174.9630  136.8300 C   0  0  0  0  0  3  0  0  0  0  0  0
  181.6480  174.4860  137.7810 C   0  0  0  0  0  0  0  0  0  0  0  0
  182.7830  174.7430  138.7160 C   0  0  0  0  0  1  0  0  0  0  0  0
  182.2020  171.4980  134.6810 N   0  0  0  0  0  1  0  0  0  0  0  0
  179.8630  171.3530  134.5940 N   0  0  0  0  0  2  0  0  0  0  0  0
  180.9070  171.9530  135.0640 C   0  0  0  0  0  0  0  0  0  0  0  0
  180.2420  176.0070  140.1900 C   0  0  0  0  0  2  0  0  0  0  0  0
  179.1190  175.0290  140.5290 C   0  0  0  0  0  2  0  0  0  0  0  0
  179.6800  173.7940  141.2040 C   0  0  0  0  0  1  0  0  0  0  0  0
  1  9  1  0  0  0  0
  2 19  1  0  0  0  0
  2  1  1  0  0  0  0
  3  1  1  0  0  0  0
  4 17  1  0  0  0  0
  4 16  1  0  0  0  0
  5  2  1  0  0  0  0
  6  7  1  0  0  0  0
  7 10  1  0  0  0  0
  8 13  2  0  0  0  0
  8  3  1  0  0  0  0
  9 12  1  0  0  0  0
 10  3  1  0  0  0  0
 11  9  1  0  0  0  0
 13 15  1  0  0  0  0
 14  5  1  0  0  0  0
 14  7  1  0  0  0  0
 15 11  2  0  0  0  0
 16  6  1  0  0  0  0
 17 14  1  0  0  0  0
 18 19  1  0  0  0  0
 19 30  1  0  0  0  0
 20 25  1  0  0  0  0
 21 23  1  0  0  0  0
 21 24  2  0  0  0  0
 22 25  2  0  0  0  0
 22 19  1  0  0  0  0
 23 20  2  0  0  0  0
 24 22  1  0  0  0  0
 25 26  1  0  0  0  0
 27 29  1  0  0  0  0
 28 29  2  0  0  0  0
 29 23  1  0  0  0  0
 30 31  1  0  0  0  0
 31 32  1  0  0  0  0
M  END
>  <MODEL>
7

>  <REMARK>
 VINA RESULT:      -5.6      3.925      6.787
  Name = 
  5 active torsions:
  status: ('A' for Active; 'I' for Inactive)
    1  A    between atoms: C_1  and  C_4
    2  A    between atoms: C_1  and  C_27
    3  A    between atoms: C_5  and  C_27
    4  A    between atoms: C_16  and  C_27
    5  A    between atoms: C_19  and  C_26
                            x       y       z     vdW  Elec       q    Type
                         _______ _______ _______ _____ _____    ______ ____

>  <TORSDO>
F 5

$$$$
=
 OpenBabel10262421023D

 32 35  0  0  1  0  0  0  0  0999 V2000
  187.1230  176.0000  137.2470 C   0  0  1  0  0  3  0  0  0  0  0  0
  186.0660  175.4700  136.2440 C   0  0  2  0  0  3  0  0  0  0  0  0
  188.5960  175.8030  136.8510 C   0  0  2  0  0  3  0  0  0  0  0  0
  186.9200  171.1840  134.5980 C   0  0  0  0  0  2  0  0  0  0  0  0
  186.5860  175.0070  134.8770 C   0  0  0  0  0  2  0  0  0  0  0  0
  188.5580  171.9380  136.3180 C   0  0  0  0  0  2  0  0  0  0  0  0
  187.9490  173.3370  136.3160 C   0  0  1  0  0  3  0  0  0  0  0  0
  189.0670  176.5700  135.6550 C   0  0  0  0  0  3  0  0  0  0  0  0
  186.8710  177.3780  137.8570 C   0  0  2  0  0  3  0  0  0  0  0  0
  189.0360  174.3370  136.7310 C   0  0  0  0  0  2  0  0  0  0  0  0
  186.8940  178.5240  136.8960 C   0  0  0  0  0  3  0  0  0  0  0  0
  187.7560  177.6190  138.9090 O   0  0  0  0  0  1  0  0  0  0  0  0
  188.6880  177.7850  135.2530 C   0  0  0  0  0  3  0  0  0  0  0  0
  187.2880  173.6450  134.9480 C   0  0  1  0  0  3  0  0  0  0  0  0
  187.6750  178.6900  135.8260 C   0  0  0  0  0  3  0  0  0  0  0  0
  187.5060  170.8920  135.9730 C   0  0  0  0  0  2  0  0  0  0  0  0
  186.2690  172.5620  134.5940 C   0  0  0  0  0  2  0  0  0  0  0  0
  184.1030  176.7920  135.3590 C   0  0  0  0  0  1  0  0  0  0  0  0
  184.5530  175.7800  136.4110 C   0  0  1  0  0  0  0  0  0  0  0  0
  183.1790  172.1830  136.7330 C   0  0  0  0  0  3  0  0  0  0  0  0
  181.9340  173.3370  135.0220 C   0  0  0  0  0  3  0  0  0  0  0  0
  183.7320  174.5020  136.1980 C   0  0  0  0  0  0  0  0  0  0  0  0
  182.1610  172.1800  135.7710 C   0  0  0  0  0  0  0  0  0  0  0  0
  182.7080  174.4780  135.2310 C   0  0  0  0  0  3  0  0  0  0  0  0
  183.9610  173.3200  136.9520 C   0  0  0  0  0  0  0  0  0  0  0  0
  185.0260  173.2260  137.9940 C   0  0  0  0  0  1  0  0  0  0  0  0
  181.9340  169.7830  135.0440 N   0  0  0  0  0  2  0  0  0  0  0  0
  180.0720  170.9870  135.8070 N   0  0  0  0  0  1  0  0  0  0  0  0
  181.3390  170.9760  135.5480 C   0  0  0  0  0  0  0  0  0  0  0  0
  184.2900  176.3900  137.8080 C   0  0  0  0  0  2  0  0  0  0  0  0
  182.8170  176.5610  138.1700 C   0  0  0  0  0  2  0  0  0  0  0  0
  182.4860  175.7790  139.4250 C   0  0  0  0  0  1  0  0  0  0  0  0
  1  9  1  0  0  0  0
  2 19  1  0  0  0  0
  2  1  1  0  0  0  0
  3  1  1  0  0  0  0
  4 16  1  0  0  0  0
  5 14  1  0  0  0  0
  5  2  1  0  0  0  0
  7  6  1  0  0  0  0
  7 10  1  0  0  0  0
  8  3  1  0  0  0  0
  9 12  1  0  0  0  0
 10  3  1  0  0  0  0
 11  9  1  0  0  0  0
 13  8  2  0  0  0  0
 13 15  1  0  0  0  0
 14  7  1  0  0  0  0
 15 11  2  0  0  0  0
 16  6  1  0  0  0  0
 17  4  1  0  0  0  0
 17 14  1  0  0  0  0
 18 19  1  0  0  0  0
 19 30  1  0  0  0  0
 20 25  1  0  0  0  0
 21 24  2  0  0  0  0
 21 23  1  0  0  0  0
 22 19  1  0  0  0  0
 22 25  2  0  0  0  0
 23 20  2  0  0  0  0
 24 22  1  0  0  0  0
 25 26  1  0  0  0  0
 27 29  2  0  0  0  0
 29 23  1  0  0  0  0
 29 28  1  0  0  0  0
 30 31  1  0  0  0  0
 31 32  1  0  0  0  0
M  END
>  <MODEL>
8

>  <REMARK>
 VINA RESULT:      -5.4      5.576      9.095
  Name = 
  5 active torsions:
  status: ('A' for Active; 'I' for Inactive)
    1  A    between atoms: C_1  and  C_4
    2  A    between atoms: C_1  and  C_27
    3  A    between atoms: C_5  and  C_27
    4  A    between atoms: C_16  and  C_27
    5  A    between atoms: C_19  and  C_26
                            x       y       z     vdW  Elec       q    Type
                         _______ _______ _______ _____ _____    ______ ____

>  <TORSDO>
F 5

$$$$
=
 OpenBabel10262421023D

 32 35  0  0  1  0  0  0  0  0999 V2000
  183.3410  177.2940  139.2810 C   0  0  1  0  0  3  0  0  0  0  0  0
  184.3580  177.0970  138.1280 C   0  0  2  0  0  3  0  0  0  0  0  0
  183.3970  178.6460  140.0130 C   0  0  2  0  0  3  0  0  0  0  0  0
  188.7250  178.4090  139.1350 C   0  0  0  0  0  2  0  0  0  0  0  0
  185.1570  178.3330  137.6960 C   0  0  0  0  0  2  0  0  0  0  0  0
  187.1550  178.6020  141.0610 C   0  0  0  0  0  2  0  0  0  0  0  0
  185.9710  178.2730  140.1560 C   0  0  1  0  0  3  0  0  0  0  0  0
  183.0100  179.8490  139.2110 C   0  0  0  0  0  3  0  0  0  0  0  0
  181.9050  176.8380  139.0260 C   0  0  2  0  0  3  0  0  0  0  0  0
  184.7140  178.9190  140.7530 C   0  0  0  0  0  2  0  0  0  0  0  0
  181.1690  177.5850  137.9610 C   0  0  0  0  0  3  0  0  0  0  0  0
  181.1690  176.8460  140.2120 O   0  0  0  0  0  1  0  0  0  0  0  0
  182.0910  179.9360  138.2470 C   0  0  0  0  0  3  0  0  0  0  0  0
  186.2670  178.6910  138.6930 C   0  0  1  0  0  3  0  0  0  0  0  0
  181.2400  178.8840  137.6620 C   0  0  0  0  0  3  0  0  0  0  0  0
  188.4250  177.9330  140.5510 C   0  0  0  0  0  2  0  0  0  0  0  0
  187.5690  178.0490  138.2110 C   0  0  0  0  0  2  0  0  0  0  0  0
  183.3560  176.1800  135.9970 C   0  0  0  0  0  1  0  0  0  0  0  0
  184.2830  175.8750  137.1720 C   0  0  1  0  0  0  0  0  0  0  0  0
  187.4140  175.8910  134.9080 C   0  0  0  0  0  3  0  0  0  0  0  0
  187.8110  174.4090  136.7670 C   0  0  0  0  0  3  0  0  0  0  0  0
  185.6720  175.5790  136.5930 C   0  0  0  0  0  0  0  0  0  0  0  0
  188.2620  175.0080  135.5880 C   0  0  0  0  0  0  0  0  0  0  0  0
  186.5370  174.6900  137.2600 C   0  0  0  0  0  3  0  0  0  0  0  0
  186.1350  176.1800  135.3910 C   0  0  0  0  0  0  0  0  0  0  0  0
  185.3020  177.1280  134.5940 C   0  0  0  0  0  1  0  0  0  0  0  0
  190.1100  173.3770  135.0910 N   0  0  0  0  0  1  0  0  0  0  0  0
  190.3560  175.6550  134.5950 N   0  0  0  0  0  2  0  0  0  0  0  0
  189.6110  174.7110  135.0720 C   0  0  0  0  0  0  0  0  0  0  0  0
  183.7170  174.6490  137.9260 C   0  0  0  0  0  2  0  0  0  0  0  0
  182.9520  173.6530  137.0580 C   0  0  0  0  0  2  0  0  0  0  0  0
  183.7030  172.3390  136.9740 C   0  0  0  0  0  1  0  0  0  0  0  0
  1  3  1  0  0  0  0
  2  1  1  0  0  0  0
  3 10  1  0  0  0  0
  4 16  1  0  0  0  0
  5  2  1  0  0  0  0
  5 14  1  0  0  0  0
  7 10  1  0  0  0  0
  7  6  1  0  0  0  0
  8  3  1  0  0  0  0
  9  1  1  0  0  0  0
  9 12  1  0  0  0  0
 11  9  1  0  0  0  0
 13  8  2  0  0  0  0
 14  7  1  0  0  0  0
 15 11  2  0  0  0  0
 15 13  1  0  0  0  0
 16  6  1  0  0  0  0
 17 14  1  0  0  0  0
 17  4  1  0  0  0  0
 18 19  1  0  0  0  0
 19 30  1  0  0  0  0
 19  2  1  0  0  0  0
 20 25  2  0  0  0  0
 20 23  1  0  0  0  0
 21 24  1  0  0  0  0
 22 19  1  0  0  0  0
 22 24  2  0  0  0  0
 23 21  2  0  0  0  0
 25 22  1  0  0  0  0
 26 25  1  0  0  0  0
 28 29  2  0  0  0  0
 29 27  1  0  0  0  0
 29 23  1  0  0  0  0
 31 30  1  0  0  0  0
 32 31  1  0  0  0  0
M  END
>  <MODEL>
9

>  <REMARK>
 VINA RESULT:      -5.4      3.979      7.358
  Name = 
  5 active torsions:
  status: ('A' for Active; 'I' for Inactive)
    1  A    between atoms: C_1  and  C_4
    2  A    between atoms: C_1  and  C_27
    3  A    between atoms: C_5  and  C_27
    4  A    between atoms: C_16  and  C_27
    5  A    between atoms: C_19  and  C_26
                            x       y       z     vdW  Elec       q    Type
                         _______ _______ _______ _____ _____    ______ ____

>  <TORSDO>
F 5

$$$$
