=
 OpenBabel10262419373D

 31 34  0  0  1  0  0  0  0  0999 V2000
  188.3920  177.3380  147.8680 C   0  0  0  0  0  0  0  0  0  0  0  0
  187.2180  177.8640  144.3390 C   0  0  0  0  0  0  0  0  0  0  0  0
  185.7840  178.3050  144.4400 C   0  0  0  0  0  0  0  0  0  0  0  0
  183.8470  179.0490  145.7230 C   0  0  0  0  0  3  0  0  0  0  0  0
  188.0310  177.5550  145.4650 C   0  0  0  0  0  0  0  0  0  0  0  0
  189.7020  176.9130  147.6450 C   0  0  0  0  0  3  0  0  0  0  0  0
  185.1980  178.7010  145.6550 C   0  0  0  0  0  3  0  0  0  0  0  0
  189.1020  177.2610  142.8990 C   0  0  0  0  0  0  0  0  0  0  0  0
  187.9210  177.4450  149.1340 F   0  0  0  0  0  0  0  0  0  0  0  0
  185.5600  177.9490  142.0260 N   0  0  0  0  0  2  0  0  0  0  0  0
  183.0560  179.0030  144.5760 C   0  0  0  0  0  3  0  0  0  0  0  0
  189.8480  176.9850  143.9990 N   0  0  0  0  0  0  0  0  0  0  0  0
  187.7740  177.6920  143.0440 C   0  0  0  0  0  0  0  0  0  0  0  0
  187.5660  177.6540  146.7880 C   0  0  0  0  0  3  0  0  0  0  0  0
  182.8220  178.5840  142.2180 O   0  0  0  0  0  1  0  0  0  0  0  0
  189.3600  177.1150  145.2550 C   0  0  0  0  0  0  0  0  0  0  0  0
  190.1840  176.8010  146.3400 C   0  0  0  0  0  3  0  0  0  0  0  0
  186.9950  178.0670  141.8110 C   0  0  0  0  0  2  0  0  0  0  0  0
  184.9800  178.2960  143.2820 C   0  0  0  0  0  0  0  0  0  0  0  0
  183.6170  178.6220  143.3560 C   0  0  0  0  0  0  0  0  0  0  0  0
  191.9180  177.4300  142.1420 O   0  0  0  0  0  0  0  0  0  0  0  0
  191.0570  177.2000  141.2500 C   0  0  0  0  0  0  0  0  0  0  0  0
  189.6650  177.1150  141.5860 N   0  0  0  0  0  2  0  0  0  0  0  0
  192.7360  177.3210  139.4930 C   0  0  0  0  0  2  0  0  0  0  0  0
  191.4920  177.0150  139.8530 C   0  0  0  0  0  0  0  0  0  0  0  0
  190.9610  175.2320  138.3750 O   0  0  0  0  0  1  0  0  0  0  0  0
  190.5260  176.4740  138.8380 C   0  0  2  0  0  3  0  0  0  0  0  0
  190.3360  177.4270  137.6570 C   0  0  0  0  0  2  0  0  0  0  0  0
  188.9770  178.1270  137.6540 C   0  0  1  0  0  3  0  0  0  0  0  0
  187.9120  177.2800  138.3270 C   0  0  0  0  0  1  0  0  0  0  0  0
  189.0550  179.3780  138.2660 O   0  0  0  0  0  1  0  0  0  0  0  0
  1  9  1  0  0  0  0
  2  3  1  0  0  0  0
  2  5  1  0  0  0  0
  3  7  1  0  0  0  0
  5 14  1  0  0  0  0
  6  1  1  0  0  0  0
  7  4  2  0  0  0  0
  8 13  1  0  0  0  0
  8 12  2  0  0  0  0
 10 19  1  0  0  0  0
 11  4  1  0  0  0  0
 12 16  1  0  0  0  0
 13  2  2  0  0  0  0
 14  1  2  0  0  0  0
 15 20  1  0  0  0  0
 16  5  2  0  0  0  0
 16 17  1  0  0  0  0
 17  6  2  0  0  0  0
 18 10  1  0  0  0  0
 18 13  1  0  0  0  0
 19 20  1  0  0  0  0
 19  3  2  0  0  0  0
 20 11  2  0  0  0  0
 22 23  1  0  0  0  0
 22 21  2  0  0  0  0
 23  8  1  0  0  0  0
 24 25  2  0  0  0  0
 25 22  1  0  0  0  0
 27 26  1  6  0  0  0
 27 25  1  0  0  0  0
 28 27  1  0  0  0  0
 29 28  1  0  0  0  0
 29 31  1  0  0  0  0
 29 30  1  1  0  0  0
M  END
>  <MODEL>
1

>  <REMARK>
 VINA RESULT:     -10.4      0.000      0.000
  Name = 
  5 active torsions:
  status: ('A' for Active; 'I' for Inactive)
    1  A    between atoms: C_1  and  C_24
    2  A    between atoms: C_9  and  C_22
    3  A    between atoms: C_15  and  N_23
    4  A    between atoms: C_19  and  C_22
    5  A    between atoms: C_19  and  C_24
                            x       y       z     vdW  Elec       q    Type
                         _______ _______ _______ _____ _____    ______ ____

>  <TORSDO>
F 5

$$$$
=
 OpenBabel10262419373D

 31 34  0  0  1  0  0  0  0  0999 V2000
  184.2030  178.8820  144.7190 C   0  0  0  0  0  0  0  0  0  0  0  0
  187.7090  177.5990  144.2980 C   0  0  0  0  0  0  0  0  0  0  0  0
  188.2750  177.4770  145.6860 C   0  0  0  0  0  0  0  0  0  0  0  0
  188.0430  177.4980  148.1140 C   0  0  0  0  0  3  0  0  0  0  0  0
  186.3920  178.0600  144.0190 C   0  0  0  0  0  0  0  0  0  0  0  0
  183.8000  178.9760  143.3860 C   0  0  0  0  0  3  0  0  0  0  0  0
  187.4760  177.5570  146.8390 C   0  0  0  0  0  3  0  0  0  0  0  0
  188.0780  177.4080  141.8870 C   0  0  0  0  0  0  0  0  0  0  0  0
  183.3480  179.2280  145.7110 F   0  0  0  0  0  0  0  0  0  0  0  0
  190.4940  177.1660  144.6940 N   0  0  0  0  0  2  0  0  0  0  0  0
  189.4230  177.3620  148.2580 C   0  0  0  0  0  3  0  0  0  0  0  0
  186.8120  177.8440  141.6630 N   0  0  0  0  0  0  0  0  0  0  0  0
  188.5550  177.2890  143.2010 C   0  0  0  0  0  0  0  0  0  0  0  0
  185.4870  178.4290  145.0300 C   0  0  0  0  0  3  0  0  0  0  0  0
  191.6100  177.1280  147.2820 O   0  0  0  0  0  1  0  0  0  0  0  0
  185.9700  178.1690  142.6730 C   0  0  0  0  0  0  0  0  0  0  0  0
  184.6830  178.6220  142.3660 C   0  0  0  0  0  3  0  0  0  0  0  0
  189.9360  176.7290  143.4230 C   0  0  0  0  0  2  0  0  0  0  0  0
  189.6650  177.3040  145.8470 C   0  0  0  0  0  0  0  0  0  0  0  0
  190.2360  177.2690  147.1280 C   0  0  0  0  0  0  0  0  0  0  0  0
  188.6150  179.0000  139.4980 O   0  0  0  0  0  0  0  0  0  0  0  0
  189.1770  177.8790  139.6250 C   0  0  0  0  0  0  0  0  0  0  0  0
  188.9330  177.0690  140.7840 N   0  0  0  0  0  2  0  0  0  0  0  0
  189.8270  177.6480  137.2920 C   0  0  0  0  0  2  0  0  0  0  0  0
  190.0940  177.4030  138.5730 C   0  0  0  0  0  0  0  0  0  0  0  0
  192.0350  177.3350  139.9440 O   0  0  0  0  0  1  0  0  0  0  0  0
  191.3350  176.6460  138.9520 C   0  0  2  0  0  3  0  0  0  0  0  0
  192.2500  176.4010  137.7520 C   0  0  0  0  0  2  0  0  0  0  0  0
  192.2820  174.9400  137.3010 C   0  0  1  0  0  3  0  0  0  0  0  0
  193.5990  174.2750  137.6610 C   0  0  0  0  0  1  0  0  0  0  0  0
  191.2170  174.2240  137.8440 O   0  0  0  0  0  1  0  0  0  0  0  0
  1 14  1  0  0  0  0
  1  9  1  0  0  0  0
  2  3  1  0  0  0  0
  3 19  2  0  0  0  0
  3  7  1  0  0  0  0
  4 11  1  0  0  0  0
  5  2  1  0  0  0  0
  5 14  2  0  0  0  0
  6  1  2  0  0  0  0
  7  4  2  0  0  0  0
  8 13  1  0  0  0  0
 10 19  1  0  0  0  0
 12  8  2  0  0  0  0
 12 16  1  0  0  0  0
 13 18  1  0  0  0  0
 13  2  2  0  0  0  0
 16  5  1  0  0  0  0
 17 16  2  0  0  0  0
 17  6  1  0  0  0  0
 18 10  1  0  0  0  0
 19 20  1  0  0  0  0
 20 15  1  0  0  0  0
 20 11  2  0  0  0  0
 21 22  2  0  0  0  0
 22 23  1  0  0  0  0
 23  8  1  0  0  0  0
 24 25  2  0  0  0  0
 25 27  1  0  0  0  0
 25 22  1  0  0  0  0
 27 26  1  1  0  0  0
 28 27  1  0  0  0  0
 29 30  1  1  0  0  0
 29 28  1  0  0  0  0
 29 31  1  0  0  0  0
M  END
>  <MODEL>
2

>  <REMARK>
 VINA RESULT:     -10.2      1.932      4.802
  Name = 
  5 active torsions:
  status: ('A' for Active; 'I' for Inactive)
    1  A    between atoms: C_1  and  C_24
    2  A    between atoms: C_9  and  C_22
    3  A    between atoms: C_15  and  N_23
    4  A    between atoms: C_19  and  C_22
    5  A    between atoms: C_19  and  C_24
                            x       y       z     vdW  Elec       q    Type
                         _______ _______ _______ _____ _____    ______ ____

>  <TORSDO>
F 5

$$$$
=
 OpenBabel10262419373D

 31 34  0  0  1  0  0  0  0  0999 V2000
  190.6220  176.7830  146.6940 C   0  0  0  0  0  0  0  0  0  0  0  0
  188.1020  177.6500  144.0450 C   0  0  0  0  0  0  0  0  0  0  0  0
  186.8620  178.0830  144.7780 C   0  0  0  0  0  0  0  0  0  0  0  0
  185.6730  178.7040  146.8150 C   0  0  0  0  0  3  0  0  0  0  0  0
  189.2980  177.2320  144.6930 C   0  0  0  0  0  0  0  0  0  0  0  0
  191.6990  176.3790  145.9050 C   0  0  0  0  0  3  0  0  0  0  0  0
  186.8560  178.3610  146.1550 C   0  0  0  0  0  3  0  0  0  0  0  0
  189.1840  177.1850  141.9000 C   0  0  0  0  0  0  0  0  0  0  0  0
  190.7290  176.7690  148.0440 F   0  0  0  0  0  0  0  0  0  0  0  0
  185.6350  177.9610  142.6610 N   0  0  0  0  0  2  0  0  0  0  0  0
  184.4740  178.7700  146.1070 C   0  0  0  0  0  3  0  0  0  0  0  0
  190.3090  176.8020  142.5560 N   0  0  0  0  0  0  0  0  0  0  0  0
  188.0590  177.6030  142.6270 C   0  0  0  0  0  0  0  0  0  0  0  0
  189.4340  177.2040  146.0920 C   0  0  0  0  0  3  0  0  0  0  0  0
  183.2570  178.5810  144.0400 O   0  0  0  0  0  1  0  0  0  0  0  0
  190.3970  176.8110  143.9070 C   0  0  0  0  0  0  0  0  0  0  0  0
  191.5850  176.3920  144.5140 C   0  0  0  0  0  3  0  0  0  0  0  0
  186.8520  178.0960  141.8730 C   0  0  0  0  0  2  0  0  0  0  0  0
  185.6480  178.1870  144.0690 C   0  0  0  0  0  0  0  0  0  0  0  0
  184.4570  178.5070  144.7370 C   0  0  0  0  0  0  0  0  0  0  0  0
  191.3980  177.6190  140.0460 O   0  0  0  0  0  0  0  0  0  0  0  0
  190.2500  177.3780  139.5830 C   0  0  0  0  0  0  0  0  0  0  0  0
  189.1400  177.1640  140.4650 N   0  0  0  0  0  2  0  0  0  0  0  0
  190.5310  176.2830  137.4280 C   0  0  0  0  0  2  0  0  0  0  0  0
  190.0560  177.3150  138.1230 C   0  0  0  0  0  0  0  0  0  0  0  0
  188.9680  179.4180  138.3300 O   0  0  0  0  0  1  0  0  0  0  0  0
  189.3120  178.4160  137.4220 C   0  0  2  0  0  3  0  0  0  0  0  0
  188.0550  177.9050  136.7160 C   0  0  0  0  0  2  0  0  0  0  0  0
  187.0600  177.2310  137.6610 C   0  0  1  0  0  3  0  0  0  0  0  0
  185.7290  177.9620  137.6830 C   0  0  0  0  0  1  0  0  0  0  0  0
  186.8690  175.8940  137.3180 O   0  0  0  0  0  1  0  0  0  0  0  0
  1  9  1  0  0  0  0
  2  5  1  0  0  0  0
  2  3  1  0  0  0  0
  3  7  1  0  0  0  0
  5 14  2  0  0  0  0
  6  1  2  0  0  0  0
  7  4  2  0  0  0  0
  8 12  2  0  0  0  0
  8 13  1  0  0  0  0
 10 19  1  0  0  0  0
 11  4  1  0  0  0  0
 12 16  1  0  0  0  0
 13  2  2  0  0  0  0
 14  1  1  0  0  0  0
 15 20  1  0  0  0  0
 16 17  2  0  0  0  0
 16  5  1  0  0  0  0
 17  6  1  0  0  0  0
 18 13  1  0  0  0  0
 18 10  1  0  0  0  0
 19 20  1  0  0  0  0
 19  3  2  0  0  0  0
 20 11  2  0  0  0  0
 22 21  2  0  0  0  0
 22 23  1  0  0  0  0
 23  8  1  0  0  0  0
 24 25  2  0  0  0  0
 25 22  1  0  0  0  0
 27 25  1  0  0  0  0
 27 26  1  1  0  0  0
 28 27  1  0  0  0  0
 28 29  1  0  0  0  0
 29 30  1  6  0  0  0
 31 29  1  0  0  0  0
M  END
>  <MODEL>
3

>  <REMARK>
 VINA RESULT:     -10.1      1.515      2.215
  Name = 
  5 active torsions:
  status: ('A' for Active; 'I' for Inactive)
    1  A    between atoms: C_1  and  C_24
    2  A    between atoms: C_9  and  C_22
    3  A    between atoms: C_15  and  N_23
    4  A    between atoms: C_19  and  C_22
    5  A    between atoms: C_19  and  C_24
                            x       y       z     vdW  Elec       q    Type
                         _______ _______ _______ _____ _____    ______ ____

>  <TORSDO>
F 5

$$$$
=
 OpenBabel10262419373D

 31 34  0  0  1  0  0  0  0  0999 V2000
  184.2890  178.8410  144.9080 C   0  0  0  0  0  0  0  0  0  0  0  0
  187.8280  177.5910  144.7690 C   0  0  0  0  0  0  0  0  0  0  0  0
  188.3340  177.6190  146.1850 C   0  0  0  0  0  0  0  0  0  0  0  0
  187.9940  177.8780  148.5860 C   0  0  0  0  0  3  0  0  0  0  0  0
  186.5180  177.9960  144.3890 C   0  0  0  0  0  0  0  0  0  0  0  0
  183.9430  178.7940  143.5570 C   0  0  0  0  0  3  0  0  0  0  0  0
  187.4830  177.7990  147.2890 C   0  0  0  0  0  3  0  0  0  0  0  0
  188.3070  177.1680  142.4060 C   0  0  0  0  0  0  0  0  0  0  0  0
  183.3850  179.2680  145.8230 F   0  0  0  0  0  0  0  0  0  0  0  0
  190.5990  177.2530  145.3250 N   0  0  0  0  0  2  0  0  0  0  0  0
  189.3680  177.7830  148.8010 C   0  0  0  0  0  3  0  0  0  0  0  0
  187.0460  177.5540  142.0870 N   0  0  0  0  0  0  0  0  0  0  0  0
  188.7270  177.1890  143.7460 C   0  0  0  0  0  0  0  0  0  0  0  0
  185.5640  178.4470  145.3180 C   0  0  0  0  0  3  0  0  0  0  0  0
  191.6000  177.4950  147.9480 O   0  0  0  0  0  1  0  0  0  0  0  0
  186.1550  177.9620  143.0210 C   0  0  0  0  0  0  0  0  0  0  0  0
  184.8770  178.3570  142.6160 C   0  0  0  0  0  3  0  0  0  0  0  0
  190.1050  176.6810  144.0810 C   0  0  0  0  0  2  0  0  0  0  0  0
  189.7180  177.4900  146.4210 C   0  0  0  0  0  0  0  0  0  0  0  0
  190.2320  177.5940  147.7220 C   0  0  0  0  0  0  0  0  0  0  0  0
  189.0760  178.6150  139.9890 O   0  0  0  0  0  0  0  0  0  0  0  0
  189.5730  177.4760  140.2050 C   0  0  0  0  0  0  0  0  0  0  0  0
  189.2150  176.7360  141.3810 N   0  0  0  0  0  2  0  0  0  0  0  0
  191.8390  177.1180  139.3940 C   0  0  0  0  0  2  0  0  0  0  0  0
  190.5330  176.9090  139.2410 C   0  0  0  0  0  0  0  0  0  0  0  0
  190.7330  174.8840  138.0130 O   0  0  0  0  0  1  0  0  0  0  0  0
  190.0320  176.0880  138.0870 C   0  0  2  0  0  3  0  0  0  0  0  0
  190.1470  176.8330  136.7560 C   0  0  0  0  0  2  0  0  0  0  0  0
  188.9110  177.6680  136.4190 C   0  0  1  0  0  3  0  0  0  0  0  0
  187.6510  177.0640  137.0130 C   0  0  0  0  0  1  0  0  0  0  0  0
  189.0630  178.9850  136.8490 O   0  0  0  0  0  1  0  0  0  0  0  0
  1 14  1  0  0  0  0
  1  9  1  0  0  0  0
  2  3  1  0  0  0  0
  3 19  2  0  0  0  0
  3  7  1  0  0  0  0
  4 11  1  0  0  0  0
  5  2  1  0  0  0  0
  5 14  2  0  0  0  0
  6  1  2  0  0  0  0
  7  4  2  0  0  0  0
  8 13  1  0  0  0  0
 10 19  1  0  0  0  0
 12  8  2  0  0  0  0
 12 16  1  0  0  0  0
 13 18  1  0  0  0  0
 13  2  2  0  0  0  0
 16  5  1  0  0  0  0
 17 16  2  0  0  0  0
 17  6  1  0  0  0  0
 18 10  1  0  0  0  0
 19 20  1  0  0  0  0
 20 15  1  0  0  0  0
 20 11  2  0  0  0  0
 21 22  2  0  0  0  0
 22 23  1  0  0  0  0
 23  8  1  0  0  0  0
 25 24  2  0  0  0  0
 25 22  1  0  0  0  0
 27 26  1  6  0  0  0
 27 25  1  0  0  0  0
 28 27  1  0  0  0  0
 29 28  1  0  0  0  0
 29 31  1  0  0  0  0
 29 30  1  1  0  0  0
M  END
>  <MODEL>
4

>  <REMARK>
 VINA RESULT:     -10.0      1.999      4.386
  Name = 
  5 active torsions:
  status: ('A' for Active; 'I' for Inactive)
    1  A    between atoms: C_1  and  C_24
    2  A    between atoms: C_9  and  C_22
    3  A    between atoms: C_15  and  N_23
    4  A    between atoms: C_19  and  C_22
    5  A    between atoms: C_19  and  C_24
                            x       y       z     vdW  Elec       q    Type
                         _______ _______ _______ _____ _____    ______ ____

>  <TORSDO>
F 5

$$$$
=
 OpenBabel10262419373D

 31 34  0  0  1  0  0  0  0  0999 V2000
  190.2530  177.0860  146.7410 C   0  0  0  0  0  0  0  0  0  0  0  0
  187.8110  177.8270  143.9840 C   0  0  0  0  0  0  0  0  0  0  0  0
  186.5370  178.2530  144.6620 C   0  0  0  0  0  0  0  0  0  0  0  0
  185.2640  178.9010  146.6390 C   0  0  0  0  0  3  0  0  0  0  0  0
  188.9910  177.4530  144.6840 C   0  0  0  0  0  0  0  0  0  0  0  0
  191.3650  176.6840  146.0010 C   0  0  0  0  0  3  0  0  0  0  0  0
  186.4760  178.5670  146.0300 C   0  0  0  0  0  3  0  0  0  0  0  0
  188.9770  177.3300  141.8910 C   0  0  0  0  0  0  0  0  0  0  0  0
  190.3120  177.1090  148.0940 F   0  0  0  0  0  0  0  0  0  0  0  0
  185.3870  178.0490  142.5070 N   0  0  0  0  0  2  0  0  0  0  0  0
  184.0900  178.9230  145.8890 C   0  0  0  0  0  3  0  0  0  0  0  0
  190.0860  176.9890  142.5960 N   0  0  0  0  0  0  0  0  0  0  0  0
  187.8180  177.7420  142.5670 C   0  0  0  0  0  0  0  0  0  0  0  0
  189.0780  177.4640  146.0880 C   0  0  0  0  0  3  0  0  0  0  0  0
  182.9500  178.6530  143.7860 O   0  0  0  0  0  1  0  0  0  0  0  0
  190.1260  177.0350  143.9480 C   0  0  0  0  0  0  0  0  0  0  0  0
  191.3000  176.6580  144.6070 C   0  0  0  0  0  3  0  0  0  0  0  0
  186.6280  178.1900  141.7590 C   0  0  0  0  0  2  0  0  0  0  0  0
  185.3460  178.3120  143.9090 C   0  0  0  0  0  0  0  0  0  0  0  0
  184.1260  178.6240  144.5260 C   0  0  0  0  0  0  0  0  0  0  0  0
  191.2880  177.5010  140.1140 O   0  0  0  0  0  0  0  0  0  0  0  0
  190.1400  177.3540  139.6130 C   0  0  0  0  0  0  0  0  0  0  0  0
  188.9830  177.2700  140.4570 N   0  0  0  0  0  2  0  0  0  0  0  0
  189.4310  178.2630  137.4710 C   0  0  0  0  0  2  0  0  0  0  0  0
  189.9940  177.2650  138.1490 C   0  0  0  0  0  0  0  0  0  0  0  0
  190.5720  174.9650  138.3010 O   0  0  0  0  0  1  0  0  0  0  0  0
  190.4900  176.0470  137.4240 C   0  0  2  0  0  3  0  0  0  0  0  0
  191.8500  176.2800  136.7640 C   0  0  0  0  0  2  0  0  0  0  0  0
  193.0220  175.7380  137.5820 C   0  0  1  0  0  3  0  0  0  0  0  0
  194.0030  174.9720  136.7110 C   0  0  0  0  0  1  0  0  0  0  0  0
  193.6790  176.7640  138.2590 O   0  0  0  0  0  1  0  0  0  0  0  0
  1  9  1  0  0  0  0
  2  3  1  0  0  0  0
  2  5  1  0  0  0  0
  3  7  1  0  0  0  0
  5 14  2  0  0  0  0
  6  1  2  0  0  0  0
  7  4  2  0  0  0  0
  8 13  1  0  0  0  0
  8 12  2  0  0  0  0
 10 19  1  0  0  0  0
 11  4  1  0  0  0  0
 12 16  1  0  0  0  0
 13  2  2  0  0  0  0
 14  1  1  0  0  0  0
 15 20  1  0  0  0  0
 16 17  2  0  0  0  0
 16  5  1  0  0  0  0
 17  6  1  0  0  0  0
 18 10  1  0  0  0  0
 18 13  1  0  0  0  0
 19 20  1  0  0  0  0
 19  3  2  0  0  0  0
 20 11  2  0  0  0  0
 22 21  2  0  0  0  0
 22 23  1  0  0  0  0
 23  8  1  0  0  0  0
 24 25  2  0  0  0  0
 25 22  1  0  0  0  0
 27 25  1  0  0  0  0
 27 26  1  1  0  0  0
 28 27  1  0  0  0  0
 28 29  1  0  0  0  0
 29 30  1  6  0  0  0
 29 31  1  0  0  0  0
M  END
>  <MODEL>
5

>  <REMARK>
 VINA RESULT:      -9.8      1.542      2.397
  Name = 
  5 active torsions:
  status: ('A' for Active; 'I' for Inactive)
    1  A    between atoms: C_1  and  C_24
    2  A    between atoms: C_9  and  C_22
    3  A    between atoms: C_15  and  N_23
    4  A    between atoms: C_19  and  C_22
    5  A    between atoms: C_19  and  C_24
                            x       y       z     vdW  Elec       q    Type
                         _______ _______ _______ _____ _____    ______ ____

>  <TORSDO>
F 5

$$$$
=
 OpenBabel10262419373D

 31 34  0  0  1  0  0  0  0  0999 V2000
  188.6870  177.2460  147.5510 C   0  0  0  0  0  0  0  0  0  0  0  0
  187.2540  177.8810  144.1370 C   0  0  0  0  0  0  0  0  0  0  0  0
  185.8300  178.3110  144.3590 C   0  0  0  0  0  0  0  0  0  0  0  0
  183.9910  179.0020  145.8060 C   0  0  0  0  0  3  0  0  0  0  0  0
  188.1490  177.5400  145.1890 C   0  0  0  0  0  0  0  0  0  0  0  0
  189.9790  176.8370  147.2180 C   0  0  0  0  0  3  0  0  0  0  0  0
  185.3340  178.6640  145.6260 C   0  0  0  0  0  3  0  0  0  0  0  0
  189.0290  177.3380  142.5430 C   0  0  0  0  0  0  0  0  0  0  0  0
  188.3110  177.3090  148.8510 F   0  0  0  0  0  0  0  0  0  0  0  0
  185.4300  178.0330  141.9580 N   0  0  0  0  0  2  0  0  0  0  0  0
  183.1170  178.9890  144.7190 C   0  0  0  0  0  3  0  0  0  0  0  0
  189.8540  177.0290  143.5750 N   0  0  0  0  0  0  0  0  0  0  0  0
  187.7140  177.7560  142.8010 C   0  0  0  0  0  0  0  0  0  0  0  0
  187.7830  177.5930  146.5460 C   0  0  0  0  0  3  0  0  0  0  0  0
  182.7100  178.6470  142.3720 O   0  0  0  0  0  1  0  0  0  0  0  0
  189.4600  177.1150  144.8680 C   0  0  0  0  0  0  0  0  0  0  0  0
  190.3630  176.7700  145.8780 C   0  0  0  0  0  3  0  0  0  0  0  0
  186.8440  178.1670  141.6410 C   0  0  0  0  0  2  0  0  0  0  0  0
  184.9420  178.3360  143.2640 C   0  0  0  0  0  0  0  0  0  0  0  0
  183.5880  178.6520  143.4490 C   0  0  0  0  0  0  0  0  0  0  0  0
  191.7880  177.4700  141.5950 O   0  0  0  0  0  0  0  0  0  0  0  0
  190.8600  177.3030  140.7580 C   0  0  0  0  0  0  0  0  0  0  0  0
  189.4930  177.2370  141.1880 N   0  0  0  0  0  2  0  0  0  0  0  0
  190.3360  177.6020  138.4000 C   0  0  0  0  0  2  0  0  0  0  0  0
  191.1900  177.1720  139.3270 C   0  0  0  0  0  0  0  0  0  0  0  0
  193.5550  177.3970  139.2640 O   0  0  0  0  0  1  0  0  0  0  0  0
  192.4970  176.5560  138.9170 C   0  0  2  0  0  3  0  0  0  0  0  0
  192.5490  176.2550  137.4180 C   0  0  0  0  0  2  0  0  0  0  0  0
  192.6090  174.7600  137.1010 C   0  0  1  0  0  3  0  0  0  0  0  0
  193.8890  174.1310  137.6220 C   0  0  0  0  0  1  0  0  0  0  0  0
  191.4990  174.0930  137.6170 O   0  0  0  0  0  1  0  0  0  0  0  0
  1  9  1  0  0  0  0
  2  3  1  0  0  0  0
  2  5  1  0  0  0  0
  3  7  1  0  0  0  0
  5 14  1  0  0  0  0
  6  1  1  0  0  0  0
  7  4  2  0  0  0  0
  8 13  1  0  0  0  0
  8 12  2  0  0  0  0
 10 19  1  0  0  0  0
 11  4  1  0  0  0  0
 12 16  1  0  0  0  0
 13  2  2  0  0  0  0
 14  1  2  0  0  0  0
 15 20  1  0  0  0  0
 16  5  2  0  0  0  0
 16 17  1  0  0  0  0
 17  6  2  0  0  0  0
 18 10  1  0  0  0  0
 18 13  1  0  0  0  0
 19 20  1  0  0  0  0
 19  3  2  0  0  0  0
 20 11  2  0  0  0  0
 22 23  1  0  0  0  0
 22 21  2  0  0  0  0
 23  8  1  0  0  0  0
 24 25  2  0  0  0  0
 25 22  1  0  0  0  0
 27 26  1  6  0  0  0
 27 25  1  0  0  0  0
 28 27  1  0  0  0  0
 29 28  1  0  0  0  0
 29 31  1  0  0  0  0
 29 30  1  1  0  0  0
M  END
>  <MODEL>
6

>  <REMARK>
 VINA RESULT:      -9.8      1.253      2.110
  Name = 
  5 active torsions:
  status: ('A' for Active; 'I' for Inactive)
    1  A    between atoms: C_1  and  C_24
    2  A    between atoms: C_9  and  C_22
    3  A    between atoms: C_15  and  N_23
    4  A    between atoms: C_19  and  C_22
    5  A    between atoms: C_19  and  C_24
                            x       y       z     vdW  Elec       q    Type
                         _______ _______ _______ _____ _____    ______ ____

>  <TORSDO>
F 5

$$$$
=
 OpenBabel10262419373D

 31 34  0  0  1  0  0  0  0  0999 V2000
  190.0460  177.6600  147.7280 C   0  0  0  0  0  0  0  0  0  0  0  0
  188.4140  177.5450  144.3460 C   0  0  0  0  0  0  0  0  0  0  0  0
  189.5330  177.4070  143.3500 C   0  0  0  0  0  0  0  0  0  0  0  0
  191.8740  177.0260  142.7840 C   0  0  0  0  0  3  0  0  0  0  0  0
  188.6130  177.6280  145.7530 C   0  0  0  0  0  0  0  0  0  0  0  0
  188.9290  177.8120  148.5500 C   0  0  0  0  0  3  0  0  0  0  0  0
  190.8480  177.0880  143.7290 C   0  0  0  0  0  3  0  0  0  0  0  0
  186.0130  177.8050  144.7410 C   0  0  0  0  0  0  0  0  0  0  0  0
  191.2840  177.5980  148.2730 F   0  0  0  0  0  0  0  0  0  0  0  0
  187.9310  177.9070  141.5650 N   0  0  0  0  0  2  0  0  0  0  0  0
  191.6020  177.2860  141.4410 C   0  0  0  0  0  3  0  0  0  0  0  0
  186.2450  177.8720  146.0770 N   0  0  0  0  0  0  0  0  0  0  0  0
  187.0880  177.6530  143.8510 C   0  0  0  0  0  0  0  0  0  0  0  0
  189.8880  177.5700  146.3440 C   0  0  0  0  0  3  0  0  0  0  0  0
  190.0410  177.8470  139.6990 O   0  0  0  0  0  1  0  0  0  0  0  0
  187.4910  177.7910  146.6000 C   0  0  0  0  0  0  0  0  0  0  0  0
  187.6550  177.8790  147.9860 C   0  0  0  0  0  3  0  0  0  0  0  0
  186.7960  177.5030  142.3810 C   0  0  0  0  0  2  0  0  0  0  0  0
  189.2670  177.6340  141.9850 C   0  0  0  0  0  0  0  0  0  0  0  0
  190.3020  177.5950  141.0400 C   0  0  0  0  0  0  0  0  0  0  0  0
  184.6480  180.1700  143.7070 O   0  0  0  0  0  0  0  0  0  0  0  0
  184.0340  179.0700  143.7290 C   0  0  0  0  0  0  0  0  0  0  0  0
  184.6730  177.8890  144.2340 N   0  0  0  0  0  2  0  0  0  0  0  0
  181.6280  178.9600  144.0800 C   0  0  0  0  0  2  0  0  0  0  0  0
  182.6490  179.0020  143.2260 C   0  0  0  0  0  0  0  0  0  0  0  0
  181.1090  178.5090  141.4840 O   0  0  0  0  0  1  0  0  0  0  0  0
  182.3940  178.9870  141.7460 C   0  0  2  0  0  3  0  0  0  0  0  0
  183.4220  178.1420  140.9920 C   0  0  0  0  0  2  0  0  0  0  0  0
  184.0750  178.8810  139.8230 C   0  0  1  0  0  3  0  0  0  0  0  0
  183.0490  179.6370  138.9980 C   0  0  0  0  0  1  0  0  0  0  0  0
  185.0680  179.7520  140.2720 O   0  0  0  0  0  1  0  0  0  0  0  0
  1  9  1  0  0  0  0
  1  6  1  0  0  0  0
  2  5  1  0  0  0  0
  3  7  1  0  0  0  0
  3  2  1  0  0  0  0
  4  7  2  0  0  0  0
  5 14  1  0  0  0  0
  5 16  2  0  0  0  0
  8 12  2  0  0  0  0
 10 19  1  0  0  0  0
 10 18  1  0  0  0  0
 11  4  1  0  0  0  0
 12 16  1  0  0  0  0
 13  2  2  0  0  0  0
 13  8  1  0  0  0  0
 14  1  2  0  0  0  0
 15 20  1  0  0  0  0
 16 17  1  0  0  0  0
 17  6  2  0  0  0  0
 18 13  1  0  0  0  0
 19  3  2  0  0  0  0
 20 11  2  0  0  0  0
 20 19  1  0  0  0  0
 21 22  2  0  0  0  0
 22 23  1  0  0  0  0
 23  8  1  0  0  0  0
 25 22  1  0  0  0  0
 25 24  2  0  0  0  0
 27 26  1  1  0  0  0
 27 25  1  0  0  0  0
 28 27  1  0  0  0  0
 29 30  1  1  0  0  0
 29 31  1  0  0  0  0
 29 28  1  0  0  0  0
M  END
>  <MODEL>
7

>  <REMARK>
 VINA RESULT:      -9.8      2.040      6.115
  Name = 
  5 active torsions:
  status: ('A' for Active; 'I' for Inactive)
    1  A    between atoms: C_1  and  C_24
    2  A    between atoms: C_9  and  C_22
    3  A    between atoms: C_15  and  N_23
    4  A    between atoms: C_19  and  C_22
    5  A    between atoms: C_19  and  C_24
                            x       y       z     vdW  Elec       q    Type
                         _______ _______ _______ _____ _____    ______ ____

>  <TORSDO>
F 5

$$$$
=
 OpenBabel10262419373D

 31 34  0  0  1  0  0  0  0  0999 V2000
  188.8770  177.1370  146.4740 C   0  0  0  0  0  0  0  0  0  0  0  0
  187.0100  178.1220  143.3660 C   0  0  0  0  0  0  0  0  0  0  0  0
  185.6040  178.4230  143.8050 C   0  0  0  0  0  0  0  0  0  0  0  0
  183.9210  178.7930  145.5320 C   0  0  0  0  0  3  0  0  0  0  0  0
  188.0430  177.7050  144.2520 C   0  0  0  0  0  0  0  0  0  0  0  0
  190.1380  176.8610  145.9430 C   0  0  0  0  0  3  0  0  0  0  0  0
  185.2480  178.5720  145.1570 C   0  0  0  0  0  3  0  0  0  0  0  0
  188.6040  177.9120  141.5210 C   0  0  0  0  0  0  0  0  0  0  0  0
  188.6590  177.0020  147.8040 F   0  0  0  0  0  0  0  0  0  0  0  0
  184.9300  178.4400  141.4490 N   0  0  0  0  0  2  0  0  0  0  0  0
  182.9250  178.8660  144.5600 C   0  0  0  0  0  3  0  0  0  0  0  0
  189.5630  177.5250  142.4000 N   0  0  0  0  0  0  0  0  0  0  0  0
  187.3100  178.2050  141.9810 C   0  0  0  0  0  0  0  0  0  0  0  0
  187.8410  177.5530  145.6350 C   0  0  0  0  0  3  0  0  0  0  0  0
  182.2540  178.8110  142.2500 O   0  0  0  0  0  1  0  0  0  0  0  0
  189.3250  177.4130  143.7280 C   0  0  0  0  0  0  0  0  0  0  0  0
  190.3590  176.9980  144.5720 C   0  0  0  0  0  3  0  0  0  0  0  0
  186.2870  178.7070  140.9960 C   0  0  0  0  0  2  0  0  0  0  0  0
  184.5900  178.5340  142.8320 C   0  0  0  0  0  0  0  0  0  0  0  0
  183.2540  178.7320  143.2110 C   0  0  0  0  0  0  0  0  0  0  0  0
  190.3100  176.1600  139.9250 O   0  0  0  0  0  0  0  0  0  0  0  0
  189.7470  177.1400  139.3670 C   0  0  0  0  0  0  0  0  0  0  0  0
  188.9050  178.0230  140.1210 N   0  0  0  0  0  2  0  0  0  0  0  0
  190.9840  176.8040  137.2980 C   0  0  0  0  0  2  0  0  0  0  0  0
  189.9560  177.3720  137.9260 C   0  0  0  0  0  0  0  0  0  0  0  0
  189.0260  179.5460  137.6800 O   0  0  0  0  0  1  0  0  0  0  0  0
  189.0020  178.2480  137.1660 C   0  0  2  0  0  3  0  0  0  0  0  0
  187.5710  177.7070  137.1990 C   0  0  0  0  0  2  0  0  0  0  0  0
  187.3280  176.5720  136.2040 C   0  0  1  0  0  3  0  0  0  0  0  0
  187.1000  175.2490  136.9130 C   0  0  0  0  0  1  0  0  0  0  0  0
  186.2510  176.8610  135.3670 O   0  0  0  0  0  1  0  0  0  0  0  0
  1  9  1  0  0  0  0
  2  3  1  0  0  0  0
  2  5  1  0  0  0  0
  3  7  1  0  0  0  0
  5 14  1  0  0  0  0
  6  1  1  0  0  0  0
  7  4  2  0  0  0  0
  8 13  1  0  0  0  0
  8 12  2  0  0  0  0
 10 19  1  0  0  0  0
 11  4  1  0  0  0  0
 12 16  1  0  0  0  0
 13  2  2  0  0  0  0
 14  1  2  0  0  0  0
 15 20  1  0  0  0  0
 16  5  2  0  0  0  0
 16 17  1  0  0  0  0
 17  6  2  0  0  0  0
 18 10  1  0  0  0  0
 18 13  1  0  0  0  0
 19 20  1  0  0  0  0
 19  3  2  0  0  0  0
 20 11  2  0  0  0  0
 22 21  2  0  0  0  0
 22 23  1  0  0  0  0
 23  8  1  0  0  0  0
 24 25  2  0  0  0  0
 25 22  1  0  0  0  0
 27 28  1  0  0  0  0
 27 26  1  1  0  0  0
 27 25  1  0  0  0  0
 29 30  1  1  0  0  0
 29 28  1  0  0  0  0
 31 29  1  0  0  0  0
M  END
>  <MODEL>
8

>  <REMARK>
 VINA RESULT:      -9.7      1.424      2.101
  Name = 
  5 active torsions:
  status: ('A' for Active; 'I' for Inactive)
    1  A    between atoms: C_1  and  C_24
    2  A    between atoms: C_9  and  C_22
    3  A    between atoms: C_15  and  N_23
    4  A    between atoms: C_19  and  C_22
    5  A    between atoms: C_19  and  C_24
                            x       y       z     vdW  Elec       q    Type
                         _______ _______ _______ _____ _____    ______ ____

>  <TORSDO>
F 5

$$$$
=
 OpenBabel10262419373D

 31 34  0  0  1  0  0  0  0  0999 V2000
  186.4790  178.0630  146.8810 C   0  0  0  0  0  0  0  0  0  0  0  0
  187.5440  178.0060  143.2790 C   0  0  0  0  0  0  0  0  0  0  0  0
  188.9700  177.5280  143.2760 C   0  0  0  0  0  0  0  0  0  0  0  0
  190.9240  176.5790  144.3860 C   0  0  0  0  0  3  0  0  0  0  0  0
  186.7690  178.1720  144.4600 C   0  0  0  0  0  0  0  0  0  0  0  0
  185.1730  178.5380  146.7580 C   0  0  0  0  0  3  0  0  0  0  0  0
  189.5800  176.9580  144.4060 C   0  0  0  0  0  3  0  0  0  0  0  0
  185.6350  178.8350  141.9920 C   0  0  0  0  0  0  0  0  0  0  0  0
  186.9810  177.7740  148.1050 F   0  0  0  0  0  0  0  0  0  0  0  0
  189.1360  178.2090  140.9280 N   0  0  0  0  0  2  0  0  0  0  0  0
  191.6840  176.7680  143.2320 C   0  0  0  0  0  3  0  0  0  0  0  0
  184.9260  178.9720  143.1410 N   0  0  0  0  0  0  0  0  0  0  0  0
  186.9570  178.3640  142.0370 C   0  0  0  0  0  0  0  0  0  0  0  0
  187.2670  177.8840  145.7430 C   0  0  0  0  0  3  0  0  0  0  0  0
  191.8640  177.5030  140.9480 O   0  0  0  0  0  1  0  0  0  0  0  0
  185.4450  178.6610  144.3530 C   0  0  0  0  0  0  0  0  0  0  0  0
  184.6580  178.8380  145.4950 C   0  0  0  0  0  3  0  0  0  0  0  0
  187.6930  178.1480  140.7410 C   0  0  0  0  0  2  0  0  0  0  0  0
  189.7430  177.6820  142.1060 C   0  0  0  0  0  0  0  0  0  0  0  0
  191.0990  177.3230  142.0940 C   0  0  0  0  0  0  0  0  0  0  0  0
  183.3970  177.5040  140.6700 O   0  0  0  0  0  0  0  0  0  0  0  0
  183.9370  178.4970  140.1100 C   0  0  0  0  0  0  0  0  0  0  0  0
  185.0400  179.1720  140.7290 N   0  0  0  0  0  2  0  0  0  0  0  0
  182.6560  180.0510  138.7440 C   0  0  0  0  0  2  0  0  0  0  0  0
  183.4220  178.9640  138.8100 C   0  0  0  0  0  0  0  0  0  0  0  0
  182.6400  177.5620  137.0560 O   0  0  0  0  0  1  0  0  0  0  0  0
  183.7690  178.2110  137.5570 C   0  0  2  0  0  3  0  0  0  0  0  0
  184.8890  177.1940  137.7860 C   0  0  0  0  0  2  0  0  0  0  0  0
  186.2030  177.5730  137.1020 C   0  0  1  0  0  3  0  0  0  0  0  0
  186.0850  177.5030  135.5900 C   0  0  0  0  0  1  0  0  0  0  0  0
  186.6240  178.8430  137.4940 O   0  0  0  0  0  1  0  0  0  0  0  0
  1  9  1  0  0  0  0
  2  5  1  0  0  0  0
  3  2  1  0  0  0  0
  3  7  1  0  0  0  0
  4  7  2  0  0  0  0
  5 14  1  0  0  0  0
  6  1  1  0  0  0  0
  8 13  1  0  0  0  0
  8 12  2  0  0  0  0
 10 19  1  0  0  0  0
 11  4  1  0  0  0  0
 12 16  1  0  0  0  0
 13  2  2  0  0  0  0
 14  1  2  0  0  0  0
 15 20  1  0  0  0  0
 16  5  2  0  0  0  0
 16 17  1  0  0  0  0
 17  6  2  0  0  0  0
 18 10  1  0  0  0  0
 18 13  1  0  0  0  0
 19  3  2  0  0  0  0
 20 19  1  0  0  0  0
 20 11  2  0  0  0  0
 22 21  2  0  0  0  0
 22 23  1  0  0  0  0
 23  8  1  0  0  0  0
 24 25  2  0  0  0  0
 25 22  1  0  0  0  0
 27 26  1  1  0  0  0
 27 28  1  0  0  0  0
 27 25  1  0  0  0  0
 29 30  1  6  0  0  0
 29 31  1  0  0  0  0
 29 28  1  0  0  0  0
M  END
>  <MODEL>
9

>  <REMARK>
 VINA RESULT:      -9.4      2.333      5.716
  Name = 
  5 active torsions:
  status: ('A' for Active; 'I' for Inactive)
    1  A    between atoms: C_1  and  C_24
    2  A    between atoms: C_9  and  C_22
    3  A    between atoms: C_15  and  N_23
    4  A    between atoms: C_19  and  C_22
    5  A    between atoms: C_19  and  C_24
                            x       y       z     vdW  Elec       q    Type
                         _______ _______ _______ _____ _____    ______ ____

>  <TORSDO>
F 5

$$$$
