=
 OpenBabel10262420023D

 27 30  0  0  1  0  0  0  0  0999 V2000
  181.1690  177.7120  140.5560 N   0  0  0  0  0  2  0  0  0  0  0  0
  179.7900  177.0470  138.7640 N   0  0  0  0  0  2  0  0  0  0  0  0
  184.6740  178.8270  141.3180 C   0  0  1  0  0  3  0  0  0  0  0  0
  183.8310  179.4370  139.0110 C   0  0  0  0  0  3  0  0  0  0  0  0
  181.1670  179.3220  138.3560 S   0  0  0  0  0  0  0  0  0  0  0  0
  185.0460  179.1010  139.8420 C   0  0  2  0  0  3  0  0  0  0  0  0
  180.5090  177.9640  139.3180 C   0  0  0  0  0  0  0  0  0  0  0  0
  182.2640  178.6310  140.7910 C   0  0  2  0  0  3  0  0  0  0  0  0
  182.5790  179.2170  139.4450 C   0  0  0  0  0  0  0  0  0  0  0  0
  183.4600  177.9060  141.3990 C   0  0  0  0  0  2  0  0  0  0  0  0
  185.7610  178.2750  142.0560 O   0  0  0  0  0  0  0  0  0  0  0  0
  185.9970  178.2570  146.2510 C   0  0  0  0  0  3  0  0  0  0  0  0
  185.8170  178.2750  143.4540 C   0  0  0  0  0  0  0  0  0  0  0  0
  184.9050  179.0110  144.2280 C   0  0  0  0  0  3  0  0  0  0  0  0
  184.9970  179.0020  145.6220 C   0  0  0  0  0  3  0  0  0  0  0  0
  186.9060  177.5200  145.4850 C   0  0  0  0  0  3  0  0  0  0  0  0
  186.8150  177.5300  144.0910 C   0  0  0  0  0  3  0  0  0  0  0  0
  185.7540  177.9140  139.1940 C   0  0  0  0  0  2  0  0  0  0  0  0
  188.1990  178.3270  138.6000 C   0  0  0  0  0  0  0  0  0  0  0  0
  187.0190  178.3330  135.5990 C   0  0  0  0  0  1  0  0  0  0  0  0
  187.0970  176.1670  136.8870 C   0  0  0  0  0  2  0  0  0  0  0  0
  189.0020  179.0670  137.7310 O   0  0  0  0  0  1  0  0  0  0  0  0
  188.2920  178.8910  139.8740 O   0  0  0  0  0  1  0  0  0  0  0  0
  186.5060  177.5780  136.8140 C   0  0  1  0  0  3  0  0  0  0  0  0
  188.5640  176.1940  137.3080 C   0  0  0  0  0  2  0  0  0  0  0  0
  188.7100  176.8850  138.6600 C   0  0  0  0  0  2  0  0  0  0  0  0
  186.7330  178.3730  138.1130 C   0  0  1  0  0  3  0  0  0  0  0  0
  1  8  1  0  0  0  0
  2  7  2  0  0  0  0
  3 10  1  0  0  0  0
  3 11  1  1  0  0  0
  4  9  2  0  0  0  0
  4  6  1  0  0  0  0
  5  7  1  0  0  0  0
  5  9  1  0  0  0  0
  6 18  1  6  0  0  0
  6  3  1  0  0  0  0
  7  1  1  0  0  0  0
  8 10  1  6  0  0  0
  9  8  1  0  0  0  0
 11 13  1  0  0  0  0
 13 17  2  0  0  0  0
 13 14  1  0  0  0  0
 14 15  2  0  0  0  0
 15 12  1  0  0  0  0
 16 12  2  0  0  0  0
 17 16  1  0  0  0  0
 19 26  1  0  0  0  0
 19 23  1  0  0  0  0
 21 25  1  0  0  0  0
 22 19  1  0  0  0  0
 24 20  1  6  0  0  0
 24 21  1  0  0  0  0
 24 27  1  0  0  0  0
 25 26  1  0  0  0  0
 27 19  1  0  0  0  0
 27 18  1  1  0  0  0
M  END
>  <MODEL>
1

>  <REMARK>
 VINA RESULT:      -7.2      0.000      0.000
  Name = 
  4 active torsions:
  status: ('A' for Active; 'I' for Inactive)
    1  A    between atoms: O_2  and  C_6
    2  A    between atoms: O_2  and  C_9
    3  A    between atoms: C_3  and  C_14
    4  A    between atoms: C_3  and  C_26
                            x       y       z     vdW  Elec       q    Type
                         _______ _______ _______ _____ _____    ______ ____

>  <TORSDO>
F 4

$$$$
=
 OpenBabel10262420023D

 27 30  0  0  1  0  0  0  0  0999 V2000
  181.5110  176.6210  140.2090 N   0  0  0  0  0  2  0  0  0  0  0  0
  180.6080  174.8760  138.9070 N   0  0  0  0  0  2  0  0  0  0  0  0
  184.3290  179.1040  140.2560 C   0  0  1  0  0  3  0  0  0  0  0  0
  183.5260  178.4350  137.9500 C   0  0  0  0  0  3  0  0  0  0  0  0
  181.1350  177.1440  137.5590 S   0  0  0  0  0  0  0  0  0  0  0  0
  184.7060  178.9000  138.7690 C   0  0  2  0  0  3  0  0  0  0  0  0
  180.9130  176.1250  139.0140 C   0  0  0  0  0  0  0  0  0  0  0  0
  182.1930  177.8820  139.9980 C   0  0  2  0  0  3  0  0  0  0  0  0
  182.3980  177.9730  138.5130 C   0  0  0  0  0  0  0  0  0  0  0  0
  183.5100  177.9220  140.7650 C   0  0  0  0  0  2  0  0  0  0  0  0
  185.4740  179.3030  141.0820 O   0  0  0  0  0  0  0  0  0  0  0  0
  185.6570  178.2240  145.1380 C   0  0  0  0  0  3  0  0  0  0  0  0
  185.5120  178.9510  142.4350 C   0  0  0  0  0  0  0  0  0  0  0  0
  184.6580  179.5480  143.3770 C   0  0  0  0  0  3  0  0  0  0  0  0
  184.7320  179.1850  144.7240 C   0  0  0  0  0  3  0  0  0  0  0  0
  186.5080  177.6240  144.2050 C   0  0  0  0  0  3  0  0  0  0  0  0
  186.4350  177.9870  142.8570 C   0  0  0  0  0  3  0  0  0  0  0  0
  185.8360  177.8880  138.5940 C   0  0  0  0  0  2  0  0  0  0  0  0
  188.2560  178.2570  137.8790 C   0  0  0  0  0  0  0  0  0  0  0  0
  186.9490  178.1360  134.9340 C   0  0  0  0  0  1  0  0  0  0  0  0
  187.0720  176.0290  136.3130 C   0  0  0  0  0  2  0  0  0  0  0  0
  189.0250  178.9520  136.9440 O   0  0  0  0  0  1  0  0  0  0  0  0
  188.4060  178.8770  139.1210 O   0  0  0  0  0  1  0  0  0  0  0  0
  186.4850  177.4400  136.2020 C   0  0  1  0  0  3  0  0  0  0  0  0
  188.5550  176.0650  136.6710 C   0  0  0  0  0  2  0  0  0  0  0  0
  188.7620  176.8160  137.9820 C   0  0  0  0  0  2  0  0  0  0  0  0
  186.7710  178.2910  137.4520 C   0  0  1  0  0  3  0  0  0  0  0  0
  2  7  2  0  0  0  0
  3 10  1  0  0  0  0
  3 11  1  1  0  0  0
  4  9  2  0  0  0  0
  4  6  1  0  0  0  0
  5  9  1  0  0  0  0
  5  7  1  0  0  0  0
  6 18  1  1  0  0  0
  6  3  1  0  0  0  0
  7  1  1  0  0  0  0
  8  1  1  0  0  0  0
  8 10  1  1  0  0  0
  9  8  1  0  0  0  0
 11 13  1  0  0  0  0
 13 17  2  0  0  0  0
 13 14  1  0  0  0  0
 14 15  2  0  0  0  0
 15 12  1  0  0  0  0
 16 12  2  0  0  0  0
 17 16  1  0  0  0  0
 19 26  1  0  0  0  0
 19 23  1  0  0  0  0
 21 25  1  0  0  0  0
 22 19  1  0  0  0  0
 24 20  1  6  0  0  0
 24 21  1  0  0  0  0
 24 27  1  0  0  0  0
 25 26  1  0  0  0  0
 27 19  1  0  0  0  0
 27 18  1  1  0  0  0
M  END
>  <MODEL>
2

>  <REMARK>
 VINA RESULT:      -7.2      1.152      1.219
  Name = 
  4 active torsions:
  status: ('A' for Active; 'I' for Inactive)
    1  A    between atoms: O_2  and  C_6
    2  A    between atoms: O_2  and  C_9
    3  A    between atoms: C_3  and  C_14
    4  A    between atoms: C_3  and  C_26
                            x       y       z     vdW  Elec       q    Type
                         _______ _______ _______ _____ _____    ______ ____

>  <TORSDO>
F 4

$$$$
=
 OpenBabel10262420023D

 27 30  0  0  1  0  0  0  0  0999 V2000
  185.2280  179.8100  145.5110 N   0  0  0  0  0  2  0  0  0  0  0  0
  186.0560  179.7840  147.7190 N   0  0  0  0  0  2  0  0  0  0  0  0
  185.9840  178.5120  142.0690 C   0  0  1  0  0  3  0  0  0  0  0  0
  186.7830  177.0430  143.9700 C   0  0  0  0  0  3  0  0  0  0  0  0
  185.8800  177.3710  146.5410 S   0  0  0  0  0  0  0  0  0  0  0  0
  187.0350  177.4820  142.5470 C   0  0  2  0  0  3  0  0  0  0  0  0
  185.5860  179.1280  146.7110 C   0  0  0  0  0  0  0  0  0  0  0  0
  185.1720  178.9190  144.3700 C   0  0  2  0  0  3  0  0  0  0  0  0
  185.9440  177.7000  144.7870 C   0  0  0  0  0  0  0  0  0  0  0  0
  185.7660  179.5830  143.1330 C   0  0  0  0  0  2  0  0  0  0  0  0
  186.3450  179.1150  140.8290 O   0  0  0  0  0  0  0  0  0  0  0  0
  185.3030  177.5030  137.0920 C   0  0  0  0  0  3  0  0  0  0  0  0
  185.9770  178.5890  139.5860 C   0  0  0  0  0  0  0  0  0  0  0  0
  184.6290  178.4350  139.2200 C   0  0  0  0  0  3  0  0  0  0  0  0
  184.2950  177.8920  137.9770 C   0  0  0  0  0  3  0  0  0  0  0  0
  186.6460  177.6560  137.4490 C   0  0  0  0  0  3  0  0  0  0  0  0
  186.9800  178.1990  138.6930 C   0  0  0  0  0  3  0  0  0  0  0  0
  188.4590  178.0260  142.4620 C   0  0  0  0  0  2  0  0  0  0  0  0
  190.6090  176.6830  142.7370 C   0  0  0  0  0  0  0  0  0  0  0  0
  190.2030  177.4870  145.8330 C   0  0  0  0  0  1  0  0  0  0  0  0
  190.8480  179.2700  144.1730 C   0  0  0  0  0  2  0  0  0  0  0  0
  191.2230  175.7660  143.5930 O   0  0  0  0  0  1  0  0  0  0  0  0
  190.1940  176.0030  141.5900 O   0  0  0  0  0  1  0  0  0  0  0  0
  189.7790  178.2570  144.5940 C   0  0  1  0  0  3  0  0  0  0  0  0
  192.0550  178.5830  143.5420 C   0  0  0  0  0  2  0  0  0  0  0  0
  191.6210  177.7580  142.3350 C   0  0  0  0  0  2  0  0  0  0  0  0
  189.3870  177.3110  143.4450 C   0  0  1  0  0  3  0  0  0  0  0  0
  1  7  1  0  0  0  0
  3 11  1  6  0  0  0
  3  6  1  0  0  0  0
  3 10  1  0  0  0  0
  4  9  2  0  0  0  0
  5  7  1  0  0  0  0
  6 18  1  1  0  0  0
  6  4  1  0  0  0  0
  7  2  2  0  0  0  0
  8 10  1  6  0  0  0
  8  9  1  0  0  0  0
  8  1  1  0  0  0  0
  9  5  1  0  0  0  0
 12 16  2  0  0  0  0
 12 15  1  0  0  0  0
 13 11  1  0  0  0  0
 14 13  1  0  0  0  0
 15 14  2  0  0  0  0
 16 17  1  0  0  0  0
 17 13  2  0  0  0  0
 19 27  1  0  0  0  0
 19 22  1  0  0  0  0
 21 24  1  0  0  0  0
 23 19  1  0  0  0  0
 24 20  1  1  0  0  0
 25 21  1  0  0  0  0
 26 19  1  0  0  0  0
 26 25  1  0  0  0  0
 27 18  1  6  0  0  0
 27 24  1  0  0  0  0
M  END
>  <MODEL>
3

>  <REMARK>
 VINA RESULT:      -7.1      3.875      6.800
  Name = 
  4 active torsions:
  status: ('A' for Active; 'I' for Inactive)
    1  A    between atoms: O_2  and  C_6
    2  A    between atoms: O_2  and  C_9
    3  A    between atoms: C_3  and  C_14
    4  A    between atoms: C_3  and  C_26
                            x       y       z     vdW  Elec       q    Type
                         _______ _______ _______ _____ _____    ______ ____

>  <TORSDO>
F 4

$$$$
=
 OpenBabel10262420023D

 27 30  0  0  1  0  0  0  0  0999 V2000
  194.2640  176.0990  137.0810 N   0  0  0  0  0  2  0  0  0  0  0  0
  194.9780  175.6380  134.8830 N   0  0  0  0  0  2  0  0  0  0  0  0
  191.1550  176.3500  139.1750 C   0  0  1  0  0  3  0  0  0  0  0  0
  191.0240  174.7120  137.2500 C   0  0  0  0  0  3  0  0  0  0  0  0
  193.2630  173.8430  135.9220 S   0  0  0  0  0  0  0  0  0  0  0  0
  190.2440  175.6520  138.1380 C   0  0  2  0  0  3  0  0  0  0  0  0
  194.3940  175.2300  135.9590 C   0  0  0  0  0  0  0  0  0  0  0  0
  193.2160  175.6710  137.9870 C   0  0  2  0  0  3  0  0  0  0  0  0
  192.3640  174.7310  137.1850 C   0  0  0  0  0  0  0  0  0  0  0  0
  192.4250  176.8670  138.5060 C   0  0  0  0  0  2  0  0  0  0  0  0
  190.4880  177.4130  139.8520 O   0  0  0  0  0  0  0  0  0  0  0  0
  188.1310  176.8660  143.2860 C   0  0  0  0  0  3  0  0  0  0  0  0
  189.7220  177.2230  141.0070 C   0  0  0  0  0  0  0  0  0  0  0  0
  190.1160  176.3250  142.0130 C   0  0  0  0  0  3  0  0  0  0  0  0
  189.3210  176.1480  143.1490 C   0  0  0  0  0  3  0  0  0  0  0  0
  187.7350  177.7630  142.2890 C   0  0  0  0  0  3  0  0  0  0  0  0
  188.5300  177.9400  141.1540 C   0  0  0  0  0  3  0  0  0  0  0  0
  189.5110  176.6520  137.2460 C   0  0  0  0  0  2  0  0  0  0  0  0
  187.2980  177.9180  137.2240 C   0  0  0  0  0  0  0  0  0  0  0  0
  186.0880  174.9330  137.0710 C   0  0  0  0  0  1  0  0  0  0  0  0
  187.3080  175.8710  135.0740 C   0  0  0  0  0  2  0  0  0  0  0  0
  186.0010  177.8610  137.7360 O   0  0  0  0  0  1  0  0  0  0  0  0
  187.9960  178.9170  137.9070 O   0  0  0  0  0  1  0  0  0  0  0  0
  187.4180  175.4420  136.5400 C   0  0  1  0  0  3  0  0  0  0  0  0
  186.5520  177.1890  134.9300 C   0  0  0  0  0  2  0  0  0  0  0  0
  187.2420  178.2820  135.7380 C   0  0  0  0  0  2  0  0  0  0  0  0
  187.9960  176.5550  137.4320 C   0  0  1  0  0  3  0  0  0  0  0  0
  1  8  1  0  0  0  0
  2  7  2  0  0  0  0
  3 11  1  6  0  0  0
  4  6  1  0  0  0  0
  5  7  1  0  0  0  0
  5  9  1  0  0  0  0
  6 18  1  6  0  0  0
  6  3  1  0  0  0  0
  7  1  1  0  0  0  0
  8 10  1  6  0  0  0
  9  4  2  0  0  0  0
  9  8  1  0  0  0  0
 10  3  1  0  0  0  0
 11 13  1  0  0  0  0
 13 17  2  0  0  0  0
 13 14  1  0  0  0  0
 14 15  2  0  0  0  0
 15 12  1  0  0  0  0
 16 12  2  0  0  0  0
 17 16  1  0  0  0  0
 19 27  1  0  0  0  0
 19 22  1  0  0  0  0
 19 23  1  0  0  0  0
 21 24  1  0  0  0  0
 24 20  1  1  0  0  0
 24 27  1  0  0  0  0
 25 21  1  0  0  0  0
 25 26  1  0  0  0  0
 26 19  1  0  0  0  0
 27 18  1  6  0  0  0
M  END
>  <MODEL>
4

>  <REMARK>
 VINA RESULT:      -7.0      5.618      7.689
  Name = 
  4 active torsions:
  status: ('A' for Active; 'I' for Inactive)
    1  A    between atoms: O_2  and  C_6
    2  A    between atoms: O_2  and  C_9
    3  A    between atoms: C_3  and  C_14
    4  A    between atoms: C_3  and  C_26
                            x       y       z     vdW  Elec       q    Type
                         _______ _______ _______ _____ _____    ______ ____

>  <TORSDO>
F 4

$$$$
=
 OpenBabel10262420023D

 27 30  0  0  1  0  0  0  0  0999 V2000
  186.4060  177.0640  137.2220 N   0  0  0  0  0  2  0  0  0  0  0  0
  187.5580  175.8970  135.5280 N   0  0  0  0  0  2  0  0  0  0  0  0
  186.9290  178.6280  140.5970 C   0  0  1  0  0  3  0  0  0  0  0  0
  188.9600  178.6320  139.0850 C   0  0  0  0  0  3  0  0  0  0  0  0
  188.7710  178.1380  136.3910 S   0  0  0  0  0  0  0  0  0  0  0  0
  188.4740  178.5990  140.5140 C   0  0  2  0  0  3  0  0  0  0  0  0
  187.4210  176.9750  136.2250 C   0  0  0  0  0  0  0  0  0  0  0  0
  186.6800  178.1060  138.1910 C   0  0  2  0  0  3  0  0  0  0  0  0
  188.1450  178.4030  138.0430 C   0  0  0  0  0  0  0  0  0  0  0  0
  186.3250  177.6440  139.6000 C   0  0  0  0  0  2  0  0  0  0  0  0
  186.4530  178.3520  141.9120 O   0  0  0  0  0  0  0  0  0  0  0  0
  182.4870  178.9860  143.1430 C   0  0  0  0  0  3  0  0  0  0  0  0
  185.1250  178.5510  142.3020 C   0  0  0  0  0  0  0  0  0  0  0  0
  184.0720  178.5290  141.3730 C   0  0  0  0  0  3  0  0  0  0  0  0
  182.7570  178.7460  141.7940 C   0  0  0  0  0  3  0  0  0  0  0  0
  183.5310  179.0070  144.0730 C   0  0  0  0  0  3  0  0  0  0  0  0
  184.8460  178.7900  143.6520 C   0  0  0  0  0  3  0  0  0  0  0  0
  189.0670  177.3650  141.1910 C   0  0  0  0  0  2  0  0  0  0  0  0
  189.1860  176.3810  143.5400 C   0  0  0  0  0  0  0  0  0  0  0  0
  190.9350  179.0330  144.0930 C   0  0  0  0  0  1  0  0  0  0  0  0
  191.8980  177.2020  142.6520 C   0  0  0  0  0  2  0  0  0  0  0  0
  189.1460  176.7540  144.8850 O   0  0  0  0  0  1  0  0  0  0  0  0
  187.9750  175.7650  143.2180 O   0  0  0  0  0  1  0  0  0  0  0  0
  190.7910  178.2500  142.7990 C   0  0  1  0  0  3  0  0  0  0  0  0
  191.6800  176.0200  143.5930 C   0  0  0  0  0  2  0  0  0  0  0  0
  190.3230  175.3780  143.3250 C   0  0  0  0  0  2  0  0  0  0  0  0
  189.3850  177.6370  142.6620 C   0  0  1  0  0  3  0  0  0  0  0  0
  1  8  1  0  0  0  0
  2  7  2  0  0  0  0
  3 11  1  1  0  0  0
  4  6  1  0  0  0  0
  5  9  1  0  0  0  0
  6  3  1  0  0  0  0
  6 18  1  6  0  0  0
  7  5  1  0  0  0  0
  7  1  1  0  0  0  0
  8 10  1  1  0  0  0
  9  8  1  0  0  0  0
  9  4  2  0  0  0  0
 10  3  1  0  0  0  0
 11 13  1  0  0  0  0
 12 16  1  0  0  0  0
 13 17  1  0  0  0  0
 14 15  1  0  0  0  0
 14 13  2  0  0  0  0
 15 12  2  0  0  0  0
 17 16  2  0  0  0  0
 19 22  1  0  0  0  0
 21 24  1  0  0  0  0
 21 25  1  0  0  0  0
 23 19  1  0  0  0  0
 24 20  1  1  0  0  0
 26 19  1  0  0  0  0
 26 25  1  0  0  0  0
 27 18  1  6  0  0  0
 27 24  1  0  0  0  0
 27 19  1  0  0  0  0
M  END
>  <MODEL>
5

>  <REMARK>
 VINA RESULT:      -6.9      3.638      5.612
  Name = 
  4 active torsions:
  status: ('A' for Active; 'I' for Inactive)
    1  A    between atoms: O_2  and  C_6
    2  A    between atoms: O_2  and  C_9
    3  A    between atoms: C_3  and  C_14
    4  A    between atoms: C_3  and  C_26
                            x       y       z     vdW  Elec       q    Type
                         _______ _______ _______ _____ _____    ______ ____

>  <TORSDO>
F 4

$$$$
=
 OpenBabel10262420023D

 27 30  0  0  1  0  0  0  0  0999 V2000
  184.9510  177.5430  142.6390 N   0  0  0  0  0  2  0  0  0  0  0  0
  183.1690  177.3960  141.1030 N   0  0  0  0  0  2  0  0  0  0  0  0
  188.6910  177.8540  142.7890 C   0  0  1  0  0  3  0  0  0  0  0  0
  187.6060  178.9110  140.7610 C   0  0  0  0  0  3  0  0  0  0  0  0
  184.9070  179.3980  140.6410 S   0  0  0  0  0  0  0  0  0  0  0  0
  188.8480  178.2430  141.2990 C   0  0  2  0  0  3  0  0  0  0  0  0
  184.1530  178.0770  141.5850 C   0  0  0  0  0  0  0  0  0  0  0  0
  186.2410  178.1950  142.7350 C   0  0  2  0  0  3  0  0  0  0  0  0
  186.4330  178.8810  141.4130 C   0  0  0  0  0  0  0  0  0  0  0  0
  187.3420  177.1810  143.0240 C   0  0  0  0  0  2  0  0  0  0  0  0
  189.7480  177.0110  143.2410 O   0  0  0  0  0  0  0  0  0  0  0  0
  190.9860  176.7530  147.2480 C   0  0  0  0  0  3  0  0  0  0  0  0
  190.1370  176.9240  144.5820 C   0  0  0  0  0  0  0  0  0  0  0  0
  189.2840  177.3230  145.6250 C   0  0  0  0  0  3  0  0  0  0  0  0
  189.7090  177.2370  146.9530 C   0  0  0  0  0  3  0  0  0  0  0  0
  191.8380  176.3520  146.2140 C   0  0  0  0  0  3  0  0  0  0  0  0
  191.4130  176.4380  144.8860 C   0  0  0  0  0  3  0  0  0  0  0  0
  189.1610  177.0360  140.4170 C   0  0  0  0  0  2  0  0  0  0  0  0
  190.4520  176.3400  138.3310 C   0  0  0  0  0  0  0  0  0  0  0  0
  189.0400  178.9670  137.1070 C   0  0  0  0  0  1  0  0  0  0  0  0
  187.6330  176.9390  137.6170 C   0  0  0  0  0  2  0  0  0  0  0  0
  191.1870  176.8740  137.2720 O   0  0  0  0  0  1  0  0  0  0  0  0
  191.3410  175.7380  139.2240 O   0  0  0  0  0  1  0  0  0  0  0  0
  188.5260  178.0400  138.1960 C   0  0  1  0  0  3  0  0  0  0  0  0
  188.4490  175.8890  136.8690 C   0  0  0  0  0  2  0  0  0  0  0  0
  189.4920  175.2740  137.7970 C   0  0  0  0  0  2  0  0  0  0  0  0
  189.6780  177.4710  139.0450 C   0  0  1  0  0  3  0  0  0  0  0  0
  1  8  1  0  0  0  0
  2  7  2  0  0  0  0
  3 10  1  0  0  0  0
  3 11  1  6  0  0  0
  4  6  1  0  0  0  0
  4  9  2  0  0  0  0
  5  9  1  0  0  0  0
  5  7  1  0  0  0  0
  6 18  1  6  0  0  0
  6  3  1  0  0  0  0
  7  1  1  0  0  0  0
  8 10  1  6  0  0  0
  9  8  1  0  0  0  0
 11 13  1  0  0  0  0
 13 17  2  0  0  0  0
 13 14  1  0  0  0  0
 14 15  2  0  0  0  0
 15 12  1  0  0  0  0
 16 12  2  0  0  0  0
 17 16  1  0  0  0  0
 19 27  1  0  0  0  0
 19 23  1  0  0  0  0
 21 24  1  0  0  0  0
 22 19  1  0  0  0  0
 24 20  1  6  0  0  0
 24 27  1  0  0  0  0
 25 21  1  0  0  0  0
 25 26  1  0  0  0  0
 26 19  1  0  0  0  0
 27 18  1  1  0  0  0
M  END
>  <MODEL>
6

>  <REMARK>
 VINA RESULT:      -6.8      2.877      4.013
  Name = 
  4 active torsions:
  status: ('A' for Active; 'I' for Inactive)
    1  A    between atoms: O_2  and  C_6
    2  A    between atoms: O_2  and  C_9
    3  A    between atoms: C_3  and  C_14
    4  A    between atoms: C_3  and  C_26
                            x       y       z     vdW  Elec       q    Type
                         _______ _______ _______ _____ _____    ______ ____

>  <TORSDO>
F 4

$$$$
=
 OpenBabel10262420023D

 27 30  0  0  1  0  0  0  0  0999 V2000
  188.3100  175.5240  137.3450 N   0  0  0  0  0  2  0  0  0  0  0  0
  189.1720  173.3520  137.0350 N   0  0  0  0  0  2  0  0  0  0  0  0
  188.4280  178.4260  139.7270 C   0  0  1  0  0  3  0  0  0  0  0  0
  190.5320  177.0190  139.6420 C   0  0  0  0  0  3  0  0  0  0  0  0
  191.0070  175.2320  137.6140 S   0  0  0  0  0  0  0  0  0  0  0  0
  189.6630  177.9060  140.5020 C   0  0  2  0  0  3  0  0  0  0  0  0
  189.3930  174.6180  137.1450 C   0  0  0  0  0  0  0  0  0  0  0  0
  188.7480  176.7890  137.8990 C   0  0  2  0  0  3  0  0  0  0  0  0
  190.1090  176.5150  138.4720 C   0  0  0  0  0  0  0  0  0  0  0  0
  187.7670  177.2880  138.9540 C   0  0  0  0  0  2  0  0  0  0  0  0
  187.4790  179.0570  140.5830 O   0  0  0  0  0  0  0  0  0  0  0  0
  183.3990  178.0630  140.7060 C   0  0  0  0  0  3  0  0  0  0  0  0
  186.1220  178.7210  140.6010 C   0  0  0  0  0  0  0  0  0  0  0  0
  185.3400  178.7450  139.4340 C   0  0  0  0  0  3  0  0  0  0  0  0
  183.9830  178.4180  139.4880 C   0  0  0  0  0  3  0  0  0  0  0  0
  184.1720  178.0350  141.8710 C   0  0  0  0  0  3  0  0  0  0  0  0
  185.5300  178.3620  141.8170 C   0  0  0  0  0  3  0  0  0  0  0  0
  189.2730  177.1240  141.7530 C   0  0  0  0  0  2  0  0  0  0  0  0
  188.9970  177.2190  144.2860 C   0  0  0  0  0  0  0  0  0  0  0  0
  191.0440  179.6910  143.9820 C   0  0  0  0  0  1  0  0  0  0  0  0
  191.8780  177.3470  143.5810 C   0  0  0  0  0  2  0  0  0  0  0  0
  188.8690  178.1270  145.3390 O   0  0  0  0  0  1  0  0  0  0  0  0
  187.7510  176.6330  144.0560 O   0  0  0  0  0  1  0  0  0  0  0  0
  190.9260  178.4510  143.1120 C   0  0  1  0  0  3  0  0  0  0  0  0
  191.3920  176.6970  144.8730 C   0  0  0  0  0  2  0  0  0  0  0  0
  189.9920  176.1240  144.6800 C   0  0  0  0  0  2  0  0  0  0  0  0
  189.4690  177.9630  143.0170 C   0  0  1  0  0  3  0  0  0  0  0  0
  1  8  1  0  0  0  0
  2  7  2  0  0  0  0
  3  6  1  0  0  0  0
  3 11  1  1  0  0  0
  4  6  1  0  0  0  0
  5  9  1  0  0  0  0
  6 18  1  1  0  0  0
  7  1  1  0  0  0  0
  7  5  1  0  0  0  0
  8  9  1  0  0  0  0
  8 10  1  1  0  0  0
  9  4  2  0  0  0  0
 10  3  1  0  0  0  0
 11 13  1  0  0  0  0
 12 16  1  0  0  0  0
 13 17  1  0  0  0  0
 14 15  1  0  0  0  0
 14 13  2  0  0  0  0
 15 12  2  0  0  0  0
 17 16  2  0  0  0  0
 19 26  1  0  0  0  0
 19 22  1  0  0  0  0
 21 25  1  0  0  0  0
 23 19  1  0  0  0  0
 24 21  1  0  0  0  0
 24 20  1  1  0  0  0
 26 25  1  0  0  0  0
 27 18  1  6  0  0  0
 27 24  1  0  0  0  0
 27 19  1  0  0  0  0
M  END
>  <MODEL>
7

>  <REMARK>
 VINA RESULT:      -6.7      4.108      6.791
  Name = 
  4 active torsions:
  status: ('A' for Active; 'I' for Inactive)
    1  A    between atoms: O_2  and  C_6
    2  A    between atoms: O_2  and  C_9
    3  A    between atoms: C_3  and  C_14
    4  A    between atoms: C_3  and  C_26
                            x       y       z     vdW  Elec       q    Type
                         _______ _______ _______ _____ _____    ______ ____

>  <TORSDO>
F 4

$$$$
=
 OpenBabel10262420023D

 27 30  0  0  1  0  0  0  0  0999 V2000
  186.7040  177.7340  138.2810 N   0  0  0  0  0  2  0  0  0  0  0  0
  187.8460  176.6280  136.5410 N   0  0  0  0  0  2  0  0  0  0  0  0
  186.9790  178.5340  141.9410 C   0  0  1  0  0  3  0  0  0  0  0  0
  189.1870  178.3050  140.7220 C   0  0  0  0  0  3  0  0  0  0  0  0
  189.3470  178.3340  137.9820 S   0  0  0  0  0  0  0  0  0  0  0  0
  188.4750  178.1490  142.0450 C   0  0  2  0  0  3  0  0  0  0  0  0
  187.8280  177.5740  137.4190 C   0  0  0  0  0  0  0  0  0  0  0  0
  187.0280  178.5000  139.4670 C   0  0  2  0  0  3  0  0  0  0  0  0
  188.5260  178.4590  139.5640 C   0  0  0  0  0  0  0  0  0  0  0  0
  186.3540  177.9060  140.6990 C   0  0  0  0  0  2  0  0  0  0  0  0
  186.2440  178.1630  143.1040 O   0  0  0  0  0  0  0  0  0  0  0  0
  182.1660  179.0490  143.5880 C   0  0  0  0  0  3  0  0  0  0  0  0
  184.8920  178.4700  143.2850 C   0  0  0  0  0  0  0  0  0  0  0  0
  184.3680  178.7750  144.5530 C   0  0  0  0  0  3  0  0  0  0  0  0
  183.0080  179.0620  144.7020 C   0  0  0  0  0  3  0  0  0  0  0  0
  182.6820  178.7480  142.3240 C   0  0  0  0  0  3  0  0  0  0  0  0
  184.0410  178.4600  142.1740 C   0  0  0  0  0  3  0  0  0  0  0  0
  188.6710  176.7130  142.5250 C   0  0  0  0  0  2  0  0  0  0  0  0
  190.8540  176.1480  143.7140 C   0  0  0  0  0  0  0  0  0  0  0  0
  189.5320  177.9230  146.0590 C   0  0  0  0  0  1  0  0  0  0  0  0
  190.3050  179.0570  143.9440 C   0  0  0  0  0  2  0  0  0  0  0  0
  191.3570  175.8010  144.9700 O   0  0  0  0  0  1  0  0  0  0  0  0
  190.8640  175.0090  142.9060 O   0  0  0  0  0  1  0  0  0  0  0  0
  189.3340  178.0440  144.5570 C   0  0  1  0  0  3  0  0  0  0  0  0
  191.7270  178.5060  143.8860 C   0  0  0  0  0  2  0  0  0  0  0  0
  191.7570  177.2100  143.0820 C   0  0  0  0  0  2  0  0  0  0  0  0
  189.4080  176.6710  143.8650 C   0  0  1  0  0  3  0  0  0  0  0  0
  1  8  1  0  0  0  0
  2  7  2  0  0  0  0
  3  6  1  0  0  0  0
  3 11  1  1  0  0  0
  4  6  1  0  0  0  0
  5  9  1  0  0  0  0
  6 18  1  6  0  0  0
  7  5  1  0  0  0  0
  7  1  1  0  0  0  0
  8  9  1  0  0  0  0
  8 10  1  1  0  0  0
  9  4  2  0  0  0  0
 10  3  1  0  0  0  0
 11 13  1  0  0  0  0
 12 15  1  0  0  0  0
 13 14  1  0  0  0  0
 14 15  2  0  0  0  0
 16 12  2  0  0  0  0
 17 16  1  0  0  0  0
 17 13  2  0  0  0  0
 19 27  1  0  0  0  0
 19 22  1  0  0  0  0
 21 24  1  0  0  0  0
 23 19  1  0  0  0  0
 24 20  1  1  0  0  0
 25 21  1  0  0  0  0
 26 19  1  0  0  0  0
 26 25  1  0  0  0  0
 27 18  1  6  0  0  0
 27 24  1  0  0  0  0
M  END
>  <MODEL>
8

>  <REMARK>
 VINA RESULT:      -6.7      3.827      5.993
  Name = 
  4 active torsions:
  status: ('A' for Active; 'I' for Inactive)
    1  A    between atoms: O_2  and  C_6
    2  A    between atoms: O_2  and  C_9
    3  A    between atoms: C_3  and  C_14
    4  A    between atoms: C_3  and  C_26
                            x       y       z     vdW  Elec       q    Type
                         _______ _______ _______ _____ _____    ______ ____

>  <TORSDO>
F 4

$$$$
=
 OpenBabel10262420023D

 27 30  0  0  1  0  0  0  0  0999 V2000
  187.3430  179.0490  148.0900 N   0  0  0  0  0  2  0  0  0  0  0  0
  189.3180  178.6160  149.3000 N   0  0  0  0  0  2  0  0  0  0  0  0
  185.6850  178.3160  144.8000 C   0  0  1  0  0  3  0  0  0  0  0  0
  187.2540  176.5140  145.6370 C   0  0  0  0  0  3  0  0  0  0  0  0
  188.1380  176.4450  148.2350 S   0  0  0  0  0  0  0  0  0  0  0  0
  186.6570  177.1740  144.4170 C   0  0  2  0  0  3  0  0  0  0  0  0
  188.2520  178.1600  148.7340 C   0  0  0  0  0  0  0  0  0  0  0  0
  186.4880  178.3660  147.1390 C   0  0  2  0  0  3  0  0  0  0  0  0
  187.1780  177.0610  146.8610 C   0  0  0  0  0  0  0  0  0  0  0  0
  186.3030  179.2010  145.8780 C   0  0  0  0  0  2  0  0  0  0  0  0
  185.3060  179.1020  143.6730 O   0  0  0  0  0  0  0  0  0  0  0  0
  181.6060  178.6830  141.7270 C   0  0  0  0  0  3  0  0  0  0  0  0
  184.0850  178.9490  143.0090 C   0  0  0  0  0  0  0  0  0  0  0  0
  184.0240  178.6250  141.6430 C   0  0  0  0  0  3  0  0  0  0  0  0
  182.7870  178.4940  141.0050 C   0  0  0  0  0  3  0  0  0  0  0  0
  181.6610  179.0030  143.0870 C   0  0  0  0  0  3  0  0  0  0  0  0
  182.8970  179.1350  143.7250 C   0  0  0  0  0  3  0  0  0  0  0  0
  187.8010  177.6610  143.5310 C   0  0  0  0  0  2  0  0  0  0  0  0
  189.9140  176.4910  142.7130 C   0  0  0  0  0  0  0  0  0  0  0  0
  190.9590  177.2530  145.6670 C   0  0  0  0  0  1  0  0  0  0  0  0
  190.6220  179.0860  143.9690 C   0  0  0  0  0  2  0  0  0  0  0  0
  190.9200  175.6240  143.1440 O   0  0  0  0  0  1  0  0  0  0  0  0
  189.0560  175.7830  141.8690 O   0  0  0  0  0  1  0  0  0  0  0  0
  189.9500  177.9910  144.8020 C   0  0  1  0  0  3  0  0  0  0  0  0
  191.4350  178.4970  142.8190 C   0  0  0  0  0  2  0  0  0  0  0  0
  190.5410  177.6440  141.9260 C   0  0  0  0  0  2  0  0  0  0  0  0
  189.1290  177.0190  143.9350 C   0  0  1  0  0  3  0  0  0  0  0  0
  1  7  1  0  0  0  0
  3 11  1  6  0  0  0
  3 10  1  0  0  0  0
  4  9  2  0  0  0  0
  5  7  1  0  0  0  0
  6 18  1  6  0  0  0
  6  3  1  0  0  0  0
  6  4  1  0  0  0  0
  7  2  2  0  0  0  0
  8 10  1  6  0  0  0
  8  1  1  0  0  0  0
  9  8  1  0  0  0  0
  9  5  1  0  0  0  0
 12 16  1  0  0  0  0
 13 11  1  0  0  0  0
 13 17  1  0  0  0  0
 14 13  2  0  0  0  0
 15 14  1  0  0  0  0
 15 12  2  0  0  0  0
 16 17  2  0  0  0  0
 19 22  1  0  0  0  0
 19 27  1  0  0  0  0
 21 24  1  0  0  0  0
 23 19  1  0  0  0  0
 24 20  1  6  0  0  0
 25 21  1  0  0  0  0
 26 19  1  0  0  0  0
 26 25  1  0  0  0  0
 27 18  1  6  0  0  0
 27 24  1  0  0  0  0
M  END
>  <MODEL>
9

>  <REMARK>
 VINA RESULT:      -6.3      5.009      7.410
  Name = 
  4 active torsions:
  status: ('A' for Active; 'I' for Inactive)
    1  A    between atoms: O_2  and  C_6
    2  A    between atoms: O_2  and  C_9
    3  A    between atoms: C_3  and  C_14
    4  A    between atoms: C_3  and  C_26
                            x       y       z     vdW  Elec       q    Type
                         _______ _______ _______ _____ _____    ______ ____

>  <TORSDO>
F 4

$$$$
