=
 OpenBabel10262423183D

 34 37  0  0  1  0  0  0  0  0999 V2000
  187.3100  178.3970  140.3990 C   0  0  1  0  0  3  0  0  0  0  0  0
  183.6410  178.4430  140.8810 C   0  0  0  0  0  3  0  0  0  0  0  0
  184.9040  178.2430  138.9290 N   0  0  0  0  0  0  0  0  0  0  0  0
  188.6550  178.4130  137.9600 S   0  0  0  0  0  0  0  0  0  0  0  0
  187.4860  180.1510  136.3590 O   0  0  0  0  0  0  0  0  0  0  0  0
  187.4580  179.0050  136.7760 C   0  0  0  0  0  0  0  0  0  0  0  0
  185.9950  177.9490  138.3000 C   0  0  0  0  0  0  0  0  0  0  0  0
  187.2990  177.7710  139.0230 C   0  0  2  0  0  3  0  0  0  0  0  0
  186.0490  177.9600  136.5210 S   0  0  0  0  0  0  0  0  0  0  0  0
  183.1810  178.6140  142.2600 C   0  0  0  0  0  2  0  0  0  0  0  0
  183.8620  178.8980  143.3640 C   0  0  0  0  0  0  0  0  0  0  0  0
  185.3080  179.1320  143.4320 C   0  0  0  0  0  3  0  0  0  0  0  0
  184.8600  178.4210  140.3470 C   0  0  0  0  0  0  0  0  0  0  0  0
  186.2400  179.0050  142.4960 C   0  0  0  0  0  3  0  0  0  0  0  0
  186.1490  178.5960  141.0820 C   0  0  0  0  0  0  0  0  0  0  0  0
  183.1090  179.0110  144.5710 N   0  0  0  0  0  2  0  0  0  0  0  0
  183.7120  179.0360  145.7840 O   0  0  0  0  0  1  0  0  0  0  0  0
  188.6000  178.5710  141.0100 N   0  0  0  0  0  2  0  0  0  0  0  0
  189.6320  177.5420  141.0750 C   0  0  0  0  0  2  0  0  0  0  0  0
  189.9830  178.4910  144.6430 C   0  0  0  0  0  2  0  0  0  0  0  0
  188.4020  176.5970  144.0430 C   0  0  0  0  0  2  0  0  0  0  0  0
  188.8060  177.6220  145.1160 C   0  0  1  0  0  3  0  0  0  0  0  0
  191.7220  177.2320  142.3860 C   0  0  0  0  0  1  0  0  0  0  0  0
  189.6000  176.1970  143.1860 C   0  0  0  0  0  2  0  0  0  0  0  0
  190.2160  177.4220  142.4800 C   0  0  2  0  0  0  0  0  0  0  0  0
  189.9350  178.6820  143.1930 N   0  0  0  0  0  2  0  0  0  0  0  0
  189.1340  176.9450  146.4600 C   0  0  1  0  0  3  0  0  0  0  0  0
  190.5230  177.3580  146.9770 C   0  0  1  0  0  3  0  0  0  0  0  0
  190.4920  177.9500  148.3810 C   0  0  0  0  0  1  0  0  0  0  0  0
  191.5130  176.2420  146.8700 C   0  0  0  0  0  0  0  0  0  0  0  0
  191.9380  175.8230  145.6170 O   0  0  0  0  0  0  0  0  0  0  0  0
  191.9430  175.6590  147.9020 O   0  0  0  0  0  1  0  0  0  0  0  0
  186.9310  178.0300  146.9000 C   0  0  0  0  0  1  0  0  0  0  0  0
  188.0500  177.2070  147.5080 C   0  0  0  0  0  2  0  0  0  0  0  0
  1 18  1  1  0  0  0
  1 15  1  0  0  0  0
  2 10  1  0  0  0  0
  3 13  1  0  0  0  0
  5  6  2  0  0  0  0
  6  4  1  0  0  0  0
  7  3  2  0  0  0  0
  7  8  1  0  0  0  0
  8  4  1  6  0  0  0
  8  1  1  0  0  0  0
  9  6  1  0  0  0  0
  9  7  1  0  0  0  0
 10 11  1  0  0  0  0
 11 12  2  0  0  0  0
 11 16  1  0  0  0  0
 13  2  2  0  0  0  0
 13 15  1  0  0  0  0
 14 12  1  0  0  0  0
 15 14  2  0  0  0  0
 16 17  1  0  0  0  0
 18 19  1  0  0  0  0
 19 25  1  0  0  0  0
 20 22  1  0  0  0  0
 21 22  1  0  0  0  0
 22 27  1  1  0  0  0
 24 21  1  0  0  0  0
 25 23  1  6  0  0  0
 25 24  1  0  0  0  0
 25 26  1  0  0  0  0
 26 20  1  0  0  0  0
 27 28  1  0  0  0  0
 27 34  1  1  0  0  0
 28 29  1  1  0  0  0
 30 28  1  0  0  0  0
 30 32  1  0  0  0  0
 31 30  2  0  0  0  0
 33 34  1  0  0  0  0
M  END
>  <MODEL>
1

>  <REMARK>
 VINA RESULT:      -8.3      0.000      0.000
  Name = 
  8 active torsions:
  status: ('A' for Active; 'I' for Inactive)
    1  A    between atoms: C_1  and  N_9
    2  A    between atoms: N_3  and  C_25
    3  A    between atoms: C_7  and  C_11
    4  A    between atoms: C_7  and  C_14
    5  A    between atoms: C_8  and  N_9
    6  A    between atoms: C_8  and  C_30
    7  A    between atoms: C_14  and  C_16
    8  A    between atoms: C_14  and  C_29
                            x       y       z     vdW  Elec       q    Type
                         _______ _______ _______ _____ _____    ______ ____

>  <TORSDO>
F 8

$$$$
=
 OpenBabel10262423183D

 34 37  0  0  1  0  0  0  0  0999 V2000
  187.3280  178.2940  140.3480 C   0  0  1  0  0  3  0  0  0  0  0  0
  183.6520  178.4410  140.7420 C   0  0  0  0  0  3  0  0  0  0  0  0
  184.9540  178.1850  138.8230 N   0  0  0  0  0  0  0  0  0  0  0  0
  188.7300  178.2450  137.9410 S   0  0  0  0  0  0  0  0  0  0  0  0
  187.6450  179.9940  136.2930 O   0  0  0  0  0  0  0  0  0  0  0  0
  187.5770  178.8540  136.7220 C   0  0  0  0  0  0  0  0  0  0  0  0
  186.0520  177.8550  138.2240 C   0  0  0  0  0  0  0  0  0  0  0  0
  187.3340  177.6520  138.9800 C   0  0  2  0  0  3  0  0  0  0  0  0
  186.1480  177.8430  136.4470 S   0  0  0  0  0  0  0  0  0  0  0  0
  183.1650  178.6400  142.1080 C   0  0  0  0  0  2  0  0  0  0  0  0
  183.8270  178.9200  143.2240 C   0  0  0  0  0  0  0  0  0  0  0  0
  185.2760  179.1180  143.3240 C   0  0  0  0  0  3  0  0  0  0  0  0
  184.8830  178.3810  140.2380 C   0  0  0  0  0  0  0  0  0  0  0  0
  186.2260  178.9540  142.4120 C   0  0  0  0  0  3  0  0  0  0  0  0
  186.1570  178.5320  141.0010 C   0  0  0  0  0  0  0  0  0  0  0  0
  183.0490  179.0670  144.4120 N   0  0  0  0  0  2  0  0  0  0  0  0
  183.6250  179.1020  145.6370 O   0  0  0  0  0  1  0  0  0  0  0  0
  188.6080  178.4420  140.9870 N   0  0  0  0  0  2  0  0  0  0  0  0
  189.5590  177.3550  141.2010 C   0  0  0  0  0  2  0  0  0  0  0  0
  190.0640  178.8110  144.5750 C   0  0  0  0  0  2  0  0  0  0  0  0
  188.5070  176.8190  144.3350 C   0  0  0  0  0  2  0  0  0  0  0  0
  188.9360  177.9940  145.2290 C   0  0  1  0  0  3  0  0  0  0  0  0
  191.7200  177.2780  142.4280 C   0  0  0  0  0  1  0  0  0  0  0  0
  189.6710  176.3250  143.4800 C   0  0  0  0  0  2  0  0  0  0  0  0
  190.2160  177.4490  142.5760 C   0  0  2  0  0  0  0  0  0  0  0  0
  189.9370  178.7920  143.1170 N   0  0  0  0  0  2  0  0  0  0  0  0
  189.3500  177.5220  146.6350 C   0  0  1  0  0  3  0  0  0  0  0  0
  188.1410  177.4370  147.5830 C   0  0  1  0  0  3  0  0  0  0  0  0
  188.4000  178.0600  148.9490 C   0  0  0  0  0  1  0  0  0  0  0  0
  186.8990  177.9830  146.9530 C   0  0  0  0  0  0  0  0  0  0  0  0
  186.4920  179.2770  147.2520 O   0  0  0  0  0  1  0  0  0  0  0  0
  186.2020  177.2740  146.1790 O   0  0  0  0  0  0  0  0  0  0  0  0
  191.5750  176.4290  146.9150 C   0  0  0  0  0  1  0  0  0  0  0  0
  190.1130  176.1970  146.5880 C   0  0  0  0  0  2  0  0  0  0  0  0
  1 18  1  1  0  0  0
  1 15  1  0  0  0  0
  2 10  1  0  0  0  0
  3 13  1  0  0  0  0
  5  6  2  0  0  0  0
  6  4  1  0  0  0  0
  7  3  2  0  0  0  0
  7  8  1  0  0  0  0
  8  4  1  6  0  0  0
  8  1  1  0  0  0  0
  9  6  1  0  0  0  0
  9  7  1  0  0  0  0
 10 11  1  0  0  0  0
 11 12  2  0  0  0  0
 11 16  1  0  0  0  0
 13  2  2  0  0  0  0
 13 15  1  0  0  0  0
 14 12  1  0  0  0  0
 15 14  2  0  0  0  0
 16 17  1  0  0  0  0
 18 19  1  0  0  0  0
 19 25  1  0  0  0  0
 20 22  1  0  0  0  0
 21 22  1  0  0  0  0
 22 27  1  1  0  0  0
 24 21  1  0  0  0  0
 25 23  1  6  0  0  0
 25 26  1  0  0  0  0
 25 24  1  0  0  0  0
 26 20  1  0  0  0  0
 27 34  1  6  0  0  0
 27 28  1  0  0  0  0
 28 29  1  1  0  0  0
 30 31  1  0  0  0  0
 30 28  1  0  0  0  0
 32 30  2  0  0  0  0
 34 33  1  0  0  0  0
M  END
>  <MODEL>
2

>  <REMARK>
 VINA RESULT:      -7.5      1.548      2.098
  Name = 
  8 active torsions:
  status: ('A' for Active; 'I' for Inactive)
    1  A    between atoms: C_1  and  N_9
    2  A    between atoms: N_3  and  C_25
    3  A    between atoms: C_7  and  C_11
    4  A    between atoms: C_7  and  C_14
    5  A    between atoms: C_8  and  N_9
    6  A    between atoms: C_8  and  C_30
    7  A    between atoms: C_14  and  C_16
    8  A    between atoms: C_14  and  C_29
                            x       y       z     vdW  Elec       q    Type
                         _______ _______ _______ _____ _____    ______ ____

>  <TORSDO>
F 8

$$$$
=
 OpenBabel10262423183D

 34 37  0  0  1  0  0  0  0  0999 V2000
  187.6420  177.4570  143.6290 C   0  0  1  0  0  3  0  0  0  0  0  0
  188.7810  177.3260  147.1480 C   0  0  0  0  0  3  0  0  0  0  0  0
  186.7180  177.9490  146.2510 N   0  0  0  0  0  0  0  0  0  0  0  0
  185.2180  178.4790  142.7150 S   0  0  0  0  0  0  0  0  0  0  0  0
  184.7180  180.7350  143.9830 O   0  0  0  0  0  0  0  0  0  0  0  0
  184.6270  179.5210  144.0390 C   0  0  0  0  0  0  0  0  0  0  0  0
  185.8320  177.9360  145.3100 C   0  0  0  0  0  0  0  0  0  0  0  0
  186.1600  177.4630  143.9230 C   0  0  2  0  0  3  0  0  0  0  0  0
  184.2370  178.6880  145.5540 S   0  0  0  0  0  0  0  0  0  0  0  0
  190.1690  176.9080  147.3530 C   0  0  0  0  0  2  0  0  0  0  0  0
  191.1420  176.7000  146.4760 C   0  0  0  0  0  0  0  0  0  0  0  0
  191.0280  176.8740  145.0240 C   0  0  0  0  0  3  0  0  0  0  0  0
  188.0660  177.5190  146.0410 C   0  0  0  0  0  0  0  0  0  0  0  0
  189.9650  177.1410  144.2760 C   0  0  0  0  0  3  0  0  0  0  0  0
  188.5520  177.3620  144.6380 C   0  0  0  0  0  0  0  0  0  0  0  0
  192.4080  176.3050  147.0030 N   0  0  0  0  0  2  0  0  0  0  0  0
  192.6750  176.3670  148.3300 O   0  0  0  0  0  1  0  0  0  0  0  0
  188.0170  177.3490  142.2440 N   0  0  0  0  0  2  0  0  0  0  0  0
  188.1790  178.4820  141.3390 C   0  0  0  0  0  2  0  0  0  0  0  0
  189.6860  178.4930  137.9500 C   0  0  0  0  0  2  0  0  0  0  0  0
  190.4900  176.7640  139.6280 C   0  0  0  0  0  2  0  0  0  0  0  0
  190.7980  177.4910  138.3080 C   0  0  1  0  0  3  0  0  0  0  0  0
  186.9230  177.9170  139.2690 C   0  0  0  0  0  1  0  0  0  0  0  0
  188.9850  176.6390  139.8480 C   0  0  0  0  0  2  0  0  0  0  0  0
  188.3080  178.0250  139.8880 C   0  0  2  0  0  0  0  0  0  0  0  0
  189.0810  179.0480  139.1610 N   0  0  0  0  0  2  0  0  0  0  0  0
  191.0340  176.5030  137.1520 C   0  0  1  0  0  3  0  0  0  0  0  0
  191.7080  175.2090  137.6420 C   0  0  1  0  0  3  0  0  0  0  0  0
  191.1650  173.9540  136.9680 C   0  0  0  0  0  1  0  0  0  0  0  0
  193.1990  175.2850  137.5490 C   0  0  0  0  0  0  0  0  0  0  0  0
  193.7930  176.4150  137.0030 O   0  0  0  0  0  0  0  0  0  0  0  0
  193.9190  174.3240  137.9320 O   0  0  0  0  0  1  0  0  0  0  0  0
  189.8930  176.6150  134.9360 C   0  0  0  0  0  1  0  0  0  0  0  0
  189.7430  176.2020  136.3880 C   0  0  0  0  0  2  0  0  0  0  0  0
  1 18  1  6  0  0  0
  1  8  1  0  0  0  0
  1 15  1  0  0  0  0
  2 10  1  0  0  0  0
  4  6  1  0  0  0  0
  5  6  2  0  0  0  0
  6  9  1  0  0  0  0
  7  9  1  0  0  0  0
  7  3  2  0  0  0  0
  8  4  1  6  0  0  0
  8  7  1  0  0  0  0
 11 16  1  0  0  0  0
 11 10  1  0  0  0  0
 12 11  2  0  0  0  0
 13  3  1  0  0  0  0
 13  2  2  0  0  0  0
 14 15  2  0  0  0  0
 14 12  1  0  0  0  0
 15 13  1  0  0  0  0
 16 17  1  0  0  0  0
 19 18  1  0  0  0  0
 20 22  1  0  0  0  0
 20 26  1  0  0  0  0
 21 24  1  0  0  0  0
 22 27  1  6  0  0  0
 22 21  1  0  0  0  0
 24 25  1  0  0  0  0
 25 23  1  6  0  0  0
 25 19  1  0  0  0  0
 26 25  1  0  0  0  0
 27 34  1  1  0  0  0
 27 28  1  0  0  0  0
 28 29  1  6  0  0  0
 30 28  1  0  0  0  0
 30 32  1  0  0  0  0
 31 30  2  0  0  0  0
 33 34  1  0  0  0  0
M  END
>  <MODEL>
3

>  <REMARK>
 VINA RESULT:      -7.3      3.694      7.677
  Name = 
  8 active torsions:
  status: ('A' for Active; 'I' for Inactive)
    1  A    between atoms: C_1  and  N_9
    2  A    between atoms: N_3  and  C_25
    3  A    between atoms: C_7  and  C_11
    4  A    between atoms: C_7  and  C_14
    5  A    between atoms: C_8  and  N_9
    6  A    between atoms: C_8  and  C_30
    7  A    between atoms: C_14  and  C_16
    8  A    between atoms: C_14  and  C_29
                            x       y       z     vdW  Elec       q    Type
                         _______ _______ _______ _____ _____    ______ ____

>  <TORSDO>
F 8

$$$$
=
 OpenBabel10262423183D

 34 37  0  0  1  0  0  0  0  0999 V2000
  190.0540  177.4030  138.2330 C   0  0  1  0  0  3  0  0  0  0  0  0
  191.9400  175.9420  135.4040 C   0  0  0  0  0  3  0  0  0  0  0  0
  189.7150  176.6320  135.5380 N   0  0  0  0  0  0  0  0  0  0  0  0
  187.3200  177.9310  138.2970 S   0  0  0  0  0  0  0  0  0  0  0  0
  186.0380  175.8920  137.2240 O   0  0  0  0  0  0  0  0  0  0  0  0
  186.6250  176.9340  136.9890 C   0  0  0  0  0  0  0  0  0  0  0  0
  188.7660  177.3300  136.0720 C   0  0  0  0  0  0  0  0  0  0  0  0
  188.9290  177.9900  137.4110 C   0  0  2  0  0  3  0  0  0  0  0  0
  187.1410  177.3580  135.3470 S   0  0  0  0  0  0  0  0  0  0  0  0
  193.3350  175.5940  135.6810 C   0  0  0  0  0  3  0  0  0  0  0  0
  194.0080  175.5840  136.8250 C   0  0  0  0  0  0  0  0  0  0  0  0
  193.4530  175.9240  138.1390 C   0  0  0  0  0  3  0  0  0  0  0  0
  190.9780  176.4370  136.1800 C   0  0  1  0  0  3  0  0  0  0  0  0
  192.2610  176.4100  138.4630 C   0  0  0  0  0  3  0  0  0  0  0  0
  191.0960  176.7650  137.6320 C   0  0  0  0  0  0  0  0  0  0  0  0
  195.3750  175.1770  136.7620 N   0  0  0  0  0  2  0  0  0  0  0  0
  196.0960  174.9410  137.8840 O   0  0  0  0  0  1  0  0  0  0  0  0
  190.0600  177.7340  139.6330 N   0  0  0  0  0  2  0  0  0  0  0  0
  189.1730  177.1430  140.6290 C   0  0  0  0  0  2  0  0  0  0  0  0
  189.4870  178.4360  144.0920 C   0  0  0  0  0  2  0  0  0  0  0  0
  188.0690  176.3670  143.6940 C   0  0  0  0  0  2  0  0  0  0  0  0
  188.3960  177.5140  144.6640 C   0  0  1  0  0  3  0  0  0  0  0  0
  191.2990  177.1330  141.9180 C   0  0  0  0  0  1  0  0  0  0  0  0
  189.2860  175.9950  142.8510 C   0  0  0  0  0  2  0  0  0  0  0  0
  189.7840  177.2010  142.0270 C   0  0  2  0  0  0  0  0  0  0  0  0
  189.4030  178.4910  142.6310 N   0  0  0  0  0  2  0  0  0  0  0  0
  188.8000  176.9910  146.0550 C   0  0  1  0  0  3  0  0  0  0  0  0
  190.0710  177.6870  146.5740 C   0  0  1  0  0  3  0  0  0  0  0  0
  189.9020  178.2950  147.9610 C   0  0  0  0  0  1  0  0  0  0  0  0
  191.2660  176.7890  146.5060 C   0  0  0  0  0  0  0  0  0  0  0  0
  191.9730  176.5040  147.6660 O   0  0  0  0  0  1  0  0  0  0  0  0
  191.6540  176.3130  145.4060 O   0  0  0  0  0  0  0  0  0  0  0  0
  186.5490  177.9750  146.4880 C   0  0  0  0  0  1  0  0  0  0  0  0
  187.6530  177.1070  147.0610 C   0  0  0  0  0  2  0  0  0  0  0  0
  1 18  1  6  0  0  0
  2 10  2  0  0  0  0
  3  7  2  0  0  0  0
  3 13  1  0  0  0  0
  6  5  2  0  0  0  0
  6  4  1  0  0  0  0
  8  7  1  6  0  0  0
  8  1  1  0  0  0  0
  8  4  1  0  0  0  0
  9  7  1  0  0  0  0
  9  6  1  0  0  0  0
 10 11  1  0  0  0  0
 11 12  2  0  0  0  0
 12 14  1  0  0  0  0
 13  2  1  1  0  0  0
 13 15  1  0  0  0  0
 15  1  1  0  0  0  0
 15 14  2  0  0  0  0
 16 11  1  0  0  0  0
 16 17  1  0  0  0  0
 18 19  1  0  0  0  0
 19 25  1  0  0  0  0
 20 22  1  0  0  0  0
 21 22  1  0  0  0  0
 22 27  1  1  0  0  0
 24 21  1  0  0  0  0
 25 23  1  6  0  0  0
 25 26  1  0  0  0  0
 25 24  1  0  0  0  0
 26 20  1  0  0  0  0
 27 28  1  0  0  0  0
 27 34  1  1  0  0  0
 28 29  1  1  0  0  0
 30 28  1  0  0  0  0
 30 31  1  0  0  0  0
 32 30  2  0  0  0  0
 33 34  1  0  0  0  0
M  END
>  <MODEL>
4

>  <REMARK>
 VINA RESULT:      -7.2      3.576      6.089
  Name = 
  8 active torsions:
  status: ('A' for Active; 'I' for Inactive)
    1  A    between atoms: C_1  and  N_9
    2  A    between atoms: N_3  and  C_25
    3  A    between atoms: C_7  and  C_11
    4  A    between atoms: C_7  and  C_14
    5  A    between atoms: C_8  and  N_9
    6  A    between atoms: C_8  and  C_30
    7  A    between atoms: C_14  and  C_16
    8  A    between atoms: C_14  and  C_29
                            x       y       z     vdW  Elec       q    Type
                         _______ _______ _______ _____ _____    ______ ____

>  <TORSDO>
F 8

$$$$
=
 OpenBabel10262423183D

 34 37  0  0  1  0  0  0  0  0999 V2000
  190.5590  176.3670  138.9100 C   0  0  1  0  0  3  0  0  0  0  0  0
  188.0840  177.5580  136.4300 C   0  0  0  0  0  3  0  0  0  0  0  0
  190.1920  176.6070  136.1210 N   0  0  0  0  0  0  0  0  0  0  0  0
  193.1490  175.4950  138.3700 S   0  0  0  0  0  0  0  0  0  0  0  0
  194.2420  177.1260  136.6110 O   0  0  0  0  0  0  0  0  0  0  0  0
  193.5290  176.1480  136.7530 C   0  0  0  0  0  0  0  0  0  0  0  0
  191.1920  175.8910  136.5220 C   0  0  0  0  0  0  0  0  0  0  0  0
  191.3570  175.5010  137.9620 C   0  0  2  0  0  3  0  0  0  0  0  0
  192.5410  175.5190  135.4220 S   0  0  0  0  0  0  0  0  0  0  0  0
  186.8550  178.1320  136.9820 C   0  0  0  0  0  3  0  0  0  0  0  0
  186.5330  178.4310  138.2340 C   0  0  0  0  0  0  0  0  0  0  0  0
  187.4040  178.2520  139.4000 C   0  0  0  0  0  3  0  0  0  0  0  0
  189.1800  177.0780  137.0150 C   0  0  1  0  0  3  0  0  0  0  0  0
  188.5940  177.6730  139.4970 C   0  0  0  0  0  3  0  0  0  0  0  0
  189.4470  177.0260  138.4830 C   0  0  0  0  0  0  0  0  0  0  0  0
  185.2420  179.0010  138.4460 N   0  0  0  0  0  2  0  0  0  0  0  0
  184.8910  179.5380  139.6390 O   0  0  0  0  0  1  0  0  0  0  0  0
  190.9180  176.2870  140.3010 N   0  0  0  0  0  2  0  0  0  0  0  0
  191.2610  177.4330  141.1370 C   0  0  0  0  0  2  0  0  0  0  0  0
  189.9730  178.3870  144.4810 C   0  0  0  0  0  2  0  0  0  0  0  0
  188.3960  177.2340  142.8590 C   0  0  0  0  0  2  0  0  0  0  0  0
  188.5050  178.0820  144.1370 C   0  0  1  0  0  3  0  0  0  0  0  0
  192.0470  176.4080  143.2610 C   0  0  0  0  0  1  0  0  0  0  0  0
  189.6220  176.3430  142.6830 C   0  0  0  0  0  2  0  0  0  0  0  0
  190.9150  177.1810  142.6020 C   0  0  2  0  0  0  0  0  0  0  0  0
  190.7780  178.4910  143.2640 N   0  0  0  0  0  2  0  0  0  0  0  0
  187.7930  177.4150  145.3280 C   0  0  1  0  0  3  0  0  0  0  0  0
  187.9450  178.2460  146.6150 C   0  0  1  0  0  3  0  0  0  0  0  0
  186.6140  178.7120  147.1930 C   0  0  0  0  0  1  0  0  0  0  0  0
  188.7750  177.5410  147.6400 C   0  0  0  0  0  0  0  0  0  0  0  0
  189.5750  176.4730  147.2560 O   0  0  0  0  0  0  0  0  0  0  0  0
  188.7340  177.8850  148.8520 O   0  0  0  0  0  1  0  0  0  0  0  0
  185.7540  178.2200  144.1380 C   0  0  0  0  0  1  0  0  0  0  0  0
  186.3210  177.1280  145.0230 C   0  0  0  0  0  2  0  0  0  0  0  0
  1 18  1  1  0  0  0
  2 10  2  0  0  0  0
  3  7  2  0  0  0  0
  3 13  1  0  0  0  0
  5  6  2  0  0  0  0
  6  4  1  0  0  0  0
  8  7  1  6  0  0  0
  8  4  1  0  0  0  0
  8  1  1  0  0  0  0
  9  7  1  0  0  0  0
  9  6  1  0  0  0  0
 10 11  1  0  0  0  0
 11 16  1  0  0  0  0
 11 12  2  0  0  0  0
 12 14  1  0  0  0  0
 13  2  1  6  0  0  0
 13 15  1  0  0  0  0
 15  1  1  0  0  0  0
 15 14  2  0  0  0  0
 16 17  1  0  0  0  0
 18 19  1  0  0  0  0
 19 25  1  0  0  0  0
 21 22  1  0  0  0  0
 22 20  1  0  0  0  0
 22 27  1  1  0  0  0
 24 21  1  0  0  0  0
 25 24  1  0  0  0  0
 25 23  1  1  0  0  0
 25 26  1  0  0  0  0
 26 20  1  0  0  0  0
 27 34  1  6  0  0  0
 27 28  1  0  0  0  0
 28 29  1  1  0  0  0
 28 30  1  0  0  0  0
 30 32  1  0  0  0  0
 31 30  2  0  0  0  0
 33 34  1  0  0  0  0
M  END
>  <MODEL>
5

>  <REMARK>
 VINA RESULT:      -7.1      3.052      4.465
  Name = 
  8 active torsions:
  status: ('A' for Active; 'I' for Inactive)
    1  A    between atoms: C_1  and  N_9
    2  A    between atoms: N_3  and  C_25
    3  A    between atoms: C_7  and  C_11
    4  A    between atoms: C_7  and  C_14
    5  A    between atoms: C_8  and  N_9
    6  A    between atoms: C_8  and  C_30
    7  A    between atoms: C_14  and  C_16
    8  A    between atoms: C_14  and  C_29
                            x       y       z     vdW  Elec       q    Type
                         _______ _______ _______ _____ _____    ______ ____

>  <TORSDO>
F 8

$$$$
=
 OpenBabel10262423183D

 34 37  0  0  1  0  0  0  0  0999 V2000
  188.8200  177.6120  143.3400 C   0  0  1  0  0  3  0  0  0  0  0  0
  186.9120  178.1550  146.4640 C   0  0  0  0  0  3  0  0  0  0  0  0
  189.1300  177.5030  146.1450 N   0  0  0  0  0  0  0  0  0  0  0  0
  191.3990  176.5760  143.1400 S   0  0  0  0  0  0  0  0  0  0  0  0
  191.6180  174.5260  144.7820 O   0  0  0  0  0  0  0  0  0  0  0  0
  191.6830  175.7400  144.6910 C   0  0  0  0  0  0  0  0  0  0  0  0
  190.2070  177.4280  145.4320 C   0  0  0  0  0  0  0  0  0  0  0  0
  190.1980  177.7030  143.9560 C   0  0  2  0  0  3  0  0  0  0  0  0
  191.7110  176.7780  146.1270 S   0  0  0  0  0  0  0  0  0  0  0  0
  185.5100  178.5400  146.2950 C   0  0  0  0  0  2  0  0  0  0  0  0
  184.7590  178.5930  145.2020 C   0  0  0  0  0  0  0  0  0  0  0  0
  185.2010  178.2360  143.8500 C   0  0  0  0  0  3  0  0  0  0  0  0
  187.8610  177.8470  145.5820 C   0  0  0  0  0  0  0  0  0  0  0  0
  186.4090  177.9160  143.4030 C   0  0  0  0  0  3  0  0  0  0  0  0
  187.7050  177.8010  144.0970 C   0  0  0  0  0  0  0  0  0  0  0  0
  183.4020  179.0030  145.3740 N   0  0  0  0  0  2  0  0  0  0  0  0
  182.5470  179.0840  144.3260 O   0  0  0  0  0  1  0  0  0  0  0  0
  188.7690  177.5220  141.9050 N   0  0  0  0  0  2  0  0  0  0  0  0
  188.5320  178.6520  141.0120 C   0  0  0  0  0  2  0  0  0  0  0  0
  189.3320  178.5010  137.3930 C   0  0  0  0  0  2  0  0  0  0  0  0
  190.2380  176.6790  138.9120 C   0  0  0  0  0  2  0  0  0  0  0  0
  190.3650  177.3710  137.5450 C   0  0  1  0  0  3  0  0  0  0  0  0
  186.8350  178.2540  139.2390 C   0  0  0  0  0  1  0  0  0  0  0  0
  188.8020  176.7340  139.4260 C   0  0  0  0  0  2  0  0  0  0  0  0
  188.3170  178.1910  139.5730 C   0  0  2  0  0  0  0  0  0  0  0  0
  189.0480  179.1190  138.6900 N   0  0  0  0  0  2  0  0  0  0  0  0
  190.2490  176.3690  136.3820 C   0  0  1  0  0  3  0  0  0  0  0  0
  191.0620  175.0900  136.6540 C   0  0  1  0  0  3  0  0  0  0  0  0
  190.2210  173.8200  136.6120 C   0  0  0  0  0  1  0  0  0  0  0  0
  192.2590  174.9900  135.7620 C   0  0  0  0  0  0  0  0  0  0  0  0
  192.4150  175.8950  134.7220 O   0  0  0  0  0  0  0  0  0  0  0  0
  193.1110  174.0750  135.9260 O   0  0  0  0  0  1  0  0  0  0  0  0
  188.5080  176.3320  134.5960 C   0  0  0  0  0  1  0  0  0  0  0  0
  188.7910  176.0400  136.0570 C   0  0  0  0  0  2  0  0  0  0  0  0
  1 18  1  6  0  0  0
  1  8  1  0  0  0  0
  1 15  1  0  0  0  0
  4  6  1  0  0  0  0
  6  5  2  0  0  0  0
  6  9  1  0  0  0  0
  7  9  1  0  0  0  0
  7  3  2  0  0  0  0
  8  4  1  6  0  0  0
  8  7  1  0  0  0  0
 10  2  1  0  0  0  0
 11 16  1  0  0  0  0
 11 10  1  0  0  0  0
 12 11  2  0  0  0  0
 13  3  1  0  0  0  0
 13  2  2  0  0  0  0
 14 12  1  0  0  0  0
 14 15  2  0  0  0  0
 15 13  1  0  0  0  0
 17 16  1  0  0  0  0
 19 18  1  0  0  0  0
 20 22  1  0  0  0  0
 20 26  1  0  0  0  0
 21 24  1  0  0  0  0
 22 27  1  6  0  0  0
 22 21  1  0  0  0  0
 24 25  1  0  0  0  0
 25 23  1  6  0  0  0
 25 19  1  0  0  0  0
 26 25  1  0  0  0  0
 27 34  1  1  0  0  0
 27 28  1  0  0  0  0
 28 29  1  6  0  0  0
 30 32  1  0  0  0  0
 30 28  1  0  0  0  0
 31 30  2  0  0  0  0
 33 34  1  0  0  0  0
M  END
>  <MODEL>
6

>  <REMARK>
 VINA RESULT:      -6.9      3.610      7.602
  Name = 
  8 active torsions:
  status: ('A' for Active; 'I' for Inactive)
    1  A    between atoms: C_1  and  N_9
    2  A    between atoms: N_3  and  C_25
    3  A    between atoms: C_7  and  C_11
    4  A    between atoms: C_7  and  C_14
    5  A    between atoms: C_8  and  N_9
    6  A    between atoms: C_8  and  C_30
    7  A    between atoms: C_14  and  C_16
    8  A    between atoms: C_14  and  C_29
                            x       y       z     vdW  Elec       q    Type
                         _______ _______ _______ _____ _____    ______ ____

>  <TORSDO>
F 8

$$$$
=
 OpenBabel10262423183D

 34 37  0  0  1  0  0  0  0  0999 V2000
  182.5810  178.7810  141.3530 C   0  0  1  0  0  3  0  0  0  0  0  0
  183.7820  177.8790  137.9710 C   0  0  0  0  0  3  0  0  0  0  0  0
  181.6480  177.7290  138.9040 N   0  0  0  0  0  0  0  0  0  0  0  0
  180.0430  178.2900  142.3890 S   0  0  0  0  0  0  0  0  0  0  0  0
  179.3120  175.8480  141.7170 O   0  0  0  0  0  0  0  0  0  0  0  0
  179.3590  177.0090  141.3500 C   0  0  0  0  0  0  0  0  0  0  0  0
  180.7550  178.0770  139.7720 C   0  0  0  0  0  0  0  0  0  0  0  0
  181.1120  178.8550  141.0050 C   0  0  2  0  0  3  0  0  0  0  0  0
  179.0890  177.4590  139.6570 S   0  0  0  0  0  0  0  0  0  0  0  0
  185.2110  178.0820  137.7270 C   0  0  0  0  0  3  0  0  0  0  0  0
  186.1880  178.4060  138.5650 C   0  0  0  0  0  0  0  0  0  0  0  0
  186.0320  178.6260  140.0060 C   0  0  0  0  0  3  0  0  0  0  0  0
  183.0330  178.0540  139.0570 C   0  0  1  0  0  3  0  0  0  0  0  0
  184.9340  178.6730  140.7490 C   0  0  0  0  0  3  0  0  0  0  0  0
  183.5110  178.5170  140.3940 C   0  0  0  0  0  0  0  0  0  0  0  0
  187.4990  178.5160  138.0100 N   0  0  0  0  0  2  0  0  0  0  0  0
  188.5940  178.6360  138.7980 O   0  0  0  0  0  1  0  0  0  0  0  0
  182.9440  179.2020  142.6800 N   0  0  0  0  0  2  0  0  0  0  0  0
  183.4600  178.3180  143.7190 C   0  0  0  0  0  2  0  0  0  0  0  0
  186.0140  178.6210  146.3920 C   0  0  0  0  0  2  0  0  0  0  0  0
  186.4640  177.0360  144.4600 C   0  0  0  0  0  2  0  0  0  0  0  0
  186.8510  177.4300  145.8950 C   0  0  1  0  0  3  0  0  0  0  0  0
  184.7740  180.3850  144.1430 C   0  0  0  0  0  1  0  0  0  0  0  0
  185.9620  178.2440  143.6740 C   0  0  0  0  0  2  0  0  0  0  0  0
  184.7310  178.8790  144.3510 C   0  0  2  0  0  0  0  0  0  0  0  0
  184.6760  178.5970  145.7980 N   0  0  0  0  0  2  0  0  0  0  0  0
  188.3550  177.7330  146.0190 C   0  0  1  0  0  3  0  0  0  0  0  0
  188.9740  177.0350  147.2440 C   0  0  1  0  0  3  0  0  0  0  0  0
  190.4030  176.5600  147.0100 C   0  0  0  0  0  1  0  0  0  0  0  0
  188.8650  177.8740  148.4780 C   0  0  0  0  0  0  0  0  0  0  0  0
  187.6930  177.8500  149.2210 O   0  0  0  0  0  1  0  0  0  0  0  0
  189.8140  178.6240  148.8340 O   0  0  0  0  0  0  0  0  0  0  0  0
  189.7770  178.6220  144.1720 C   0  0  0  0  0  1  0  0  0  0  0  0
  189.1140  177.3810  144.7380 C   0  0  0  0  0  2  0  0  0  0  0  0
  1 18  1  6  0  0  0
  3 13  1  0  0  0  0
  3  7  2  0  0  0  0
  6  5  2  0  0  0  0
  6  4  1  0  0  0  0
  8  7  1  6  0  0  0
  8  1  1  0  0  0  0
  8  4  1  0  0  0  0
  9  7  1  0  0  0  0
  9  6  1  0  0  0  0
 10  2  2  0  0  0  0
 10 11  1  0  0  0  0
 11 12  2  0  0  0  0
 12 14  1  0  0  0  0
 13  2  1  1  0  0  0
 13 15  1  0  0  0  0
 15 14  2  0  0  0  0
 15  1  1  0  0  0  0
 16 11  1  0  0  0  0
 16 17  1  0  0  0  0
 18 19  1  0  0  0  0
 19 25  1  0  0  0  0
 21 22  1  0  0  0  0
 22 27  1  6  0  0  0
 22 20  1  0  0  0  0
 24 25  1  0  0  0  0
 24 21  1  0  0  0  0
 25 23  1  6  0  0  0
 25 26  1  0  0  0  0
 26 20  1  0  0  0  0
 27 34  1  6  0  0  0
 27 28  1  0  0  0  0
 28 29  1  6  0  0  0
 28 30  1  0  0  0  0
 30 32  2  0  0  0  0
 30 31  1  0  0  0  0
 33 34  1  0  0  0  0
M  END
>  <MODEL>
7

>  <REMARK>
 VINA RESULT:      -6.9      3.144      5.540
  Name = 
  8 active torsions:
  status: ('A' for Active; 'I' for Inactive)
    1  A    between atoms: C_1  and  N_9
    2  A    between atoms: N_3  and  C_25
    3  A    between atoms: C_7  and  C_11
    4  A    between atoms: C_7  and  C_14
    5  A    between atoms: C_8  and  N_9
    6  A    between atoms: C_8  and  C_30
    7  A    between atoms: C_14  and  C_16
    8  A    between atoms: C_14  and  C_29
                            x       y       z     vdW  Elec       q    Type
                         _______ _______ _______ _____ _____    ______ ____

>  <TORSDO>
F 8

$$$$
=
 OpenBabel10262423183D

 34 37  0  0  1  0  0  0  0  0999 V2000
  188.3340  177.9540  140.3470 C   0  0  1  0  0  3  0  0  0  0  0  0
  190.3760  176.4890  143.0640 C   0  0  0  0  0  3  0  0  0  0  0  0
  190.6700  176.4200  140.7500 N   0  0  0  0  0  0  0  0  0  0  0  0
  188.6900  177.5520  137.6140 S   0  0  0  0  0  0  0  0  0  0  0  0
  189.1820  174.9960  137.1910 O   0  0  0  0  0  0  0  0  0  0  0  0
  189.6770  176.0700  137.4890 C   0  0  0  0  0  0  0  0  0  0  0  0
  190.4710  176.8840  139.5590 C   0  0  0  0  0  0  0  0  0  0  0  0
  189.3980  177.8950  139.2750 C   0  0  2  0  0  3  0  0  0  0  0  0
  191.3150  176.1810  138.1580 S   0  0  0  0  0  0  0  0  0  0  0  0
  189.8780  176.7060  144.4230 C   0  0  0  0  0  2  0  0  0  0  0  0
  188.7310  177.2250  144.8460 C   0  0  0  0  0  0  0  0  0  0  0  0
  187.6470  177.7040  143.9820 C   0  0  0  0  0  3  0  0  0  0  0  0
  189.8870  176.8310  141.8740 C   0  0  0  0  0  0  0  0  0  0  0  0
  187.6020  177.8410  142.6630 C   0  0  0  0  0  3  0  0  0  0  0  0
  188.6060  177.5560  141.6210 C   0  0  0  0  0  0  0  0  0  0  0  0
  188.5380  177.2890  146.2590 N   0  0  0  0  0  2  0  0  0  0  0  0
  189.4250  176.7380  147.1220 O   0  0  0  0  0  1  0  0  0  0  0  0
  187.1150  178.6320  139.9980 N   0  0  0  0  0  2  0  0  0  0  0  0
  185.9390  177.9830  139.4280 C   0  0  0  0  0  2  0  0  0  0  0  0
  183.1200  180.3690  139.0800 C   0  0  0  0  0  2  0  0  0  0  0  0
  182.7790  177.9710  138.3180 C   0  0  0  0  0  2  0  0  0  0  0  0
  182.2570  179.4150  138.2360 C   0  0  1  0  0  3  0  0  0  0  0  0
  184.7470  179.0020  141.3580 C   0  0  0  0  0  1  0  0  0  0  0  0
  183.4610  177.7070  139.6580 C   0  0  0  0  0  2  0  0  0  0  0  0
  184.6500  178.6660  139.8770 C   0  0  2  0  0  0  0  0  0  0  0  0
  184.5120  179.9170  139.1100 N   0  0  0  0  0  2  0  0  0  0  0  0
  180.7770  179.5130  138.6450 C   0  0  1  0  0  3  0  0  0  0  0  0
  180.5760  180.4970  139.8120 C   0  0  1  0  0  3  0  0  0  0  0  0
  179.5440  181.5780  139.5180 C   0  0  0  0  0  1  0  0  0  0  0  0
  180.2840  179.7880  141.0960 C   0  0  0  0  0  0  0  0  0  0  0  0
  180.0320  180.5270  142.2440 O   0  0  0  0  0  1  0  0  0  0  0  0
  180.2930  178.5290  141.1550 O   0  0  0  0  0  0  0  0  0  0  0  0
  180.7310  180.3120  136.2820 C   0  0  0  0  0  1  0  0  0  0  0  0
  179.8810  179.8710  137.4580 C   0  0  0  0  0  2  0  0  0  0  0  0
  1 18  1  1  0  0  0
  1 15  1  0  0  0  0
  2 10  1  0  0  0  0
  3 13  1  0  0  0  0
  5  6  2  0  0  0  0
  6  4  1  0  0  0  0
  6  9  1  0  0  0  0
  7  3  2  0  0  0  0
  8  4  1  6  0  0  0
  8  7  1  0  0  0  0
  8  1  1  0  0  0  0
  9  7  1  0  0  0  0
 10 11  1  0  0  0  0
 11 16  1  0  0  0  0
 12 11  2  0  0  0  0
 13  2  2  0  0  0  0
 14 12  1  0  0  0  0
 15 13  1  0  0  0  0
 15 14  2  0  0  0  0
 16 17  1  0  0  0  0
 19 25  1  0  0  0  0
 19 18  1  0  0  0  0
 20 26  1  0  0  0  0
 21 24  1  0  0  0  0
 22 21  1  0  0  0  0
 22 27  1  1  0  0  0
 22 20  1  0  0  0  0
 24 25  1  0  0  0  0
 25 23  1  1  0  0  0
 26 25  1  0  0  0  0
 27 34  1  6  0  0  0
 27 28  1  0  0  0  0
 28 29  1  6  0  0  0
 28 30  1  0  0  0  0
 30 32  2  0  0  0  0
 30 31  1  0  0  0  0
 33 34  1  0  0  0  0
M  END
>  <MODEL>
8

>  <REMARK>
 VINA RESULT:      -6.8      3.114      8.111
  Name = 
  8 active torsions:
  status: ('A' for Active; 'I' for Inactive)
    1  A    between atoms: C_1  and  N_9
    2  A    between atoms: N_3  and  C_25
    3  A    between atoms: C_7  and  C_11
    4  A    between atoms: C_7  and  C_14
    5  A    between atoms: C_8  and  N_9
    6  A    between atoms: C_8  and  C_30
    7  A    between atoms: C_14  and  C_16
    8  A    between atoms: C_14  and  C_29
                            x       y       z     vdW  Elec       q    Type
                         _______ _______ _______ _____ _____    ______ ____

>  <TORSDO>
F 8

$$$$
=
 OpenBabel10262423183D

 34 37  0  0  1  0  0  0  0  0999 V2000
  187.6730  177.4830  143.6430 C   0  0  1  0  0  3  0  0  0  0  0  0
  188.7860  177.3370  147.1690 C   0  0  0  0  0  3  0  0  0  0  0  0
  186.7220  177.9380  146.2630 N   0  0  0  0  0  0  0  0  0  0  0  0
  185.2400  178.4780  142.7200 S   0  0  0  0  0  0  0  0  0  0  0  0
  184.6980  180.7160  144.0040 O   0  0  0  0  0  0  0  0  0  0  0  0
  184.6240  179.4990  144.0480 C   0  0  0  0  0  0  0  0  0  0  0  0
  185.8420  177.9210  145.3140 C   0  0  0  0  0  0  0  0  0  0  0  0
  186.1880  177.4650  143.9260 C   0  0  2  0  0  3  0  0  0  0  0  0
  184.2350  178.6470  145.5530 S   0  0  0  0  0  0  0  0  0  0  0  0
  190.1790  176.9380  147.3810 C   0  0  0  0  0  2  0  0  0  0  0  0
  191.1620  176.7520  146.5100 C   0  0  0  0  0  0  0  0  0  0  0  0
  191.0560  176.9370  145.0590 C   0  0  0  0  0  3  0  0  0  0  0  0
  188.0770  177.5300  146.0590 C   0  0  0  0  0  0  0  0  0  0  0  0
  189.9940  177.1960  144.3060 C   0  0  0  0  0  3  0  0  0  0  0  0
  188.5760  177.3920  144.6580 C   0  0  0  0  0  0  0  0  0  0  0  0
  192.4300  176.3700  147.0430 N   0  0  0  0  0  2  0  0  0  0  0  0
  192.5290  175.6120  148.1610 O   0  0  0  0  0  1  0  0  0  0  0  0
  188.0590  177.3940  142.2600 N   0  0  0  0  0  2  0  0  0  0  0  0
  188.2400  178.5390  141.3740 C   0  0  0  0  0  2  0  0  0  0  0  0
  189.4980  178.4550  137.8860 C   0  0  0  0  0  2  0  0  0  0  0  0
  190.1470  176.5660  139.4540 C   0  0  0  0  0  2  0  0  0  0  0  0
  190.4690  177.2880  138.1360 C   0  0  1  0  0  3  0  0  0  0  0  0
  186.7760  178.2420  139.3870 C   0  0  0  0  0  1  0  0  0  0  0  0
  188.6580  176.6540  139.7800 C   0  0  0  0  0  2  0  0  0  0  0  0
  188.2010  178.1220  139.9060 C   0  0  2  0  0  0  0  0  0  0  0  0
  189.0660  179.0480  139.1520 N   0  0  0  0  0  2  0  0  0  0  0  0
  190.4770  176.3200  136.9390 C   0  0  1  0  0  3  0  0  0  0  0  0
  189.2290  176.5030  136.0560 C   0  0  1  0  0  3  0  0  0  0  0  0
  189.5590  176.9020  134.6220 C   0  0  0  0  0  1  0  0  0  0  0  0
  188.3320  175.3070  136.1030 C   0  0  0  0  0  0  0  0  0  0  0  0
  187.2090  175.2610  135.2880 O   0  0  0  0  0  0  0  0  0  0  0  0
  188.5660  174.3550  136.8950 O   0  0  0  0  0  1  0  0  0  0  0  0
  192.7870  175.4390  136.6090 C   0  0  0  0  0  1  0  0  0  0  0  0
  191.7620  176.4420  136.1170 C   0  0  0  0  0  2  0  0  0  0  0  0
  1 18  1  6  0  0  0
  1  8  1  0  0  0  0
  1 15  1  0  0  0  0
  2 10  1  0  0  0  0
  4  6  1  0  0  0  0
  5  6  2  0  0  0  0
  6  9  1  0  0  0  0
  7  9  1  0  0  0  0
  7  3  2  0  0  0  0
  8  4  1  6  0  0  0
  8  7  1  0  0  0  0
 11 16  1  0  0  0  0
 11 10  1  0  0  0  0
 12 11  2  0  0  0  0
 13  3  1  0  0  0  0
 13  2  2  0  0  0  0
 14 15  2  0  0  0  0
 14 12  1  0  0  0  0
 15 13  1  0  0  0  0
 16 17  1  0  0  0  0
 19 18  1  0  0  0  0
 20 22  1  0  0  0  0
 20 26  1  0  0  0  0
 21 24  1  0  0  0  0
 22 27  1  6  0  0  0
 22 21  1  0  0  0  0
 24 25  1  0  0  0  0
 25 23  1  6  0  0  0
 25 19  1  0  0  0  0
 26 25  1  0  0  0  0
 27 34  1  6  0  0  0
 28 29  1  6  0  0  0
 28 30  1  0  0  0  0
 28 27  1  0  0  0  0
 30 32  1  0  0  0  0
 31 30  2  0  0  0  0
 34 33  1  0  0  0  0
M  END
>  <MODEL>
9

>  <REMARK>
 VINA RESULT:      -6.8      3.382      8.071
  Name = 
  8 active torsions:
  status: ('A' for Active; 'I' for Inactive)
    1  A    between atoms: C_1  and  N_9
    2  A    between atoms: N_3  and  C_25
    3  A    between atoms: C_7  and  C_11
    4  A    between atoms: C_7  and  C_14
    5  A    between atoms: C_8  and  N_9
    6  A    between atoms: C_8  and  C_30
    7  A    between atoms: C_14  and  C_16
    8  A    between atoms: C_14  and  C_29
                            x       y       z     vdW  Elec       q    Type
                         _______ _______ _______ _____ _____    ______ ____

>  <TORSDO>
F 8

$$$$
