=
 OpenBabel10262419433D

 25 27  0  0  1  0  0  0  0  0999 V2000
  190.5900  176.8490  144.7920 C   0  0  0  0  0  0  0  0  0  0  0  0
  189.4190  177.2190  145.5010 C   0  0  0  0  0  0  0  0  0  0  0  0
  191.6460  176.2130  146.8860 C   0  0  0  0  0  3  0  0  0  0  0  0
  190.5050  176.5930  147.5870 C   0  0  0  0  0  3  0  0  0  0  0  0
  188.1440  177.4330  147.7140 C   0  0  1  0  0  3  0  0  0  0  0  0
  188.4600  178.2750  148.9380 C   0  0  0  0  0  1  0  0  0  0  0  0
  188.2130  177.7390  144.7580 C   0  0  0  0  0  2  0  0  0  0  0  0
  191.6880  176.3450  145.5010 C   0  0  0  0  0  3  0  0  0  0  0  0
  187.0650  178.1450  146.9020 C   0  0  0  0  0  2  0  0  0  0  0  0
  186.9240  177.5050  145.5300 C   0  0  1  0  0  3  0  0  0  0  0  0
  189.3950  177.1210  146.9160 C   0  0  0  0  0  0  0  0  0  0  0  0
  190.7040  176.9820  143.3200 C   0  0  0  0  0  0  0  0  0  0  0  0
  190.9860  177.2090  140.5330 C   0  0  0  0  0  3  0  0  0  0  0  0
  189.8440  176.2750  142.4560 C   0  0  0  0  0  0  0  0  0  0  0  0
  189.9870  176.3950  141.0700 C   0  0  0  0  0  3  0  0  0  0  0  0
  191.8480  177.9070  141.3820 C   0  0  0  0  0  3  0  0  0  0  0  0
  188.8540  175.4890  142.9470 F   0  0  0  0  0  0  0  0  0  0  0  0
  191.7080  177.7920  142.7670 C   0  0  0  0  0  3  0  0  0  0  0  0
  185.7690  178.1320  144.7720 C   0  0  0  0  0  2  0  0  0  0  0  0
  185.9390  177.9180  143.2770 C   0  0  0  0  0  2  0  0  0  0  0  0
  185.1670  178.9720  142.4990 C   0  0  2  0  0  3  0  0  0  0  0  0
  183.6820  178.6450  142.4810 C   0  0  0  0  0  1  0  0  0  0  0  0
  185.6890  179.0730  141.1040 C   0  0  0  0  0  0  0  0  0  0  0  0
  184.9010  179.6480  140.1170 O   0  0  0  0  0  0  0  0  0  0  0  0
  186.8380  178.6420  140.8130 O   0  0  0  0  0  1  0  0  0  0  0  0
  1  8  2  0  0  0  0
  1  2  1  0  0  0  0
  2 11  2  0  0  0  0
  3  4  2  0  0  0  0
  5  6  1  1  0  0  0
  7  2  1  0  0  0  0
  7 10  1  0  0  0  0
  8  3  1  0  0  0  0
  9  5  1  0  0  0  0
 10 19  1  6  0  0  0
 10  9  1  0  0  0  0
 11  4  1  0  0  0  0
 11  5  1  0  0  0  0
 12  1  1  0  0  0  0
 13 15  2  0  0  0  0
 13 16  1  0  0  0  0
 14 17  1  0  0  0  0
 14 12  2  0  0  0  0
 15 14  1  0  0  0  0
 16 18  2  0  0  0  0
 18 12  1  0  0  0  0
 20 19  1  0  0  0  0
 21 22  1  6  0  0  0
 21 20  1  0  0  0  0
 23 21  1  0  0  0  0
 24 23  2  0  0  0  0
 25 23  1  0  0  0  0
M  END
>  <MODEL>
1

>  <REMARK>
 VINA RESULT:     -10.1      0.000      0.000
  Name = 
  5 active torsions:
  status: ('A' for Active; 'I' for Inactive)
    1  A    between atoms: C_1  and  C_5
    2  A    between atoms: C_2  and  C_21
    3  A    between atoms: C_6  and  C_15
    4  A    between atoms: C_6  and  C_23
    5  A    between atoms: C_15  and  C_21
                            x       y       z     vdW  Elec       q    Type
                         _______ _______ _______ _____ _____    ______ ____

>  <TORSDO>
F 5

$$$$
=
 OpenBabel10262419433D

 25 27  0  0  1  0  0  0  0  0999 V2000
  187.4820  177.9330  146.2030 C   0  0  0  0  0  0  0  0  0  0  0  0
  188.7550  177.6020  145.6740 C   0  0  0  0  0  0  0  0  0  0  0  0
  188.3960  177.8190  148.4520 C   0  0  0  0  0  3  0  0  0  0  0  0
  189.6420  177.4750  147.9370 C   0  0  0  0  0  3  0  0  0  0  0  0
  191.2310  177.0500  146.0410 C   0  0  1  0  0  3  0  0  0  0  0  0
  191.8660  175.8800  146.7740 C   0  0  0  0  0  1  0  0  0  0  0  0
  188.9570  177.5050  144.1820 C   0  0  0  0  0  2  0  0  0  0  0  0
  187.3250  178.0420  147.5910 C   0  0  0  0  0  3  0  0  0  0  0  0
  191.2820  176.7670  144.5420 C   0  0  0  0  0  2  0  0  0  0  0  0
  190.4040  177.7530  143.7860 C   0  0  1  0  0  3  0  0  0  0  0  0
  189.8340  177.3360  146.5560 C   0  0  0  0  0  0  0  0  0  0  0  0
  186.2980  178.1650  145.3400 C   0  0  0  0  0  0  0  0  0  0  0  0
  184.0580  178.5360  143.6850 C   0  0  0  0  0  3  0  0  0  0  0  0
  185.0710  178.5920  145.8860 C   0  0  0  0  0  0  0  0  0  0  0  0
  183.9610  178.7790  145.0570 C   0  0  0  0  0  3  0  0  0  0  0  0
  185.2680  178.1050  143.1370 C   0  0  0  0  0  3  0  0  0  0  0  0
  184.9510  178.8510  147.2120 F   0  0  0  0  0  0  0  0  0  0  0  0
  186.3800  177.9190  143.9600 C   0  0  0  0  0  3  0  0  0  0  0  0
  190.5530  177.5490  142.2900 C   0  0  0  0  0  2  0  0  0  0  0  0
  189.2180  177.1600  141.6740 C   0  0  0  0  0  2  0  0  0  0  0  0
  189.2990  177.2150  140.1570 C   0  0  2  0  0  3  0  0  0  0  0  0
  190.7440  177.3260  139.6990 C   0  0  0  0  0  1  0  0  0  0  0  0
  188.5040  178.3670  139.6370 C   0  0  0  0  0  0  0  0  0  0  0  0
  187.2460  178.6250  140.1610 O   0  0  0  0  0  1  0  0  0  0  0  0
  188.9660  179.1090  138.7270 O   0  0  0  0  0  0  0  0  0  0  0  0
  1  8  1  0  0  0  0
  2  1  2  0  0  0  0
  2 11  1  0  0  0  0
  4  3  1  0  0  0  0
  5 11  1  0  0  0  0
  5  6  1  1  0  0  0
  7  2  1  0  0  0  0
  8  3  2  0  0  0  0
  9  5  1  0  0  0  0
 10 19  1  6  0  0  0
 10  7  1  0  0  0  0
 10  9  1  0  0  0  0
 11  4  2  0  0  0  0
 12 14  1  0  0  0  0
 12  1  1  0  0  0  0
 13 15  1  0  0  0  0
 14 17  1  0  0  0  0
 15 14  2  0  0  0  0
 16 13  2  0  0  0  0
 16 18  1  0  0  0  0
 18 12  2  0  0  0  0
 20 19  1  0  0  0  0
 21 22  1  1  0  0  0
 21 20  1  0  0  0  0
 23 21  1  0  0  0  0
 23 24  1  0  0  0  0
 25 23  2  0  0  0  0
M  END
>  <MODEL>
2

>  <REMARK>
 VINA RESULT:     -10.1      1.842      4.862
  Name = 
  5 active torsions:
  status: ('A' for Active; 'I' for Inactive)
    1  A    between atoms: C_1  and  C_5
    2  A    between atoms: C_2  and  C_21
    3  A    between atoms: C_6  and  C_15
    4  A    between atoms: C_6  and  C_23
    5  A    between atoms: C_15  and  C_21
                            x       y       z     vdW  Elec       q    Type
                         _______ _______ _______ _____ _____    ______ ____

>  <TORSDO>
F 5

$$$$
=
 OpenBabel10262419433D

 25 27  0  0  1  0  0  0  0  0999 V2000
  189.3610  177.3880  145.1050 C   0  0  0  0  0  0  0  0  0  0  0  0
  188.0020  177.7830  145.1860 C   0  0  0  0  0  0  0  0  0  0  0  0
  189.4220  177.1270  147.5200 C   0  0  0  0  0  3  0  0  0  0  0  0
  188.0930  177.5320  147.6050 C   0  0  0  0  0  3  0  0  0  0  0  0
  185.9070  178.2340  146.5910 C   0  0  1  0  0  3  0  0  0  0  0  0
  185.6770  179.2630  147.6860 C   0  0  0  0  0  1  0  0  0  0  0  0
  187.2310  178.1150  143.9330 C   0  0  0  0  0  2  0  0  0  0  0  0
  190.0510  177.0600  146.2800 C   0  0  0  0  0  3  0  0  0  0  0  0
  185.2810  178.7540  145.2990 C   0  0  0  0  0  2  0  0  0  0  0  0
  185.7340  177.9150  144.1150 C   0  0  1  0  0  3  0  0  0  0  0  0
  187.3770  177.8880  146.4550 C   0  0  0  0  0  0  0  0  0  0  0  0
  190.0920  177.3140  143.8160 C   0  0  0  0  0  0  0  0  0  0  0  0
  191.5380  177.1620  141.4110 C   0  0  0  0  0  3  0  0  0  0  0  0
  189.7720  176.3370  142.8520 C   0  0  0  0  0  0  0  0  0  0  0  0
  190.4920  176.2690  141.6550 C   0  0  0  0  0  3  0  0  0  0  0  0
  191.8680  178.1270  142.3650 C   0  0  0  0  0  3  0  0  0  0  0  0
  188.7510  175.4670  143.0530 F   0  0  0  0  0  0  0  0  0  0  0  0
  191.1500  178.2010  143.5610 C   0  0  0  0  0  3  0  0  0  0  0  0
  185.0160  178.3540  142.8530 C   0  0  0  0  0  2  0  0  0  0  0  0
  185.9560  179.1430  141.9570 C   0  0  0  0  0  2  0  0  0  0  0  0
  186.2800  178.3510  140.7010 C   0  0  2  0  0  3  0  0  0  0  0  0
  187.7590  178.4560  140.3660 C   0  0  0  0  0  1  0  0  0  0  0  0
  185.4570  178.8380  139.5530 C   0  0  0  0  0  0  0  0  0  0  0  0
  185.5420  178.1940  138.3270 O   0  0  0  0  0  0  0  0  0  0  0  0
  184.6860  179.8260  139.6880 O   0  0  0  0  0  1  0  0  0  0  0  0
  1  2  2  0  0  0  0
  1  8  1  0  0  0  0
  2 11  1  0  0  0  0
  3  4  1  0  0  0  0
  5  6  1  1  0  0  0
  7 10  1  0  0  0  0
  7  2  1  0  0  0  0
  8  3  2  0  0  0  0
  9  5  1  0  0  0  0
 10 19  1  6  0  0  0
 10  9  1  0  0  0  0
 11  5  1  0  0  0  0
 11  4  2  0  0  0  0
 12  1  1  0  0  0  0
 13 15  2  0  0  0  0
 13 16  1  0  0  0  0
 14 17  1  0  0  0  0
 14 12  2  0  0  0  0
 15 14  1  0  0  0  0
 16 18  2  0  0  0  0
 18 12  1  0  0  0  0
 20 19  1  0  0  0  0
 21 22  1  6  0  0  0
 21 20  1  0  0  0  0
 23 25  1  0  0  0  0
 23 21  1  0  0  0  0
 24 23  2  0  0  0  0
M  END
>  <MODEL>
3

>  <REMARK>
 VINA RESULT:      -9.1      1.111      2.082
  Name = 
  5 active torsions:
  status: ('A' for Active; 'I' for Inactive)
    1  A    between atoms: C_1  and  C_5
    2  A    between atoms: C_2  and  C_21
    3  A    between atoms: C_6  and  C_15
    4  A    between atoms: C_6  and  C_23
    5  A    between atoms: C_15  and  C_21
                            x       y       z     vdW  Elec       q    Type
                         _______ _______ _______ _____ _____    ______ ____

>  <TORSDO>
F 5

$$$$
=
 OpenBabel10262419433D

 25 27  0  0  1  0  0  0  0  0999 V2000
  185.7510  178.5000  144.7230 C   0  0  0  0  0  0  0  0  0  0  0  0
  187.0860  178.0590  144.9010 C   0  0  0  0  0  0  0  0  0  0  0  0
  185.5230  178.7570  147.1290 C   0  0  0  0  0  3  0  0  0  0  0  0
  186.8280  178.3060  147.3090 C   0  0  0  0  0  3  0  0  0  0  0  0
  189.0570  177.5320  146.4540 C   0  0  1  0  0  3  0  0  0  0  0  0
  189.1720  176.4940  147.5570 C   0  0  0  0  0  1  0  0  0  0  0  0
  187.9350  177.7030  143.7060 C   0  0  0  0  0  2  0  0  0  0  0  0
  184.9890  178.8480  145.8470 C   0  0  0  0  0  3  0  0  0  0  0  0
  189.7580  176.9950  145.2080 C   0  0  0  0  0  2  0  0  0  0  0  0
  189.4200  177.8520  143.9980 C   0  0  1  0  0  3  0  0  0  0  0  0
  187.6130  177.9290  146.2120 C   0  0  0  0  0  0  0  0  0  0  0  0
  185.1180  178.6020  143.3850 C   0  0  0  0  0  0  0  0  0  0  0  0
  183.9600  178.7400  140.8290 C   0  0  0  0  0  3  0  0  0  0  0  0
  183.7230  178.4830  143.2280 C   0  0  0  0  0  0  0  0  0  0  0  0
  183.1520  178.5570  141.9540 C   0  0  0  0  0  3  0  0  0  0  0  0
  185.3440  178.8500  140.9760 C   0  0  0  0  0  3  0  0  0  0  0  0
  182.9120  178.3210  144.3020 F   0  0  0  0  0  0  0  0  0  0  0  0
  185.9200  178.7790  142.2460 C   0  0  0  0  0  3  0  0  0  0  0  0
  190.2140  177.3920  142.7900 C   0  0  0  0  0  2  0  0  0  0  0  0
  189.2770  177.0360  141.6460 C   0  0  0  0  0  2  0  0  0  0  0  0
  189.7570  177.6720  140.3520 C   0  0  2  0  0  3  0  0  0  0  0  0
  188.6180  177.7750  139.3490 C   0  0  0  0  0  1  0  0  0  0  0  0
  190.8830  176.8820  139.7710 C   0  0  0  0  0  0  0  0  0  0  0  0
  192.1860  177.3350  139.9180 O   0  0  0  0  0  1  0  0  0  0  0  0
  190.6620  175.8060  139.1510 O   0  0  0  0  0  0  0  0  0  0  0  0
  1  2  2  0  0  0  0
  1  8  1  0  0  0  0
  2 11  1  0  0  0  0
  3  4  1  0  0  0  0
  5  6  1  1  0  0  0
  7 10  1  0  0  0  0
  7  2  1  0  0  0  0
  8  3  2  0  0  0  0
  9  5  1  0  0  0  0
 10 19  1  6  0  0  0
 10  9  1  0  0  0  0
 11  5  1  0  0  0  0
 11  4  2  0  0  0  0
 12  1  1  0  0  0  0
 13 16  2  0  0  0  0
 13 15  1  0  0  0  0
 14 12  1  0  0  0  0
 14 17  1  0  0  0  0
 15 14  2  0  0  0  0
 16 18  1  0  0  0  0
 18 12  2  0  0  0  0
 20 19  1  0  0  0  0
 21 22  1  6  0  0  0
 21 20  1  0  0  0  0
 23 24  1  0  0  0  0
 23 21  1  0  0  0  0
 25 23  2  0  0  0  0
M  END
>  <MODEL>
4

>  <REMARK>
 VINA RESULT:      -9.0      2.506      5.294
  Name = 
  5 active torsions:
  status: ('A' for Active; 'I' for Inactive)
    1  A    between atoms: C_1  and  C_5
    2  A    between atoms: C_2  and  C_21
    3  A    between atoms: C_6  and  C_15
    4  A    between atoms: C_6  and  C_23
    5  A    between atoms: C_15  and  C_21
                            x       y       z     vdW  Elec       q    Type
                         _______ _______ _______ _____ _____    ______ ____

>  <TORSDO>
F 5

$$$$
=
 OpenBabel10262419433D

 25 27  0  0  1  0  0  0  0  0999 V2000
  187.8800  177.7360  144.6910 C   0  0  0  0  0  0  0  0  0  0  0  0
  186.7740  178.1120  143.8870 C   0  0  0  0  0  0  0  0  0  0  0  0
  186.4240  177.6390  146.6340 C   0  0  0  0  0  3  0  0  0  0  0  0
  185.3400  178.0260  145.8520 C   0  0  0  0  0  3  0  0  0  0  0  0
  184.2730  178.6210  143.6600 C   0  0  1  0  0  3  0  0  0  0  0  0
  183.4430  179.7160  144.3080 C   0  0  0  0  0  1  0  0  0  0  0  0
  186.9550  178.3450  142.4080 C   0  0  0  0  0  2  0  0  0  0  0  0
  187.6840  177.5000  146.0590 C   0  0  0  0  0  3  0  0  0  0  0  0
  184.5960  179.0410  142.2280 C   0  0  0  0  0  2  0  0  0  0  0  0
  185.6620  178.1320  141.6360 C   0  0  1  0  0  3  0  0  0  0  0  0
  185.5010  178.2920  144.4860 C   0  0  0  0  0  0  0  0  0  0  0  0
  189.2500  177.5880  144.1410 C   0  0  0  0  0  0  0  0  0  0  0  0
  191.8700  177.3110  143.1650 C   0  0  0  0  0  3  0  0  0  0  0  0
  189.6160  176.4510  143.3930 C   0  0  0  0  0  0  0  0  0  0  0  0
  190.9200  176.3200  142.9070 C   0  0  0  0  0  3  0  0  0  0  0  0
  191.5180  178.4370  143.9130 C   0  0  0  0  0  3  0  0  0  0  0  0
  188.7110  175.4810  143.1120 F   0  0  0  0  0  0  0  0  0  0  0  0
  190.2160  178.5730  144.3990 C   0  0  0  0  0  3  0  0  0  0  0  0
  185.8920  178.4730  140.1760 C   0  0  0  0  0  2  0  0  0  0  0  0
  187.3380  178.2030  139.7910 C   0  0  0  0  0  2  0  0  0  0  0  0
  187.4850  178.1620  138.2790 C   0  0  2  0  0  3  0  0  0  0  0  0
  187.2080  176.7640  137.7490 C   0  0  0  0  0  1  0  0  0  0  0  0
  188.8550  178.6010  137.8790 C   0  0  0  0  0  0  0  0  0  0  0  0
  189.9310  177.7440  138.0620 O   0  0  0  0  0  1  0  0  0  0  0  0
  189.0440  179.7420  137.3760 O   0  0  0  0  0  0  0  0  0  0  0  0
  1  8  1  0  0  0  0
  2 11  1  0  0  0  0
  2  1  2  0  0  0  0
  4  3  1  0  0  0  0
  5  6  1  1  0  0  0
  5 11  1  0  0  0  0
  7  2  1  0  0  0  0
  8  3  2  0  0  0  0
  9  5  1  0  0  0  0
 10 19  1  6  0  0  0
 10  9  1  0  0  0  0
 10  7  1  0  0  0  0
 11  4  2  0  0  0  0
 12 18  1  0  0  0  0
 12  1  1  0  0  0  0
 13 16  1  0  0  0  0
 14 12  2  0  0  0  0
 15 13  2  0  0  0  0
 15 14  1  0  0  0  0
 16 18  2  0  0  0  0
 17 14  1  0  0  0  0
 20 19  1  0  0  0  0
 21 22  1  1  0  0  0
 21 20  1  0  0  0  0
 23 24  1  0  0  0  0
 23 21  1  0  0  0  0
 25 23  2  0  0  0  0
M  END
>  <MODEL>
5

>  <REMARK>
 VINA RESULT:      -8.8      2.162      4.254
  Name = 
  5 active torsions:
  status: ('A' for Active; 'I' for Inactive)
    1  A    between atoms: C_1  and  C_5
    2  A    between atoms: C_2  and  C_21
    3  A    between atoms: C_6  and  C_15
    4  A    between atoms: C_6  and  C_23
    5  A    between atoms: C_15  and  C_21
                            x       y       z     vdW  Elec       q    Type
                         _______ _______ _______ _____ _____    ______ ____

>  <TORSDO>
F 5

$$$$
=
 OpenBabel10262419433D

 25 27  0  0  1  0  0  0  0  0999 V2000
  187.5220  177.7650  145.8460 C   0  0  0  0  0  0  0  0  0  0  0  0
  188.8980  177.6640  145.5150 C   0  0  0  0  0  0  0  0  0  0  0  0
  188.0260  177.0670  148.1190 C   0  0  0  0  0  3  0  0  0  0  0  0
  189.3740  176.9480  147.7920 C   0  0  0  0  0  3  0  0  0  0  0  0
  191.3120  177.1610  146.2120 C   0  0  1  0  0  3  0  0  0  0  0  0
  191.9260  175.8660  146.7170 C   0  0  0  0  0  1  0  0  0  0  0  0
  189.3720  178.0040  144.1240 C   0  0  0  0  0  2  0  0  0  0  0  0
  187.1090  177.4680  147.1520 C   0  0  0  0  0  3  0  0  0  0  0  0
  191.6600  177.3170  144.7330 C   0  0  0  0  0  2  0  0  0  0  0  0
  190.8320  178.4290  144.1080 C   0  0  1  0  0  3  0  0  0  0  0  0
  189.8230  177.2160  146.4920 C   0  0  0  0  0  0  0  0  0  0  0  0
  186.4940  178.1700  144.8570 C   0  0  0  0  0  0  0  0  0  0  0  0
  184.5730  179.0020  142.9830 C   0  0  0  0  0  3  0  0  0  0  0  0
  186.3970  177.5320  143.6040 C   0  0  0  0  0  0  0  0  0  0  0  0
  185.4370  177.9470  142.6770 C   0  0  0  0  0  3  0  0  0  0  0  0
  184.6680  179.6450  144.2190 C   0  0  0  0  0  3  0  0  0  0  0  0
  187.2110  176.4950  143.2850 F   0  0  0  0  0  0  0  0  0  0  0  0
  185.6240  179.2320  145.1490 C   0  0  0  0  0  3  0  0  0  0  0  0
  191.2660  178.6650  142.6740 C   0  0  0  0  0  2  0  0  0  0  0  0
  191.3750  177.3440  141.9300 C   0  0  0  0  0  2  0  0  0  0  0  0
  191.0240  177.5320  140.4630 C   0  0  2  0  0  3  0  0  0  0  0  0
  189.6940  176.8700  140.1390 C   0  0  0  0  0  1  0  0  0  0  0  0
  192.1030  176.9700  139.5960 C   0  0  0  0  0  0  0  0  0  0  0  0
  193.4260  177.3070  139.8420 O   0  0  0  0  0  1  0  0  0  0  0  0
  191.8230  176.1920  138.6430 O   0  0  0  0  0  0  0  0  0  0  0  0
  1  8  1  0  0  0  0
  2  1  2  0  0  0  0
  2 11  1  0  0  0  0
  4  3  1  0  0  0  0
  5 11  1  0  0  0  0
  5  6  1  6  0  0  0
  7  2  1  0  0  0  0
  8  3  2  0  0  0  0
  9  5  1  0  0  0  0
 10 19  1  6  0  0  0
 10  7  1  0  0  0  0
 10  9  1  0  0  0  0
 11  4  2  0  0  0  0
 12 18  1  0  0  0  0
 12  1  1  0  0  0  0
 13 16  1  0  0  0  0
 14 12  2  0  0  0  0
 15 13  2  0  0  0  0
 15 14  1  0  0  0  0
 16 18  2  0  0  0  0
 17 14  1  0  0  0  0
 20 19  1  0  0  0  0
 21 22  1  6  0  0  0
 21 20  1  0  0  0  0
 23 24  1  0  0  0  0
 23 21  1  0  0  0  0
 25 23  2  0  0  0  0
M  END
>  <MODEL>
6

>  <REMARK>
 VINA RESULT:      -8.7      2.256      5.187
  Name = 
  5 active torsions:
  status: ('A' for Active; 'I' for Inactive)
    1  A    between atoms: C_1  and  C_5
    2  A    between atoms: C_2  and  C_21
    3  A    between atoms: C_6  and  C_15
    4  A    between atoms: C_6  and  C_23
    5  A    between atoms: C_15  and  C_21
                            x       y       z     vdW  Elec       q    Type
                         _______ _______ _______ _____ _____    ______ ____

>  <TORSDO>
F 5

$$$$
=
 OpenBabel10262419433D

 25 27  0  0  1  0  0  0  0  0999 V2000
  188.7410  177.4630  143.8550 C   0  0  0  0  0  0  0  0  0  0  0  0
  187.4530  177.8410  144.3120 C   0  0  0  0  0  0  0  0  0  0  0  0
  189.4380  177.0910  146.1530 C   0  0  0  0  0  3  0  0  0  0  0  0
  188.1810  177.4800  146.6070 C   0  0  0  0  0  3  0  0  0  0  0  0
  185.8070  178.2080  146.2420 C   0  0  1  0  0  3  0  0  0  0  0  0
  185.8780  179.1820  147.4050 C   0  0  0  0  0  1  0  0  0  0  0  0
  186.3780  178.2240  143.3250 C   0  0  0  0  0  2  0  0  0  0  0  0
  189.7160  177.0870  144.7890 C   0  0  0  0  0  3  0  0  0  0  0  0
  184.8620  178.7810  145.1880 C   0  0  0  0  0  2  0  0  0  0  0  0
  184.9830  178.0020  143.8880 C   0  0  1  0  0  3  0  0  0  0  0  0
  187.1870  177.8820  145.7050 C   0  0  0  0  0  0  0  0  0  0  0  0
  189.1040  177.4550  142.4170 C   0  0  0  0  0  0  0  0  0  0  0  0
  189.8160  177.5070  139.6990 C   0  0  0  0  0  3  0  0  0  0  0  0
  190.0230  176.5190  141.9030 C   0  0  0  0  0  0  0  0  0  0  0  0
  190.3710  176.5470  140.5490 C   0  0  0  0  0  3  0  0  0  0  0  0
  188.9110  178.4440  140.2030 C   0  0  0  0  0  3  0  0  0  0  0  0
  190.5650  175.5650  142.7000 F   0  0  0  0  0  0  0  0  0  0  0  0
  188.5590  178.4190  141.5540 C   0  0  0  0  0  3  0  0  0  0  0  0
  183.9570  178.4920  142.8840 C   0  0  0  0  0  2  0  0  0  0  0  0
  184.6060  178.7040  141.5250 C   0  0  0  0  0  2  0  0  0  0  0  0
  183.5450  178.8230  140.4440 C   0  0  2  0  0  3  0  0  0  0  0  0
  182.9210  177.4680  140.1510 C   0  0  0  0  0  1  0  0  0  0  0  0
  184.1360  179.3970  139.1980 C   0  0  0  0  0  0  0  0  0  0  0  0
  184.8530  178.5760  138.3380 O   0  0  0  0  0  0  0  0  0  0  0  0
  183.9900  180.6180  138.9190 O   0  0  0  0  0  1  0  0  0  0  0  0
  1  2  2  0  0  0  0
  1  8  1  0  0  0  0
  2 11  1  0  0  0  0
  3  4  1  0  0  0  0
  5  6  1  1  0  0  0
  7 10  1  0  0  0  0
  7  2  1  0  0  0  0
  8  3  2  0  0  0  0
  9  5  1  0  0  0  0
 10 19  1  6  0  0  0
 10  9  1  0  0  0  0
 11  5  1  0  0  0  0
 11  4  2  0  0  0  0
 12  1  1  0  0  0  0
 13 16  2  0  0  0  0
 13 15  1  0  0  0  0
 14 12  1  0  0  0  0
 14 17  1  0  0  0  0
 15 14  2  0  0  0  0
 16 18  1  0  0  0  0
 18 12  2  0  0  0  0
 20 19  1  0  0  0  0
 21 22  1  6  0  0  0
 21 20  1  0  0  0  0
 23 21  1  0  0  0  0
 24 23  2  0  0  0  0
 25 23  1  0  0  0  0
M  END
>  <MODEL>
7

>  <REMARK>
 VINA RESULT:      -8.7      1.571      2.519
  Name = 
  5 active torsions:
  status: ('A' for Active; 'I' for Inactive)
    1  A    between atoms: C_1  and  C_5
    2  A    between atoms: C_2  and  C_21
    3  A    between atoms: C_6  and  C_15
    4  A    between atoms: C_6  and  C_23
    5  A    between atoms: C_15  and  C_21
                            x       y       z     vdW  Elec       q    Type
                         _______ _______ _______ _____ _____    ______ ____

>  <TORSDO>
F 5

$$$$
=
 OpenBabel10262419433D

 25 27  0  0  1  0  0  0  0  0999 V2000
  187.3860  177.8270  145.3840 C   0  0  0  0  0  0  0  0  0  0  0  0
  188.4770  177.5440  144.5240 C   0  0  0  0  0  0  0  0  0  0  0  0
  188.8120  177.4250  147.3110 C   0  0  0  0  0  3  0  0  0  0  0  0
  189.8800  177.1280  146.4690 C   0  0  0  0  0  3  0  0  0  0  0  0
  190.9410  176.9140  144.2040 C   0  0  1  0  0  3  0  0  0  0  0  0
  191.6810  175.6540  144.6190 C   0  0  0  0  0  1  0  0  0  0  0  0
  188.3060  177.6270  143.0270 C   0  0  0  0  0  2  0  0  0  0  0  0
  187.5750  177.7670  146.7720 C   0  0  0  0  0  3  0  0  0  0  0  0
  190.6130  176.8160  142.7160 C   0  0  0  0  0  2  0  0  0  0  0  0
  189.6230  177.8990  142.3180 C   0  0  1  0  0  3  0  0  0  0  0  0
  189.7240  177.1560  145.0770 C   0  0  0  0  0  0  0  0  0  0  0  0
  186.0400  178.1800  144.8720 C   0  0  0  0  0  0  0  0  0  0  0  0
  183.4800  178.7820  143.8820 C   0  0  0  0  0  3  0  0  0  0  0  0
  185.0500  178.7060  145.7260 C   0  0  0  0  0  0  0  0  0  0  0  0
  183.7790  179.0070  145.2270 C   0  0  0  0  0  3  0  0  0  0  0  0
  184.4520  178.2530  143.0300 C   0  0  0  0  0  3  0  0  0  0  0  0
  185.3160  178.9510  147.0330 F   0  0  0  0  0  0  0  0  0  0  0  0
  185.7240  177.9520  143.5230 C   0  0  0  0  0  3  0  0  0  0  0  0
  189.3950  177.8780  140.8180 C   0  0  0  0  0  2  0  0  0  0  0  0
  190.1930  176.7540  140.1780 C   0  0  0  0  0  2  0  0  0  0  0  0
  190.6990  177.1770  138.8080 C   0  0  2  0  0  3  0  0  0  0  0  0
  189.5390  177.5420  137.8960 C   0  0  0  0  0  1  0  0  0  0  0  0
  191.5120  176.0840  138.1950 C   0  0  0  0  0  0  0  0  0  0  0  0
  192.7210  176.3880  137.5860 O   0  0  0  0  0  0  0  0  0  0  0  0
  191.1110  174.8890  138.2260 O   0  0  0  0  0  1  0  0  0  0  0  0
  1  8  1  0  0  0  0
  2 11  1  0  0  0  0
  2  1  2  0  0  0  0
  4  3  1  0  0  0  0
  5  6  1  1  0  0  0
  5 11  1  0  0  0  0
  7  2  1  0  0  0  0
  8  3  2  0  0  0  0
  9  5  1  0  0  0  0
 10 19  1  6  0  0  0
 10  9  1  0  0  0  0
 10  7  1  0  0  0  0
 11  4  2  0  0  0  0
 12  1  1  0  0  0  0
 12 14  1  0  0  0  0
 13 15  1  0  0  0  0
 14 17  1  0  0  0  0
 15 14  2  0  0  0  0
 16 18  1  0  0  0  0
 16 13  2  0  0  0  0
 18 12  2  0  0  0  0
 20 19  1  0  0  0  0
 21 22  1  6  0  0  0
 21 20  1  0  0  0  0
 23 25  1  0  0  0  0
 23 21  1  0  0  0  0
 24 23  2  0  0  0  0
M  END
>  <MODEL>
8

>  <REMARK>
 VINA RESULT:      -8.6      2.660      5.732
  Name = 
  5 active torsions:
  status: ('A' for Active; 'I' for Inactive)
    1  A    between atoms: C_1  and  C_5
    2  A    between atoms: C_2  and  C_21
    3  A    between atoms: C_6  and  C_15
    4  A    between atoms: C_6  and  C_23
    5  A    between atoms: C_15  and  C_21
                            x       y       z     vdW  Elec       q    Type
                         _______ _______ _______ _____ _____    ______ ____

>  <TORSDO>
F 5

$$$$
=
 OpenBabel10262419433D

 25 27  0  0  1  0  0  0  0  0999 V2000
  183.4430  178.3610  142.0710 C   0  0  0  0  0  0  0  0  0  0  0  0
  184.4810  178.2850  143.0340 C   0  0  0  0  0  0  0  0  0  0  0  0
  181.9720  179.3290  143.7460 C   0  0  0  0  0  3  0  0  0  0  0  0
  182.9820  179.2370  144.6990 C   0  0  0  0  0  3  0  0  0  0  0  0
  185.3270  178.7020  145.4170 C   0  0  1  0  0  3  0  0  0  0  0  0
  184.8400  178.1220  146.7350 C   0  0  0  0  0  1  0  0  0  0  0  0
  185.8360  177.7440  142.6500 C   0  0  0  0  0  2  0  0  0  0  0  0
  182.2000  178.8900  142.4450 C   0  0  0  0  0  3  0  0  0  0  0  0
  186.5830  177.9470  144.9910 C   0  0  0  0  0  2  0  0  0  0  0  0
  186.9390  178.2790  143.5500 C   0  0  1  0  0  3  0  0  0  0  0  0
  184.2310  178.6950  144.3690 C   0  0  0  0  0  0  0  0  0  0  0  0
  183.6180  177.8950  140.6740 C   0  0  0  0  0  0  0  0  0  0  0  0
  183.8800  177.0190  138.0170 C   0  0  0  0  0  3  0  0  0  0  0  0
  184.4630  178.5790  139.7780 C   0  0  0  0  0  0  0  0  0  0  0  0
  184.5930  178.1370  138.4580 C   0  0  0  0  0  3  0  0  0  0  0  0
  183.0340  176.3410  138.8960 C   0  0  0  0  0  3  0  0  0  0  0  0
  185.1810  179.6570  140.1820 F   0  0  0  0  0  0  0  0  0  0  0  0
  182.9030  176.7770  140.2160 C   0  0  0  0  0  3  0  0  0  0  0  0
  188.2540  177.6270  143.1690 C   0  0  0  0  0  2  0  0  0  0  0  0
  188.9190  177.0210  144.3950 C   0  0  0  0  0  2  0  0  0  0  0  0
  190.1630  177.8110  144.7670 C   0  0  2  0  0  3  0  0  0  0  0  0
  190.5940  178.7090  143.6180 C   0  0  0  0  0  1  0  0  0  0  0  0
  191.2730  176.8850  145.1400 C   0  0  0  0  0  0  0  0  0  0  0  0
  191.8470  176.9740  146.4000 O   0  0  0  0  0  1  0  0  0  0  0  0
  191.6940  176.0220  144.3220 O   0  0  0  0  0  0  0  0  0  0  0  0
  1  8  2  0  0  0  0
  1  2  1  0  0  0  0
  2 11  2  0  0  0  0
  3  4  2  0  0  0  0
  5  6  1  1  0  0  0
  7  2  1  0  0  0  0
  7 10  1  0  0  0  0
  8  3  1  0  0  0  0
  9  5  1  0  0  0  0
 10 19  1  6  0  0  0
 10  9  1  0  0  0  0
 11  4  1  0  0  0  0
 11  5  1  0  0  0  0
 12  1  1  0  0  0  0
 13 15  2  0  0  0  0
 13 16  1  0  0  0  0
 14 17  1  0  0  0  0
 14 12  2  0  0  0  0
 15 14  1  0  0  0  0
 16 18  2  0  0  0  0
 18 12  1  0  0  0  0
 19 20  1  0  0  0  0
 20 21  1  0  0  0  0
 21 22  1  6  0  0  0
 21 23  1  0  0  0  0
 23 24  1  0  0  0  0
 25 23  2  0  0  0  0
M  END
>  <MODEL>
9

>  <REMARK>
 VINA RESULT:      -8.5      3.198      6.829
  Name = 
  5 active torsions:
  status: ('A' for Active; 'I' for Inactive)
    1  A    between atoms: C_1  and  C_5
    2  A    between atoms: C_2  and  C_21
    3  A    between atoms: C_6  and  C_15
    4  A    between atoms: C_6  and  C_23
    5  A    between atoms: C_15  and  C_21
                            x       y       z     vdW  Elec       q    Type
                         _______ _______ _______ _____ _____    ______ ____

>  <TORSDO>
F 5

$$$$
