=
 OpenBabel10262421383D

 32 38  0  0  1  0  0  0  0  0999 V2000
  185.7620  179.0530  141.2790 C   0  0  2  0  0  3  0  0  0  0  0  0
  183.9950  179.7170  144.6300 C   0  0  0  0  0  3  0  0  0  0  0  0
  182.8880  179.0070  144.3630 C   0  0  0  0  0  3  0  0  0  0  0  0
  185.2330  178.0750  138.8380 C   0  0  1  0  0  3  0  0  0  0  0  0
  184.0090  177.7790  137.9900 C   0  0  0  0  0  0  0  0  0  0  0  0
  181.7830  177.3470  137.5310 N   0  0  0  0  0  0  0  0  0  0  0  0
  185.0390  179.9910  143.5720 C   0  0  0  0  0  2  0  0  0  0  0  0
  184.9140  179.0410  142.4690 N   0  0  0  0  0  0  0  0  0  0  0  0
  183.6590  177.8960  140.7770 C   0  0  1  0  0  3  0  0  0  0  0  0
  182.3150  177.0290  136.2190 C   0  0  0  0  0  2  0  0  0  0  0  0
  184.1310  177.2660  136.2800 S   0  0  0  0  0  0  0  0  0  0  0  0
  182.6710  178.3980  143.0350 C   0  0  0  0  0  3  0  0  0  0  0  0
  183.6570  178.4590  142.1420 C   0  0  0  0  0  0  0  0  0  0  0  0
  182.4210  178.0970  139.9130 C   0  0  0  0  0  2  0  0  0  0  0  0
  186.0730  178.9620  138.1630 O   0  0  0  0  0  1  0  0  0  0  0  0
  180.3650  177.2480  137.8320 C   0  0  0  0  0  1  0  0  0  0  0  0
  184.7780  178.7050  140.1510 C   0  0  1  0  0  3  0  0  0  0  0  0
  182.7650  177.7270  138.4810 C   0  0  0  0  0  0  0  0  0  0  0  0
  188.6910  177.1320  142.8610 C   0  0  2  0  0  3  0  0  0  0  0  0
  188.4010  178.6610  140.5560 S   0  0  0  0  0  0  0  0  0  0  0  0
  190.3400  176.9850  141.1500 O   0  0  0  0  0  0  0  0  0  0  0  0
  186.9150  178.0420  141.3990 C   0  0  1  0  0  3  0  0  0  0  0  0
  189.3260  177.5250  141.5630 C   0  0  0  0  0  0  0  0  0  0  0  0
  187.2860  177.7120  142.8470 C   0  0  0  0  0  2  0  0  0  0  0  0
  190.6600  176.8090  144.3830 C   0  0  0  0  0  2  0  0  0  0  0  0
  189.4490  176.4620  145.1450 N   0  0  0  0  0  0  0  0  0  0  0  0
  189.4210  177.5520  144.1540 C   0  0  2  0  0  3  0  0  0  0  0  0
  189.5800  177.0920  146.4450 C   0  0  0  0  0  2  0  0  0  0  0  0
  188.2090  177.6190  148.5660 C   0  0  1  0  0  3  0  0  0  0  0  0
  188.3530  176.7750  147.2940 C   0  0  1  0  0  3  0  0  0  0  0  0
  189.3050  178.6570  148.7800 C   0  0  0  0  0  1  0  0  0  0  0  0
  187.4230  177.9710  147.3180 C   0  0  0  0  0  2  0  0  0  0  0  0
  1 22  1  0  0  0  0
  1  8  1  1  0  0  0
  3  2  2  0  0  0  0
  4 15  1  6  0  0  0
  4 17  1  0  0  0  0
  5 18  2  0  0  0  0
  5  4  1  0  0  0  0
  6 16  1  0  0  0  0
  6 18  1  0  0  0  0
  7  2  1  0  0  0  0
  8  7  1  0  0  0  0
  9 14  1  6  0  0  0
  9 13  1  0  0  0  0
 10 11  1  0  0  0  0
 10  6  1  0  0  0  0
 11  5  1  0  0  0  0
 12  3  1  0  0  0  0
 13  8  1  0  0  0  0
 13 12  2  0  0  0  0
 17  9  1  0  0  0  0
 17  1  1  0  0  0  0
 18 14  1  0  0  0  0
 19 27  1  0  0  0  0
 20 22  1  0  0  0  0
 20 23  1  0  0  0  0
 21 23  2  0  0  0  0
 22 24  1  0  0  0  0
 23 19  1  0  0  0  0
 24 19  1  0  0  0  0
 25 26  1  0  0  0  0
 26 28  1  0  0  0  0
 27 25  1  0  0  0  0
 27 26  1  0  0  0  0
 28 30  1  0  0  0  0
 29 31  1  0  0  0  0
 30 32  1  0  0  0  0
 30 29  1  0  0  0  0
 32 29  1  0  0  0  0
M  END
>  <MODEL>
1

>  <REMARK>
 VINA RESULT:      -8.1      0.000      0.000
  Name = 
  4 active torsions:
  status: ('A' for Active; 'I' for Inactive)
    1  A    between atoms: C_3  and  C_14
    2  A    between atoms: C_8  and  C_23
    3  A    between atoms: C_10  and  C_24
    4  A    between atoms: N_19  and  C_24
                            x       y       z     vdW  Elec       q    Type
                         _______ _______ _______ _____ _____    ______ ____

>  <TORSDO>
F 4

$$$$
=
 OpenBabel10262421383D

 32 38  0  0  1  0  0  0  0  0999 V2000
  190.5910  177.4130  139.5800 C   0  0  2  0  0  3  0  0  0  0  0  0
  187.0140  177.9190  138.2600 C   0  0  0  0  0  3  0  0  0  0  0  0
  187.0120  176.8720  137.4200 C   0  0  0  0  0  3  0  0  0  0  0  0
  192.8090  176.0150  139.0150 C   0  0  1  0  0  3  0  0  0  0  0  0
  193.3810  175.2470  137.8360 C   0  0  0  0  0  0  0  0  0  0  0  0
  193.3660  174.0900  135.8320 N   0  0  0  0  0  0  0  0  0  0  0  0
  188.2710  178.3650  138.9710 C   0  0  0  0  0  2  0  0  0  0  0  0
  189.2610  177.2900  138.9880 N   0  0  0  0  0  0  0  0  0  0  0  0
  190.5930  175.6050  137.9220 C   0  0  1  0  0  3  0  0  0  0  0  0
  194.7330  173.7870  136.2190 C   0  0  0  0  0  2  0  0  0  0  0  0
  195.0420  174.5830  137.8420 S   0  0  0  0  0  0  0  0  0  0  0  0
  188.2260  176.0610  137.2040 C   0  0  0  0  0  3  0  0  0  0  0  0
  189.2960  176.3100  137.9570 C   0  0  0  0  0  0  0  0  0  0  0  0
  191.2120  175.3000  136.5650 C   0  0  0  0  0  2  0  0  0  0  0  0
  193.6940  177.0240  139.3950 O   0  0  0  0  0  1  0  0  0  0  0  0
  192.7890  173.5960  134.5940 C   0  0  0  0  0  1  0  0  0  0  0  0
  191.4790  176.6350  138.5960 C   0  0  1  0  0  3  0  0  0  0  0  0
  192.6550  174.8750  136.7750 C   0  0  0  0  0  0  0  0  0  0  0  0
  189.5450  176.8070  143.2290 C   0  0  2  0  0  3  0  0  0  0  0  0
  191.8860  177.6780  142.0080 S   0  0  0  0  0  0  0  0  0  0  0  0
  191.5760  176.8080  144.4700 O   0  0  0  0  0  0  0  0  0  0  0  0
  190.6280  176.8340  141.0040 C   0  0  1  0  0  3  0  0  0  0  0  0
  190.9990  177.0960  143.4340 C   0  0  0  0  0  0  0  0  0  0  0  0
  189.2870  176.9310  141.7360 C   0  0  0  0  0  2  0  0  0  0  0  0
  188.2940  177.1960  145.3700 C   0  0  0  0  0  2  0  0  0  0  0  0
  187.2990  176.9440  144.3140 N   0  0  0  0  0  0  0  0  0  0  0  0
  188.5400  177.6780  144.0100 C   0  0  2  0  0  3  0  0  0  0  0  0
  186.2590  177.9420  144.4740 C   0  0  0  0  0  2  0  0  0  0  0  0
  183.9610  178.5430  143.4680 C   0  0  1  0  0  3  0  0  0  0  0  0
  185.3550  177.9430  143.2470 C   0  0  1  0  0  3  0  0  0  0  0  0
  183.6980  179.0620  144.8760 C   0  0  0  0  0  1  0  0  0  0  0  0
  185.0600  179.3690  142.8280 C   0  0  0  0  0  2  0  0  0  0  0  0
  1  8  1  6  0  0  0
  1 22  1  0  0  0  0
  2  7  1  0  0  0  0
  3  2  2  0  0  0  0
  4 15  1  6  0  0  0
  5 11  1  0  0  0  0
  5  4  1  0  0  0  0
  6 10  1  0  0  0  0
  6 18  1  0  0  0  0
  7  8  1  0  0  0  0
  9 14  1  6  0  0  0
  9 13  1  0  0  0  0
  9 17  1  0  0  0  0
 10 11  1  0  0  0  0
 12  3  1  0  0  0  0
 12 13  2  0  0  0  0
 13  8  1  0  0  0  0
 14 18  1  0  0  0  0
 16  6  1  0  0  0  0
 17  4  1  0  0  0  0
 17  1  1  0  0  0  0
 18  5  2  0  0  0  0
 19 23  1  0  0  0  0
 19 27  1  0  0  0  0
 20 23  1  0  0  0  0
 22 24  1  0  0  0  0
 22 20  1  0  0  0  0
 23 21  2  0  0  0  0
 24 19  1  0  0  0  0
 26 28  1  0  0  0  0
 26 25  1  0  0  0  0
 27 26  1  0  0  0  0
 27 25  1  0  0  0  0
 29 31  1  0  0  0  0
 30 29  1  0  0  0  0
 30 28  1  0  0  0  0
 32 30  1  0  0  0  0
 32 29  1  0  0  0  0
M  END
>  <MODEL>
2

>  <REMARK>
 VINA RESULT:      -8.0      4.481      7.358
  Name = 
  4 active torsions:
  status: ('A' for Active; 'I' for Inactive)
    1  A    between atoms: C_3  and  C_14
    2  A    between atoms: C_8  and  C_23
    3  A    between atoms: C_10  and  C_24
    4  A    between atoms: N_19  and  C_24
                            x       y       z     vdW  Elec       q    Type
                         _______ _______ _______ _____ _____    ______ ____

>  <TORSDO>
F 4

$$$$
=
 OpenBabel10262421383D

 32 38  0  0  1  0  0  0  0  0999 V2000
  188.9220  178.3490  141.7840 C   0  0  2  0  0  3  0  0  0  0  0  0
  191.9420  177.5960  144.0450 C   0  0  0  0  0  3  0  0  0  0  0  0
  191.2410  177.0870  145.0700 C   0  0  0  0  0  3  0  0  0  0  0  0
  186.2470  178.4900  141.9110 C   0  0  1  0  0  3  0  0  0  0  0  0
  185.1800  178.6020  142.9850 C   0  0  0  0  0  0  0  0  0  0  0  0
  184.2560  178.4490  145.1020 N   0  0  0  0  0  0  0  0  0  0  0  0
  191.2620  178.2630  142.8700 C   0  0  0  0  0  2  0  0  0  0  0  0
  189.8580  177.8610  142.7930 N   0  0  0  0  0  0  0  0  0  0  0  0
  187.6770  177.5540  143.7410 C   0  0  1  0  0  3  0  0  0  0  0  0
  183.0260  178.6950  144.3720 C   0  0  0  0  0  2  0  0  0  0  0  0
  183.4510  178.8450  142.5950 S   0  0  0  0  0  0  0  0  0  0  0  0
  189.7650  177.0910  145.0660 C   0  0  0  0  0  3  0  0  0  0  0  0
  189.1360  177.4970  143.9640 C   0  0  0  0  0  0  0  0  0  0  0  0
  186.8000  178.1250  144.8480 C   0  0  0  0  0  2  0  0  0  0  0  0
  186.1350  179.5580  141.0210 O   0  0  0  0  0  1  0  0  0  0  0  0
  184.2740  178.2660  146.5430 C   0  0  0  0  0  1  0  0  0  0  0  0
  187.6190  178.5260  142.5780 C   0  0  1  0  0  3  0  0  0  0  0  0
  185.4130  178.3780  144.2840 C   0  0  0  0  0  0  0  0  0  0  0  0
  189.9690  176.1120  138.8390 C   0  0  2  0  0  3  0  0  0  0  0  0
  188.1450  178.1900  139.1360 S   0  0  0  0  0  0  0  0  0  0  0  0
  188.2950  176.4380  137.1790 O   0  0  0  0  0  0  0  0  0  0  0  0
  188.7830  177.3550  140.6190 C   0  0  1  0  0  3  0  0  0  0  0  0
  188.8260  176.8390  138.2020 C   0  0  0  0  0  0  0  0  0  0  0  0
  190.0960  176.6600  140.2510 C   0  0  0  0  0  2  0  0  0  0  0  0
  191.3090  175.6110  136.7770 C   0  0  0  0  0  2  0  0  0  0  0  0
  191.9010  174.8470  137.8870 N   0  0  0  0  0  0  0  0  0  0  0  0
  191.3340  176.1860  138.1220 C   0  0  2  0  0  3  0  0  0  0  0  0
  193.3390  175.0200  137.7930 C   0  0  0  0  0  2  0  0  0  0  0  0
  195.3360  173.5940  136.9990 C   0  0  1  0  0  3  0  0  0  0  0  0
  194.0190  173.6560  137.7830 C   0  0  1  0  0  3  0  0  0  0  0  0
  195.7710  174.9090  136.3620 C   0  0  0  0  0  1  0  0  0  0  0  0
  195.3470  173.7400  138.5070 C   0  0  0  0  0  2  0  0  0  0  0  0
  1 17  1  0  0  0  0
  1  8  1  1  0  0  0
  2  3  2  0  0  0  0
  4 15  1  6  0  0  0
  4 17  1  0  0  0  0
  4  5  1  0  0  0  0
  5 18  2  0  0  0  0
  6 16  1  0  0  0  0
  7  2  1  0  0  0  0
  8  7  1  0  0  0  0
  8 13  1  0  0  0  0
  9 13  1  0  0  0  0
  9 14  1  1  0  0  0
 10  6  1  0  0  0  0
 11  5  1  0  0  0  0
 11 10  1  0  0  0  0
 12  3  1  0  0  0  0
 13 12  2  0  0  0  0
 17  9  1  0  0  0  0
 18 14  1  0  0  0  0
 18  6  1  0  0  0  0
 19 24  1  0  0  0  0
 20 22  1  0  0  0  0
 21 23  2  0  0  0  0
 22  1  1  0  0  0  0
 23 19  1  0  0  0  0
 23 20  1  0  0  0  0
 24 22  1  0  0  0  0
 25 26  1  0  0  0  0
 25 27  1  0  0  0  0
 26 27  1  0  0  0  0
 27 19  1  0  0  0  0
 28 26  1  0  0  0  0
 29 30  1  0  0  0  0
 29 32  1  0  0  0  0
 30 28  1  0  0  0  0
 30 32  1  0  0  0  0
 31 29  1  0  0  0  0
M  END
>  <MODEL>
3

>  <REMARK>
 VINA RESULT:      -7.6      4.059      7.462
  Name = 
  4 active torsions:
  status: ('A' for Active; 'I' for Inactive)
    1  A    between atoms: C_3  and  C_14
    2  A    between atoms: C_8  and  C_23
    3  A    between atoms: C_10  and  C_24
    4  A    between atoms: N_19  and  C_24
                            x       y       z     vdW  Elec       q    Type
                         _______ _______ _______ _____ _____    ______ ____

>  <TORSDO>
F 4

$$$$
=
 OpenBabel10262421383D

 32 38  0  0  1  0  0  0  0  0999 V2000
  185.9150  179.0500  141.3390 C   0  0  2  0  0  3  0  0  0  0  0  0
  184.8030  179.6900  144.9650 C   0  0  0  0  0  3  0  0  0  0  0  0
  183.6530  179.0030  144.8950 C   0  0  0  0  0  3  0  0  0  0  0  0
  184.9310  178.1200  139.0240 C   0  0  1  0  0  3  0  0  0  0  0  0
  183.5670  177.8570  138.4100 C   0  0  0  0  0  0  0  0  0  0  0  0
  181.2860  177.4690  138.3610 N   0  0  0  0  0  0  0  0  0  0  0  0
  185.6410  179.9630  143.7370 C   0  0  0  0  0  2  0  0  0  0  0  0
  185.2990  179.0330  142.6630 N   0  0  0  0  0  0  0  0  0  0  0  0
  183.7340  177.9360  141.2150 C   0  0  1  0  0  3  0  0  0  0  0  0
  181.5640  177.1630  136.9690 C   0  0  0  0  0  2  0  0  0  0  0  0
  183.3650  177.3690  136.7000 S   0  0  0  0  0  0  0  0  0  0  0  0
  183.1850  178.4180  143.6220 C   0  0  0  0  0  3  0  0  0  0  0  0
  183.9920  178.4770  142.5650 C   0  0  0  0  0  0  0  0  0  0  0  0
  182.3630  178.1710  140.5950 C   0  0  0  0  0  2  0  0  0  0  0  0
  185.6500  179.0030  138.2180 O   0  0  0  0  0  1  0  0  0  0  0  0
  179.9460  177.3890  138.9150 C   0  0  0  0  0  1  0  0  0  0  0  0
  184.7350  178.7370  140.4060 C   0  0  1  0  0  3  0  0  0  0  0  0
  182.4330  177.8180  139.1190 C   0  0  0  0  0  0  0  0  0  0  0  0
  189.1470  177.1760  142.2420 C   0  0  2  0  0  3  0  0  0  0  0  0
  188.2620  178.5250  139.9760 S   0  0  0  0  0  0  0  0  0  0  0  0
  190.2770  176.8460  140.1730 O   0  0  0  0  0  0  0  0  0  0  0  0
  187.0510  178.0190  141.2330 C   0  0  1  0  0  3  0  0  0  0  0  0
  189.4150  177.4460  140.7940 C   0  0  0  0  0  0  0  0  0  0  0  0
  187.7930  177.7940  142.5520 C   0  0  0  0  0  2  0  0  0  0  0  0
  191.5490  177.1910  142.9690 C   0  0  0  0  0  2  0  0  0  0  0  0
  190.7620  176.5720  144.0490 N   0  0  0  0  0  0  0  0  0  0  0  0
  190.1980  177.6760  143.2540 C   0  0  2  0  0  3  0  0  0  0  0  0
  191.2280  177.1550  145.2920 C   0  0  0  0  0  2  0  0  0  0  0  0
  190.9470  175.9160  147.5370 C   0  0  1  0  0  3  0  0  0  0  0  0
  190.2960  176.7530  146.4290 C   0  0  1  0  0  3  0  0  0  0  0  0
  192.4300  175.6280  147.3410 C   0  0  0  0  0  1  0  0  0  0  0  0
  190.7460  177.4070  147.7190 C   0  0  0  0  0  2  0  0  0  0  0  0
  1  8  1  1  0  0  0
  3  2  2  0  0  0  0
  4 15  1  6  0  0  0
  4 17  1  0  0  0  0
  5  4  1  0  0  0  0
  5 18  2  0  0  0  0
  6 16  1  0  0  0  0
  6 18  1  0  0  0  0
  7  2  1  0  0  0  0
  8  7  1  0  0  0  0
  9 14  1  6  0  0  0
  9 13  1  0  0  0  0
 10  6  1  0  0  0  0
 11 10  1  0  0  0  0
 11  5  1  0  0  0  0
 12  3  1  0  0  0  0
 13  8  1  0  0  0  0
 13 12  2  0  0  0  0
 17  9  1  0  0  0  0
 17  1  1  0  0  0  0
 18 14  1  0  0  0  0
 19 24  1  0  0  0  0
 19 27  1  0  0  0  0
 20 23  1  0  0  0  0
 20 22  1  0  0  0  0
 21 23  2  0  0  0  0
 22  1  1  0  0  0  0
 22 24  1  0  0  0  0
 23 19  1  0  0  0  0
 25 27  1  0  0  0  0
 25 26  1  0  0  0  0
 26 28  1  0  0  0  0
 27 26  1  0  0  0  0
 28 30  1  0  0  0  0
 29 32  1  0  0  0  0
 30 29  1  0  0  0  0
 30 32  1  0  0  0  0
 31 29  1  0  0  0  0
M  END
>  <MODEL>
4

>  <REMARK>
 VINA RESULT:      -7.4      1.192      1.501
  Name = 
  4 active torsions:
  status: ('A' for Active; 'I' for Inactive)
    1  A    between atoms: C_3  and  C_14
    2  A    between atoms: C_8  and  C_23
    3  A    between atoms: C_10  and  C_24
    4  A    between atoms: N_19  and  C_24
                            x       y       z     vdW  Elec       q    Type
                         _______ _______ _______ _____ _____    ______ ____

>  <TORSDO>
F 4

$$$$
=
 OpenBabel10262421383D

 32 38  0  0  1  0  0  0  0  0999 V2000
  188.2020  178.5710  141.2540 C   0  0  2  0  0  3  0  0  0  0  0  0
  190.5800  178.0820  144.2370 C   0  0  0  0  0  3  0  0  0  0  0  0
  189.6580  177.6160  145.0930 C   0  0  0  0  0  3  0  0  0  0  0  0
  185.5760  178.6190  140.7090 C   0  0  1  0  0  3  0  0  0  0  0  0
  184.2740  178.7620  141.4770 C   0  0  0  0  0  0  0  0  0  0  0  0
  182.8580  178.7150  143.3060 N   0  0  0  0  0  0  0  0  0  0  0  0
  190.2000  178.6440  142.8860 C   0  0  0  0  0  2  0  0  0  0  0  0
  188.8680  178.1860  142.4960 N   0  0  0  0  0  0  0  0  0  0  0  0
  186.5260  177.8600  142.8980 C   0  0  1  0  0  3  0  0  0  0  0  0
  181.8420  178.8660  142.2800 C   0  0  0  0  0  2  0  0  0  0  0  0
  182.6910  178.9140  140.6560 S   0  0  0  0  0  0  0  0  0  0  0  0
  188.2290  177.5640  144.7260 C   0  0  0  0  0  3  0  0  0  0  0  0
  187.8850  177.8730  143.4770 C   0  0  0  0  0  0  0  0  0  0  0  0
  185.3910  178.4700  143.7100 C   0  0  0  0  0  2  0  0  0  0  0  0
  185.6670  179.6220  139.7430 O   0  0  0  0  0  1  0  0  0  0  0  0
  182.5210  178.6270  144.7170 C   0  0  0  0  0  1  0  0  0  0  0  0
  186.7390  178.7500  141.6890 C   0  0  1  0  0  3  0  0  0  0  0  0
  184.1820  178.6330  142.8060 C   0  0  0  0  0  0  0  0  0  0  0  0
  189.9810  176.2990  138.7160 C   0  0  2  0  0  3  0  0  0  0  0  0
  187.9210  178.1580  138.5350 S   0  0  0  0  0  0  0  0  0  0  0  0
  188.5970  176.3200  136.7800 O   0  0  0  0  0  0  0  0  0  0  0  0
  188.3750  177.4980  140.1670 C   0  0  1  0  0  3  0  0  0  0  0  0
  188.8960  176.8430  137.8410 C   0  0  0  0  0  0  0  0  0  0  0  0
  189.7990  176.9440  140.0810 C   0  0  0  0  0  2  0  0  0  0  0  0
  191.6230  176.1410  136.8250 C   0  0  0  0  0  2  0  0  0  0  0  0
  192.0650  175.2090  137.8750 N   0  0  0  0  0  0  0  0  0  0  0  0
  191.4340  176.4900  138.2330 C   0  0  2  0  0  3  0  0  0  0  0  0
  193.4960  175.3980  138.0270 C   0  0  0  0  0  2  0  0  0  0  0  0
  195.2810  173.7230  137.2150 C   0  0  1  0  0  3  0  0  0  0  0  0
  194.2240  174.7700  136.8440 C   0  0  1  0  0  3  0  0  0  0  0  0
  195.4320  173.4580  138.7080 C   0  0  0  0  0  1  0  0  0  0  0  0
  193.8990  173.2930  136.7660 C   0  0  0  0  0  2  0  0  0  0  0  0
  1 17  1  0  0  0  0
  1  8  1  1  0  0  0
  2  3  2  0  0  0  0
  4 15  1  6  0  0  0
  4  5  1  0  0  0  0
  4 17  1  0  0  0  0
  5 18  2  0  0  0  0
  6 16  1  0  0  0  0
  7  2  1  0  0  0  0
  8  7  1  0  0  0  0
  8 13  1  0  0  0  0
  9 13  1  0  0  0  0
  9 14  1  1  0  0  0
 10  6  1  0  0  0  0
 11  5  1  0  0  0  0
 11 10  1  0  0  0  0
 12  3  1  0  0  0  0
 13 12  2  0  0  0  0
 17  9  1  0  0  0  0
 18  6  1  0  0  0  0
 18 14  1  0  0  0  0
 19 24  1  0  0  0  0
 20 22  1  0  0  0  0
 21 23  2  0  0  0  0
 22  1  1  0  0  0  0
 23 20  1  0  0  0  0
 23 19  1  0  0  0  0
 24 22  1  0  0  0  0
 25 26  1  0  0  0  0
 25 27  1  0  0  0  0
 26 28  1  0  0  0  0
 26 27  1  0  0  0  0
 27 19  1  0  0  0  0
 29 31  1  0  0  0  0
 30 29  1  0  0  0  0
 30 28  1  0  0  0  0
 32 30  1  0  0  0  0
 32 29  1  0  0  0  0
M  END
>  <MODEL>
5

>  <REMARK>
 VINA RESULT:      -7.2      3.949      6.733
  Name = 
  4 active torsions:
  status: ('A' for Active; 'I' for Inactive)
    1  A    between atoms: C_3  and  C_14
    2  A    between atoms: C_8  and  C_23
    3  A    between atoms: C_10  and  C_24
    4  A    between atoms: N_19  and  C_24
                            x       y       z     vdW  Elec       q    Type
                         _______ _______ _______ _____ _____    ______ ____

>  <TORSDO>
F 4

$$$$
=
 OpenBabel10262421383D

 32 38  0  0  1  0  0  0  0  0999 V2000
  187.8640  178.3180  139.7330 C   0  0  2  0  0  3  0  0  0  0  0  0
  191.5160  177.1520  140.0510 C   0  0  0  0  0  3  0  0  0  0  0  0
  191.3850  176.5680  141.2520 C   0  0  0  0  0  3  0  0  0  0  0  0
  185.6570  178.5870  141.2340 C   0  0  1  0  0  3  0  0  0  0  0  0
  185.3030  178.6330  142.7100 C   0  0  0  0  0  0  0  0  0  0  0  0
  185.5750  178.2920  144.9820 N   0  0  0  0  0  0  0  0  0  0  0  0
  190.4070  177.9830  139.4460 C   0  0  0  0  0  2  0  0  0  0  0  0
  189.1270  177.6690  140.0780 N   0  0  0  0  0  0  0  0  0  0  0  0
  187.7120  177.3740  141.9920 C   0  0  1  0  0  3  0  0  0  0  0  0
  184.1770  178.6850  145.0120 C   0  0  0  0  0  2  0  0  0  0  0  0
  183.6520  179.0120  143.2860 S   0  0  0  0  0  0  0  0  0  0  0  0
  190.1220  176.6520  142.0120 C   0  0  0  0  0  3  0  0  0  0  0  0
  189.0670  177.2130  141.4250 C   0  0  0  0  0  0  0  0  0  0  0  0
  187.5860  177.8620  143.4290 C   0  0  0  0  0  2  0  0  0  0  0  0
  185.2200  179.7540  140.6060 O   0  0  0  0  0  1  0  0  0  0  0  0
  186.3030  177.9450  146.1900 C   0  0  0  0  0  1  0  0  0  0  0  0
  187.1730  178.4730  141.0970 C   0  0  1  0  0  3  0  0  0  0  0  0
  186.1400  178.2510  143.6820 C   0  0  0  0  0  0  0  0  0  0  0  0
  187.1300  176.0440  136.7230 C   0  0  2  0  0  3  0  0  0  0  0  0
  186.1990  178.5340  137.5380 S   0  0  0  0  0  0  0  0  0  0  0  0
  185.1480  176.9250  135.7420 O   0  0  0  0  0  0  0  0  0  0  0  0
  187.0490  177.4720  138.7420 C   0  0  1  0  0  3  0  0  0  0  0  0
  186.0950  177.1000  136.4930 C   0  0  0  0  0  0  0  0  0  0  0  0
  187.8930  176.4540  137.9720 C   0  0  0  0  0  2  0  0  0  0  0  0
  187.6070  174.8050  134.5940 C   0  0  0  0  0  2  0  0  0  0  0  0
  188.6040  174.3760  135.5890 N   0  0  0  0  0  0  0  0  0  0  0  0
  188.1180  175.7670  135.5710 C   0  0  2  0  0  3  0  0  0  0  0  0
  189.8910  174.3820  134.9200 C   0  0  0  0  0  2  0  0  0  0  0  0
  191.9560  174.5010  136.4610 C   0  0  1  0  0  3  0  0  0  0  0  0
  190.9100  173.6230  135.7620 C   0  0  1  0  0  3  0  0  0  0  0  0
  191.8080  175.9990  136.2180 C   0  0  0  0  0  1  0  0  0  0  0  0
  190.7470  173.9950  137.2220 C   0  0  0  0  0  2  0  0  0  0  0  0
  1  8  1  1  0  0  0
  1 17  1  0  0  0  0
  2  3  2  0  0  0  0
  3 12  1  0  0  0  0
  4 15  1  6  0  0  0
  4  5  1  0  0  0  0
  5 11  1  0  0  0  0
  5 18  2  0  0  0  0
  6 10  1  0  0  0  0
  6 16  1  0  0  0  0
  7  2  1  0  0  0  0
  7  8  1  0  0  0  0
  8 13  1  0  0  0  0
  9 14  1  1  0  0  0
 11 10  1  0  0  0  0
 13  9  1  0  0  0  0
 13 12  2  0  0  0  0
 14 18  1  0  0  0  0
 17  4  1  0  0  0  0
 17  9  1  0  0  0  0
 18  6  1  0  0  0  0
 19 24  1  0  0  0  0
 20 22  1  0  0  0  0
 21 23  2  0  0  0  0
 22  1  1  0  0  0  0
 23 19  1  0  0  0  0
 23 20  1  0  0  0  0
 24 22  1  0  0  0  0
 25 27  1  0  0  0  0
 25 26  1  0  0  0  0
 27 26  1  0  0  0  0
 27 19  1  0  0  0  0
 28 26  1  0  0  0  0
 28 30  1  0  0  0  0
 29 32  1  0  0  0  0
 30 29  1  0  0  0  0
 30 32  1  0  0  0  0
 31 29  1  0  0  0  0
M  END
>  <MODEL>
6

>  <REMARK>
 VINA RESULT:      -6.7      3.903      7.952
  Name = 
  4 active torsions:
  status: ('A' for Active; 'I' for Inactive)
    1  A    between atoms: C_3  and  C_14
    2  A    between atoms: C_8  and  C_23
    3  A    between atoms: C_10  and  C_24
    4  A    between atoms: N_19  and  C_24
                            x       y       z     vdW  Elec       q    Type
                         _______ _______ _______ _____ _____    ______ ____

>  <TORSDO>
F 4

$$$$
=
 OpenBabel10262421383D

 32 38  0  0  1  0  0  0  0  0999 V2000
  182.1620  178.9650  140.3520 C   0  0  2  0  0  3  0  0  0  0  0  0
  179.0440  176.7900  140.9360 C   0  0  0  0  0  3  0  0  0  0  0  0
  179.5870  175.6320  140.5280 C   0  0  0  0  0  3  0  0  0  0  0  0
  184.5530  178.8430  139.1430 C   0  0  1  0  0  3  0  0  0  0  0  0
  185.2360  177.9860  138.0930 C   0  0  0  0  0  0  0  0  0  0  0  0
  185.6070  176.1270  136.7650 N   0  0  0  0  0  0  0  0  0  0  0  0
  179.7630  178.1090  140.7660 C   0  0  0  0  0  2  0  0  0  0  0  0
  181.1950  177.8920  140.5690 N   0  0  0  0  0  0  0  0  0  0  0  0
  183.0610  176.8600  139.4740 C   0  0  1  0  0  3  0  0  0  0  0  0
  186.8490  176.8210  136.4750 C   0  0  0  0  0  2  0  0  0  0  0  0
  186.8540  178.3820  137.4380 S   0  0  0  0  0  0  0  0  0  0  0  0
  180.9470  175.5840  139.9560 C   0  0  0  0  0  3  0  0  0  0  0  0
  181.6790  176.6970  139.9670 C   0  0  0  0  0  0  0  0  0  0  0  0
  183.4240  176.2440  138.1290 C   0  0  0  0  0  2  0  0  0  0  0  0
  184.5580  180.1780  138.7390 O   0  0  0  0  0  1  0  0  0  0  0  0
  185.2880  174.8390  136.1720 C   0  0  0  0  0  1  0  0  0  0  0  0
  183.1130  178.3660  139.3040 C   0  0  1  0  0  3  0  0  0  0  0  0
  184.7660  176.8000  137.6870 C   0  0  0  0  0  0  0  0  0  0  0  0
  184.6940  178.7840  143.2370 C   0  0  2  0  0  3  0  0  0  0  0  0
  181.9170  178.8050  143.1000 S   0  0  0  0  0  0  0  0  0  0  0  0
  183.4340  179.2380  145.2050 O   0  0  0  0  0  0  0  0  0  0  0  0
  182.8770  179.3510  141.6570 C   0  0  1  0  0  3  0  0  0  0  0  0
  183.4300  178.9190  144.0270 C   0  0  0  0  0  0  0  0  0  0  0  0
  184.2880  178.7720  141.7720 C   0  0  0  0  0  2  0  0  0  0  0  0
  186.2120  177.6290  144.8680 C   0  0  0  0  0  2  0  0  0  0  0  0
  187.0060  177.9430  143.6680 N   0  0  0  0  0  0  0  0  0  0  0  0
  185.5880  177.5650  143.5460 C   0  0  2  0  0  3  0  0  0  0  0  0
  187.7770  176.7550  143.3550 C   0  0  0  0  0  2  0  0  0  0  0  0
  190.3420  176.5400  143.5280 C   0  0  1  0  0  3  0  0  0  0  0  0
  189.0020  176.6850  144.2600 C   0  0  1  0  0  3  0  0  0  0  0  0
  190.2470  176.5040  142.0080 C   0  0  0  0  0  1  0  0  0  0  0  0
  189.8820  177.8960  144.0270 C   0  0  0  0  0  2  0  0  0  0  0  0
  1  8  1  1  0  0  0
  1 22  1  0  0  0  0
  3  2  2  0  0  0  0
  4 15  1  6  0  0  0
  4 17  1  0  0  0  0
  5  4  1  0  0  0  0
  6 18  1  0  0  0  0
  7  2  1  0  0  0  0
  8  7  1  0  0  0  0
  9 14  1  6  0  0  0
  9 13  1  0  0  0  0
 10  6  1  0  0  0  0
 10 11  1  0  0  0  0
 11  5  1  0  0  0  0
 12 13  2  0  0  0  0
 12  3  1  0  0  0  0
 13  8  1  0  0  0  0
 16  6  1  0  0  0  0
 17  9  1  0  0  0  0
 17  1  1  0  0  0  0
 18  5  2  0  0  0  0
 18 14  1  0  0  0  0
 19 27  1  0  0  0  0
 19 23  1  0  0  0  0
 20 23  1  0  0  0  0
 22 24  1  0  0  0  0
 22 20  1  0  0  0  0
 23 21  2  0  0  0  0
 24 19  1  0  0  0  0
 26 25  1  0  0  0  0
 27 26  1  0  0  0  0
 27 25  1  0  0  0  0
 28 26  1  0  0  0  0
 28 30  1  0  0  0  0
 29 32  1  0  0  0  0
 29 30  1  0  0  0  0
 31 29  1  0  0  0  0
 32 30  1  0  0  0  0
M  END
>  <MODEL>
7

>  <REMARK>
 VINA RESULT:      -6.6      2.764      4.580
  Name = 
  4 active torsions:
  status: ('A' for Active; 'I' for Inactive)
    1  A    between atoms: C_3  and  C_14
    2  A    between atoms: C_8  and  C_23
    3  A    between atoms: C_10  and  C_24
    4  A    between atoms: N_19  and  C_24
                            x       y       z     vdW  Elec       q    Type
                         _______ _______ _______ _____ _____    ______ ____

>  <TORSDO>
F 4

$$$$
=
 OpenBabel10262421383D

 32 38  0  0  1  0  0  0  0  0999 V2000
  186.9980  178.7770  140.3080 C   0  0  2  0  0  3  0  0  0  0  0  0
  190.2690  177.7470  138.5650 C   0  0  0  0  0  3  0  0  0  0  0  0
  190.7130  176.9390  139.5400 C   0  0  0  0  0  3  0  0  0  0  0  0
  185.8270  178.6480  142.7170 C   0  0  1  0  0  3  0  0  0  0  0  0
  186.2450  178.3940  144.1550 C   0  0  0  0  0  0  0  0  0  0  0  0
  187.5760  177.6360  145.8890 N   0  0  0  0  0  0  0  0  0  0  0  0
  189.0520  178.6250  138.7530 C   0  0  0  0  0  2  0  0  0  0  0  0
  188.2310  178.1350  139.8580 N   0  0  0  0  0  0  0  0  0  0  0  0
  187.9220  177.4120  142.1230 C   0  0  1  0  0  3  0  0  0  0  0  0
  186.3960  177.9490  146.6750 C   0  0  0  0  0  2  0  0  0  0  0  0
  185.1110  178.5760  145.5270 S   0  0  0  0  0  0  0  0  0  0  0  0
  189.9900  176.8150  140.8210 C   0  0  0  0  0  3  0  0  0  0  0  0
  188.8150  177.4280  140.9460 C   0  0  0  0  0  0  0  0  0  0  0  0
  188.5420  177.6090  143.5000 C   0  0  0  0  0  2  0  0  0  0  0  0
  185.2020  179.8910  142.6190 O   0  0  0  0  0  1  0  0  0  0  0  0
  188.7830  177.1000  146.4930 C   0  0  0  0  0  1  0  0  0  0  0  0
  187.0730  178.6350  141.8360 C   0  0  1  0  0  3  0  0  0  0  0  0
  187.4290  177.8730  144.4990 C   0  0  0  0  0  0  0  0  0  0  0  0
  184.7870  177.0300  137.6940 C   0  0  2  0  0  3  0  0  0  0  0  0
  184.5190  179.3380  139.2220 S   0  0  0  0  0  0  0  0  0  0  0  0
  182.6430  178.0380  137.9150 O   0  0  0  0  0  0  0  0  0  0  0  0
  185.7580  178.0990  139.7030 C   0  0  1  0  0  3  0  0  0  0  0  0
  183.8400  178.0970  138.1450 C   0  0  0  0  0  0  0  0  0  0  0  0
  186.0720  177.2340  138.4810 C   0  0  0  0  0  2  0  0  0  0  0  0
  184.2310  176.0330  135.4600 C   0  0  0  0  0  2  0  0  0  0  0  0
  185.6090  175.6360  135.7920 N   0  0  0  0  0  0  0  0  0  0  0  0
  185.0990  176.9600  136.1850 C   0  0  2  0  0  3  0  0  0  0  0  0
  186.4020  175.8390  134.5940 C   0  0  0  0  0  2  0  0  0  0  0  0
  188.9490  175.9630  134.9880 C   0  0  1  0  0  3  0  0  0  0  0  0
  187.7210  175.0840  134.7180 C   0  0  1  0  0  3  0  0  0  0  0  0
  188.6610  177.4550  135.1060 C   0  0  0  0  0  1  0  0  0  0  0  0
  188.2650  175.2300  136.1250 C   0  0  0  0  0  2  0  0  0  0  0  0
  1  8  1  6  0  0  0
  1 17  1  0  0  0  0
  2  7  1  0  0  0  0
  2  3  2  0  0  0  0
  3 12  1  0  0  0  0
  4 15  1  1  0  0  0
  4  5  1  0  0  0  0
  5 18  2  0  0  0  0
  5 11  1  0  0  0  0
  6 16  1  0  0  0  0
  6 10  1  0  0  0  0
  7  8  1  0  0  0  0
  8 13  1  0  0  0  0
  9 14  1  1  0  0  0
 11 10  1  0  0  0  0
 12 13  2  0  0  0  0
 13  9  1  0  0  0  0
 14 18  1  0  0  0  0
 17  9  1  0  0  0  0
 17  4  1  0  0  0  0
 18  6  1  0  0  0  0
 19 23  1  0  0  0  0
 19 24  1  0  0  0  0
 20 22  1  0  0  0  0
 21 23  2  0  0  0  0
 22  1  1  0  0  0  0
 23 20  1  0  0  0  0
 24 22  1  0  0  0  0
 25 26  1  0  0  0  0
 25 27  1  0  0  0  0
 26 27  1  0  0  0  0
 27 19  1  0  0  0  0
 28 30  1  0  0  0  0
 28 26  1  0  0  0  0
 29 31  1  0  0  0  0
 29 32  1  0  0  0  0
 30 29  1  0  0  0  0
 30 32  1  0  0  0  0
M  END
>  <MODEL>
8

>  <REMARK>
 VINA RESULT:      -6.6      3.163      8.535
  Name = 
  4 active torsions:
  status: ('A' for Active; 'I' for Inactive)
    1  A    between atoms: C_3  and  C_14
    2  A    between atoms: C_8  and  C_23
    3  A    between atoms: C_10  and  C_24
    4  A    between atoms: N_19  and  C_24
                            x       y       z     vdW  Elec       q    Type
                         _______ _______ _______ _____ _____    ______ ____

>  <TORSDO>
F 4

$$$$
=
 OpenBabel10262421383D

 32 38  0  0  1  0  0  0  0  0999 V2000
  187.4420  177.1640  142.4750 C   0  0  2  0  0  3  0  0  0  0  0  0
  183.8980  178.6280  142.7800 C   0  0  0  0  0  3  0  0  0  0  0  0
  184.1030  179.2840  143.9320 C   0  0  0  0  0  3  0  0  0  0  0  0
  189.6610  176.8350  143.9450 C   0  0  1  0  0  3  0  0  0  0  0  0
  190.0480  176.8670  145.4130 C   0  0  0  0  0  0  0  0  0  0  0  0
  189.8620  177.3910  147.6600 N   0  0  0  0  0  0  0  0  0  0  0  0
  184.9260  177.6730  142.2150 C   0  0  0  0  0  2  0  0  0  0  0  0
  186.2420  177.9320  142.7960 N   0  0  0  0  0  0  0  0  0  0  0  0
  187.7230  178.2540  144.6540 C   0  0  1  0  0  3  0  0  0  0  0  0
  191.2260  176.8940  147.6900 C   0  0  0  0  0  2  0  0  0  0  0  0
  191.6800  176.4050  145.9830 S   0  0  0  0  0  0  0  0  0  0  0  0
  185.3760  179.1580  144.6700 C   0  0  0  0  0  3  0  0  0  0  0  0
  186.3700  178.4770  144.1040 C   0  0  0  0  0  0  0  0  0  0  0  0
  187.8500  177.8620  146.1200 C   0  0  0  0  0  2  0  0  0  0  0  0
  189.9930  175.5960  143.3960 O   0  0  0  0  0  1  0  0  0  0  0  0
  189.1930  177.8780  148.8540 C   0  0  0  0  0  1  0  0  0  0  0  0
  188.1550  177.0550  143.8310 C   0  0  1  0  0  3  0  0  0  0  0  0
  189.2680  177.3810  146.3720 C   0  0  0  0  0  0  0  0  0  0  0  0
  188.4080  178.6280  139.0540 C   0  0  2  0  0  3  0  0  0  0  0  0
  189.5630  176.7500  140.7500 S   0  0  0  0  0  0  0  0  0  0  0  0
  190.6810  178.0030  138.7260 O   0  0  0  0  0  0  0  0  0  0  0  0
  188.2930  177.8720  141.4080 C   0  0  1  0  0  3  0  0  0  0  0  0
  189.6390  177.8240  139.3350 C   0  0  0  0  0  0  0  0  0  0  0  0
  187.4730  178.4100  140.2330 C   0  0  0  0  0  2  0  0  0  0  0  0
  186.2890  177.8840  137.9340 C   0  0  0  0  0  2  0  0  0  0  0  0
  187.3380  176.9080  137.5930 N   0  0  0  0  0  0  0  0  0  0  0  0
  187.6660  178.3360  137.7330 C   0  0  2  0  0  3  0  0  0  0  0  0
  187.2210  176.6490  136.1710 C   0  0  0  0  0  2  0  0  0  0  0  0
  189.2370  175.3510  135.2200 C   0  0  1  0  0  3  0  0  0  0  0  0
  187.8370  175.2940  135.8440 C   0  0  1  0  0  3  0  0  0  0  0  0
  189.8050  176.7530  135.0360 C   0  0  0  0  0  1  0  0  0  0  0  0
  189.0670  175.0690  136.6990 C   0  0  0  0  0  2  0  0  0  0  0  0
  1  8  1  1  0  0  0
  1 17  1  0  0  0  0
  2  3  2  0  0  0  0
  3 12  1  0  0  0  0
  4 15  1  1  0  0  0
  4  5  1  0  0  0  0
  5 11  1  0  0  0  0
  5 18  2  0  0  0  0
  6 10  1  0  0  0  0
  6 16  1  0  0  0  0
  7  2  1  0  0  0  0
  7  8  1  0  0  0  0
  8 13  1  0  0  0  0
  9 14  1  1  0  0  0
 11 10  1  0  0  0  0
 13  9  1  0  0  0  0
 13 12  2  0  0  0  0
 14 18  1  0  0  0  0
 17  4  1  0  0  0  0
 17  9  1  0  0  0  0
 18  6  1  0  0  0  0
 19 23  1  0  0  0  0
 19 24  1  0  0  0  0
 20 22  1  0  0  0  0
 21 23  2  0  0  0  0
 22  1  1  0  0  0  0
 23 20  1  0  0  0  0
 24 22  1  0  0  0  0
 26 27  1  0  0  0  0
 26 25  1  0  0  0  0
 27 25  1  0  0  0  0
 27 19  1  0  0  0  0
 28 26  1  0  0  0  0
 29 30  1  0  0  0  0
 29 32  1  0  0  0  0
 30 28  1  0  0  0  0
 30 32  1  0  0  0  0
 31 29  1  0  0  0  0
M  END
>  <MODEL>
9

>  <REMARK>
 VINA RESULT:      -6.6      3.023      8.216
  Name = 
  4 active torsions:
  status: ('A' for Active; 'I' for Inactive)
    1  A    between atoms: C_3  and  C_14
    2  A    between atoms: C_8  and  C_23
    3  A    between atoms: C_10  and  C_24
    4  A    between atoms: N_19  and  C_24
                            x       y       z     vdW  Elec       q    Type
                         _______ _______ _______ _____ _____    ______ ____

>  <TORSDO>
F 4

$$$$
