=
 OpenBabel10262423203D

 34 37  0  0  1  0  0  0  0  0999 V2000
  181.8290  179.8640  137.7380 C   0  0  1  0  0  0  0  0  0  0  0  0
  179.3600  178.3130  140.5340 C   0  0  0  0  0  2  0  0  0  0  0  0
  179.3550  179.6900  139.8860 C   0  0  0  0  0  2  0  0  0  0  0  0
  182.6410  180.6330  138.5970 O   0  0  0  0  0  0  0  0  0  0  0  0
  182.5940  178.9540  137.0060 O   0  0  0  0  0  1  0  0  0  0  0  0
  180.2440  177.3440  139.7620 C   0  0  0  0  0  2  0  0  0  0  0  0
  181.6630  177.3640  140.3280 C   0  0  2  0  0  3  0  0  0  0  0  0
  180.6950  180.4010  140.0280 C   0  0  0  0  0  2  0  0  0  0  0  0
  182.5560  178.5200  139.8330 C   0  0  1  0  0  3  0  0  0  0  0  0
  181.7830  179.6990  139.2160 C   0  0  1  0  0  0  0  0  0  0  0  0
  180.8710  182.0910  137.0340 C   0  0  0  0  0  3  0  0  0  0  0  0
  178.9750  182.2060  135.5330 C   0  0  0  0  0  3  0  0  0  0  0  0
  179.9460  182.8460  136.3090 C   0  0  0  0  0  3  0  0  0  0  0  0
  179.8580  180.0540  136.2030 C   0  0  0  0  0  3  0  0  0  0  0  0
  180.8230  180.6890  136.9920 C   0  0  0  0  0  0  0  0  0  0  0  0
  178.9320  180.8100  135.4780 C   0  0  0  0  0  3  0  0  0  0  0  0
  184.1950  177.8800  141.5550 C   0  0  1  0  0  3  0  0  0  0  0  0
  183.4450  179.0030  140.9800 C   0  0  1  0  0  3  0  0  0  0  0  0
  185.2230  178.9650  140.4750 S   0  0  0  0  0  0  0  0  0  0  0  0
  184.4490  178.0770  143.0610 C   0  0  2  0  0  3  0  0  0  0  0  0
  183.8680  179.3480  143.6960 C   0  0  0  0  0  2  0  0  0  0  0  0
  182.7300  179.0190  144.6490 C   0  0  0  0  0  2  0  0  0  0  0  0
  181.4590  178.7310  143.8730 C   0  0  0  0  0  1  0  0  0  0  0  0
  185.9270  177.8910  143.4000 C   0  0  0  0  0  2  0  0  0  0  0  0
  186.2660  178.4280  144.7840 C   0  0  0  0  0  2  0  0  0  0  0  0
  187.1540  177.4460  145.5320 C   0  0  1  0  0  3  0  0  0  0  0  0
  188.5800  177.5630  145.0170 C   0  0  0  0  0  1  0  0  0  0  0  0
  187.0730  177.6790  147.0430 C   0  0  1  0  0  3  0  0  0  0  0  0
  188.4530  177.8980  147.6340 C   0  0  0  0  0  1  0  0  0  0  0  0
  186.2490  178.7650  147.3440 O   0  0  0  0  0  1  0  0  0  0  0  0
  182.3450  176.0370  140.0310 C   0  0  0  0  0  2  0  0  0  0  0  0
  182.9780  176.0470  138.6490 C   0  0  0  0  0  2  0  0  0  0  0  0
  182.2380  175.0970  137.7260 C   0  0  0  0  0  2  0  0  0  0  0  0
  182.7650  175.2500  136.3160 C   0  0  0  0  0  1  0  0  0  0  0  0
  1  5  1  6  0  0  0
  1  4  1  0  0  0  0
  1 10  1  0  0  0  0
  3  8  1  0  0  0  0
  3  2  1  0  0  0  0
  4 10  1  0  0  0  0
  6  7  1  0  0  0  0
  6  2  1  0  0  0  0
  7 31  1  6  0  0  0
  9  7  1  0  0  0  0
  9 18  1  1  0  0  0
 10  9  1  0  0  0  0
 10  8  1  1  0  0  0
 12 13  1  0  0  0  0
 13 11  2  0  0  0  0
 14 15  2  0  0  0  0
 15 11  1  0  0  0  0
 15  1  1  0  0  0  0
 16 12  2  0  0  0  0
 16 14  1  0  0  0  0
 17 20  1  1  0  0  0
 18 19  1  6  0  0  0
 18 17  1  0  0  0  0
 19 17  1  0  0  0  0
 20 24  1  6  0  0  0
 20 21  1  0  0  0  0
 21 22  1  0  0  0  0
 23 22  1  0  0  0  0
 24 25  1  0  0  0  0
 25 26  1  0  0  0  0
 26 27  1  6  0  0  0
 26 28  1  0  0  0  0
 28 30  1  0  0  0  0
 28 29  1  6  0  0  0
 32 31  1  0  0  0  0
 33 32  1  0  0  0  0
 34 33  1  0  0  0  0
M  END
>  <MODEL>
1

>  <REMARK>
 VINA RESULT:      -5.8      0.000      0.000
  Name = 
  12 active torsions:
  status: ('A' for Active; 'I' for Inactive)
    1  A    between atoms: C_1  and  C_20
    2  A    between atoms: C_3  and  C_13
    3  A    between atoms: C_4  and  C_16
    4  A    between atoms: C_6  and  C_28
    5  A    between atoms: C_7  and  C_11
    6  A    between atoms: C_7  and  C_29
    7  A    between atoms: C_13  and  C_27
    8  A    between atoms: C_16  and  C_28
    9  A    between atoms: C_18  and  C_33
   10  A    between atoms: C_25  and  C_27
   11  A    between atoms: C_26  and  C_28
   12  A    between atoms: C_26  and  C_29
                            x       y       z     vdW  Elec       q    Type
                         _______ _______ _______ _____ _____    ______ ____

>  <TORSDO>
F 12

$$$$
=
 OpenBabel10262423203D

 34 37  0  0  1  0  0  0  0  0999 V2000
  183.1680  179.7200  139.0250 C   0  0  1  0  0  0  0  0  0  0  0  0
  184.6050  176.2740  137.4830 C   0  0  0  0  0  2  0  0  0  0  0  0
  183.2080  176.6080  137.9880 C   0  0  0  0  0  2  0  0  0  0  0  0
  183.2190  179.3620  140.3880 O   0  0  0  0  0  0  0  0  0  0  0  0
  183.9160  180.8740  138.7800 O   0  0  0  0  0  1  0  0  0  0  0  0
  185.4320  177.5340  137.2760 C   0  0  0  0  0  2  0  0  0  0  0  0
  186.2170  177.8600  138.5450 C   0  0  2  0  0  3  0  0  0  0  0  0
  183.2210  177.1400  139.4170 C   0  0  0  0  0  2  0  0  0  0  0  0
  185.4240  178.6010  139.6420 C   0  0  1  0  0  3  0  0  0  0  0  0
  183.8960  178.5090  139.4910 C   0  0  1  0  0  0  0  0  0  0  0  0
  181.5800  179.5370  137.0720 C   0  0  0  0  0  3  0  0  0  0  0  0
  179.1850  179.4590  137.4230 C   0  0  0  0  0  3  0  0  0  0  0  0
  180.2840  179.4460  136.5580 C   0  0  0  0  0  3  0  0  0  0  0  0
  180.6800  179.6530  139.3180 C   0  0  0  0  0  3  0  0  0  0  0  0
  181.7830  179.6530  138.4560 C   0  0  0  0  0  0  0  0  0  0  0  0
  179.3830  179.5610  138.8030 C   0  0  0  0  0  3  0  0  0  0  0  0
  187.0250  178.8420  141.4970 C   0  0  1  0  0  3  0  0  0  0  0  0
  185.8590  178.0910  141.0160 C   0  0  1  0  0  3  0  0  0  0  0  0
  185.4520  179.3350  142.3220 S   0  0  0  0  0  0  0  0  0  0  0  0
  187.9440  177.9700  142.3720 C   0  0  2  0  0  3  0  0  0  0  0  0
  188.8710  176.9930  141.6350 C   0  0  0  0  0  2  0  0  0  0  0  0
  190.3300  177.3890  141.7970 C   0  0  0  0  0  2  0  0  0  0  0  0
  190.9970  176.5220  142.8480 C   0  0  0  0  0  1  0  0  0  0  0  0
  187.1540  177.2810  143.4830 C   0  0  0  0  0  2  0  0  0  0  0  0
  187.9920  177.0800  144.7380 C   0  0  0  0  0  2  0  0  0  0  0  0
  187.4610  177.9380  145.8750 C   0  0  1  0  0  3  0  0  0  0  0  0
  185.9420  177.9600  145.8230 C   0  0  0  0  0  1  0  0  0  0  0  0
  187.9780  177.4350  147.2250 C   0  0  1  0  0  3  0  0  0  0  0  0
  189.4470  177.0630  147.1420 C   0  0  0  0  0  1  0  0  0  0  0  0
  187.7850  178.3880  148.2280 O   0  0  0  0  0  1  0  0  0  0  0  0
  187.4530  178.6700  138.1820 C   0  0  0  0  0  2  0  0  0  0  0  0
  188.4490  177.8250  137.4040 C   0  0  0  0  0  2  0  0  0  0  0  0
  188.7330  176.5320  138.1460 C   0  0  0  0  0  2  0  0  0  0  0  0
  190.2270  176.2940  138.1930 C   0  0  0  0  0  1  0  0  0  0  0  0
  1  5  1  6  0  0  0
  1 10  1  0  0  0  0
  1  4  1  0  0  0  0
  2  3  1  0  0  0  0
  3  8  1  0  0  0  0
  6  2  1  0  0  0  0
  6  7  1  0  0  0  0
  7 31  1  6  0  0  0
  7  9  1  0  0  0  0
  9 18  1  1  0  0  0
 10  8  1  6  0  0  0
 10  9  1  0  0  0  0
 10  4  1  0  0  0  0
 11 15  1  0  0  0  0
 12 16  2  0  0  0  0
 13 11  2  0  0  0  0
 13 12  1  0  0  0  0
 15  1  1  0  0  0  0
 15 14  2  0  0  0  0
 16 14  1  0  0  0  0
 17 19  1  0  0  0  0
 17 20  1  1  0  0  0
 18 17  1  0  0  0  0
 18 19  1  1  0  0  0
 20 21  1  6  0  0  0
 20 24  1  0  0  0  0
 21 22  1  0  0  0  0
 22 23  1  0  0  0  0
 24 25  1  0  0  0  0
 25 26  1  0  0  0  0
 26 27  1  1  0  0  0
 26 28  1  0  0  0  0
 28 29  1  6  0  0  0
 28 30  1  0  0  0  0
 32 33  1  0  0  0  0
 32 31  1  0  0  0  0
 33 34  1  0  0  0  0
M  END
>  <MODEL>
2

>  <REMARK>
 VINA RESULT:      -5.8      2.747      4.411
  Name = 
  12 active torsions:
  status: ('A' for Active; 'I' for Inactive)
    1  A    between atoms: C_1  and  C_20
    2  A    between atoms: C_3  and  C_13
    3  A    between atoms: C_4  and  C_16
    4  A    between atoms: C_6  and  C_28
    5  A    between atoms: C_7  and  C_11
    6  A    between atoms: C_7  and  C_29
    7  A    between atoms: C_13  and  C_27
    8  A    between atoms: C_16  and  C_28
    9  A    between atoms: C_18  and  C_33
   10  A    between atoms: C_25  and  C_27
   11  A    between atoms: C_26  and  C_28
   12  A    between atoms: C_26  and  C_29
                            x       y       z     vdW  Elec       q    Type
                         _______ _______ _______ _____ _____    ______ ____

>  <TORSDO>
F 12

$$$$
=
 OpenBabel10262423203D

 34 37  0  0  1  0  0  0  0  0999 V2000
  191.0660  177.7880  143.5970 C   0  0  1  0  0  0  0  0  0  0  0  0
  187.4400  176.7610  142.1430 C   0  0  0  0  0  2  0  0  0  0  0  0
  188.2110  176.1940  143.3270 C   0  0  0  0  0  2  0  0  0  0  0  0
  191.8120  176.7360  143.0270 O   0  0  0  0  0  0  0  0  0  0  0  0
  191.5690  179.0300  143.2020 O   0  0  0  0  0  1  0  0  0  0  0  0
  188.0310  178.0850  141.6830 C   0  0  0  0  0  2  0  0  0  0  0  0
  189.0740  177.8430  140.5930 C   0  0  2  0  0  3  0  0  0  0  0  0
  189.6080  175.7260  142.9360 C   0  0  0  0  0  2  0  0  0  0  0  0
  190.4730  177.4320  141.0970 C   0  0  1  0  0  3  0  0  0  0  0  0
  190.4970  176.9050  142.5430 C   0  0  1  0  0  0  0  0  0  0  0  0
  189.6210  178.1040  145.6420 C   0  0  0  0  0  3  0  0  0  0  0  0
  190.2450  177.1200  147.7650 C   0  0  0  0  0  3  0  0  0  0  0  0
  189.3560  177.8770  146.9950 C   0  0  0  0  0  3  0  0  0  0  0  0
  191.6620  176.8130  145.8260 C   0  0  0  0  0  3  0  0  0  0  0  0
  190.7840  177.5810  145.0550 C   0  0  0  0  0  0  0  0  0  0  0  0
  191.3970  176.5870  147.1810 C   0  0  0  0  0  3  0  0  0  0  0  0
  191.1860  176.9600  138.7880 C   0  0  1  0  0  3  0  0  0  0  0  0
  191.0760  176.4020  140.1410 C   0  0  1  0  0  3  0  0  0  0  0  0
  192.7990  176.8860  139.6770 S   0  0  0  0  0  0  0  0  0  0  0  0
  191.0160  175.8760  137.7090 C   0  0  2  0  0  3  0  0  0  0  0  0
  189.6150  175.2660  137.5610 C   0  0  0  0  0  2  0  0  0  0  0  0
  189.0930  175.4180  136.1410 C   0  0  0  0  0  2  0  0  0  0  0  0
  189.7820  176.5790  135.4480 C   0  0  0  0  0  1  0  0  0  0  0  0
  192.0970  174.8030  137.8310 C   0  0  0  0  0  2  0  0  0  0  0  0
  192.6950  174.4390  136.4780 C   0  0  0  0  0  2  0  0  0  0  0  0
  194.2090  174.3460  136.5740 C   0  0  1  0  0  3  0  0  0  0  0  0
  194.8290  175.6140  136.0100 C   0  0  0  0  0  1  0  0  0  0  0  0
  194.6490  174.0900  138.0170 C   0  0  1  0  0  3  0  0  0  0  0  0
  195.2030  172.6860  138.1770 C   0  0  0  0  0  1  0  0  0  0  0  0
  195.5990  175.0260  138.4300 O   0  0  0  0  0  1  0  0  0  0  0  0
  189.1970  179.0850  139.7240 C   0  0  0  0  0  2  0  0  0  0  0  0
  188.7340  178.8040  138.3030 C   0  0  0  0  0  2  0  0  0  0  0  0
  187.4160  178.0530  138.3200 C   0  0  0  0  0  2  0  0  0  0  0  0
  186.7420  178.1870  136.9710 C   0  0  0  0  0  1  0  0  0  0  0  0
  1  5  1  6  0  0  0
  1 15  1  0  0  0  0
  2  3  1  0  0  0  0
  4  1  1  0  0  0  0
  6  2  1  0  0  0  0
  7 31  1  1  0  0  0
  7  9  1  0  0  0  0
  7  6  1  0  0  0  0
  8  3  1  0  0  0  0
  9 18  1  6  0  0  0
  9 10  1  0  0  0  0
 10  8  1  1  0  0  0
 10  4  1  0  0  0  0
 10  1  1  0  0  0  0
 11 13  1  0  0  0  0
 13 12  2  0  0  0  0
 14 16  2  0  0  0  0
 15 11  2  0  0  0  0
 15 14  1  0  0  0  0
 16 12  1  0  0  0  0
 17 20  1  6  0  0  0
 17 19  1  0  0  0  0
 17 18  1  0  0  0  0
 18 19  1  1  0  0  0
 20 21  1  1  0  0  0
 20 24  1  0  0  0  0
 22 21  1  0  0  0  0
 23 22  1  0  0  0  0
 25 26  1  0  0  0  0
 25 24  1  0  0  0  0
 26 27  1  1  0  0  0
 26 28  1  0  0  0  0
 28 29  1  6  0  0  0
 28 30  1  0  0  0  0
 32 33  1  0  0  0  0
 32 31  1  0  0  0  0
 34 33  1  0  0  0  0
M  END
>  <MODEL>
3

>  <REMARK>
 VINA RESULT:      -5.7      6.541     10.967
  Name = 
  12 active torsions:
  status: ('A' for Active; 'I' for Inactive)
    1  A    between atoms: C_1  and  C_20
    2  A    between atoms: C_3  and  C_13
    3  A    between atoms: C_4  and  C_16
    4  A    between atoms: C_6  and  C_28
    5  A    between atoms: C_7  and  C_11
    6  A    between atoms: C_7  and  C_29
    7  A    between atoms: C_13  and  C_27
    8  A    between atoms: C_16  and  C_28
    9  A    between atoms: C_18  and  C_33
   10  A    between atoms: C_25  and  C_27
   11  A    between atoms: C_26  and  C_28
   12  A    between atoms: C_26  and  C_29
                            x       y       z     vdW  Elec       q    Type
                         _______ _______ _______ _____ _____    ______ ____

>  <TORSDO>
F 12

$$$$
=
 OpenBabel10262423203D

 34 37  0  0  1  0  0  0  0  0999 V2000
  188.3650  176.9360  143.6770 C   0  0  1  0  0  0  0  0  0  0  0  0
  191.9750  178.5230  142.8010 C   0  0  0  0  0  2  0  0  0  0  0  0
  190.9670  178.9250  143.8690 C   0  0  0  0  0  2  0  0  0  0  0  0
  187.5640  177.8960  143.0240 O   0  0  0  0  0  0  0  0  0  0  0  0
  188.1100  175.6530  143.1860 O   0  0  0  0  0  1  0  0  0  0  0  0
  191.6550  177.1490  142.2310 C   0  0  0  0  0  2  0  0  0  0  0  0
  190.7560  177.2880  141.0030 C   0  0  2  0  0  3  0  0  0  0  0  0
  189.5880  179.2080  143.2840 C   0  0  0  0  0  2  0  0  0  0  0  0
  189.2540  177.4770  141.3010 C   0  0  1  0  0  3  0  0  0  0  0  0
  188.9460  177.9340  142.7380 C   0  0  1  0  0  0  0  0  0  0  0  0
  189.5330  176.7500  145.9060 C   0  0  0  0  0  3  0  0  0  0  0  0
  188.4690  177.5370  147.9340 C   0  0  0  0  0  3  0  0  0  0  0  0
  189.5640  176.9540  147.2880 C   0  0  0  0  0  3  0  0  0  0  0  0
  187.3130  177.7140  145.8140 C   0  0  0  0  0  3  0  0  0  0  0  0
  188.4010  177.1190  145.1640 C   0  0  0  0  0  0  0  0  0  0  0  0
  187.3450  177.9180  147.1970 C   0  0  0  0  0  3  0  0  0  0  0  0
  187.9950  177.7180  139.1990 C   0  0  1  0  0  3  0  0  0  0  0  0
  188.6530  178.4510  140.2880 C   0  0  1  0  0  3  0  0  0  0  0  0
  186.8080  178.4450  140.4070 S   0  0  0  0  0  0  0  0  0  0  0  0
  188.0790  178.4840  137.8660 C   0  0  2  0  0  3  0  0  0  0  0  0
  186.7980  178.5350  137.0210 C   0  0  0  0  0  2  0  0  0  0  0  0
  185.8820  177.3630  137.3350 C   0  0  0  0  0  2  0  0  0  0  0  0
  184.9940  177.0550  136.1450 C   0  0  0  0  0  1  0  0  0  0  0  0
  189.2880  178.0340  137.0470 C   0  0  0  0  0  2  0  0  0  0  0  0
  188.9120  177.7070  135.6080 C   0  0  0  0  0  2  0  0  0  0  0  0
  189.3790  176.3080  135.2420 C   0  0  1  0  0  3  0  0  0  0  0  0
  190.8950  176.2970  135.1260 C   0  0  0  0  0  1  0  0  0  0  0  0
  188.8790  175.2810  136.2610 C   0  0  1  0  0  3  0  0  0  0  0  0
  187.6790  174.5220  135.7240 C   0  0  0  0  0  1  0  0  0  0  0  0
  189.8890  174.3850  136.6150 O   0  0  0  0  0  1  0  0  0  0  0  0
  190.9420  176.0780  140.1000 C   0  0  0  0  0  2  0  0  0  0  0  0
  191.4620  176.4940  138.7330 C   0  0  0  0  0  2  0  0  0  0  0  0
  192.9730  176.6270  138.7640 C   0  0  0  0  0  2  0  0  0  0  0  0
  193.5940  175.5330  137.9230 C   0  0  0  0  0  1  0  0  0  0  0  0
  1  5  1  6  0  0  0
  1 15  1  0  0  0  0
  2  3  1  0  0  0  0
  4  1  1  0  0  0  0
  6  2  1  0  0  0  0
  7 31  1  6  0  0  0
  7  9  1  0  0  0  0
  7  6  1  0  0  0  0
  8  3  1  0  0  0  0
  9 18  1  6  0  0  0
  9 10  1  0  0  0  0
 10  4  1  0  0  0  0
 10  8  1  1  0  0  0
 10  1  1  0  0  0  0
 11 13  1  0  0  0  0
 13 12  2  0  0  0  0
 14 16  2  0  0  0  0
 15 14  1  0  0  0  0
 15 11  2  0  0  0  0
 16 12  1  0  0  0  0
 17 20  1  6  0  0  0
 17 18  1  0  0  0  0
 17 19  1  0  0  0  0
 18 19  1  1  0  0  0
 20 21  1  6  0  0  0
 21 22  1  0  0  0  0
 23 22  1  0  0  0  0
 24 20  1  0  0  0  0
 25 24  1  0  0  0  0
 26 27  1  1  0  0  0
 26 25  1  0  0  0  0
 26 28  1  0  0  0  0
 28 29  1  6  0  0  0
 28 30  1  0  0  0  0
 32 33  1  0  0  0  0
 32 31  1  0  0  0  0
 34 33  1  0  0  0  0
M  END
>  <MODEL>
4

>  <REMARK>
 VINA RESULT:      -5.6      5.151     10.317
  Name = 
  12 active torsions:
  status: ('A' for Active; 'I' for Inactive)
    1  A    between atoms: C_1  and  C_20
    2  A    between atoms: C_3  and  C_13
    3  A    between atoms: C_4  and  C_16
    4  A    between atoms: C_6  and  C_28
    5  A    between atoms: C_7  and  C_11
    6  A    between atoms: C_7  and  C_29
    7  A    between atoms: C_13  and  C_27
    8  A    between atoms: C_16  and  C_28
    9  A    between atoms: C_18  and  C_33
   10  A    between atoms: C_25  and  C_27
   11  A    between atoms: C_26  and  C_28
   12  A    between atoms: C_26  and  C_29
                            x       y       z     vdW  Elec       q    Type
                         _______ _______ _______ _____ _____    ______ ____

>  <TORSDO>
F 12

$$$$
=
 OpenBabel10262423203D

 34 37  0  0  1  0  0  0  0  0999 V2000
  182.7540  179.7830  139.1000 C   0  0  1  0  0  0  0  0  0  0  0  0
  184.1120  176.2230  137.7570 C   0  0  0  0  0  2  0  0  0  0  0  0
  182.6970  176.6520  138.1210 C   0  0  0  0  0  2  0  0  0  0  0  0
  182.6540  179.4530  140.4670 O   0  0  0  0  0  0  0  0  0  0  0  0
  183.5910  180.8840  138.9090 O   0  0  0  0  0  1  0  0  0  0  0  0
  185.0310  177.4270  137.6090 C   0  0  0  0  0  2  0  0  0  0  0  0
  185.7130  177.7320  138.9420 C   0  0  2  0  0  3  0  0  0  0  0  0
  182.6100  177.2130  139.5360 C   0  0  0  0  0  2  0  0  0  0  0  0
  184.8680  178.5430  139.9470 C   0  0  1  0  0  3  0  0  0  0  0  0
  183.3580  178.5400  139.6520 C   0  0  1  0  0  0  0  0  0  0  0  0
  181.3480  179.6610  137.0080 C   0  0  0  0  0  3  0  0  0  0  0  0
  178.9310  179.7280  137.1310 C   0  0  0  0  0  3  0  0  0  0  0  0
  180.1030  179.6370  136.3740 C   0  0  0  0  0  3  0  0  0  0  0  0
  180.2500  179.8650  139.1560 C   0  0  0  0  0  3  0  0  0  0  0  0
  181.4260  179.7880  138.4030 C   0  0  0  0  0  0  0  0  0  0  0  0
  179.0040  179.8410  138.5220 C   0  0  0  0  0  3  0  0  0  0  0  0
  186.4540  178.4970  141.8300 C   0  0  1  0  0  3  0  0  0  0  0  0
  185.1400  178.0380  141.3640 C   0  0  1  0  0  3  0  0  0  0  0  0
  185.0510  179.4350  142.5720 S   0  0  0  0  0  0  0  0  0  0  0  0
  187.1050  177.4830  142.7880 C   0  0  2  0  0  3  0  0  0  0  0  0
  186.3970  177.2530  144.1310 C   0  0  0  0  0  2  0  0  0  0  0  0
  187.2070  177.8200  145.2850 C   0  0  0  0  0  2  0  0  0  0  0  0
  186.3100  178.6050  146.2230 C   0  0  0  0  0  1  0  0  0  0  0  0
  188.5940  177.7710  142.9670 C   0  0  0  0  0  2  0  0  0  0  0  0
  189.4460  176.5270  142.7520 C   0  0  0  0  0  2  0  0  0  0  0  0
  190.8850  176.7910  143.1660 C   0  0  1  0  0  3  0  0  0  0  0  0
  191.6300  177.4430  142.0120 C   0  0  0  0  0  1  0  0  0  0  0  0
  190.9390  177.6460  144.4340 C   0  0  1  0  0  3  0  0  0  0  0  0
  191.2700  176.7980  145.6490 C   0  0  0  0  0  1  0  0  0  0  0  0
  191.8690  178.6800  144.3090 O   0  0  0  0  0  1  0  0  0  0  0  0
  187.0250  178.4580  138.6860 C   0  0  0  0  0  2  0  0  0  0  0  0
  188.1570  177.4710  138.4470 C   0  0  0  0  0  2  0  0  0  0  0  0
  189.4420  177.9850  139.0680 C   0  0  0  0  0  2  0  0  0  0  0  0
  190.5970  177.1060  138.6410 C   0  0  0  0  0  1  0  0  0  0  0  0
  1  5  1  6  0  0  0
  1 10  1  0  0  0  0
  1  4  1  0  0  0  0
  2  3  1  0  0  0  0
  3  8  1  0  0  0  0
  6  2  1  0  0  0  0
  6  7  1  0  0  0  0
  7 31  1  6  0  0  0
  7  9  1  0  0  0  0
  9 18  1  1  0  0  0
 10  8  1  6  0  0  0
 10  9  1  0  0  0  0
 10  4  1  0  0  0  0
 11 15  1  0  0  0  0
 12 16  2  0  0  0  0
 13 11  2  0  0  0  0
 13 12  1  0  0  0  0
 15  1  1  0  0  0  0
 15 14  2  0  0  0  0
 16 14  1  0  0  0  0
 17 19  1  0  0  0  0
 17 20  1  1  0  0  0
 18 17  1  0  0  0  0
 18 19  1  1  0  0  0
 20 24  1  1  0  0  0
 20 21  1  0  0  0  0
 21 22  1  0  0  0  0
 22 23  1  0  0  0  0
 25 24  1  0  0  0  0
 25 26  1  0  0  0  0
 26 27  1  6  0  0  0
 26 28  1  0  0  0  0
 28 29  1  1  0  0  0
 30 28  1  0  0  0  0
 32 31  1  0  0  0  0
 32 33  1  0  0  0  0
 34 33  1  0  0  0  0
M  END
>  <MODEL>
5

>  <REMARK>
 VINA RESULT:      -5.6      2.789      4.216
  Name = 
  12 active torsions:
  status: ('A' for Active; 'I' for Inactive)
    1  A    between atoms: C_1  and  C_20
    2  A    between atoms: C_3  and  C_13
    3  A    between atoms: C_4  and  C_16
    4  A    between atoms: C_6  and  C_28
    5  A    between atoms: C_7  and  C_11
    6  A    between atoms: C_7  and  C_29
    7  A    between atoms: C_13  and  C_27
    8  A    between atoms: C_16  and  C_28
    9  A    between atoms: C_18  and  C_33
   10  A    between atoms: C_25  and  C_27
   11  A    between atoms: C_26  and  C_28
   12  A    between atoms: C_26  and  C_29
                            x       y       z     vdW  Elec       q    Type
                         _______ _______ _______ _____ _____    ______ ____

>  <TORSDO>
F 12

$$$$
=
 OpenBabel10262423203D

 34 37  0  0  1  0  0  0  0  0999 V2000
  191.0080  177.6720  143.5510 C   0  0  1  0  0  0  0  0  0  0  0  0
  187.2860  176.8900  142.1890 C   0  0  0  0  0  2  0  0  0  0  0  0
  188.0490  176.2700  143.3510 C   0  0  0  0  0  2  0  0  0  0  0  0
  191.6680  176.5760  142.9600 O   0  0  0  0  0  0  0  0  0  0  0  0
  191.5800  178.8800  143.1470 O   0  0  0  0  0  1  0  0  0  0  0  0
  187.9500  178.1750  141.7180 C   0  0  0  0  0  2  0  0  0  0  0  0
  188.9470  177.8700  140.6010 C   0  0  2  0  0  3  0  0  0  0  0  0
  189.4010  175.7120  142.9230 C   0  0  0  0  0  2  0  0  0  0  0  0
  190.3290  177.3660  141.0670 C   0  0  1  0  0  3  0  0  0  0  0  0
  190.3550  176.8320  142.5100 C   0  0  1  0  0  0  0  0  0  0  0  0
  191.6170  176.7030  145.8000 C   0  0  0  0  0  3  0  0  0  0  0  0
  190.2850  177.1890  147.7630 C   0  0  0  0  0  3  0  0  0  0  0  0
  191.3810  176.5550  147.1700 C   0  0  0  0  0  3  0  0  0  0  0  0
  189.6630  178.1210  145.6170 C   0  0  0  0  0  3  0  0  0  0  0  0
  190.7500  177.4780  145.0150 C   0  0  0  0  0  0  0  0  0  0  0  0
  189.4270  177.9730  146.9870 C   0  0  0  0  0  3  0  0  0  0  0  0
  190.8080  176.8120  138.7160 C   0  0  1  0  0  3  0  0  0  0  0  0
  190.8380  176.3030  140.0930 C   0  0  1  0  0  3  0  0  0  0  0  0
  192.5030  176.7730  139.4410 S   0  0  0  0  0  0  0  0  0  0  0  0
  190.5370  175.6890  137.7000 C   0  0  2  0  0  3  0  0  0  0  0  0
  191.0060  175.9360  136.2590 C   0  0  0  0  0  2  0  0  0  0  0  0
  192.2370  175.1080  135.9290 C   0  0  0  0  0  2  0  0  0  0  0  0
  192.2580  173.8410  136.7620 C   0  0  0  0  0  1  0  0  0  0  0  0
  189.0800  175.2340  137.7570 C   0  0  0  0  0  2  0  0  0  0  0  0
  188.4800  175.0620  136.3680 C   0  0  0  0  0  2  0  0  0  0  0  0
  187.5310  173.8760  136.3420 C   0  0  1  0  0  3  0  0  0  0  0  0
  188.2400  172.6500  136.8950 C   0  0  0  0  0  1  0  0  0  0  0  0
  186.2470  174.1870  137.1150 C   0  0  1  0  0  3  0  0  0  0  0  0
  185.0990  174.4850  136.1680 C   0  0  0  0  0  1  0  0  0  0  0  0
  185.9000  173.1360  137.9660 O   0  0  0  0  0  1  0  0  0  0  0  0
  189.1290  179.1050  139.7320 C   0  0  0  0  0  2  0  0  0  0  0  0
  188.5920  178.8680  138.3290 C   0  0  0  0  0  2  0  0  0  0  0  0
  187.2750  178.1180  138.3910 C   0  0  0  0  0  2  0  0  0  0  0  0
  186.6380  178.1020  137.0180 C   0  0  0  0  0  1  0  0  0  0  0  0
  1  5  1  6  0  0  0
  1 15  1  0  0  0  0
  2  3  1  0  0  0  0
  4  1  1  0  0  0  0
  6  2  1  0  0  0  0
  7 31  1  1  0  0  0
  7  9  1  0  0  0  0
  7  6  1  0  0  0  0
  8  3  1  0  0  0  0
  9 18  1  6  0  0  0
  9 10  1  0  0  0  0
 10  8  1  1  0  0  0
 10  4  1  0  0  0  0
 10  1  1  0  0  0  0
 11 13  1  0  0  0  0
 13 12  2  0  0  0  0
 14 16  2  0  0  0  0
 15 14  1  0  0  0  0
 15 11  2  0  0  0  0
 16 12  1  0  0  0  0
 17 20  1  6  0  0  0
 17 19  1  0  0  0  0
 17 18  1  0  0  0  0
 18 19  1  1  0  0  0
 20 21  1  6  0  0  0
 20 24  1  0  0  0  0
 22 21  1  0  0  0  0
 22 23  1  0  0  0  0
 25 24  1  0  0  0  0
 26 25  1  0  0  0  0
 26 27  1  1  0  0  0
 26 28  1  0  0  0  0
 28 29  1  6  0  0  0
 28 30  1  0  0  0  0
 32 33  1  0  0  0  0
 32 31  1  0  0  0  0
 34 33  1  0  0  0  0
M  END
>  <MODEL>
6

>  <REMARK>
 VINA RESULT:      -5.5      5.770     10.749
  Name = 
  12 active torsions:
  status: ('A' for Active; 'I' for Inactive)
    1  A    between atoms: C_1  and  C_20
    2  A    between atoms: C_3  and  C_13
    3  A    between atoms: C_4  and  C_16
    4  A    between atoms: C_6  and  C_28
    5  A    between atoms: C_7  and  C_11
    6  A    between atoms: C_7  and  C_29
    7  A    between atoms: C_13  and  C_27
    8  A    between atoms: C_16  and  C_28
    9  A    between atoms: C_18  and  C_33
   10  A    between atoms: C_25  and  C_27
   11  A    between atoms: C_26  and  C_28
   12  A    between atoms: C_26  and  C_29
                            x       y       z     vdW  Elec       q    Type
                         _______ _______ _______ _____ _____    ______ ____

>  <TORSDO>
F 12

$$$$
=
 OpenBabel10262423203D

 34 37  0  0  1  0  0  0  0  0999 V2000
  182.7720  175.8230  138.0750 C   0  0  1  0  0  0  0  0  0  0  0  0
  182.0890  179.8040  137.9990 C   0  0  0  0  0  2  0  0  0  0  0  0
  181.6000  178.7130  137.0560 C   0  0  0  0  0  2  0  0  0  0  0  0
  183.7730  175.7760  137.0840 O   0  0  0  0  0  0  0  0  0  0  0  0
  183.2340  175.2920  139.2810 O   0  0  0  0  0  1  0  0  0  0  0  0
  182.6450  179.2120  139.2850 C   0  0  0  0  0  2  0  0  0  0  0  0
  184.1490  178.9770  139.1470 C   0  0  2  0  0  3  0  0  0  0  0  0
  182.7470  177.8900  136.4810 C   0  0  0  0  0  2  0  0  0  0  0  0
  184.5510  177.6800  138.4150 C   0  0  1  0  0  3  0  0  0  0  0  0
  183.4290  177.0570  137.5660 C   0  0  1  0  0  0  0  0  0  0  0  0
  181.3280  174.6090  136.3990 C   0  0  0  0  0  3  0  0  0  0  0  0
  178.9320  174.4540  136.7070 C   0  0  0  0  0  3  0  0  0  0  0  0
  180.0790  174.1610  135.9630 C   0  0  0  0  0  3  0  0  0  0  0  0
  180.2860  175.6410  138.3260 C   0  0  0  0  0  3  0  0  0  0  0  0
  181.4350  175.3620  137.5780 C   0  0  0  0  0  0  0  0  0  0  0  0
  179.0350  175.1920  137.8890 C   0  0  0  0  0  3  0  0  0  0  0  0
  186.9950  177.4490  138.2360 C   0  0  1  0  0  3  0  0  0  0  0  0
  185.7900  177.9420  137.5590 C   0  0  1  0  0  3  0  0  0  0  0  0
  186.4360  176.3560  136.8610 S   0  0  0  0  0  0  0  0  0  0  0  0
  188.2300  178.3030  137.8930 C   0  0  2  0  0  3  0  0  0  0  0  0
  189.0920  177.8250  136.7170 C   0  0  0  0  0  2  0  0  0  0  0  0
  190.3480  177.1190  137.2030 C   0  0  0  0  0  2  0  0  0  0  0  0
  190.1170  175.6220  137.2710 C   0  0  0  0  0  1  0  0  0  0  0  0
  189.0670  178.5860  139.1390 C   0  0  0  0  0  2  0  0  0  0  0  0
  188.3120  178.2560  140.4210 C   0  0  0  0  0  2  0  0  0  0  0  0
  189.1350  177.3270  141.2980 C   0  0  1  0  0  3  0  0  0  0  0  0
  190.5830  177.3480  140.8350 C   0  0  0  0  0  1  0  0  0  0  0  0
  189.0040  177.7130  142.7740 C   0  0  1  0  0  3  0  0  0  0  0  0
  187.6950  177.2100  143.3540 C   0  0  0  0  0  1  0  0  0  0  0  0
  190.0760  177.2230  143.5230 O   0  0  0  0  0  1  0  0  0  0  0  0
  184.7940  179.0000  140.5240 C   0  0  0  0  0  2  0  0  0  0  0  0
  183.9760  178.1960  141.5230 C   0  0  0  0  0  2  0  0  0  0  0  0
  184.2150  178.7090  142.9300 C   0  0  0  0  0  2  0  0  0  0  0  0
  182.8850  178.9830  143.6000 C   0  0  0  0  0  1  0  0  0  0  0  0
  1  5  1  1  0  0  0
  2  6  1  0  0  0  0
  3  2  1  0  0  0  0
  4 10  1  0  0  0  0
  4  1  1  0  0  0  0
  7  6  1  0  0  0  0
  7 31  1  1  0  0  0
  8  3  1  0  0  0  0
  9 18  1  6  0  0  0
  9  7  1  0  0  0  0
 10  8  1  6  0  0  0
 10  1  1  0  0  0  0
 10  9  1  0  0  0  0
 11 15  1  0  0  0  0
 12 16  2  0  0  0  0
 13 11  2  0  0  0  0
 13 12  1  0  0  0  0
 15  1  1  0  0  0  0
 15 14  2  0  0  0  0
 16 14  1  0  0  0  0
 17 20  1  6  0  0  0
 18 19  1  6  0  0  0
 18 17  1  0  0  0  0
 19 17  1  0  0  0  0
 20 21  1  6  0  0  0
 20 24  1  0  0  0  0
 21 22  1  0  0  0  0
 22 23  1  0  0  0  0
 24 25  1  0  0  0  0
 25 26  1  0  0  0  0
 26 27  1  6  0  0  0
 26 28  1  0  0  0  0
 28 29  1  1  0  0  0
 28 30  1  0  0  0  0
 31 32  1  0  0  0  0
 32 33  1  0  0  0  0
 33 34  1  0  0  0  0
M  END
>  <MODEL>
7

>  <REMARK>
 VINA RESULT:      -5.2      3.634      5.869
  Name = 
  12 active torsions:
  status: ('A' for Active; 'I' for Inactive)
    1  A    between atoms: C_1  and  C_20
    2  A    between atoms: C_3  and  C_13
    3  A    between atoms: C_4  and  C_16
    4  A    between atoms: C_6  and  C_28
    5  A    between atoms: C_7  and  C_11
    6  A    between atoms: C_7  and  C_29
    7  A    between atoms: C_13  and  C_27
    8  A    between atoms: C_16  and  C_28
    9  A    between atoms: C_18  and  C_33
   10  A    between atoms: C_25  and  C_27
   11  A    between atoms: C_26  and  C_28
   12  A    between atoms: C_26  and  C_29
                            x       y       z     vdW  Elec       q    Type
                         _______ _______ _______ _____ _____    ______ ____

>  <TORSDO>
F 12

$$$$
=
 OpenBabel10262423203D

 34 37  0  0  1  0  0  0  0  0999 V2000
  188.4470  176.8680  143.7420 C   0  0  1  0  0  0  0  0  0  0  0  0
  191.9590  178.5740  142.7070 C   0  0  0  0  0  2  0  0  0  0  0  0
  190.9670  178.9690  143.7910 C   0  0  0  0  0  2  0  0  0  0  0  0
  187.5880  177.7730  143.0850 O   0  0  0  0  0  0  0  0  0  0  0  0
  188.2330  175.5610  143.3000 O   0  0  0  0  0  1  0  0  0  0  0  0
  191.6820  177.1710  142.1890 C   0  0  0  0  0  2  0  0  0  0  0  0
  190.7420  177.2320  140.9860 C   0  0  2  0  0  3  0  0  0  0  0  0
  189.5610  179.1760  143.2410 C   0  0  0  0  0  2  0  0  0  0  0  0
  189.2420  177.3680  141.3250 C   0  0  1  0  0  3  0  0  0  0  0  0
  188.9580  177.8580  142.7550 C   0  0  1  0  0  0  0  0  0  0  0  0
  189.6700  176.7570  145.9470 C   0  0  0  0  0  3  0  0  0  0  0  0
  188.6550  177.6110  147.9730 C   0  0  0  0  0  3  0  0  0  0  0  0
  189.7340  177.0070  147.3200 C   0  0  0  0  0  3  0  0  0  0  0  0
  187.4470  177.7160  145.8770 C   0  0  0  0  0  3  0  0  0  0  0  0
  188.5190  177.1010  145.2210 C   0  0  0  0  0  0  0  0  0  0  0  0
  187.5120  177.9670  147.2510 C   0  0  0  0  0  3  0  0  0  0  0  0
  187.5840  177.5350  139.5120 C   0  0  1  0  0  3  0  0  0  0  0  0
  188.5710  178.2830  140.3000 C   0  0  1  0  0  3  0  0  0  0  0  0
  186.8200  178.6210  140.7900 S   0  0  0  0  0  0  0  0  0  0  0  0
  187.4690  178.0810  138.0770 C   0  0  2  0  0  3  0  0  0  0  0  0
  188.5280  179.1040  137.6440 C   0  0  0  0  0  2  0  0  0  0  0  0
  189.4320  178.5380  136.5600 C   0  0  0  0  0  2  0  0  0  0  0  0
  188.6300  177.6800  135.6010 C   0  0  0  0  0  1  0  0  0  0  0  0
  186.0510  178.5660  137.7850 C   0  0  0  0  0  2  0  0  0  0  0  0
  185.2190  177.5040  137.0770 C   0  0  0  0  0  2  0  0  0  0  0  0
  183.8110  177.4640  137.6480 C   0  0  1  0  0  3  0  0  0  0  0  0
  183.4370  176.0250  137.9670 C   0  0  0  0  0  1  0  0  0  0  0  0
  183.6950  178.3680  138.8780 C   0  0  1  0  0  3  0  0  0  0  0  0
  182.6150  179.4170  138.6830 C   0  0  0  0  0  1  0  0  0  0  0  0
  183.4330  177.6250  140.0300 O   0  0  0  0  0  1  0  0  0  0  0  0
  190.9520  176.0030  140.1150 C   0  0  0  0  0  2  0  0  0  0  0  0
  191.4140  176.3950  138.7210 C   0  0  0  0  0  2  0  0  0  0  0  0
  191.2480  175.2280  137.7660 C   0  0  0  0  0  2  0  0  0  0  0  0
  189.7750  174.9260  137.5890 C   0  0  0  0  0  1  0  0  0  0  0  0
  1  5  1  6  0  0  0
  1 15  1  0  0  0  0
  2  3  1  0  0  0  0
  4  1  1  0  0  0  0
  6  2  1  0  0  0  0
  7 31  1  1  0  0  0
  7  9  1  0  0  0  0
  7  6  1  0  0  0  0
  8  3  1  0  0  0  0
  9 18  1  6  0  0  0
  9 10  1  0  0  0  0
 10  4  1  0  0  0  0
 10  8  1  1  0  0  0
 10  1  1  0  0  0  0
 11 13  1  0  0  0  0
 13 12  2  0  0  0  0
 14 16  2  0  0  0  0
 15 14  1  0  0  0  0
 15 11  2  0  0  0  0
 16 12  1  0  0  0  0
 17 20  1  6  0  0  0
 17 18  1  0  0  0  0
 17 19  1  0  0  0  0
 18 19  1  1  0  0  0
 20 21  1  1  0  0  0
 22 21  1  0  0  0  0
 23 22  1  0  0  0  0
 24 20  1  0  0  0  0
 25 26  1  0  0  0  0
 25 24  1  0  0  0  0
 26 27  1  1  0  0  0
 26 28  1  0  0  0  0
 28 29  1  6  0  0  0
 28 30  1  0  0  0  0
 32 31  1  0  0  0  0
 33 32  1  0  0  0  0
 34 33  1  0  0  0  0
M  END
>  <MODEL>
8

>  <REMARK>
 VINA RESULT:      -5.1      4.126      9.907
  Name = 
  12 active torsions:
  status: ('A' for Active; 'I' for Inactive)
    1  A    between atoms: C_1  and  C_20
    2  A    between atoms: C_3  and  C_13
    3  A    between atoms: C_4  and  C_16
    4  A    between atoms: C_6  and  C_28
    5  A    between atoms: C_7  and  C_11
    6  A    between atoms: C_7  and  C_29
    7  A    between atoms: C_13  and  C_27
    8  A    between atoms: C_16  and  C_28
    9  A    between atoms: C_18  and  C_33
   10  A    between atoms: C_25  and  C_27
   11  A    between atoms: C_26  and  C_28
   12  A    between atoms: C_26  and  C_29
                            x       y       z     vdW  Elec       q    Type
                         _______ _______ _______ _____ _____    ______ ____

>  <TORSDO>
F 12

$$$$
=
 OpenBabel10262423203D

 34 37  0  0  1  0  0  0  0  0999 V2000
  190.2480  178.0310  143.8160 C   0  0  1  0  0  0  0  0  0  0  0  0
  186.5710  176.3800  143.5610 C   0  0  0  0  0  2  0  0  0  0  0  0
  187.8400  175.8370  144.2020 C   0  0  0  0  0  2  0  0  0  0  0  0
  190.8600  177.3110  142.7690 O   0  0  0  0  0  0  0  0  0  0  0  0
  190.3320  179.4080  143.5940 O   0  0  0  0  0  1  0  0  0  0  0  0
  186.6930  177.8680  143.2690 C   0  0  0  0  0  2  0  0  0  0  0  0
  187.2260  178.0820  141.8530 C   0  0  2  0  0  3  0  0  0  0  0  0
  189.0130  175.8080  143.2290 C   0  0  0  0  0  2  0  0  0  0  0  0
  188.7560  177.9590  141.6960 C   0  0  1  0  0  3  0  0  0  0  0  0
  189.4540  177.2220  142.8520 C   0  0  1  0  0  0  0  0  0  0  0  0
  189.8660  177.8610  146.3040 C   0  0  0  0  0  3  0  0  0  0  0  0
  191.3060  176.4940  147.6900 C   0  0  0  0  0  3  0  0  0  0  0  0
  190.2100  177.3530  147.5600 C   0  0  0  0  0  3  0  0  0  0  0  0
  191.7110  176.6500  145.3090 C   0  0  0  0  0  3  0  0  0  0  0  0
  190.6240  177.5200  145.1740 C   0  0  0  0  0  0  0  0  0  0  0  0
  192.0550  176.1410  146.5650 C   0  0  0  0  0  3  0  0  0  0  0  0
  189.3260  178.2990  139.3250 C   0  0  1  0  0  3  0  0  0  0  0  0
  189.0780  177.2880  140.3600 C   0  0  1  0  0  3  0  0  0  0  0  0
  190.8670  177.5030  139.9480 S   0  0  0  0  0  0  0  0  0  0  0  0
  188.8860  177.8080  137.9330 C   0  0  2  0  0  3  0  0  0  0  0  0
  187.5700  177.0200  137.8660 C   0  0  0  0  0  2  0  0  0  0  0  0
  186.5030  177.7920  137.1050 C   0  0  0  0  0  2  0  0  0  0  0  0
  186.7920  177.7630  135.6170 C   0  0  0  0  0  1  0  0  0  0  0  0
  190.0260  177.0820  137.2210 C   0  0  0  0  0  2  0  0  0  0  0  0
  189.7110  175.6090  136.9950 C   0  0  0  0  0  2  0  0  0  0  0  0
  190.9520  174.7600  137.2170 C   0  0  1  0  0  3  0  0  0  0  0  0
  190.8210  173.4620  136.4350 C   0  0  0  0  0  1  0  0  0  0  0  0
  192.2160  175.5320  136.8310 C   0  0  1  0  0  3  0  0  0  0  0  0
  193.3930  175.1130  137.6930 C   0  0  0  0  0  1  0  0  0  0  0  0
  192.5280  175.3520  135.4820 O   0  0  0  0  0  1  0  0  0  0  0  0
  186.7750  179.4420  141.3420 C   0  0  0  0  0  2  0  0  0  0  0  0
  185.2580  179.5200  141.2660 C   0  0  0  0  0  2  0  0  0  0  0  0
  184.7380  178.5870  140.1880 C   0  0  0  0  0  2  0  0  0  0  0  0
  183.9260  179.3780  139.1850 C   0  0  0  0  0  1  0  0  0  0  0  0
  1  5  1  6  0  0  0
  1 15  1  0  0  0  0
  2  3  1  0  0  0  0
  4 10  1  0  0  0  0
  4  1  1  0  0  0  0
  6  2  1  0  0  0  0
  7 31  1  1  0  0  0
  7  6  1  0  0  0  0
  8  3  1  0  0  0  0
  9 18  1  6  0  0  0
  9  7  1  0  0  0  0
  9 10  1  0  0  0  0
 10  8  1  1  0  0  0
 10  1  1  0  0  0  0
 11 13  1  0  0  0  0
 13 12  2  0  0  0  0
 14 16  2  0  0  0  0
 15 14  1  0  0  0  0
 15 11  2  0  0  0  0
 16 12  1  0  0  0  0
 17 20  1  6  0  0  0
 17 19  1  0  0  0  0
 17 18  1  0  0  0  0
 18 19  1  1  0  0  0
 20 24  1  1  0  0  0
 21 20  1  0  0  0  0
 22 21  1  0  0  0  0
 23 22  1  0  0  0  0
 25 26  1  0  0  0  0
 25 24  1  0  0  0  0
 26 27  1  6  0  0  0
 28 26  1  0  0  0  0
 28 29  1  1  0  0  0
 30 28  1  0  0  0  0
 32 31  1  0  0  0  0
 33 32  1  0  0  0  0
 34 33  1  0  0  0  0
M  END
>  <MODEL>
9

>  <REMARK>
 VINA RESULT:      -4.8      5.081     10.223
  Name = 
  12 active torsions:
  status: ('A' for Active; 'I' for Inactive)
    1  A    between atoms: C_1  and  C_20
    2  A    between atoms: C_3  and  C_13
    3  A    between atoms: C_4  and  C_16
    4  A    between atoms: C_6  and  C_28
    5  A    between atoms: C_7  and  C_11
    6  A    between atoms: C_7  and  C_29
    7  A    between atoms: C_13  and  C_27
    8  A    between atoms: C_16  and  C_28
    9  A    between atoms: C_18  and  C_33
   10  A    between atoms: C_25  and  C_27
   11  A    between atoms: C_26  and  C_28
   12  A    between atoms: C_26  and  C_29
                            x       y       z     vdW  Elec       q    Type
                         _______ _______ _______ _____ _____    ______ ____

>  <TORSDO>
F 12

$$$$
