=
 OpenBabel10262419353D

 31 34  0  0  1  0  0  0  0  0999 V2000
  188.1420  177.1660  145.9640 C   0  0  0  0  0  0  0  0  0  0  0  0
  186.4180  178.2120  142.8240 C   0  0  0  0  0  0  0  0  0  0  0  0
  184.9690  178.2910  143.2680 C   0  0  1  0  0  3  0  0  0  0  0  0
  183.2700  179.9520  144.3120 C   0  0  0  0  0  2  0  0  0  0  0  0
  187.4290  177.8460  143.7390 C   0  0  0  0  0  0  0  0  0  0  0  0
  189.4710  177.1320  145.5340 C   0  0  0  0  0  3  0  0  0  0  0  0
  184.7420  179.5170  144.1730 C   0  0  0  0  0  2  0  0  0  0  0  0
  188.1120  178.4570  141.0720 C   0  0  0  0  0  0  0  0  0  0  0  0
  187.8370  176.8550  147.2460 F   0  0  0  0  0  0  0  0  0  0  0  0
  184.4460  178.0470  140.7730 C   0  0  0  0  0  2  0  0  0  0  0  0
  182.2610  178.9060  143.8340 C   0  0  0  0  0  2  0  0  0  0  0  0
  189.1050  178.1110  141.9960 C   0  0  0  0  0  3  0  0  0  0  0  0
  186.7680  178.4980  141.4830 C   0  0  0  0  0  0  0  0  0  0  0  0
  187.1260  177.5200  145.0710 C   0  0  0  0  0  3  0  0  0  0  0  0
  181.7380  178.2890  141.5860 O   0  0  0  0  0  0  0  0  0  0  0  0
  188.7770  177.8030  143.3140 C   0  0  0  0  0  0  0  0  0  0  0  0
  189.7880  177.4500  144.2120 C   0  0  0  0  0  3  0  0  0  0  0  0
  185.6980  178.8600  140.4940 C   0  0  0  0  0  2  0  0  0  0  0  0
  184.0160  178.2840  142.1470 N   0  0  0  0  0  0  0  0  0  0  0  0
  182.6310  178.4770  142.4550 C   0  0  0  0  0  0  0  0  0  0  0  0
  188.6780  176.6060  138.8420 O   0  0  0  0  0  0  0  0  0  0  0  0
  188.7550  177.8520  138.6590 C   0  0  0  0  0  0  0  0  0  0  0  0
  188.4470  178.7770  139.7100 N   0  0  0  0  0  2  0  0  0  0  0  0
  188.8320  179.7390  137.2450 O   0  0  0  0  0  1  0  0  0  0  0  0
  189.1630  178.3850  137.3230 C   0  0  2  0  0  3  0  0  0  0  0  0
  189.4420  177.4860  135.0050 C   0  0  0  0  0  1  0  0  0  0  0  0
  188.4940  177.6070  136.1880 C   0  0  2  0  0  3  0  0  0  0  0  0
  187.3220  178.2680  135.7730 O   0  0  0  0  0  0  0  0  0  0  0  0
  186.2410  177.3570  135.7950 C   0  0  1  0  0  3  0  0  0  0  0  0
  185.4250  177.4440  137.0790 C   0  0  0  0  0  1  0  0  0  0  0  0
  185.4210  177.4870  134.6690 O   0  0  0  0  0  1  0  0  0  0  0  0
  1  9  1  0  0  0  0
  2  3  1  0  0  0  0
  2  5  1  0  0  0  0
  3  7  1  6  0  0  0
  5 14  1  0  0  0  0
  6  1  1  0  0  0  0
  7  4  1  0  0  0  0
  8 13  1  0  0  0  0
  8 12  2  0  0  0  0
 10 19  1  0  0  0  0
 11  4  1  0  0  0  0
 12 16  1  0  0  0  0
 13  2  2  0  0  0  0
 14  1  2  0  0  0  0
 15 20  2  0  0  0  0
 16  5  2  0  0  0  0
 16 17  1  0  0  0  0
 17  6  2  0  0  0  0
 18 10  1  0  0  0  0
 18 13  1  0  0  0  0
 19 20  1  0  0  0  0
 19  3  1  0  0  0  0
 20 11  1  0  0  0  0
 22 21  2  0  0  0  0
 22 23  1  0  0  0  0
 23  8  1  0  0  0  0
 25 24  1  1  0  0  0
 25 22  1  0  0  0  0
 27 26  1  6  0  0  0
 27 25  1  0  0  0  0
 28 29  1  0  0  0  0
 28 27  1  0  0  0  0
 29 30  1  1  0  0  0
 31 29  1  0  0  0  0
M  END
>  <MODEL>
1

>  <REMARK>
 VINA RESULT:      -8.7      0.000      0.000
  Name = 
  5 active torsions:
  status: ('A' for Active; 'I' for Inactive)
    1  A    between atoms: C_1  and  O_24
    2  A    between atoms: C_9  and  C_22
    3  A    between atoms: C_15  and  N_23
    4  A    between atoms: C_19  and  C_22
    5  A    between atoms: C_19  and  O_24
                            x       y       z     vdW  Elec       q    Type
                         _______ _______ _______ _____ _____    ______ ____

>  <TORSDO>
F 5

$$$$
=
 OpenBabel10262419353D

 31 34  0  0  1  0  0  0  0  0999 V2000
  189.4050  177.8760  147.7510 C   0  0  0  0  0  0  0  0  0  0  0  0
  187.6650  177.8470  144.4500 C   0  0  0  0  0  0  0  0  0  0  0  0
  188.8210  177.6630  143.4830 C   0  0  1  0  0  3  0  0  0  0  0  0
  190.2150  175.7940  142.3440 C   0  0  0  0  0  2  0  0  0  0  0  0
  187.8980  177.9060  145.8420 C   0  0  0  0  0  0  0  0  0  0  0  0
  188.3190  178.0150  148.6190 C   0  0  0  0  0  3  0  0  0  0  0  0
  189.3710  176.2270  143.5590 C   0  0  0  0  0  2  0  0  0  0  0  0
  185.2630  178.1100  144.8540 C   0  0  0  0  0  0  0  0  0  0  0  0
  190.6620  177.7930  148.2490 F   0  0  0  0  0  0  0  0  0  0  0  0
  187.2110  178.6520  141.7540 C   0  0  0  0  0  2  0  0  0  0  0  0
  190.6610  176.9520  141.4490 C   0  0  0  0  0  2  0  0  0  0  0  0
  185.5080  178.1470  146.2320 C   0  0  0  0  0  3  0  0  0  0  0  0
  186.3420  177.9700  143.9630 C   0  0  0  0  0  0  0  0  0  0  0  0
  189.1960  177.8230  146.3700 C   0  0  0  0  0  3  0  0  0  0  0  0
  189.3340  178.2230  139.9210 O   0  0  0  0  0  0  0  0  0  0  0  0
  186.8060  178.0510  146.7290 C   0  0  0  0  0  0  0  0  0  0  0  0
  187.0220  178.1020  148.1090 C   0  0  0  0  0  3  0  0  0  0  0  0
  186.0860  177.9390  142.4840 C   0  0  0  0  0  2  0  0  0  0  0  0
  188.4810  178.0220  142.0970 N   0  0  0  0  0  0  0  0  0  0  0  0
  189.4660  177.7690  141.0890 C   0  0  0  0  0  0  0  0  0  0  0  0
  183.8380  180.5140  143.9030 O   0  0  0  0  0  0  0  0  0  0  0  0
  183.2480  179.4000  143.9200 C   0  0  0  0  0  0  0  0  0  0  0  0
  183.9250  178.2070  144.3370 N   0  0  0  0  0  2  0  0  0  0  0  0
  181.1800  178.3030  144.2180 O   0  0  0  0  0  1  0  0  0  0  0  0
  181.8200  179.3060  143.4880 C   0  0  2  0  0  3  0  0  0  0  0  0
  180.4560  178.2190  141.6940 C   0  0  0  0  0  1  0  0  0  0  0  0
  181.7120  179.0250  141.9880 C   0  0  2  0  0  3  0  0  0  0  0  0
  182.8360  178.3000  141.5490 O   0  0  0  0  0  0  0  0  0  0  0  0
  182.9030  178.3530  140.1380 C   0  0  1  0  0  3  0  0  0  0  0  0
  183.9510  179.3380  139.6350 C   0  0  0  0  0  1  0  0  0  0  0  0
  183.0900  177.0870  139.5720 O   0  0  0  0  0  1  0  0  0  0  0  0
  1  9  1  0  0  0  0
  1  6  1  0  0  0  0
  2  5  1  0  0  0  0
  3  7  1  6  0  0  0
  3  2  1  0  0  0  0
  4  7  1  0  0  0  0
  5 14  1  0  0  0  0
  5 16  2  0  0  0  0
  8 12  2  0  0  0  0
 10 19  1  0  0  0  0
 10 18  1  0  0  0  0
 11  4  1  0  0  0  0
 12 16  1  0  0  0  0
 13  2  2  0  0  0  0
 13  8  1  0  0  0  0
 14  1  2  0  0  0  0
 15 20  2  0  0  0  0
 16 17  1  0  0  0  0
 17  6  2  0  0  0  0
 18 13  1  0  0  0  0
 19  3  1  0  0  0  0
 20 11  1  0  0  0  0
 20 19  1  0  0  0  0
 21 22  2  0  0  0  0
 22 23  1  0  0  0  0
 23  8  1  0  0  0  0
 25 22  1  0  0  0  0
 25 24  1  1  0  0  0
 27 26  1  1  0  0  0
 27 25  1  0  0  0  0
 28 27  1  0  0  0  0
 29 30  1  1  0  0  0
 29 28  1  0  0  0  0
 31 29  1  0  0  0  0
M  END
>  <MODEL>
2

>  <REMARK>
 VINA RESULT:      -8.7      2.709      6.181
  Name = 
  5 active torsions:
  status: ('A' for Active; 'I' for Inactive)
    1  A    between atoms: C_1  and  O_24
    2  A    between atoms: C_9  and  C_22
    3  A    between atoms: C_15  and  N_23
    4  A    between atoms: C_19  and  C_22
    5  A    between atoms: C_19  and  O_24
                            x       y       z     vdW  Elec       q    Type
                         _______ _______ _______ _____ _____    ______ ____

>  <TORSDO>
F 5

$$$$
=
 OpenBabel10262419353D

 31 34  0  0  1  0  0  0  0  0999 V2000
  186.7120  177.9300  147.0070 C   0  0  0  0  0  0  0  0  0  0  0  0
  187.4430  178.0920  143.3520 C   0  0  0  0  0  0  0  0  0  0  0  0
  188.8630  177.5590  143.2870 C   0  0  1  0  0  3  0  0  0  0  0  0
  190.1680  175.3260  143.0700 C   0  0  0  0  0  2  0  0  0  0  0  0
  186.7700  178.1920  144.5900 C   0  0  0  0  0  0  0  0  0  0  0  0
  185.3940  178.3950  147.0320 C   0  0  0  0  0  3  0  0  0  0  0  0
  188.8870  176.0410  143.5440 C   0  0  0  0  0  2  0  0  0  0  0  0
  185.4570  178.9680  142.2170 C   0  0  0  0  0  0  0  0  0  0  0  0
  187.3260  177.5750  148.1610 F   0  0  0  0  0  0  0  0  0  0  0  0
  188.9630  178.7860  141.0420 C   0  0  0  0  0  2  0  0  0  0  0  0
  191.3310  176.2700  142.7580 C   0  0  0  0  0  2  0  0  0  0  0  0
  184.7970  179.0430  143.4490 C   0  0  0  0  0  3  0  0  0  0  0  0
  186.7830  178.5020  142.1690 C   0  0  0  0  0  0  0  0  0  0  0  0
  187.3970  177.8290  145.7930 C   0  0  0  0  0  3  0  0  0  0  0  0
  191.5840  177.7150  140.8720 O   0  0  0  0  0  0  0  0  0  0  0  0
  185.4390  178.6660  144.6260 C   0  0  0  0  0  0  0  0  0  0  0  0
  184.7590  178.7620  145.8440 C   0  0  0  0  0  3  0  0  0  0  0  0
  187.4990  178.4280  140.8520 C   0  0  0  0  0  2  0  0  0  0  0  0
  189.5520  177.8880  142.0300 N   0  0  0  0  0  0  0  0  0  0  0  0
  190.8520  177.3280  141.8210 C   0  0  0  0  0  0  0  0  0  0  0  0
  183.4500  177.4610  140.6620 O   0  0  0  0  0  0  0  0  0  0  0  0
  183.8550  178.5810  140.2460 C   0  0  0  0  0  0  0  0  0  0  0  0
  184.7980  179.3550  140.9990 N   0  0  0  0  0  2  0  0  0  0  0  0
  183.8930  180.3880  138.7310 O   0  0  0  0  0  1  0  0  0  0  0  0
  183.3410  179.1250  138.9520 C   0  0  2  0  0  3  0  0  0  0  0  0
  181.2890  179.2300  137.5240 C   0  0  0  0  0  1  0  0  0  0  0  0
  181.8130  179.2040  138.9520 C   0  0  2  0  0  3  0  0  0  0  0  0
  181.3880  180.3680  139.6190 O   0  0  0  0  0  0  0  0  0  0  0  0
  180.1880  180.0950  140.3140 C   0  0  1  0  0  3  0  0  0  0  0  0
  180.2860  178.8520  141.1900 C   0  0  0  0  0  1  0  0  0  0  0  0
  179.7450  181.1970  141.0530 O   0  0  0  0  0  1  0  0  0  0  0  0
  1  6  1  0  0  0  0
  1  9  1  0  0  0  0
  2  5  1  0  0  0  0
  3  2  1  0  0  0  0
  3  7  1  6  0  0  0
  4  7  1  0  0  0  0
  5 16  2  0  0  0  0
  5 14  1  0  0  0  0
  8 12  2  0  0  0  0
 10 19  1  0  0  0  0
 11  4  1  0  0  0  0
 12 16  1  0  0  0  0
 13  8  1  0  0  0  0
 13  2  2  0  0  0  0
 14  1  2  0  0  0  0
 15 20  2  0  0  0  0
 16 17  1  0  0  0  0
 17  6  2  0  0  0  0
 18 10  1  0  0  0  0
 18 13  1  0  0  0  0
 19  3  1  0  0  0  0
 20 19  1  0  0  0  0
 20 11  1  0  0  0  0
 22 21  2  0  0  0  0
 22 23  1  0  0  0  0
 23  8  1  0  0  0  0
 25 24  1  1  0  0  0
 25 27  1  0  0  0  0
 25 22  1  0  0  0  0
 27 26  1  6  0  0  0
 27 28  1  0  0  0  0
 28 29  1  0  0  0  0
 29 31  1  0  0  0  0
 29 30  1  1  0  0  0
M  END
>  <MODEL>
3

>  <REMARK>
 VINA RESULT:      -8.7      2.870      5.823
  Name = 
  5 active torsions:
  status: ('A' for Active; 'I' for Inactive)
    1  A    between atoms: C_1  and  O_24
    2  A    between atoms: C_9  and  C_22
    3  A    between atoms: C_15  and  N_23
    4  A    between atoms: C_19  and  C_22
    5  A    between atoms: C_19  and  O_24
                            x       y       z     vdW  Elec       q    Type
                         _______ _______ _______ _____ _____    ______ ____

>  <TORSDO>
F 5

$$$$
=
 OpenBabel10262419353D

 31 34  0  0  1  0  0  0  0  0999 V2000
  186.5110  178.0980  146.8170 C   0  0  0  0  0  0  0  0  0  0  0  0
  187.2930  178.1040  143.1680 C   0  0  0  0  0  0  0  0  0  0  0  0
  188.7360  177.6300  143.1520 C   0  0  1  0  0  3  0  0  0  0  0  0
  190.1370  175.4470  143.0690 C   0  0  0  0  0  2  0  0  0  0  0  0
  186.5970  178.2380  144.3900 C   0  0  0  0  0  0  0  0  0  0  0  0
  185.1750  178.5070  146.7990 C   0  0  0  0  0  3  0  0  0  0  0  0
  188.8190  176.1290  143.4880 C   0  0  0  0  0  2  0  0  0  0  0  0
  185.2910  178.8340  141.9620 C   0  0  0  0  0  0  0  0  0  0  0  0
  187.1200  177.8300  147.9960 F   0  0  0  0  0  0  0  0  0  0  0  0
  188.8190  178.7440  140.8470 C   0  0  0  0  0  2  0  0  0  0  0  0
  191.2640  176.4230  142.7240 C   0  0  0  0  0  2  0  0  0  0  0  0
  184.6090  178.9430  143.1790 C   0  0  0  0  0  3  0  0  0  0  0  0
  186.6360  178.4240  141.9570 C   0  0  0  0  0  0  0  0  0  0  0  0
  187.2190  177.9650  145.6190 C   0  0  0  0  0  3  0  0  0  0  0  0
  191.4860  177.7790  140.7690 O   0  0  0  0  0  0  0  0  0  0  0  0
  185.2460  178.6560  144.3840 C   0  0  0  0  0  0  0  0  0  0  0  0
  184.5440  178.7850  145.5850 C   0  0  0  0  0  3  0  0  0  0  0  0
  187.3750  178.3130  140.6560 C   0  0  0  0  0  2  0  0  0  0  0  0
  189.4300  177.9240  141.8890 N   0  0  0  0  0  0  0  0  0  0  0  0
  190.7560  177.4100  141.7280 C   0  0  0  0  0  0  0  0  0  0  0  0
  183.1790  177.2900  140.5930 O   0  0  0  0  0  0  0  0  0  0  0  0
  183.6390  178.3360  140.0580 C   0  0  0  0  0  0  0  0  0  0  0  0
  184.6350  179.1290  140.7160 N   0  0  0  0  0  2  0  0  0  0  0  0
  181.7470  178.6520  138.6860 O   0  0  0  0  0  1  0  0  0  0  0  0
  183.1370  178.7720  138.7190 C   0  0  2  0  0  3  0  0  0  0  0  0
  182.8800  176.7650  137.2470 C   0  0  0  0  0  1  0  0  0  0  0  0
  183.7700  177.9480  137.5950 C   0  0  2  0  0  3  0  0  0  0  0  0
  185.0320  177.4710  137.9960 O   0  0  0  0  0  0  0  0  0  0  0  0
  185.8610  177.3340  136.8590 C   0  0  1  0  0  3  0  0  0  0  0  0
  187.0090  178.3360  136.8450 C   0  0  0  0  0  1  0  0  0  0  0  0
  186.3330  176.0260  136.7070 O   0  0  0  0  0  1  0  0  0  0  0  0
  1  9  1  0  0  0  0
  2  5  1  0  0  0  0
  3  2  1  0  0  0  0
  3  7  1  6  0  0  0
  4  7  1  0  0  0  0
  5 14  1  0  0  0  0
  6  1  1  0  0  0  0
  8 12  2  0  0  0  0
 10 19  1  0  0  0  0
 11  4  1  0  0  0  0
 12 16  1  0  0  0  0
 13  8  1  0  0  0  0
 13  2  2  0  0  0  0
 14  1  2  0  0  0  0
 15 20  2  0  0  0  0
 16  5  2  0  0  0  0
 16 17  1  0  0  0  0
 17  6  2  0  0  0  0
 18 10  1  0  0  0  0
 18 13  1  0  0  0  0
 19  3  1  0  0  0  0
 20 19  1  0  0  0  0
 20 11  1  0  0  0  0
 22 21  2  0  0  0  0
 22 23  1  0  0  0  0
 23  8  1  0  0  0  0
 25 24  1  1  0  0  0
 25 22  1  0  0  0  0
 27 26  1  1  0  0  0
 27 28  1  0  0  0  0
 27 25  1  0  0  0  0
 29 30  1  1  0  0  0
 29 28  1  0  0  0  0
 31 29  1  0  0  0  0
M  END
>  <MODEL>
4

>  <REMARK>
 VINA RESULT:      -8.6      1.960      5.047
  Name = 
  5 active torsions:
  status: ('A' for Active; 'I' for Inactive)
    1  A    between atoms: C_1  and  O_24
    2  A    between atoms: C_9  and  C_22
    3  A    between atoms: C_15  and  N_23
    4  A    between atoms: C_19  and  C_22
    5  A    between atoms: C_19  and  O_24
                            x       y       z     vdW  Elec       q    Type
                         _______ _______ _______ _____ _____    ______ ____

>  <TORSDO>
F 5

$$$$
=
 OpenBabel10262419353D

 31 34  0  0  1  0  0  0  0  0999 V2000
  186.5640  178.0960  146.8870 C   0  0  0  0  0  0  0  0  0  0  0  0
  187.3580  178.0640  143.2410 C   0  0  0  0  0  0  0  0  0  0  0  0
  188.7990  177.5850  143.2330 C   0  0  1  0  0  3  0  0  0  0  0  0
  190.1920  175.3970  143.1750 C   0  0  0  0  0  2  0  0  0  0  0  0
  186.6590  178.2120  144.4590 C   0  0  0  0  0  0  0  0  0  0  0  0
  185.2290  178.5090  146.8610 C   0  0  0  0  0  3  0  0  0  0  0  0
  188.8760  176.0870  143.5830 C   0  0  0  0  0  2  0  0  0  0  0  0
  185.3620  178.7900  142.0210 C   0  0  0  0  0  0  0  0  0  0  0  0
  187.1690  177.8370  148.0710 F   0  0  0  0  0  0  0  0  0  0  0  0
  188.8940  178.6770  140.9190 C   0  0  0  0  0  2  0  0  0  0  0  0
  191.3240  176.3650  142.8250 C   0  0  0  0  0  2  0  0  0  0  0  0
  184.6760  178.9140  143.2350 C   0  0  0  0  0  3  0  0  0  0  0  0
  186.7060  178.3750  142.0250 C   0  0  0  0  0  0  0  0  0  0  0  0
  187.2750  177.9490  145.6930 C   0  0  0  0  0  3  0  0  0  0  0  0
  191.5570  177.7020  140.8580 O   0  0  0  0  0  0  0  0  0  0  0  0
  185.3090  178.6350  144.4440 C   0  0  0  0  0  0  0  0  0  0  0  0
  184.6030  178.7780  145.6420 C   0  0  0  0  0  3  0  0  0  0  0  0
  187.4490  178.2500  140.7260 C   0  0  0  0  0  2  0  0  0  0  0  0
  189.4980  177.8640  141.9690 N   0  0  0  0  0  0  0  0  0  0  0  0
  190.8230  177.3440  141.8180 C   0  0  0  0  0  0  0  0  0  0  0  0
  183.0780  177.3880  140.7820 O   0  0  0  0  0  0  0  0  0  0  0  0
  183.6280  178.3490  140.1780 C   0  0  0  0  0  0  0  0  0  0  0  0
  184.7110  179.0760  140.7710 N   0  0  0  0  0  2  0  0  0  0  0  0
  182.1980  179.7740  138.9560 O   0  0  0  0  0  1  0  0  0  0  0  0
  183.1410  178.7540  138.8230 C   0  0  2  0  0  3  0  0  0  0  0  0
  183.1450  177.4570  136.6840 C   0  0  0  0  0  1  0  0  0  0  0  0
  182.5380  177.5640  138.0740 C   0  0  2  0  0  3  0  0  0  0  0  0
  181.1440  177.7240  137.9540 O   0  0  0  0  0  0  0  0  0  0  0  0
  180.4960  176.6200  138.5540 C   0  0  1  0  0  3  0  0  0  0  0  0
  181.4160  175.4170  138.7190 C   0  0  0  0  0  1  0  0  0  0  0  0
  179.8920  176.9620  139.7700 O   0  0  0  0  0  1  0  0  0  0  0  0
  1  9  1  0  0  0  0
  2  5  1  0  0  0  0
  3  2  1  0  0  0  0
  3  7  1  6  0  0  0
  4  7  1  0  0  0  0
  5 14  1  0  0  0  0
  6  1  1  0  0  0  0
  8 13  1  0  0  0  0
  8 12  2  0  0  0  0
 10 19  1  0  0  0  0
 11  4  1  0  0  0  0
 12 16  1  0  0  0  0
 13  2  2  0  0  0  0
 14  1  2  0  0  0  0
 15 20  2  0  0  0  0
 16  5  2  0  0  0  0
 16 17  1  0  0  0  0
 17  6  2  0  0  0  0
 18 10  1  0  0  0  0
 18 13  1  0  0  0  0
 19  3  1  0  0  0  0
 20 19  1  0  0  0  0
 20 11  1  0  0  0  0
 22 23  1  0  0  0  0
 22 21  2  0  0  0  0
 23  8  1  0  0  0  0
 25 24  1  1  0  0  0
 25 22  1  0  0  0  0
 27 26  1  6  0  0  0
 27 25  1  0  0  0  0
 28 27  1  0  0  0  0
 28 29  1  0  0  0  0
 29 30  1  1  0  0  0
 29 31  1  0  0  0  0
M  END
>  <MODEL>
5

>  <REMARK>
 VINA RESULT:      -8.1      2.829      5.510
  Name = 
  5 active torsions:
  status: ('A' for Active; 'I' for Inactive)
    1  A    between atoms: C_1  and  O_24
    2  A    between atoms: C_9  and  C_22
    3  A    between atoms: C_15  and  N_23
    4  A    between atoms: C_19  and  C_22
    5  A    between atoms: C_19  and  O_24
                            x       y       z     vdW  Elec       q    Type
                         _______ _______ _______ _____ _____    ______ ____

>  <TORSDO>
F 5

$$$$
=
 OpenBabel10262419353D

 31 34  0  0  1  0  0  0  0  0999 V2000
  188.2440  177.1740  146.0310 C   0  0  0  0  0  0  0  0  0  0  0  0
  186.5390  178.2390  142.8870 C   0  0  0  0  0  0  0  0  0  0  0  0
  185.0900  178.3400  143.3290 C   0  0  1  0  0  3  0  0  0  0  0  0
  183.4160  180.0280  144.3680 C   0  0  0  0  0  2  0  0  0  0  0  0
  187.5440  177.8600  143.8040 C   0  0  0  0  0  0  0  0  0  0  0  0
  189.5730  177.1200  145.6030 C   0  0  0  0  0  3  0  0  0  0  0  0
  184.8810  179.5710  144.2310 C   0  0  0  0  0  2  0  0  0  0  0  0
  188.2380  178.4550  141.1360 C   0  0  0  0  0  0  0  0  0  0  0  0
  187.9340  176.8710  147.3140 F   0  0  0  0  0  0  0  0  0  0  0  0
  184.5660  178.0980  140.8340 C   0  0  0  0  0  2  0  0  0  0  0  0
  182.3920  178.9960  143.8920 C   0  0  0  0  0  2  0  0  0  0  0  0
  189.2250  178.0970  142.0620 C   0  0  0  0  0  3  0  0  0  0  0  0
  186.8940  178.5170  141.5460 C   0  0  0  0  0  0  0  0  0  0  0  0
  187.2350  177.5410  145.1360 C   0  0  0  0  0  3  0  0  0  0  0  0
  181.8620  178.3810  141.6440 O   0  0  0  0  0  0  0  0  0  0  0  0
  188.8920  177.7970  143.3800 C   0  0  0  0  0  0  0  0  0  0  0  0
  189.8960  177.4300  144.2800 C   0  0  0  0  0  3  0  0  0  0  0  0
  185.8310  178.8920  140.5550 C   0  0  0  0  0  2  0  0  0  0  0  0
  184.1390  178.3450  142.2080 N   0  0  0  0  0  0  0  0  0  0  0  0
  182.7570  178.5580  142.5130 C   0  0  0  0  0  0  0  0  0  0  0  0
  187.9320  176.7600  138.7380 O   0  0  0  0  0  0  0  0  0  0  0  0
  188.4540  177.9050  138.6360 C   0  0  0  0  0  0  0  0  0  0  0  0
  188.5790  178.7670  139.7740 N   0  0  0  0  0  2  0  0  0  0  0  0
  187.8880  178.3700  136.3930 O   0  0  0  0  0  1  0  0  0  0  0  0
  188.9430  178.3850  137.3070 C   0  0  2  0  0  3  0  0  0  0  0  0
  189.6000  176.5330  135.7580 C   0  0  0  0  0  1  0  0  0  0  0  0
  190.1000  177.5230  136.7990 C   0  0  2  0  0  3  0  0  0  0  0  0
  190.6810  176.8120  137.8670 O   0  0  0  0  0  0  0  0  0  0  0  0
  191.5650  175.8370  137.3520 C   0  0  1  0  0  3  0  0  0  0  0  0
  193.0220  176.2800  137.4010 C   0  0  0  0  0  1  0  0  0  0  0  0
  191.3970  174.5940  137.9710 O   0  0  0  0  0  1  0  0  0  0  0  0
  1  9  1  0  0  0  0
  2  3  1  0  0  0  0
  2  5  1  0  0  0  0
  3  7  1  6  0  0  0
  5 14  1  0  0  0  0
  6  1  1  0  0  0  0
  7  4  1  0  0  0  0
  8 13  1  0  0  0  0
  8 12  2  0  0  0  0
 10 19  1  0  0  0  0
 11  4  1  0  0  0  0
 12 16  1  0  0  0  0
 13  2  2  0  0  0  0
 14  1  2  0  0  0  0
 15 20  2  0  0  0  0
 16  5  2  0  0  0  0
 16 17  1  0  0  0  0
 17  6  2  0  0  0  0
 18 10  1  0  0  0  0
 18 13  1  0  0  0  0
 19 20  1  0  0  0  0
 19  3  1  0  0  0  0
 20 11  1  0  0  0  0
 22 21  2  0  0  0  0
 22 23  1  0  0  0  0
 23  8  1  0  0  0  0
 25 24  1  6  0  0  0
 25 22  1  0  0  0  0
 27 26  1  6  0  0  0
 27 25  1  0  0  0  0
 27 28  1  0  0  0  0
 29 30  1  1  0  0  0
 29 28  1  0  0  0  0
 29 31  1  0  0  0  0
M  END
>  <MODEL>
6

>  <REMARK>
 VINA RESULT:      -8.0      1.321      2.370
  Name = 
  5 active torsions:
  status: ('A' for Active; 'I' for Inactive)
    1  A    between atoms: C_1  and  O_24
    2  A    between atoms: C_9  and  C_22
    3  A    between atoms: C_15  and  N_23
    4  A    between atoms: C_19  and  C_22
    5  A    between atoms: C_19  and  O_24
                            x       y       z     vdW  Elec       q    Type
                         _______ _______ _______ _____ _____    ______ ____

>  <TORSDO>
F 5

$$$$
=
 OpenBabel10262419353D

 31 34  0  0  1  0  0  0  0  0999 V2000
  192.2900  176.4760  138.6780 C   0  0  0  0  0  0  0  0  0  0  0  0
  189.5690  177.4880  141.0230 C   0  0  0  0  0  0  0  0  0  0  0  0
  190.2200  177.2710  142.3770 C   0  0  1  0  0  3  0  0  0  0  0  0
  191.6800  178.5080  144.1300 C   0  0  0  0  0  2  0  0  0  0  0  0
  190.2830  177.2210  139.8340 C   0  0  0  0  0  0  0  0  0  0  0  0
  191.6760  176.7140  137.4460 C   0  0  0  0  0  3  0  0  0  0  0  0
  191.2840  178.3510  142.6480 C   0  0  0  0  0  2  0  0  0  0  0  0
  187.6360  178.1840  139.6900 C   0  0  0  0  0  0  0  0  0  0  0  0
  193.5580  176.0010  138.7220 F   0  0  0  0  0  0  0  0  0  0  0  0
  187.8120  177.1690  143.2450 C   0  0  0  0  0  2  0  0  0  0  0  0
  191.2310  177.3500  145.0230 C   0  0  0  0  0  2  0  0  0  0  0  0
  188.3640  177.9340  138.5210 C   0  0  0  0  0  3  0  0  0  0  0  0
  188.2350  177.9520  140.9410 C   0  0  0  0  0  0  0  0  0  0  0  0
  191.5970  176.7270  139.8660 C   0  0  0  0  0  3  0  0  0  0  0  0
  189.0230  176.8590  145.7920 O   0  0  0  0  0  0  0  0  0  0  0  0
  189.6700  177.4540  138.5810 C   0  0  0  0  0  0  0  0  0  0  0  0
  190.3680  177.2020  137.3970 C   0  0  0  0  0  3  0  0  0  0  0  0
  187.4560  178.2100  142.1980 C   0  0  0  0  0  2  0  0  0  0  0  0
  189.2520  177.2010  143.4830 N   0  0  0  0  0  0  0  0  0  0  0  0
  189.7720  177.1200  144.8140 C   0  0  0  0  0  0  0  0  0  0  0  0
  185.4940  177.4480  137.7950 O   0  0  0  0  0  0  0  0  0  0  0  0
  185.2820  178.3310  138.6720 C   0  0  0  0  0  0  0  0  0  0  0  0
  186.2870  178.6800  139.6310 N   0  0  0  0  0  2  0  0  0  0  0  0
  184.1470  180.3550  139.0940 O   0  0  0  0  0  1  0  0  0  0  0  0
  183.9580  179.0220  138.7270 C   0  0  2  0  0  3  0  0  0  0  0  0
  181.8220  177.7400  138.9660 C   0  0  0  0  0  1  0  0  0  0  0  0
  183.0110  178.3290  139.7090 C   0  0  2  0  0  3  0  0  0  0  0  0
  182.5440  179.2510  140.6650 O   0  0  0  0  0  0  0  0  0  0  0  0
  182.5050  178.6280  141.9330 C   0  0  1  0  0  3  0  0  0  0  0  0
  183.8590  178.6270  142.6310 C   0  0  0  0  0  1  0  0  0  0  0  0
  181.5150  179.1750  142.7570 O   0  0  0  0  0  1  0  0  0  0  0  0
  1  9  1  0  0  0  0
  1 14  1  0  0  0  0
  2  3  1  0  0  0  0
  3  7  1  1  0  0  0
  3 19  1  0  0  0  0
  4 11  1  0  0  0  0
  5 14  2  0  0  0  0
  5  2  1  0  0  0  0
  6  1  2  0  0  0  0
  7  4  1  0  0  0  0
  8 13  1  0  0  0  0
 10 19  1  0  0  0  0
 12 16  1  0  0  0  0
 12  8  2  0  0  0  0
 13  2  2  0  0  0  0
 13 18  1  0  0  0  0
 16  5  1  0  0  0  0
 17  6  1  0  0  0  0
 17 16  2  0  0  0  0
 18 10  1  0  0  0  0
 19 20  1  0  0  0  0
 20 11  1  0  0  0  0
 20 15  2  0  0  0  0
 21 22  2  0  0  0  0
 22 25  1  0  0  0  0
 22 23  1  0  0  0  0
 23  8  1  0  0  0  0
 25 24  1  1  0  0  0
 25 27  1  0  0  0  0
 27 26  1  6  0  0  0
 27 28  1  0  0  0  0
 28 29  1  0  0  0  0
 29 30  1  1  0  0  0
 29 31  1  0  0  0  0
M  END
>  <MODEL>
7

>  <REMARK>
 VINA RESULT:      -7.8      3.077      6.374
  Name = 
  5 active torsions:
  status: ('A' for Active; 'I' for Inactive)
    1  A    between atoms: C_1  and  O_24
    2  A    between atoms: C_9  and  C_22
    3  A    between atoms: C_15  and  N_23
    4  A    between atoms: C_19  and  C_22
    5  A    between atoms: C_19  and  O_24
                            x       y       z     vdW  Elec       q    Type
                         _______ _______ _______ _____ _____    ______ ____

>  <TORSDO>
F 5

$$$$
=
 OpenBabel10262419353D

 31 34  0  0  1  0  0  0  0  0999 V2000
  184.6400  178.7970  139.0850 C   0  0  0  0  0  0  0  0  0  0  0  0
  188.1890  177.6460  139.1340 C   0  0  0  0  0  0  0  0  0  0  0  0
  188.4300  177.2960  137.6760 C   0  0  1  0  0  3  0  0  0  0  0  0
  189.2020  178.3760  135.4470 C   0  0  0  0  0  2  0  0  0  0  0  0
  186.9350  178.1410  139.5540 C   0  0  0  0  0  0  0  0  0  0  0  0
  184.4570  179.1400  140.4270 C   0  0  0  0  0  3  0  0  0  0  0  0
  188.5260  178.5710  136.8190 C   0  0  0  0  0  2  0  0  0  0  0  0
  189.0140  177.8220  141.4330 C   0  0  0  0  0  0  0  0  0  0  0  0
  183.6220  178.9470  138.2030 F   0  0  0  0  0  0  0  0  0  0  0  0
  190.3400  175.8550  138.5920 C   0  0  0  0  0  2  0  0  0  0  0  0
  189.3380  176.9130  135.0200 C   0  0  0  0  0  2  0  0  0  0  0  0
  187.7710  178.3300  141.8300 C   0  0  0  0  0  3  0  0  0  0  0  0
  189.2200  177.4710  140.0870 C   0  0  0  0  0  0  0  0  0  0  0  0
  185.8710  178.2990  138.6500 C   0  0  0  0  0  3  0  0  0  0  0  0
  190.8550  175.2710  135.8630 O   0  0  0  0  0  0  0  0  0  0  0  0
  186.7370  178.4870  140.9110 C   0  0  0  0  0  0  0  0  0  0  0  0
  185.5030  178.9850  141.3380 C   0  0  0  0  0  3  0  0  0  0  0  0
  190.5470  176.9170  139.6570 C   0  0  0  0  0  2  0  0  0  0  0  0
  189.6060  176.4360  137.4720 N   0  0  0  0  0  0  0  0  0  0  0  0
  189.9890  176.1490  136.1230 C   0  0  0  0  0  0  0  0  0  0  0  0
  189.9410  175.3430  142.7410 O   0  0  0  0  0  0  0  0  0  0  0  0
  190.4840  176.4450  143.0270 C   0  0  0  0  0  0  0  0  0  0  0  0
  190.0840  177.6590  142.3800 N   0  0  0  0  0  2  0  0  0  0  0  0
  192.1320  175.2250  144.1940 O   0  0  0  0  0  1  0  0  0  0  0  0
  191.5730  176.4960  144.0500 C   0  0  2  0  0  3  0  0  0  0  0  0
  191.8220  176.3620  146.5370 C   0  0  0  0  0  1  0  0  0  0  0  0
  191.0470  177.0010  145.3950 C   0  0  2  0  0  3  0  0  0  0  0  0
  189.6820  176.6830  145.5320 O   0  0  0  0  0  0  0  0  0  0  0  0
  188.9750  177.8330  145.9500 C   0  0  1  0  0  3  0  0  0  0  0  0
  187.5340  177.8500  145.4550 C   0  0  0  0  0  1  0  0  0  0  0  0
  189.0320  178.0100  147.3370 O   0  0  0  0  0  1  0  0  0  0  0  0
  1  6  1  0  0  0  0
  2  5  2  0  0  0  0
  2 13  1  0  0  0  0
  3  7  1  6  0  0  0
  3  2  1  0  0  0  0
  4  7  1  0  0  0  0
  5 16  1  0  0  0  0
  6 17  2  0  0  0  0
  8 12  1  0  0  0  0
  8 23  1  0  0  0  0
  9  1  1  0  0  0  0
 10 18  1  0  0  0  0
 11  4  1  0  0  0  0
 11 20  1  0  0  0  0
 13  8  2  0  0  0  0
 14  1  2  0  0  0  0
 14  5  1  0  0  0  0
 15 20  2  0  0  0  0
 16 17  1  0  0  0  0
 16 12  2  0  0  0  0
 18 13  1  0  0  0  0
 19  3  1  0  0  0  0
 19 10  1  0  0  0  0
 20 19  1  0  0  0  0
 21 22  2  0  0  0  0
 22 25  1  0  0  0  0
 23 22  1  0  0  0  0
 25 24  1  1  0  0  0
 25 27  1  0  0  0  0
 27 28  1  0  0  0  0
 27 26  1  1  0  0  0
 28 29  1  0  0  0  0
 29 30  1  1  0  0  0
 29 31  1  0  0  0  0
M  END
>  <MODEL>
8

>  <REMARK>
 VINA RESULT:      -7.8      3.650      7.928
  Name = 
  5 active torsions:
  status: ('A' for Active; 'I' for Inactive)
    1  A    between atoms: C_1  and  O_24
    2  A    between atoms: C_9  and  C_22
    3  A    between atoms: C_15  and  N_23
    4  A    between atoms: C_19  and  C_22
    5  A    between atoms: C_19  and  O_24
                            x       y       z     vdW  Elec       q    Type
                         _______ _______ _______ _____ _____    ______ ____

>  <TORSDO>
F 5

$$$$
=
 OpenBabel10262419353D

 31 34  0  0  1  0  0  0  0  0999 V2000
  186.9850  178.3500  147.1790 C   0  0  0  0  0  0  0  0  0  0  0  0
  186.3850  178.1760  143.5010 C   0  0  0  0  0  0  0  0  0  0  0  0
  187.7800  177.9100  142.9630 C   0  0  1  0  0  3  0  0  0  0  0  0
  189.3860  175.9470  142.4170 C   0  0  0  0  0  2  0  0  0  0  0  0
  186.1650  178.3080  144.8900 C   0  0  0  0  0  0  0  0  0  0  0  0
  185.6860  178.5640  147.6470 C   0  0  0  0  0  3  0  0  0  0  0  0
  188.2180  176.4670  143.2770 C   0  0  0  0  0  2  0  0  0  0  0  0
  183.9930  178.5190  143.1030 C   0  0  0  0  0  0  0  0  0  0  0  0
  188.0140  178.2650  148.0560 F   0  0  0  0  0  0  0  0  0  0  0  0
  186.8460  178.8380  140.7660 C   0  0  0  0  0  2  0  0  0  0  0  0
  190.1400  177.0400  141.6590 C   0  0  0  0  0  2  0  0  0  0  0  0
  183.7880  178.6280  144.4840 C   0  0  0  0  0  3  0  0  0  0  0  0
  185.2920  178.3040  142.6110 C   0  0  0  0  0  0  0  0  0  0  0  0
  187.2240  178.2240  145.8080 C   0  0  0  0  0  3  0  0  0  0  0  0
  189.4220  178.2540  139.7310 O   0  0  0  0  0  0  0  0  0  0  0  0
  184.8550  178.5300  145.3730 C   0  0  0  0  0  0  0  0  0  0  0  0
  184.6230  178.6540  146.7460 C   0  0  0  0  0  3  0  0  0  0  0  0
  185.5190  178.1950  141.1310 C   0  0  0  0  0  2  0  0  0  0  0  0
  187.9140  178.1970  141.5270 N   0  0  0  0  0  0  0  0  0  0  0  0
  189.1560  177.8640  140.8990 C   0  0  0  0  0  0  0  0  0  0  0  0
  181.1290  178.9170  143.7040 O   0  0  0  0  0  0  0  0  0  0  0  0
  181.5060  178.7740  142.5080 C   0  0  0  0  0  0  0  0  0  0  0  0
  182.8930  178.6200  142.1810 N   0  0  0  0  0  2  0  0  0  0  0  0
  180.9820  178.0140  140.3370 O   0  0  0  0  0  1  0  0  0  0  0  0
  180.4990  178.7740  141.4040 C   0  0  2  0  0  3  0  0  0  0  0  0
  179.0160  180.7610  141.7420 C   0  0  0  0  0  1  0  0  0  0  0  0
  180.1820  180.1980  140.9430 C   0  0  2  0  0  3  0  0  0  0  0  0
  179.8450  180.2010  139.5760 O   0  0  0  0  0  0  0  0  0  0  0  0
  180.6860  181.1090  138.8920 C   0  0  1  0  0  3  0  0  0  0  0  0
  181.1800  180.5630  137.5580 C   0  0  0  0  0  1  0  0  0  0  0  0
  180.0850  182.3630  138.7300 O   0  0  0  0  0  1  0  0  0  0  0  0
  1  6  1  0  0  0  0
  1  9  1  0  0  0  0
  2  5  1  0  0  0  0
  3  7  1  6  0  0  0
  3  2  1  0  0  0  0
  4  7  1  0  0  0  0
  5 16  2  0  0  0  0
  5 14  1  0  0  0  0
  8 12  2  0  0  0  0
 10 18  1  0  0  0  0
 10 19  1  0  0  0  0
 11  4  1  0  0  0  0
 12 16  1  0  0  0  0
 13  8  1  0  0  0  0
 13  2  2  0  0  0  0
 14  1  2  0  0  0  0
 15 20  2  0  0  0  0
 16 17  1  0  0  0  0
 17  6  2  0  0  0  0
 18 13  1  0  0  0  0
 19  3  1  0  0  0  0
 20 19  1  0  0  0  0
 20 11  1  0  0  0  0
 22 21  2  0  0  0  0
 23 22  1  0  0  0  0
 23  8  1  0  0  0  0
 25 24  1  6  0  0  0
 25 22  1  0  0  0  0
 27 25  1  0  0  0  0
 27 26  1  1  0  0  0
 28 27  1  0  0  0  0
 29 30  1  6  0  0  0
 29 28  1  0  0  0  0
 31 29  1  0  0  0  0
M  END
>  <MODEL>
9

>  <REMARK>
 VINA RESULT:      -7.5      2.753      6.427
  Name = 
  5 active torsions:
  status: ('A' for Active; 'I' for Inactive)
    1  A    between atoms: C_1  and  O_24
    2  A    between atoms: C_9  and  C_22
    3  A    between atoms: C_15  and  N_23
    4  A    between atoms: C_19  and  C_22
    5  A    between atoms: C_19  and  O_24
                            x       y       z     vdW  Elec       q    Type
                         _______ _______ _______ _____ _____    ______ ____

>  <TORSDO>
F 5

$$$$
