=
 OpenBabel10262420223D

 55 61  0  0  1  0  0  0  0  0999 V2000
  184.6400  178.5270  144.2900 C   0  0  0  0  0  3  0  0  0  0  0  0
  182.6060  178.8140  142.3910 C   0  0  0  0  0  0  0  0  0  0  0  0
  183.8760  178.3830  141.9970 C   0  0  0  0  0  3  0  0  0  0  0  0
  183.3710  178.9640  144.6850 C   0  0  0  0  0  3  0  0  0  0  0  0
  184.8970  178.2360  142.9410 C   0  0  0  0  0  0  0  0  0  0  0  0
  182.3550  179.1100  143.7340 C   0  0  0  0  0  3  0  0  0  0  0  0
  186.2110  177.7760  142.4800 C   0  0  0  0  0  3  0  0  0  0  0  0
  187.2270  178.5940  142.2170 C   0  0  0  0  0  3  0  0  0  0  0  0
  188.5000  178.1060  141.7670 N   0  0  0  0  0  0  0  0  0  0  0  0
  190.4080  178.7180  143.2460 C   0  0  0  0  0  2  0  0  0  0  0  0
  190.9070  176.9530  144.9720 N   0  0  0  0  0  0  0  0  0  0  0  0
  188.6710  176.9950  143.9510 C   0  0  0  0  0  2  0  0  0  0  0  0
  189.4680  177.0390  145.2530 C   0  0  0  0  0  2  0  0  0  0  0  0
  191.3220  178.2400  144.3890 C   0  0  0  0  0  2  0  0  0  0  0  0
  189.4350  177.6260  142.7810 C   0  0  0  0  0  3  0  0  0  0  0  0
  191.6240  176.7560  146.2450 C   0  0  0  0  0  3  0  0  0  0  0  0
  192.1900  175.3460  146.3470 C   0  0  0  0  0  1  0  0  0  0  0  0
  190.6950  176.9500  147.4360 C   0  0  0  0  0  1  0  0  0  0  0  0
  188.9320  178.2920  140.3770 C   0  0  0  0  0  2  0  0  0  0  0  0
  189.8130  177.1300  139.9270 C   0  0  0  0  0  2  0  0  0  0  0  0
  190.7780  176.2240  136.3190 C   0  0  0  0  0  2  0  0  0  0  0  0
  189.5120  176.8110  135.7220 C   0  0  0  0  0  2  0  0  0  0  0  0
  190.3320  177.3330  138.5120 C   0  0  2  0  0  3  0  0  0  0  0  0
  189.3890  178.2370  137.7590 C   0  0  0  0  0  3  0  0  0  0  0  0
  189.0540  178.0270  136.4790 C   0  0  0  0  0  3  0  0  0  0  0  0
  190.5520  175.9900  137.8070 C   0  0  2  0  0  3  0  0  0  0  0  0
  191.6680  175.3150  138.3690 O   0  0  0  0  0  0  0  0  0  0  0  0
  192.9860  175.6580  138.0620 C   0  0  0  0  0  0  0  0  0  0  0  0
  193.4440  176.7570  138.4690 O   0  0  0  0  0  0  0  0  0  0  0  0
  193.8860  174.7330  137.3060 C   0  0  0  0  0  2  0  0  0  0  0  0
  194.8290  173.9960  138.2420 C   0  0  0  0  0  2  0  0  0  0  0  0
  196.9420  174.4030  137.2950 C   0  0  0  0  0  2  0  0  0  0  0  0
  196.1170  174.6330  138.2450 N   0  0  0  0  0  0  0  0  0  0  0  0
  181.5340  178.9690  141.3700 C   0  0  0  0  0  2  0  0  0  0  0  0
  180.2790  178.2330  141.8040 C   0  0  0  0  0  2  0  0  0  0  0  0
  179.9660  177.1160  140.8220 C   0  0  0  0  0  2  0  0  0  0  0  0
  179.9390  177.6340  139.4640 N   0  0  0  0  0  2  0  0  0  0  0  0
  180.5970  176.6630  138.6080 C   0  0  0  0  0  2  0  0  0  0  0  0
  185.2120  178.1120  138.0100 C   0  0  0  0  0  0  0  0  0  0  0  0
  182.1830  177.0020  135.4120 C   0  0  0  0  0  1  0  0  0  0  0  0
  183.2520  176.7820  136.4640 C   0  0  2  0  0  0  0  0  0  0  0  0
  182.1110  176.7360  138.8080 C   0  0  2  0  0  3  0  0  0  0  0  0
  183.3910  175.2590  136.6680 C   0  0  2  0  0  3  0  0  0  0  0  0
  182.8210  177.5800  137.7450 C   0  0  1  0  0  3  0  0  0  0  0  0
  186.1380  178.7020  138.6220 O   0  0  0  0  0  0  0  0  0  0  0  0
  185.5920  175.8410  137.5210 O   0  0  0  0  0  0  0  0  0  0  0  0
  182.5260  174.7240  137.8100 C   0  0  0  0  0  2  0  0  0  0  0  0
  184.8790  174.8910  136.7600 C   0  0  1  0  0  3  0  0  0  0  0  0
  183.8820  178.3240  138.3550 O   0  0  0  0  0  0  0  0  0  0  0  0
  184.4780  177.2730  135.9480 O   0  0  0  0  0  0  0  0  0  0  0  0
  182.7140  175.4730  138.9830 O   0  0  0  0  0  0  0  0  0  0  0  0
  185.5010  177.1360  136.9320 C   0  0  1  0  0  3  0  0  0  0  0  0
  186.5320  173.0490  137.1490 C   0  0  0  0  0  2  0  0  0  0  0  0
  185.1220  173.4340  137.1890 C   0  0  2  0  0  3  0  0  0  0  0  0
  185.6320  172.6510  136.0540 N   0  0  0  0  0  2  0  0  0  0  0  0
  1  4  1  0  0  0  0
  2  6  1  0  0  0  0
  3  2  2  0  0  0  0
  3  5  1  0  0  0  0
  5  1  2  0  0  0  0
  6  4  2  0  0  0  0
  7  5  1  0  0  0  0
  8  7  2  0  0  0  0
  9  8  1  0  0  0  0
  9 15  1  0  0  0  0
 10 14  1  0  0  0  0
 11 13  1  0  0  0  0
 11 16  1  0  0  0  0
 12 13  1  0  0  0  0
 14 11  1  0  0  0  0
 15 10  1  0  0  0  0
 15 12  1  0  0  0  0
 16 17  1  0  0  0  0
 16 18  1  0  0  0  0
 19  9  1  0  0  0  0
 20 19  1  0  0  0  0
 21 26  1  0  0  0  0
 22 21  1  0  0  0  0
 22 25  1  0  0  0  0
 23 20  1  1  0  0  0
 24 23  1  0  0  0  0
 25 24  2  0  0  0  0
 26 27  1  1  0  0  0
 26 23  1  0  0  0  0
 28 27  1  0  0  0  0
 28 29  2  0  0  0  0
 30 28  1  0  0  0  0
 30 31  1  0  0  0  0
 31 33  1  0  0  0  0
 32 33  2  0  0  0  0
 34 35  1  0  0  0  0
 34  2  1  0  0  0  0
 36 35  1  0  0  0  0
 37 36  1  0  0  0  0
 38 37  1  0  0  0  0
 39 49  1  0  0  0  0
 39 45  2  0  0  0  0
 41 40  1  6  0  0  0
 41 43  1  0  0  0  0
 41 44  1  0  0  0  0
 42 38  1  6  0  0  0
 42 51  1  0  0  0  0
 43 48  1  0  0  0  0
 43 47  1  1  0  0  0
 44 49  1  1  0  0  0
 44 42  1  0  0  0  0
 47 51  1  0  0  0  0
 48 54  1  0  0  0  0
 48 46  1  1  0  0  0
 50 41  1  0  0  0  0
 52 50  1  6  0  0  0
 52 46  1  0  0  0  0
 52 39  1  0  0  0  0
 54 53  1  1  0  0  0
 55 53  1  0  0  0  0
 55 54  1  0  0  0  0
M  END
>  <MODEL>
1

>  <REMARK>
 VINA RESULT:      -8.1      0.000      0.000
  Name = 
  19 active torsions:
  status: ('A' for Active; 'I' for Inactive)
    1  A    between atoms: C_2  and  C_44
    2  A    between atoms: C_4  and  N_37
    3  A    between atoms: C_4  and  C_40
    4  A    between atoms: C_5  and  C_40
    5  A    between atoms: C_5  and  O_45
    6  A    between atoms: C_7  and  C_22
    7  A    between atoms: N_8  and  C_22
    8  A    between atoms: N_8  and  C_43
    9  A    between atoms: C_10  and  N_32
   10  A    between atoms: C_12  and  C_38
   11  A    between atoms: C_16  and  C_36
   12  A    between atoms: C_26  and  O_45
   13  A    between atoms: C_27  and  C_54
   14  A    between atoms: C_28  and  N_49
   15  A    between atoms: C_33  and  C_36
   16  A    between atoms: C_33  and  N_49
   17  A    between atoms: C_43  and  C_51
   18  A    between atoms: N_49  and  C_52
   19  A    between atoms: C_51  and  C_54
                            x       y       z     vdW  Elec       q    Type
                         _______ _______ _______ _____ _____    ______ ____

>  <TORSDO>
F 19

$$$$
=
 OpenBabel10262420223D

 55 61  0  0  1  0  0  0  0  0999 V2000
  183.7610  178.5880  143.9400 C   0  0  0  0  0  3  0  0  0  0  0  0
  181.7580  178.8800  142.0090 C   0  0  0  0  0  0  0  0  0  0  0  0
  183.0440  178.4840  141.6290 C   0  0  0  0  0  3  0  0  0  0  0  0
  182.4770  178.9900  144.3200 C   0  0  0  0  0  3  0  0  0  0  0  0
  184.0500  178.3340  142.5890 C   0  0  0  0  0  0  0  0  0  0  0  0
  181.4750  179.1380  143.3530 C   0  0  0  0  0  3  0  0  0  0  0  0
  185.3820  177.9120  142.1430 C   0  0  0  0  0  3  0  0  0  0  0  0
  186.1940  178.6800  141.4230 C   0  0  0  0  0  3  0  0  0  0  0  0
  187.4920  178.2320  141.0040 N   0  0  0  0  0  0  0  0  0  0  0  0
  188.7340  177.1500  139.1350 C   0  0  0  0  0  2  0  0  0  0  0  0
  188.0540  178.0320  136.8770 N   0  0  0  0  0  0  0  0  0  0  0  0
  186.4990  178.3100  138.7590 C   0  0  0  0  0  2  0  0  0  0  0  0
  186.6910  177.7570  137.3490 C   0  0  0  0  0  2  0  0  0  0  0  0
  188.9670  177.1420  137.6140 C   0  0  0  0  0  2  0  0  0  0  0  0
  187.7960  178.2820  139.5760 C   0  0  0  0  0  3  0  0  0  0  0  0
  188.1300  177.7040  135.4400 C   0  0  0  0  0  3  0  0  0  0  0  0
  186.7860  177.9150  134.7560 C   0  0  0  0  0  1  0  0  0  0  0  0
  188.5130  176.2450  135.2290 C   0  0  0  0  0  1  0  0  0  0  0  0
  188.3900  177.5400  141.9360 C   0  0  0  0  0  2  0  0  0  0  0  0
  188.6520  178.3980  143.1700 C   0  0  0  0  0  2  0  0  0  0  0  0
  189.4370  177.4810  146.8180 C   0  0  0  0  0  2  0  0  0  0  0  0
  188.0480  177.8370  147.3160 C   0  0  0  0  0  2  0  0  0  0  0  0
  188.6740  177.5640  144.4410 C   0  0  2  0  0  3  0  0  0  0  0  0
  187.2720  177.4440  144.9830 C   0  0  0  0  0  3  0  0  0  0  0  0
  186.9940  177.5200  146.2920 C   0  0  0  0  0  3  0  0  0  0  0  0
  189.6550  178.1460  145.4660 C   0  0  2  0  0  3  0  0  0  0  0  0
  190.9940  177.9460  145.0340 O   0  0  0  0  0  0  0  0  0  0  0  0
  191.4740  176.7000  144.6280 C   0  0  0  0  0  0  0  0  0  0  0  0
  191.7360  175.8310  145.4990 O   0  0  0  0  0  0  0  0  0  0  0  0
  191.6390  176.3520  143.1820 C   0  0  0  0  0  2  0  0  0  0  0  0
  192.0020  177.5780  142.3610 C   0  0  0  0  0  2  0  0  0  0  0  0
  192.7250  177.4610  140.1270 C   0  0  0  0  0  2  0  0  0  0  0  0
  191.7700  177.3230  140.9660 N   0  0  0  0  0  0  0  0  0  0  0  0
  180.7030  179.0370  140.9720 C   0  0  0  0  0  2  0  0  0  0  0  0
  181.2970  179.6010  139.6920 C   0  0  0  0  0  2  0  0  0  0  0  0
  180.8020  178.8050  138.4950 C   0  0  0  0  0  2  0  0  0  0  0  0
  180.9160  177.3790  138.7580 N   0  0  0  0  0  2  0  0  0  0  0  0
  181.0160  176.7010  137.4780 C   0  0  0  0  0  2  0  0  0  0  0  0
  184.7420  173.5600  137.4480 C   0  0  0  0  0  0  0  0  0  0  0  0
  183.2700  176.3070  134.7200 C   0  0  0  0  0  1  0  0  0  0  0  0
  183.2660  175.0260  135.5320 C   0  0  2  0  0  0  0  0  0  0  0  0
  181.7820  175.3890  137.6450 C   0  0  2  0  0  3  0  0  0  0  0  0
  182.0850  174.1670  135.0340 C   0  0  2  0  0  3  0  0  0  0  0  0
  183.1910  175.4320  137.0470 C   0  0  1  0  0  3  0  0  0  0  0  0
  185.4530  172.8800  138.2310 O   0  0  0  0  0  0  0  0  0  0  0  0
  183.3610  172.3320  135.9900 O   0  0  0  0  0  0  0  0  0  0  0  0
  180.8060  174.3770  135.8450 C   0  0  0  0  0  2  0  0  0  0  0  0
  182.5360  172.7050  134.9080 C   0  0  1  0  0  3  0  0  0  0  0  0
  184.0920  174.7060  137.8920 O   0  0  0  0  0  0  0  0  0  0  0  0
  184.4700  174.3300  135.2520 O   0  0  0  0  0  0  0  0  0  0  0  0
  181.0520  174.2580  137.2230 O   0  0  0  0  0  0  0  0  0  0  0  0
  184.5310  173.1440  136.0410 C   0  0  1  0  0  3  0  0  0  0  0  0
  180.9970  170.9480  135.8140 C   0  0  0  0  0  2  0  0  0  0  0  0
  181.3780  171.7300  134.6390 C   0  0  2  0  0  3  0  0  0  0  0  0
  181.8450  170.3420  134.7740 N   0  0  0  0  0  2  0  0  0  0  0  0
  1  4  1  0  0  0  0
  2  6  1  0  0  0  0
  3  2  2  0  0  0  0
  3  5  1  0  0  0  0
  5  1  2  0  0  0  0
  6  4  2  0  0  0  0
  7  5  1  0  0  0  0
  8  7  2  0  0  0  0
  9  8  1  0  0  0  0
  9 19  1  0  0  0  0
 10 15  1  0  0  0  0
 11 13  1  0  0  0  0
 11 14  1  0  0  0  0
 12 15  1  0  0  0  0
 13 12  1  0  0  0  0
 14 10  1  0  0  0  0
 15  9  1  0  0  0  0
 16 11  1  0  0  0  0
 17 16  1  0  0  0  0
 18 16  1  0  0  0  0
 19 20  1  0  0  0  0
 21 22  1  0  0  0  0
 23 20  1  6  0  0  0
 23 24  1  0  0  0  0
 23 26  1  0  0  0  0
 24 25  2  0  0  0  0
 25 22  1  0  0  0  0
 26 27  1  6  0  0  0
 26 21  1  0  0  0  0
 28 27  1  0  0  0  0
 28 29  2  0  0  0  0
 30 28  1  0  0  0  0
 31 30  1  0  0  0  0
 32 33  2  0  0  0  0
 33 31  1  0  0  0  0
 34  2  1  0  0  0  0
 35 34  1  0  0  0  0
 36 37  1  0  0  0  0
 36 35  1  0  0  0  0
 38 37  1  0  0  0  0
 39 49  1  0  0  0  0
 39 45  2  0  0  0  0
 41 40  1  6  0  0  0
 41 44  1  0  0  0  0
 42 38  1  6  0  0  0
 43 41  1  0  0  0  0
 43 47  1  1  0  0  0
 44 42  1  0  0  0  0
 44 49  1  1  0  0  0
 46 52  1  0  0  0  0
 47 51  1  0  0  0  0
 48 43  1  0  0  0  0
 48 46  1  1  0  0  0
 50 41  1  0  0  0  0
 51 42  1  0  0  0  0
 52 50  1  6  0  0  0
 52 39  1  0  0  0  0
 54 55  1  0  0  0  0
 54 48  1  0  0  0  0
 54 53  1  1  0  0  0
 55 53  1  0  0  0  0
M  END
>  <MODEL>
2

>  <REMARK>
 VINA RESULT:      -7.7      2.620      5.760
  Name = 
  19 active torsions:
  status: ('A' for Active; 'I' for Inactive)
    1  A    between atoms: C_2  and  C_44
    2  A    between atoms: C_4  and  N_37
    3  A    between atoms: C_4  and  C_40
    4  A    between atoms: C_5  and  C_40
    5  A    between atoms: C_5  and  O_45
    6  A    between atoms: C_7  and  C_22
    7  A    between atoms: N_8  and  C_22
    8  A    between atoms: N_8  and  C_43
    9  A    between atoms: C_10  and  N_32
   10  A    between atoms: C_12  and  C_38
   11  A    between atoms: C_16  and  C_36
   12  A    between atoms: C_26  and  O_45
   13  A    between atoms: C_27  and  C_54
   14  A    between atoms: C_28  and  N_49
   15  A    between atoms: C_33  and  C_36
   16  A    between atoms: C_33  and  N_49
   17  A    between atoms: C_43  and  C_51
   18  A    between atoms: N_49  and  C_52
   19  A    between atoms: C_51  and  C_54
                            x       y       z     vdW  Elec       q    Type
                         _______ _______ _______ _____ _____    ______ ____

>  <TORSDO>
F 19

$$$$
=
 OpenBabel10262420223D

 55 61  0  0  1  0  0  0  0  0999 V2000
  184.4160  179.3160  139.0860 C   0  0  0  0  0  3  0  0  0  0  0  0
  182.3440  178.7930  140.8910 C   0  0  0  0  0  0  0  0  0  0  0  0
  183.6680  178.8380  141.3380 C   0  0  0  0  0  3  0  0  0  0  0  0
  183.0930  179.2650  138.6360 C   0  0  0  0  0  3  0  0  0  0  0  0
  184.7090  179.1010  140.4420 C   0  0  0  0  0  0  0  0  0  0  0  0
  182.0570  179.0010  139.5390 C   0  0  0  0  0  3  0  0  0  0  0  0
  186.0800  179.1440  140.9600 C   0  0  0  0  0  3  0  0  0  0  0  0
  186.8800  178.0820  141.0130 C   0  0  0  0  0  3  0  0  0  0  0  0
  188.2180  178.1630  141.5270 N   0  0  0  0  0  0  0  0  0  0  0  0
  190.1070  176.6310  140.9940 C   0  0  0  0  0  2  0  0  0  0  0  0
  191.0780  177.0430  138.7070 N   0  0  0  0  0  0  0  0  0  0  0  0
  188.7900  177.8130  139.1640 C   0  0  0  0  0  2  0  0  0  0  0  0
  189.6800  176.9580  138.2650 C   0  0  0  0  0  2  0  0  0  0  0  0
  191.1940  176.2800  139.9620 C   0  0  0  0  0  2  0  0  0  0  0  0
  189.3140  177.8860  140.6030 C   0  0  0  0  0  3  0  0  0  0  0  0
  191.9330  176.4070  137.6860 C   0  0  0  0  0  3  0  0  0  0  0  0
  191.7030  174.9030  137.6350 C   0  0  0  0  0  1  0  0  0  0  0  0
  193.4090  176.6230  137.9930 C   0  0  0  0  0  1  0  0  0  0  0  0
  188.4680  178.2940  142.9670 C   0  0  0  0  0  2  0  0  0  0  0  0
  188.1530  176.9880  143.6900 C   0  0  0  0  0  2  0  0  0  0  0  0
  186.3690  178.2970  146.8320 C   0  0  0  0  0  2  0  0  0  0  0  0
  185.5600  179.3310  146.0700 C   0  0  0  0  0  2  0  0  0  0  0  0
  187.0380  177.1640  144.7090 C   0  0  2  0  0  3  0  0  0  0  0  0
  185.8830  177.8900  144.0650 C   0  0  0  0  0  3  0  0  0  0  0  0
  185.1830  178.8400  144.6990 C   0  0  0  0  0  3  0  0  0  0  0  0
  187.5490  177.8700  145.9700 C   0  0  2  0  0  3  0  0  0  0  0  0
  188.4020  177.0040  146.7070 O   0  0  0  0  0  0  0  0  0  0  0  0
  189.1440  177.4380  147.8070 C   0  0  0  0  0  0  0  0  0  0  0  0
  188.5390  177.8660  148.8230 O   0  0  0  0  0  0  0  0  0  0  0  0
  190.6380  177.3600  147.8300 C   0  0  0  0  0  2  0  0  0  0  0  0
  191.1520  176.3700  146.7970 C   0  0  0  0  0  2  0  0  0  0  0  0
  192.8540  175.6770  148.2610 C   0  0  0  0  0  2  0  0  0  0  0  0
  192.5180  176.0290  147.0780 N   0  0  0  0  0  0  0  0  0  0  0  0
  181.2520  178.5070  141.8600 C   0  0  0  0  0  2  0  0  0  0  0  0
  179.9080  178.9110  141.2780 C   0  0  0  0  0  2  0  0  0  0  0  0
  178.9310  177.7510  141.3720 C   0  0  0  0  0  2  0  0  0  0  0  0
  179.6440  176.4860  141.2880 N   0  0  0  0  0  2  0  0  0  0  0  0
  179.1510  175.7780  140.1200 C   0  0  0  0  0  2  0  0  0  0  0  0
  183.2260  174.7230  137.6640 C   0  0  0  0  0  0  0  0  0  0  0  0
  179.9000  177.0560  136.8570 C   0  0  0  0  0  1  0  0  0  0  0  0
  180.6660  175.7630  137.0610 C   0  0  2  0  0  0  0  0  0  0  0  0
  180.2750  174.9450  139.5050 C   0  0  2  0  0  3  0  0  0  0  0  0
  179.7230  174.6030  136.6800 C   0  0  2  0  0  3  0  0  0  0  0  0
  181.1650  175.7440  138.5490 C   0  0  1  0  0  3  0  0  0  0  0  0
  184.3870  174.2770  137.8440 O   0  0  0  0  0  0  0  0  0  0  0  0
  181.7940  173.3680  136.3780 O   0  0  0  0  0  0  0  0  0  0  0  0
  178.9590  174.0330  137.8760 C   0  0  0  0  0  2  0  0  0  0  0  0
  180.4980  173.5650  135.8570 C   0  0  1  0  0  3  0  0  0  0  0  0
  182.5280  175.3280  138.7030 O   0  0  0  0  0  0  0  0  0  0  0  0
  181.7600  175.7590  136.1570 O   0  0  0  0  0  0  0  0  0  0  0  0
  179.8280  173.7330  138.9380 O   0  0  0  0  0  0  0  0  0  0  0  0
  182.5400  174.5830  136.3570 C   0  0  1  0  0  3  0  0  0  0  0  0
  180.2460  171.1260  136.3700 C   0  0  0  0  0  2  0  0  0  0  0  0
  179.7140  172.2630  135.6210 C   0  0  2  0  0  3  0  0  0  0  0  0
  180.5670  171.2760  134.9410 N   0  0  0  0  0  2  0  0  0  0  0  0
  1  5  1  0  0  0  0
  2  3  1  0  0  0  0
  2 34  1  0  0  0  0
  4  1  2  0  0  0  0
  4  6  1  0  0  0  0
  5  7  1  0  0  0  0
  5  3  2  0  0  0  0
  6  2  2  0  0  0  0
  7  8  2  0  0  0  0
  8  9  1  0  0  0  0
  9 19  1  0  0  0  0
 11 14  1  0  0  0  0
 12 15  1  0  0  0  0
 13 11  1  0  0  0  0
 13 12  1  0  0  0  0
 14 10  1  0  0  0  0
 15 10  1  0  0  0  0
 15  9  1  0  0  0  0
 16 18  1  0  0  0  0
 16 11  1  0  0  0  0
 17 16  1  0  0  0  0
 19 20  1  0  0  0  0
 22 21  1  0  0  0  0
 23 20  1  6  0  0  0
 23 26  1  0  0  0  0
 24 25  2  0  0  0  0
 24 23  1  0  0  0  0
 25 22  1  0  0  0  0
 26 27  1  1  0  0  0
 26 21  1  0  0  0  0
 27 28  1  0  0  0  0
 28 30  1  0  0  0  0
 28 29  2  0  0  0  0
 31 33  1  0  0  0  0
 31 30  1  0  0  0  0
 33 32  2  0  0  0  0
 35 36  1  0  0  0  0
 35 34  1  0  0  0  0
 37 36  1  0  0  0  0
 38 37  1  0  0  0  0
 39 45  2  0  0  0  0
 39 49  1  0  0  0  0
 41 40  1  6  0  0  0
 41 44  1  0  0  0  0
 42 38  1  6  0  0  0
 43 41  1  0  0  0  0
 43 47  1  1  0  0  0
 44 49  1  6  0  0  0
 44 42  1  0  0  0  0
 47 51  1  0  0  0  0
 48 46  1  1  0  0  0
 48 43  1  0  0  0  0
 50 41  1  0  0  0  0
 51 42  1  0  0  0  0
 52 50  1  1  0  0  0
 52 46  1  0  0  0  0
 52 39  1  0  0  0  0
 54 48  1  0  0  0  0
 54 53  1  1  0  0  0
 55 54  1  0  0  0  0
 55 53  1  0  0  0  0
M  END
>  <MODEL>
3

>  <REMARK>
 VINA RESULT:      -7.1      2.808      6.225
  Name = 
  19 active torsions:
  status: ('A' for Active; 'I' for Inactive)
    1  A    between atoms: C_2  and  C_44
    2  A    between atoms: C_4  and  N_37
    3  A    between atoms: C_4  and  C_40
    4  A    between atoms: C_5  and  C_40
    5  A    between atoms: C_5  and  O_45
    6  A    between atoms: C_7  and  C_22
    7  A    between atoms: N_8  and  C_22
    8  A    between atoms: N_8  and  C_43
    9  A    between atoms: C_10  and  N_32
   10  A    between atoms: C_12  and  C_38
   11  A    between atoms: C_16  and  C_36
   12  A    between atoms: C_26  and  O_45
   13  A    between atoms: C_27  and  C_54
   14  A    between atoms: C_28  and  N_49
   15  A    between atoms: C_33  and  C_36
   16  A    between atoms: C_33  and  N_49
   17  A    between atoms: C_43  and  C_51
   18  A    between atoms: N_49  and  C_52
   19  A    between atoms: C_51  and  C_54
                            x       y       z     vdW  Elec       q    Type
                         _______ _______ _______ _____ _____    ______ ____

>  <TORSDO>
F 19

$$$$
=
 OpenBabel10262420223D

 55 61  0  0  1  0  0  0  0  0999 V2000
  190.6050  177.1860  142.8030 C   0  0  0  0  0  3  0  0  0  0  0  0
  188.0830  177.2430  144.0130 C   0  0  0  0  0  0  0  0  0  0  0  0
  188.1950  177.3400  142.6230 C   0  0  0  0  0  3  0  0  0  0  0  0
  190.4950  177.0940  144.1940 C   0  0  0  0  0  3  0  0  0  0  0  0
  189.4520  177.3110  142.0110 C   0  0  0  0  0  0  0  0  0  0  0  0
  189.2330  177.1250  144.7990 C   0  0  0  0  0  3  0  0  0  0  0  0
  189.5180  177.4110  140.5500 C   0  0  0  0  0  3  0  0  0  0  0  0
  190.4470  176.8110  139.8110 C   0  0  0  0  0  3  0  0  0  0  0  0
  190.4790  176.9330  138.3810 N   0  0  0  0  0  0  0  0  0  0  0  0
  192.9120  176.4010  138.3680 C   0  0  0  0  0  2  0  0  0  0  0  0
  193.5150  174.6470  136.6650 N   0  0  0  0  0  0  0  0  0  0  0  0
  191.1860  174.7790  137.4360 C   0  0  0  0  0  2  0  0  0  0  0  0
  192.4180  173.8900  137.2810 C   0  0  0  0  0  2  0  0  0  0  0  0
  194.0220  175.5930  137.6740 C   0  0  0  0  0  2  0  0  0  0  0  0
  191.5540  176.2490  137.6680 C   0  0  0  0  0  3  0  0  0  0  0  0
  194.5960  173.7070  136.3120 C   0  0  0  0  0  3  0  0  0  0  0  0
  195.0080  173.8640  134.8550 C   0  0  0  0  0  1  0  0  0  0  0  0
  194.1490  172.2620  136.4960 C   0  0  0  0  0  1  0  0  0  0  0  0
  189.6070  177.8860  137.6840 C   0  0  0  0  0  2  0  0  0  0  0  0
  189.2830  177.3920  136.2780 C   0  0  0  0  0  2  0  0  0  0  0  0
  185.6220  176.2550  136.0150 C   0  0  0  0  0  2  0  0  0  0  0  0
  185.2020  176.9580  137.2930 C   0  0  0  0  0  2  0  0  0  0  0  0
  187.7950  177.4850  135.9780 C   0  0  2  0  0  3  0  0  0  0  0  0
  187.1540  178.4620  136.9310 C   0  0  0  0  0  3  0  0  0  0  0  0
  185.9560  178.2450  137.4910 C   0  0  0  0  0  3  0  0  0  0  0  0
  187.1370  176.1020  136.0190 C   0  0  2  0  0  3  0  0  0  0  0  0
  187.5500  175.3260  134.9020 O   0  0  0  0  0  0  0  0  0  0  0  0
  188.0150  174.0160  135.0280 C   0  0  0  0  0  0  0  0  0  0  0  0
  189.2230  173.7680  134.7830 O   0  0  0  0  0  0  0  0  0  0  0  0
  187.1260  172.9060  135.4930 C   0  0  0  0  0  2  0  0  0  0  0  0
  187.3760  172.5790  136.9560 C   0  0  0  0  0  2  0  0  0  0  0  0
  185.0840  172.8050  137.4260 C   0  0  0  0  0  2  0  0  0  0  0  0
  186.2910  173.0640  137.7620 N   0  0  0  0  0  0  0  0  0  0  0  0
  186.7370  177.2800  144.6460 C   0  0  0  0  0  2  0  0  0  0  0  0
  186.0150  178.5650  144.2800 C   0  0  0  0  0  2  0  0  0  0  0  0
  184.5990  178.2530  143.8220 C   0  0  0  0  0  2  0  0  0  0  0  0
  184.4780  178.4610  142.3880 N   0  0  0  0  0  2  0  0  0  0  0  0
  183.0630  178.5590  142.0750 C   0  0  0  0  0  2  0  0  0  0  0  0
  180.9930  180.0060  137.9070 C   0  0  0  0  0  0  0  0  0  0  0  0
  179.6610  177.8610  141.1900 C   0  0  0  0  0  1  0  0  0  0  0  0
  180.4560  178.0940  139.9200 C   0  0  2  0  0  0  0  0  0  0  0  0
  182.8800  178.7980  140.5760 C   0  0  2  0  0  3  0  0  0  0  0  0
  181.1100  176.7510  139.5330 C   0  0  2  0  0  3  0  0  0  0  0  0
  181.4670  179.2600  140.2060 C   0  0  1  0  0  3  0  0  0  0  0  0
  181.1510  180.8330  136.9730 O   0  0  0  0  0  0  0  0  0  0  0  0
  181.2030  177.7380  137.3140 O   0  0  0  0  0  0  0  0  0  0  0  0
  182.5300  176.5950  140.0820 C   0  0  0  0  0  2  0  0  0  0  0  0
  180.9780  176.5370  138.0190 C   0  0  1  0  0  3  0  0  0  0  0  0
  181.5420  180.2390  139.1630 O   0  0  0  0  0  0  0  0  0  0  0  0
  179.5430  178.4530  138.8950 O   0  0  0  0  0  0  0  0  0  0  0  0
  183.3170  177.7180  139.7810 O   0  0  0  0  0  0  0  0  0  0  0  0
  180.2590  178.7360  137.6950 C   0  0  1  0  0  3  0  0  0  0  0  0
  182.0030  175.3750  136.0500 C   0  0  0  0  0  2  0  0  0  0  0  0
  181.7940  175.3430  137.4970 C   0  0  2  0  0  3  0  0  0  0  0  0
  180.9610  174.5050  136.6210 N   0  0  0  0  0  2  0  0  0  0  0  0
  1  4  1  0  0  0  0
  2 34  1  0  0  0  0
  2  6  1  0  0  0  0
  3  2  2  0  0  0  0
  4  6  2  0  0  0  0
  5  3  1  0  0  0  0
  5  1  2  0  0  0  0
  7  5  1  0  0  0  0
  8  7  2  0  0  0  0
  9  8  1  0  0  0  0
 11 13  1  0  0  0  0
 11 14  1  0  0  0  0
 12 15  1  0  0  0  0
 13 12  1  0  0  0  0
 14 10  1  0  0  0  0
 15 10  1  0  0  0  0
 15  9  1  0  0  0  0
 16 18  1  0  0  0  0
 16 11  1  0  0  0  0
 17 16  1  0  0  0  0
 19  9  1  0  0  0  0
 20 19  1  0  0  0  0
 21 26  1  0  0  0  0
 21 22  1  0  0  0  0
 22 25  1  0  0  0  0
 23 26  1  0  0  0  0
 23 20  1  1  0  0  0
 23 24  1  0  0  0  0
 24 25  2  0  0  0  0
 26 27  1  6  0  0  0
 27 28  1  0  0  0  0
 28 30  1  0  0  0  0
 29 28  2  0  0  0  0
 30 31  1  0  0  0  0
 31 33  1  0  0  0  0
 32 33  2  0  0  0  0
 35 34  1  0  0  0  0
 36 35  1  0  0  0  0
 37 36  1  0  0  0  0
 38 37  1  0  0  0  0
 39 49  1  0  0  0  0
 41 44  1  0  0  0  0
 41 40  1  1  0  0  0
 42 38  1  1  0  0  0
 43 41  1  0  0  0  0
 43 47  1  6  0  0  0
 44 49  1  6  0  0  0
 44 42  1  0  0  0  0
 45 39  2  0  0  0  0
 48 46  1  6  0  0  0
 48 43  1  0  0  0  0
 50 41  1  0  0  0  0
 51 47  1  0  0  0  0
 51 42  1  0  0  0  0
 52 46  1  1  0  0  0
 52 39  1  0  0  0  0
 52 50  1  0  0  0  0
 53 55  1  0  0  0  0
 54 53  1  6  0  0  0
 54 48  1  0  0  0  0
 55 54  1  0  0  0  0
M  END
>  <MODEL>
4

>  <REMARK>
 VINA RESULT:      -6.9      2.289      6.205
  Name = 
  19 active torsions:
  status: ('A' for Active; 'I' for Inactive)
    1  A    between atoms: C_2  and  C_44
    2  A    between atoms: C_4  and  N_37
    3  A    between atoms: C_4  and  C_40
    4  A    between atoms: C_5  and  C_40
    5  A    between atoms: C_5  and  O_45
    6  A    between atoms: C_7  and  C_22
    7  A    between atoms: N_8  and  C_22
    8  A    between atoms: N_8  and  C_43
    9  A    between atoms: C_10  and  N_32
   10  A    between atoms: C_12  and  C_38
   11  A    between atoms: C_16  and  C_36
   12  A    between atoms: C_26  and  O_45
   13  A    between atoms: C_27  and  C_54
   14  A    between atoms: C_28  and  N_49
   15  A    between atoms: C_33  and  C_36
   16  A    between atoms: C_33  and  N_49
   17  A    between atoms: C_43  and  C_51
   18  A    between atoms: N_49  and  C_52
   19  A    between atoms: C_51  and  C_54
                            x       y       z     vdW  Elec       q    Type
                         _______ _______ _______ _____ _____    ______ ____

>  <TORSDO>
F 19

$$$$
=
 OpenBabel10262420223D

 55 61  0  0  1  0  0  0  0  0999 V2000
  184.6200  178.6750  144.3680 C   0  0  0  0  0  3  0  0  0  0  0  0
  182.9320  178.6850  142.1380 C   0  0  0  0  0  0  0  0  0  0  0  0
  184.2670  178.2940  142.0030 C   0  0  0  0  0  3  0  0  0  0  0  0
  183.2860  179.0720  144.5030 C   0  0  0  0  0  3  0  0  0  0  0  0
  185.1160  178.2850  143.1150 C   0  0  0  0  0  0  0  0  0  0  0  0
  182.4420  179.0790  143.3870 C   0  0  0  0  0  3  0  0  0  0  0  0
  186.5080  177.8620  142.9240 C   0  0  0  0  0  3  0  0  0  0  0  0
  187.2680  178.2680  141.9110 C   0  0  0  0  0  3  0  0  0  0  0  0
  188.6270  177.8310  141.7590 N   0  0  0  0  0  0  0  0  0  0  0  0
  190.3410  176.2370  142.6090 C   0  0  0  0  0  2  0  0  0  0  0  0
  190.9360  176.6430  145.0220 N   0  0  0  0  0  0  0  0  0  0  0  0
  189.9280  178.4800  143.7390 C   0  0  0  0  0  2  0  0  0  0  0  0
  191.1180  178.0330  144.5840 C   0  0  0  0  0  2  0  0  0  0  0  0
  191.1340  175.7780  143.8460 C   0  0  0  0  0  2  0  0  0  0  0  0
  189.3100  177.3230  142.9450 C   0  0  0  0  0  3  0  0  0  0  0  0
  191.9720  176.3260  146.0230 C   0  0  0  0  0  3  0  0  0  0  0  0
  192.3840  174.8620  145.9440 C   0  0  0  0  0  1  0  0  0  0  0  0
  191.4630  176.5700  147.4380 C   0  0  0  0  0  1  0  0  0  0  0  0
  189.3720  178.0950  140.5230 C   0  0  0  0  0  2  0  0  0  0  0  0
  188.9230  177.1540  139.4100 C   0  0  0  0  0  2  0  0  0  0  0  0
  189.1930  177.4590  135.5890 C   0  0  0  0  0  2  0  0  0  0  0  0
  187.6950  177.6090  135.3900 C   0  0  0  0  0  2  0  0  0  0  0  0
  188.9670  177.8300  138.0480 C   0  0  2  0  0  3  0  0  0  0  0  0
  187.6150  178.4230  137.7420 C   0  0  0  0  0  3  0  0  0  0  0  0
  187.0590  178.3650  136.5240 C   0  0  0  0  0  3  0  0  0  0  0  0
  189.4430  176.8560  136.9640 C   0  0  2  0  0  3  0  0  0  0  0  0
  190.8260  176.5750  137.1280 O   0  0  0  0  0  0  0  0  0  0  0  0
  191.3290  175.2740  137.1700 C   0  0  0  0  0  0  0  0  0  0  0  0
  190.8360  174.4520  137.9850 O   0  0  0  0  0  0  0  0  0  0  0  0
  192.4040  174.8140  136.2370 C   0  0  0  0  0  2  0  0  0  0  0  0
  193.2710  173.7450  136.8810 C   0  0  0  0  0  2  0  0  0  0  0  0
  195.3080  174.8990  136.6740 C   0  0  0  0  0  2  0  0  0  0  0  0
  194.6220  173.8520  136.4060 N   0  0  0  0  0  0  0  0  0  0  0  0
  182.0450  178.6920  140.9430 C   0  0  0  0  0  2  0  0  0  0  0  0
  180.7570  177.9430  141.2340 C   0  0  0  0  0  2  0  0  0  0  0  0
  180.2760  177.2300  139.9800 C   0  0  0  0  0  2  0  0  0  0  0  0
  180.1410  178.1760  138.8850 N   0  0  0  0  0  2  0  0  0  0  0  0
  180.2240  177.4290  137.6430 C   0  0  0  0  0  2  0  0  0  0  0  0
  183.7930  174.1180  137.4020 C   0  0  0  0  0  0  0  0  0  0  0  0
  181.8420  176.4580  134.5960 C   0  0  0  0  0  1  0  0  0  0  0  0
  181.9800  175.3310  135.6010 C   0  0  2  0  0  0  0  0  0  0  0  0
  180.9800  176.1200  137.8750 C   0  0  2  0  0  3  0  0  0  0  0  0
  180.7040  174.4700  135.5080 C   0  0  2  0  0  3  0  0  0  0  0  0
  182.2330  175.9840  137.0060 C   0  0  1  0  0  3  0  0  0  0  0  0
  184.6370  173.5370  138.1290 O   0  0  0  0  0  0  0  0  0  0  0  0
  182.1110  172.7480  136.4880 O   0  0  0  0  0  0  0  0  0  0  0  0
  179.6270  174.8830  136.5120 C   0  0  0  0  0  2  0  0  0  0  0  0
  181.0870  172.9840  135.5480 C   0  0  1  0  0  3  0  0  0  0  0  0
  183.2750  175.3570  137.7630 O   0  0  0  0  0  0  0  0  0  0  0  0
  183.0840  174.5300  135.2060 O   0  0  0  0  0  0  0  0  0  0  0  0
  180.1540  174.9790  137.8110 O   0  0  0  0  0  0  0  0  0  0  0  0
  183.2840  173.4890  136.1600 C   0  0  1  0  0  3  0  0  0  0  0  0
  179.8100  171.3860  136.9950 C   0  0  0  0  0  2  0  0  0  0  0  0
  179.8770  172.0450  135.6910 C   0  0  2  0  0  3  0  0  0  0  0  0
  180.3320  170.6530  135.8290 N   0  0  0  0  0  2  0  0  0  0  0  0
  1  4  1  0  0  0  0
  2  6  1  0  0  0  0
  3  2  2  0  0  0  0
  3  5  1  0  0  0  0
  5  1  2  0  0  0  0
  6  4  2  0  0  0  0
  7  5  1  0  0  0  0
  8  7  2  0  0  0  0
  9  8  1  0  0  0  0
  9 15  1  0  0  0  0
 10 15  1  0  0  0  0
 10 14  1  0  0  0  0
 11 16  1  0  0  0  0
 12 13  1  0  0  0  0
 13 11  1  0  0  0  0
 14 11  1  0  0  0  0
 15 12  1  0  0  0  0
 16 18  1  0  0  0  0
 17 16  1  0  0  0  0
 19  9  1  0  0  0  0
 20 19  1  0  0  0  0
 21 26  1  0  0  0  0
 22 21  1  0  0  0  0
 22 25  1  0  0  0  0
 23 20  1  1  0  0  0
 24 23  1  0  0  0  0
 25 24  2  0  0  0  0
 26 27  1  1  0  0  0
 26 23  1  0  0  0  0
 27 28  1  0  0  0  0
 28 29  2  0  0  0  0
 30 31  1  0  0  0  0
 30 28  1  0  0  0  0
 33 32  2  0  0  0  0
 33 31  1  0  0  0  0
 34 35  1  0  0  0  0
 34  2  1  0  0  0  0
 36 35  1  0  0  0  0
 37 36  1  0  0  0  0
 38 37  1  0  0  0  0
 39 49  1  0  0  0  0
 39 45  2  0  0  0  0
 41 40  1  6  0  0  0
 41 44  1  0  0  0  0
 42 38  1  6  0  0  0
 43 48  1  0  0  0  0
 43 41  1  0  0  0  0
 43 47  1  1  0  0  0
 44 49  1  1  0  0  0
 44 42  1  0  0  0  0
 47 51  1  0  0  0  0
 48 54  1  0  0  0  0
 48 46  1  1  0  0  0
 50 41  1  0  0  0  0
 51 42  1  0  0  0  0
 52 50  1  6  0  0  0
 52 46  1  0  0  0  0
 52 39  1  0  0  0  0
 54 55  1  0  0  0  0
 54 53  1  1  0  0  0
 55 53  1  0  0  0  0
M  END
>  <MODEL>
5

>  <REMARK>
 VINA RESULT:      -6.9      1.917      2.581
  Name = 
  19 active torsions:
  status: ('A' for Active; 'I' for Inactive)
    1  A    between atoms: C_2  and  C_44
    2  A    between atoms: C_4  and  N_37
    3  A    between atoms: C_4  and  C_40
    4  A    between atoms: C_5  and  C_40
    5  A    between atoms: C_5  and  O_45
    6  A    between atoms: C_7  and  C_22
    7  A    between atoms: N_8  and  C_22
    8  A    between atoms: N_8  and  C_43
    9  A    between atoms: C_10  and  N_32
   10  A    between atoms: C_12  and  C_38
   11  A    between atoms: C_16  and  C_36
   12  A    between atoms: C_26  and  O_45
   13  A    between atoms: C_27  and  C_54
   14  A    between atoms: C_28  and  N_49
   15  A    between atoms: C_33  and  C_36
   16  A    between atoms: C_33  and  N_49
   17  A    between atoms: C_43  and  C_51
   18  A    between atoms: N_49  and  C_52
   19  A    between atoms: C_51  and  C_54
                            x       y       z     vdW  Elec       q    Type
                         _______ _______ _______ _____ _____    ______ ____

>  <TORSDO>
F 19

$$$$
=
 OpenBabel10262420223D

 55 61  0  0  1  0  0  0  0  0999 V2000
  184.2230  178.6590  144.0790 C   0  0  0  0  0  3  0  0  0  0  0  0
  182.0730  178.6710  142.2890 C   0  0  0  0  0  0  0  0  0  0  0  0
  183.3540  178.3320  141.8430 C   0  0  0  0  0  3  0  0  0  0  0  0
  182.9430  179.0050  144.5250 C   0  0  0  0  0  3  0  0  0  0  0  0
  184.4330  178.3220  142.7330 C   0  0  0  0  0  0  0  0  0  0  0  0
  181.8680  179.0130  143.6290 C   0  0  0  0  0  3  0  0  0  0  0  0
  185.7560  177.9540  142.2190 C   0  0  0  0  0  3  0  0  0  0  0  0
  186.4980  178.7530  141.4560 C   0  0  0  0  0  3  0  0  0  0  0  0
  187.7890  178.3570  140.9710 N   0  0  0  0  0  0  0  0  0  0  0  0
  189.2290  177.5780  139.0940 C   0  0  0  0  0  2  0  0  0  0  0  0
  188.2410  178.0890  136.8340 N   0  0  0  0  0  0  0  0  0  0  0  0
  186.7400  178.0090  138.7780 C   0  0  0  0  0  2  0  0  0  0  0  0
  187.0370  177.4540  137.3870 C   0  0  0  0  0  2  0  0  0  0  0  0
  189.4010  177.5490  137.5650 C   0  0  0  0  0  2  0  0  0  0  0  0
  188.0150  178.4100  139.5290 C   0  0  0  0  0  3  0  0  0  0  0  0
  188.3610  177.7130  135.4130 C   0  0  0  0  0  3  0  0  0  0  0  0
  187.3050  176.6870  135.0240 C   0  0  0  0  0  1  0  0  0  0  0  0
  189.7180  177.0870  135.1210 C   0  0  0  0  0  1  0  0  0  0  0  0
  188.7640  177.7110  141.8580 C   0  0  0  0  0  2  0  0  0  0  0  0
  189.1930  178.6610  142.9710 C   0  0  0  0  0  2  0  0  0  0  0  0
  191.1580  176.3870  145.3670 C   0  0  0  0  0  2  0  0  0  0  0  0
  191.7580  175.5530  144.2500 C   0  0  0  0  0  2  0  0  0  0  0  0
  190.3880  178.1210  143.7420 C   0  0  2  0  0  3  0  0  0  0  0  0
  191.3770  177.5220  142.7750 C   0  0  0  0  0  3  0  0  0  0  0  0
  192.0350  176.3820  143.0260 C   0  0  0  0  0  3  0  0  0  0  0  0
  189.9440  177.1280  144.8220 C   0  0  2  0  0  3  0  0  0  0  0  0
  189.2780  177.8110  145.8750 O   0  0  0  0  0  0  0  0  0  0  0  0
  189.4320  177.4570  147.2170 C   0  0  0  0  0  0  0  0  0  0  0  0
  190.5740  177.5200  147.7390 O   0  0  0  0  0  0  0  0  0  0  0  0
  188.2670  177.0530  148.0640 C   0  0  0  0  0  2  0  0  0  0  0  0
  187.5610  178.2680  148.6430 C   0  0  0  0  0  2  0  0  0  0  0  0
  185.6860  178.3960  147.2310 C   0  0  0  0  0  2  0  0  0  0  0  0
  186.7860  178.9190  147.6240 N   0  0  0  0  0  0  0  0  0  0  0  0
  180.9390  178.6800  141.3260 C   0  0  0  0  0  2  0  0  0  0  0  0
  181.4080  179.1470  139.9590 C   0  0  0  0  0  2  0  0  0  0  0  0
  180.8100  178.2640  138.8750 C   0  0  0  0  0  2  0  0  0  0  0  0
  180.8750  176.8670  139.2730 N   0  0  0  0  0  2  0  0  0  0  0  0
  180.6100  176.0600  138.0950 C   0  0  0  0  0  2  0  0  0  0  0  0
  184.7770  173.6190  137.4390 C   0  0  0  0  0  0  0  0  0  0  0  0
  182.6820  176.3970  135.1910 C   0  0  0  0  0  1  0  0  0  0  0  0
  182.9450  175.0430  135.8210 C   0  0  2  0  0  0  0  0  0  0  0  0
  181.5860  174.8850  138.0410 C   0  0  2  0  0  3  0  0  0  0  0  0
  181.8820  174.0670  135.2760 C   0  0  2  0  0  3  0  0  0  0  0  0
  182.9210  175.2380  137.3790 C   0  0  1  0  0  3  0  0  0  0  0  0
  185.6450  172.9770  138.0820 O   0  0  0  0  0  0  0  0  0  0  0  0
  183.5030  172.3680  135.9050 O   0  0  0  0  0  0  0  0  0  0  0  0
  180.6510  173.9550  136.1760 C   0  0  0  0  0  2  0  0  0  0  0  0
  182.5500  172.7280  134.9290 C   0  0  1  0  0  3  0  0  0  0  0  0
  183.9880  174.5750  138.0670 O   0  0  0  0  0  0  0  0  0  0  0  0
  184.2200  174.6000  135.3840 O   0  0  0  0  0  0  0  0  0  0  0  0
  181.0170  173.7090  137.5100 O   0  0  0  0  0  0  0  0  0  0  0  0
  184.5290  173.3520  136.0020 C   0  0  1  0  0  3  0  0  0  0  0  0
  181.2950  170.7070  135.7130 C   0  0  0  0  0  2  0  0  0  0  0  0
  181.5460  171.6130  134.5940 C   0  0  2  0  0  3  0  0  0  0  0  0
  182.2130  170.3030  134.6350 N   0  0  0  0  0  2  0  0  0  0  0  0
  1  4  1  0  0  0  0
  2  6  1  0  0  0  0
  3  2  2  0  0  0  0
  3  5  1  0  0  0  0
  5  1  2  0  0  0  0
  6  4  2  0  0  0  0
  7  5  1  0  0  0  0
  8  7  2  0  0  0  0
  9  8  1  0  0  0  0
  9 19  1  0  0  0  0
 10 15  1  0  0  0  0
 11 13  1  0  0  0  0
 11 14  1  0  0  0  0
 12 15  1  0  0  0  0
 13 12  1  0  0  0  0
 14 10  1  0  0  0  0
 15  9  1  0  0  0  0
 16 11  1  0  0  0  0
 17 16  1  0  0  0  0
 18 16  1  0  0  0  0
 19 20  1  0  0  0  0
 22 21  1  0  0  0  0
 23 20  1  6  0  0  0
 23 26  1  0  0  0  0
 24 25  2  0  0  0  0
 24 23  1  0  0  0  0
 25 22  1  0  0  0  0
 26 21  1  0  0  0  0
 26 27  1  1  0  0  0
 27 28  1  0  0  0  0
 28 29  2  0  0  0  0
 28 30  1  0  0  0  0
 30 31  1  0  0  0  0
 32 33  2  0  0  0  0
 33 31  1  0  0  0  0
 34  2  1  0  0  0  0
 35 34  1  0  0  0  0
 36 37  1  0  0  0  0
 36 35  1  0  0  0  0
 38 37  1  0  0  0  0
 39 49  1  0  0  0  0
 39 45  2  0  0  0  0
 41 40  1  6  0  0  0
 41 44  1  0  0  0  0
 42 38  1  6  0  0  0
 43 41  1  0  0  0  0
 43 47  1  1  0  0  0
 44 42  1  0  0  0  0
 44 49  1  1  0  0  0
 46 52  1  0  0  0  0
 47 51  1  0  0  0  0
 48 43  1  0  0  0  0
 48 46  1  1  0  0  0
 50 41  1  0  0  0  0
 51 42  1  0  0  0  0
 52 50  1  6  0  0  0
 52 39  1  0  0  0  0
 54 55  1  0  0  0  0
 54 48  1  0  0  0  0
 54 53  1  1  0  0  0
 55 53  1  0  0  0  0
M  END
>  <MODEL>
6

>  <REMARK>
 VINA RESULT:      -6.9      2.993      6.489
  Name = 
  19 active torsions:
  status: ('A' for Active; 'I' for Inactive)
    1  A    between atoms: C_2  and  C_44
    2  A    between atoms: C_4  and  N_37
    3  A    between atoms: C_4  and  C_40
    4  A    between atoms: C_5  and  C_40
    5  A    between atoms: C_5  and  O_45
    6  A    between atoms: C_7  and  C_22
    7  A    between atoms: N_8  and  C_22
    8  A    between atoms: N_8  and  C_43
    9  A    between atoms: C_10  and  N_32
   10  A    between atoms: C_12  and  C_38
   11  A    between atoms: C_16  and  C_36
   12  A    between atoms: C_26  and  O_45
   13  A    between atoms: C_27  and  C_54
   14  A    between atoms: C_28  and  N_49
   15  A    between atoms: C_33  and  C_36
   16  A    between atoms: C_33  and  N_49
   17  A    between atoms: C_43  and  C_51
   18  A    between atoms: N_49  and  C_52
   19  A    between atoms: C_51  and  C_54
                            x       y       z     vdW  Elec       q    Type
                         _______ _______ _______ _____ _____    ______ ____

>  <TORSDO>
F 19

$$$$
=
 OpenBabel10262420223D

 55 61  0  0  1  0  0  0  0  0999 V2000
  185.4850  178.5300  145.0760 C   0  0  0  0  0  3  0  0  0  0  0  0
  184.1860  178.4580  142.5990 C   0  0  0  0  0  0  0  0  0  0  0  0
  185.5130  178.0310  142.7070 C   0  0  0  0  0  3  0  0  0  0  0  0
  184.1600  178.9640  144.9680 C   0  0  0  0  0  3  0  0  0  0  0  0
  186.1680  178.0620  143.9420 C   0  0  0  0  0  0  0  0  0  0  0  0
  183.5110  178.9300  143.7290 C   0  0  0  0  0  3  0  0  0  0  0  0
  187.5570  177.5980  144.0050 C   0  0  0  0  0  3  0  0  0  0  0  0
  188.5560  178.1710  143.3380 C   0  0  0  0  0  3  0  0  0  0  0  0
  189.9050  177.6870  143.4260 N   0  0  0  0  0  0  0  0  0  0  0  0
  189.4700  177.2660  145.8420 C   0  0  0  0  0  2  0  0  0  0  0  0
  191.5860  176.9580  147.1710 N   0  0  0  0  0  0  0  0  0  0  0  0
  191.6650  176.5920  144.7430 C   0  0  0  0  0  2  0  0  0  0  0  0
  191.9240  175.9880  146.1210 C   0  0  0  0  0  2  0  0  0  0  0  0
  190.1170  177.0620  147.2230 C   0  0  0  0  0  2  0  0  0  0  0  0
  190.5030  177.5920  144.7540 C   0  0  0  0  0  3  0  0  0  0  0  0
  192.0690  176.4370  148.4650 C   0  0  0  0  0  3  0  0  0  0  0  0
  192.8410  177.5010  149.2320 C   0  0  0  0  0  1  0  0  0  0  0  0
  193.0130  175.2580  148.2650 C   0  0  0  0  0  1  0  0  0  0  0  0
  190.7250  177.5120  142.2220 C   0  0  0  0  0  2  0  0  0  0  0  0
  189.9440  176.7740  141.1390 C   0  0  0  0  0  2  0  0  0  0  0  0
  189.8550  177.0640  137.3080 C   0  0  0  0  0  2  0  0  0  0  0  0
  188.6610  178.0020  137.3020 C   0  0  0  0  0  2  0  0  0  0  0  0
  190.1730  177.3840  139.7650 C   0  0  2  0  0  3  0  0  0  0  0  0
  189.3250  178.6220  139.6200 C   0  0  0  0  0  3  0  0  0  0  0  0
  188.6780  178.9270  138.4880 C   0  0  0  0  0  3  0  0  0  0  0  0
  189.9130  176.3580  138.6560 C   0  0  2  0  0  3  0  0  0  0  0  0
  190.9370  175.3730  138.6460 O   0  0  0  0  0  0  0  0  0  0  0  0
  191.0870  174.4540  137.6060 C   0  0  0  0  0  0  0  0  0  0  0  0
  190.1670  173.6250  137.3850 O   0  0  0  0  0  0  0  0  0  0  0  0
  192.2880  174.4620  136.7140 C   0  0  0  0  0  2  0  0  0  0  0  0
  193.5730  174.4490  137.5250 C   0  0  0  0  0  2  0  0  0  0  0  0
  194.5400  176.0370  136.0880 C   0  0  0  0  0  2  0  0  0  0  0  0
  194.3180  175.6540  137.2880 N   0  0  0  0  0  0  0  0  0  0  0  0
  183.5080  178.4210  141.2750 C   0  0  0  0  0  2  0  0  0  0  0  0
  184.2460  179.2960  140.2770 C   0  0  0  0  0  2  0  0  0  0  0  0
  185.0380  178.4290  139.3110 C   0  0  0  0  0  2  0  0  0  0  0  0
  184.3550  178.3520  138.0300 N   0  0  0  0  0  2  0  0  0  0  0  0
  185.0540  177.3730  137.2160 C   0  0  0  0  0  2  0  0  0  0  0  0
  180.8080  175.6580  135.5480 C   0  0  0  0  0  0  0  0  0  0  0  0
  182.6950  175.5830  139.2340 C   0  0  0  0  0  1  0  0  0  0  0  0
  182.4810  175.2020  137.7820 C   0  0  2  0  0  0  0  0  0  0  0  0
  184.0610  176.6550  136.3020 C   0  0  2  0  0  3  0  0  0  0  0  0
  183.4670  174.0620  137.4540 C   0  0  2  0  0  3  0  0  0  0  0  0
  182.6700  176.5020  136.9240 C   0  0  1  0  0  3  0  0  0  0  0  0
  180.0030  175.8030  134.5940 O   0  0  0  0  0  0  0  0  0  0  0  0
  181.8970  173.5750  135.6640 O   0  0  0  0  0  0  0  0  0  0  0  0
  184.7840  174.5600  136.8570 C   0  0  0  0  0  2  0  0  0  0  0  0
  182.7480  172.9890  136.6240 C   0  0  1  0  0  3  0  0  0  0  0  0
  181.6710  176.6850  135.9130 O   0  0  0  0  0  0  0  0  0  0  0  0
  181.1610  174.6960  137.6560 O   0  0  0  0  0  0  0  0  0  0  0  0
  184.5560  175.4390  135.7860 O   0  0  0  0  0  0  0  0  0  0  0  0
  180.9000  174.3790  136.2900 C   0  0  1  0  0  3  0  0  0  0  0  0
  183.0270  170.9700  135.1670 C   0  0  0  0  0  2  0  0  0  0  0  0
  183.6960  171.9220  136.0520 C   0  0  2  0  0  3  0  0  0  0  0  0
  183.3250  170.5920  136.5580 N   0  0  0  0  0  2  0  0  0  0  0  0
  2  3  2  0  0  0  0
  2  6  1  0  0  0  0
  3  5  1  0  0  0  0
  4  1  1  0  0  0  0
  5  7  1  0  0  0  0
  5  1  2  0  0  0  0
  6  4  2  0  0  0  0
  8  9  1  0  0  0  0
  8  7  2  0  0  0  0
  9 15  1  0  0  0  0
 10 14  1  0  0  0  0
 11 14  1  0  0  0  0
 11 16  1  0  0  0  0
 12 15  1  0  0  0  0
 12 13  1  0  0  0  0
 13 11  1  0  0  0  0
 15 10  1  0  0  0  0
 16 17  1  0  0  0  0
 18 16  1  0  0  0  0
 19  9  1  0  0  0  0
 20 19  1  0  0  0  0
 21 26  1  0  0  0  0
 22 21  1  0  0  0  0
 22 25  1  0  0  0  0
 23 20  1  1  0  0  0
 24 23  1  0  0  0  0
 25 24  2  0  0  0  0
 26 27  1  6  0  0  0
 26 23  1  0  0  0  0
 28 27  1  0  0  0  0
 29 28  2  0  0  0  0
 30 31  1  0  0  0  0
 30 28  1  0  0  0  0
 32 33  2  0  0  0  0
 33 31  1  0  0  0  0
 34  2  1  0  0  0  0
 35 34  1  0  0  0  0
 36 35  1  0  0  0  0
 37 36  1  0  0  0  0
 38 37  1  0  0  0  0
 39 49  1  0  0  0  0
 41 40  1  1  0  0  0
 42 44  1  0  0  0  0
 42 38  1  1  0  0  0
 43 47  1  6  0  0  0
 43 41  1  0  0  0  0
 44 49  1  6  0  0  0
 44 41  1  0  0  0  0
 45 39  2  0  0  0  0
 46 52  1  0  0  0  0
 48 46  1  6  0  0  0
 48 43  1  0  0  0  0
 50 41  1  0  0  0  0
 51 42  1  0  0  0  0
 51 47  1  0  0  0  0
 52 39  1  6  0  0  0
 52 50  1  0  0  0  0
 53 55  1  0  0  0  0
 54 53  1  6  0  0  0
 54 55  1  0  0  0  0
 54 48  1  0  0  0  0
M  END
>  <MODEL>
7

>  <REMARK>
 VINA RESULT:      -6.8      1.921      3.168
  Name = 
  19 active torsions:
  status: ('A' for Active; 'I' for Inactive)
    1  A    between atoms: C_2  and  C_44
    2  A    between atoms: C_4  and  N_37
    3  A    between atoms: C_4  and  C_40
    4  A    between atoms: C_5  and  C_40
    5  A    between atoms: C_5  and  O_45
    6  A    between atoms: C_7  and  C_22
    7  A    between atoms: N_8  and  C_22
    8  A    between atoms: N_8  and  C_43
    9  A    between atoms: C_10  and  N_32
   10  A    between atoms: C_12  and  C_38
   11  A    between atoms: C_16  and  C_36
   12  A    between atoms: C_26  and  O_45
   13  A    between atoms: C_27  and  C_54
   14  A    between atoms: C_28  and  N_49
   15  A    between atoms: C_33  and  C_36
   16  A    between atoms: C_33  and  N_49
   17  A    between atoms: C_43  and  C_51
   18  A    between atoms: N_49  and  C_52
   19  A    between atoms: C_51  and  C_54
                            x       y       z     vdW  Elec       q    Type
                         _______ _______ _______ _____ _____    ______ ____

>  <TORSDO>
F 19

$$$$
=
 OpenBabel10262420223D

 55 61  0  0  1  0  0  0  0  0999 V2000
  181.1400  178.9190  142.7830 C   0  0  0  0  0  3  0  0  0  0  0  0
  183.7620  178.5820  143.6950 C   0  0  0  0  0  0  0  0  0  0  0  0
  183.5050  178.6840  142.3250 C   0  0  0  0  0  3  0  0  0  0  0  0
  181.3940  178.8110  144.1540 C   0  0  0  0  0  3  0  0  0  0  0  0
  182.1970  178.8550  141.8620 C   0  0  0  0  0  0  0  0  0  0  0  0
  182.7060  178.6390  144.6100 C   0  0  0  0  0  3  0  0  0  0  0  0
  181.9790  178.9630  140.4160 C   0  0  0  0  0  3  0  0  0  0  0  0
  180.7940  179.2190  139.8670 C   0  0  0  0  0  3  0  0  0  0  0  0
  180.6200  179.3170  138.4450 N   0  0  0  0  0  0  0  0  0  0  0  0
  180.0880  181.7010  138.9340 C   0  0  0  0  0  2  0  0  0  0  0  0
  179.3960  182.9830  136.8800 N   0  0  0  0  0  0  0  0  0  0  0  0
  180.7040  180.9230  136.5890 C   0  0  0  0  0  2  0  0  0  0  0  0
  180.6230  182.4210  136.3010 C   0  0  0  0  0  2  0  0  0  0  0  0
  179.5730  183.0250  138.3420 C   0  0  0  0  0  2  0  0  0  0  0  0
  180.0390  180.5490  137.9200 C   0  0  0  0  0  3  0  0  0  0  0  0
  179.2310  184.3620  136.3830 C   0  0  0  0  0  3  0  0  0  0  0  0
  180.1690  184.6430  135.2170 C   0  0  0  0  0  1  0  0  0  0  0  0
  179.5540  185.3800  137.4700 C   0  0  0  0  0  1  0  0  0  0  0  0
  180.8040  178.1470  137.5790 C   0  0  0  0  0  2  0  0  0  0  0  0
  182.0350  178.3190  136.6940 C   0  0  0  0  0  2  0  0  0  0  0  0
  183.7520  175.0580  137.7840 C   0  0  0  0  0  2  0  0  0  0  0  0
  182.5980  174.1780  137.3370 C   0  0  0  0  0  2  0  0  0  0  0  0
  182.8140  177.0200  136.5550 C   0  0  2  0  0  3  0  0  0  0  0  0
  181.9890  176.0240  135.7800 C   0  0  0  0  0  3  0  0  0  0  0  0
  181.9280  174.7260  136.1060 C   0  0  0  0  0  3  0  0  0  0  0  0
  183.2470  176.4880  137.9260 C   0  0  2  0  0  3  0  0  0  0  0  0
  184.2670  177.3120  138.4740 O   0  0  0  0  0  0  0  0  0  0  0  0
  185.4250  177.6430  137.7690 C   0  0  0  0  0  0  0  0  0  0  0  0
  186.1070  178.6330  138.1420 O   0  0  0  0  0  0  0  0  0  0  0  0
  185.9060  176.8250  136.6130 C   0  0  0  0  0  2  0  0  0  0  0  0
  187.2470  176.1790  136.9170 C   0  0  0  0  0  2  0  0  0  0  0  0
  188.5760  175.5490  135.0840 C   0  0  0  0  0  2  0  0  0  0  0  0
  188.1870  176.4780  135.8720 N   0  0  0  0  0  0  0  0  0  0  0  0
  185.1610  178.3960  144.1680 C   0  0  0  0  0  2  0  0  0  0  0  0
  185.3360  178.9910  145.5540 C   0  0  0  0  0  2  0  0  0  0  0  0
  185.7090  177.9010  146.5450 C   0  0  0  0  0  2  0  0  0  0  0  0
  187.1550  177.7800  146.6380 N   0  0  0  0  0  2  0  0  0  0  0  0
  187.7180  178.2520  145.3860 C   0  0  0  0  0  2  0  0  0  0  0  0
  191.6890  175.7130  144.1450 C   0  0  0  0  0  0  0  0  0  0  0  0
  190.6800  179.7280  144.0110 C   0  0  0  0  0  1  0  0  0  0  0  0
  190.6210  178.2730  143.5890 C   0  0  2  0  0  0  0  0  0  0  0  0
  188.5750  177.1550  144.7550 C   0  0  2  0  0  3  0  0  0  0  0  0
  189.7500  178.1960  142.3190 C   0  0  2  0  0  3  0  0  0  0  0  0
  190.0760  177.4530  144.8120 C   0  0  1  0  0  3  0  0  0  0  0  0
  192.2390  174.6010  144.3430 O   0  0  0  0  0  0  0  0  0  0  0  0
  190.9420  176.1100  141.9480 O   0  0  0  0  0  0  0  0  0  0  0  0
  188.2800  177.8980  142.6160 C   0  0  0  0  0  2  0  0  0  0  0  0
  190.4080  177.2470  141.3060 C   0  0  1  0  0  3  0  0  0  0  0  0
  190.7950  176.2410  145.0700 O   0  0  0  0  0  0  0  0  0  0  0  0
  191.9370  177.8650  143.2500 O   0  0  0  0  0  0  0  0  0  0  0  0
  188.1480  176.7860  143.4630 O   0  0  0  0  0  0  0  0  0  0  0  0
  191.9340  176.4830  142.9010 C   0  0  1  0  0  3  0  0  0  0  0  0
  190.2580  176.4620  138.9320 C   0  0  0  0  0  2  0  0  0  0  0  0
  189.5100  176.9220  140.1010 C   0  0  2  0  0  3  0  0  0  0  0  0
  189.7880  177.8550  138.9980 N   0  0  0  0  0  2  0  0  0  0  0  0
  1  4  1  0  0  0  0
  2 34  1  0  0  0  0
  2  6  1  0  0  0  0
  3  2  2  0  0  0  0
  4  6  2  0  0  0  0
  5  3  1  0  0  0  0
  5  1  2  0  0  0  0
  7  5  1  0  0  0  0
  8  7  2  0  0  0  0
  9  8  1  0  0  0  0
 11 14  1  0  0  0  0
 12 15  1  0  0  0  0
 13 12  1  0  0  0  0
 13 11  1  0  0  0  0
 14 10  1  0  0  0  0
 15  9  1  0  0  0  0
 15 10  1  0  0  0  0
 16 11  1  0  0  0  0
 16 18  1  0  0  0  0
 17 16  1  0  0  0  0
 19  9  1  0  0  0  0
 20 19  1  0  0  0  0
 21 26  1  0  0  0  0
 22 21  1  0  0  0  0
 23 20  1  1  0  0  0
 23 26  1  0  0  0  0
 24 25  2  0  0  0  0
 24 23  1  0  0  0  0
 25 22  1  0  0  0  0
 26 27  1  6  0  0  0
 28 29  2  0  0  0  0
 28 27  1  0  0  0  0
 30 31  1  0  0  0  0
 30 28  1  0  0  0  0
 32 33  2  0  0  0  0
 33 31  1  0  0  0  0
 34 35  1  0  0  0  0
 35 36  1  0  0  0  0
 36 37  1  0  0  0  0
 38 37  1  0  0  0  0
 39 45  2  0  0  0  0
 39 49  1  0  0  0  0
 41 40  1  1  0  0  0
 41 44  1  0  0  0  0
 42 44  1  0  0  0  0
 42 38  1  6  0  0  0
 43 47  1  1  0  0  0
 43 41  1  0  0  0  0
 44 49  1  6  0  0  0
 47 51  1  0  0  0  0
 48 46  1  1  0  0  0
 48 43  1  0  0  0  0
 50 41  1  0  0  0  0
 51 42  1  0  0  0  0
 52 46  1  6  0  0  0
 52 50  1  0  0  0  0
 52 39  1  0  0  0  0
 53 55  1  0  0  0  0
 54 53  1  6  0  0  0
 54 48  1  0  0  0  0
 55 54  1  0  0  0  0
M  END
>  <MODEL>
8

>  <REMARK>
 VINA RESULT:      -6.7      3.298      9.293
  Name = 
  19 active torsions:
  status: ('A' for Active; 'I' for Inactive)
    1  A    between atoms: C_2  and  C_44
    2  A    between atoms: C_4  and  N_37
    3  A    between atoms: C_4  and  C_40
    4  A    between atoms: C_5  and  C_40
    5  A    between atoms: C_5  and  O_45
    6  A    between atoms: C_7  and  C_22
    7  A    between atoms: N_8  and  C_22
    8  A    between atoms: N_8  and  C_43
    9  A    between atoms: C_10  and  N_32
   10  A    between atoms: C_12  and  C_38
   11  A    between atoms: C_16  and  C_36
   12  A    between atoms: C_26  and  O_45
   13  A    between atoms: C_27  and  C_54
   14  A    between atoms: C_28  and  N_49
   15  A    between atoms: C_33  and  C_36
   16  A    between atoms: C_33  and  N_49
   17  A    between atoms: C_43  and  C_51
   18  A    between atoms: N_49  and  C_52
   19  A    between atoms: C_51  and  C_54
                            x       y       z     vdW  Elec       q    Type
                         _______ _______ _______ _____ _____    ______ ____

>  <TORSDO>
F 19

$$$$
=
 OpenBabel10262420223D

 55 61  0  0  1  0  0  0  0  0999 V2000
  191.7570  177.4070  142.0120 C   0  0  0  0  0  3  0  0  0  0  0  0
  189.0030  177.4450  142.5020 C   0  0  0  0  0  0  0  0  0  0  0  0
  189.4800  177.3660  141.1910 C   0  0  0  0  0  3  0  0  0  0  0  0
  191.2820  177.4930  143.3250 C   0  0  0  0  0  3  0  0  0  0  0  0
  190.8550  177.3450  140.9380 C   0  0  0  0  0  0  0  0  0  0  0  0
  189.9040  177.5140  143.5700 C   0  0  0  0  0  3  0  0  0  0  0  0
  191.3060  177.2560  139.5460 C   0  0  0  0  0  3  0  0  0  0  0  0
  191.2970  176.1290  138.8390 C   0  0  0  0  0  3  0  0  0  0  0  0
  191.7470  176.0820  137.4770 N   0  0  0  0  0  0  0  0  0  0  0  0
  193.8090  174.7630  137.9380 C   0  0  0  0  0  2  0  0  0  0  0  0
  195.7550  175.4660  136.5030 N   0  0  0  0  0  0  0  0  0  0  0  0
  193.4820  176.0040  135.7400 C   0  0  0  0  0  2  0  0  0  0  0  0
  194.7990  175.3110  135.3980 C   0  0  0  0  0  2  0  0  0  0  0  0
  195.3030  174.5990  137.6050 C   0  0  0  0  0  2  0  0  0  0  0  0
  193.1860  175.9810  137.2440 C   0  0  0  0  0  3  0  0  0  0  0  0
  197.0790  175.0000  136.0480 C   0  0  0  0  0  3  0  0  0  0  0  0
  196.9520  173.7950  135.1270 C   0  0  0  0  0  1  0  0  0  0  0  0
  197.9460  174.5730  137.2240 C   0  0  0  0  0  1  0  0  0  0  0  0
  190.8270  176.3520  136.3670 C   0  0  0  0  0  2  0  0  0  0  0  0
  189.5800  175.4800  136.4750 C   0  0  0  0  0  2  0  0  0  0  0  0
  185.9560  176.6130  137.0690 C   0  0  0  0  0  2  0  0  0  0  0  0
  186.3570  177.8110  137.9110 C   0  0  0  0  0  2  0  0  0  0  0  0
  188.3070  176.2930  136.2900 C   0  0  2  0  0  3  0  0  0  0  0  0
  188.5520  177.7120  136.7380 C   0  0  0  0  0  3  0  0  0  0  0  0
  187.6480  178.4170  137.4320 C   0  0  0  0  0  3  0  0  0  0  0  0
  187.1260  175.6400  137.0170 C   0  0  2  0  0  3  0  0  0  0  0  0
  186.7370  174.4460  136.3520 O   0  0  0  0  0  0  0  0  0  0  0  0
  185.7700  173.5800  136.8650 C   0  0  0  0  0  0  0  0  0  0  0  0
  185.9830  173.0070  137.9640 O   0  0  0  0  0  0  0  0  0  0  0  0
  184.4670  173.3530  136.1670 C   0  0  0  0  0  2  0  0  0  0  0  0
  183.6910  172.2150  136.8110 C   0  0  0  0  0  2  0  0  0  0  0  0
  181.9380  173.7330  137.1960 C   0  0  0  0  0  2  0  0  0  0  0  0
  182.2950  172.5460  136.8780 N   0  0  0  0  0  0  0  0  0  0  0  0
  187.5360  177.4710  142.7500 C   0  0  0  0  0  2  0  0  0  0  0  0
  186.8330  178.2910  141.6830 C   0  0  0  0  0  2  0  0  0  0  0  0
  185.6530  179.0320  142.2910 C   0  0  0  0  0  2  0  0  0  0  0  0
  184.4240  178.2870  142.0700 N   0  0  0  0  0  2  0  0  0  0  0  0
  184.1200  178.3470  140.6510 C   0  0  0  0  0  2  0  0  0  0  0  0
  179.6210  180.2150  140.7790 C   0  0  0  0  0  0  0  0  0  0  0  0
  181.1660  176.4880  139.8410 C   0  0  0  0  0  1  0  0  0  0  0  0
  180.8870  177.9630  139.6270 C   0  0  2  0  0  0  0  0  0  0  0  0
  182.9690  179.3230  140.4080 C   0  0  2  0  0  3  0  0  0  0  0  0
  181.3700  178.3230  138.2070 C   0  0  2  0  0  3  0  0  0  0  0  0
  181.6000  178.7480  140.7840 C   0  0  1  0  0  3  0  0  0  0  0  0
  178.9770  181.1820  141.2600 O   0  0  0  0  0  0  0  0  0  0  0  0
  179.8160  180.1780  138.4340 O   0  0  0  0  0  0  0  0  0  0  0  0
  182.8030  178.8580  138.1780 C   0  0  0  0  0  2  0  0  0  0  0  0
  180.3310  179.2270  137.5280 C   0  0  1  0  0  3  0  0  0  0  0  0
  180.7960  179.7750  141.3760 O   0  0  0  0  0  0  0  0  0  0  0  0
  179.4810  178.1510  139.6770 O   0  0  0  0  0  0  0  0  0  0  0  0
  182.9790  179.8880  139.1160 O   0  0  0  0  0  0  0  0  0  0  0  0
  179.1790  179.5370  139.5370 C   0  0  1  0  0  3  0  0  0  0  0  0
  180.7660  181.2880  136.1730 C   0  0  0  0  0  2  0  0  0  0  0  0
  180.8190  179.8270  136.1990 C   0  0  2  0  0  3  0  0  0  0  0  0
  179.7080  180.5050  135.5130 N   0  0  0  0  0  2  0  0  0  0  0  0
  1  4  1  0  0  0  0
  2 34  1  0  0  0  0
  2  6  1  0  0  0  0
  3  2  2  0  0  0  0
  4  6  2  0  0  0  0
  5  3  1  0  0  0  0
  5  1  2  0  0  0  0
  7  5  1  0  0  0  0
  8  7  2  0  0  0  0
  9  8  1  0  0  0  0
 11 14  1  0  0  0  0
 12 15  1  0  0  0  0
 13 12  1  0  0  0  0
 13 11  1  0  0  0  0
 14 10  1  0  0  0  0
 15  9  1  0  0  0  0
 15 10  1  0  0  0  0
 16 11  1  0  0  0  0
 16 18  1  0  0  0  0
 17 16  1  0  0  0  0
 19 20  1  0  0  0  0
 19  9  1  0  0  0  0
 21 22  1  0  0  0  0
 23 20  1  1  0  0  0
 23 24  1  0  0  0  0
 23 26  1  0  0  0  0
 24 25  2  0  0  0  0
 25 22  1  0  0  0  0
 26 27  1  6  0  0  0
 26 21  1  0  0  0  0
 27 28  1  0  0  0  0
 28 29  2  0  0  0  0
 30 31  1  0  0  0  0
 30 28  1  0  0  0  0
 31 33  1  0  0  0  0
 33 32  2  0  0  0  0
 35 36  1  0  0  0  0
 35 34  1  0  0  0  0
 37 36  1  0  0  0  0
 38 37  1  0  0  0  0
 39 45  2  0  0  0  0
 39 49  1  0  0  0  0
 41 50  1  0  0  0  0
 41 40  1  1  0  0  0
 41 44  1  0  0  0  0
 42 38  1  6  0  0  0
 42 44  1  0  0  0  0
 43 47  1  1  0  0  0
 43 41  1  0  0  0  0
 44 49  1  6  0  0  0
 47 51  1  0  0  0  0
 48 43  1  0  0  0  0
 48 46  1  1  0  0  0
 51 42  1  0  0  0  0
 52 46  1  6  0  0  0
 52 50  1  0  0  0  0
 52 39  1  0  0  0  0
 54 53  1  1  0  0  0
 54 48  1  0  0  0  0
 55 53  1  0  0  0  0
 55 54  1  0  0  0  0
M  END
>  <MODEL>
9

>  <REMARK>
 VINA RESULT:      -6.7      2.642      7.517
  Name = 
  19 active torsions:
  status: ('A' for Active; 'I' for Inactive)
    1  A    between atoms: C_2  and  C_44
    2  A    between atoms: C_4  and  N_37
    3  A    between atoms: C_4  and  C_40
    4  A    between atoms: C_5  and  C_40
    5  A    between atoms: C_5  and  O_45
    6  A    between atoms: C_7  and  C_22
    7  A    between atoms: N_8  and  C_22
    8  A    between atoms: N_8  and  C_43
    9  A    between atoms: C_10  and  N_32
   10  A    between atoms: C_12  and  C_38
   11  A    between atoms: C_16  and  C_36
   12  A    between atoms: C_26  and  O_45
   13  A    between atoms: C_27  and  C_54
   14  A    between atoms: C_28  and  N_49
   15  A    between atoms: C_33  and  C_36
   16  A    between atoms: C_33  and  N_49
   17  A    between atoms: C_43  and  C_51
   18  A    between atoms: N_49  and  C_52
   19  A    between atoms: C_51  and  C_54
                            x       y       z     vdW  Elec       q    Type
                         _______ _______ _______ _____ _____    ______ ____

>  <TORSDO>
F 19

$$$$
