=
 OpenBabel10262423323D

 34 39  0  0  1  0  0  0  0  0999 V2000
  182.5050  177.7250  141.4100 C   0  0  1  0  0  3  0  0  0  0  0  0
  182.6160  178.3820  137.6980 C   0  0  0  0  0  3  0  0  0  0  0  0
  181.4220  179.6730  139.3600 C   0  0  0  0  0  2  0  0  0  0  0  0
  180.9140  179.1230  142.8930 C   0  0  0  0  0  0  0  0  0  0  0  0
  180.0740  180.1920  142.6400 C   0  0  0  0  0  3  0  0  0  0  0  0
  181.1210  178.5050  144.1200 O   0  0  0  0  0  1  0  0  0  0  0  0
  181.0280  179.6410  140.7660 N   0  0  0  0  0  0  0  0  0  0  0  0
  181.5040  178.8000  141.6970 C   0  0  0  0  0  0  0  0  0  0  0  0
  180.1730  180.4860  141.3220 N   0  0  0  0  0  0  0  0  0  0  0  0
  183.4640  177.2760  137.1660 C   0  0  0  0  0  2  0  0  0  0  0  0
  182.7340  175.9720  137.1870 C   0  0  0  0  0  0  0  0  0  0  0  0
  182.3540  175.4140  138.3410 C   0  0  0  0  0  3  0  0  0  0  0  0
  182.1640  178.4260  138.9520 C   0  0  0  0  0  0  0  0  0  0  0  0
  182.4630  176.0390  139.6740 C   0  0  0  0  0  3  0  0  0  0  0  0
  182.4230  177.3490  139.9590 C   0  0  0  0  0  0  0  0  0  0  0  0
  182.5270  175.2500  135.9190 C   0  0  0  0  0  0  0  0  0  0  0  0
  182.2700  173.8850  135.9300 O   0  0  0  0  0  1  0  0  0  0  0  0
  182.5800  175.8590  134.8160 O   0  0  0  0  0  0  0  0  0  0  0  0
  183.9170  178.1960  141.7360 C   0  0  0  0  0  2  0  0  0  0  0  0
  187.8950  178.2540  143.5050 C   0  0  0  0  0  2  0  0  0  0  0  0
  185.4850  178.3140  145.2880 C   0  0  0  0  0  2  0  0  0  0  0  0
  189.3340  177.1120  146.8170 C   0  0  0  0  0  0  0  0  0  0  0  0
  184.0210  178.6140  143.1970 C   0  0  2  0  0  3  0  0  0  0  0  0
  189.2150  177.4590  145.4680 C   0  0  0  0  0  3  0  0  0  0  0  0
  187.9770  177.8480  144.9460 C   0  0  0  0  0  0  0  0  0  0  0  0
  184.9350  179.8270  143.3150 C   0  0  0  0  0  2  0  0  0  0  0  0
  186.9780  177.5720  147.1420 C   0  0  0  0  0  3  0  0  0  0  0  0
  186.8460  177.9120  145.7920 C   0  0  0  0  0  0  0  0  0  0  0  0
  188.2160  177.1740  147.6540 C   0  0  0  0  0  3  0  0  0  0  0  0
  185.4250  178.4710  143.7690 C   0  0  1  0  0  0  0  0  0  0  0  0
  186.5450  177.8820  142.9090 C   0  0  0  0  0  2  0  0  0  0  0  0
  190.6560  176.6920  147.3670 C   0  0  0  0  0  2  0  0  0  0  0  0
  191.6790  176.7930  146.3560 N   0  0  0  0  0  0  0  0  0  0  0  0
  192.0990  175.8120  145.8220 O   0  0  0  0  0  0  0  0  0  0  0  0
  1  8  1  0  0  0  0
  1 19  1  6  0  0  0
  2 13  2  0  0  0  0
  3  7  1  0  0  0  0
  4  6  1  0  0  0  0
  5  4  1  0  0  0  0
  7  9  1  0  0  0  0
  7  8  1  0  0  0  0
  8  4  2  0  0  0  0
  9  5  2  0  0  0  0
 10 11  1  0  0  0  0
 10  2  1  0  0  0  0
 11 12  2  0  0  0  0
 12 14  1  0  0  0  0
 13  3  1  0  0  0  0
 13 15  1  0  0  0  0
 14 15  2  0  0  0  0
 15  1  1  0  0  0  0
 16 17  1  0  0  0  0
 16 11  1  0  0  0  0
 18 16  2  0  0  0  0
 20 25  1  0  0  0  0
 21 28  1  0  0  0  0
 22 32  1  0  0  0  0
 22 29  1  0  0  0  0
 23 19  1  6  0  0  0
 23 26  1  0  0  0  0
 23 30  1  0  0  0  0
 24 22  2  0  0  0  0
 25 24  1  0  0  0  0
 25 28  2  0  0  0  0
 26 30  1  0  0  0  0
 27 29  2  0  0  0  0
 28 27  1  0  0  0  0
 30 31  1  6  0  0  0
 30 21  1  0  0  0  0
 31 20  1  0  0  0  0
 33 32  1  0  0  0  0
 34 33  2  0  0  0  0
M  END
>  <MODEL>
1

>  <REMARK>
 VINA RESULT:      -9.4      0.000      0.000
  Name = 
  5 active torsions:
  status: ('A' for Active; 'I' for Inactive)
    1  A    between atoms: C_1  and  C_9
    2  A    between atoms: C_3  and  C_25
    3  A    between atoms: C_7  and  C_11
    4  A    between atoms: C_8  and  C_9
    5  A    between atoms: C_11  and  N_15
                            x       y       z     vdW  Elec       q    Type
                         _______ _______ _______ _____ _____    ______ ____

>  <TORSDO>
F 5

$$$$
=
 OpenBabel10262423323D

 34 39  0  0  1  0  0  0  0  0999 V2000
  184.7210  178.8010  139.4910 C   0  0  1  0  0  3  0  0  0  0  0  0
  181.6060  178.0900  137.4880 C   0  0  0  0  0  3  0  0  0  0  0  0
  183.8550  177.3580  136.9740 C   0  0  0  0  0  2  0  0  0  0  0  0
  187.0220  178.1130  138.5350 C   0  0  0  0  0  0  0  0  0  0  0  0
  187.4120  177.4250  137.4010 C   0  0  0  0  0  3  0  0  0  0  0  0
  187.8570  178.6300  139.5180 O   0  0  0  0  0  1  0  0  0  0  0  0
  185.2430  177.5560  137.3840 N   0  0  0  0  0  0  0  0  0  0  0  0
  185.6520  178.1760  138.5010 C   0  0  0  0  0  0  0  0  0  0  0  0
  186.2900  177.0940  136.7180 N   0  0  0  0  0  0  0  0  0  0  0  0
  180.5290  178.7970  138.2410 C   0  0  0  0  0  2  0  0  0  0  0  0
  180.6270  180.2790  138.0690 C   0  0  0  0  0  0  0  0  0  0  0  0
  181.6860  180.9560  138.5250 C   0  0  0  0  0  3  0  0  0  0  0  0
  182.9060  178.2360  137.7490 C   0  0  0  0  0  0  0  0  0  0  0  0
  182.9090  180.3560  139.0970 C   0  0  0  0  0  3  0  0  0  0  0  0
  183.4350  179.1580  138.8040 C   0  0  0  0  0  0  0  0  0  0  0  0
  179.4880  181.0060  137.4820 C   0  0  0  0  0  0  0  0  0  0  0  0
  179.0180  182.1660  138.0850 O   0  0  0  0  0  1  0  0  0  0  0  0
  178.9310  180.5860  136.4310 O   0  0  0  0  0  0  0  0  0  0  0  0
  184.4350  177.8480  140.6450 C   0  0  0  0  0  2  0  0  0  0  0  0
  188.0140  177.7840  143.1240 C   0  0  0  0  0  2  0  0  0  0  0  0
  185.4010  178.6380  144.3240 C   0  0  0  0  0  2  0  0  0  0  0  0
  188.6580  177.3260  146.8290 C   0  0  0  0  0  0  0  0  0  0  0  0
  184.3780  178.6030  141.9670 C   0  0  2  0  0  3  0  0  0  0  0  0
  188.8260  177.3330  145.4410 C   0  0  0  0  0  3  0  0  0  0  0  0
  187.7840  177.7500  144.6050 C   0  0  0  0  0  0  0  0  0  0  0  0
  185.4710  179.6630  141.9940 C   0  0  0  0  0  2  0  0  0  0  0  0
  186.4090  178.1850  146.5590 C   0  0  0  0  0  3  0  0  0  0  0  0
  186.5630  178.1870  145.1690 C   0  0  0  0  0  0  0  0  0  0  0  0
  187.4500  177.7580  147.3870 C   0  0  0  0  0  3  0  0  0  0  0  0
  185.6190  178.4120  142.8280 C   0  0  1  0  0  0  0  0  0  0  0  0
  186.7320  177.4700  142.3650 C   0  0  0  0  0  2  0  0  0  0  0  0
  189.7710  176.8750  147.7140 C   0  0  0  0  0  2  0  0  0  0  0  0
  190.9950  176.7540  146.9640 N   0  0  0  0  0  0  0  0  0  0  0  0
  192.0440  176.6700  147.5290 O   0  0  0  0  0  0  0  0  0  0  0  0
  1 19  1  1  0  0  0
  2 13  2  0  0  0  0
  2 10  1  0  0  0  0
  3  7  1  0  0  0  0
  3 13  1  0  0  0  0
  4  6  1  0  0  0  0
  5  4  1  0  0  0  0
  7  8  1  0  0  0  0
  8  4  2  0  0  0  0
  8  1  1  0  0  0  0
  9  7  1  0  0  0  0
  9  5  2  0  0  0  0
 11 10  1  0  0  0  0
 11 12  2  0  0  0  0
 12 14  1  0  0  0  0
 13 15  1  0  0  0  0
 15 14  2  0  0  0  0
 15  1  1  0  0  0  0
 16 11  1  0  0  0  0
 16 17  1  0  0  0  0
 18 16  2  0  0  0  0
 20 25  1  0  0  0  0
 21 28  1  0  0  0  0
 22 29  1  0  0  0  0
 22 32  1  0  0  0  0
 23 19  1  6  0  0  0
 23 26  1  0  0  0  0
 23 30  1  0  0  0  0
 24 22  2  0  0  0  0
 25 28  2  0  0  0  0
 25 24  1  0  0  0  0
 27 29  2  0  0  0  0
 28 27  1  0  0  0  0
 30 26  1  6  0  0  0
 30 21  1  0  0  0  0
 31 30  1  0  0  0  0
 31 20  1  0  0  0  0
 33 34  2  0  0  0  0
 33 32  1  0  0  0  0
M  END
>  <MODEL>
2

>  <REMARK>
 VINA RESULT:      -8.8      3.109      4.372
  Name = 
  5 active torsions:
  status: ('A' for Active; 'I' for Inactive)
    1  A    between atoms: C_1  and  C_9
    2  A    between atoms: C_3  and  C_25
    3  A    between atoms: C_7  and  C_11
    4  A    between atoms: C_8  and  C_9
    5  A    between atoms: C_11  and  N_15
                            x       y       z     vdW  Elec       q    Type
                         _______ _______ _______ _____ _____    ______ ____

>  <TORSDO>
F 5

$$$$
=
 OpenBabel10262423323D

 34 39  0  0  1  0  0  0  0  0999 V2000
  190.8050  176.5340  137.6770 C   0  0  1  0  0  3  0  0  0  0  0  0
  187.8400  174.3290  136.9210 C   0  0  0  0  0  3  0  0  0  0  0  0
  190.1750  173.7110  136.7780 C   0  0  0  0  0  2  0  0  0  0  0  0
  193.1860  175.6670  137.1640 C   0  0  0  0  0  0  0  0  0  0  0  0
  193.6790  174.4590  136.7060 C   0  0  0  0  0  3  0  0  0  0  0  0
  193.9300  176.7930  137.4950 O   0  0  0  0  0  1  0  0  0  0  0  0
  191.5160  174.2900  136.8240 N   0  0  0  0  0  0  0  0  0  0  0  0
  191.8230  175.5300  137.2340 C   0  0  0  0  0  0  0  0  0  0  0  0
  192.6230  173.6340  136.5110 N   0  0  0  0  0  0  0  0  0  0  0  0
  186.6660  175.2220  137.1460 C   0  0  0  0  0  2  0  0  0  0  0  0
  186.5340  176.2340  136.0540 C   0  0  0  0  0  0  0  0  0  0  0  0
  187.4760  177.1640  135.8590 C   0  0  0  0  0  3  0  0  0  0  0  0
  189.1010  174.7620  136.8970 C   0  0  0  0  0  0  0  0  0  0  0  0
  188.7750  177.2300  136.5580 C   0  0  0  0  0  3  0  0  0  0  0  0
  189.4810  176.2020  137.0530 C   0  0  0  0  0  0  0  0  0  0  0  0
  185.2980  176.2630  135.2530 C   0  0  0  0  0  0  0  0  0  0  0  0
  184.6100  175.0840  134.9930 O   0  0  0  0  0  1  0  0  0  0  0  0
  184.8510  177.3520  134.7990 O   0  0  0  0  0  0  0  0  0  0  0  0
  190.6680  176.5340  139.1940 C   0  0  0  0  0  2  0  0  0  0  0  0
  190.3080  178.0360  143.2660 C   0  0  0  0  0  2  0  0  0  0  0  0
  187.8290  177.4680  141.6760 C   0  0  0  0  0  2  0  0  0  0  0  0
  187.6850  177.7190  145.9800 C   0  0  0  0  0  0  0  0  0  0  0  0
  189.3130  177.0900  139.6120 C   0  0  2  0  0  3  0  0  0  0  0  0
  188.9090  177.8890  145.3280 C   0  0  0  0  0  3  0  0  0  0  0  0
  188.9850  177.8070  143.9330 C   0  0  0  0  0  0  0  0  0  0  0  0
  189.4720  178.5400  140.0530 C   0  0  0  0  0  2  0  0  0  0  0  0
  186.5900  177.4170  143.8390 C   0  0  0  0  0  3  0  0  0  0  0  0
  187.8120  177.5750  143.1790 C   0  0  0  0  0  0  0  0  0  0  0  0
  186.5240  177.4890  145.2340 C   0  0  0  0  0  3  0  0  0  0  0  0
  189.2390  177.4630  141.0870 C   0  0  1  0  0  0  0  0  0  0  0  0
  190.4350  177.1950  142.0030 C   0  0  0  0  0  2  0  0  0  0  0  0
  187.6120  177.8010  147.4670 C   0  0  0  0  0  2  0  0  0  0  0  0
  188.8950  177.5080  148.0530 N   0  0  0  0  0  0  0  0  0  0  0  0
  189.4130  178.2860  148.7960 O   0  0  0  0  0  0  0  0  0  0  0  0
  1 19  1  1  0  0  0
  2 10  1  0  0  0  0
  3  7  1  0  0  0  0
  3 13  1  0  0  0  0
  4  8  2  0  0  0  0
  4  6  1  0  0  0  0
  5  4  1  0  0  0  0
  7  8  1  0  0  0  0
  8  1  1  0  0  0  0
  9  5  2  0  0  0  0
  9  7  1  0  0  0  0
 11 10  1  0  0  0  0
 12 11  2  0  0  0  0
 12 14  1  0  0  0  0
 13  2  2  0  0  0  0
 13 15  1  0  0  0  0
 14 15  2  0  0  0  0
 15  1  1  0  0  0  0
 16 11  1  0  0  0  0
 17 16  1  0  0  0  0
 18 16  2  0  0  0  0
 20 25  1  0  0  0  0
 21 28  1  0  0  0  0
 22 32  1  0  0  0  0
 23 19  1  1  0  0  0
 23 26  1  0  0  0  0
 23 30  1  0  0  0  0
 24 22  1  0  0  0  0
 25 24  2  0  0  0  0
 27 29  1  0  0  0  0
 28 27  2  0  0  0  0
 28 25  1  0  0  0  0
 29 22  2  0  0  0  0
 30 26  1  6  0  0  0
 30 21  1  0  0  0  0
 30 31  1  0  0  0  0
 31 20  1  0  0  0  0
 32 33  1  0  0  0  0
 33 34  2  0  0  0  0
M  END
>  <MODEL>
3

>  <REMARK>
 VINA RESULT:      -8.7      5.251      7.597
  Name = 
  5 active torsions:
  status: ('A' for Active; 'I' for Inactive)
    1  A    between atoms: C_1  and  C_9
    2  A    between atoms: C_3  and  C_25
    3  A    between atoms: C_7  and  C_11
    4  A    between atoms: C_8  and  C_9
    5  A    between atoms: C_11  and  N_15
                            x       y       z     vdW  Elec       q    Type
                         _______ _______ _______ _____ _____    ______ ____

>  <TORSDO>
F 5

$$$$
=
 OpenBabel10262423323D

 34 39  0  0  1  0  0  0  0  0999 V2000
  185.9850  178.6290  138.7950 C   0  0  1  0  0  3  0  0  0  0  0  0
  182.8790  176.4920  138.7060 C   0  0  0  0  0  3  0  0  0  0  0  0
  184.6460  176.5450  137.0530 C   0  0  0  0  0  2  0  0  0  0  0  0
  187.5540  178.6630  136.7410 C   0  0  0  0  0  0  0  0  0  0  0  0
  187.5660  177.9730  135.5430 C   0  0  0  0  0  3  0  0  0  0  0  0
  188.4770  179.6140  137.1570 O   0  0  0  0  0  1  0  0  0  0  0  0
  185.8370  177.3030  136.6770 N   0  0  0  0  0  0  0  0  0  0  0  0
  186.4590  178.2180  137.4370 C   0  0  0  0  0  0  0  0  0  0  0  0
  186.4970  177.1420  135.5410 N   0  0  0  0  0  0  0  0  0  0  0  0
  182.1430  176.8820  139.9430 C   0  0  0  0  0  2  0  0  0  0  0  0
  181.5370  178.2420  139.8100 C   0  0  0  0  0  0  0  0  0  0  0  0
  182.3060  179.3270  139.6680 C   0  0  0  0  0  3  0  0  0  0  0  0
  183.9500  177.1430  138.2490 C   0  0  0  0  0  0  0  0  0  0  0  0
  183.7710  179.3240  139.4830 C   0  0  0  0  0  3  0  0  0  0  0  0
  184.5120  178.3660  138.9050 C   0  0  0  0  0  0  0  0  0  0  0  0
  180.0770  178.3890  139.9430 C   0  0  0  0  0  0  0  0  0  0  0  0
  179.4340  177.9390  141.0900 O   0  0  0  0  0  1  0  0  0  0  0  0
  179.3980  178.9220  139.0240 O   0  0  0  0  0  0  0  0  0  0  0  0
  186.7220  177.8590  139.8840 C   0  0  0  0  0  2  0  0  0  0  0  0
  189.6760  178.2200  143.0630 C   0  0  0  0  0  2  0  0  0  0  0  0
  186.7650  178.0410  143.7640 C   0  0  0  0  0  2  0  0  0  0  0  0
  189.8020  177.1400  146.6920 C   0  0  0  0  0  0  0  0  0  0  0  0
  186.2130  178.2560  141.2640 C   0  0  2  0  0  3  0  0  0  0  0  0
  190.1880  177.5030  145.3980 C   0  0  0  0  0  3  0  0  0  0  0  0
  189.2240  177.7950  144.4280 C   0  0  0  0  0  0  0  0  0  0  0  0
  186.9010  179.5390  141.7100 C   0  0  0  0  0  2  0  0  0  0  0  0
  187.4750  177.3930  146.0650 C   0  0  0  0  0  3  0  0  0  0  0  0
  187.8520  177.7460  144.7650 C   0  0  0  0  0  0  0  0  0  0  0  0
  188.4450  177.0920  147.0250 C   0  0  0  0  0  3  0  0  0  0  0  0
  187.2890  178.2220  142.3400 C   0  0  1  0  0  0  0  0  0  0  0  0
  188.7020  177.7470  141.9940 C   0  0  0  0  0  2  0  0  0  0  0  0
  190.8360  176.8240  147.7200 C   0  0  0  0  0  2  0  0  0  0  0  0
  192.0530  176.3770  147.0910 N   0  0  0  0  0  0  0  0  0  0  0  0
  192.8750  175.7820  147.7210 O   0  0  0  0  0  0  0  0  0  0  0  0
  1 15  1  0  0  0  0
  1 19  1  1  0  0  0
  2 10  1  0  0  0  0
  3 13  1  0  0  0  0
  4  6  1  0  0  0  0
  4  8  2  0  0  0  0
  5  4  1  0  0  0  0
  7  3  1  0  0  0  0
  7  8  1  0  0  0  0
  8  1  1  0  0  0  0
  9  5  2  0  0  0  0
  9  7  1  0  0  0  0
 11 16  1  0  0  0  0
 11 10  1  0  0  0  0
 12 11  2  0  0  0  0
 13  2  2  0  0  0  0
 13 15  1  0  0  0  0
 14 12  1  0  0  0  0
 15 14  2  0  0  0  0
 16 17  1  0  0  0  0
 18 16  2  0  0  0  0
 20 25  1  0  0  0  0
 21 28  1  0  0  0  0
 22 29  1  0  0  0  0
 22 32  1  0  0  0  0
 23 19  1  6  0  0  0
 23 26  1  0  0  0  0
 23 30  1  0  0  0  0
 24 22  2  0  0  0  0
 25 28  2  0  0  0  0
 25 24  1  0  0  0  0
 27 29  2  0  0  0  0
 28 27  1  0  0  0  0
 30 26  1  1  0  0  0
 30 21  1  0  0  0  0
 31 30  1  0  0  0  0
 31 20  1  0  0  0  0
 33 32  1  0  0  0  0
 33 34  2  0  0  0  0
M  END
>  <MODEL>
4

>  <REMARK>
 VINA RESULT:      -8.2      3.056      4.736
  Name = 
  5 active torsions:
  status: ('A' for Active; 'I' for Inactive)
    1  A    between atoms: C_1  and  C_9
    2  A    between atoms: C_3  and  C_25
    3  A    between atoms: C_7  and  C_11
    4  A    between atoms: C_8  and  C_9
    5  A    between atoms: C_11  and  N_15
                            x       y       z     vdW  Elec       q    Type
                         _______ _______ _______ _____ _____    ______ ____

>  <TORSDO>
F 5

$$$$
=
 OpenBabel10262423323D

 34 39  0  0  1  0  0  0  0  0999 V2000
  180.9330  178.0630  141.4920 C   0  0  1  0  0  3  0  0  0  0  0  0
  180.6330  180.7990  138.9140 C   0  0  0  0  0  3  0  0  0  0  0  0
  179.8410  180.8720  141.1990 C   0  0  0  0  0  2  0  0  0  0  0  0
  179.7410  178.3370  143.7690 C   0  0  0  0  0  0  0  0  0  0  0  0
  179.0160  179.3650  144.3440 C   0  0  0  0  0  3  0  0  0  0  0  0
  180.0300  177.1060  144.3440 O   0  0  0  0  0  1  0  0  0  0  0  0
  179.6360  180.0170  142.3660 N   0  0  0  0  0  0  0  0  0  0  0  0
  180.1230  178.7770  142.5280 C   0  0  0  0  0  0  0  0  0  0  0  0
  178.9750  180.3840  143.4530 N   0  0  0  0  0  0  0  0  0  0  0  0
  181.2580  180.2090  137.6940 C   0  0  0  0  0  2  0  0  0  0  0  0
  180.3790  179.1650  137.0830 C   0  0  0  0  0  0  0  0  0  0  0  0
  180.0890  178.0380  137.7410 C   0  0  0  0  0  3  0  0  0  0  0  0
  180.3610  180.0980  140.0150 C   0  0  0  0  0  0  0  0  0  0  0  0
  180.4510  177.7440  139.1420 C   0  0  0  0  0  3  0  0  0  0  0  0
  180.6140  178.6270  140.1390 C   0  0  0  0  0  0  0  0  0  0  0  0
  179.9170  179.3450  135.6950 C   0  0  0  0  0  0  0  0  0  0  0  0
  180.4410  178.5560  134.6800 O   0  0  0  0  0  0  0  0  0  0  0  0
  179.0460  180.2130  135.4150 O   0  0  0  0  0  1  0  0  0  0  0  0
  182.4240  178.2160  141.7690 C   0  0  0  0  0  2  0  0  0  0  0  0
  186.5010  178.2260  143.2970 C   0  0  0  0  0  2  0  0  0  0  0  0
  184.2240  178.7970  145.1620 C   0  0  0  0  0  2  0  0  0  0  0  0
  188.0600  177.5400  146.6810 C   0  0  0  0  0  0  0  0  0  0  0  0
  182.6550  178.8650  143.1280 C   0  0  2  0  0  3  0  0  0  0  0  0
  187.8810  177.6630  145.3000 C   0  0  0  0  0  3  0  0  0  0  0  0
  186.6450  178.0650  144.7810 C   0  0  0  0  0  0  0  0  0  0  0  0
  183.6650  179.9960  142.9860 C   0  0  0  0  0  2  0  0  0  0  0  0
  185.7720  178.2530  147.0390 C   0  0  0  0  0  3  0  0  0  0  0  0
  185.5800  178.3690  145.6590 C   0  0  0  0  0  0  0  0  0  0  0  0
  187.0060  177.8410  147.5500 C   0  0  0  0  0  3  0  0  0  0  0  0
  184.0780  178.7000  143.6440 C   0  0  1  0  0  0  0  0  0  0  0  0
  185.0910  177.8780  142.8440 C   0  0  0  0  0  2  0  0  0  0  0  0
  189.3780  177.1060  147.2270 C   0  0  0  0  0  2  0  0  0  0  0  0
  190.4190  177.3000  146.2500 N   0  0  0  0  0  0  0  0  0  0  0  0
  191.5380  176.9510  146.4810 O   0  0  0  0  0  0  0  0  0  0  0  0
  1 19  1  1  0  0  0
  1  8  1  0  0  0  0
  2 13  2  0  0  0  0
  3  7  1  0  0  0  0
  4  5  1  0  0  0  0
  4  6  1  0  0  0  0
  7  8  1  0  0  0  0
  7  9  1  0  0  0  0
  8  4  2  0  0  0  0
  9  5  2  0  0  0  0
 10  2  1  0  0  0  0
 11 10  1  0  0  0  0
 11 12  2  0  0  0  0
 12 14  1  0  0  0  0
 13 15  1  0  0  0  0
 13  3  1  0  0  0  0
 14 15  2  0  0  0  0
 15  1  1  0  0  0  0
 16 11  1  0  0  0  0
 17 16  2  0  0  0  0
 18 16  1  0  0  0  0
 20 25  1  0  0  0  0
 21 28  1  0  0  0  0
 22 32  1  0  0  0  0
 22 29  1  0  0  0  0
 23 19  1  6  0  0  0
 23 30  1  0  0  0  0
 24 22  2  0  0  0  0
 25 24  1  0  0  0  0
 25 28  2  0  0  0  0
 26 23  1  0  0  0  0
 26 30  1  0  0  0  0
 27 29  2  0  0  0  0
 28 27  1  0  0  0  0
 30 31  1  6  0  0  0
 30 21  1  0  0  0  0
 31 20  1  0  0  0  0
 33 34  2  0  0  0  0
 33 32  1  0  0  0  0
M  END
>  <MODEL>
5

>  <REMARK>
 VINA RESULT:      -8.1      2.049      2.539
  Name = 
  5 active torsions:
  status: ('A' for Active; 'I' for Inactive)
    1  A    between atoms: C_1  and  C_9
    2  A    between atoms: C_3  and  C_25
    3  A    between atoms: C_7  and  C_11
    4  A    between atoms: C_8  and  C_9
    5  A    between atoms: C_11  and  N_15
                            x       y       z     vdW  Elec       q    Type
                         _______ _______ _______ _____ _____    ______ ____

>  <TORSDO>
F 5

$$$$
=
 OpenBabel10262423323D

 34 39  0  0  1  0  0  0  0  0999 V2000
  189.2230  175.9030  137.3740 C   0  0  1  0  0  3  0  0  0  0  0  0
  192.2220  175.6870  135.0980 C   0  0  0  0  0  3  0  0  0  0  0  0
  190.1930  176.9440  134.7010 C   0  0  0  0  0  2  0  0  0  0  0  0
  187.0910  177.1080  136.5440 C   0  0  0  0  0  0  0  0  0  0  0  0
  186.7860  177.8140  135.3940 C   0  0  0  0  0  3  0  0  0  0  0  0
  186.2460  176.8740  137.6200 O   0  0  0  0  0  1  0  0  0  0  0  0
  188.8420  177.1300  135.2260 N   0  0  0  0  0  0  0  0  0  0  0  0
  188.3930  176.6940  136.4120 C   0  0  0  0  0  0  0  0  0  0  0  0
  187.8890  177.8100  134.6080 N   0  0  0  0  0  0  0  0  0  0  0  0
  193.1500  174.7680  135.8180 C   0  0  0  0  0  2  0  0  0  0  0  0
  192.6680  173.3540  135.7630 C   0  0  0  0  0  0  0  0  0  0  0  0
  191.5190  172.9960  136.3440 C   0  0  0  0  0  3  0  0  0  0  0  0
  190.9570  175.8940  135.4650 C   0  0  0  0  0  0  0  0  0  0  0  0
  190.5430  173.9170  136.9600 C   0  0  0  0  0  3  0  0  0  0  0  0
  190.3100  175.1940  136.6210 C   0  0  0  0  0  0  0  0  0  0  0  0
  193.5300  172.3300  135.1470 C   0  0  0  0  0  0  0  0  0  0  0  0
  193.1200  171.0030  135.1140 O   0  0  0  0  0  1  0  0  0  0  0  0
  194.6440  172.6440  134.6450 O   0  0  0  0  0  0  0  0  0  0  0  0
  189.8420  176.8090  138.4300 C   0  0  0  0  0  2  0  0  0  0  0  0
  191.1430  177.8700  142.4480 C   0  0  0  0  0  2  0  0  0  0  0  0
  188.2220  177.4760  141.8980 C   0  0  0  0  0  2  0  0  0  0  0  0
  189.7590  177.2690  145.9220 C   0  0  0  0  0  0  0  0  0  0  0  0
  188.7770  177.3190  139.3940 C   0  0  2  0  0  3  0  0  0  0  0  0
  190.6440  177.5060  144.8660 C   0  0  0  0  0  3  0  0  0  0  0  0
  190.1720  177.5730  143.5510 C   0  0  0  0  0  0  0  0  0  0  0  0
  189.1550  178.7130  139.8770 C   0  0  0  0  0  2  0  0  0  0  0  0
  187.9120  177.1970  144.3560 C   0  0  0  0  0  3  0  0  0  0  0  0
  188.7900  177.4230  143.2920 C   0  0  0  0  0  0  0  0  0  0  0  0
  188.3920  177.1210  145.6660 C   0  0  0  0  0  3  0  0  0  0  0  0
  189.2940  177.5320  140.8100 C   0  0  1  0  0  0  0  0  0  0  0  0
  190.7380  177.1680  141.1600 C   0  0  0  0  0  2  0  0  0  0  0  0
  190.2690  177.1930  147.3220 C   0  0  0  0  0  2  0  0  0  0  0  0
  191.6610  176.8180  147.3330 N   0  0  0  0  0  0  0  0  0  0  0  0
  191.9770  175.6670  147.2920 O   0  0  0  0  0  0  0  0  0  0  0  0
  1 19  1  1  0  0  0
  2 13  2  0  0  0  0
  2 10  1  0  0  0  0
  3  7  1  0  0  0  0
  3 13  1  0  0  0  0
  4  6  1  0  0  0  0
  5  4  1  0  0  0  0
  7  8  1  0  0  0  0
  8  4  2  0  0  0  0
  8  1  1  0  0  0  0
  9  7  1  0  0  0  0
  9  5  2  0  0  0  0
 11 10  1  0  0  0  0
 11 12  2  0  0  0  0
 12 14  1  0  0  0  0
 13 15  1  0  0  0  0
 15 14  2  0  0  0  0
 15  1  1  0  0  0  0
 16 11  1  0  0  0  0
 17 16  1  0  0  0  0
 18 16  2  0  0  0  0
 20 25  1  0  0  0  0
 21 28  1  0  0  0  0
 22 32  1  0  0  0  0
 23 19  1  6  0  0  0
 23 26  1  0  0  0  0
 23 30  1  0  0  0  0
 24 22  2  0  0  0  0
 25 24  1  0  0  0  0
 27 29  2  0  0  0  0
 28 25  2  0  0  0  0
 28 27  1  0  0  0  0
 29 22  1  0  0  0  0
 30 26  1  6  0  0  0
 30 31  1  0  0  0  0
 30 21  1  0  0  0  0
 31 20  1  0  0  0  0
 32 33  1  0  0  0  0
 34 33  2  0  0  0  0
M  END
>  <MODEL>
6

>  <REMARK>
 VINA RESULT:      -8.1      6.432      7.713
  Name = 
  5 active torsions:
  status: ('A' for Active; 'I' for Inactive)
    1  A    between atoms: C_1  and  C_9
    2  A    between atoms: C_3  and  C_25
    3  A    between atoms: C_7  and  C_11
    4  A    between atoms: C_8  and  C_9
    5  A    between atoms: C_11  and  N_15
                            x       y       z     vdW  Elec       q    Type
                         _______ _______ _______ _____ _____    ______ ____

>  <TORSDO>
F 5

$$$$
=
 OpenBabel10262423323D

 34 39  0  0  1  0  0  0  0  0999 V2000
  181.0930  177.9250  140.8240 C   0  0  1  0  0  3  0  0  0  0  0  0
  181.5070  176.4150  137.3930 C   0  0  0  0  0  3  0  0  0  0  0  0
  180.8330  178.6830  137.9030 C   0  0  0  0  0  2  0  0  0  0  0  0
  180.0930  180.2980  141.0470 C   0  0  0  0  0  0  0  0  0  0  0  0
  179.7050  181.2560  140.1270 C   0  0  0  0  0  3  0  0  0  0  0  0
  180.0370  180.4090  142.4300 O   0  0  0  0  0  1  0  0  0  0  0  0
  180.4270  179.5300  139.0220 N   0  0  0  0  0  0  0  0  0  0  0  0
  180.5480  179.2260  140.3230 C   0  0  0  0  0  0  0  0  0  0  0  0
  179.9290  180.7500  138.8910 N   0  0  0  0  0  0  0  0  0  0  0  0
  181.9040  175.0040  137.6700 C   0  0  0  0  0  2  0  0  0  0  0  0
  180.7490  174.2030  138.1790 C   0  0  0  0  0  0  0  0  0  0  0  0
  180.1700  174.4970  139.3480 C   0  0  0  0  0  3  0  0  0  0  0  0
  181.0790  177.2590  138.3320 C   0  0  0  0  0  0  0  0  0  0  0  0
  180.4740  175.6740  140.1860 C   0  0  0  0  0  3  0  0  0  0  0  0
  180.9080  176.8730  139.7700 C   0  0  0  0  0  0  0  0  0  0  0  0
  180.3180  173.0140  137.4240 C   0  0  0  0  0  0  0  0  0  0  0  0
  179.9250  173.1370  136.0970 O   0  0  0  0  0  0  0  0  0  0  0  0
  180.3010  171.8770  137.9700 O   0  0  0  0  0  1  0  0  0  0  0  0
  182.5740  178.0520  141.1620 C   0  0  0  0  0  2  0  0  0  0  0  0
  186.6510  178.3200  142.6670 C   0  0  0  0  0  2  0  0  0  0  0  0
  184.3550  178.4640  144.5900 C   0  0  0  0  0  2  0  0  0  0  0  0
  188.3200  177.4550  145.9550 C   0  0  0  0  0  0  0  0  0  0  0  0
  182.7580  178.5790  142.5800 C   0  0  2  0  0  3  0  0  0  0  0  0
  188.1090  177.6990  144.5950 C   0  0  0  0  0  3  0  0  0  0  0  0
  186.8320  178.0240  144.1250 C   0  0  0  0  0  0  0  0  0  0  0  0
  183.6470  179.8150  142.5520 C   0  0  0  0  0  2  0  0  0  0  0  0
  185.9780  177.8910  146.3950 C   0  0  0  0  0  3  0  0  0  0  0  0
  185.7540  178.1270  145.0340 C   0  0  0  0  0  0  0  0  0  0  0  0
  187.2540  177.5570  146.8550 C   0  0  0  0  0  3  0  0  0  0  0  0
  184.1980  178.5070  143.0710 C   0  0  1  0  0  0  0  0  0  0  0  0
  185.2760  177.8780  142.1860 C   0  0  0  0  0  2  0  0  0  0  0  0
  189.6830  177.1030  146.4490 C   0  0  0  0  0  2  0  0  0  0  0  0
  190.6250  177.0820  145.3590 N   0  0  0  0  0  0  0  0  0  0  0  0
  191.5930  177.7810  145.3830 O   0  0  0  0  0  0  0  0  0  0  0  0
  1 19  1  6  0  0  0
  2 10  1  0  0  0  0
  2 13  2  0  0  0  0
  3 13  1  0  0  0  0
  3  7  1  0  0  0  0
  4  6  1  0  0  0  0
  5  4  1  0  0  0  0
  7  8  1  0  0  0  0
  8  1  1  0  0  0  0
  8  4  2  0  0  0  0
  9  7  1  0  0  0  0
  9  5  2  0  0  0  0
 10 11  1  0  0  0  0
 11 12  2  0  0  0  0
 12 14  1  0  0  0  0
 13 15  1  0  0  0  0
 15 14  2  0  0  0  0
 15  1  1  0  0  0  0
 16 18  1  0  0  0  0
 16 11  1  0  0  0  0
 17 16  2  0  0  0  0
 20 25  1  0  0  0  0
 21 28  1  0  0  0  0
 22 32  1  0  0  0  0
 22 29  1  0  0  0  0
 23 19  1  6  0  0  0
 23 30  1  0  0  0  0
 24 22  2  0  0  0  0
 25 24  1  0  0  0  0
 25 28  2  0  0  0  0
 26 23  1  0  0  0  0
 26 30  1  0  0  0  0
 27 29  2  0  0  0  0
 28 27  1  0  0  0  0
 30 31  1  6  0  0  0
 30 21  1  0  0  0  0
 31 20  1  0  0  0  0
 33 34  2  0  0  0  0
 33 32  1  0  0  0  0
M  END
>  <MODEL>
7

>  <REMARK>
 VINA RESULT:      -7.9      1.745      2.169
  Name = 
  5 active torsions:
  status: ('A' for Active; 'I' for Inactive)
    1  A    between atoms: C_1  and  C_9
    2  A    between atoms: C_3  and  C_25
    3  A    between atoms: C_7  and  C_11
    4  A    between atoms: C_8  and  C_9
    5  A    between atoms: C_11  and  N_15
                            x       y       z     vdW  Elec       q    Type
                         _______ _______ _______ _____ _____    ______ ____

>  <TORSDO>
F 5

$$$$
=
 OpenBabel10262423323D

 34 39  0  0  1  0  0  0  0  0999 V2000
  190.0730  176.7660  139.5460 C   0  0  1  0  0  3  0  0  0  0  0  0
  191.5720  178.2890  142.6530 C   0  0  0  0  0  3  0  0  0  0  0  0
  192.7720  177.5030  140.7040 C   0  0  0  0  0  2  0  0  0  0  0  0
  191.6390  175.7680  137.7460 C   0  0  0  0  0  0  0  0  0  0  0  0
  193.0130  175.7190  137.6060 C   0  0  0  0  0  3  0  0  0  0  0  0
  190.6970  175.2550  136.8630 O   0  0  0  0  0  1  0  0  0  0  0  0
  192.5750  176.7540  139.4650 N   0  0  0  0  0  0  0  0  0  0  0  0
  191.3910  176.4300  138.9220 C   0  0  0  0  0  0  0  0  0  0  0  0
  193.5570  176.3390  138.6800 N   0  0  0  0  0  0  0  0  0  0  0  0
  190.3900  178.5580  143.5230 C   0  0  0  0  0  2  0  0  0  0  0  0
  189.8300  177.2930  144.0870 C   0  0  0  0  0  0  0  0  0  0  0  0
  189.3000  176.3590  143.2900 C   0  0  0  0  0  3  0  0  0  0  0  0
  191.5110  177.5780  141.5260 C   0  0  0  0  0  0  0  0  0  0  0  0
  189.3240  176.3750  141.8130 C   0  0  0  0  0  3  0  0  0  0  0  0
  190.2550  176.9340  141.0250 C   0  0  0  0  0  0  0  0  0  0  0  0
  189.7710  177.1280  145.5500 C   0  0  0  0  0  0  0  0  0  0  0  0
  190.9410  176.9380  146.2760 O   0  0  0  0  0  1  0  0  0  0  0  0
  188.6660  177.1590  146.1570 O   0  0  0  0  0  0  0  0  0  0  0  0
  189.5030  178.0490  138.9530 C   0  0  0  0  0  2  0  0  0  0  0  0
  185.2140  178.7880  139.0600 C   0  0  0  0  0  2  0  0  0  0  0  0
  186.3670  177.1030  136.8640 C   0  0  0  0  0  2  0  0  0  0  0  0
  182.1710  176.8920  137.8370 C   0  0  0  0  0  0  0  0  0  0  0  0
  188.7150  177.7520  137.6830 C   0  0  2  0  0  3  0  0  0  0  0  0
  182.9990  177.7470  138.5710 C   0  0  0  0  0  3  0  0  0  0  0  0
  184.3640  177.8310  138.2790 C   0  0  0  0  0  0  0  0  0  0  0  0
  188.0090  179.0170  137.2150 C   0  0  0  0  0  2  0  0  0  0  0  0
  184.0660  176.2210  136.4860 C   0  0  0  0  0  3  0  0  0  0  0  0
  184.9050  177.0640  137.2210 C   0  0  0  0  0  0  0  0  0  0  0  0
  182.7050  176.1340  136.7900 C   0  0  0  0  0  3  0  0  0  0  0  0
  187.2100  177.9060  137.8540 C   0  0  1  0  0  0  0  0  0  0  0  0
  186.6280  178.2530  139.2260 C   0  0  0  0  0  2  0  0  0  0  0  0
  180.7170  176.8030  138.1570 C   0  0  0  0  0  2  0  0  0  0  0  0
  180.5250  176.3820  139.5220 N   0  0  0  0  0  0  0  0  0  0  0  0
  180.7490  175.2540  139.8430 O   0  0  0  0  0  0  0  0  0  0  0  0
  1 19  1  6  0  0  0
  1 15  1  0  0  0  0
  2 10  1  0  0  0  0
  3 13  1  0  0  0  0
  4  8  2  0  0  0  0
  5  4  1  0  0  0  0
  5  9  2  0  0  0  0
  6  4  1  0  0  0  0
  7  3  1  0  0  0  0
  8  7  1  0  0  0  0
  8  1  1  0  0  0  0
  9  7  1  0  0  0  0
 10 11  1  0  0  0  0
 11 16  1  0  0  0  0
 12 11  2  0  0  0  0
 13  2  2  0  0  0  0
 14 12  1  0  0  0  0
 15 13  1  0  0  0  0
 15 14  2  0  0  0  0
 16 18  2  0  0  0  0
 16 17  1  0  0  0  0
 20 31  1  0  0  0  0
 21 28  1  0  0  0  0
 22 32  1  0  0  0  0
 22 24  1  0  0  0  0
 23 30  1  0  0  0  0
 23 19  1  1  0  0  0
 25 24  2  0  0  0  0
 25 20  1  0  0  0  0
 26 23  1  0  0  0  0
 26 30  1  0  0  0  0
 27 29  1  0  0  0  0
 27 28  2  0  0  0  0
 28 25  1  0  0  0  0
 29 22  2  0  0  0  0
 30 21  1  6  0  0  0
 30 31  1  0  0  0  0
 32 33  1  0  0  0  0
 33 34  2  0  0  0  0
M  END
>  <MODEL>
8

>  <REMARK>
 VINA RESULT:      -7.7      4.356     10.431
  Name = 
  5 active torsions:
  status: ('A' for Active; 'I' for Inactive)
    1  A    between atoms: C_1  and  C_9
    2  A    between atoms: C_3  and  C_25
    3  A    between atoms: C_7  and  C_11
    4  A    between atoms: C_8  and  C_9
    5  A    between atoms: C_11  and  N_15
                            x       y       z     vdW  Elec       q    Type
                         _______ _______ _______ _____ _____    ______ ____

>  <TORSDO>
F 5

$$$$
=
 OpenBabel10262423323D

 34 39  0  0  1  0  0  0  0  0999 V2000
  182.0200  178.1230  141.2380 C   0  0  1  0  0  3  0  0  0  0  0  0
  181.8560  178.5210  137.4920 C   0  0  0  0  0  3  0  0  0  0  0  0
  180.5080  179.6850  139.1300 C   0  0  0  0  0  2  0  0  0  0  0  0
  180.2560  179.3050  142.7120 C   0  0  0  0  0  0  0  0  0  0  0  0
  179.2210  180.1800  142.4370 C   0  0  0  0  0  3  0  0  0  0  0  0
  180.6250  178.8270  143.9630 O   0  0  0  0  0  1  0  0  0  0  0  0
  180.1840  179.6810  140.5550 N   0  0  0  0  0  0  0  0  0  0  0  0
  180.8480  179.0130  141.5100 C   0  0  0  0  0  0  0  0  0  0  0  0
  179.2090  180.3920  141.1000 N   0  0  0  0  0  0  0  0  0  0  0  0
  182.8750  177.5550  136.9860 C   0  0  0  0  0  2  0  0  0  0  0  0
  182.4050  176.1440  137.1280 C   0  0  0  0  0  0  0  0  0  0  0  0
  182.1840  175.6100  138.3330 C   0  0  0  0  0  3  0  0  0  0  0  0
  181.4550  178.5710  138.7620 C   0  0  0  0  0  0  0  0  0  0  0  0
  182.2270  176.3380  139.6170 C   0  0  0  0  0  3  0  0  0  0  0  0
  181.9530  177.6350  139.8210 C   0  0  0  0  0  0  0  0  0  0  0  0
  182.2870  175.3070  135.9210 C   0  0  0  0  0  0  0  0  0  0  0  0
  182.0560  173.9420  136.0410 O   0  0  0  0  0  1  0  0  0  0  0  0
  182.3920  175.8160  134.7720 O   0  0  0  0  0  0  0  0  0  0  0  0
  183.3300  178.8700  141.4580 C   0  0  0  0  0  2  0  0  0  0  0  0
  187.6680  179.2470  141.4190 C   0  0  0  0  0  2  0  0  0  0  0  0
  186.3710  177.3080  143.3040 C   0  0  0  0  0  2  0  0  0  0  0  0
  190.5340  176.9120  142.2470 C   0  0  0  0  0  0  0  0  0  0  0  0
  184.0890  178.2880  142.6440 C   0  0  2  0  0  3  0  0  0  0  0  0
  189.7840  177.9500  141.6860 C   0  0  0  0  0  3  0  0  0  0  0  0
  188.4310  178.0980  142.0080 C   0  0  0  0  0  0  0  0  0  0  0  0
  184.9020  179.3870  143.3160 C   0  0  0  0  0  2  0  0  0  0  0  0
  188.5860  176.1790  143.4880 C   0  0  0  0  0  3  0  0  0  0  0  0
  187.8250  177.2070  142.9240 C   0  0  0  0  0  0  0  0  0  0  0  0
  189.9350  176.0310  143.1530 C   0  0  0  0  0  3  0  0  0  0  0  0
  185.6020  178.3410  142.4810 C   0  0  1  0  0  0  0  0  0  0  0  0
  186.2120  178.8720  141.1820 C   0  0  0  0  0  2  0  0  0  0  0  0
  191.9750  176.7560  141.8950 C   0  0  0  0  0  2  0  0  0  0  0  0
  192.3140  177.5930  140.7710 N   0  0  0  0  0  0  0  0  0  0  0  0
  192.5170  177.1100  139.6980 O   0  0  0  0  0  0  0  0  0  0  0  0
  1 19  1  6  0  0  0
  1  8  1  0  0  0  0
  2 13  2  0  0  0  0
  3  7  1  0  0  0  0
  4  6  1  0  0  0  0
  5  4  1  0  0  0  0
  7  9  1  0  0  0  0
  7  8  1  0  0  0  0
  8  4  2  0  0  0  0
  9  5  2  0  0  0  0
 10 11  1  0  0  0  0
 10  2  1  0  0  0  0
 11 12  2  0  0  0  0
 12 14  1  0  0  0  0
 13  3  1  0  0  0  0
 13 15  1  0  0  0  0
 14 15  2  0  0  0  0
 15  1  1  0  0  0  0
 16 17  1  0  0  0  0
 16 11  1  0  0  0  0
 18 16  2  0  0  0  0
 20 25  1  0  0  0  0
 22 29  1  0  0  0  0
 23 19  1  6  0  0  0
 23 26  1  0  0  0  0
 24 25  1  0  0  0  0
 24 22  2  0  0  0  0
 25 28  2  0  0  0  0
 28 21  1  0  0  0  0
 28 27  1  0  0  0  0
 29 27  2  0  0  0  0
 30 31  1  6  0  0  0
 30 23  1  0  0  0  0
 30 21  1  0  0  0  0
 30 26  1  0  0  0  0
 31 20  1  0  0  0  0
 32 22  1  0  0  0  0
 33 32  1  0  0  0  0
 34 33  2  0  0  0  0
M  END
>  <MODEL>
9

>  <REMARK>
 VINA RESULT:      -7.6      2.246      2.587
  Name = 
  5 active torsions:
  status: ('A' for Active; 'I' for Inactive)
    1  A    between atoms: C_1  and  C_9
    2  A    between atoms: C_3  and  C_25
    3  A    between atoms: C_7  and  C_11
    4  A    between atoms: C_8  and  C_9
    5  A    between atoms: C_11  and  N_15
                            x       y       z     vdW  Elec       q    Type
                         _______ _______ _______ _____ _____    ______ ____

>  <TORSDO>
F 5

$$$$
