=
 OpenBabel10262420593D

 28 30  0  0  1  0  0  0  0  0999 V2000
  187.7480  179.1300  137.4370 C   0  0  0  0  0  1  0  0  0  0  0  0
  190.4900  176.8170  138.6800 N   0  0  0  0  0  0  0  0  0  0  0  0
  189.7500  177.1490  136.3270 C   0  0  0  0  0  1  0  0  0  0  0  0
  188.3290  178.3770  139.7320 C   0  0  2  0  0  3  0  0  0  0  0  0
  190.4580  177.1530  140.1000 C   0  0  0  0  0  2  0  0  0  0  0  0
  187.0160  178.5910  140.1670 O   0  0  0  0  0  1  0  0  0  0  0  0
  188.3330  177.9830  138.2460 C   0  0  1  0  0  0  0  0  0  0  0  0
  187.5370  176.8480  138.0630 O   0  0  0  0  0  1  0  0  0  0  0  0
  189.7700  177.7070  137.7530 C   0  0  1  0  0  3  0  0  0  0  0  0
  189.0220  177.3100  140.5940 C   0  0  1  0  0  3  0  0  0  0  0  0
  188.9570  177.6710  142.0940 C   0  0  2  0  0  3  0  0  0  0  0  0
  190.3530  177.8230  142.7660 C   0  0  2  0  0  3  0  0  0  0  0  0
  189.6800  176.8610  145.0910 C   0  0  0  0  0  2  0  0  0  0  0  0
  188.6740  177.8200  144.9020 O   0  0  0  0  0  0  0  0  0  0  0  0
  187.6180  177.1830  144.2260 C   0  0  0  0  0  2  0  0  0  0  0  0
  190.9360  175.4570  143.4290 C   0  0  0  0  0  1  0  0  0  0  0  0
  188.0100  176.7040  142.8190 C   0  0  0  0  0  2  0  0  0  0  0  0
  190.6900  176.8670  143.9290 C   0  0  1  0  0  3  0  0  0  0  0  0
  190.5420  179.1480  143.1720 O   0  0  0  0  0  0  0  0  0  0  0  0
  191.7370  179.1440  143.8890 C   0  0  0  0  0  1  0  0  0  0  0  0
  192.8760  176.5510  138.3240 N   0  0  0  0  0  0  0  0  0  0  0  0
  191.4350  174.7210  137.7860 C   0  0  0  0  0  0  0  0  0  0  0  0
  193.8270  174.5180  137.5120 C   0  0  0  0  0  0  0  0  0  0  0  0
  191.6160  176.0340  138.2500 C   0  0  0  0  0  0  0  0  0  0  0  0
  192.5500  173.9640  137.4190 C   0  0  0  0  0  3  0  0  0  0  0  0
  190.1640  174.1700  137.6790 O   0  0  0  0  0  1  0  0  0  0  0  0
  194.9410  173.7720  137.1530 O   0  0  0  0  0  1  0  0  0  0  0  0
  193.9720  175.8300  137.9650 C   0  0  0  0  0  3  0  0  0  0  0  0
  2  5  1  0  0  0  0
  4  6  1  1  0  0  0
  4 10  1  0  0  0  0
  7  1  1  6  0  0  0
  7  4  1  0  0  0  0
  8  7  1  0  0  0  0
  9  3  1  6  0  0  0
  9  7  1  0  0  0  0
  9  2  1  0  0  0  0
 10  5  1  6  0  0  0
 10 11  1  0  0  0  0
 11 12  1  0  0  0  0
 11 17  1  1  0  0  0
 12 19  1  1  0  0  0
 12 18  1  0  0  0  0
 14 13  1  0  0  0  0
 15 14  1  0  0  0  0
 17 15  1  0  0  0  0
 18 16  1  6  0  0  0
 18 13  1  0  0  0  0
 19 20  1  0  0  0  0
 22 24  2  0  0  0  0
 23 28  1  0  0  0  0
 24 21  1  0  0  0  0
 24  2  1  0  0  0  0
 25 23  2  0  0  0  0
 25 22  1  0  0  0  0
 26 22  1  0  0  0  0
 27 23  1  0  0  0  0
 28 21  2  0  0  0  0
M  END
>  <MODEL>
1

>  <REMARK>
 VINA RESULT:      -7.4      0.000      0.000
  Name = 
  3 active torsions:
  status: ('A' for Active; 'I' for Inactive)
    1  A    between atoms: C_1  and  C_27
    2  A    between atoms: O_2  and  C_3
    3  A    between atoms: N_10  and  C_13
                            x       y       z     vdW  Elec       q    Type
                         _______ _______ _______ _____ _____    ______ ____

>  <TORSDO>
F 3

$$$$
=
 OpenBabel10262420593D

 28 30  0  0  1  0  0  0  0  0999 V2000
  185.6810  179.6100  146.9630 C   0  0  0  0  0  1  0  0  0  0  0  0
  185.5420  178.3670  143.3780 N   0  0  0  0  0  0  0  0  0  0  0  0
  183.7520  179.5610  144.6290 C   0  0  0  0  0  1  0  0  0  0  0  0
  187.1760  178.0700  145.7130 C   0  0  2  0  0  3  0  0  0  0  0  0
  186.8990  177.8450  143.2560 C   0  0  0  0  0  2  0  0  0  0  0  0
  187.5870  177.4550  146.9010 O   0  0  0  0  0  1  0  0  0  0  0  0
  185.7300  178.5720  145.8530 C   0  0  1  0  0  0  0  0  0  0  0  0
  184.8970  177.5030  146.1950 O   0  0  0  0  0  1  0  0  0  0  0  0
  185.2420  179.2220  144.5390 C   0  0  1  0  0  3  0  0  0  0  0  0
  187.3200  177.1070  144.5240 C   0  0  1  0  0  3  0  0  0  0  0  0
  188.7560  176.5480  144.4250 C   0  0  2  0  0  3  0  0  0  0  0  0
  189.7770  177.2690  145.3530 C   0  0  2  0  0  3  0  0  0  0  0  0
  191.8200  177.1050  143.7460 C   0  0  0  0  0  2  0  0  0  0  0  0
  191.3900  175.7690  143.7610 O   0  0  0  0  0  0  0  0  0  0  0  0
  190.4450  175.6280  142.7300 C   0  0  0  0  0  2  0  0  0  0  0  0
  190.5240  179.2440  143.9680 C   0  0  0  0  0  1  0  0  0  0  0  0
  189.1830  176.4770  142.9520 C   0  0  0  0  0  2  0  0  0  0  0  0
  190.9690  177.9820  144.6810 C   0  0  1  0  0  3  0  0  0  0  0  0
  190.2460  176.3770  146.3240 O   0  0  0  0  0  0  0  0  0  0  0  0
  190.9220  177.1680  147.2510 C   0  0  0  0  0  1  0  0  0  0  0  0
  183.4910  178.1130  142.1050 N   0  0  0  0  0  0  0  0  0  0  0  0
  185.4150  179.0030  140.9980 C   0  0  0  0  0  0  0  0  0  0  0  0
  183.3200  178.7700  139.8160 C   0  0  0  0  0  0  0  0  0  0  0  0
  184.8040  178.4810  142.1500 C   0  0  0  0  0  0  0  0  0  0  0  0
  184.6640  179.1470  139.8300 C   0  0  0  0  0  3  0  0  0  0  0  0
  186.7560  179.3670  141.0030 O   0  0  0  0  0  1  0  0  0  0  0  0
  182.5650  178.9140  138.6600 O   0  0  0  0  0  1  0  0  0  0  0  0
  182.7460  178.2430  140.9730 C   0  0  0  0  0  3  0  0  0  0  0  0
  2  9  1  0  0  0  0
  4  7  1  0  0  0  0
  4  6  1  1  0  0  0
  5  2  1  0  0  0  0
  7  8  1  0  0  0  0
  7  1  1  1  0  0  0
  9  3  1  1  0  0  0
  9  7  1  0  0  0  0
 10  5  1  6  0  0  0
 10  4  1  0  0  0  0
 11 17  1  6  0  0  0
 11 10  1  0  0  0  0
 11 12  1  0  0  0  0
 12 19  1  1  0  0  0
 13 14  1  0  0  0  0
 13 18  1  0  0  0  0
 15 17  1  0  0  0  0
 15 14  1  0  0  0  0
 18 16  1  6  0  0  0
 18 12  1  0  0  0  0
 19 20  1  0  0  0  0
 21 24  1  0  0  0  0
 22 26  1  0  0  0  0
 22 24  2  0  0  0  0
 23 25  2  0  0  0  0
 23 28  1  0  0  0  0
 24  2  1  0  0  0  0
 25 22  1  0  0  0  0
 27 23  1  0  0  0  0
 28 21  2  0  0  0  0
M  END
>  <MODEL>
2

>  <REMARK>
 VINA RESULT:      -6.8      4.497      7.378
  Name = 
  3 active torsions:
  status: ('A' for Active; 'I' for Inactive)
    1  A    between atoms: C_1  and  C_27
    2  A    between atoms: O_2  and  C_3
    3  A    between atoms: N_10  and  C_13
                            x       y       z     vdW  Elec       q    Type
                         _______ _______ _______ _____ _____    ______ ____

>  <TORSDO>
F 3

$$$$
=
 OpenBabel10262420593D

 28 30  0  0  1  0  0  0  0  0999 V2000
  184.2550  178.2960  141.8880 C   0  0  0  0  0  1  0  0  0  0  0  0
  188.0150  177.8880  142.2150 N   0  0  0  0  0  0  0  0  0  0  0  0
  186.3840  178.3430  144.0390 C   0  0  0  0  0  1  0  0  0  0  0  0
  186.0450  178.2540  140.1670 C   0  0  2  0  0  3  0  0  0  0  0  0
  188.3410  177.5770  140.8270 C   0  0  0  0  0  2  0  0  0  0  0  0
  185.2580  179.0050  139.2860 O   0  0  0  0  0  1  0  0  0  0  0  0
  185.7130  178.6300  141.6200 C   0  0  1  0  0  0  0  0  0  0  0  0
  185.9050  180.0030  141.8000 O   0  0  0  0  0  1  0  0  0  0  0  0
  186.5970  177.8380  142.6100 C   0  0  1  0  0  3  0  0  0  0  0  0
  187.5390  178.4510  139.8660 C   0  0  1  0  0  3  0  0  0  0  0  0
  187.8600  178.1400  138.3870 C   0  0  2  0  0  3  0  0  0  0  0  0
  187.9970  176.6200  138.0800 C   0  0  2  0  0  3  0  0  0  0  0  0
  189.8730  176.8390  136.2870 C   0  0  0  0  0  2  0  0  0  0  0  0
  188.9380  177.7650  135.8020 O   0  0  0  0  0  0  0  0  0  0  0  0
  189.2330  179.0020  136.4020 C   0  0  0  0  0  2  0  0  0  0  0  0
  190.4110  176.1320  138.6370 C   0  0  0  0  0  1  0  0  0  0  0  0
  189.0550  178.9870  137.9290 C   0  0  0  0  0  2  0  0  0  0  0  0
  189.3570  176.1220  137.5470 C   0  0  1  0  0  3  0  0  0  0  0  0
  186.9740  176.2180  137.2150 O   0  0  0  0  0  0  0  0  0  0  0  0
  187.0220  174.8250  137.2140 C   0  0  0  0  0  1  0  0  0  0  0  0
  189.8140  178.7190  143.6170 N   0  0  0  0  0  0  0  0  0  0  0  0
  189.3180  176.3810  143.6700 C   0  0  0  0  0  0  0  0  0  0  0  0
  191.0570  177.2970  145.0760 C   0  0  0  0  0  0  0  0  0  0  0  0
  189.0690  177.6680  143.1670 C   0  0  0  0  0  0  0  0  0  0  0  0
  190.3160  176.2010  144.6290 C   0  0  0  0  0  3  0  0  0  0  0  0
  188.5930  175.2850  143.2190 O   0  0  0  0  0  1  0  0  0  0  0  0
  192.0480  177.1280  146.0320 O   0  0  0  0  0  1  0  0  0  0  0  0
  190.7930  178.5600  144.5480 C   0  0  0  0  0  3  0  0  0  0  0  0
  2  9  1  0  0  0  0
  2 24  1  0  0  0  0
  4  6  1  6  0  0  0
  4  7  1  0  0  0  0
  5  2  1  0  0  0  0
  7  8  1  0  0  0  0
  7  1  1  1  0  0  0
  7  9  1  0  0  0  0
  9  3  1  1  0  0  0
 10  4  1  0  0  0  0
 10  5  1  1  0  0  0
 11 17  1  1  0  0  0
 11 10  1  0  0  0  0
 12 19  1  6  0  0  0
 12 11  1  0  0  0  0
 13 18  1  0  0  0  0
 14 13  1  0  0  0  0
 14 15  1  0  0  0  0
 15 17  1  0  0  0  0
 18 12  1  0  0  0  0
 18 16  1  1  0  0  0
 20 19  1  0  0  0  0
 21 28  1  0  0  0  0
 22 25  2  0  0  0  0
 23 27  1  0  0  0  0
 24 21  2  0  0  0  0
 24 22  1  0  0  0  0
 25 23  1  0  0  0  0
 26 22  1  0  0  0  0
 28 23  2  0  0  0  0
M  END
>  <MODEL>
3

>  <REMARK>
 VINA RESULT:      -6.4      2.841      6.488
  Name = 
  3 active torsions:
  status: ('A' for Active; 'I' for Inactive)
    1  A    between atoms: C_1  and  C_27
    2  A    between atoms: O_2  and  C_3
    3  A    between atoms: N_10  and  C_13
                            x       y       z     vdW  Elec       q    Type
                         _______ _______ _______ _____ _____    ______ ____

>  <TORSDO>
F 3

$$$$
=
 OpenBabel10262420593D

 28 30  0  0  1  0  0  0  0  0999 V2000
  191.6640  177.7320  141.6520 C   0  0  0  0  0  1  0  0  0  0  0  0
  187.8770  177.9640  141.7890 N   0  0  0  0  0  0  0  0  0  0  0  0
  189.4490  177.8310  143.7140 C   0  0  0  0  0  1  0  0  0  0  0  0
  189.9500  177.4590  139.8750 C   0  0  2  0  0  3  0  0  0  0  0  0
  187.5950  178.0820  140.3620 C   0  0  0  0  0  2  0  0  0  0  0  0
  190.8110  176.6510  139.1250 O   0  0  0  0  0  1  0  0  0  0  0  0
  190.2370  177.2850  141.3760 C   0  0  1  0  0  0  0  0  0  0  0  0
  190.1090  175.9370  141.7200 O   0  0  0  0  0  1  0  0  0  0  0  0
  189.2720  178.1420  142.2250 C   0  0  1  0  0  3  0  0  0  0  0  0
  188.4820  177.1420  139.5480 C   0  0  1  0  0  3  0  0  0  0  0  0
  188.2090  177.2490  138.0310 C   0  0  2  0  0  3  0  0  0  0  0  0
  187.1370  178.3150  137.6590 C   0  0  2  0  0  3  0  0  0  0  0  0
  186.0990  177.0170  135.6540 C   0  0  0  0  0  2  0  0  0  0  0  0
  187.4610  176.9680  135.3210 O   0  0  0  0  0  0  0  0  0  0  0  0
  187.9910  175.8120  135.9200 C   0  0  0  0  0  2  0  0  0  0  0  0
  184.9620  177.0550  137.8930 C   0  0  0  0  0  1  0  0  0  0  0  0
  187.9360  175.8520  137.4560 C   0  0  0  0  0  2  0  0  0  0  0  0
  185.8620  177.8220  136.9450 C   0  0  1  0  0  3  0  0  0  0  0  0
  187.7290  179.3410  136.9160 O   0  0  0  0  0  0  0  0  0  0  0  0
  189.0950  179.2380  137.1730 C   0  0  0  0  0  1  0  0  0  0  0  0
  186.7650  177.7340  143.9340 N   0  0  0  0  0  0  0  0  0  0  0  0
  185.7130  179.0590  142.2440 C   0  0  0  0  0  0  0  0  0  0  0  0
  184.6990  178.8240  144.4240 C   0  0  0  0  0  0  0  0  0  0  0  0
  186.7730  178.2400  142.6670 C   0  0  0  0  0  0  0  0  0  0  0  0
  184.6760  179.3500  143.1320 C   0  0  0  0  0  3  0  0  0  0  0  0
  185.6790  179.5730  140.9540 O   0  0  0  0  0  1  0  0  0  0  0  0
  183.6740  179.1120  145.3150 O   0  0  0  0  0  1  0  0  0  0  0  0
  185.7590  178.0040  144.8100 C   0  0  0  0  0  3  0  0  0  0  0  0
  2  9  1  0  0  0  0
  2 24  1  0  0  0  0
  4  6  1  6  0  0  0
  4  7  1  0  0  0  0
  5  2  1  0  0  0  0
  7  1  1  1  0  0  0
  7  8  1  0  0  0  0
  7  9  1  0  0  0  0
  9  3  1  1  0  0  0
 10  4  1  0  0  0  0
 10  5  1  1  0  0  0
 11 17  1  1  0  0  0
 11 10  1  0  0  0  0
 12 19  1  6  0  0  0
 12 11  1  0  0  0  0
 13 18  1  0  0  0  0
 14 13  1  0  0  0  0
 14 15  1  0  0  0  0
 15 17  1  0  0  0  0
 18 12  1  0  0  0  0
 18 16  1  1  0  0  0
 19 20  1  0  0  0  0
 21 28  1  0  0  0  0
 22 24  1  0  0  0  0
 22 25  2  0  0  0  0
 23 28  2  0  0  0  0
 23 27  1  0  0  0  0
 24 21  2  0  0  0  0
 25 23  1  0  0  0  0
 26 22  1  0  0  0  0
M  END
>  <MODEL>
4

>  <REMARK>
 VINA RESULT:      -6.4      3.129      7.680
  Name = 
  3 active torsions:
  status: ('A' for Active; 'I' for Inactive)
    1  A    between atoms: C_1  and  C_27
    2  A    between atoms: O_2  and  C_3
    3  A    between atoms: N_10  and  C_13
                            x       y       z     vdW  Elec       q    Type
                         _______ _______ _______ _____ _____    ______ ____

>  <TORSDO>
F 3

$$$$
=
 OpenBabel10262420593D

 28 30  0  0  1  0  0  0  0  0999 V2000
  187.0080  178.2790  137.5940 C   0  0  0  0  0  1  0  0  0  0  0  0
  189.8560  177.0340  139.7740 N   0  0  0  0  0  0  0  0  0  0  0  0
  188.0150  178.5730  140.4340 C   0  0  0  0  0  1  0  0  0  0  0  0
  189.1150  177.1010  137.0070 C   0  0  2  0  0  3  0  0  0  0  0  0
  190.5090  176.1400  138.8230 C   0  0  0  0  0  2  0  0  0  0  0  0
  189.0920  177.6390  135.7150 O   0  0  0  0  0  1  0  0  0  0  0  0
  188.4610  178.0800  137.9960 C   0  0  1  0  0  0  0  0  0  0  0  0
  189.1200  179.3110  137.9370 O   0  0  0  0  0  1  0  0  0  0  0  0
  188.5080  177.5220  139.4360 C   0  0  1  0  0  3  0  0  0  0  0  0
  190.5530  176.7590  137.4280 C   0  0  1  0  0  3  0  0  0  0  0  0
  191.2350  175.8320  136.3980 C   0  0  2  0  0  3  0  0  0  0  0  0
  191.4520  174.3770  136.9100 C   0  0  2  0  0  3  0  0  0  0  0  0
  193.7150  173.9610  135.6900 C   0  0  0  0  0  2  0  0  0  0  0  0
  192.9260  174.4230  134.6270 O   0  0  0  0  0  0  0  0  0  0  0  0
  193.0560  175.8230  134.5940 C   0  0  0  0  0  2  0  0  0  0  0  0
  193.6530  174.5190  138.1380 C   0  0  0  0  0  1  0  0  0  0  0  0
  192.5020  176.5060  135.8550 C   0  0  0  0  0  2  0  0  0  0  0  0
  192.9050  173.8640  136.9950 C   0  0  1  0  0  3  0  0  0  0  0  0
  190.6790  173.4900  136.1530 O   0  0  0  0  0  0  0  0  0  0  0  0
  189.4740  173.3760  136.8430 C   0  0  0  0  0  1  0  0  0  0  0  0
  189.4620  176.3990  142.0830 N   0  0  0  0  0  0  0  0  0  0  0  0
  191.5940  177.3130  141.5030 C   0  0  0  0  0  0  0  0  0  0  0  0
  191.1400  176.6060  143.7680 C   0  0  0  0  0  0  0  0  0  0  0  0
  190.2960  176.9220  141.1380 C   0  0  0  0  0  0  0  0  0  0  0  0
  192.0130  177.1500  142.8250 C   0  0  0  0  0  3  0  0  0  0  0  0
  192.4620  177.8680  140.5700 O   0  0  0  0  0  1  0  0  0  0  0  0
  191.5490  176.4370  145.0840 O   0  0  0  0  0  1  0  0  0  0  0  0
  189.8530  176.2380  143.3770 C   0  0  0  0  0  3  0  0  0  0  0  0
  2 24  1  0  0  0  0
  4  6  1  6  0  0  0
  4 10  1  0  0  0  0
  4  7  1  0  0  0  0
  5  2  1  0  0  0  0
  7  1  1  6  0  0  0
  7  9  1  0  0  0  0
  8  7  1  0  0  0  0
  9  2  1  0  0  0  0
  9  3  1  1  0  0  0
 10  5  1  1  0  0  0
 11 17  1  1  0  0  0
 11 12  1  0  0  0  0
 11 10  1  0  0  0  0
 12 19  1  6  0  0  0
 12 18  1  0  0  0  0
 13 18  1  0  0  0  0
 14 13  1  0  0  0  0
 15 14  1  0  0  0  0
 15 17  1  0  0  0  0
 18 16  1  1  0  0  0
 19 20  1  0  0  0  0
 21 28  1  0  0  0  0
 22 25  2  0  0  0  0
 23 27  1  0  0  0  0
 24 22  1  0  0  0  0
 24 21  2  0  0  0  0
 25 23  1  0  0  0  0
 26 22  1  0  0  0  0
 28 23  2  0  0  0  0
M  END
>  <MODEL>
5

>  <REMARK>
 VINA RESULT:      -6.3      2.040      6.514
  Name = 
  3 active torsions:
  status: ('A' for Active; 'I' for Inactive)
    1  A    between atoms: C_1  and  C_27
    2  A    between atoms: O_2  and  C_3
    3  A    between atoms: N_10  and  C_13
                            x       y       z     vdW  Elec       q    Type
                         _______ _______ _______ _____ _____    ______ ____

>  <TORSDO>
F 3

$$$$
=
 OpenBabel10262420593D

 28 30  0  0  1  0  0  0  0  0999 V2000
  191.8970  177.1680  142.3400 C   0  0  0  0  0  1  0  0  0  0  0  0
  188.2380  177.8550  143.0800 N   0  0  0  0  0  0  0  0  0  0  0  0
  189.9280  176.8740  144.6210 C   0  0  0  0  0  1  0  0  0  0  0  0
  190.0100  177.7420  140.8310 C   0  0  2  0  0  3  0  0  0  0  0  0
  187.8540  178.4800  141.8190 C   0  0  0  0  0  2  0  0  0  0  0  0
  190.6450  177.1210  139.7500 O   0  0  0  0  0  1  0  0  0  0  0  0
  190.3960  177.0390  142.1430 C   0  0  1  0  0  0  0  0  0  0  0  0
  190.0650  175.6830  142.0590 O   0  0  0  0  0  1  0  0  0  0  0  0
  189.6760  177.6850  143.3470 C   0  0  1  0  0  3  0  0  0  0  0  0
  188.4860  177.7560  140.6330 C   0  0  1  0  0  3  0  0  0  0  0  0
  188.1010  178.3990  139.2830 C   0  0  2  0  0  3  0  0  0  0  0  0
  186.7670  177.8600  138.6870 C   0  0  2  0  0  3  0  0  0  0  0  0
  187.4780  177.9850  136.1850 C   0  0  0  0  0  2  0  0  0  0  0  0
  187.8030  179.2810  136.6150 O   0  0  0  0  0  0  0  0  0  0  0  0
  189.1260  179.2390  137.0880 C   0  0  0  0  0  2  0  0  0  0  0  0
  187.4910  175.7990  137.4200 C   0  0  0  0  0  1  0  0  0  0  0  0
  189.2940  178.3340  138.3200 C   0  0  0  0  0  2  0  0  0  0  0  0
  186.8340  177.1600  137.3130 C   0  0  1  0  0  3  0  0  0  0  0  0
  185.8160  178.8850  138.6510 O   0  0  0  0  0  0  0  0  0  0  0  0
  184.5820  178.2410  138.7120 C   0  0  0  0  0  1  0  0  0  0  0  0
  187.7090  178.0230  145.4430 N   0  0  0  0  0  0  0  0  0  0  0  0
  185.9090  178.0630  143.8700 C   0  0  0  0  0  0  0  0  0  0  0  0
  185.4730  178.2800  146.2360 C   0  0  0  0  0  0  0  0  0  0  0  0
  187.2830  177.9690  144.1490 C   0  0  0  0  0  0  0  0  0  0  0  0
  185.0060  178.2210  144.9220 C   0  0  0  0  0  3  0  0  0  0  0  0
  185.4390  177.9920  142.5640 O   0  0  0  0  0  1  0  0  0  0  0  0
  184.5810  178.4400  147.2880 O   0  0  0  0  0  1  0  0  0  0  0  0
  186.8410  178.1710  146.4810 C   0  0  0  0  0  3  0  0  0  0  0  0
  2  9  1  0  0  0  0
  2 24  1  0  0  0  0
  4  6  1  6  0  0  0
  4  7  1  0  0  0  0
  5  2  1  0  0  0  0
  7  1  1  1  0  0  0
  7  9  1  0  0  0  0
  8  7  1  0  0  0  0
  9  3  1  1  0  0  0
 10  4  1  0  0  0  0
 10  5  1  1  0  0  0
 11 17  1  6  0  0  0
 11 10  1  0  0  0  0
 12 19  1  6  0  0  0
 12 11  1  0  0  0  0
 13 14  1  0  0  0  0
 13 18  1  0  0  0  0
 14 15  1  0  0  0  0
 15 17  1  0  0  0  0
 18 16  1  1  0  0  0
 18 12  1  0  0  0  0
 19 20  1  0  0  0  0
 21 28  1  0  0  0  0
 22 24  1  0  0  0  0
 22 25  2  0  0  0  0
 23 28  2  0  0  0  0
 23 27  1  0  0  0  0
 24 21  2  0  0  0  0
 25 23  1  0  0  0  0
 26 22  1  0  0  0  0
M  END
>  <MODEL>
6

>  <REMARK>
 VINA RESULT:      -6.1      3.310      7.749
  Name = 
  3 active torsions:
  status: ('A' for Active; 'I' for Inactive)
    1  A    between atoms: C_1  and  C_27
    2  A    between atoms: O_2  and  C_3
    3  A    between atoms: N_10  and  C_13
                            x       y       z     vdW  Elec       q    Type
                         _______ _______ _______ _____ _____    ______ ____

>  <TORSDO>
F 3

$$$$
=
 OpenBabel10262420593D

 28 30  0  0  1  0  0  0  0  0999 V2000
  184.9310  179.7000  143.4590 C   0  0  0  0  0  1  0  0  0  0  0  0
  187.1040  178.2030  140.7300 N   0  0  0  0  0  0  0  0  0  0  0  0
  184.9280  179.3770  140.4490 C   0  0  0  0  0  1  0  0  0  0  0  0
  186.8790  178.1660  143.5870 C   0  0  2  0  0  3  0  0  0  0  0  0
  188.2290  177.7540  141.5440 C   0  0  0  0  0  2  0  0  0  0  0  0
  186.4400  177.6600  144.8160 O   0  0  0  0  0  1  0  0  0  0  0  0
  185.6740  178.5920  142.7320 C   0  0  1  0  0  0  0  0  0  0  0  0
  184.8140  177.5030  142.5650 O   0  0  0  0  0  1  0  0  0  0  0  0
  186.1350  179.1190  141.3550 C   0  0  1  0  0  3  0  0  0  0  0  0
  187.7470  177.1320  142.8520 C   0  0  1  0  0  3  0  0  0  0  0  0
  188.9180  176.6510  143.7370 C   0  0  2  0  0  3  0  0  0  0  0  0
  189.2160  177.5840  144.9470 C   0  0  2  0  0  3  0  0  0  0  0  0
  191.8000  177.2620  144.9520 C   0  0  0  0  0  2  0  0  0  0  0  0
  191.3700  175.9260  144.9410 O   0  0  0  0  0  0  0  0  0  0  0  0
  191.2280  175.5500  143.5930 C   0  0  0  0  0  2  0  0  0  0  0  0
  190.7600  179.3260  143.9690 C   0  0  0  0  0  1  0  0  0  0  0  0
  190.1390  176.3470  142.8580 C   0  0  0  0  0  2  0  0  0  0  0  0
  190.6120  178.2380  145.0140 C   0  0  1  0  0  3  0  0  0  0  0  0
  188.9530  176.9070  146.1430 O   0  0  0  0  0  0  0  0  0  0  0  0
  189.0150  177.8820  147.1360 C   0  0  0  0  0  1  0  0  0  0  0  0
  186.2510  178.1460  138.4590 N   0  0  0  0  0  0  0  0  0  0  0  0
  188.6180  178.2530  138.7830 C   0  0  0  0  0  0  0  0  0  0  0  0
  187.6850  178.2480  136.5540 C   0  0  0  0  0  0  0  0  0  0  0  0
  187.3170  178.1880  139.3090 C   0  0  0  0  0  0  0  0  0  0  0  0
  188.7950  178.2850  137.3980 C   0  0  0  0  0  3  0  0  0  0  0  0
  189.7270  178.2760  139.6190 O   0  0  0  0  0  1  0  0  0  0  0  0
  187.8520  178.2820  135.1760 O   0  0  0  0  0  1  0  0  0  0  0  0
  186.4070  178.1710  137.1080 C   0  0  0  0  0  3  0  0  0  0  0  0
  2  9  1  0  0  0  0
  2  5  1  0  0  0  0
  4  6  1  1  0  0  0
  7  1  1  1  0  0  0
  7  4  1  0  0  0  0
  8  7  1  0  0  0  0
  9  3  1  6  0  0  0
  9  7  1  0  0  0  0
 10  5  1  6  0  0  0
 10  4  1  0  0  0  0
 10 11  1  0  0  0  0
 11 17  1  6  0  0  0
 11 12  1  0  0  0  0
 12 18  1  0  0  0  0
 12 19  1  1  0  0  0
 13 18  1  0  0  0  0
 14 13  1  0  0  0  0
 15 14  1  0  0  0  0
 17 15  1  0  0  0  0
 18 16  1  6  0  0  0
 19 20  1  0  0  0  0
 21 24  1  0  0  0  0
 22 24  2  0  0  0  0
 22 26  1  0  0  0  0
 23 28  1  0  0  0  0
 23 25  2  0  0  0  0
 24  2  1  0  0  0  0
 25 22  1  0  0  0  0
 27 23  1  0  0  0  0
 28 21  2  0  0  0  0
M  END
>  <MODEL>
7

>  <REMARK>
 VINA RESULT:      -6.0      3.438      4.934
  Name = 
  3 active torsions:
  status: ('A' for Active; 'I' for Inactive)
    1  A    between atoms: C_1  and  C_27
    2  A    between atoms: O_2  and  C_3
    3  A    between atoms: N_10  and  C_13
                            x       y       z     vdW  Elec       q    Type
                         _______ _______ _______ _____ _____    ______ ____

>  <TORSDO>
F 3

$$$$
=
 OpenBabel10262420593D

 28 30  0  0  1  0  0  0  0  0999 V2000
  189.8230  177.3550  137.2340 C   0  0  0  0  0  1  0  0  0  0  0  0
  186.6430  178.2530  139.1040 N   0  0  0  0  0  0  0  0  0  0  0  0
  187.0670  178.4700  136.6610 C   0  0  0  0  0  1  0  0  0  0  0  0
  189.3740  177.5910  139.6650 C   0  0  2  0  0  3  0  0  0  0  0  0
  187.0270  177.8230  140.4440 C   0  0  0  0  0  2  0  0  0  0  0  0
  190.7200  177.8780  139.9180 O   0  0  0  0  0  1  0  0  0  0  0  0
  188.9820  178.0910  138.2650 C   0  0  1  0  0  0  0  0  0  0  0  0
  189.2440  179.4600  138.1700 O   0  0  0  0  0  1  0  0  0  0  0  0
  187.4890  177.8170  137.9790 C   0  0  1  0  0  3  0  0  0  0  0  0
  188.4740  178.2050  140.7490 C   0  0  1  0  0  3  0  0  0  0  0  0
  188.9100  177.7580  142.1620 C   0  0  2  0  0  3  0  0  0  0  0  0
  187.9300  176.7530  142.8340 C   0  0  2  0  0  3  0  0  0  0  0  0
  188.2270  177.6210  145.2720 C   0  0  0  0  0  2  0  0  0  0  0  0
  189.5660  177.4410  144.8920 O   0  0  0  0  0  0  0  0  0  0  0  0
  189.9950  178.6470  144.3080 C   0  0  0  0  0  2  0  0  0  0  0  0
  186.2120  178.2550  143.9140 C   0  0  0  0  0  1  0  0  0  0  0  0
  189.2350  178.9910  143.0170 C   0  0  0  0  0  2  0  0  0  0  0  0
  187.2610  177.1880  144.1550 C   0  0  1  0  0  3  0  0  0  0  0  0
  188.5640  175.5190  143.0090 O   0  0  0  0  0  0  0  0  0  0  0  0
  189.8710  175.7140  142.5670 C   0  0  0  0  0  1  0  0  0  0  0  0
  184.7670  179.7820  139.2850 N   0  0  0  0  0  0  0  0  0  0  0  0
  184.3840  177.6200  138.3390 C   0  0  0  0  0  0  0  0  0  0  0  0
  182.5820  179.2210  138.5050 C   0  0  0  0  0  0  0  0  0  0  0  0
  185.2500  178.5590  138.9220 C   0  0  0  0  0  0  0  0  0  0  0  0
  183.0460  177.9590  138.1310 C   0  0  0  0  0  3  0  0  0  0  0  0
  184.8380  176.3570  137.9770 O   0  0  0  0  0  1  0  0  0  0  0  0
  181.2540  179.5670  138.2980 O   0  0  0  0  0  1  0  0  0  0  0  0
  183.4640  180.1270  139.0940 C   0  0  0  0  0  3  0  0  0  0  0  0
  2  5  1  0  0  0  0
  4  6  1  1  0  0  0
  4 10  1  0  0  0  0
  7  1  1  6  0  0  0
  7  4  1  0  0  0  0
  8  7  1  0  0  0  0
  9  3  1  6  0  0  0
  9  7  1  0  0  0  0
  9  2  1  0  0  0  0
 10  5  1  6  0  0  0
 10 11  1  0  0  0  0
 11 12  1  0  0  0  0
 11 17  1  1  0  0  0
 12 19  1  1  0  0  0
 12 18  1  0  0  0  0
 14 13  1  0  0  0  0
 15 14  1  0  0  0  0
 17 15  1  0  0  0  0
 18 16  1  6  0  0  0
 18 13  1  0  0  0  0
 20 19  1  0  0  0  0
 22 24  1  0  0  0  0
 23 28  2  0  0  0  0
 24  2  1  0  0  0  0
 24 21  2  0  0  0  0
 25 22  2  0  0  0  0
 25 23  1  0  0  0  0
 26 22  1  0  0  0  0
 27 23  1  0  0  0  0
 28 21  1  0  0  0  0
M  END
>  <MODEL>
8

>  <REMARK>
 VINA RESULT:      -5.9      3.010      5.991
  Name = 
  3 active torsions:
  status: ('A' for Active; 'I' for Inactive)
    1  A    between atoms: C_1  and  C_27
    2  A    between atoms: O_2  and  C_3
    3  A    between atoms: N_10  and  C_13
                            x       y       z     vdW  Elec       q    Type
                         _______ _______ _______ _____ _____    ______ ____

>  <TORSDO>
F 3

$$$$
=
 OpenBabel10262420593D

 28 30  0  0  1  0  0  0  0  0999 V2000
  191.8410  177.3250  142.4870 C   0  0  0  0  0  1  0  0  0  0  0  0
  188.0830  177.8200  142.7110 N   0  0  0  0  0  0  0  0  0  0  0  0
  189.6480  177.2980  144.5750 C   0  0  0  0  0  1  0  0  0  0  0  0
  190.1040  177.4370  140.7160 C   0  0  2  0  0  3  0  0  0  0  0  0
  187.8060  178.1600  141.3200 C   0  0  0  0  0  2  0  0  0  0  0  0
  190.8980  176.6800  139.8460 O   0  0  0  0  0  1  0  0  0  0  0  0
  190.3830  177.0310  142.1720 C   0  0  1  0  0  0  0  0  0  0  0  0
  190.1540  175.6600  142.3250 O   0  0  0  0  0  1  0  0  0  0  0  0
  189.4910  177.8290  143.1480 C   0  0  1  0  0  3  0  0  0  0  0  0
  188.6150  177.2810  140.3680 C   0  0  1  0  0  3  0  0  0  0  0  0
  188.3450  177.6220  138.8860 C   0  0  2  0  0  3  0  0  0  0  0  0
  188.1090  176.3720  137.9870 C   0  0  2  0  0  3  0  0  0  0  0  0
  189.2540  177.3170  135.8460 C   0  0  0  0  0  2  0  0  0  0  0  0
  188.3770  178.3670  136.1610 O   0  0  0  0  0  0  0  0  0  0  0  0
  189.0670  179.2330  137.0280 C   0  0  0  0  0  2  0  0  0  0  0  0
  190.4480  175.6810  137.3320 C   0  0  0  0  0  1  0  0  0  0  0  0
  189.4310  178.5760  138.3690 C   0  0  0  0  0  2  0  0  0  0  0  0
  189.0950  176.1380  136.8230 C   0  0  1  0  0  3  0  0  0  0  0  0
  186.7970  176.3800  137.5020 O   0  0  0  0  0  0  0  0  0  0  0  0
  186.5690  175.0830  137.0450 C   0  0  0  0  0  1  0  0  0  0  0  0
  187.2570  178.1000  144.9760 N   0  0  0  0  0  0  0  0  0  0  0  0
  185.7000  178.2650  143.1690 C   0  0  0  0  0  0  0  0  0  0  0  0
  184.9690  178.5850  145.4490 C   0  0  0  0  0  0  0  0  0  0  0  0
  187.0080  178.0510  143.6360 C   0  0  0  0  0  0  0  0  0  0  0  0
  184.6810  178.5340  144.0840 C   0  0  0  0  0  3  0  0  0  0  0  0
  185.4070  178.2020  141.8120 O   0  0  0  0  0  1  0  0  0  0  0  0
  183.9620  178.8550  146.3660 O   0  0  0  0  0  1  0  0  0  0  0  0
  186.2750  178.3560  145.8820 C   0  0  0  0  0  3  0  0  0  0  0  0
  2  9  1  0  0  0  0
  2 24  1  0  0  0  0
  4  6  1  6  0  0  0
  4  7  1  0  0  0  0
  5  2  1  0  0  0  0
  7  8  1  0  0  0  0
  7  1  1  1  0  0  0
  7  9  1  0  0  0  0
  9  3  1  1  0  0  0
 10  4  1  0  0  0  0
 10  5  1  1  0  0  0
 11 17  1  6  0  0  0
 11 10  1  0  0  0  0
 12 19  1  6  0  0  0
 12 11  1  0  0  0  0
 13 14  1  0  0  0  0
 13 18  1  0  0  0  0
 14 15  1  0  0  0  0
 15 17  1  0  0  0  0
 18 16  1  1  0  0  0
 18 12  1  0  0  0  0
 20 19  1  0  0  0  0
 21 28  1  0  0  0  0
 22 24  1  0  0  0  0
 22 25  2  0  0  0  0
 23 28  2  0  0  0  0
 23 27  1  0  0  0  0
 24 21  2  0  0  0  0
 25 23  1  0  0  0  0
 26 22  1  0  0  0  0
M  END
>  <MODEL>
9

>  <REMARK>
 VINA RESULT:      -5.8      2.715      7.736
  Name = 
  3 active torsions:
  status: ('A' for Active; 'I' for Inactive)
    1  A    between atoms: C_1  and  C_27
    2  A    between atoms: O_2  and  C_3
    3  A    between atoms: N_10  and  C_13
                            x       y       z     vdW  Elec       q    Type
                         _______ _______ _______ _____ _____    ______ ____

>  <TORSDO>
F 3

$$$$
