=
 OpenBabel10262421143D

 32 37  0  0  1  0  0  0  0  0999 V2000
  190.6210  176.9660  142.7870 C   0  0  2  0  0  3  0  0  0  0  0  0
  189.5400  178.0920  144.8510 C   0  0  2  0  0  3  0  0  0  0  0  0
  190.6450  175.4510  142.9140 C   0  0  0  0  0  2  0  0  0  0  0  0
  190.8160  177.7000  144.1430 C   0  0  1  0  0  3  0  0  0  0  0  0
  189.5730  177.4370  146.1360 N   0  0  2  0  0  0  0  0  0  0  0  0
  184.6770  178.1780  145.4660 C   0  0  0  0  0  3  0  0  0  0  0  0
  188.2350  177.8200  144.1980 C   0  0  0  0  0  0  0  0  0  0  0  0
  186.2100  178.3960  147.3350 C   0  0  0  0  0  3  0  0  0  0  0  0
  187.2930  178.1930  146.4760 C   0  0  0  0  0  0  0  0  0  0  0  0
  191.6820  177.0720  145.1720 N   0  0  2  0  0  0  0  0  0  0  0  0
  188.7160  178.2270  147.0210 C   0  0  0  0  0  2  0  0  0  0  0  0
  191.6380  175.5950  145.1210 C   0  0  0  0  0  2  0  0  0  0  0  0
  188.1730  177.5580  142.8910 C   0  0  0  0  0  3  0  0  0  0  0  0
  189.3810  177.3960  142.1220 N   0  0  0  0  0  0  0  0  0  0  0  0
  187.0630  177.9970  145.0860 C   0  0  0  0  0  0  0  0  0  0  0  0
  190.9970  177.5110  146.4110 C   0  0  2  0  0  3  0  0  0  0  0  0
  191.8530  175.0520  143.7230 C   0  0  0  0  0  2  0  0  0  0  0  0
  184.9070  178.3890  146.8310 C   0  0  0  0  0  3  0  0  0  0  0  0
  185.7510  177.9830  144.5940 C   0  0  0  0  0  3  0  0  0  0  0  0
  188.1860  178.0690  138.6110 C   0  0  0  0  0  0  0  0  0  0  0  0
  187.1230  178.5860  137.9540 F   0  0  0  0  0  0  0  0  0  0  0  0
  190.3980  176.9740  139.9280 C   0  0  0  0  0  3  0  0  0  0  0  0
  189.2660  177.5750  137.8760 C   0  0  0  0  0  3  0  0  0  0  0  0
  189.3240  177.4670  140.6870 C   0  0  0  0  0  0  0  0  0  0  0  0
  188.2080  178.0230  140.0160 C   0  0  0  0  0  0  0  0  0  0  0  0
  187.0580  178.6070  140.7720 C   0  0  0  0  0  1  0  0  0  0  0  0
  190.3730  177.0350  138.5340 C   0  0  0  0  0  0  0  0  0  0  0  0
  192.9400  176.7730  138.9130 C   0  0  0  0  0  1  0  0  0  0  0  0
  191.7530  176.4010  137.5930 S   0  0  0  0  0  0  0  0  0  0  0  0
  192.6120  176.5440  147.9280 N   0  0  0  0  0  0  0  0  0  0  0  0
  191.3800  176.7470  147.6510 C   0  0  0  0  0  3  0  0  0  0  0  0
  192.9700  175.8130  149.1120 C   0  0  0  0  0  1  0  0  0  0  0  0
  1  3  1  1  0  0  0
  1  4  1  0  0  0  0
  2  7  1  6  0  0  0
  2  5  1  0  0  0  0
  3 17  1  0  0  0  0
  4  2  1  0  0  0  0
  4 10  1  0  0  0  0
  5 16  1  0  0  0  0
  5 11  1  0  0  0  0
  6 18  1  0  0  0  0
  7 15  1  0  0  0  0
  9 11  1  0  0  0  0
  9  8  1  0  0  0  0
 10 16  1  0  0  0  0
 12 10  1  0  0  0  0
 13  7  2  0  0  0  0
 14  1  1  0  0  0  0
 14 13  1  0  0  0  0
 15  9  2  0  0  0  0
 16 31  1  0  0  0  0
 17 12  1  0  0  0  0
 18  8  2  0  0  0  0
 19 15  1  0  0  0  0
 19  6  2  0  0  0  0
 20 25  1  0  0  0  0
 21 20  1  0  0  0  0
 22 24  1  0  0  0  0
 23 27  1  0  0  0  0
 23 20  2  0  0  0  0
 24 14  1  0  0  0  0
 25 24  2  0  0  0  0
 25 26  1  0  0  0  0
 27 22  2  0  0  0  0
 29 27  1  0  0  0  0
 29 28  1  0  0  0  0
 30 32  1  0  0  0  0
 31 30  2  0  0  0  0
M  END
>  <MODEL>
1

>  <REMARK>
 VINA RESULT:      -9.4      0.000      0.000
  Name = 
  3 active torsions:
  status: ('A' for Active; 'I' for Inactive)
    1  A    between atoms: S_15  and  C_26
    2  A    between atoms: C_18  and  C_29
    3  A    between atoms: C_20  and  N_27
                            x       y       z     vdW  Elec       q    Type
                         _______ _______ _______ _____ _____    ______ ____

>  <TORSDO>
F 3

$$$$
=
 OpenBabel10262421143D

 32 37  0  0  1  0  0  0  0  0999 V2000
  190.4380  177.0730  142.6600 C   0  0  2  0  0  3  0  0  0  0  0  0
  189.4030  178.1670  144.7660 C   0  0  2  0  0  3  0  0  0  0  0  0
  190.4680  175.5570  142.7660 C   0  0  0  0  0  2  0  0  0  0  0  0
  190.6630  177.7880  144.0220 C   0  0  1  0  0  3  0  0  0  0  0  0
  189.4670  177.4950  146.0400 N   0  0  2  0  0  0  0  0  0  0  0  0
  184.5560  178.2340  145.4940 C   0  0  0  0  0  3  0  0  0  0  0  0
  188.0840  177.9020  144.1380 C   0  0  0  0  0  0  0  0  0  0  0  0
  186.1310  178.4290  147.3300 C   0  0  0  0  0  3  0  0  0  0  0  0
  187.1940  178.2400  146.4430 C   0  0  0  0  0  0  0  0  0  0  0  0
  191.5540  177.1480  145.0220 N   0  0  2  0  0  0  0  0  0  0  0  0
  188.6290  178.2690  146.9560 C   0  0  0  0  0  2  0  0  0  0  0  0
  191.5110  175.6720  144.9510 C   0  0  0  0  0  2  0  0  0  0  0  0
  187.9920  177.6590  142.8300 C   0  0  0  0  0  3  0  0  0  0  0  0
  189.1820  177.5110  142.0310 N   0  0  0  0  0  0  0  0  0  0  0  0
  186.9320  178.0630  145.0560 C   0  0  0  0  0  0  0  0  0  0  0  0
  190.8960  177.5680  146.2820 C   0  0  2  0  0  3  0  0  0  0  0  0
  191.6950  175.1490  143.5400 C   0  0  0  0  0  2  0  0  0  0  0  0
  184.8170  178.4260  146.8560 C   0  0  0  0  0  3  0  0  0  0  0  0
  185.6100  178.0530  144.5940 C   0  0  0  0  0  3  0  0  0  0  0  0
  190.1110  177.5900  138.3790 C   0  0  0  0  0  0  0  0  0  0  0  0
  191.1970  177.4950  137.5780 F   0  0  0  0  0  0  0  0  0  0  0  0
  187.8400  177.8100  139.9980 C   0  0  0  0  0  3  0  0  0  0  0  0
  188.8570  177.7940  137.8010 C   0  0  0  0  0  3  0  0  0  0  0  0
  189.0920  177.6020  140.5990 C   0  0  0  0  0  0  0  0  0  0  0  0
  190.2380  177.4880  139.7750 C   0  0  0  0  0  0  0  0  0  0  0  0
  191.5890  177.2180  140.3560 C   0  0  0  0  0  1  0  0  0  0  0  0
  187.7220  177.8980  138.6090 C   0  0  0  0  0  0  0  0  0  0  0  0
  185.3550  178.5870  139.4610 C   0  0  0  0  0  1  0  0  0  0  0  0
  186.1160  178.1610  137.8700 S   0  0  0  0  0  0  0  0  0  0  0  0
  192.5400  176.4960  147.6950 N   0  0  0  0  0  0  0  0  0  0  0  0
  191.3100  176.7870  147.5020 C   0  0  0  0  0  3  0  0  0  0  0  0
  192.9270  175.7490  148.8590 C   0  0  0  0  0  1  0  0  0  0  0  0
  1  3  1  1  0  0  0
  1  4  1  0  0  0  0
  2  7  1  6  0  0  0
  2  5  1  0  0  0  0
  3 17  1  0  0  0  0
  4  2  1  0  0  0  0
  4 10  1  0  0  0  0
  5 16  1  0  0  0  0
  5 11  1  0  0  0  0
  6 18  1  0  0  0  0
  7 15  1  0  0  0  0
  9 11  1  0  0  0  0
  9  8  1  0  0  0  0
 10 16  1  0  0  0  0
 12 10  1  0  0  0  0
 13  7  2  0  0  0  0
 14  1  1  0  0  0  0
 14 13  1  0  0  0  0
 15  9  2  0  0  0  0
 16 31  1  0  0  0  0
 17 12  1  0  0  0  0
 18  8  2  0  0  0  0
 19 15  1  0  0  0  0
 19  6  2  0  0  0  0
 20 25  1  0  0  0  0
 21 20  1  0  0  0  0
 22 24  1  0  0  0  0
 23 20  2  0  0  0  0
 23 27  1  0  0  0  0
 24 14  1  0  0  0  0
 25 26  1  0  0  0  0
 25 24  2  0  0  0  0
 27 22  2  0  0  0  0
 29 27  1  0  0  0  0
 29 28  1  0  0  0  0
 30 32  1  0  0  0  0
 31 30  2  0  0  0  0
M  END
>  <MODEL>
2

>  <REMARK>
 VINA RESULT:      -8.8      1.386      2.245
  Name = 
  3 active torsions:
  status: ('A' for Active; 'I' for Inactive)
    1  A    between atoms: S_15  and  C_26
    2  A    between atoms: C_18  and  C_29
    3  A    between atoms: C_20  and  N_27
                            x       y       z     vdW  Elec       q    Type
                         _______ _______ _______ _____ _____    ______ ____

>  <TORSDO>
F 3

$$$$
=
 OpenBabel10262421143D

 32 37  0  0  1  0  0  0  0  0999 V2000
  185.1300  178.1830  144.5110 C   0  0  2  0  0  3  0  0  0  0  0  0
  187.3250  177.0230  143.7780 C   0  0  2  0  0  3  0  0  0  0  0  0
  185.3830  179.5740  145.0690 C   0  0  0  0  0  2  0  0  0  0  0  0
  186.2640  177.1720  144.8430 C   0  0  1  0  0  3  0  0  0  0  0  0
  188.5770  177.3770  144.4000 N   0  0  2  0  0  0  0  0  0  0  0  0
  189.5490  178.1850  139.5660 C   0  0  0  0  0  3  0  0  0  0  0  0
  187.1840  177.7720  142.5040 C   0  0  0  0  0  0  0  0  0  0  0  0
  190.7550  177.1840  141.4190 C   0  0  0  0  0  3  0  0  0  0  0  0
  189.6010  177.2390  142.2060 C   0  0  0  0  0  0  0  0  0  0  0  0
  186.9900  177.3180  146.1300 N   0  0  2  0  0  0  0  0  0  0  0  0
  189.6230  176.7020  143.6320 C   0  0  0  0  0  2  0  0  0  0  0  0
  187.0960  178.7270  146.5610 C   0  0  0  0  0  2  0  0  0  0  0  0
  186.0070  178.2920  142.1500 C   0  0  0  0  0  3  0  0  0  0  0  0
  184.8910  178.2560  143.0620 N   0  0  0  0  0  0  0  0  0  0  0  0
  188.3980  177.7610  141.6550 C   0  0  0  0  0  0  0  0  0  0  0  0
  188.3420  176.8540  145.7340 C   0  0  2  0  0  3  0  0  0  0  0  0
  185.7650  179.4520  146.5220 C   0  0  0  0  0  2  0  0  0  0  0  0
  190.7280  177.6550  140.1050 C   0  0  0  0  0  3  0  0  0  0  0  0
  188.3850  178.2390  140.3380 C   0  0  0  0  0  3  0  0  0  0  0  0
  181.9910  178.8770  140.7350 C   0  0  0  0  0  0  0  0  0  0  0  0
  181.7290  179.0420  139.4190 F   0  0  0  0  0  0  0  0  0  0  0  0
  182.4890  178.5580  143.4700 C   0  0  0  0  0  3  0  0  0  0  0  0
  180.9390  178.9410  141.6510 C   0  0  0  0  0  3  0  0  0  0  0  0
  183.5620  178.4870  142.5650 C   0  0  0  0  0  0  0  0  0  0  0  0
  183.3030  178.6450  141.1820 C   0  0  0  0  0  0  0  0  0  0  0  0
  184.3980  178.5320  140.1690 C   0  0  0  0  0  1  0  0  0  0  0  0
  181.1870  178.7750  143.0160 C   0  0  0  0  0  0  0  0  0  0  0  0
  178.9320  180.0730  143.1930 C   0  0  0  0  0  1  0  0  0  0  0  0
  179.8410  178.8590  144.1880 S   0  0  0  0  0  0  0  0  0  0  0  0
  190.4570  176.4570  146.8360 N   0  0  0  0  0  0  0  0  0  0  0  0
  189.4420  177.2210  146.6950 C   0  0  0  0  0  3  0  0  0  0  0  0
  191.5020  176.8120  147.7550 C   0  0  0  0  0  1  0  0  0  0  0  0
  1  4  1  0  0  0  0
  1  3  1  6  0  0  0
  2  7  1  6  0  0  0
  2  5  1  0  0  0  0
  2  4  1  0  0  0  0
  3 17  1  0  0  0  0
  4 10  1  0  0  0  0
  5 16  1  0  0  0  0
  6 18  2  0  0  0  0
  6 19  1  0  0  0  0
  8  9  2  0  0  0  0
  9 11  1  0  0  0  0
 10 12  1  0  0  0  0
 11  5  1  0  0  0  0
 13  7  2  0  0  0  0
 13 14  1  0  0  0  0
 14  1  1  0  0  0  0
 15  9  1  0  0  0  0
 15  7  1  0  0  0  0
 16 10  1  0  0  0  0
 16 31  1  0  0  0  0
 17 12  1  0  0  0  0
 18  8  1  0  0  0  0
 19 15  2  0  0  0  0
 20 25  2  0  0  0  0
 20 23  1  0  0  0  0
 21 20  1  0  0  0  0
 23 27  2  0  0  0  0
 24 14  1  0  0  0  0
 24 22  2  0  0  0  0
 25 24  1  0  0  0  0
 26 25  1  0  0  0  0
 27 22  1  0  0  0  0
 27 29  1  0  0  0  0
 28 29  1  0  0  0  0
 30 32  1  0  0  0  0
 31 30  2  0  0  0  0
M  END
>  <MODEL>
3

>  <REMARK>
 VINA RESULT:      -8.8      3.705      6.610
  Name = 
  3 active torsions:
  status: ('A' for Active; 'I' for Inactive)
    1  A    between atoms: S_15  and  C_26
    2  A    between atoms: C_18  and  C_29
    3  A    between atoms: C_20  and  N_27
                            x       y       z     vdW  Elec       q    Type
                         _______ _______ _______ _____ _____    ______ ____

>  <TORSDO>
F 3

$$$$
=
 OpenBabel10262421143D

 32 37  0  0  1  0  0  0  0  0999 V2000
  189.2800  177.6010  143.4460 C   0  0  2  0  0  3  0  0  0  0  0  0
  188.7780  176.8650  141.0150 C   0  0  2  0  0  3  0  0  0  0  0  0
  190.0610  178.9050  143.4940 C   0  0  0  0  0  2  0  0  0  0  0  0
  189.6570  176.7030  142.2340 C   0  0  1  0  0  3  0  0  0  0  0  0
  189.6490  177.2700  139.9390 N   0  0  2  0  0  0  0  0  0  0  0  0
  185.2140  178.9700  138.3890 C   0  0  0  0  0  3  0  0  0  0  0  0
  187.6160  177.7880  141.0770 C   0  0  0  0  0  0  0  0  0  0  0  0
  187.0870  177.8430  137.3360 C   0  0  0  0  0  3  0  0  0  0  0  0
  187.6650  177.6220  138.5900 C   0  0  0  0  0  0  0  0  0  0  0  0
  191.0560  176.7290  141.7390 N   0  0  2  0  0  0  0  0  0  0  0  0
  188.9840  176.8680  138.6990 C   0  0  0  0  0  2  0  0  0  0  0  0
  191.6920  178.0520  141.9150 C   0  0  0  0  0  2  0  0  0  0  0  0
  187.1430  178.2040  142.2530 C   0  0  0  0  0  3  0  0  0  0  0  0
  187.8360  177.8780  143.4740 N   0  0  0  0  0  0  0  0  0  0  0  0
  186.9940  178.0690  139.7620 C   0  0  0  0  0  0  0  0  0  0  0  0
  190.8370  176.5120  140.2890 C   0  0  2  0  0  3  0  0  0  0  0  0
  191.5270  178.5980  143.3190 C   0  0  0  0  0  2  0  0  0  0  0  0
  185.8660  178.5140  137.2370 C   0  0  0  0  0  3  0  0  0  0  0  0
  185.7750  178.7480  139.6500 C   0  0  0  0  0  3  0  0  0  0  0  0
  185.1380  178.4090  146.0520 C   0  0  0  0  0  0  0  0  0  0  0  0
  183.8130  178.6680  146.1360 F   0  0  0  0  0  0  0  0  0  0  0  0
  187.8840  177.8900  145.9280 C   0  0  0  0  0  3  0  0  0  0  0  0
  185.8800  178.2780  147.2280 C   0  0  0  0  0  3  0  0  0  0  0  0
  187.1560  178.0150  144.7330 C   0  0  0  0  0  0  0  0  0  0  0  0
  185.7660  178.2740  144.8020 C   0  0  0  0  0  0  0  0  0  0  0  0
  184.9310  178.3690  143.5650 C   0  0  0  0  0  1  0  0  0  0  0  0
  187.2500  178.0130  147.1660 C   0  0  0  0  0  0  0  0  0  0  0  0
  189.7210  177.4380  147.7700 C   0  0  0  0  0  1  0  0  0  0  0  0
  188.2010  177.8480  148.6700 S   0  0  0  0  0  0  0  0  0  0  0  0
  192.2390  176.1900  138.3450 N   0  0  0  0  0  0  0  0  0  0  0  0
  192.0130  176.8560  139.4130 C   0  0  0  0  0  3  0  0  0  0  0  0
  193.3630  176.5220  137.5160 C   0  0  0  0  0  1  0  0  0  0  0  0
  1 14  1  0  0  0  0
  1  3  1  6  0  0  0
  2  7  1  1  0  0  0
  2  4  1  0  0  0  0
  4  1  1  0  0  0  0
  5 16  1  0  0  0  0
  5  2  1  0  0  0  0
  6 19  1  0  0  0  0
  7 13  2  0  0  0  0
  8  9  2  0  0  0  0
  9 11  1  0  0  0  0
  9 15  1  0  0  0  0
 10 12  1  0  0  0  0
 10  4  1  0  0  0  0
 11  5  1  0  0  0  0
 12 17  1  0  0  0  0
 13 14  1  0  0  0  0
 14 24  1  0  0  0  0
 15  7  1  0  0  0  0
 16 10  1  0  0  0  0
 17  3  1  0  0  0  0
 18  8  1  0  0  0  0
 18  6  2  0  0  0  0
 19 15  2  0  0  0  0
 20 21  1  0  0  0  0
 20 23  1  0  0  0  0
 22 27  1  0  0  0  0
 24 25  1  0  0  0  0
 24 22  2  0  0  0  0
 25 20  2  0  0  0  0
 26 25  1  0  0  0  0
 27 23  2  0  0  0  0
 27 29  1  0  0  0  0
 28 29  1  0  0  0  0
 30 31  2  0  0  0  0
 31 16  1  0  0  0  0
 32 30  1  0  0  0  0
M  END
>  <MODEL>
4

>  <REMARK>
 VINA RESULT:      -8.4      3.309      6.983
  Name = 
  3 active torsions:
  status: ('A' for Active; 'I' for Inactive)
    1  A    between atoms: S_15  and  C_26
    2  A    between atoms: C_18  and  C_29
    3  A    between atoms: C_20  and  N_27
                            x       y       z     vdW  Elec       q    Type
                         _______ _______ _______ _____ _____    ______ ____

>  <TORSDO>
F 3

$$$$
=
 OpenBabel10262421143D

 32 37  0  0  1  0  0  0  0  0999 V2000
  183.9180  178.5570  139.9330 C   0  0  2  0  0  3  0  0  0  0  0  0
  186.2860  178.7950  140.9510 C   0  0  2  0  0  3  0  0  0  0  0  0
  183.6370  177.1330  139.4800 C   0  0  0  0  0  2  0  0  0  0  0  0
  185.4010  178.9810  139.7400 C   0  0  1  0  0  3  0  0  0  0  0  0
  187.3450  177.9030  140.5460 N   0  0  2  0  0  0  0  0  0  0  0  0
  187.2810  177.2680  145.5020 C   0  0  0  0  0  3  0  0  0  0  0  0
  185.6880  178.3020  142.2170 C   0  0  0  0  0  0  0  0  0  0  0  0
  189.0150  177.5000  143.8200 C   0  0  0  0  0  3  0  0  0  0  0  0
  188.0500  177.8370  142.8660 C   0  0  0  0  0  0  0  0  0  0  0  0
  186.1560  178.4230  138.5890 N   0  0  2  0  0  0  0  0  0  0  0  0
  188.4720  178.1700  141.4400 C   0  0  0  0  0  2  0  0  0  0  0  0
  185.7180  177.0560  138.2390 C   0  0  0  0  0  2  0  0  0  0  0  0
  184.3680  178.3430  142.4040 C   0  0  0  0  0  3  0  0  0  0  0  0
  183.4920  178.7350  141.3290 N   0  0  0  0  0  0  0  0  0  0  0  0
  186.6810  177.9070  143.2440 C   0  0  0  0  0  0  0  0  0  0  0  0
  187.5170  178.3370  139.1710 C   0  0  2  0  0  3  0  0  0  0  0  0
  184.2130  176.9410  138.1000 C   0  0  0  0  0  2  0  0  0  0  0  0
  188.6300  177.2170  145.1330 C   0  0  0  0  0  3  0  0  0  0  0  0
  186.3060  177.6130  144.5610 C   0  0  0  0  0  3  0  0  0  0  0  0
  180.2900  179.4490  143.1860 C   0  0  0  0  0  0  0  0  0  0  0  0
  179.7800  179.4060  144.4380 F   0  0  0  0  0  0  0  0  0  0  0  0
  181.2960  179.5350  140.5770 C   0  0  0  0  0  3  0  0  0  0  0  0
  179.4730  179.8660  142.1330 C   0  0  0  0  0  3  0  0  0  0  0  0
  182.1360  179.1150  141.6210 C   0  0  0  0  0  0  0  0  0  0  0  0
  181.6230  179.0770  142.9400 C   0  0  0  0  0  0  0  0  0  0  0  0
  182.4840  178.6840  144.0980 C   0  0  0  0  0  1  0  0  0  0  0  0
  179.9770  179.9150  140.8310 C   0  0  0  0  0  0  0  0  0  0  0  0
  180.1640  181.6310  138.8760 C   0  0  0  0  0  1  0  0  0  0  0  0
  178.9310  180.4470  139.4840 S   0  0  0  0  0  0  0  0  0  0  0  0
  189.5960  177.9250  138.0080 N   0  0  0  0  0  0  0  0  0  0  0  0
  188.4750  177.4590  138.4100 C   0  0  0  0  0  3  0  0  0  0  0  0
  190.5040  177.0820  137.2820 C   0  0  0  0  0  1  0  0  0  0  0  0
  1  3  1  1  0  0  0
  1 14  1  0  0  0  0
  2  7  1  1  0  0  0
  4  1  1  0  0  0  0
  4  2  1  0  0  0  0
  5  2  1  0  0  0  0
  5 11  1  0  0  0  0
  7 13  2  0  0  0  0
  7 15  1  0  0  0  0
  8 18  2  0  0  0  0
  9 15  2  0  0  0  0
  9  8  1  0  0  0  0
 10 16  1  0  0  0  0
 10  4  1  0  0  0  0
 11  9  1  0  0  0  0
 12 10  1  0  0  0  0
 14 24  1  0  0  0  0
 14 13  1  0  0  0  0
 15 19  1  0  0  0  0
 16  5  1  0  0  0  0
 17 12  1  0  0  0  0
 17  3  1  0  0  0  0
 18  6  1  0  0  0  0
 19  6  2  0  0  0  0
 20 21  1  0  0  0  0
 22 27  2  0  0  0  0
 22 24  1  0  0  0  0
 23 20  2  0  0  0  0
 24 25  2  0  0  0  0
 25 20  1  0  0  0  0
 25 26  1  0  0  0  0
 27 23  1  0  0  0  0
 28 29  1  0  0  0  0
 29 27  1  0  0  0  0
 30 31  2  0  0  0  0
 31 16  1  0  0  0  0
 32 30  1  0  0  0  0
M  END
>  <MODEL>
5

>  <REMARK>
 VINA RESULT:      -8.3      4.666      8.073
  Name = 
  3 active torsions:
  status: ('A' for Active; 'I' for Inactive)
    1  A    between atoms: S_15  and  C_26
    2  A    between atoms: C_18  and  C_29
    3  A    between atoms: C_20  and  N_27
                            x       y       z     vdW  Elec       q    Type
                         _______ _______ _______ _____ _____    ______ ____

>  <TORSDO>
F 3

$$$$
=
 OpenBabel10262421143D

 32 37  0  0  1  0  0  0  0  0999 V2000
  185.3250  178.1590  144.5800 C   0  0  2  0  0  3  0  0  0  0  0  0
  187.4730  176.9800  143.7450 C   0  0  2  0  0  3  0  0  0  0  0  0
  185.6200  179.5380  145.1470 C   0  0  0  0  0  2  0  0  0  0  0  0
  186.4550  177.1280  144.8520 C   0  0  1  0  0  3  0  0  0  0  0  0
  188.7530  177.3060  144.3240 N   0  0  2  0  0  0  0  0  0  0  0  0
  189.5520  178.1750  139.4690 C   0  0  0  0  0  3  0  0  0  0  0  0
  187.2940  177.7510  142.4880 C   0  0  0  0  0  0  0  0  0  0  0  0
  190.8120  177.1280  141.2590 C   0  0  0  0  0  3  0  0  0  0  0  0
  189.6900  177.1880  142.0900 C   0  0  0  0  0  0  0  0  0  0  0  0
  187.2330  177.2430  146.1120 N   0  0  2  0  0  0  0  0  0  0  0  0
  189.7590  176.6280  143.5060 C   0  0  0  0  0  2  0  0  0  0  0  0
  187.3760  178.6440  146.5600 C   0  0  0  0  0  2  0  0  0  0  0  0
  186.1130  178.2930  142.1880 C   0  0  0  0  0  3  0  0  0  0  0  0
  185.0320  178.2590  143.1410 N   0  0  0  0  0  0  0  0  0  0  0  0
  188.4740  177.7350  141.5930 C   0  0  0  0  0  0  0  0  0  0  0  0
  188.5610  176.7660  145.6580 C   0  0  2  0  0  3  0  0  0  0  0  0
  186.0560  179.3880  146.5830 C   0  0  0  0  0  2  0  0  0  0  0  0
  190.7420  177.6200  139.9530 C   0  0  0  0  0  3  0  0  0  0  0  0
  188.4190  178.2330  140.2850 C   0  0  0  0  0  3  0  0  0  0  0  0
  181.3210  178.9170  143.1500 C   0  0  0  0  0  0  0  0  0  0  0  0
  180.2900  179.0580  144.0150 F   0  0  0  0  0  0  0  0  0  0  0  0
  183.4190  178.6130  141.3250 C   0  0  0  0  0  3  0  0  0  0  0  0
  181.0760  179.0130  141.7790 C   0  0  0  0  0  3  0  0  0  0  0  0
  183.6880  178.5160  142.7000 C   0  0  0  0  0  0  0  0  0  0  0  0
  182.6230  178.6740  143.6200 C   0  0  0  0  0  0  0  0  0  0  0  0
  182.8580  178.6280  145.0960 C   0  0  0  0  0  1  0  0  0  0  0  0
  182.1250  178.8680  140.8680 C   0  0  0  0  0  0  0  0  0  0  0  0
  183.5740  179.1520  138.7180 C   0  0  0  0  0  1  0  0  0  0  0  0
  181.8110  178.9880  139.1130 S   0  0  0  0  0  0  0  0  0  0  0  0
  190.6040  176.2320  146.8360 N   0  0  0  0  0  0  0  0  0  0  0  0
  189.7030  177.1020  146.5810 C   0  0  0  0  0  3  0  0  0  0  0  0
  191.6890  176.5590  147.7180 C   0  0  0  0  0  1  0  0  0  0  0  0
  1  4  1  0  0  0  0
  1  3  1  6  0  0  0
  2  7  1  6  0  0  0
  2  5  1  0  0  0  0
  2  4  1  0  0  0  0
  3 17  1  0  0  0  0
  4 10  1  0  0  0  0
  5 16  1  0  0  0  0
  6 18  2  0  0  0  0
  6 19  1  0  0  0  0
  8  9  2  0  0  0  0
  9 11  1  0  0  0  0
 10 12  1  0  0  0  0
 11  5  1  0  0  0  0
 12 17  1  0  0  0  0
 13  7  2  0  0  0  0
 13 14  1  0  0  0  0
 14  1  1  0  0  0  0
 15  9  1  0  0  0  0
 15  7  1  0  0  0  0
 16 10  1  0  0  0  0
 16 31  1  0  0  0  0
 18  8  1  0  0  0  0
 19 15  2  0  0  0  0
 20 25  1  0  0  0  0
 20 21  1  0  0  0  0
 22 24  1  0  0  0  0
 23 20  2  0  0  0  0
 24 14  1  0  0  0  0
 24 25  2  0  0  0  0
 25 26  1  0  0  0  0
 27 22  2  0  0  0  0
 27 23  1  0  0  0  0
 28 29  1  0  0  0  0
 29 27  1  0  0  0  0
 30 32  1  0  0  0  0
 31 30  2  0  0  0  0
M  END
>  <MODEL>
6

>  <REMARK>
 VINA RESULT:      -8.3      3.397      6.226
  Name = 
  3 active torsions:
  status: ('A' for Active; 'I' for Inactive)
    1  A    between atoms: S_15  and  C_26
    2  A    between atoms: C_18  and  C_29
    3  A    between atoms: C_20  and  N_27
                            x       y       z     vdW  Elec       q    Type
                         _______ _______ _______ _____ _____    ______ ____

>  <TORSDO>
F 3

$$$$
=
 OpenBabel10262421143D

 32 37  0  0  1  0  0  0  0  0999 V2000
  184.9330  178.3750  138.3390 C   0  0  2  0  0  3  0  0  0  0  0  0
  186.8480  178.6370  140.0600 C   0  0  2  0  0  3  0  0  0  0  0  0
  184.6520  176.9150  138.0210 C   0  0  0  0  0  2  0  0  0  0  0  0
  186.4360  178.6670  138.6070 C   0  0  1  0  0  3  0  0  0  0  0  0
  187.8690  177.6240  140.1710 N   0  0  2  0  0  0  0  0  0  0  0  0
  186.1150  177.8520  144.8430 C   0  0  0  0  0  3  0  0  0  0  0  0
  185.8160  178.4060  141.1020 C   0  0  0  0  0  0  0  0  0  0  0  0
  188.3180  177.6840  143.8400 C   0  0  0  0  0  3  0  0  0  0  0  0
  187.7650  177.9120  142.5760 C   0  0  0  0  0  0  0  0  0  0  0  0
  187.4550  177.8750  137.8730 N   0  0  2  0  0  0  0  0  0  0  0  0
  188.6650  177.9700  141.3490 C   0  0  0  0  0  2  0  0  0  0  0  0
  187.0000  176.4970  137.5890 C   0  0  0  0  0  2  0  0  0  0  0  0
  184.5210  178.5600  140.8190 C   0  0  0  0  0  3  0  0  0  0  0  0
  184.0960  178.8160  139.4660 N   0  0  0  0  0  0  0  0  0  0  0  0
  186.3650  178.1310  142.4500 C   0  0  0  0  0  0  0  0  0  0  0  0
  188.5310  177.8050  138.8910 C   0  0  2  0  0  3  0  0  0  0  0  0
  185.6210  176.4540  136.9630 C   0  0  0  0  0  2  0  0  0  0  0  0
  187.4950  177.6550  144.9680 C   0  0  0  0  0  3  0  0  0  0  0  0
  185.5490  178.0900  143.5880 C   0  0  0  0  0  3  0  0  0  0  0  0
  180.3440  179.0770  139.2320 C   0  0  0  0  0  0  0  0  0  0  0  0
  179.2310  178.3460  139.4740 F   0  0  0  0  0  0  0  0  0  0  0  0
  182.6170  180.6180  138.7000 C   0  0  0  0  0  3  0  0  0  0  0  0
  180.2100  180.3680  138.7170 C   0  0  0  0  0  3  0  0  0  0  0  0
  182.7740  179.3240  139.2210 C   0  0  0  0  0  0  0  0  0  0  0  0
  181.6200  178.5490  139.4920 C   0  0  0  0  0  0  0  0  0  0  0  0
  181.7240  177.1830  140.0910 C   0  0  0  0  0  1  0  0  0  0  0  0
  181.3450  181.1400  138.4570 C   0  0  0  0  0  0  0  0  0  0  0  0
  179.4400  182.9160  138.3150 C   0  0  0  0  0  1  0  0  0  0  0  0
  181.1730  182.7910  137.7960 S   0  0  0  0  0  0  0  0  0  0  0  0
  190.6790  177.0630  138.0660 N   0  0  0  0  0  0  0  0  0  0  0  0
  189.5760  176.7520  138.6340 C   0  0  0  0  0  3  0  0  0  0  0  0
  191.6710  176.0530  137.8230 C   0  0  0  0  0  1  0  0  0  0  0  0
  1  3  1  1  0  0  0
  1  4  1  0  0  0  0
  1 14  1  0  0  0  0
  2  5  1  0  0  0  0
  2  7  1  1  0  0  0
  4  2  1  0  0  0  0
  5 11  1  0  0  0  0
  6 18  1  0  0  0  0
  7 15  1  0  0  0  0
  8 18  2  0  0  0  0
  9  8  1  0  0  0  0
 10  4  1  0  0  0  0
 10 16  1  0  0  0  0
 11  9  1  0  0  0  0
 12 10  1  0  0  0  0
 13  7  2  0  0  0  0
 14 13  1  0  0  0  0
 15  9  2  0  0  0  0
 15 19  1  0  0  0  0
 16  5  1  0  0  0  0
 17 12  1  0  0  0  0
 17  3  1  0  0  0  0
 19  6  2  0  0  0  0
 20 21  1  0  0  0  0
 20 25  1  0  0  0  0
 22 24  1  0  0  0  0
 23 20  2  0  0  0  0
 24 14  1  0  0  0  0
 24 25  2  0  0  0  0
 25 26  1  0  0  0  0
 27 22  2  0  0  0  0
 27 23  1  0  0  0  0
 29 28  1  0  0  0  0
 29 27  1  0  0  0  0
 30 31  2  0  0  0  0
 31 16  1  0  0  0  0
 32 30  1  0  0  0  0
M  END
>  <MODEL>
7

>  <REMARK>
 VINA RESULT:      -8.1      4.697      7.700
  Name = 
  3 active torsions:
  status: ('A' for Active; 'I' for Inactive)
    1  A    between atoms: S_15  and  C_26
    2  A    between atoms: C_18  and  C_29
    3  A    between atoms: C_20  and  N_27
                            x       y       z     vdW  Elec       q    Type
                         _______ _______ _______ _____ _____    ______ ____

>  <TORSDO>
F 3

$$$$
=
 OpenBabel10262421143D

 32 37  0  0  1  0  0  0  0  0999 V2000
  183.7670  178.6890  139.2960 C   0  0  2  0  0  3  0  0  0  0  0  0
  186.0160  178.8900  140.5630 C   0  0  2  0  0  3  0  0  0  0  0  0
  183.4630  177.2520  138.9060 C   0  0  0  0  0  2  0  0  0  0  0  0
  185.2830  179.0310  139.2490 C   0  0  1  0  0  3  0  0  0  0  0  0
  187.0640  177.9250  140.3410 N   0  0  2  0  0  0  0  0  0  0  0  0
  186.4120  177.6410  145.2870 C   0  0  0  0  0  3  0  0  0  0  0  0
  185.2540  178.5140  141.7810 C   0  0  0  0  0  0  0  0  0  0  0  0
  188.3330  177.6750  143.8040 C   0  0  0  0  0  3  0  0  0  0  0  0
  187.5010  177.9890  142.7260 C   0  0  0  0  0  0  0  0  0  0  0  0
  186.1300  178.3600  138.2310 N   0  0  2  0  0  0  0  0  0  0  0  0
  188.0960  178.2020  141.3400 C   0  0  0  0  0  2  0  0  0  0  0  0
  185.6630  176.9930  137.9210 C   0  0  0  0  0  2  0  0  0  0  0  0
  183.9260  178.6280  141.8120 C   0  0  0  0  0  3  0  0  0  0  0  0
  183.1970  178.9840  140.6200 N   0  0  0  0  0  0  0  0  0  0  0  0
  186.1030  178.1470  142.9380 C   0  0  0  0  0  0  0  0  0  0  0  0
  187.4110  178.2530  138.9700 C   0  0  2  0  0  3  0  0  0  0  0  0
  184.1790  176.9380  137.6180 C   0  0  0  0  0  2  0  0  0  0  0  0
  187.7900  177.5030  145.0790 C   0  0  0  0  0  3  0  0  0  0  0  0
  185.5690  177.9630  144.2200 C   0  0  0  0  0  3  0  0  0  0  0  0
  179.8700  180.5570  139.8070 C   0  0  0  0  0  0  0  0  0  0  0  0
  179.2440  181.2090  138.8000 F   0  0  0  0  0  0  0  0  0  0  0  0
  181.1310  179.2300  141.9220 C   0  0  0  0  0  3  0  0  0  0  0  0
  179.1820  180.3310  141.0010 C   0  0  0  0  0  3  0  0  0  0  0  0
  181.8400  179.4450  140.7290 C   0  0  0  0  0  0  0  0  0  0  0  0
  181.1950  180.1150  139.6600 C   0  0  0  0  0  0  0  0  0  0  0  0
  181.8840  180.3290  138.3500 C   0  0  0  0  0  1  0  0  0  0  0  0
  179.8100  179.6620  142.0550 C   0  0  0  0  0  0  0  0  0  0  0  0
  180.0570  178.0430  144.0840 C   0  0  0  0  0  1  0  0  0  0  0  0
  178.9310  179.3740  143.5830 S   0  0  0  0  0  0  0  0  0  0  0  0
  189.5780  177.6690  138.0710 N   0  0  0  0  0  0  0  0  0  0  0  0
  188.4000  177.2810  138.3820 C   0  0  0  0  0  3  0  0  0  0  0  0
  190.5160  176.7370  137.5090 C   0  0  0  0  0  1  0  0  0  0  0  0
  1  3  1  1  0  0  0
  1 14  1  0  0  0  0
  2  7  1  1  0  0  0
  4  1  1  0  0  0  0
  4  2  1  0  0  0  0
  5  2  1  0  0  0  0
  5 11  1  0  0  0  0
  7 13  2  0  0  0  0
  7 15  1  0  0  0  0
  8 18  2  0  0  0  0
  9 15  2  0  0  0  0
  9  8  1  0  0  0  0
 10 16  1  0  0  0  0
 10  4  1  0  0  0  0
 11  9  1  0  0  0  0
 12 10  1  0  0  0  0
 14 24  1  0  0  0  0
 14 13  1  0  0  0  0
 15 19  1  0  0  0  0
 16  5  1  0  0  0  0
 17 12  1  0  0  0  0
 17  3  1  0  0  0  0
 18  6  1  0  0  0  0
 19  6  2  0  0  0  0
 20 23  1  0  0  0  0
 21 20  1  0  0  0  0
 22 27  1  0  0  0  0
 23 27  2  0  0  0  0
 24 22  2  0  0  0  0
 25 20  2  0  0  0  0
 25 24  1  0  0  0  0
 26 25  1  0  0  0  0
 27 29  1  0  0  0  0
 29 28  1  0  0  0  0
 30 31  2  0  0  0  0
 31 16  1  0  0  0  0
 32 30  1  0  0  0  0
M  END
>  <MODEL>
8

>  <REMARK>
 VINA RESULT:      -8.0      4.882      8.200
  Name = 
  3 active torsions:
  status: ('A' for Active; 'I' for Inactive)
    1  A    between atoms: S_15  and  C_26
    2  A    between atoms: C_18  and  C_29
    3  A    between atoms: C_20  and  N_27
                            x       y       z     vdW  Elec       q    Type
                         _______ _______ _______ _____ _____    ______ ____

>  <TORSDO>
F 3

$$$$
=
 OpenBabel10262421143D

 32 37  0  0  1  0  0  0  0  0999 V2000
  187.2300  178.2320  143.2740 C   0  0  2  0  0  3  0  0  0  0  0  0
  187.7770  178.6500  140.7790 C   0  0  2  0  0  3  0  0  0  0  0  0
  186.1930  177.1340  143.4510 C   0  0  0  0  0  2  0  0  0  0  0  0
  187.0030  179.0920  141.9990 C   0  0  1  0  0  3  0  0  0  0  0  0
  186.7980  178.3580  139.7610 N   0  0  2  0  0  0  0  0  0  0  0  0
  190.7060  175.6300  138.2610 C   0  0  0  0  0  3  0  0  0  0  0  0
  188.7190  177.5080  140.8920 C   0  0  0  0  0  0  0  0  0  0  0  0
  189.0720  177.0460  137.1590 C   0  0  0  0  0  3  0  0  0  0  0  0
  188.6060  177.4830  138.4020 C   0  0  0  0  0  0  0  0  0  0  0  0
  185.6110  179.3270  141.5400 N   0  0  2  0  0  0  0  0  0  0  0  0
  187.4810  178.5090  138.4770 C   0  0  0  0  0  2  0  0  0  0  0  0
  184.7180  178.1900  141.8430 C   0  0  0  0  0  2  0  0  0  0  0  0
  189.1410  177.0940  142.0880 C   0  0  0  0  0  3  0  0  0  0  0  0
  188.5830  177.6550  143.2930 N   0  0  0  0  0  0  0  0  0  0  0  0
  189.2130  176.9970  139.5930 C   0  0  0  0  0  0  0  0  0  0  0  0
  185.8120  179.3780  140.0720 C   0  0  2  0  0  3  0  0  0  0  0  0
  184.8200  177.7340  143.2850 C   0  0  0  0  0  2  0  0  0  0  0  0
  190.1180  176.1230  137.0900 C   0  0  0  0  0  3  0  0  0  0  0  0
  190.2560  176.0650  139.5110 C   0  0  0  0  0  3  0  0  0  0  0  0
  191.1990  176.7390  145.8470 C   0  0  0  0  0  0  0  0  0  0  0  0
  192.4300  176.1850  145.9240 F   0  0  0  0  0  0  0  0  0  0  0  0
  188.6440  177.8730  145.7370 C   0  0  0  0  0  3  0  0  0  0  0  0
  190.5610  177.1440  147.0210 C   0  0  0  0  0  3  0  0  0  0  0  0
  189.2690  177.4760  144.5440 C   0  0  0  0  0  0  0  0  0  0  0  0
  190.5640  176.9050  144.6050 C   0  0  0  0  0  0  0  0  0  0  0  0
  191.2970  176.5070  143.3630 C   0  0  0  0  0  1  0  0  0  0  0  0
  189.2880  177.7160  146.9660 C   0  0  0  0  0  0  0  0  0  0  0  0
  186.8420  178.2850  147.6710 C   0  0  0  0  0  1  0  0  0  0  0  0
  188.4710  178.2320  148.4680 S   0  0  0  0  0  0  0  0  0  0  0  0
  183.7510  180.2120  139.1220 N   0  0  0  0  0  0  0  0  0  0  0  0
  184.5550  179.2260  139.2570 C   0  0  0  0  0  3  0  0  0  0  0  0
  182.5540  180.0590  138.3430 C   0  0  0  0  0  1  0  0  0  0  0  0
  1 14  1  0  0  0  0
  1  3  1  6  0  0  0
  2  7  1  1  0  0  0
  2  4  1  0  0  0  0
  4  1  1  0  0  0  0
  5 16  1  0  0  0  0
  5  2  1  0  0  0  0
  6 19  1  0  0  0  0
  7 13  2  0  0  0  0
  8  9  2  0  0  0  0
  9 11  1  0  0  0  0
  9 15  1  0  0  0  0
 10 12  1  0  0  0  0
 10  4  1  0  0  0  0
 11  5  1  0  0  0  0
 12 17  1  0  0  0  0
 13 14  1  0  0  0  0
 14 24  1  0  0  0  0
 15  7  1  0  0  0  0
 16 10  1  0  0  0  0
 17  3  1  0  0  0  0
 18  8  1  0  0  0  0
 18  6  2  0  0  0  0
 19 15  2  0  0  0  0
 20 21  1  0  0  0  0
 20 23  1  0  0  0  0
 22 27  1  0  0  0  0
 24 25  1  0  0  0  0
 24 22  2  0  0  0  0
 25 20  2  0  0  0  0
 26 25  1  0  0  0  0
 27 23  2  0  0  0  0
 27 29  1  0  0  0  0
 28 29  1  0  0  0  0
 30 31  2  0  0  0  0
 31 16  1  0  0  0  0
 32 30  1  0  0  0  0
M  END
>  <MODEL>
9

>  <REMARK>
 VINA RESULT:      -7.8      3.474      8.225
  Name = 
  3 active torsions:
  status: ('A' for Active; 'I' for Inactive)
    1  A    between atoms: S_15  and  C_26
    2  A    between atoms: C_18  and  C_29
    3  A    between atoms: C_20  and  N_27
                            x       y       z     vdW  Elec       q    Type
                         _______ _______ _______ _____ _____    ______ ____

>  <TORSDO>
F 3

$$$$
