=
 OpenBabel10262421293D

 32 37  0  0  1  0  0  0  0  0999 V2000
  188.3370  176.9520  137.2840 C   0  0  1  0  0  3  0  0  0  0  0  0
  188.2300  177.5060  142.0990 C   0  0  1  0  0  3  0  0  0  0  0  0
  183.5600  178.9400  142.8830 C   0  0  0  0  0  3  0  0  0  0  0  0
  183.7570  178.7160  144.3330 C   0  0  0  0  0  3  0  0  0  0  0  0
  189.6580  177.0570  144.1680 C   0  0  0  0  0  0  0  0  0  0  0  0
  189.7850  177.1120  145.5450 C   0  0  0  0  0  0  0  0  0  0  0  0
  189.1300  177.5440  139.9210 C   0  0  1  0  0  3  0  0  0  0  0  0
  186.7320  177.9780  140.2230 N   0  0  0  0  0  2  0  0  0  0  0  0
  189.1500  177.5740  147.6320 C   0  0  0  0  0  0  0  0  0  0  0  0
  187.6170  178.1400  137.9290 C   0  0  0  0  0  2  0  0  0  0  0  0
  184.5540  178.6890  142.0220 C   0  0  0  0  0  3  0  0  0  0  0  0
  187.0250  178.3340  141.6120 C   0  0  1  0  0  3  0  0  0  0  0  0
  185.8400  178.0840  142.5270 C   0  0  1  0  0  3  0  0  0  0  0  0
  187.4520  178.1080  144.4720 C   0  0  0  0  0  0  0  0  0  0  0  0
  190.3710  176.9910  147.6930 N   0  0  0  0  0  0  0  0  0  0  0  0
  190.1700  177.0780  137.3930 S   0  0  0  0  0  0  0  0  0  0  0  0
  187.9060  178.3280  139.4230 C   0  0  2  0  0  3  0  0  0  0  0  0
  190.7690  176.7010  146.4230 C   0  0  0  0  0  3  0  0  0  0  0  0
  190.3280  177.8530  139.0490 C   0  0  0  0  0  2  0  0  0  0  0  0
  184.9910  178.5440  144.8240 C   0  0  0  0  0  3  0  0  0  0  0  0
  186.1760  178.6720  143.9030 C   0  0  2  0  0  3  0  0  0  0  0  0
  187.6300  178.1410  145.8010 O   0  0  0  0  0  0  0  0  0  0  0  0
  189.4040  177.8890  141.3160 N   0  0  0  0  0  2  0  0  0  0  0  0
  190.6730  176.4410  143.3760 N   0  0  0  0  0  1  0  0  0  0  0  0
  188.3820  178.0260  148.8230 C   0  0  0  0  0  1  0  0  0  0  0  0
  188.4780  177.6020  143.5970 C   0  0  0  0  0  0  0  0  0  0  0  0
  188.7420  177.6680  146.3290 C   0  0  0  0  0  0  0  0  0  0  0  0
  187.8270  175.6260  137.8320 C   0  0  0  0  0  2  0  0  0  0  0  0
  186.4180  175.0450  136.8710 S   0  0  1  0  0  0  0  0  0  0  0  0
  186.9490  175.0430  135.4440 O   0  0  0  0  0  0  0  0  0  0  0  0
  186.3300  173.3440  137.2720 N   0  0  0  0  0  2  0  0  0  0  0  0
  184.9600  173.0750  137.6660 C   0  0  0  0  0  1  0  0  0  0  0  0
  1 16  1  0  0  0  0
  1 28  1  1  0  0  0
  1 10  1  0  0  0  0
  2 23  1  6  0  0  0
  2 26  1  0  0  0  0
  3  4  1  0  0  0  0
  4 20  2  0  0  0  0
  5  6  2  0  0  0  0
  6 27  1  0  0  0  0
  6 18  1  0  0  0  0
  7 19  1  6  0  0  0
  7 23  1  0  0  0  0
  9 15  1  0  0  0  0
  9 25  1  0  0  0  0
 11  3  2  0  0  0  0
 12  8  1  6  0  0  0
 12  2  1  0  0  0  0
 12 13  1  0  0  0  0
 13 11  1  6  0  0  0
 13 21  1  0  0  0  0
 14 22  1  0  0  0  0
 16 19  1  0  0  0  0
 17 10  1  6  0  0  0
 17  7  1  0  0  0  0
 17  8  1  0  0  0  0
 18 15  2  0  0  0  0
 21 14  1  0  0  0  0
 21 20  1  1  0  0  0
 22 27  1  0  0  0  0
 24  5  1  0  0  0  0
 26  5  1  0  0  0  0
 26 14  2  0  0  0  0
 27  9  2  0  0  0  0
 29 30  2  6  0  0  0
 29 31  1  0  0  0  0
 29 28  1  0  0  0  0
 31 32  1  0  0  0  0
M  END
>  <MODEL>
1

>  <REMARK>
 VINA RESULT:      -9.5      0.000      0.000
  Name = 
  3 active torsions:
  status: ('A' for Active; 'I' for Inactive)
    1  A    between atoms: S_1  and  N_10
    2  A    between atoms: S_1  and  C_24
    3  A    between atoms: C_2  and  C_24
                            x       y       z     vdW  Elec       q    Type
                         _______ _______ _______ _____ _____    ______ ____

>  <TORSDO>
F 3

$$$$
=
 OpenBabel10262421293D

 32 37  0  0  1  0  0  0  0  0999 V2000
  190.4970  176.3580  137.1310 C   0  0  1  0  0  3  0  0  0  0  0  0
  189.6100  177.1330  141.8330 C   0  0  1  0  0  3  0  0  0  0  0  0
  184.9490  178.7920  141.7580 C   0  0  0  0  0  3  0  0  0  0  0  0
  184.8890  178.6270  143.2280 C   0  0  0  0  0  3  0  0  0  0  0  0
  190.6470  176.7190  144.1300 C   0  0  0  0  0  0  0  0  0  0  0  0
  190.5430  176.8320  145.5060 C   0  0  0  0  0  0  0  0  0  0  0  0
  190.8640  177.0340  139.8400 C   0  0  1  0  0  3  0  0  0  0  0  0
  188.4730  177.5800  139.7140 N   0  0  0  0  0  2  0  0  0  0  0  0
  189.5900  177.4140  147.4360 C   0  0  0  0  0  0  0  0  0  0  0  0
  189.7370  177.6020  137.5990 C   0  0  0  0  0  2  0  0  0  0  0  0
  186.0610  178.4620  141.0890 C   0  0  0  0  0  3  0  0  0  0  0  0
  188.5450  177.9870  141.1180 C   0  0  1  0  0  3  0  0  0  0  0  0
  187.2130  177.8280  141.8280 C   0  0  1  0  0  3  0  0  0  0  0  0
  188.4750  177.8740  144.0160 C   0  0  0  0  0  0  0  0  0  0  0  0
  190.7540  176.7840  147.7250 N   0  0  0  0  0  0  0  0  0  0  0  0
  192.2900  176.4120  137.5450 S   0  0  0  0  0  0  0  0  0  0  0  0
  189.7800  177.8460  139.1130 C   0  0  2  0  0  3  0  0  0  0  0  0
  191.3450  176.4210  146.5530 C   0  0  0  0  0  3  0  0  0  0  0  0
  192.2050  177.2550  139.1730 C   0  0  0  0  0  2  0  0  0  0  0  0
  186.0130  178.4270  143.9280 C   0  0  0  0  0  3  0  0  0  0  0  0
  187.3410  178.4630  143.2170 C   0  0  2  0  0  3  0  0  0  0  0  0
  188.4280  177.9590  145.3530 O   0  0  0  0  0  0  0  0  0  0  0  0
  190.9170  177.4320  141.2470 N   0  0  0  0  0  2  0  0  0  0  0  0
  191.7490  176.0270  143.5460 N   0  0  0  0  0  1  0  0  0  0  0  0
  188.6560  177.9500  148.4610 C   0  0  0  0  0  1  0  0  0  0  0  0
  189.6070  177.2870  143.3470 C   0  0  0  0  0  0  0  0  0  0  0  0
  189.4120  177.4660  146.0800 C   0  0  0  0  0  0  0  0  0  0  0  0
  189.8390  175.0800  137.6340 C   0  0  0  0  0  2  0  0  0  0  0  0
  188.5360  174.5530  136.5060 S   0  0  1  0  0  0  0  0  0  0  0  0
  188.4530  173.0520  136.7510 O   0  0  0  0  0  0  0  0  0  0  0  0
  187.0800  175.1670  137.2570 N   0  0  0  0  0  2  0  0  0  0  0  0
  186.4810  176.0940  136.3150 C   0  0  0  0  0  1  0  0  0  0  0  0
  1 16  1  0  0  0  0
  1 10  1  0  0  0  0
  1 28  1  1  0  0  0
  2 23  1  6  0  0  0
  2 26  1  0  0  0  0
  3  4  1  0  0  0  0
  4 20  2  0  0  0  0
  5  6  2  0  0  0  0
  6 27  1  0  0  0  0
  6 18  1  0  0  0  0
  7 19  1  6  0  0  0
  7 23  1  0  0  0  0
  9 15  1  0  0  0  0
  9 25  1  0  0  0  0
 11  3  2  0  0  0  0
 12  8  1  6  0  0  0
 12 13  1  0  0  0  0
 12  2  1  0  0  0  0
 13 11  1  6  0  0  0
 13 21  1  0  0  0  0
 14 22  1  0  0  0  0
 16 19  1  0  0  0  0
 17 10  1  6  0  0  0
 17  8  1  0  0  0  0
 17  7  1  0  0  0  0
 18 15  2  0  0  0  0
 21 20  1  1  0  0  0
 21 14  1  0  0  0  0
 22 27  1  0  0  0  0
 24  5  1  0  0  0  0
 26 14  2  0  0  0  0
 26  5  1  0  0  0  0
 27  9  2  0  0  0  0
 29 30  2  1  0  0  0
 29 31  1  0  0  0  0
 29 28  1  0  0  0  0
 32 31  1  0  0  0  0
M  END
>  <MODEL>
2

>  <REMARK>
 VINA RESULT:      -9.2      1.521      1.718
  Name = 
  3 active torsions:
  status: ('A' for Active; 'I' for Inactive)
    1  A    between atoms: S_1  and  N_10
    2  A    between atoms: S_1  and  C_24
    3  A    between atoms: C_2  and  C_24
                            x       y       z     vdW  Elec       q    Type
                         _______ _______ _______ _____ _____    ______ ____

>  <TORSDO>
F 3

$$$$
=
 OpenBabel10262421293D

 32 37  0  0  1  0  0  0  0  0999 V2000
  187.2930  177.3530  137.2250 C   0  0  1  0  0  3  0  0  0  0  0  0
  187.5580  177.7140  142.0530 C   0  0  1  0  0  3  0  0  0  0  0  0
  182.9280  178.9710  143.2620 C   0  0  0  0  0  3  0  0  0  0  0  0
  183.2470  178.6970  144.6820 C   0  0  0  0  0  3  0  0  0  0  0  0
  189.1600  177.2280  143.9810 C   0  0  0  0  0  0  0  0  0  0  0  0
  189.3950  177.2330  145.3460 C   0  0  0  0  0  0  0  0  0  0  0  0
  188.2790  177.8650  139.8140 C   0  0  1  0  0  3  0  0  0  0  0  0
  185.9020  178.2120  140.3220 N   0  0  0  0  0  2  0  0  0  0  0  0
  188.9170  177.5930  147.4930 C   0  0  0  0  0  0  0  0  0  0  0  0
  186.5940  178.4910  137.9740 C   0  0  0  0  0  2  0  0  0  0  0  0
  183.8570  178.7850  142.3160 C   0  0  0  0  0  3  0  0  0  0  0  0
  186.2950  178.5230  141.6970 C   0  0  1  0  0  3  0  0  0  0  0  0
  185.1950  178.2000  142.6920 C   0  0  1  0  0  3  0  0  0  0  0  0
  186.9570  178.1980  144.5030 C   0  0  0  0  0  0  0  0  0  0  0  0
  190.1550  177.0460  147.4330 N   0  0  0  0  0  0  0  0  0  0  0  0
  189.1250  177.5310  137.1940 S   0  0  0  0  0  0  0  0  0  0  0  0
  186.9980  178.6300  139.4470 C   0  0  2  0  0  3  0  0  0  0  0  0
  190.4570  176.8190  146.1250 C   0  0  0  0  0  3  0  0  0  0  0  0
  189.3940  178.2450  138.8630 C   0  0  0  0  0  2  0  0  0  0  0  0
  184.5210  178.5440  145.0660 C   0  0  0  0  0  3  0  0  0  0  0  0
  185.6240  178.7440  144.0600 C   0  0  2  0  0  3  0  0  0  0  0  0
  187.2400  178.1840  145.8130 O   0  0  0  0  0  0  0  0  0  0  0  0
  188.6550  178.1640  141.1950 N   0  0  0  0  0  2  0  0  0  0  0  0
  190.1240  176.6750  143.0870 N   0  0  0  0  0  1  0  0  0  0  0  0
  188.2350  177.9740  148.7590 C   0  0  0  0  0  1  0  0  0  0  0  0
  187.9230  177.7590  143.5290 C   0  0  0  0  0  0  0  0  0  0  0  0
  188.4040  177.7260  146.2320 C   0  0  0  0  0  0  0  0  0  0  0  0
  186.8650  175.9910  137.7560 C   0  0  0  0  0  2  0  0  0  0  0  0
  186.5120  174.8650  136.3960 S   0  0  1  0  0  0  0  0  0  0  0  0
  186.1170  173.5770  137.1070 O   0  0  0  0  0  0  0  0  0  0  0  0
  184.9930  175.4600  135.7620 N   0  0  0  0  0  2  0  0  0  0  0  0
  184.0530  174.3560  135.8200 C   0  0  0  0  0  1  0  0  0  0  0  0
  1 28  1  1  0  0  0
  1 10  1  0  0  0  0
  2 23  1  6  0  0  0
  2 26  1  0  0  0  0
  3  4  1  0  0  0  0
  4 20  2  0  0  0  0
  5  6  2  0  0  0  0
  6 18  1  0  0  0  0
  6 27  1  0  0  0  0
  7 19  1  6  0  0  0
  7 23  1  0  0  0  0
  9 25  1  0  0  0  0
 11  3  2  0  0  0  0
 12  8  1  6  0  0  0
 12  2  1  0  0  0  0
 12 13  1  0  0  0  0
 13 11  1  6  0  0  0
 13 21  1  0  0  0  0
 14 22  1  0  0  0  0
 15  9  1  0  0  0  0
 16  1  1  0  0  0  0
 16 19  1  0  0  0  0
 17 10  1  6  0  0  0
 17  7  1  0  0  0  0
 17  8  1  0  0  0  0
 18 15  2  0  0  0  0
 21 14  1  0  0  0  0
 21 20  1  1  0  0  0
 22 27  1  0  0  0  0
 24  5  1  0  0  0  0
 26  5  1  0  0  0  0
 26 14  2  0  0  0  0
 27  9  2  0  0  0  0
 29 30  2  1  0  0  0
 29 28  1  0  0  0  0
 31 32  1  0  0  0  0
 31 29  1  0  0  0  0
M  END
>  <MODEL>
3

>  <REMARK>
 VINA RESULT:      -9.1      1.042      1.049
  Name = 
  3 active torsions:
  status: ('A' for Active; 'I' for Inactive)
    1  A    between atoms: S_1  and  N_10
    2  A    between atoms: S_1  and  C_24
    3  A    between atoms: C_2  and  C_24
                            x       y       z     vdW  Elec       q    Type
                         _______ _______ _______ _____ _____    ______ ____

>  <TORSDO>
F 3

$$$$
=
 OpenBabel10262421293D

 32 37  0  0  1  0  0  0  0  0999 V2000
  185.0340  177.9320  137.6490 C   0  0  1  0  0  3  0  0  0  0  0  0
  187.2910  177.6870  141.9320 C   0  0  1  0  0  3  0  0  0  0  0  0
  183.6730  178.8780  145.0900 C   0  0  0  0  0  3  0  0  0  0  0  0
  184.5290  178.4240  146.2090 C   0  0  0  0  0  3  0  0  0  0  0  0
  189.5080  176.9340  142.9530 C   0  0  0  0  0  0  0  0  0  0  0  0
  190.2850  176.7660  144.0870 C   0  0  0  0  0  0  0  0  0  0  0  0
  187.0330  178.0990  139.6260 C   0  0  1  0  0  3  0  0  0  0  0  0
  185.1080  178.4290  141.1150 N   0  0  0  0  0  2  0  0  0  0  0  0
  190.7620  176.8670  146.2620 C   0  0  0  0  0  0  0  0  0  0  0  0
  184.7880  178.9830  138.7350 C   0  0  0  0  0  2  0  0  0  0  0  0
  184.1130  178.7920  143.8280 C   0  0  0  0  0  3  0  0  0  0  0  0
  186.0540  178.5590  142.2240 C   0  0  1  0  0  3  0  0  0  0  0  0
  185.4430  178.1380  143.5480 C   0  0  1  0  0  3  0  0  0  0  0  0
  187.7900  177.8760  144.4450 C   0  0  0  0  0  0  0  0  0  0  0  0
  191.8230  176.3060  145.6330 N   0  0  0  0  0  0  0  0  0  0  0  0
  186.6980  178.0750  136.8740 S   0  0  0  0  0  0  0  0  0  0  0  0
  185.7720  178.9300  139.9110 C   0  0  2  0  0  3  0  0  0  0  0  0
  191.5420  176.2360  144.3030 C   0  0  0  0  0  3  0  0  0  0  0  0
  187.6800  178.5720  138.3420 C   0  0  0  0  0  2  0  0  0  0  0  0
  185.8340  178.1990  146.0080 C   0  0  0  0  0  3  0  0  0  0  0  0
  186.4350  178.4990  144.6590 C   0  0  2  0  0  3  0  0  0  0  0  0
  188.5860  177.6940  145.5080 O   0  0  0  0  0  0  0  0  0  0  0  0
  187.9650  178.2170  140.7470 N   0  0  0  0  0  2  0  0  0  0  0  0
  189.9760  176.4770  141.6850 N   0  0  0  0  0  1  0  0  0  0  0  0
  190.6910  177.1010  147.7290 C   0  0  0  0  0  1  0  0  0  0  0  0
  188.2340  177.5410  143.1170 C   0  0  0  0  0  0  0  0  0  0  0  0
  189.7840  177.1640  145.3520 C   0  0  0  0  0  0  0  0  0  0  0  0
  184.7690  176.5240  138.1650 C   0  0  0  0  0  2  0  0  0  0  0  0
  183.0200  176.1170  138.0270 S   0  0  1  0  0  0  0  0  0  0  0  0
  183.0300  174.6090  137.8220 O   0  0  0  0  0  0  0  0  0  0  0  0
  182.4330  176.2990  139.6650 N   0  0  0  0  0  2  0  0  0  0  0  0
  181.1410  175.6400  139.7240 C   0  0  0  0  0  1  0  0  0  0  0  0
  1 28  1  1  0  0  0
  1 10  1  0  0  0  0
  2 23  1  6  0  0  0
  2 12  1  0  0  0  0
  2 26  1  0  0  0  0
  3  4  1  0  0  0  0
  5 26  1  0  0  0  0
  5  6  2  0  0  0  0
  6 18  1  0  0  0  0
  6 27  1  0  0  0  0
  7 19  1  6  0  0  0
  7 17  1  0  0  0  0
  7 23  1  0  0  0  0
  9 25  1  0  0  0  0
 11  3  2  0  0  0  0
 12  8  1  6  0  0  0
 12 13  1  0  0  0  0
 13 11  1  1  0  0  0
 13 21  1  0  0  0  0
 14 21  1  0  0  0  0
 14 22  1  0  0  0  0
 15  9  1  0  0  0  0
 16  1  1  0  0  0  0
 16 19  1  0  0  0  0
 17 10  1  6  0  0  0
 17  8  1  0  0  0  0
 18 15  2  0  0  0  0
 20  4  2  0  0  0  0
 21 20  1  1  0  0  0
 24  5  1  0  0  0  0
 26 14  2  0  0  0  0
 27 22  1  0  0  0  0
 27  9  2  0  0  0  0
 29 30  2  1  0  0  0
 29 28  1  0  0  0  0
 29 31  1  0  0  0  0
 31 32  1  0  0  0  0
M  END
>  <MODEL>
4

>  <REMARK>
 VINA RESULT:      -9.0      2.209      2.587
  Name = 
  3 active torsions:
  status: ('A' for Active; 'I' for Inactive)
    1  A    between atoms: S_1  and  N_10
    2  A    between atoms: S_1  and  C_24
    3  A    between atoms: C_2  and  C_24
                            x       y       z     vdW  Elec       q    Type
                         _______ _______ _______ _____ _____    ______ ____

>  <TORSDO>
F 3

$$$$
=
 OpenBabel10262421293D

 32 37  0  0  1  0  0  0  0  0999 V2000
  181.3540  180.0910  138.2220 C   0  0  1  0  0  3  0  0  0  0  0  0
  184.5270  178.8790  141.6820 C   0  0  1  0  0  3  0  0  0  0  0  0
  188.6620  178.0970  139.0800 C   0  0  0  0  0  3  0  0  0  0  0  0
  189.4290  178.0780  140.3460 C   0  0  0  0  0  3  0  0  0  0  0  0
  184.7350  178.7990  144.2260 C   0  0  0  0  0  0  0  0  0  0  0  0
  185.5190  178.5280  145.3350 C   0  0  0  0  0  0  0  0  0  0  0  0
  182.4450  179.0120  140.5850 C   0  0  1  0  0  3  0  0  0  0  0  0
  184.4950  178.9210  139.2360 N   0  0  0  0  0  2  0  0  0  0  0  0
  187.3530  177.8780  146.4220 C   0  0  0  0  0  0  0  0  0  0  0  0
  182.3550  178.9510  138.0150 C   0  0  0  0  0  2  0  0  0  0  0  0
  187.3400  178.3090  139.0980 C   0  0  0  0  0  3  0  0  0  0  0  0
  185.1670  178.3280  140.3930 C   0  0  1  0  0  3  0  0  0  0  0  0
  186.6550  178.6270  140.4040 C   0  0  1  0  0  3  0  0  0  0  0  0
  186.6580  178.0730  142.8690 C   0  0  0  0  0  0  0  0  0  0  0  0
  186.4350  178.2480  147.3470 N   0  0  0  0  0  0  0  0  0  0  0  0
  180.0170  179.6650  139.4150 S   0  0  0  0  0  0  0  0  0  0  0  0
  183.0920  178.5080  139.2850 C   0  0  2  0  0  3  0  0  0  0  0  0
  185.3100  178.6500  146.6940 C   0  0  0  0  0  3  0  0  0  0  0  0
  180.9760  178.6460  140.6020 C   0  0  0  0  0  2  0  0  0  0  0  0
  188.7890  177.9830  141.5180 C   0  0  0  0  0  3  0  0  0  0  0  0
  187.2930  177.8040  141.5290 C   0  0  2  0  0  3  0  0  0  0  0  0
  187.3710  177.8240  143.9760 O   0  0  0  0  0  0  0  0  0  0  0  0
  183.1350  178.4320  141.7370 N   0  0  0  0  0  2  0  0  0  0  0  0
  183.4310  179.3550  144.3850 N   0  0  0  0  0  1  0  0  0  0  0  0
  188.7180  177.3870  146.7530 C   0  0  0  0  0  1  0  0  0  0  0  0
  185.2950  178.5320  142.9480 C   0  0  0  0  0  0  0  0  0  0  0  0
  186.8380  178.0360  145.1640 C   0  0  0  0  0  0  0  0  0  0  0  0
  182.0550  181.3880  138.5990 C   0  0  0  0  0  2  0  0  0  0  0  0
  181.1460  182.8070  137.9630 S   0  0  1  0  0  0  0  0  0  0  0  0
  182.2390  183.8420  137.7280 O   0  0  0  0  0  0  0  0  0  0  0  0
  180.7040  182.3110  136.3450 N   0  0  0  0  0  2  0  0  0  0  0  0
  180.8050  183.4890  135.5020 C   0  0  0  0  0  1  0  0  0  0  0  0
  1 28  1  1  0  0  0
  1 16  1  0  0  0  0
  2 23  1  1  0  0  0
  2 26  1  0  0  0  0
  3 11  2  0  0  0  0
  3  4  1  0  0  0  0
  4 20  2  0  0  0  0
  5 24  1  0  0  0  0
  5  6  2  0  0  0  0
  6 18  1  0  0  0  0
  7 19  1  6  0  0  0
  7 23  1  0  0  0  0
  8 17  1  0  0  0  0
  9 25  1  0  0  0  0
  9 15  1  0  0  0  0
 10  1  1  0  0  0  0
 12  8  1  6  0  0  0
 12 13  1  0  0  0  0
 12  2  1  0  0  0  0
 13 11  1  6  0  0  0
 13 21  1  0  0  0  0
 14 26  2  0  0  0  0
 14 22  1  0  0  0  0
 16 19  1  0  0  0  0
 17 10  1  6  0  0  0
 17  7  1  0  0  0  0
 18 15  2  0  0  0  0
 21 20  1  1  0  0  0
 21 14  1  0  0  0  0
 22 27  1  0  0  0  0
 26  5  1  0  0  0  0
 27  6  1  0  0  0  0
 27  9  2  0  0  0  0
 29 30  2  6  0  0  0
 29 28  1  0  0  0  0
 31 29  1  0  0  0  0
 32 31  1  0  0  0  0
M  END
>  <MODEL>
5

>  <REMARK>
 VINA RESULT:      -8.3      4.344      6.306
  Name = 
  3 active torsions:
  status: ('A' for Active; 'I' for Inactive)
    1  A    between atoms: S_1  and  N_10
    2  A    between atoms: S_1  and  C_24
    3  A    between atoms: C_2  and  C_24
                            x       y       z     vdW  Elec       q    Type
                         _______ _______ _______ _____ _____    ______ ____

>  <TORSDO>
F 3

$$$$
=
 OpenBabel10262421293D

 32 37  0  0  1  0  0  0  0  0999 V2000
  190.9050  176.0670  136.8470 C   0  0  1  0  0  3  0  0  0  0  0  0
  188.9380  177.2050  141.1290 C   0  0  1  0  0  3  0  0  0  0  0  0
  184.5380  179.0390  139.8040 C   0  0  0  0  0  3  0  0  0  0  0  0
  184.1110  178.9790  141.2200 C   0  0  0  0  0  3  0  0  0  0  0  0
  189.3570  176.9120  143.6310 C   0  0  0  0  0  0  0  0  0  0  0  0
  188.9250  177.1250  144.9300 C   0  0  0  0  0  0  0  0  0  0  0  0
  190.6350  176.9170  139.5190 C   0  0  1  0  0  3  0  0  0  0  0  0
  188.3820  177.5480  138.7720 N   0  0  0  0  0  2  0  0  0  0  0  0
  187.5630  177.8780  146.5250 C   0  0  0  0  0  0  0  0  0  0  0  0
  190.1250  177.3700  137.0380 C   0  0  0  0  0  2  0  0  0  0  0  0
  185.7600  178.6190  139.4520 C   0  0  0  0  0  3  0  0  0  0  0  0
  188.1310  178.0490  140.1240 C   0  0  1  0  0  3  0  0  0  0  0  0
  186.6580  177.9920  140.4890 C   0  0  1  0  0  3  0  0  0  0  0  0
  187.3460  178.1410  142.9150 C   0  0  0  0  0  0  0  0  0  0  0  0
  188.5830  177.2240  147.1300 N   0  0  0  0  0  0  0  0  0  0  0  0
  192.5430  176.0790  137.6890 S   0  0  0  0  0  0  0  0  0  0  0  0
  189.8090  177.7180  138.4990 C   0  0  2  0  0  3  0  0  0  0  0  0
  189.4220  176.7570  146.1650 C   0  0  0  0  0  3  0  0  0  0  0  0
  192.1080  177.0370  139.1930 C   0  0  0  0  0  2  0  0  0  0  0  0
  185.0160  178.7840  142.1870 C   0  0  0  0  0  3  0  0  0  0  0  0
  186.4780  178.7170  141.8270 C   0  0  2  0  0  3  0  0  0  0  0  0
  186.9780  178.3220  144.1910 O   0  0  0  0  0  0  0  0  0  0  0  0
  190.3630  177.4090  140.8690 N   0  0  0  0  0  2  0  0  0  0  0  0
  190.5280  176.1370  143.3800 N   0  0  0  0  0  1  0  0  0  0  0  0
  186.4370  178.5210  147.2540 C   0  0  0  0  0  1  0  0  0  0  0  0
  188.5730  177.4640  142.5830 C   0  0  0  0  0  0  0  0  0  0  0  0
  187.7250  177.8410  145.1670 C   0  0  0  0  0  0  0  0  0  0  0  0
  190.0740  174.8550  137.2440 C   0  0  0  0  0  2  0  0  0  0  0  0
  189.0670  174.2970  135.8590 S   0  0  1  0  0  0  0  0  0  0  0  0
  188.8560  172.8190  136.1570 O   0  0  0  0  0  0  0  0  0  0  0  0
  187.5000  175.0040  136.1870 N   0  0  0  0  0  2  0  0  0  0  0  0
  187.2200  175.9270  135.1030 C   0  0  0  0  0  1  0  0  0  0  0  0
  1 10  1  0  0  0  0
  1 28  1  1  0  0  0
  1 16  1  0  0  0  0
  2 23  1  1  0  0  0
  2 26  1  0  0  0  0
  3  4  1  0  0  0  0
  4 20  2  0  0  0  0
  5  6  2  0  0  0  0
  6 27  1  0  0  0  0
  6 18  1  0  0  0  0
  7 19  1  6  0  0  0
  7 23  1  0  0  0  0
  9 15  1  0  0  0  0
  9 25  1  0  0  0  0
 11  3  2  0  0  0  0
 12  8  1  6  0  0  0
 12 13  1  0  0  0  0
 12  2  1  0  0  0  0
 13 11  1  6  0  0  0
 13 21  1  0  0  0  0
 14 22  1  0  0  0  0
 16 19  1  0  0  0  0
 17 10  1  6  0  0  0
 17  8  1  0  0  0  0
 17  7  1  0  0  0  0
 18 15  2  0  0  0  0
 21 20  1  1  0  0  0
 21 14  1  0  0  0  0
 22 27  1  0  0  0  0
 24  5  1  0  0  0  0
 26 14  2  0  0  0  0
 26  5  1  0  0  0  0
 27  9  2  0  0  0  0
 29 30  2  1  0  0  0
 29 31  1  0  0  0  0
 29 28  1  0  0  0  0
 32 31  1  0  0  0  0
M  END
>  <MODEL>
6

>  <REMARK>
 VINA RESULT:      -8.2      1.898      2.269
  Name = 
  3 active torsions:
  status: ('A' for Active; 'I' for Inactive)
    1  A    between atoms: S_1  and  N_10
    2  A    between atoms: S_1  and  C_24
    3  A    between atoms: C_2  and  C_24
                            x       y       z     vdW  Elec       q    Type
                         _______ _______ _______ _____ _____    ______ ____

>  <TORSDO>
F 3

$$$$
=
 OpenBabel10262421293D

 32 37  0  0  1  0  0  0  0  0999 V2000
  181.1310  178.4560  139.7150 C   0  0  1  0  0  3  0  0  0  0  0  0
  185.5580  178.2730  141.6820 C   0  0  1  0  0  3  0  0  0  0  0  0
  184.5560  178.3970  146.5250 C   0  0  0  0  0  3  0  0  0  0  0  0
  185.9610  178.0240  146.8040 C   0  0  0  0  0  3  0  0  0  0  0  0
  187.9960  177.8950  141.0210 C   0  0  0  0  0  0  0  0  0  0  0  0
  189.3190  177.7830  141.4150 C   0  0  0  0  0  0  0  0  0  0  0  0
  183.8930  178.8400  140.1130 C   0  0  1  0  0  3  0  0  0  0  0  0
  183.2730  178.6280  142.4800 N   0  0  0  0  0  2  0  0  0  0  0  0
  191.0210  177.7730  142.8540 C   0  0  0  0  0  0  0  0  0  0  0  0
  181.4990  179.3270  140.9190 C   0  0  0  0  0  2  0  0  0  0  0  0
  184.1310  178.5220  145.2620 C   0  0  0  0  0  3  0  0  0  0  0  0
  184.6820  178.8430  142.8140 C   0  0  1  0  0  3  0  0  0  0  0  0
  185.0640  178.1830  144.1270 C   0  0  1  0  0  3  0  0  0  0  0  0
  187.4770  178.3220  143.3900 C   0  0  0  0  0  0  0  0  0  0  0  0
  191.5200  177.5030  141.6240 N   0  0  0  0  0  0  0  0  0  0  0  0
  181.9380  179.0080  138.1540 S   0  0  0  0  0  0  0  0  0  0  0  0
  182.9970  179.3650  141.2470 C   0  0  2  0  0  3  0  0  0  0  0  0
  190.4880  177.5030  140.7350 C   0  0  0  0  0  3  0  0  0  0  0  0
  183.5580  179.5540  138.8210 C   0  0  0  0  0  2  0  0  0  0  0  0
  186.8790  178.0900  145.8310 C   0  0  0  0  0  3  0  0  0  0  0  0
  186.4860  178.6320  144.4820 C   0  0  2  0  0  3  0  0  0  0  0  0
  188.7730  178.2070  143.7150 O   0  0  0  0  0  0  0  0  0  0  0  0
  185.2990  179.0390  140.4630 N   0  0  0  0  0  2  0  0  0  0  0  0
  187.6280  177.6650  139.6620 N   0  0  0  0  0  1  0  0  0  0  0  0
  191.8460  177.8480  144.0900 C   0  0  0  0  0  1  0  0  0  0  0  0
  187.0400  178.2120  142.0220 C   0  0  0  0  0  0  0  0  0  0  0  0
  189.6660  177.9500  142.7790 C   0  0  0  0  0  0  0  0  0  0  0  0
  181.3890  176.9810  139.9930 C   0  0  0  0  0  2  0  0  0  0  0  0
  181.6930  176.0910  138.4570 S   0  0  1  0  0  0  0  0  0  0  0  0
  183.0600  175.4590  138.6880 O   0  0  0  0  0  0  0  0  0  0  0  0
  180.5980  174.7300  138.5550 N   0  0  0  0  0  2  0  0  0  0  0  0
  179.6620  175.0200  139.6250 C   0  0  0  0  0  1  0  0  0  0  0  0
  1 28  1  1  0  0  0
  1 10  1  0  0  0  0
  2 23  1  6  0  0  0
  2 26  1  0  0  0  0
  2 12  1  0  0  0  0
  3  4  1  0  0  0  0
  5  6  2  0  0  0  0
  5 26  1  0  0  0  0
  6 27  1  0  0  0  0
  7 19  1  6  0  0  0
  7 23  1  0  0  0  0
  7 17  1  0  0  0  0
  9 25  1  0  0  0  0
 11  3  2  0  0  0  0
 12  8  1  6  0  0  0
 12 13  1  0  0  0  0
 13 21  1  0  0  0  0
 13 11  1  1  0  0  0
 14 22  1  0  0  0  0
 14 21  1  0  0  0  0
 15  9  1  0  0  0  0
 16 19  1  0  0  0  0
 16  1  1  0  0  0  0
 17 10  1  6  0  0  0
 17  8  1  0  0  0  0
 18  6  1  0  0  0  0
 18 15  2  0  0  0  0
 20  4  2  0  0  0  0
 21 20  1  1  0  0  0
 24  5  1  0  0  0  0
 26 14  2  0  0  0  0
 27  9  2  0  0  0  0
 27 22  1  0  0  0  0
 29 31  1  0  0  0  0
 29 30  2  1  0  0  0
 29 28  1  0  0  0  0
 31 32  1  0  0  0  0
M  END
>  <MODEL>
7

>  <REMARK>
 VINA RESULT:      -8.0      3.239      4.899
  Name = 
  3 active torsions:
  status: ('A' for Active; 'I' for Inactive)
    1  A    between atoms: S_1  and  N_10
    2  A    between atoms: S_1  and  C_24
    3  A    between atoms: C_2  and  C_24
                            x       y       z     vdW  Elec       q    Type
                         _______ _______ _______ _____ _____    ______ ____

>  <TORSDO>
F 3

$$$$
=
 OpenBabel10262421293D

 32 37  0  0  1  0  0  0  0  0999 V2000
  194.2030  175.3690  136.0370 C   0  0  1  0  0  3  0  0  0  0  0  0
  190.1910  176.8900  138.2950 C   0  0  1  0  0  3  0  0  0  0  0  0
  191.8210  177.6860  142.8980 C   0  0  0  0  0  3  0  0  0  0  0  0
  190.5540  178.3890  143.2020 C   0  0  0  0  0  3  0  0  0  0  0  0
  187.7880  177.5890  137.7880 C   0  0  0  0  0  0  0  0  0  0  0  0
  186.5730  178.0540  138.2610 C   0  0  0  0  0  0  0  0  0  0  0  0
  191.4990  175.6530  136.7730 C   0  0  1  0  0  3  0  0  0  0  0  0
  192.4690  176.2750  138.9420 N   0  0  0  0  0  2  0  0  0  0  0  0
  185.1140  178.7390  139.8020 C   0  0  0  0  0  0  0  0  0  0  0  0
  193.8610  174.8920  137.4510 C   0  0  0  0  0  2  0  0  0  0  0  0
  192.0380  177.1900  141.6740 C   0  0  0  0  0  3  0  0  0  0  0  0
  191.1050  176.4310  139.4480 C   0  0  1  0  0  3  0  0  0  0  0  0
  191.0290  177.4390  140.5810 C   0  0  1  0  0  3  0  0  0  0  0  0
  188.5500  177.6240  140.1290 C   0  0  0  0  0  0  0  0  0  0  0  0
  184.5040  178.8140  138.5950 N   0  0  0  0  0  0  0  0  0  0  0  0
  193.1040  174.6470  134.7480 S   0  0  0  0  0  0  0  0  0  0  0  0
  192.4390  175.2340  137.9150 C   0  0  2  0  0  3  0  0  0  0  0  0
  185.3860  178.4000  137.6440 C   0  0  0  0  0  3  0  0  0  0  0  0
  191.5230  174.6080  135.6780 C   0  0  0  0  0  2  0  0  0  0  0  0
  189.5120  178.2870  142.3670 C   0  0  0  0  0  3  0  0  0  0  0  0
  189.6140  177.3800  141.1680 C   0  0  2  0  0  3  0  0  0  0  0  0
  187.3520  178.0700  140.5330 O   0  0  0  0  0  0  0  0  0  0  0  0
  190.1420  175.8280  137.2900 N   0  0  0  0  0  2  0  0  0  0  0  0
  187.9980  177.4210  136.3870 N   0  0  0  0  0  1  0  0  0  0  0  0
  184.4690  179.1180  141.0870 C   0  0  0  0  0  1  0  0  0  0  0  0
  188.8050  177.3260  138.7440 C   0  0  0  0  0  0  0  0  0  0  0  0
  186.3950  178.2800  139.6490 C   0  0  0  0  0  0  0  0  0  0  0  0
  194.2460  176.8890  135.9570 C   0  0  0  0  0  2  0  0  0  0  0  0
  195.6680  177.4320  134.9930 S   0  0  1  0  0  0  0  0  0  0  0  0
  195.8000  178.9020  135.3690 O   0  0  0  0  0  0  0  0  0  0  0  0
  197.0200  176.6810  135.8100 N   0  0  0  0  0  2  0  0  0  0  0  0
  197.5790  175.7080  134.8900 C   0  0  0  0  0  1  0  0  0  0  0  0
  1 28  1  1  0  0  0
  1 10  1  0  0  0  0
  2 23  1  6  0  0  0
  2 26  1  0  0  0  0
  2 12  1  0  0  0  0
  3  4  1  0  0  0  0
  5  6  2  0  0  0  0
  5 26  1  0  0  0  0
  6 27  1  0  0  0  0
  7 19  1  6  0  0  0
  7 23  1  0  0  0  0
  7 17  1  0  0  0  0
  9 25  1  0  0  0  0
 11  3  2  0  0  0  0
 12  8  1  6  0  0  0
 12 13  1  0  0  0  0
 13 21  1  0  0  0  0
 13 11  1  1  0  0  0
 14 22  1  0  0  0  0
 14 21  1  0  0  0  0
 15  9  1  0  0  0  0
 16 19  1  0  0  0  0
 16  1  1  0  0  0  0
 17 10  1  6  0  0  0
 17  8  1  0  0  0  0
 18  6  1  0  0  0  0
 18 15  2  0  0  0  0
 20  4  2  0  0  0  0
 21 20  1  1  0  0  0
 24  5  1  0  0  0  0
 26 14  2  0  0  0  0
 27  9  2  0  0  0  0
 27 22  1  0  0  0  0
 29 30  2  1  0  0  0
 29 31  1  0  0  0  0
 29 28  1  0  0  0  0
 32 31  1  0  0  0  0
M  END
>  <MODEL>
8

>  <REMARK>
 VINA RESULT:      -7.1      4.248      7.395
  Name = 
  3 active torsions:
  status: ('A' for Active; 'I' for Inactive)
    1  A    between atoms: S_1  and  N_10
    2  A    between atoms: S_1  and  C_24
    3  A    between atoms: C_2  and  C_24
                            x       y       z     vdW  Elec       q    Type
                         _______ _______ _______ _____ _____    ______ ____

>  <TORSDO>
F 3

$$$$
=
 OpenBabel10262421293D

 32 37  0  0  1  0  0  0  0  0999 V2000
  182.4760  178.4260  140.0740 C   0  0  1  0  0  3  0  0  0  0  0  0
  187.2780  177.7750  140.2140 C   0  0  1  0  0  3  0  0  0  0  0  0
  188.1540  177.5040  145.0760 C   0  0  0  0  0  3  0  0  0  0  0  0
  189.5210  177.0160  144.7810 C   0  0  0  0  0  3  0  0  0  0  0  0
  189.2510  177.3070  138.6610 C   0  0  0  0  0  0  0  0  0  0  0  0
  190.6080  177.0730  138.5210 C   0  0  0  0  0  0  0  0  0  0  0  0
  185.2120  178.5930  139.4270 C   0  0  1  0  0  3  0  0  0  0  0  0
  185.4950  178.1980  141.8350 N   0  0  0  0  0  2  0  0  0  0  0  0
  192.7130  176.8180  139.2100 C   0  0  0  0  0  0  0  0  0  0  0  0
  183.3440  179.1540  141.1040 C   0  0  0  0  0  2  0  0  0  0  0  0
  187.3060  177.7750  144.0760 C   0  0  0  0  0  3  0  0  0  0  0  0
  186.9410  178.2900  141.6270 C   0  0  1  0  0  3  0  0  0  0  0  0
  187.7170  177.4860  142.6540 C   0  0  1  0  0  3  0  0  0  0  0  0
  189.6880  177.5390  141.0740 C   0  0  0  0  0  0  0  0  0  0  0  0
  192.6940  176.6340  137.8670 N   0  0  0  0  0  0  0  0  0  0  0  0
  182.6970  179.0710  138.3630 S   0  0  0  0  0  0  0  0  0  0  0  0
  184.8530  179.0640  140.8450 C   0  0  2  0  0  3  0  0  0  0  0  0
  191.4120  176.7850  137.4350 C   0  0  0  0  0  3  0  0  0  0  0  0
  184.4920  179.4460  138.4050 C   0  0  0  0  0  2  0  0  0  0  0  0
  190.0160  177.1150  143.5410 C   0  0  0  0  0  3  0  0  0  0  0  0
  189.2050  177.8080  142.4760 C   0  0  2  0  0  3  0  0  0  0  0  0
  190.9940  177.3110  140.8790 O   0  0  0  0  0  0  0  0  0  0  0  0
  186.6600  178.6680  139.2340 N   0  0  0  0  0  2  0  0  0  0  0  0
  188.3860  177.2300  137.5290 N   0  0  0  0  0  1  0  0  0  0  0  0
  193.9390  176.7230  140.0460 C   0  0  0  0  0  1  0  0  0  0  0  0
  188.7670  177.5870  139.9670 C   0  0  0  0  0  0  0  0  0  0  0  0
  191.4500  177.0870  139.6620 C   0  0  0  0  0  0  0  0  0  0  0  0
  182.6770  176.9180  140.1400 C   0  0  0  0  0  2  0  0  0  0  0  0
  182.2530  176.1530  138.5650 S   0  0  1  0  0  0  0  0  0  0  0  0
  183.1190  174.9000  138.5450 O   0  0  0  0  0  0  0  0  0  0  0  0
  180.6430  175.5280  138.8400 N   0  0  0  0  0  2  0  0  0  0  0  0
  180.4550  174.4280  137.9120 C   0  0  0  0  0  1  0  0  0  0  0  0
  1 28  1  6  0  0  0
  1 10  1  0  0  0  0
  2 23  1  6  0  0  0
  2 12  1  0  0  0  0
  4  3  1  0  0  0  0
  5 26  1  0  0  0  0
  6  5  2  0  0  0  0
  6 27  1  0  0  0  0
  7 19  1  6  0  0  0
  7 17  1  0  0  0  0
  9 27  2  0  0  0  0
  9 25  1  0  0  0  0
 11  3  2  0  0  0  0
 12  8  1  1  0  0  0
 12 13  1  0  0  0  0
 13 11  1  1  0  0  0
 14 21  1  0  0  0  0
 15  9  1  0  0  0  0
 16 19  1  0  0  0  0
 16  1  1  0  0  0  0
 17 10  1  6  0  0  0
 17  8  1  0  0  0  0
 18 15  2  0  0  0  0
 18  6  1  0  0  0  0
 20  4  2  0  0  0  0
 21 13  1  0  0  0  0
 21 20  1  1  0  0  0
 22 14  1  0  0  0  0
 23  7  1  0  0  0  0
 24  5  1  0  0  0  0
 26  2  1  0  0  0  0
 26 14  2  0  0  0  0
 27 22  1  0  0  0  0
 29 30  2  1  0  0  0
 29 31  1  0  0  0  0
 29 28  1  0  0  0  0
 32 31  1  0  0  0  0
M  END
>  <MODEL>
9

>  <REMARK>
 VINA RESULT:      -7.0      3.367      5.863
  Name = 
  3 active torsions:
  status: ('A' for Active; 'I' for Inactive)
    1  A    between atoms: S_1  and  N_10
    2  A    between atoms: S_1  and  C_24
    3  A    between atoms: C_2  and  C_24
                            x       y       z     vdW  Elec       q    Type
                         _______ _______ _______ _____ _____    ______ ____

>  <TORSDO>
F 3

$$$$
