=
 OpenBabel10262419243D

 31 34  0  0  1  0  0  0  0  0999 V2000
  186.5640  177.8450  143.0960 C   0  0  1  0  0  3  0  0  0  0  0  0
  186.3270  178.4150  144.4270 N   0  0  0  0  0  0  0  0  0  0  0  0
  187.1390  178.0450  145.5580 C   0  0  0  0  0  0  0  0  0  0  0  0
  189.1090  176.7160  146.4210 C   0  0  0  0  0  3  0  0  0  0  0  0
  188.2410  177.2940  145.3770 C   0  0  0  0  0  3  0  0  0  0  0  0
  185.0380  178.5420  146.9370 C   0  0  0  0  0  2  0  0  0  0  0  0
  189.2960  177.2250  147.6370 C   0  0  0  0  0  3  0  0  0  0  0  0
  185.2590  179.2350  144.6420 O   0  0  0  0  0  0  0  0  0  0  0  0
  188.7120  178.5250  148.0730 C   0  0  0  0  0  2  0  0  0  0  0  0
  184.4180  178.5410  145.5310 C   0  0  0  0  0  2  0  0  0  0  0  0
  186.5270  178.3230  146.8860 C   0  0  0  0  0  0  0  0  0  0  0  0
  187.2220  178.5150  148.0090 C   0  0  0  0  0  3  0  0  0  0  0  0
  183.7330  178.5250  141.0410 N   0  0  0  0  0  0  0  0  0  0  0  0
  184.6410  179.3520  140.5000 C   0  0  0  0  0  3  0  0  0  0  0  0
  182.3530  178.3770  140.6190 C   0  0  0  0  0  1  0  0  0  0  0  0
  184.2800  177.8660  142.0430 N   0  0  0  0  0  0  0  0  0  0  0  0
  185.5490  178.3110  142.0960 C   0  0  0  0  0  0  0  0  0  0  0  0
  185.8160  179.2390  141.1530 N   0  0  0  0  0  0  0  0  0  0  0  0
  188.6210  177.1790  142.0560 C   0  0  0  0  0  3  0  0  0  0  0  0
  187.9210  178.0810  142.6500 N   0  0  0  0  0  0  0  0  0  0  0  0
  190.0300  177.4550  141.6270 C   0  0  1  0  0  3  0  0  0  0  0  0
  190.5600  175.7500  142.9350 C   0  0  0  0  0  1  0  0  0  0  0  0
  190.9170  177.0650  142.6320 O   0  0  0  0  0  0  0  0  0  0  0  0
  190.3650  176.7190  140.3330 C   0  0  0  0  0  2  0  0  0  0  0  0
  188.1550  177.4340  138.0810 C   0  0  2  0  0  3  0  0  0  0  0  0
  189.0500  177.0300  136.9220 C   0  0  2  0  0  3  0  0  0  0  0  0
  186.8890  178.1430  137.6290 C   0  0  0  0  0  1  0  0  0  0  0  0
  188.9770  178.3150  138.9880 C   0  0  0  0  0  2  0  0  0  0  0  0
  190.6950  176.7020  137.6220 S   0  0  0  0  0  0  0  0  0  0  0  0
  190.3410  177.6600  139.1340 C   0  0  2  0  0  3  0  0  0  0  0  0
  189.1590  178.0630  135.9870 O   0  0  0  0  0  1  0  0  0  0  0  0
  1 20  1  6  0  0  0
  1  2  1  0  0  0  0
  2  8  1  0  0  0  0
  2  3  1  0  0  0  0
  3 11  1  0  0  0  0
  4  7  2  0  0  0  0
  5  3  2  0  0  0  0
  5  4  1  0  0  0  0
  7  9  1  0  0  0  0
  8 10  1  0  0  0  0
 10  6  1  0  0  0  0
 11  6  1  0  0  0  0
 11 12  2  0  0  0  0
 12  9  1  0  0  0  0
 13 16  1  0  0  0  0
 14 13  1  0  0  0  0
 14 18  2  0  0  0  0
 15 13  1  0  0  0  0
 16 17  2  0  0  0  0
 17  1  1  0  0  0  0
 18 17  1  0  0  0  0
 19 20  2  0  0  0  0
 21 24  1  6  0  0  0
 21 19  1  0  0  0  0
 21 23  1  0  0  0  0
 23 22  1  0  0  0  0
 25 27  1  6  0  0  0
 25 28  1  0  0  0  0
 26 31  1  6  0  0  0
 26 29  1  0  0  0  0
 26 25  1  0  0  0  0
 28 30  1  0  0  0  0
 29 30  1  0  0  0  0
 30 24  1  1  0  0  0
M  END
>  <MODEL>
1

>  <REMARK>
 VINA RESULT:      -8.6      0.000      0.000
  Name = 
  7 active torsions:
  status: ('A' for Active; 'I' for Inactive)
    1  A    between atoms: C_3  and  C_9
    2  A    between atoms: C_3  and  C_22
    3  A    between atoms: N_4  and  C_12
    4  A    between atoms: C_9  and  C_15
    5  A    between atoms: C_9  and  O_23
    6  A    between atoms: C_12  and  N_20
    7  A    between atoms: C_12  and  C_27
                            x       y       z     vdW  Elec       q    Type
                         _______ _______ _______ _____ _____    ______ ____

>  <TORSDO>
F 7

$$$$
=
 OpenBabel10262419243D

 31 34  0  0  1  0  0  0  0  0999 V2000
  187.5800  177.8320  140.4260 C   0  0  1  0  0  3  0  0  0  0  0  0
  186.4340  178.5900  140.9420 N   0  0  0  0  0  0  0  0  0  0  0  0
  185.9930  178.4480  142.3060 C   0  0  0  0  0  0  0  0  0  0  0  0
  186.3740  177.3820  144.5660 C   0  0  0  0  0  3  0  0  0  0  0  0
  186.7310  177.7400  143.1810 C   0  0  0  0  0  3  0  0  0  0  0  0
  183.6790  179.0350  141.3760 C   0  0  0  0  0  2  0  0  0  0  0  0
  185.5680  178.0850  145.3610 C   0  0  0  0  0  3  0  0  0  0  0  0
  185.6950  179.3720  140.1040 O   0  0  0  0  0  0  0  0  0  0  0  0
  184.9900  179.4020  144.9720 C   0  0  0  0  0  2  0  0  0  0  0  0
  184.4200  178.7790  140.0540 C   0  0  0  0  0  2  0  0  0  0  0  0
  184.5970  178.8950  142.5620 C   0  0  0  0  0  0  0  0  0  0  0  0
  184.1420  179.2990  143.7490 C   0  0  0  0  0  3  0  0  0  0  0  0
  187.7820  178.2440  136.8920 N   0  0  0  0  0  0  0  0  0  0  0  0
  188.7810  179.0440  137.2960 C   0  0  0  0  0  3  0  0  0  0  0  0
  187.3680  178.0200  135.5190 C   0  0  0  0  0  1  0  0  0  0  0  0
  187.2070  177.6940  137.9420 N   0  0  0  0  0  0  0  0  0  0  0  0
  187.8850  178.1770  138.9990 C   0  0  0  0  0  0  0  0  0  0  0  0
  188.8740  179.0230  138.6410 N   0  0  0  0  0  0  0  0  0  0  0  0
  189.6430  177.0610  141.3750 C   0  0  0  0  0  3  0  0  0  0  0  0
  188.7390  177.9700  141.2830 N   0  0  0  0  0  0  0  0  0  0  0  0
  190.8190  177.2320  142.2900 C   0  0  1  0  0  3  0  0  0  0  0  0
  192.1340  177.4780  140.5270 C   0  0  0  0  0  1  0  0  0  0  0  0
  191.7460  178.1020  141.7130 O   0  0  0  0  0  0  0  0  0  0  0  0
  190.3830  177.7730  143.6490 C   0  0  0  0  0  2  0  0  0  0  0  0
  190.0490  177.6860  146.8660 C   0  0  2  0  0  3  0  0  0  0  0  0
  191.2660  176.8000  147.0750 C   0  0  2  0  0  3  0  0  0  0  0  0
  189.2210  177.8560  148.1280 C   0  0  0  0  0  1  0  0  0  0  0  0
  189.2350  177.0630  145.7600 C   0  0  0  0  0  2  0  0  0  0  0  0
  191.8210  176.2770  145.4240 S   0  0  0  0  0  0  0  0  0  0  0  0
  190.2040  176.6510  144.6640 C   0  0  2  0  0  3  0  0  0  0  0  0
  190.9390  175.6640  147.8200 O   0  0  0  0  0  1  0  0  0  0  0  0
  1  2  1  0  0  0  0
  1 20  1  1  0  0  0
  2  3  1  0  0  0  0
  3 11  1  0  0  0  0
  3  5  2  0  0  0  0
  4  7  2  0  0  0  0
  5  4  1  0  0  0  0
  6 11  1  0  0  0  0
  8  2  1  0  0  0  0
  9  7  1  0  0  0  0
 10  8  1  0  0  0  0
 10  6  1  0  0  0  0
 11 12  2  0  0  0  0
 12  9  1  0  0  0  0
 13 14  1  0  0  0  0
 13 16  1  0  0  0  0
 14 18  2  0  0  0  0
 15 13  1  0  0  0  0
 16 17  2  0  0  0  0
 17  1  1  0  0  0  0
 18 17  1  0  0  0  0
 20 19  2  0  0  0  0
 21 19  1  6  0  0  0
 21 24  1  0  0  0  0
 22 23  1  0  0  0  0
 23 21  1  0  0  0  0
 25 26  1  0  0  0  0
 25 27  1  1  0  0  0
 26 31  1  1  0  0  0
 28 25  1  0  0  0  0
 29 26  1  0  0  0  0
 30 24  1  6  0  0  0
 30 29  1  0  0  0  0
 30 28  1  0  0  0  0
M  END
>  <MODEL>
2

>  <REMARK>
 VINA RESULT:      -8.5      2.653      5.750
  Name = 
  7 active torsions:
  status: ('A' for Active; 'I' for Inactive)
    1  A    between atoms: C_3  and  C_9
    2  A    between atoms: C_3  and  C_22
    3  A    between atoms: N_4  and  C_12
    4  A    between atoms: C_9  and  C_15
    5  A    between atoms: C_9  and  O_23
    6  A    between atoms: C_12  and  N_20
    7  A    between atoms: C_12  and  C_27
                            x       y       z     vdW  Elec       q    Type
                         _______ _______ _______ _____ _____    ______ ____

>  <TORSDO>
F 7

$$$$
=
 OpenBabel10262419243D

 31 34  0  0  1  0  0  0  0  0999 V2000
  186.5400  177.8960  143.1010 C   0  0  1  0  0  3  0  0  0  0  0  0
  186.3070  178.4480  144.4400 N   0  0  0  0  0  0  0  0  0  0  0  0
  187.1200  178.0600  145.5640 C   0  0  0  0  0  0  0  0  0  0  0  0
  189.0880  176.7120  146.4030 C   0  0  0  0  0  3  0  0  0  0  0  0
  188.2190  177.3080  145.3700 C   0  0  0  0  0  3  0  0  0  0  0  0
  185.0230  178.5420  146.9540 C   0  0  0  0  0  2  0  0  0  0  0  0
  189.2780  177.2030  147.6260 C   0  0  0  0  0  3  0  0  0  0  0  0
  185.2410  179.2680  144.6690 O   0  0  0  0  0  0  0  0  0  0  0  0
  188.6990  178.4980  148.0820 C   0  0  0  0  0  2  0  0  0  0  0  0
  184.4000  178.5630  145.5490 C   0  0  0  0  0  2  0  0  0  0  0  0
  186.5120  178.3200  146.8960 C   0  0  0  0  0  0  0  0  0  0  0  0
  187.2090  178.4940  148.0210 C   0  0  0  0  0  3  0  0  0  0  0  0
  183.6550  178.5200  141.1030 N   0  0  0  0  0  0  0  0  0  0  0  0
  184.5370  179.3600  140.5400 C   0  0  0  0  0  3  0  0  0  0  0  0
  182.2700  178.3470  140.7100 C   0  0  0  0  0  1  0  0  0  0  0  0
  184.2340  177.8740  142.0950 N   0  0  0  0  0  0  0  0  0  0  0  0
  185.4960  178.3410  142.1200 C   0  0  0  0  0  0  0  0  0  0  0  0
  185.7270  179.2700  141.1690 N   0  0  0  0  0  0  0  0  0  0  0  0
  188.6130  177.2890  142.0570 C   0  0  0  0  0  3  0  0  0  0  0  0
  187.8830  178.1750  142.6350 N   0  0  0  0  0  0  0  0  0  0  0  0
  190.0060  177.6110  141.6080 C   0  0  1  0  0  3  0  0  0  0  0  0
  190.9840  176.2810  143.0820 C   0  0  0  0  0  1  0  0  0  0  0  0
  190.8680  177.6200  142.7060 O   0  0  0  0  0  0  0  0  0  0  0  0
  190.4990  176.5990  140.5770 C   0  0  0  0  0  2  0  0  0  0  0  0
  191.9890  175.5350  137.9090 C   0  0  2  0  0  3  0  0  0  0  0  0
  193.3300  176.1390  138.2890 C   0  0  2  0  0  3  0  0  0  0  0  0
  191.9610  175.0090  136.4840 C   0  0  0  0  0  1  0  0  0  0  0  0
  190.9490  176.6090  138.1120 C   0  0  0  0  0  2  0  0  0  0  0  0
  193.0430  177.1650  139.7620 S   0  0  0  0  0  0  0  0  0  0  0  0
  191.2500  177.2820  139.4410 C   0  0  2  0  0  3  0  0  0  0  0  0
  193.8250  176.9510  137.2650 O   0  0  0  0  0  1  0  0  0  0  0  0
  1 20  1  6  0  0  0
  1  2  1  0  0  0  0
  2  8  1  0  0  0  0
  2  3  1  0  0  0  0
  3 11  1  0  0  0  0
  4  7  2  0  0  0  0
  5  3  2  0  0  0  0
  5  4  1  0  0  0  0
  7  9  1  0  0  0  0
  8 10  1  0  0  0  0
 10  6  1  0  0  0  0
 11  6  1  0  0  0  0
 11 12  2  0  0  0  0
 12  9  1  0  0  0  0
 13 16  1  0  0  0  0
 14 13  1  0  0  0  0
 14 18  2  0  0  0  0
 15 13  1  0  0  0  0
 16 17  2  0  0  0  0
 17  1  1  0  0  0  0
 18 17  1  0  0  0  0
 19 20  2  0  0  0  0
 21 24  1  6  0  0  0
 21 19  1  0  0  0  0
 21 23  1  0  0  0  0
 23 22  1  0  0  0  0
 25 27  1  6  0  0  0
 25 28  1  0  0  0  0
 25 26  1  0  0  0  0
 26 31  1  6  0  0  0
 26 29  1  0  0  0  0
 28 30  1  0  0  0  0
 30 29  1  0  0  0  0
 30 24  1  1  0  0  0
M  END
>  <MODEL>
3

>  <REMARK>
 VINA RESULT:      -8.3      1.534      1.974
  Name = 
  7 active torsions:
  status: ('A' for Active; 'I' for Inactive)
    1  A    between atoms: C_3  and  C_9
    2  A    between atoms: C_3  and  C_22
    3  A    between atoms: N_4  and  C_12
    4  A    between atoms: C_9  and  C_15
    5  A    between atoms: C_9  and  O_23
    6  A    between atoms: C_12  and  N_20
    7  A    between atoms: C_12  and  C_27
                            x       y       z     vdW  Elec       q    Type
                         _______ _______ _______ _____ _____    ______ ____

>  <TORSDO>
F 7

$$$$
=
 OpenBabel10262419243D

 31 34  0  0  1  0  0  0  0  0999 V2000
  188.2870  178.2840  142.2040 C   0  0  1  0  0  3  0  0  0  0  0  0
  189.2770  177.7390  143.1400 N   0  0  0  0  0  0  0  0  0  0  0  0
  189.0290  177.7010  144.5580 C   0  0  0  0  0  0  0  0  0  0  0  0
  187.4130  178.1530  146.4490 C   0  0  0  0  0  3  0  0  0  0  0  0
  187.8090  178.0120  145.0350 C   0  0  0  0  0  3  0  0  0  0  0  0
  191.5730  177.9000  144.7770 C   0  0  0  0  0  2  0  0  0  0  0  0
  187.9780  177.5210  147.4750 C   0  0  0  0  0  3  0  0  0  0  0  0
  190.5050  177.3510  142.6910 O   0  0  0  0  0  0  0  0  0  0  0  0
  189.0440  176.4930  147.3090 C   0  0  0  0  0  2  0  0  0  0  0  0
  191.4250  178.2340  143.2840 C   0  0  0  0  0  2  0  0  0  0  0  0
  190.2460  177.5660  145.4040 C   0  0  0  0  0  0  0  0  0  0  0  0
  190.2530  177.0490  146.6340 C   0  0  0  0  0  3  0  0  0  0  0  0
  188.9830  178.2650  138.7090 N   0  0  0  0  0  0  0  0  0  0  0  0
  189.3010  177.0030  139.0350 C   0  0  0  0  0  3  0  0  0  0  0  0
  189.0840  178.8580  137.3880 C   0  0  0  0  0  1  0  0  0  0  0  0
  188.5760  178.9080  139.7840 N   0  0  0  0  0  0  0  0  0  0  0  0
  188.6490  178.0020  140.7770 C   0  0  0  0  0  0  0  0  0  0  0  0
  189.0970  176.8020  140.3530 N   0  0  0  0  0  0  0  0  0  0  0  0
  185.8980  178.4940  142.1790 C   0  0  0  0  0  3  0  0  0  0  0  0
  186.9480  177.8390  142.5280 N   0  0  0  0  0  0  0  0  0  0  0  0
  184.5280  178.0120  142.5510 C   0  0  1  0  0  3  0  0  0  0  0  0
  183.0480  179.0110  143.8580 C   0  0  0  0  0  1  0  0  0  0  0  0
  184.2620  178.3240  143.8860 O   0  0  0  0  0  0  0  0  0  0  0  0
  183.4620  178.6380  141.6560 C   0  0  0  0  0  2  0  0  0  0  0  0
  181.9300  179.3780  138.9040 C   0  0  2  0  0  3  0  0  0  0  0  0
  181.7800  177.9290  138.4740 C   0  0  2  0  0  3  0  0  0  0  0  0
  181.5510  180.3610  137.8090 C   0  0  0  0  0  1  0  0  0  0  0  0
  183.3650  179.5660  139.3300 C   0  0  0  0  0  2  0  0  0  0  0  0
  182.7460  176.9320  139.6480 S   0  0  0  0  0  0  0  0  0  0  0  0
  183.7410  178.3650  140.1830 C   0  0  2  0  0  3  0  0  0  0  0  0
  182.2920  177.7300  137.1880 O   0  0  0  0  0  1  0  0  0  0  0  0
  1 20  1  1  0  0  0
  1  2  1  0  0  0  0
  2  3  1  0  0  0  0
  3  5  2  0  0  0  0
  3 11  1  0  0  0  0
  4  7  2  0  0  0  0
  5  4  1  0  0  0  0
  6 11  1  0  0  0  0
  8  2  1  0  0  0  0
  8 10  1  0  0  0  0
  9  7  1  0  0  0  0
 10  6  1  0  0  0  0
 11 12  2  0  0  0  0
 12  9  1  0  0  0  0
 13 14  1  0  0  0  0
 13 16  1  0  0  0  0
 14 18  2  0  0  0  0
 15 13  1  0  0  0  0
 16 17  2  0  0  0  0
 17  1  1  0  0  0  0
 18 17  1  0  0  0  0
 19 20  2  0  0  0  0
 19 21  1  0  0  0  0
 21 24  1  6  0  0  0
 21 23  1  0  0  0  0
 22 23  1  0  0  0  0
 25 27  1  6  0  0  0
 25 28  1  0  0  0  0
 26 31  1  6  0  0  0
 26 25  1  0  0  0  0
 26 29  1  0  0  0  0
 28 30  1  0  0  0  0
 29 30  1  0  0  0  0
 30 24  1  1  0  0  0
M  END
>  <MODEL>
4

>  <REMARK>
 VINA RESULT:      -7.9      2.689      5.411
  Name = 
  7 active torsions:
  status: ('A' for Active; 'I' for Inactive)
    1  A    between atoms: C_3  and  C_9
    2  A    between atoms: C_3  and  C_22
    3  A    between atoms: N_4  and  C_12
    4  A    between atoms: C_9  and  C_15
    5  A    between atoms: C_9  and  O_23
    6  A    between atoms: C_12  and  N_20
    7  A    between atoms: C_12  and  C_27
                            x       y       z     vdW  Elec       q    Type
                         _______ _______ _______ _____ _____    ______ ____

>  <TORSDO>
F 7

$$$$
=
 OpenBabel10262419243D

 31 34  0  0  1  0  0  0  0  0999 V2000
  188.3590  178.5200  140.4040 C   0  0  1  0  0  3  0  0  0  0  0  0
  189.4020  177.5830  140.8370 N   0  0  0  0  0  0  0  0  0  0  0  0
  189.9380  177.6200  142.1730 C   0  0  0  0  0  0  0  0  0  0  0  0
  189.8570  178.6720  144.4700 C   0  0  0  0  0  3  0  0  0  0  0  0
  189.3690  178.4090  143.1030 C   0  0  0  0  0  3  0  0  0  0  0  0
  192.0760  176.7100  141.0940 C   0  0  0  0  0  2  0  0  0  0  0  0
  190.5890  177.8340  145.2020 C   0  0  0  0  0  3  0  0  0  0  0  0
  189.9630  176.7190  139.9420 O   0  0  0  0  0  0  0  0  0  0  0  0
  190.9330  176.4550  144.7570 C   0  0  0  0  0  2  0  0  0  0  0  0
  191.3080  177.1110  139.8240 C   0  0  0  0  0  2  0  0  0  0  0  0
  191.2610  176.9580  142.3360 C   0  0  0  0  0  0  0  0  0  0  0  0
  191.7150  176.4590  143.4870 C   0  0  0  0  0  3  0  0  0  0  0  0
  187.5810  178.2450  136.9370 N   0  0  0  0  0  0  0  0  0  0  0  0
  188.5970  179.1200  136.8980 C   0  0  0  0  0  3  0  0  0  0  0  0
  186.8310  177.7550  135.7960 C   0  0  0  0  0  1  0  0  0  0  0  0
  187.3450  177.9010  138.1870 N   0  0  0  0  0  0  0  0  0  0  0  0
  188.2480  178.5870  138.9100 C   0  0  0  0  0  0  0  0  0  0  0  0
  189.0480  179.3610  138.1460 N   0  0  0  0  0  0  0  0  0  0  0  0
  186.0630  178.9960  140.9080 C   0  0  0  0  0  3  0  0  0  0  0  0
  187.0890  178.2310  141.0350 N   0  0  0  0  0  0  0  0  0  0  0  0
  184.7700  178.6730  141.5940 C   0  0  1  0  0  3  0  0  0  0  0  0
  183.9010  178.5690  139.5620 C   0  0  0  0  0  1  0  0  0  0  0  0
  183.9810  177.8710  140.7680 O   0  0  0  0  0  0  0  0  0  0  0  0
  185.0150  177.9590  142.9210 C   0  0  0  0  0  2  0  0  0  0  0  0
  186.1800  177.6740  145.9260 C   0  0  2  0  0  3  0  0  0  0  0  0
  184.9530  178.2920  146.5740 C   0  0  2  0  0  3  0  0  0  0  0  0
  187.3310  177.4870  146.9000 C   0  0  0  0  0  1  0  0  0  0  0  0
  186.5760  178.5740  144.7820 C   0  0  0  0  0  2  0  0  0  0  0  0
  183.9110  178.9230  145.2240 S   0  0  0  0  0  0  0  0  0  0  0  0
  185.3020  178.9480  144.0430 C   0  0  2  0  0  3  0  0  0  0  0  0
  185.3070  179.3580  147.4050 O   0  0  0  0  0  1  0  0  0  0  0  0
  1  2  1  0  0  0  0
  1 20  1  1  0  0  0
  2  3  1  0  0  0  0
  3 11  1  0  0  0  0
  3  5  2  0  0  0  0
  4  7  2  0  0  0  0
  5  4  1  0  0  0  0
  6 11  1  0  0  0  0
  8  2  1  0  0  0  0
  9  7  1  0  0  0  0
 10  8  1  0  0  0  0
 10  6  1  0  0  0  0
 11 12  2  0  0  0  0
 12  9  1  0  0  0  0
 13 16  1  0  0  0  0
 14 13  1  0  0  0  0
 14 18  2  0  0  0  0
 15 13  1  0  0  0  0
 16 17  2  0  0  0  0
 17  1  1  0  0  0  0
 18 17  1  0  0  0  0
 19 20  2  0  0  0  0
 21 19  1  6  0  0  0
 21 24  1  0  0  0  0
 22 23  1  0  0  0  0
 23 21  1  0  0  0  0
 25 26  1  0  0  0  0
 25 27  1  1  0  0  0
 26 31  1  1  0  0  0
 28 25  1  0  0  0  0
 29 26  1  0  0  0  0
 30 24  1  6  0  0  0
 30 28  1  0  0  0  0
 30 29  1  0  0  0  0
M  END
>  <MODEL>
5

>  <REMARK>
 VINA RESULT:      -7.9      2.880      6.669
  Name = 
  7 active torsions:
  status: ('A' for Active; 'I' for Inactive)
    1  A    between atoms: C_3  and  C_9
    2  A    between atoms: C_3  and  C_22
    3  A    between atoms: N_4  and  C_12
    4  A    between atoms: C_9  and  C_15
    5  A    between atoms: C_9  and  O_23
    6  A    between atoms: C_12  and  N_20
    7  A    between atoms: C_12  and  C_27
                            x       y       z     vdW  Elec       q    Type
                         _______ _______ _______ _____ _____    ______ ____

>  <TORSDO>
F 7

$$$$
=
 OpenBabel10262419243D

 31 34  0  0  1  0  0  0  0  0999 V2000
  189.5540  176.9880  140.9530 C   0  0  1  0  0  3  0  0  0  0  0  0
  188.4780  177.8920  140.5330 N   0  0  0  0  0  0  0  0  0  0  0  0
  187.2840  178.0550  141.3200 C   0  0  0  0  0  0  0  0  0  0  0  0
  186.0280  177.4570  143.4310 C   0  0  0  0  0  3  0  0  0  0  0  0
  187.2070  177.5050  142.5460 C   0  0  0  0  0  3  0  0  0  0  0  0
  186.1500  178.5570  139.0780 C   0  0  0  0  0  2  0  0  0  0  0  0
  185.0370  178.3470  143.4450 C   0  0  0  0  0  3  0  0  0  0  0  0
  188.5440  178.5230  139.3250 O   0  0  0  0  0  0  0  0  0  0  0  0
  185.0450  179.5850  142.6150 C   0  0  0  0  0  2  0  0  0  0  0  0
  187.4860  177.9980  138.5620 C   0  0  0  0  0  2  0  0  0  0  0  0
  186.1190  178.6160  140.5830 C   0  0  0  0  0  0  0  0  0  0  0  0
  185.1120  179.2770  141.1570 C   0  0  0  0  0  3  0  0  0  0  0  0
  191.2880  175.8080  138.0720 N   0  0  0  0  0  0  0  0  0  0  0  0
  192.1790  176.6840  138.5600 C   0  0  0  0  0  3  0  0  0  0  0  0
  191.4420  175.0130  136.8680 C   0  0  0  0  0  1  0  0  0  0  0  0
  190.2240  175.7840  138.8480 N   0  0  0  0  0  0  0  0  0  0  0  0
  190.4910  176.6680  139.8270 C   0  0  0  0  0  0  0  0  0  0  0  0
  191.6990  177.2520  139.6850 N   0  0  0  0  0  0  0  0  0  0  0  0
  190.3500  176.8230  143.2100 C   0  0  0  0  0  3  0  0  0  0  0  0
  190.2500  177.4940  142.1180 N   0  0  0  0  0  0  0  0  0  0  0  0
  191.0600  177.3900  144.4020 C   0  0  1  0  0  3  0  0  0  0  0  0
  191.6760  179.5120  144.2760 C   0  0  0  0  0  1  0  0  0  0  0  0
  192.1040  178.2170  143.9830 O   0  0  0  0  0  0  0  0  0  0  0  0
  190.1030  178.1820  145.2880 C   0  0  0  0  0  2  0  0  0  0  0  0
  187.3720  178.4340  147.0060 C   0  0  2  0  0  3  0  0  0  0  0  0
  188.0750  178.2780  148.3440 C   0  0  2  0  0  3  0  0  0  0  0  0
  185.8590  178.3770  147.1240 C   0  0  0  0  0  1  0  0  0  0  0  0
  187.8890  177.3390  146.1070 C   0  0  0  0  0  2  0  0  0  0  0  0
  189.8010  177.8400  147.9810 S   0  0  0  0  0  0  0  0  0  0  0  0
  189.3970  177.2790  146.2920 C   0  0  2  0  0  3  0  0  0  0  0  0
  187.5000  177.2510  149.0980 O   0  0  0  0  0  1  0  0  0  0  0  0
  1 20  1  1  0  0  0
  2  1  1  0  0  0  0
  2  3  1  0  0  0  0
  3  5  2  0  0  0  0
  4  7  2  0  0  0  0
  5  4  1  0  0  0  0
  6 11  1  0  0  0  0
  8  2  1  0  0  0  0
  9  7  1  0  0  0  0
 10  6  1  0  0  0  0
 10  8  1  0  0  0  0
 11 12  2  0  0  0  0
 11  3  1  0  0  0  0
 12  9  1  0  0  0  0
 13 14  1  0  0  0  0
 13 16  1  0  0  0  0
 14 18  2  0  0  0  0
 15 13  1  0  0  0  0
 16 17  2  0  0  0  0
 17  1  1  0  0  0  0
 18 17  1  0  0  0  0
 20 19  2  0  0  0  0
 21 19  1  6  0  0  0
 21 24  1  0  0  0  0
 23 22  1  0  0  0  0
 23 21  1  0  0  0  0
 25 27  1  1  0  0  0
 25 26  1  0  0  0  0
 26 31  1  1  0  0  0
 28 30  1  0  0  0  0
 28 25  1  0  0  0  0
 29 26  1  0  0  0  0
 30 24  1  6  0  0  0
 30 29  1  0  0  0  0
M  END
>  <MODEL>
6

>  <REMARK>
 VINA RESULT:      -7.8      3.165      7.070
  Name = 
  7 active torsions:
  status: ('A' for Active; 'I' for Inactive)
    1  A    between atoms: C_3  and  C_9
    2  A    between atoms: C_3  and  C_22
    3  A    between atoms: N_4  and  C_12
    4  A    between atoms: C_9  and  C_15
    5  A    between atoms: C_9  and  O_23
    6  A    between atoms: C_12  and  N_20
    7  A    between atoms: C_12  and  C_27
                            x       y       z     vdW  Elec       q    Type
                         _______ _______ _______ _____ _____    ______ ____

>  <TORSDO>
F 7

$$$$
=
 OpenBabel10262419243D

 31 34  0  0  1  0  0  0  0  0999 V2000
  189.4170  176.5540  139.5780 C   0  0  1  0  0  3  0  0  0  0  0  0
  188.5430  177.3620  138.7190 N   0  0  0  0  0  0  0  0  0  0  0  0
  187.7440  176.7600  137.6830 C   0  0  0  0  0  0  0  0  0  0  0  0
  187.0000  174.6360  136.5310 C   0  0  0  0  0  3  0  0  0  0  0  0
  187.6570  175.4200  137.5950 C   0  0  0  0  0  3  0  0  0  0  0  0
  188.0020  179.0130  136.4930 C   0  0  0  0  0  2  0  0  0  0  0  0
  185.9700  175.0470  135.7950 C   0  0  0  0  0  3  0  0  0  0  0  0
  188.5500  178.7220  138.8190 O   0  0  0  0  0  0  0  0  0  0  0  0
  185.2740  176.3440  136.0230 C   0  0  0  0  0  2  0  0  0  0  0  0
  189.0590  179.1920  137.5950 C   0  0  0  0  0  2  0  0  0  0  0  0
  187.2820  177.6980  136.6240 C   0  0  0  0  0  0  0  0  0  0  0  0
  186.1970  177.5060  135.8710 C   0  0  0  0  0  3  0  0  0  0  0  0
  192.3360  175.3770  137.9060 N   0  0  0  0  0  0  0  0  0  0  0  0
  192.7380  176.6000  138.2840 C   0  0  0  0  0  3  0  0  0  0  0  0
  193.1180  174.4140  137.1530 C   0  0  0  0  0  1  0  0  0  0  0  0
  191.0970  175.1770  138.3090 N   0  0  0  0  0  0  0  0  0  0  0  0
  190.7550  176.3120  138.9480 C   0  0  0  0  0  0  0  0  0  0  0  0
  191.7490  177.2250  138.9540 N   0  0  0  0  0  0  0  0  0  0  0  0
  189.8560  176.4180  141.9320 C   0  0  0  0  0  3  0  0  0  0  0  0
  189.5310  177.1200  140.9050 N   0  0  0  0  0  0  0  0  0  0  0  0
  189.9430  177.0370  143.2940 C   0  0  1  0  0  3  0  0  0  0  0  0
  191.4190  178.6580  143.5940 C   0  0  0  0  0  1  0  0  0  0  0  0
  190.1090  178.4180  143.1780 O   0  0  0  0  0  0  0  0  0  0  0  0
  188.6920  176.7380  144.1150 C   0  0  0  0  0  2  0  0  0  0  0  0
  187.6650  177.4990  147.0870 C   0  0  2  0  0  3  0  0  0  0  0  0
  186.2710  177.8880  146.6210 C   0  0  2  0  0  3  0  0  0  0  0  0
  187.9270  177.8730  148.5360 C   0  0  0  0  0  1  0  0  0  0  0  0
  188.6440  178.1790  146.1640 C   0  0  0  0  0  2  0  0  0  0  0  0
  186.3050  177.8710  144.8040 S   0  0  0  0  0  0  0  0  0  0  0  0
  188.1240  178.0030  144.7470 C   0  0  2  0  0  3  0  0  0  0  0  0
  185.9380  179.1740  147.0530 O   0  0  0  0  0  1  0  0  0  0  0  0
  1 20  1  1  0  0  0
  2  8  1  0  0  0  0
  2  1  1  0  0  0  0
  3  2  1  0  0  0  0
  4  5  1  0  0  0  0
  5  3  2  0  0  0  0
  6 11  1  0  0  0  0
  6 10  1  0  0  0  0
  7  9  1  0  0  0  0
  7  4  2  0  0  0  0
 10  8  1  0  0  0  0
 11  3  1  0  0  0  0
 12  9  1  0  0  0  0
 12 11  2  0  0  0  0
 13 14  1  0  0  0  0
 13 16  1  0  0  0  0
 14 18  2  0  0  0  0
 15 13  1  0  0  0  0
 16 17  2  0  0  0  0
 17 18  1  0  0  0  0
 17  1  1  0  0  0  0
 20 19  2  0  0  0  0
 21 19  1  6  0  0  0
 21 24  1  0  0  0  0
 23 21  1  0  0  0  0
 23 22  1  0  0  0  0
 25 27  1  1  0  0  0
 26 31  1  6  0  0  0
 26 25  1  0  0  0  0
 28 25  1  0  0  0  0
 29 26  1  0  0  0  0
 30 24  1  1  0  0  0
 30 29  1  0  0  0  0
 30 28  1  0  0  0  0
M  END
>  <MODEL>
7

>  <REMARK>
 VINA RESULT:      -7.8      3.261      8.472
  Name = 
  7 active torsions:
  status: ('A' for Active; 'I' for Inactive)
    1  A    between atoms: C_3  and  C_9
    2  A    between atoms: C_3  and  C_22
    3  A    between atoms: N_4  and  C_12
    4  A    between atoms: C_9  and  C_15
    5  A    between atoms: C_9  and  O_23
    6  A    between atoms: C_12  and  N_20
    7  A    between atoms: C_12  and  C_27
                            x       y       z     vdW  Elec       q    Type
                         _______ _______ _______ _____ _____    ______ ____

>  <TORSDO>
F 7

$$$$
=
 OpenBabel10262419243D

 31 34  0  0  1  0  0  0  0  0999 V2000
  184.7870  178.3290  141.2710 C   0  0  1  0  0  3  0  0  0  0  0  0
  184.3250  178.8790  142.5510 N   0  0  0  0  0  0  0  0  0  0  0  0
  184.9260  178.4860  143.7980 C   0  0  0  0  0  0  0  0  0  0  0  0
  186.7110  177.1290  144.9670 C   0  0  0  0  0  3  0  0  0  0  0  0
  186.0400  177.7300  143.7990 C   0  0  0  0  0  3  0  0  0  0  0  0
  182.6200  178.9740  144.8000 C   0  0  0  0  0  2  0  0  0  0  0  0
  186.6860  177.6170  146.2060 C   0  0  0  0  0  3  0  0  0  0  0  0
  183.2380  179.7030  142.5910 O   0  0  0  0  0  0  0  0  0  0  0  0
  186.0410  178.9130  146.5560 C   0  0  0  0  0  2  0  0  0  0  0  0
  182.2530  179.0000  143.3080 C   0  0  0  0  0  2  0  0  0  0  0  0
  184.0940  178.7460  145.0040 C   0  0  0  0  0  0  0  0  0  0  0  0
  184.5840  178.9150  146.2340 C   0  0  0  0  0  3  0  0  0  0  0  0
  182.5460  179.0870  138.6050 N   0  0  0  0  0  0  0  0  0  0  0  0
  183.3840  180.1320  138.5350 C   0  0  0  0  0  3  0  0  0  0  0  0
  181.3920  178.8580  137.7570 C   0  0  0  0  0  1  0  0  0  0  0  0
  182.9190  178.2900  139.5860 N   0  0  0  0  0  0  0  0  0  0  0  0
  184.0110  178.8760  140.1110 C   0  0  0  0  0  0  0  0  0  0  0  0
  184.3350  180.0280  139.4860 N   0  0  0  0  0  0  0  0  0  0  0  0
  186.8820  177.8820  140.1930 C   0  0  0  0  0  3  0  0  0  0  0  0
  186.2150  178.4970  141.1040 N   0  0  0  0  0  0  0  0  0  0  0  0
  188.3640  178.0670  140.0640 C   0  0  1  0  0  3  0  0  0  0  0  0
  189.3980  178.6120  138.1850 C   0  0  0  0  0  1  0  0  0  0  0  0
  188.6360  179.1480  139.2240 O   0  0  0  0  0  0  0  0  0  0  0  0
  189.0090  178.3020  141.4280 C   0  0  0  0  0  2  0  0  0  0  0  0
  190.3630  177.4990  144.2540 C   0  0  2  0  0  3  0  0  0  0  0  0
  191.6860  177.0940  143.6260 C   0  0  2  0  0  3  0  0  0  0  0  0
  190.2650  177.1180  145.7220 C   0  0  0  0  0  1  0  0  0  0  0  0
  189.2710  176.8420  143.4470 C   0  0  0  0  0  2  0  0  0  0  0  0
  191.4410  177.1260  141.8260 S   0  0  0  0  0  0  0  0  0  0  0  0
  189.6260  177.0230  141.9800 C   0  0  2  0  0  3  0  0  0  0  0  0
  192.0470  175.7980  144.0070 O   0  0  0  0  0  1  0  0  0  0  0  0
  1 20  1  6  0  0  0
  1  2  1  0  0  0  0
  2  8  1  0  0  0  0
  2  3  1  0  0  0  0
  3  5  2  0  0  0  0
  3 11  1  0  0  0  0
  4  7  2  0  0  0  0
  5  4  1  0  0  0  0
  6 11  1  0  0  0  0
  7  9  1  0  0  0  0
  8 10  1  0  0  0  0
 10  6  1  0  0  0  0
 11 12  2  0  0  0  0
 12  9  1  0  0  0  0
 13 16  1  0  0  0  0
 14 13  1  0  0  0  0
 14 18  2  0  0  0  0
 15 13  1  0  0  0  0
 16 17  2  0  0  0  0
 17  1  1  0  0  0  0
 18 17  1  0  0  0  0
 19 20  2  0  0  0  0
 21 19  1  1  0  0  0
 21 24  1  0  0  0  0
 22 23  1  0  0  0  0
 23 21  1  0  0  0  0
 25 27  1  1  0  0  0
 26 31  1  1  0  0  0
 26 25  1  0  0  0  0
 28 25  1  0  0  0  0
 29 30  1  0  0  0  0
 29 26  1  0  0  0  0
 30 24  1  1  0  0  0
 30 28  1  0  0  0  0
M  END
>  <MODEL>
8

>  <REMARK>
 VINA RESULT:      -7.7      1.979      4.119
  Name = 
  7 active torsions:
  status: ('A' for Active; 'I' for Inactive)
    1  A    between atoms: C_3  and  C_9
    2  A    between atoms: C_3  and  C_22
    3  A    between atoms: N_4  and  C_12
    4  A    between atoms: C_9  and  C_15
    5  A    between atoms: C_9  and  O_23
    6  A    between atoms: C_12  and  N_20
    7  A    between atoms: C_12  and  C_27
                            x       y       z     vdW  Elec       q    Type
                         _______ _______ _______ _____ _____    ______ ____

>  <TORSDO>
F 7

$$$$
=
 OpenBabel10262419243D

 31 34  0  0  1  0  0  0  0  0999 V2000
  185.7220  178.2760  140.7790 C   0  0  1  0  0  3  0  0  0  0  0  0
  185.9140  178.6740  142.1780 N   0  0  0  0  0  0  0  0  0  0  0  0
  186.8840  178.0210  143.0180 C   0  0  0  0  0  0  0  0  0  0  0  0
  188.7170  176.2900  143.2040 C   0  0  0  0  0  3  0  0  0  0  0  0
  187.7530  177.1430  142.4830 C   0  0  0  0  0  3  0  0  0  0  0  0
  185.2960  178.6290  144.9330 C   0  0  0  0  0  2  0  0  0  0  0  0
  189.2750  176.5790  144.3770 C   0  0  0  0  0  3  0  0  0  0  0  0
  185.0980  179.6100  142.7440 O   0  0  0  0  0  0  0  0  0  0  0  0
  189.0640  177.8750  145.0810 C   0  0  0  0  0  2  0  0  0  0  0  0
  184.3740  178.9310  143.7410 C   0  0  0  0  0  2  0  0  0  0  0  0
  186.6640  178.1920  144.4790 C   0  0  0  0  0  0  0  0  0  0  0  0
  187.6250  178.1060  145.4000 C   0  0  0  0  0  3  0  0  0  0  0  0
  182.4430  179.2130  139.7420 N   0  0  0  0  0  0  0  0  0  0  0  0
  183.1820  180.1270  139.0950 C   0  0  0  0  0  3  0  0  0  0  0  0
  180.9960  179.1080  139.7140 C   0  0  0  0  0  1  0  0  0  0  0  0
  183.2340  178.4190  140.4360 N   0  0  0  0  0  0  0  0  0  0  0  0
  184.4770  178.8710  140.1910 C   0  0  0  0  0  0  0  0  0  0  0  0
  184.4900  179.9350  139.3610 N   0  0  0  0  0  0  0  0  0  0  0  0
  187.2560  177.8150  138.9940 C   0  0  0  0  0  3  0  0  0  0  0  0
  186.8950  178.5590  139.9790 N   0  0  0  0  0  0  0  0  0  0  0  0
  188.4890  178.1290  138.2020 C   0  0  1  0  0  3  0  0  0  0  0  0
  187.6380  179.1450  136.4300 C   0  0  0  0  0  1  0  0  0  0  0  0
  188.3600  179.3820  137.6000 O   0  0  0  0  0  0  0  0  0  0  0  0
  189.7320  178.1110  139.0890 C   0  0  0  0  0  2  0  0  0  0  0  0
  192.1270  176.4580  137.6740 C   0  0  2  0  0  3  0  0  0  0  0  0
  191.2130  175.3470  137.1840 C   0  0  2  0  0  3  0  0  0  0  0  0
  193.6000  176.1350  137.4910 C   0  0  0  0  0  1  0  0  0  0  0  0
  191.7970  176.6920  139.1260 C   0  0  0  0  0  2  0  0  0  0  0  0
  189.5850  175.6400  137.9370 S   0  0  0  0  0  0  0  0  0  0  0  0
  190.2820  176.6990  139.2490 C   0  0  2  0  0  3  0  0  0  0  0  0
  191.6800  174.0950  137.5940 O   0  0  0  0  0  1  0  0  0  0  0  0
  1 20  1  6  0  0  0
  1  2  1  0  0  0  0
  2  8  1  0  0  0  0
  2  3  1  0  0  0  0
  3 11  1  0  0  0  0
  4  7  2  0  0  0  0
  5  3  2  0  0  0  0
  5  4  1  0  0  0  0
  7  9  1  0  0  0  0
  8 10  1  0  0  0  0
  9 12  1  0  0  0  0
 10  6  1  0  0  0  0
 11  6  1  0  0  0  0
 11 12  2  0  0  0  0
 13 16  1  0  0  0  0
 14 18  2  0  0  0  0
 14 13  1  0  0  0  0
 15 13  1  0  0  0  0
 17 16  2  0  0  0  0
 17  1  1  0  0  0  0
 18 17  1  0  0  0  0
 19 20  2  0  0  0  0
 21 19  1  1  0  0  0
 21 24  1  0  0  0  0
 22 23  1  0  0  0  0
 23 21  1  0  0  0  0
 25 27  1  1  0  0  0
 25 28  1  0  0  0  0
 26 31  1  1  0  0  0
 26 25  1  0  0  0  0
 26 29  1  0  0  0  0
 28 30  1  0  0  0  0
 29 30  1  0  0  0  0
 30 24  1  6  0  0  0
M  END
>  <MODEL>
9

>  <REMARK>
 VINA RESULT:      -7.7      1.975      3.402
  Name = 
  7 active torsions:
  status: ('A' for Active; 'I' for Inactive)
    1  A    between atoms: C_3  and  C_9
    2  A    between atoms: C_3  and  C_22
    3  A    between atoms: N_4  and  C_12
    4  A    between atoms: C_9  and  C_15
    5  A    between atoms: C_9  and  O_23
    6  A    between atoms: C_12  and  N_20
    7  A    between atoms: C_12  and  C_27
                            x       y       z     vdW  Elec       q    Type
                         _______ _______ _______ _____ _____    ______ ____

>  <TORSDO>
F 7

$$$$
