=
 OpenBabel10262421163D

 32 36  0  0  1  0  0  0  0  0999 V2000
  187.8650  178.3520  142.1350 C   0  0  2  0  0  3  0  0  0  0  0  0
  186.3220  177.7670  144.0730 C   0  0  0  0  0  0  0  0  0  0  0  0
  188.7040  177.7270  141.0210 C   0  0  0  0  0  2  0  0  0  0  0  0
  187.3580  177.2690  143.1120 C   0  0  2  0  0  3  0  0  0  0  0  0
  186.7500  177.7250  145.3870 C   0  0  0  0  0  0  0  0  0  0  0  0
  185.0200  178.1720  143.7640 C   0  0  0  0  0  3  0  0  0  0  0  0
  184.6120  178.5400  146.1360 C   0  0  0  0  0  3  0  0  0  0  0  0
  188.4600  176.8790  144.0760 C   0  0  0  0  0  0  0  0  0  0  0  0
  185.9100  178.1030  146.4370 C   0  0  0  0  0  3  0  0  0  0  0  0
  189.6100  176.2900  143.7250 C   0  0  0  0  0  3  0  0  0  0  0  0
  189.9650  175.9850  142.3030 C   0  0  0  0  0  2  0  0  0  0  0  0
  184.1670  178.5750  144.8020 C   0  0  0  0  0  0  0  0  0  0  0  0
  188.1280  177.1890  145.5100 C   0  0  1  0  0  3  0  0  0  0  0  0
  190.0760  177.2710  141.4980 C   0  0  0  0  0  2  0  0  0  0  0  0
  189.0940  178.2060  146.1330 C   0  0  0  0  0  2  0  0  0  0  0  0
  189.3440  177.9670  147.9270 S   0  0  0  0  0  1  0  0  0  0  0  0
  186.7210  179.1030  141.4700 C   0  0  0  0  0  2  0  0  0  0  0  0
  186.6430  178.7460  140.0960 O   0  0  0  0  0  0  0  0  0  0  0  0
  181.8380  178.2440  137.3460 F   0  0  0  0  0  0  0  0  0  0  0  0
  183.0340  179.0060  139.2580 C   0  0  0  0  0  3  0  0  0  0  0  0
  185.4270  178.6020  139.4190 C   0  0  0  0  0  0  0  0  0  0  0  0
  184.1780  177.8240  137.4870 C   0  0  0  0  0  3  0  0  0  0  0  0
  184.2390  179.1310  139.9520 C   0  0  0  0  0  3  0  0  0  0  0  0
  185.3910  177.9230  138.1850 C   0  0  0  0  0  0  0  0  0  0  0  0
  183.0040  178.3560  138.0250 C   0  0  0  0  0  0  0  0  0  0  0  0
  186.5000  177.3000  136.0540 C   0  0  0  0  0  2  0  0  0  0  0  0
  187.3000  178.4270  136.6640 C   0  0  0  0  0  2  0  0  0  0  0  0
  186.6520  177.3860  137.5650 C   0  0  0  0  0  3  0  0  0  0  0  0
  182.7920  179.0600  144.4810 C   0  0  0  0  0  2  0  0  0  0  0  0
  182.4710  178.9000  142.9990 C   0  0  0  0  0  2  0  0  0  0  0  0
  180.2380  178.4680  144.0200 C   0  0  0  0  0  1  0  0  0  0  0  0
  180.9710  178.8600  142.7520 C   0  0  0  0  0  2  0  0  0  0  0  0
  1 17  1  6  0  0  0
  1  4  1  0  0  0  0
  2  5  1  0  0  0  0
  3 14  1  0  0  0  0
  3  1  1  0  0  0  0
  4  2  1  1  0  0  0
  4  8  1  0  0  0  0
  5 13  1  0  0  0  0
  5  9  2  0  0  0  0
  6  2  2  0  0  0  0
  6 12  1  0  0  0  0
  7  9  1  0  0  0  0
  8 13  1  0  0  0  0
 10  8  2  0  0  0  0
 11 10  1  0  0  0  0
 12  7  2  0  0  0  0
 13 15  1  6  0  0  0
 14 11  1  0  0  0  0
 15 16  1  0  0  0  0
 18 17  1  0  0  0  0
 19 25  1  0  0  0  0
 20 23  1  0  0  0  0
 21 23  2  0  0  0  0
 21 18  1  0  0  0  0
 22 25  1  0  0  0  0
 22 24  2  0  0  0  0
 24 21  1  0  0  0  0
 25 20  2  0  0  0  0
 26 27  1  0  0  0  0
 26 28  1  0  0  0  0
 27 28  1  0  0  0  0
 28 24  1  0  0  0  0
 29 12  1  0  0  0  0
 30 29  1  0  0  0  0
 32 30  1  0  0  0  0
 32 31  1  0  0  0  0
M  END
>  <MODEL>
1

>  <REMARK>
 VINA RESULT:      -9.2      0.000      0.000
  Name = 
  8 active torsions:
  status: ('A' for Active; 'I' for Inactive)
    1  A    between atoms: C_1  and  C_27
    2  A    between atoms: C_9  and  C_31
    3  A    between atoms: C_9  and  C_32
    4  A    between atoms: C_13  and  C_29
    5  A    between atoms: C_16  and  O_24
    6  A    between atoms: C_22  and  C_23
    7  A    between atoms: O_24  and  C_27
    8  A    between atoms: C_28  and  C_32
                            x       y       z     vdW  Elec       q    Type
                         _______ _______ _______ _____ _____    ______ ____

>  <TORSDO>
F 8

$$$$
=
 OpenBabel10262421163D

 32 36  0  0  1  0  0  0  0  0999 V2000
  187.7640  177.1760  145.8640 C   0  0  2  0  0  3  0  0  0  0  0  0
  189.6670  177.6840  144.2520 C   0  0  0  0  0  0  0  0  0  0  0  0
  186.9980  177.7490  147.0570 C   0  0  0  0  0  2  0  0  0  0  0  0
  189.0150  178.0280  145.5570 C   0  0  2  0  0  3  0  0  0  0  0  0
  190.9420  177.1740  144.4120 C   0  0  0  0  0  0  0  0  0  0  0  0
  189.1430  177.8970  142.9730 C   0  0  0  0  0  3  0  0  0  0  0  0
  191.2060  177.0200  142.0240 C   0  0  0  0  0  3  0  0  0  0  0  0
  190.1310  177.6810  146.5200 C   0  0  0  0  0  0  0  0  0  0  0  0
  191.7330  176.8390  143.3110 C   0  0  0  0  0  3  0  0  0  0  0  0
  190.0900  177.8810  147.8440 C   0  0  0  0  0  3  0  0  0  0  0  0
  188.8910  178.4410  148.5420 C   0  0  0  0  0  2  0  0  0  0  0  0
  189.9130  177.5470  141.8550 C   0  0  0  0  0  0  0  0  0  0  0  0
  191.3420  177.1040  145.8390 C   0  0  1  0  0  3  0  0  0  0  0  0
  187.7020  177.5060  148.3850 C   0  0  0  0  0  2  0  0  0  0  0  0
  191.6450  175.6690  146.2880 C   0  0  0  0  0  2  0  0  0  0  0  0
  192.6180  175.5780  147.8320 S   0  0  0  0  0  1  0  0  0  0  0  0
  186.7990  177.1320  144.6890 C   0  0  0  0  0  2  0  0  0  0  0  0
  186.1940  178.4050  144.5120 O   0  0  0  0  0  0  0  0  0  0  0  0
  180.8880  179.1150  143.0100 F   0  0  0  0  0  0  0  0  0  0  0  0
  182.5440  179.0630  144.7200 C   0  0  0  0  0  3  0  0  0  0  0  0
  184.8530  178.5620  144.1430 C   0  0  0  0  0  0  0  0  0  0  0  0
  183.1400  178.6080  142.4220 C   0  0  0  0  0  3  0  0  0  0  0  0
  183.8750  178.8820  145.1000 C   0  0  0  0  0  3  0  0  0  0  0  0
  184.4770  178.4020  142.7940 C   0  0  0  0  0  0  0  0  0  0  0  0
  182.1770  178.9300  143.3810 C   0  0  0  0  0  0  0  0  0  0  0  0
  185.1700  178.8470  140.4540 C   0  0  0  0  0  2  0  0  0  0  0  0
  186.2670  179.3650  141.3530 C   0  0  0  0  0  2  0  0  0  0  0  0
  185.5060  178.1050  141.7380 C   0  0  0  0  0  3  0  0  0  0  0  0
  189.3460  177.7200  140.4850 C   0  0  0  0  0  2  0  0  0  0  0  0
  190.0990  176.8860  139.4540 C   0  0  0  0  0  2  0  0  0  0  0  0
  189.0370  178.6680  138.0710 C   0  0  0  0  0  1  0  0  0  0  0  0
  189.8760  177.4060  138.0420 C   0  0  0  0  0  2  0  0  0  0  0  0
  1 17  1  6  0  0  0
  1  3  1  0  0  0  0
  2  5  1  0  0  0  0
  3 14  1  0  0  0  0
  4  2  1  6  0  0  0
  4  1  1  0  0  0  0
  4  8  1  0  0  0  0
  5 13  1  0  0  0  0
  6  2  2  0  0  0  0
  7  9  1  0  0  0  0
  8 10  2  0  0  0  0
  9  5  2  0  0  0  0
 10 11  1  0  0  0  0
 12  7  2  0  0  0  0
 12  6  1  0  0  0  0
 13 15  1  1  0  0  0
 13  8  1  0  0  0  0
 14 11  1  0  0  0  0
 15 16  1  0  0  0  0
 18 17  1  0  0  0  0
 19 25  1  0  0  0  0
 20 23  1  0  0  0  0
 21 18  1  0  0  0  0
 21 23  2  0  0  0  0
 22 24  2  0  0  0  0
 22 25  1  0  0  0  0
 24 21  1  0  0  0  0
 25 20  2  0  0  0  0
 26 27  1  0  0  0  0
 26 28  1  0  0  0  0
 27 28  1  0  0  0  0
 28 24  1  0  0  0  0
 29 12  1  0  0  0  0
 30 29  1  0  0  0  0
 32 31  1  0  0  0  0
 32 30  1  0  0  0  0
M  END
>  <MODEL>
2

>  <REMARK>
 VINA RESULT:      -8.9      2.221      5.795
  Name = 
  8 active torsions:
  status: ('A' for Active; 'I' for Inactive)
    1  A    between atoms: C_1  and  C_27
    2  A    between atoms: C_9  and  C_31
    3  A    between atoms: C_9  and  C_32
    4  A    between atoms: C_13  and  C_29
    5  A    between atoms: C_16  and  O_24
    6  A    between atoms: C_22  and  C_23
    7  A    between atoms: O_24  and  C_27
    8  A    between atoms: C_28  and  C_32
                            x       y       z     vdW  Elec       q    Type
                         _______ _______ _______ _____ _____    ______ ____

>  <TORSDO>
F 8

$$$$
=
 OpenBabel10262421163D

 32 36  0  0  1  0  0  0  0  0999 V2000
  189.2340  178.1410  142.3670 C   0  0  2  0  0  3  0  0  0  0  0  0
  187.1650  177.6060  143.7510 C   0  0  0  0  0  0  0  0  0  0  0  0
  190.4050  177.4870  141.6350 C   0  0  0  0  0  2  0  0  0  0  0  0
  188.4700  177.1000  143.2160 C   0  0  2  0  0  3  0  0  0  0  0  0
  187.1470  177.6760  145.1320 C   0  0  0  0  0  0  0  0  0  0  0  0
  186.0210  177.9190  143.0100 C   0  0  0  0  0  3  0  0  0  0  0  0
  184.8600  178.4230  145.0890 C   0  0  0  0  0  3  0  0  0  0  0  0
  189.2120  176.8360  144.5090 C   0  0  0  0  0  0  0  0  0  0  0  0
  186.0030  178.0780  145.8230 C   0  0  0  0  0  3  0  0  0  0  0  0
  190.4310  176.2870  144.5930 C   0  0  0  0  0  3  0  0  0  0  0  0
  191.2340  175.9060  143.3890 C   0  0  0  0  0  2  0  0  0  0  0  0
  184.8680  178.3450  143.6850 C   0  0  0  0  0  0  0  0  0  0  0  0
  188.4270  177.2240  145.7310 C   0  0  1  0  0  3  0  0  0  0  0  0
  191.5620  177.1380  142.5600 C   0  0  0  0  0  2  0  0  0  0  0  0
  189.1100  178.3300  146.5460 C   0  0  0  0  0  2  0  0  0  0  0  0
  188.8750  178.1570  148.3500 S   0  0  0  0  0  1  0  0  0  0  0  0
  188.3450  178.7820  141.3130 C   0  0  0  0  0  2  0  0  0  0  0  0
  188.7860  178.4070  140.0150 O   0  0  0  0  0  0  0  0  0  0  0  0
  185.4110  176.3900  136.0850 F   0  0  0  0  0  0  0  0  0  0  0  0
  185.7760  177.8820  137.9040 C   0  0  0  0  0  3  0  0  0  0  0  0
  187.9250  177.8870  139.0430 C   0  0  0  0  0  0  0  0  0  0  0  0
  187.5190  176.3660  137.1930 C   0  0  0  0  0  3  0  0  0  0  0  0
  186.6210  178.3880  138.8930 C   0  0  0  0  0  3  0  0  0  0  0  0
  188.3700  176.8500  138.1980 C   0  0  0  0  0  0  0  0  0  0  0  0
  186.2260  176.8740  137.0520 C   0  0  0  0  0  0  0  0  0  0  0  0
  190.0040  175.2300  137.2690 C   0  0  0  0  0  2  0  0  0  0  0  0
  190.5580  176.6140  137.0290 C   0  0  0  0  0  2  0  0  0  0  0  0
  189.7750  176.3240  138.3000 C   0  0  0  0  0  3  0  0  0  0  0  0
  183.6570  178.7320  142.9030 C   0  0  0  0  0  2  0  0  0  0  0  0
  182.4800  179.0610  143.8150 C   0  0  0  0  0  2  0  0  0  0  0  0
  180.1180  178.2730  143.9290 C   0  0  0  0  0  1  0  0  0  0  0  0
  181.1550  178.9720  143.0740 C   0  0  0  0  0  2  0  0  0  0  0  0
  1 17  1  6  0  0  0
  1  4  1  0  0  0  0
  2  5  1  0  0  0  0
  3  1  1  0  0  0  0
  3 14  1  0  0  0  0
  4  2  1  1  0  0  0
  4  8  1  0  0  0  0
  5 13  1  0  0  0  0
  5  9  2  0  0  0  0
  6 12  1  0  0  0  0
  6  2  2  0  0  0  0
  7  9  1  0  0  0  0
  8 10  2  0  0  0  0
  8 13  1  0  0  0  0
 11 10  1  0  0  0  0
 12  7  2  0  0  0  0
 13 15  1  6  0  0  0
 14 11  1  0  0  0  0
 15 16  1  0  0  0  0
 18 17  1  0  0  0  0
 19 25  1  0  0  0  0
 20 23  1  0  0  0  0
 21 18  1  0  0  0  0
 22 24  2  0  0  0  0
 23 21  2  0  0  0  0
 24 28  1  0  0  0  0
 24 21  1  0  0  0  0
 25 22  1  0  0  0  0
 25 20  2  0  0  0  0
 26 28  1  0  0  0  0
 27 26  1  0  0  0  0
 27 28  1  0  0  0  0
 29 12  1  0  0  0  0
 29 30  1  0  0  0  0
 32 30  1  0  0  0  0
 32 31  1  0  0  0  0
M  END
>  <MODEL>
3

>  <REMARK>
 VINA RESULT:      -8.7      1.711      2.212
  Name = 
  8 active torsions:
  status: ('A' for Active; 'I' for Inactive)
    1  A    between atoms: C_1  and  C_27
    2  A    between atoms: C_9  and  C_31
    3  A    between atoms: C_9  and  C_32
    4  A    between atoms: C_13  and  C_29
    5  A    between atoms: C_16  and  O_24
    6  A    between atoms: C_22  and  C_23
    7  A    between atoms: O_24  and  C_27
    8  A    between atoms: C_28  and  C_32
                            x       y       z     vdW  Elec       q    Type
                         _______ _______ _______ _____ _____    ______ ____

>  <TORSDO>
F 8

$$$$
=
 OpenBabel10262421163D

 32 36  0  0  1  0  0  0  0  0999 V2000
  188.9780  176.9180  141.3410 C   0  0  2  0  0  3  0  0  0  0  0  0
  187.0940  178.3940  140.4730 C   0  0  0  0  0  0  0  0  0  0  0  0
  190.4870  176.8920  141.5790 C   0  0  0  0  0  2  0  0  0  0  0  0
  188.5740  178.1640  140.5230 C   0  0  2  0  0  3  0  0  0  0  0  0
  186.5800  178.2820  139.1950 C   0  0  0  0  0  0  0  0  0  0  0  0
  186.2690  178.7630  141.5400 C   0  0  0  0  0  3  0  0  0  0  0  0
  184.3840  178.8490  140.0010 C   0  0  0  0  0  3  0  0  0  0  0  0
  188.8650  177.9400  139.0530 C   0  0  0  0  0  0  0  0  0  0  0  0
  185.2280  178.5090  138.9340 C   0  0  0  0  0  3  0  0  0  0  0  0
  190.0870  177.7640  138.5340 C   0  0  0  0  0  3  0  0  0  0  0  0
  191.3270  177.7210  139.3720 C   0  0  0  0  0  2  0  0  0  0  0  0
  184.9030  178.9750  141.3020 C   0  0  0  0  0  0  0  0  0  0  0  0
  187.6310  177.9670  138.1950 C   0  0  1  0  0  3  0  0  0  0  0  0
  191.2790  176.5390  140.3280 C   0  0  0  0  0  2  0  0  0  0  0  0
  187.3760  176.6310  137.4850 C   0  0  0  0  0  2  0  0  0  0  0  0
  187.4790  176.7430  135.6640 S   0  0  0  0  0  1  0  0  0  0  0  0
  188.3060  176.8870  142.7050 C   0  0  0  0  0  2  0  0  0  0  0  0
  189.1920  177.3960  143.6920 O   0  0  0  0  0  0  0  0  0  0  0  0
  187.8720  177.5690  149.0900 F   0  0  0  0  0  0  0  0  0  0  0  0
  187.1870  177.6170  146.8110 C   0  0  0  0  0  3  0  0  0  0  0  0
  188.8570  177.4630  145.0490 C   0  0  0  0  0  0  0  0  0  0  0  0
  189.5280  177.4310  147.3830 C   0  0  0  0  0  3  0  0  0  0  0  0
  187.5160  177.5760  145.4550 C   0  0  0  0  0  3  0  0  0  0  0  0
  189.8740  177.4120  146.0230 C   0  0  0  0  0  0  0  0  0  0  0  0
  188.1920  177.5410  147.7740 C   0  0  0  0  0  0  0  0  0  0  0  0
  191.9890  176.2120  146.5150 C   0  0  0  0  0  2  0  0  0  0  0  0
  191.5750  175.8350  145.1120 C   0  0  0  0  0  2  0  0  0  0  0  0
  191.3140  177.2430  145.6250 C   0  0  0  0  0  3  0  0  0  0  0  0
  184.0010  179.3170  142.4410 C   0  0  0  0  0  2  0  0  0  0  0  0
  184.7680  179.4250  143.7540 C   0  0  0  0  0  2  0  0  0  0  0  0
  182.4850  178.7590  144.5040 C   0  0  0  0  0  1  0  0  0  0  0  0
  183.9210  178.9780  144.9360 C   0  0  0  0  0  2  0  0  0  0  0  0
  1  3  1  0  0  0  0
  1 17  1  1  0  0  0
  2  4  1  0  0  0  0
  2  6  1  0  0  0  0
  4  8  1  6  0  0  0
  4  1  1  0  0  0  0
  5  2  2  0  0  0  0
  7 12  1  0  0  0  0
  9  5  1  0  0  0  0
  9  7  2  0  0  0  0
 10  8  2  0  0  0  0
 10 11  1  0  0  0  0
 11 14  1  0  0  0  0
 12  6  2  0  0  0  0
 12 29  1  0  0  0  0
 13 15  1  1  0  0  0
 13  8  1  0  0  0  0
 13  5  1  0  0  0  0
 14  3  1  0  0  0  0
 16 15  1  0  0  0  0
 17 18  1  0  0  0  0
 18 21  1  0  0  0  0
 20 25  1  0  0  0  0
 21 23  1  0  0  0  0
 21 24  2  0  0  0  0
 22 25  2  0  0  0  0
 23 20  2  0  0  0  0
 24 22  1  0  0  0  0
 25 19  1  0  0  0  0
 27 28  1  0  0  0  0
 27 26  1  0  0  0  0
 28 24  1  0  0  0  0
 28 26  1  0  0  0  0
 29 30  1  0  0  0  0
 30 32  1  0  0  0  0
 31 32  1  0  0  0  0
M  END
>  <MODEL>
4

>  <REMARK>
 VINA RESULT:      -8.5      3.645      7.075
  Name = 
  8 active torsions:
  status: ('A' for Active; 'I' for Inactive)
    1  A    between atoms: C_1  and  C_27
    2  A    between atoms: C_9  and  C_31
    3  A    between atoms: C_9  and  C_32
    4  A    between atoms: C_13  and  C_29
    5  A    between atoms: C_16  and  O_24
    6  A    between atoms: C_22  and  C_23
    7  A    between atoms: O_24  and  C_27
    8  A    between atoms: C_28  and  C_32
                            x       y       z     vdW  Elec       q    Type
                         _______ _______ _______ _____ _____    ______ ____

>  <TORSDO>
F 8

$$$$
=
 OpenBabel10262421163D

 32 36  0  0  1  0  0  0  0  0999 V2000
  188.0150  178.4230  140.7720 C   0  0  2  0  0  3  0  0  0  0  0  0
  189.3120  177.0590  142.4870 C   0  0  0  0  0  0  0  0  0  0  0  0
  187.1500  178.2890  139.5190 C   0  0  0  0  0  2  0  0  0  0  0  0
  188.6650  177.0690  141.1350 C   0  0  2  0  0  3  0  0  0  0  0  0
  190.6810  176.8760  142.4210 C   0  0  0  0  0  0  0  0  0  0  0  0
  188.6660  177.1410  143.7240 C   0  0  0  0  0  3  0  0  0  0  0  0
  190.8240  176.9010  144.8240 C   0  0  0  0  0  3  0  0  0  0  0  0
  189.8700  176.8160  140.2540 C   0  0  0  0  0  0  0  0  0  0  0  0
  191.4570  176.7900  143.5780 C   0  0  0  0  0  3  0  0  0  0  0  0
  189.8250  176.6510  138.9250 C   0  0  0  0  0  3  0  0  0  0  0  0
  188.5560  176.7460  138.1380 C   0  0  0  0  0  2  0  0  0  0  0  0
  189.4310  177.0770  144.8970 C   0  0  0  0  0  0  0  0  0  0  0  0
  191.1590  176.7300  141.0240 C   0  0  1  0  0  3  0  0  0  0  0  0
  187.9700  178.1450  138.2450 C   0  0  0  0  0  2  0  0  0  0  0  0
  192.1560  177.8290  140.6330 C   0  0  0  0  0  2  0  0  0  0  0  0
  193.5490  177.2210  139.6190 S   0  0  0  0  0  1  0  0  0  0  0  0
  187.1190  178.9440  141.8850 C   0  0  0  0  0  2  0  0  0  0  0  0
  186.1180  177.9830  142.1890 O   0  0  0  0  0  0  0  0  0  0  0  0
  180.9000  179.3010  143.5860 F   0  0  0  0  0  0  0  0  0  0  0  0
  182.4690  178.6230  141.9280 C   0  0  0  0  0  3  0  0  0  0  0  0
  184.8080  178.3360  142.5300 C   0  0  0  0  0  0  0  0  0  0  0  0
  183.1880  179.0410  144.1970 C   0  0  0  0  0  3  0  0  0  0  0  0
  183.7790  178.2940  141.5740 C   0  0  0  0  0  3  0  0  0  0  0  0
  184.5120  178.7350  143.8490 C   0  0  0  0  0  0  0  0  0  0  0  0
  182.1730  178.9920  143.2400 C   0  0  0  0  0  0  0  0  0  0  0  0
  184.9500  178.7950  146.2910 C   0  0  0  0  0  2  0  0  0  0  0  0
  185.5060  177.4920  145.7680 C   0  0  0  0  0  2  0  0  0  0  0  0
  185.5810  178.7450  144.9080 C   0  0  0  0  0  3  0  0  0  0  0  0
  188.7600  177.2160  146.2240 C   0  0  0  0  0  2  0  0  0  0  0  0
  189.7620  177.1440  147.3710 C   0  0  0  0  0  2  0  0  0  0  0  0
  188.0350  178.2120  148.8170 C   0  0  0  0  0  1  0  0  0  0  0  0
  189.4960  178.2180  148.4150 C   0  0  0  0  0  2  0  0  0  0  0  0
  1  4  1  0  0  0  0
  1 17  1  1  0  0  0
  2  6  1  0  0  0  0
  3  1  1  0  0  0  0
  4  8  1  6  0  0  0
  4  2  1  0  0  0  0
  5  2  2  0  0  0  0
  5  9  1  0  0  0  0
  6 12  2  0  0  0  0
  7 12  1  0  0  0  0
  8 13  1  0  0  0  0
  9  7  2  0  0  0  0
 10  8  2  0  0  0  0
 11 14  1  0  0  0  0
 11 10  1  0  0  0  0
 12 29  1  0  0  0  0
 13 15  1  6  0  0  0
 13  5  1  0  0  0  0
 14  3  1  0  0  0  0
 16 15  1  0  0  0  0
 17 18  1  0  0  0  0
 18 21  1  0  0  0  0
 20 25  1  0  0  0  0
 21 24  2  0  0  0  0
 23 20  2  0  0  0  0
 23 21  1  0  0  0  0
 24 22  1  0  0  0  0
 24 28  1  0  0  0  0
 25 19  1  0  0  0  0
 25 22  2  0  0  0  0
 27 26  1  0  0  0  0
 28 27  1  0  0  0  0
 28 26  1  0  0  0  0
 29 30  1  0  0  0  0
 30 32  1  0  0  0  0
 32 31  1  0  0  0  0
M  END
>  <MODEL>
5

>  <REMARK>
 VINA RESULT:      -8.4      2.594      5.985
  Name = 
  8 active torsions:
  status: ('A' for Active; 'I' for Inactive)
    1  A    between atoms: C_1  and  C_27
    2  A    between atoms: C_9  and  C_31
    3  A    between atoms: C_9  and  C_32
    4  A    between atoms: C_13  and  C_29
    5  A    between atoms: C_16  and  O_24
    6  A    between atoms: C_22  and  C_23
    7  A    between atoms: O_24  and  C_27
    8  A    between atoms: C_28  and  C_32
                            x       y       z     vdW  Elec       q    Type
                         _______ _______ _______ _____ _____    ______ ____

>  <TORSDO>
F 8

$$$$
=
 OpenBabel10262421163D

 32 36  0  0  1  0  0  0  0  0999 V2000
  189.0870  176.8110  142.0550 C   0  0  2  0  0  3  0  0  0  0  0  0
  187.5050  178.2430  140.6670 C   0  0  0  0  0  0  0  0  0  0  0  0
  190.4730  176.8110  142.7000 C   0  0  0  0  0  2  0  0  0  0  0  0
  188.9160  178.0340  141.1270 C   0  0  2  0  0  3  0  0  0  0  0  0
  187.3640  178.0950  139.2990 C   0  0  0  0  0  0  0  0  0  0  0  0
  186.4150  178.6230  141.4560 C   0  0  0  0  0  3  0  0  0  0  0  0
  185.0270  178.6490  139.4560 C   0  0  0  0  0  3  0  0  0  0  0  0
  189.6020  177.7820  139.8000 C   0  0  0  0  0  0  0  0  0  0  0  0
  186.1330  178.2990  138.6710 C   0  0  0  0  0  3  0  0  0  0  0  0
  190.9210  177.6110  139.6410 C   0  0  0  0  0  3  0  0  0  0  0  0
  191.8820  177.6030  140.7890 C   0  0  0  0  0  2  0  0  0  0  0  0
  185.1660  178.8110  140.8460 C   0  0  0  0  0  0  0  0  0  0  0  0
  188.6510  177.7740  138.6350 C   0  0  1  0  0  3  0  0  0  0  0  0
  191.5810  176.4420  141.7240 C   0  0  0  0  0  2  0  0  0  0  0  0
  188.6110  176.4190  137.9150 C   0  0  0  0  0  2  0  0  0  0  0  0
  189.3280  176.4650  136.2360 S   0  0  0  0  0  1  0  0  0  0  0  0
  188.0660  176.8000  143.1820 C   0  0  0  0  0  2  0  0  0  0  0  0
  188.2460  177.9430  144.0080 O   0  0  0  0  0  0  0  0  0  0  0  0
  187.9850  177.8070  149.5600 F   0  0  0  0  0  0  0  0  0  0  0  0
  189.2900  177.7810  147.5690 C   0  0  0  0  0  3  0  0  0  0  0  0
  188.1840  177.8850  145.4050 C   0  0  0  0  0  0  0  0  0  0  0  0
  186.8780  177.8960  147.4520 C   0  0  0  0  0  3  0  0  0  0  0  0
  189.3580  177.8120  146.1740 C   0  0  0  0  0  3  0  0  0  0  0  0
  186.9320  177.9050  146.0500 C   0  0  0  0  0  0  0  0  0  0  0  0
  188.0510  177.8270  148.2070 C   0  0  0  0  0  0  0  0  0  0  0  0
  184.5510  178.6010  146.1300 C   0  0  0  0  0  2  0  0  0  0  0  0
  185.2450  179.4880  145.1240 C   0  0  0  0  0  2  0  0  0  0  0  0
  185.6590  178.0310  145.2590 C   0  0  0  0  0  3  0  0  0  0  0  0
  183.9820  179.1650  141.6840 C   0  0  0  0  0  2  0  0  0  0  0  0
  182.7320  178.4150  141.2380 C   0  0  0  0  0  2  0  0  0  0  0  0
  181.8610  178.9440  143.5130 C   0  0  0  0  0  1  0  0  0  0  0  0
  181.5110  178.8330  142.0430 C   0  0  0  0  0  2  0  0  0  0  0  0
  1  3  1  0  0  0  0
  1 17  1  1  0  0  0
  2  4  1  0  0  0  0
  2  6  1  0  0  0  0
  4  8  1  6  0  0  0
  4  1  1  0  0  0  0
  5  2  2  0  0  0  0
  7 12  1  0  0  0  0
  9  5  1  0  0  0  0
  9  7  2  0  0  0  0
 10  8  2  0  0  0  0
 10 11  1  0  0  0  0
 11 14  1  0  0  0  0
 12  6  2  0  0  0  0
 12 29  1  0  0  0  0
 13 15  1  1  0  0  0
 13  5  1  0  0  0  0
 13  8  1  0  0  0  0
 14  3  1  0  0  0  0
 16 15  1  0  0  0  0
 17 18  1  0  0  0  0
 18 21  1  0  0  0  0
 20 25  1  0  0  0  0
 21 24  2  0  0  0  0
 21 23  1  0  0  0  0
 22 25  2  0  0  0  0
 23 20  2  0  0  0  0
 24 22  1  0  0  0  0
 25 19  1  0  0  0  0
 27 28  1  0  0  0  0
 27 26  1  0  0  0  0
 28 24  1  0  0  0  0
 28 26  1  0  0  0  0
 30 29  1  0  0  0  0
 30 32  1  0  0  0  0
 32 31  1  0  0  0  0
M  END
>  <MODEL>
6

>  <REMARK>
 VINA RESULT:      -8.3      3.549      6.858
  Name = 
  8 active torsions:
  status: ('A' for Active; 'I' for Inactive)
    1  A    between atoms: C_1  and  C_27
    2  A    between atoms: C_9  and  C_31
    3  A    between atoms: C_9  and  C_32
    4  A    between atoms: C_13  and  C_29
    5  A    between atoms: C_16  and  O_24
    6  A    between atoms: C_22  and  C_23
    7  A    between atoms: O_24  and  C_27
    8  A    between atoms: C_28  and  C_32
                            x       y       z     vdW  Elec       q    Type
                         _______ _______ _______ _____ _____    ______ ____

>  <TORSDO>
F 8

$$$$
=
 OpenBabel10262421163D

 32 36  0  0  1  0  0  0  0  0999 V2000
  187.2500  177.3890  145.2900 C   0  0  2  0  0  3  0  0  0  0  0  0
  189.5610  177.7770  144.2950 C   0  0  0  0  0  0  0  0  0  0  0  0
  186.1750  178.0490  146.1540 C   0  0  0  0  0  2  0  0  0  0  0  0
  188.5550  178.2150  145.3150 C   0  0  2  0  0  3  0  0  0  0  0  0
  190.7170  177.2790  144.8660 C   0  0  0  0  0  0  0  0  0  0  0  0
  189.4500  177.8960  142.9060 C   0  0  0  0  0  3  0  0  0  0  0  0
  191.6820  176.9500  142.6850 C   0  0  0  0  0  3  0  0  0  0  0  0
  189.3220  177.9390  146.5910 C   0  0  0  0  0  0  0  0  0  0  0  0
  191.7940  176.8640  144.0800 C   0  0  0  0  0  3  0  0  0  0  0  0
  188.8900  178.2360  147.8240 C   0  0  0  0  0  3  0  0  0  0  0  0
  187.5490  178.8460  148.0880 C   0  0  0  0  0  2  0  0  0  0  0  0
  190.5120  177.4650  142.0990 C   0  0  0  0  0  0  0  0  0  0  0  0
  190.6680  177.3130  146.3480 C   0  0  1  0  0  3  0  0  0  0  0  0
  186.4410  177.9030  147.6460 C   0  0  0  0  0  2  0  0  0  0  0  0
  190.7900  175.9140  146.9660 C   0  0  0  0  0  2  0  0  0  0  0  0
  192.4230  175.5890  147.7190 S   0  0  0  0  0  1  0  0  0  0  0  0
  186.6820  177.2600  143.8850 C   0  0  0  0  0  2  0  0  0  0  0  0
  185.8970  178.4030  143.5740 O   0  0  0  0  0  0  0  0  0  0  0  0
  183.4400  179.0270  138.6260 F   0  0  0  0  0  0  0  0  0  0  0  0
  185.4300  178.9600  139.9320 C   0  0  0  0  0  3  0  0  0  0  0  0
  185.2820  178.5840  142.3300 C   0  0  0  0  0  0  0  0  0  0  0  0
  183.2690  178.6710  140.9750 C   0  0  0  0  0  3  0  0  0  0  0  0
  186.0480  178.8060  141.1740 C   0  0  0  0  0  3  0  0  0  0  0  0
  183.8770  178.5370  142.2320 C   0  0  0  0  0  0  0  0  0  0  0  0
  184.0410  178.8880  139.8320 C   0  0  0  0  0  0  0  0  0  0  0  0
  183.1560  179.3850  144.4490 C   0  0  0  0  0  2  0  0  0  0  0  0
  181.9220  179.2860  143.5840 C   0  0  0  0  0  2  0  0  0  0  0  0
  183.0300  178.2530  143.4420 C   0  0  0  0  0  3  0  0  0  0  0  0
  190.3860  177.5380  140.6130 C   0  0  0  0  0  2  0  0  0  0  0  0
  188.9780  177.1840  140.1490 C   0  0  0  0  0  2  0  0  0  0  0  0
  189.0460  178.6420  138.1280 C   0  0  0  0  0  1  0  0  0  0  0  0
  188.8600  177.2260  138.6330 C   0  0  0  0  0  2  0  0  0  0  0  0
  1 17  1  6  0  0  0
  1  4  1  0  0  0  0
  1  3  1  0  0  0  0
  2  5  1  0  0  0  0
  3 14  1  0  0  0  0
  4  2  1  6  0  0  0
  4  8  1  0  0  0  0
  5 13  1  0  0  0  0
  6  2  2  0  0  0  0
  7  9  1  0  0  0  0
  8 10  2  0  0  0  0
  9  5  2  0  0  0  0
 10 11  1  0  0  0  0
 12  7  2  0  0  0  0
 12  6  1  0  0  0  0
 13  8  1  0  0  0  0
 13 15  1  1  0  0  0
 14 11  1  0  0  0  0
 15 16  1  0  0  0  0
 18 17  1  0  0  0  0
 19 25  1  0  0  0  0
 20 23  1  0  0  0  0
 21 18  1  0  0  0  0
 22 24  2  0  0  0  0
 23 21  2  0  0  0  0
 24 21  1  0  0  0  0
 24 28  1  0  0  0  0
 25 20  2  0  0  0  0
 25 22  1  0  0  0  0
 27 26  1  0  0  0  0
 28 27  1  0  0  0  0
 28 26  1  0  0  0  0
 29 12  1  0  0  0  0
 30 29  1  0  0  0  0
 31 32  1  0  0  0  0
 32 30  1  0  0  0  0
M  END
>  <MODEL>
7

>  <REMARK>
 VINA RESULT:      -8.2      1.792      5.676
  Name = 
  8 active torsions:
  status: ('A' for Active; 'I' for Inactive)
    1  A    between atoms: C_1  and  C_27
    2  A    between atoms: C_9  and  C_31
    3  A    between atoms: C_9  and  C_32
    4  A    between atoms: C_13  and  C_29
    5  A    between atoms: C_16  and  O_24
    6  A    between atoms: C_22  and  C_23
    7  A    between atoms: O_24  and  C_27
    8  A    between atoms: C_28  and  C_32
                            x       y       z     vdW  Elec       q    Type
                         _______ _______ _______ _____ _____    ______ ____

>  <TORSDO>
F 8

$$$$
=
 OpenBabel10262421163D

 32 36  0  0  1  0  0  0  0  0999 V2000
  188.3660  178.0730  142.1260 C   0  0  2  0  0  3  0  0  0  0  0  0
  186.4960  177.6910  143.8100 C   0  0  0  0  0  0  0  0  0  0  0  0
  189.3600  177.3350  141.2280 C   0  0  0  0  0  2  0  0  0  0  0  0
  187.6620  177.0890  143.0860 C   0  0  2  0  0  3  0  0  0  0  0  0
  186.6920  177.7530  145.1770 C   0  0  0  0  0  0  0  0  0  0  0  0
  185.2800  178.0950  143.2480 C   0  0  0  0  0  3  0  0  0  0  0  0
  184.4890  178.6750  145.4760 C   0  0  0  0  0  3  0  0  0  0  0  0
  188.5680  176.7610  144.2540 C   0  0  0  0  0  0  0  0  0  0  0  0
  185.6990  178.2380  146.0310 C   0  0  0  0  0  3  0  0  0  0  0  0
  189.7400  176.1190  144.1560 C   0  0  0  0  0  3  0  0  0  0  0  0
  190.3200  175.6850  142.8470 C   0  0  0  0  0  2  0  0  0  0  0  0
  184.2790  178.6050  144.0870 C   0  0  0  0  0  0  0  0  0  0  0  0
  188.0090  177.2010  145.5790 C   0  0  1  0  0  3  0  0  0  0  0  0
  190.6140  176.8930  141.9710 C   0  0  0  0  0  2  0  0  0  0  0  0
  188.8900  178.2460  146.2750 C   0  0  0  0  0  2  0  0  0  0  0  0
  189.0140  178.0080  148.0820 S   0  0  0  0  0  1  0  0  0  0  0  0
  187.3810  178.7870  141.2140 C   0  0  0  0  0  2  0  0  0  0  0  0
  187.8630  178.7770  139.8780 O   0  0  0  0  0  0  0  0  0  0  0  0
  185.1470  176.1710  135.7860 F   0  0  0  0  0  0  0  0  0  0  0  0
  187.2020  176.7280  136.8510 C   0  0  0  0  0  3  0  0  0  0  0  0
  187.1870  178.1390  138.8320 C   0  0  0  0  0  0  0  0  0  0  0  0
  185.1070  177.5660  137.7170 C   0  0  0  0  0  3  0  0  0  0  0  0
  187.8870  177.3840  137.8770 C   0  0  0  0  0  3  0  0  0  0  0  0
  185.7850  178.2480  138.7380 C   0  0  0  0  0  0  0  0  0  0  0  0
  185.8130  176.8160  136.7740 C   0  0  0  0  0  0  0  0  0  0  0  0
  183.7550  179.6160  139.1450 C   0  0  0  0  0  2  0  0  0  0  0  0
  183.6370  178.3740  139.9960 C   0  0  0  0  0  2  0  0  0  0  0  0
  185.0010  179.0100  139.7720 C   0  0  0  0  0  3  0  0  0  0  0  0
  182.9970  179.0890  143.4950 C   0  0  0  0  0  2  0  0  0  0  0  0
  181.7940  178.6540  144.3250 C   0  0  0  0  0  2  0  0  0  0  0  0
  180.7590  179.3360  142.1610 C   0  0  0  0  0  1  0  0  0  0  0  0
  180.4870  178.8970  143.5860 C   0  0  0  0  0  2  0  0  0  0  0  0
  1 17  1  6  0  0  0
  1  4  1  0  0  0  0
  2  5  1  0  0  0  0
  3 14  1  0  0  0  0
  3  1  1  0  0  0  0
  4  2  1  1  0  0  0
  4  8  1  0  0  0  0
  5 13  1  0  0  0  0
  5  9  2  0  0  0  0
  6  2  2  0  0  0  0
  6 12  1  0  0  0  0
  7  9  1  0  0  0  0
  8 13  1  0  0  0  0
 10  8  2  0  0  0  0
 11 10  1  0  0  0  0
 12  7  2  0  0  0  0
 13 15  1  6  0  0  0
 14 11  1  0  0  0  0
 15 16  1  0  0  0  0
 18 17  1  0  0  0  0
 19 25  1  0  0  0  0
 20 23  1  0  0  0  0
 21 18  1  0  0  0  0
 22 24  2  0  0  0  0
 23 21  2  0  0  0  0
 24 21  1  0  0  0  0
 24 28  1  0  0  0  0
 25 20  2  0  0  0  0
 25 22  1  0  0  0  0
 26 28  1  0  0  0  0
 26 27  1  0  0  0  0
 28 27  1  0  0  0  0
 29 12  1  0  0  0  0
 29 30  1  0  0  0  0
 31 32  1  0  0  0  0
 32 30  1  0  0  0  0
M  END
>  <MODEL>
8

>  <REMARK>
 VINA RESULT:      -8.2      1.105      2.210
  Name = 
  8 active torsions:
  status: ('A' for Active; 'I' for Inactive)
    1  A    between atoms: C_1  and  C_27
    2  A    between atoms: C_9  and  C_31
    3  A    between atoms: C_9  and  C_32
    4  A    between atoms: C_13  and  C_29
    5  A    between atoms: C_16  and  O_24
    6  A    between atoms: C_22  and  C_23
    7  A    between atoms: O_24  and  C_27
    8  A    between atoms: C_28  and  C_32
                            x       y       z     vdW  Elec       q    Type
                         _______ _______ _______ _____ _____    ______ ____

>  <TORSDO>
F 8

$$$$
=
 OpenBabel10262421163D

 32 36  0  0  1  0  0  0  0  0999 V2000
  188.1820  178.3980  140.7300 C   0  0  2  0  0  3  0  0  0  0  0  0
  189.4470  177.0460  142.4770 C   0  0  0  0  0  0  0  0  0  0  0  0
  187.3270  178.2550  139.4710 C   0  0  0  0  0  2  0  0  0  0  0  0
  188.8130  177.0430  141.1200 C   0  0  2  0  0  3  0  0  0  0  0  0
  190.8150  176.8480  142.4270 C   0  0  0  0  0  0  0  0  0  0  0  0
  188.7900  177.1530  143.7070 C   0  0  0  0  0  3  0  0  0  0  0  0
  190.9360  176.9060  144.8310 C   0  0  0  0  0  3  0  0  0  0  0  0
  190.0240  176.7650  140.2530 C   0  0  0  0  0  0  0  0  0  0  0  0
  191.5790  176.7700  143.5930 C   0  0  0  0  0  3  0  0  0  0  0  0
  189.9900  176.5810  138.9270 C   0  0  0  0  0  3  0  0  0  0  0  0
  188.7290  176.6770  138.1270 C   0  0  0  0  0  2  0  0  0  0  0  0
  189.5440  177.0980  144.8890 C   0  0  0  0  0  0  0  0  0  0  0  0
  191.3040  176.6760  141.0370 C   0  0  1  0  0  3  0  0  0  0  0  0
  188.1570  178.0840  138.2070 C   0  0  0  0  0  2  0  0  0  0  0  0
  192.3170  177.7580  140.6400 C   0  0  0  0  0  2  0  0  0  0  0  0
  193.6850  177.1310  139.6050 S   0  0  0  0  0  1  0  0  0  0  0  0
  187.2810  178.9450  141.8270 C   0  0  0  0  0  2  0  0  0  0  0  0
  185.9840  179.1990  141.3050 O   0  0  0  0  0  0  0  0  0  0  0  0
  181.3350  178.8310  144.3330 F   0  0  0  0  0  0  0  0  0  0  0  0
  183.6730  179.2640  144.2130 C   0  0  0  0  0  3  0  0  0  0  0  0
  184.8210  179.0850  142.0760 C   0  0  0  0  0  0  0  0  0  0  0  0
  182.4400  178.6360  142.2310 C   0  0  0  0  0  3  0  0  0  0  0  0
  184.8420  179.3550  143.4550 C   0  0  0  0  0  3  0  0  0  0  0  0
  183.6120  178.7010  141.4630 C   0  0  0  0  0  0  0  0  0  0  0  0
  182.4720  178.9090  143.6000 C   0  0  0  0  0  0  0  0  0  0  0  0
  182.1590  178.7870  139.4540 C   0  0  0  0  0  2  0  0  0  0  0  0
  183.3010  179.7480  139.2230 C   0  0  0  0  0  2  0  0  0  0  0  0
  183.5450  178.4520  139.9810 C   0  0  0  0  0  3  0  0  0  0  0  0
  188.8620  177.2630  146.2060 C   0  0  0  0  0  2  0  0  0  0  0  0
  187.4560  177.8300  146.0450 C   0  0  0  0  0  2  0  0  0  0  0  0
  187.9230  178.2230  148.4630 C   0  0  0  0  0  1  0  0  0  0  0  0
  186.8580  178.2330  147.3850 C   0  0  0  0  0  2  0  0  0  0  0  0
  1  4  1  0  0  0  0
  1 17  1  1  0  0  0
  2  6  1  0  0  0  0
  3  1  1  0  0  0  0
  4  8  1  6  0  0  0
  4  2  1  0  0  0  0
  5  2  2  0  0  0  0
  5  9  1  0  0  0  0
  6 12  2  0  0  0  0
  7 12  1  0  0  0  0
  8 13  1  0  0  0  0
  9  7  2  0  0  0  0
 10  8  2  0  0  0  0
 11 14  1  0  0  0  0
 11 10  1  0  0  0  0
 12 29  1  0  0  0  0
 13 15  1  6  0  0  0
 13  5  1  0  0  0  0
 14  3  1  0  0  0  0
 16 15  1  0  0  0  0
 18 17  1  0  0  0  0
 18 21  1  0  0  0  0
 21 23  1  0  0  0  0
 22 25  2  0  0  0  0
 23 20  2  0  0  0  0
 24 21  2  0  0  0  0
 24 22  1  0  0  0  0
 25 20  1  0  0  0  0
 25 19  1  0  0  0  0
 26 28  1  0  0  0  0
 27 26  1  0  0  0  0
 27 28  1  0  0  0  0
 28 24  1  0  0  0  0
 30 29  1  0  0  0  0
 30 32  1  0  0  0  0
 32 31  1  0  0  0  0
M  END
>  <MODEL>
9

>  <REMARK>
 VINA RESULT:      -8.1      2.567      5.233
  Name = 
  8 active torsions:
  status: ('A' for Active; 'I' for Inactive)
    1  A    between atoms: C_1  and  C_27
    2  A    between atoms: C_9  and  C_31
    3  A    between atoms: C_9  and  C_32
    4  A    between atoms: C_13  and  C_29
    5  A    between atoms: C_16  and  O_24
    6  A    between atoms: C_22  and  C_23
    7  A    between atoms: O_24  and  C_27
    8  A    between atoms: C_28  and  C_32
                            x       y       z     vdW  Elec       q    Type
                         _______ _______ _______ _____ _____    ______ ____

>  <TORSDO>
F 8

$$$$
