=
 OpenBabel10262420053D

 27 32  0  0  1  0  0  0  0  0999 V2000
  189.8480  178.3050  145.7420 N   0  0  0  0  0  2  0  0  0  0  0  0
  187.2720  178.2750  145.9850 C   0  0  0  0  0  0  0  0  0  0  0  0
  187.6340  177.1540  143.7960 N   0  0  0  0  0  0  0  0  0  0  0  0
  183.3630  179.2860  144.8920 C   0  0  0  0  0  3  0  0  0  0  0  0
  181.4570  179.2680  143.2790 C   0  0  0  0  0  1  0  0  0  0  0  0
  186.4270  178.9970  146.8390 C   0  0  0  0  0  3  0  0  0  0  0  0
  184.9520  177.8330  143.1000 C   0  0  0  0  0  3  0  0  0  0  0  0
  188.7080  176.4270  147.0180 C   0  0  1  0  0  3  0  0  0  0  0  0
  191.0600  176.0960  143.1050 C   0  0  0  0  0  2  0  0  0  0  0  0
  188.8580  177.6280  147.9430 C   0  0  0  0  0  2  0  0  0  0  0  0
  183.6420  178.1760  142.7570 C   0  0  0  0  0  3  0  0  0  0  0  0
  191.9610  177.2190  142.6270 C   0  0  0  0  0  2  0  0  0  0  0  0
  185.4770  178.2110  144.3440 C   0  0  0  0  0  0  0  0  0  0  0  0
  188.6470  177.8460  146.4580 C   0  0  1  0  0  0  0  0  0  0  0  0
  182.8480  178.9000  143.6520 C   0  0  0  0  0  0  0  0  0  0  0  0
  184.6690  178.9410  145.2470 C   0  0  0  0  0  0  0  0  0  0  0  0
  189.5650  178.5380  144.3250 C   0  0  1  0  0  3  0  0  0  0  0  0
  186.7970  177.8970  144.7060 C   0  0  0  0  0  0  0  0  0  0  0  0
  189.6580  176.4110  142.8680 N   0  0  0  0  0  2  0  0  0  0  0  0
  185.1630  179.3160  146.4550 N   0  0  0  0  0  0  0  0  0  0  0  0
  192.0040  178.3380  143.6490 C   0  0  0  0  0  2  0  0  0  0  0  0
  190.7370  179.1760  143.5860 C   0  0  0  0  0  2  0  0  0  0  0  0
  188.9100  177.3560  143.6410 C   0  0  0  0  0  0  0  0  0  0  0  0
  190.0610  175.7630  146.8090 C   0  0  0  0  0  2  0  0  0  0  0  0
  192.4380  176.1930  147.1800 C   0  0  0  0  0  2  0  0  0  0  0  0
  191.9600  175.3310  148.1840 O   0  0  0  0  0  0  0  0  0  0  0  0
  191.0870  176.3510  147.7580 C   0  0  2  0  0  3  0  0  0  0  0  0
  1 14  1  0  0  0  0
  2 14  1  0  0  0  0
  2  6  1  0  0  0  0
  3 18  1  0  0  0  0
  4 16  1  0  0  0  0
  5 15  1  0  0  0  0
  7 13  1  0  0  0  0
  8 24  1  6  0  0  0
  8 10  1  0  0  0  0
 11  7  2  0  0  0  0
 11 15  1  0  0  0  0
 12  9  1  0  0  0  0
 12 21  1  0  0  0  0
 13 18  1  0  0  0  0
 13 16  2  0  0  0  0
 14  8  1  0  0  0  0
 14 10  1  1  0  0  0
 15  4  2  0  0  0  0
 16 20  1  0  0  0  0
 17 22  1  6  0  0  0
 17  1  1  0  0  0  0
 18  2  2  0  0  0  0
 19  9  1  0  0  0  0
 19 23  1  0  0  0  0
 20  6  2  0  0  0  0
 22 21  1  0  0  0  0
 23  3  2  0  0  0  0
 23 17  1  0  0  0  0
 25 27  1  0  0  0  0
 25 26  1  0  0  0  0
 27 24  1  6  0  0  0
 27 26  1  0  0  0  0
M  END
>  <MODEL>
1

>  <REMARK>
 VINA RESULT:      -8.1      0.000      0.000
  Name = 
  2 active torsions:
  status: ('A' for Active; 'I' for Inactive)
    1  A    between atoms: C_9  and  C_27
    2  A    between atoms: C_25  and  C_27
                            x       y       z     vdW  Elec       q    Type
                         _______ _______ _______ _____ _____    ______ ____

>  <TORSDO>
F 2

$$$$
=
 OpenBabel10262420053D

 27 32  0  0  1  0  0  0  0  0999 V2000
  180.9650  177.6890  139.2440 N   0  0  0  0  0  2  0  0  0  0  0  0
  181.7740  178.8320  141.4190 C   0  0  0  0  0  0  0  0  0  0  0  0
  183.9020  178.1600  140.3230 N   0  0  0  0  0  0  0  0  0  0  0  0
  183.6600  178.9440  145.1510 C   0  0  0  0  0  3  0  0  0  0  0  0
  185.6780  178.7050  146.6030 C   0  0  0  0  0  1  0  0  0  0  0  0
  181.0790  179.1610  142.5910 C   0  0  0  0  0  3  0  0  0  0  0  0
  185.1600  178.2790  142.8800 C   0  0  0  0  0  3  0  0  0  0  0  0
  181.2820  180.2080  139.3200 C   0  0  1  0  0  3  0  0  0  0  0  0
  183.6370  177.1870  136.8130 C   0  0  0  0  0  2  0  0  0  0  0  0
  179.9220  179.8660  139.9140 C   0  0  0  0  0  2  0  0  0  0  0  0
  185.7720  178.3290  144.1360 C   0  0  0  0  0  3  0  0  0  0  0  0
  183.1370  175.7700  136.6080 C   0  0  0  0  0  2  0  0  0  0  0  0
  183.7940  178.5670  142.7510 C   0  0  0  0  0  0  0  0  0  0  0  0
  181.0760  178.8970  140.0760 C   0  0  1  0  0  0  0  0  0  0  0  0
  185.0240  178.6620  145.2690 C   0  0  0  0  0  0  0  0  0  0  0  0
  183.0420  178.9050  143.8990 C   0  0  0  0  0  0  0  0  0  0  0  0
  182.0850  176.7770  139.4800 C   0  0  1  0  0  3  0  0  0  0  0  0
  183.1500  178.5050  141.5040 C   0  0  0  0  0  0  0  0  0  0  0  0
  184.2130  177.3550  138.1400 N   0  0  0  0  0  2  0  0  0  0  0  0
  181.7170  179.1840  143.7900 N   0  0  0  0  0  0  0  0  0  0  0  0
  181.7800  175.5850  137.2580 C   0  0  0  0  0  2  0  0  0  0  0  0
  181.9180  175.4390  138.7650 C   0  0  0  0  0  2  0  0  0  0  0  0
  183.4400  177.4410  139.3410 C   0  0  0  0  0  0  0  0  0  0  0  0
  181.2440  180.0340  137.8080 C   0  0  0  0  0  2  0  0  0  0  0  0
  180.5860  181.2110  135.7690 C   0  0  0  0  0  2  0  0  0  0  0  0
  180.9360  182.1520  136.7560 O   0  0  0  0  0  0  0  0  0  0  0  0
  180.2500  181.0010  137.1940 C   0  0  2  0  0  3  0  0  0  0  0  0
  1 17  1  0  0  0  0
  1 14  1  0  0  0  0
  2 18  2  0  0  0  0
  2  6  1  0  0  0  0
  3 18  1  0  0  0  0
  4 15  1  0  0  0  0
  6 20  2  0  0  0  0
  7 11  1  0  0  0  0
  8 24  1  6  0  0  0
  8 10  1  0  0  0  0
  8 14  1  0  0  0  0
  9 19  1  0  0  0  0
 11 15  2  0  0  0  0
 12  9  1  0  0  0  0
 12 21  1  0  0  0  0
 13  7  2  0  0  0  0
 13 16  1  0  0  0  0
 14 10  1  1  0  0  0
 14  2  1  0  0  0  0
 15  5  1  0  0  0  0
 16  4  2  0  0  0  0
 17 22  1  6  0  0  0
 18 13  1  0  0  0  0
 19 23  1  0  0  0  0
 20 16  1  0  0  0  0
 21 22  1  0  0  0  0
 23 17  1  0  0  0  0
 23  3  2  0  0  0  0
 25 26  1  0  0  0  0
 25 27  1  0  0  0  0
 26 27  1  0  0  0  0
 27 24  1  1  0  0  0
M  END
>  <MODEL>
2

>  <REMARK>
 VINA RESULT:      -8.0      5.479      9.440
  Name = 
  2 active torsions:
  status: ('A' for Active; 'I' for Inactive)
    1  A    between atoms: C_9  and  C_27
    2  A    between atoms: C_25  and  C_27
                            x       y       z     vdW  Elec       q    Type
                         _______ _______ _______ _____ _____    ______ ____

>  <TORSDO>
F 2

$$$$
=
 OpenBabel10262420053D

 27 32  0  0  1  0  0  0  0  0999 V2000
  190.6290  177.6410  137.5420 N   0  0  0  0  0  2  0  0  0  0  0  0
  191.0450  177.1400  140.0460 C   0  0  0  0  0  0  0  0  0  0  0  0
  188.6460  176.5560  139.7570 N   0  0  0  0  0  0  0  0  0  0  0  0
  190.4790  177.6920  144.1540 C   0  0  0  0  0  3  0  0  0  0  0  0
  189.0420  177.6850  146.1950 C   0  0  0  0  0  1  0  0  0  0  0  0
  192.0930  177.5270  140.8930 C   0  0  0  0  0  3  0  0  0  0  0  0
  188.3070  176.9100  142.5660 C   0  0  0  0  0  3  0  0  0  0  0  0
  191.5510  175.3840  138.2560 C   0  0  1  0  0  3  0  0  0  0  0  0
  187.4990  176.2370  136.3050 C   0  0  0  0  0  2  0  0  0  0  0  0
  192.6980  176.3830  138.1860 C   0  0  0  0  0  2  0  0  0  0  0  0
  188.1410  177.0940  143.9420 C   0  0  0  0  0  3  0  0  0  0  0  0
  187.2090  177.5650  135.6320 C   0  0  0  0  0  2  0  0  0  0  0  0
  189.5620  177.1120  141.9750 C   0  0  0  0  0  0  0  0  0  0  0  0
  191.3150  176.8570  138.5820 C   0  0  1  0  0  0  0  0  0  0  0  0
  189.2260  177.4830  144.7340 C   0  0  0  0  0  0  0  0  0  0  0  0
  190.6560  177.5030  142.7810 C   0  0  0  0  0  0  0  0  0  0  0  0
  189.3190  178.1040  138.0030 C   0  0  1  0  0  3  0  0  0  0  0  0
  189.7520  176.9530  140.5920 C   0  0  0  0  0  0  0  0  0  0  0  0
  187.4370  176.3570  137.7550 N   0  0  0  0  0  2  0  0  0  0  0  0
  191.8780  177.7040  142.2230 N   0  0  0  0  0  0  0  0  0  0  0  0
  188.4420  178.4480  135.6450 C   0  0  0  0  0  2  0  0  0  0  0  0
  188.6520  179.0610  137.0200 C   0  0  0  0  0  2  0  0  0  0  0  0
  188.4460  176.9920  138.5470 C   0  0  0  0  0  0  0  0  0  0  0  0
  191.1070  175.0080  136.8490 C   0  0  0  0  0  2  0  0  0  0  0  0
  189.5870  173.3230  135.9410 C   0  0  0  0  0  2  0  0  0  0  0  0
  189.5200  173.2980  137.3470 O   0  0  0  0  0  0  0  0  0  0  0  0
  190.7890  173.5270  136.7770 C   0  0  2  0  0  3  0  0  0  0  0  0
  1 17  1  0  0  0  0
  1 14  1  0  0  0  0
  2 18  2  0  0  0  0
  2  6  1  0  0  0  0
  3 18  1  0  0  0  0
  4 15  1  0  0  0  0
  6 20  2  0  0  0  0
  7 11  1  0  0  0  0
  8 24  1  6  0  0  0
  8 14  1  0  0  0  0
  9 19  1  0  0  0  0
 10  8  1  0  0  0  0
 11 15  2  0  0  0  0
 12 21  1  0  0  0  0
 12  9  1  0  0  0  0
 13  7  2  0  0  0  0
 13 16  1  0  0  0  0
 14 10  1  6  0  0  0
 14  2  1  0  0  0  0
 15  5  1  0  0  0  0
 16  4  2  0  0  0  0
 17 22  1  6  0  0  0
 17 23  1  0  0  0  0
 18 13  1  0  0  0  0
 19 23  1  0  0  0  0
 20 16  1  0  0  0  0
 21 22  1  0  0  0  0
 23  3  2  0  0  0  0
 25 27  1  0  0  0  0
 25 26  1  0  0  0  0
 27 24  1  1  0  0  0
 27 26  1  0  0  0  0
M  END
>  <MODEL>
3

>  <REMARK>
 VINA RESULT:      -7.7      5.181      7.905
  Name = 
  2 active torsions:
  status: ('A' for Active; 'I' for Inactive)
    1  A    between atoms: C_9  and  C_27
    2  A    between atoms: C_25  and  C_27
                            x       y       z     vdW  Elec       q    Type
                         _______ _______ _______ _____ _____    ______ ____

>  <TORSDO>
F 2

$$$$
=
 OpenBabel10262420053D

 27 32  0  0  1  0  0  0  0  0999 V2000
  189.2150  178.6030  143.0590 N   0  0  0  0  0  2  0  0  0  0  0  0
  188.7950  177.9130  140.6010 C   0  0  0  0  0  0  0  0  0  0  0  0
  190.3960  176.1840  141.3950 N   0  0  0  0  0  0  0  0  0  0  0  0
  189.9100  177.2130  136.6310 C   0  0  0  0  0  3  0  0  0  0  0  0
  191.2480  176.0040  134.9040 C   0  0  0  0  0  1  0  0  0  0  0  0
  188.2300  178.6280  139.5360 C   0  0  0  0  0  3  0  0  0  0  0  0
  191.1060  175.7130  138.6730 C   0  0  0  0  0  3  0  0  0  0  0  0
  187.2310  177.1300  142.4680 C   0  0  1  0  0  3  0  0  0  0  0  0
  190.8660  176.0030  145.0110 C   0  0  0  0  0  2  0  0  0  0  0  0
  186.8600  178.5840  142.2050 C   0  0  0  0  0  2  0  0  0  0  0  0
  191.4600  175.4910  137.3390 C   0  0  0  0  0  3  0  0  0  0  0  0
  191.8060  177.0590  145.5590 C   0  0  0  0  0  2  0  0  0  0  0  0
  190.1480  176.6840  138.9950 C   0  0  0  0  0  0  0  0  0  0  0  0
  188.2930  178.1300  142.0140 C   0  0  1  0  0  0  0  0  0  0  0  0
  190.8620  176.2390  136.3200 C   0  0  0  0  0  0  0  0  0  0  0  0
  189.5450  177.4360  137.9610 C   0  0  0  0  0  0  0  0  0  0  0  0
  190.5870  178.1680  142.7930 C   0  0  1  0  0  3  0  0  0  0  0  0
  189.7890  176.9420  140.3280 C   0  0  0  0  0  0  0  0  0  0  0  0
  191.1050  175.7700  143.5930 N   0  0  0  0  0  2  0  0  0  0  0  0
  188.6160  178.3820  138.2570 N   0  0  0  0  0  0  0  0  0  0  0  0
  191.3060  178.4480  145.2130 C   0  0  0  0  0  2  0  0  0  0  0  0
  191.5980  178.7800  143.7580 C   0  0  0  0  0  2  0  0  0  0  0  0
  190.7090  176.6760  142.5580 C   0  0  0  0  0  0  0  0  0  0  0  0
  187.2630  176.8690  143.9680 C   0  0  0  0  0  2  0  0  0  0  0  0
  186.8520  178.2530  145.9390 C   0  0  0  0  0  2  0  0  0  0  0  0
  185.9340  177.1850  145.9220 O   0  0  0  0  0  0  0  0  0  0  0  0
  186.2610  177.7590  144.6770 C   0  0  2  0  0  3  0  0  0  0  0  0
  2 14  1  0  0  0  0
  3 23  2  0  0  0  0
  4 16  1  0  0  0  0
  5 15  1  0  0  0  0
  6  2  2  0  0  0  0
  7 13  1  0  0  0  0
  8 24  1  1  0  0  0
  9 12  1  0  0  0  0
 10  8  1  0  0  0  0
 11  7  2  0  0  0  0
 13 18  2  0  0  0  0
 14 10  1  6  0  0  0
 14  8  1  0  0  0  0
 14  1  1  0  0  0  0
 15  4  2  0  0  0  0
 15 11  1  0  0  0  0
 16 20  2  0  0  0  0
 16 13  1  0  0  0  0
 17  1  1  0  0  0  0
 17 22  1  1  0  0  0
 18  2  1  0  0  0  0
 18  3  1  0  0  0  0
 19  9  1  0  0  0  0
 20  6  1  0  0  0  0
 21 12  1  0  0  0  0
 22 21  1  0  0  0  0
 23 17  1  0  0  0  0
 23 19  1  0  0  0  0
 26 25  1  0  0  0  0
 27 24  1  6  0  0  0
 27 26  1  0  0  0  0
 27 25  1  0  0  0  0
M  END
>  <MODEL>
4

>  <REMARK>
 VINA RESULT:      -7.3      3.785      6.584
  Name = 
  2 active torsions:
  status: ('A' for Active; 'I' for Inactive)
    1  A    between atoms: C_9  and  C_27
    2  A    between atoms: C_25  and  C_27
                            x       y       z     vdW  Elec       q    Type
                         _______ _______ _______ _____ _____    ______ ____

>  <TORSDO>
F 2

$$$$
=
 OpenBabel10262420053D

 27 32  0  0  1  0  0  0  0  0999 V2000
  189.0870  176.8360  136.0010 N   0  0  0  0  0  2  0  0  0  0  0  0
  186.6560  176.2950  136.7020 C   0  0  0  0  0  0  0  0  0  0  0  0
  187.8920  174.2410  137.3610 N   0  0  0  0  0  0  0  0  0  0  0  0
  183.0650  174.1560  136.5370 C   0  0  0  0  0  3  0  0  0  0  0  0
  181.7470  172.0500  136.7860 C   0  0  0  0  0  1  0  0  0  0  0  0
  185.4450  176.9060  136.3460 C   0  0  0  0  0  3  0  0  0  0  0  0
  185.4180  172.8240  137.2700 C   0  0  0  0  0  3  0  0  0  0  0  0
  188.2180  177.5770  138.2710 C   0  0  1  0  0  3  0  0  0  0  0  0
  191.5310  174.5340  137.4250 C   0  0  0  0  0  2  0  0  0  0  0  0
  187.7720  178.5870  137.2200 C   0  0  0  0  0  2  0  0  0  0  0  0
  184.2060  172.1300  137.2150 C   0  0  0  0  0  3  0  0  0  0  0  0
  192.1770  174.4280  136.0570 C   0  0  0  0  0  2  0  0  0  0  0  0
  185.4610  174.1910  136.9630 C   0  0  0  0  0  0  0  0  0  0  0  0
  187.9150  177.1260  136.8430 C   0  0  1  0  0  0  0  0  0  0  0  0
  183.0310  172.7950  136.8500 C   0  0  0  0  0  0  0  0  0  0  0  0
  184.2700  174.8600  136.5970 C   0  0  0  0  0  0  0  0  0  0  0  0
  189.1420  175.4190  135.6380 C   0  0  1  0  0  3  0  0  0  0  0  0
  186.6680  174.9090  136.9920 C   0  0  0  0  0  0  0  0  0  0  0  0
  190.2140  173.9120  137.4360 N   0  0  0  0  0  2  0  0  0  0  0  0
  184.2950  176.1840  136.2960 N   0  0  0  0  0  0  0  0  0  0  0  0
  191.6290  175.4920  135.1260 C   0  0  0  0  0  2  0  0  0  0  0  0
  190.2440  175.1120  134.6280 C   0  0  0  0  0  2  0  0  0  0  0  0
  189.0540  174.4890  136.8290 C   0  0  0  0  0  0  0  0  0  0  0  0
  189.7070  177.7360  138.5410 C   0  0  0  0  0  2  0  0  0  0  0  0
  191.4390  177.2990  140.2080 C   0  0  0  0  0  2  0  0  0  0  0  0
  190.4960  176.2540  140.2330 O   0  0  0  0  0  0  0  0  0  0  0  0
  189.9950  177.5540  140.0180 C   0  0  2  0  0  3  0  0  0  0  0  0
  1 14  1  0  0  0  0
  2 14  1  0  0  0  0
  2 18  1  0  0  0  0
  4 16  1  0  0  0  0
  4 15  2  0  0  0  0
  5 15  1  0  0  0  0
  6  2  2  0  0  0  0
  8 24  1  6  0  0  0
  9 19  1  0  0  0  0
 10  8  1  0  0  0  0
 11  7  2  0  0  0  0
 12  9  1  0  0  0  0
 13 18  2  0  0  0  0
 13  7  1  0  0  0  0
 14 10  1  6  0  0  0
 14  8  1  0  0  0  0
 15 11  1  0  0  0  0
 16 13  1  0  0  0  0
 17 22  1  1  0  0  0
 17  1  1  0  0  0  0
 17 23  1  0  0  0  0
 18  3  1  0  0  0  0
 20  6  1  0  0  0  0
 20 16  2  0  0  0  0
 21 12  1  0  0  0  0
 22 21  1  0  0  0  0
 23  3  2  0  0  0  0
 23 19  1  0  0  0  0
 25 26  1  0  0  0  0
 27 24  1  6  0  0  0
 27 25  1  0  0  0  0
 27 26  1  0  0  0  0
M  END
>  <MODEL>
5

>  <REMARK>
 VINA RESULT:      -6.5      6.943      8.776
  Name = 
  2 active torsions:
  status: ('A' for Active; 'I' for Inactive)
    1  A    between atoms: C_9  and  C_27
    2  A    between atoms: C_25  and  C_27
                            x       y       z     vdW  Elec       q    Type
                         _______ _______ _______ _____ _____    ______ ____

>  <TORSDO>
F 2

$$$$
=
 OpenBabel10262420053D

 27 32  0  0  1  0  0  0  0  0999 V2000
  189.2120  176.8050  135.6780 N   0  0  0  0  0  2  0  0  0  0  0  0
  190.5140  176.4950  137.8930 C   0  0  0  0  0  0  0  0  0  0  0  0
  188.1490  176.6060  138.6520 N   0  0  0  0  0  0  0  0  0  0  0  0
  191.8500  177.6550  141.6830 C   0  0  0  0  0  3  0  0  0  0  0  0
  191.4330  178.3010  144.0580 C   0  0  0  0  0  1  0  0  0  0  0  0
  191.8760  176.6540  138.1810 C   0  0  0  0  0  3  0  0  0  0  0  0
  189.1010  177.3630  141.2320 C   0  0  0  0  0  3  0  0  0  0  0  0
  189.8260  174.4740  136.4820 C   0  0  1  0  0  3  0  0  0  0  0  0
  185.6270  176.2420  136.0360 C   0  0  0  0  0  2  0  0  0  0  0  0
  191.0290  175.0810  135.7710 C   0  0  0  0  0  2  0  0  0  0  0  0
  189.5690  177.7440  142.4920 C   0  0  0  0  0  3  0  0  0  0  0  0
  185.3840  177.5100  135.2410 C   0  0  0  0  0  2  0  0  0  0  0  0
  190.0050  177.1210  140.1880 C   0  0  0  0  0  0  0  0  0  0  0  0
  190.0780  175.9800  136.5350 C   0  0  1  0  0  0  0  0  0  0  0  0
  190.9420  177.8880  142.7180 C   0  0  0  0  0  0  0  0  0  0  0  0
  191.3920  177.2660  140.4220 C   0  0  0  0  0  0  0  0  0  0  0  0
  188.3520  177.6790  136.4770 C   0  0  1  0  0  3  0  0  0  0  0  0
  189.5610  176.7570  138.9070 C   0  0  0  0  0  0  0  0  0  0  0  0
  186.2040  176.5400  137.3400 N   0  0  0  0  0  2  0  0  0  0  0  0
  192.2810  177.0370  139.4200 N   0  0  0  0  0  0  0  0  0  0  0  0
  186.6710  177.9910  134.5990 C   0  0  0  0  0  2  0  0  0  0  0  0
  187.5640  178.6700  135.6250 C   0  0  0  0  0  2  0  0  0  0  0  0
  187.5640  176.9400  137.5380 C   0  0  0  0  0  0  0  0  0  0  0  0
  188.7650  174.0850  135.4620 C   0  0  0  0  0  2  0  0  0  0  0  0
  187.0820  173.0170  136.8760 C   0  0  0  0  0  2  0  0  0  0  0  0
  188.3560  172.5270  137.2200 O   0  0  0  0  0  0  0  0  0  0  0  0
  188.1200  172.7700  135.8520 C   0  0  2  0  0  3  0  0  0  0  0  0
  1 17  1  0  0  0  0
  1 14  1  0  0  0  0
  2  6  2  0  0  0  0
  2 18  1  0  0  0  0
  3 18  1  0  0  0  0
  4 15  2  0  0  0  0
  6 20  1  0  0  0  0
  7 11  2  0  0  0  0
  8 24  1  6  0  0  0
  8 14  1  0  0  0  0
  9 19  1  0  0  0  0
 10  8  1  0  0  0  0
 11 15  1  0  0  0  0
 12  9  1  0  0  0  0
 13 16  1  0  0  0  0
 13  7  1  0  0  0  0
 14 10  1  6  0  0  0
 14  2  1  0  0  0  0
 15  5  1  0  0  0  0
 16  4  1  0  0  0  0
 17 22  1  6  0  0  0
 17 23  1  0  0  0  0
 18 13  2  0  0  0  0
 19 23  1  0  0  0  0
 20 16  2  0  0  0  0
 21 12  1  0  0  0  0
 21 22  1  0  0  0  0
 23  3  2  0  0  0  0
 25 26  1  0  0  0  0
 27 24  1  1  0  0  0
 27 25  1  0  0  0  0
 27 26  1  0  0  0  0
M  END
>  <MODEL>
6

>  <REMARK>
 VINA RESULT:      -6.1      6.247      9.344
  Name = 
  2 active torsions:
  status: ('A' for Active; 'I' for Inactive)
    1  A    between atoms: C_9  and  C_27
    2  A    between atoms: C_25  and  C_27
                            x       y       z     vdW  Elec       q    Type
                         _______ _______ _______ _____ _____    ______ ____

>  <TORSDO>
F 2

$$$$
=
 OpenBabel10262420053D

 27 32  0  0  1  0  0  0  0  0999 V2000
  189.9440  177.2380  137.0950 N   0  0  0  0  0  2  0  0  0  0  0  0
  187.4060  177.1330  137.5850 C   0  0  0  0  0  0  0  0  0  0  0  0
  187.9930  174.7480  137.1910 N   0  0  0  0  0  0  0  0  0  0  0  0
  183.4040  176.3690  136.6370 C   0  0  0  0  0  3  0  0  0  0  0  0
  181.5590  174.8250  135.9690 C   0  0  0  0  0  1  0  0  0  0  0  0
  186.4350  178.1440  137.5980 C   0  0  0  0  0  3  0  0  0  0  0  0
  185.2490  174.2610  136.5830 C   0  0  0  0  0  3  0  0  0  0  0  0
  189.1120  177.0990  139.4910 C   0  0  1  0  0  3  0  0  0  0  0  0
  191.5600  173.9710  137.2160 C   0  0  0  0  0  2  0  0  0  0  0  0
  189.0410  178.5490  139.0300 C   0  0  0  0  0  2  0  0  0  0  0  0
  183.9060  174.0270  136.2760 C   0  0  0  0  0  3  0  0  0  0  0  0
  192.2690  174.3120  135.9190 C   0  0  0  0  0  2  0  0  0  0  0  0
  185.6780  175.5510  136.9240 C   0  0  0  0  0  0  0  0  0  0  0  0
  188.8240  177.4320  138.0290 C   0  0  1  0  0  0  0  0  0  0  0  0
  182.9850  175.0780  136.3040 C   0  0  0  0  0  0  0  0  0  0  0  0
  184.7430  176.6110  136.9530 C   0  0  0  0  0  0  0  0  0  0  0  0
  189.6530  176.1770  136.1290 C   0  0  1  0  0  3  0  0  0  0  0  0
  187.0260  175.8190  137.2180 C   0  0  0  0  0  0  0  0  0  0  0  0
  190.1300  173.7970  137.0040 N   0  0  0  0  0  2  0  0  0  0  0  0
  185.1440  177.8670  137.2800 N   0  0  0  0  0  0  0  0  0  0  0  0
  192.1040  175.7840  135.5940 C   0  0  0  0  0  2  0  0  0  0  0  0
  190.7150  176.0620  135.0410 C   0  0  0  0  0  2  0  0  0  0  0  0
  189.2190  174.8780  136.7770 C   0  0  0  0  0  0  0  0  0  0  0  0
  190.5620  176.7050  139.7360 C   0  0  0  0  0  2  0  0  0  0  0  0
  192.7050  177.5050  140.5960 C   0  0  0  0  0  2  0  0  0  0  0  0
  191.9020  177.0810  141.6720 O   0  0  0  0  0  0  0  0  0  0  0  0
  191.2450  177.7370  140.6120 C   0  0  2  0  0  3  0  0  0  0  0  0
  1 14  1  0  0  0  0
  2  6  1  0  0  0  0
  2 14  1  0  0  0  0
  3 18  1  0  0  0  0
  4 16  1  0  0  0  0
  5 15  1  0  0  0  0
  7 13  1  0  0  0  0
  8 24  1  6  0  0  0
 10  8  1  0  0  0  0
 11 15  1  0  0  0  0
 11  7  2  0  0  0  0
 12  9  1  0  0  0  0
 13 16  2  0  0  0  0
 13 18  1  0  0  0  0
 14 10  1  1  0  0  0
 14  8  1  0  0  0  0
 15  4  2  0  0  0  0
 16 20  1  0  0  0  0
 17 22  1  1  0  0  0
 17 23  1  0  0  0  0
 17  1  1  0  0  0  0
 18  2  2  0  0  0  0
 19  9  1  0  0  0  0
 20  6  2  0  0  0  0
 21 12  1  0  0  0  0
 22 21  1  0  0  0  0
 23 19  1  0  0  0  0
 23  3  2  0  0  0  0
 25 27  1  0  0  0  0
 25 26  1  0  0  0  0
 27 24  1  6  0  0  0
 27 26  1  0  0  0  0
M  END
>  <MODEL>
7

>  <REMARK>
 VINA RESULT:      -5.8      6.444      7.977
  Name = 
  2 active torsions:
  status: ('A' for Active; 'I' for Inactive)
    1  A    between atoms: C_9  and  C_27
    2  A    between atoms: C_25  and  C_27
                            x       y       z     vdW  Elec       q    Type
                         _______ _______ _______ _____ _____    ______ ____

>  <TORSDO>
F 2

$$$$
=
 OpenBabel10262420053D

 27 32  0  0  1  0  0  0  0  0999 V2000
  180.5470  177.8700  140.2480 N   0  0  0  0  0  2  0  0  0  0  0  0
  182.5550  178.5940  141.7110 C   0  0  0  0  0  0  0  0  0  0  0  0
  183.4710  178.7370  139.4040 N   0  0  0  0  0  0  0  0  0  0  0  0
  186.4110  178.2160  143.2860 C   0  0  0  0  0  3  0  0  0  0  0  0
  188.8920  178.1050  143.0240 C   0  0  0  0  0  1  0  0  0  0  0  0
  182.7820  178.4480  143.0860 C   0  0  0  0  0  3  0  0  0  0  0  0
  186.0870  178.5090  140.5190 C   0  0  0  0  0  3  0  0  0  0  0  0
  180.7910  180.2940  140.9720 C   0  0  1  0  0  3  0  0  0  0  0  0
  181.0060  178.6330  136.7120 C   0  0  0  0  0  2  0  0  0  0  0  0
  180.1500  179.5040  142.1060 C   0  0  0  0  0  2  0  0  0  0  0  0
  187.3670  178.3870  141.0660 C   0  0  0  0  0  3  0  0  0  0  0  0
  180.5200  177.2350  136.3830 C   0  0  0  0  0  2  0  0  0  0  0  0
  184.9590  178.4900  141.3520 C   0  0  0  0  0  0  0  0  0  0  0  0
  181.1500  178.8250  141.1920 C   0  0  1  0  0  0  0  0  0  0  0  0
  187.5290  178.2420  142.4480 C   0  0  0  0  0  0  0  0  0  0  0  0
  185.1290  178.3450  142.7480 C   0  0  0  0  0  0  0  0  0  0  0  0
  181.5690  177.2190  139.4270 C   0  0  1  0  0  3  0  0  0  0  0  0
  183.6610  178.5900  140.8260 C   0  0  0  0  0  0  0  0  0  0  0  0
  182.3040  178.5960  137.3730 N   0  0  0  0  0  2  0  0  0  0  0  0
  184.0460  178.3220  143.5680 N   0  0  0  0  0  0  0  0  0  0  0  0
  179.9140  176.5800  137.6090 C   0  0  0  0  0  2  0  0  0  0  0  0
  181.0020  176.1010  138.5570 C   0  0  0  0  0  2  0  0  0  0  0  0
  182.4950  178.1960  138.7330 C   0  0  0  0  0  0  0  0  0  0  0  0
  179.7820  180.4970  139.8500 C   0  0  0  0  0  2  0  0  0  0  0  0
  179.1010  182.6010  138.8090 C   0  0  0  0  0  2  0  0  0  0  0  0
  179.4030  181.6620  137.8040 O   0  0  0  0  0  0  0  0  0  0  0  0
  180.2170  181.6410  138.9550 C   0  0  2  0  0  3  0  0  0  0  0  0
  1 14  1  0  0  0  0
  2  6  1  0  0  0  0
  3 18  1  0  0  0  0
  6 20  2  0  0  0  0
  7 11  2  0  0  0  0
  7 13  1  0  0  0  0
  8 24  1  6  0  0  0
  8 14  1  0  0  0  0
  8 10  1  0  0  0  0
  9 19  1  0  0  0  0
 11 15  1  0  0  0  0
 12  9  1  0  0  0  0
 12 21  1  0  0  0  0
 13 16  2  0  0  0  0
 14  2  1  0  0  0  0
 14 10  1  1  0  0  0
 15  5  1  0  0  0  0
 15  4  2  0  0  0  0
 16  4  1  0  0  0  0
 16 20  1  0  0  0  0
 17 22  1  6  0  0  0
 17  1  1  0  0  0  0
 18 13  1  0  0  0  0
 18  2  2  0  0  0  0
 19 23  1  0  0  0  0
 21 22  1  0  0  0  0
 23  3  2  0  0  0  0
 23 17  1  0  0  0  0
 25 27  1  0  0  0  0
 26 25  1  0  0  0  0
 26 27  1  0  0  0  0
 27 24  1  1  0  0  0
M  END
>  <MODEL>
8

>  <REMARK>
 VINA RESULT:      -5.7      5.504      9.776
  Name = 
  2 active torsions:
  status: ('A' for Active; 'I' for Inactive)
    1  A    between atoms: C_9  and  C_27
    2  A    between atoms: C_25  and  C_27
                            x       y       z     vdW  Elec       q    Type
                         _______ _______ _______ _____ _____    ______ ____

>  <TORSDO>
F 2

$$$$
=
 OpenBabel10262420053D

 27 32  0  0  1  0  0  0  0  0999 V2000
  181.9730  179.2750  137.5750 N   0  0  0  0  0  2  0  0  0  0  0  0
  184.2260  178.2580  138.3360 C   0  0  0  0  0  0  0  0  0  0  0  0
  182.9880  178.5240  140.4760 N   0  0  0  0  0  0  0  0  0  0  0  0
  187.8780  178.2690  140.3760 C   0  0  0  0  0  3  0  0  0  0  0  0
  189.2220  178.3790  142.4770 C   0  0  0  0  0  1  0  0  0  0  0  0
  185.4510  178.1450  137.6640 C   0  0  0  0  0  3  0  0  0  0  0  0
  185.4970  178.4950  141.8330 C   0  0  0  0  0  3  0  0  0  0  0  0
  182.3030  176.7560  137.5660 C   0  0  1  0  0  3  0  0  0  0  0  0
  179.4080  179.1670  140.1650 C   0  0  0  0  0  2  0  0  0  0  0  0
  182.9070  177.3360  136.2930 C   0  0  0  0  0  2  0  0  0  0  0  0
  186.7280  178.4900  142.4960 C   0  0  0  0  0  3  0  0  0  0  0  0
  179.0710  180.6110  139.8440 C   0  0  0  0  0  2  0  0  0  0  0  0
  185.4480  178.3820  140.4370 C   0  0  0  0  0  0  0  0  0  0  0  0
  182.9240  178.1520  137.5690 C   0  0  1  0  0  0  0  0  0  0  0  0
  187.9160  178.3760  141.7680 C   0  0  0  0  0  0  0  0  0  0  0  0
  186.6520  178.2650  139.7060 C   0  0  0  0  0  0  0  0  0  0  0  0
  182.0700  180.0470  138.8150 C   0  0  1  0  0  3  0  0  0  0  0  0
  184.2260  178.4040  139.7450 C   0  0  0  0  0  0  0  0  0  0  0  0
  180.7230  179.0570  140.7800 N   0  0  0  0  0  2  0  0  0  0  0  0
  186.6220  178.1560  138.3520 N   0  0  0  0  0  0  0  0  0  0  0  0
  179.7470  181.0400  138.5560 C   0  0  0  0  0  2  0  0  0  0  0  0
  181.2240  181.3170  138.7870 C   0  0  0  0  0  2  0  0  0  0  0  0
  181.9540  179.1970  140.0620 C   0  0  0  0  0  0  0  0  0  0  0  0
  180.7840  176.7810  137.4750 C   0  0  0  0  0  2  0  0  0  0  0  0
  179.1290  175.6800  138.8950 C   0  0  0  0  0  2  0  0  0  0  0  0
  180.4200  175.2890  139.2990 O   0  0  0  0  0  0  0  0  0  0  0  0
  180.2110  175.4480  137.9140 C   0  0  2  0  0  3  0  0  0  0  0  0
  1 17  1  0  0  0  0
  2 18  1  0  0  0  0
  4 15  2  0  0  0  0
  6  2  2  0  0  0  0
  6 20  1  0  0  0  0
  7 11  2  0  0  0  0
  8 24  1  6  0  0  0
  8 14  1  0  0  0  0
  9 19  1  0  0  0  0
 10  8  1  0  0  0  0
 12  9  1  0  0  0  0
 13  7  1  0  0  0  0
 14 10  1  6  0  0  0
 14  1  1  0  0  0  0
 14  2  1  0  0  0  0
 15  5  1  0  0  0  0
 15 11  1  0  0  0  0
 16  4  1  0  0  0  0
 16 13  1  0  0  0  0
 17 22  1  6  0  0  0
 17 23  1  0  0  0  0
 18 13  2  0  0  0  0
 18  3  1  0  0  0  0
 20 16  2  0  0  0  0
 21 22  1  0  0  0  0
 21 12  1  0  0  0  0
 23  3  2  0  0  0  0
 23 19  1  0  0  0  0
 25 26  1  0  0  0  0
 27 24  1  1  0  0  0
 27 25  1  0  0  0  0
 27 26  1  0  0  0  0
M  END
>  <MODEL>
9

>  <REMARK>
 VINA RESULT:      -5.6      5.611     10.113
  Name = 
  2 active torsions:
  status: ('A' for Active; 'I' for Inactive)
    1  A    between atoms: C_9  and  C_27
    2  A    between atoms: C_25  and  C_27
                            x       y       z     vdW  Elec       q    Type
                         _______ _______ _______ _____ _____    ______ ____

>  <TORSDO>
F 2

$$$$
