=
 OpenBabel10262419223D

 31 33  0  0  1  0  0  0  0  0999 V2000
  189.6760  176.8910  138.3040 C   0  0  0  0  0  0  0  0  0  0  0  0
  190.8290  176.4890  137.5950 C   0  0  0  0  0  0  0  0  0  0  0  0
  191.1500  174.7170  135.9050 C   0  0  0  0  0  3  0  0  0  0  0  0
  190.7410  176.1300  136.1400 C   0  0  0  0  0  2  0  0  0  0  0  0
  192.1420  176.9430  139.5320 N   0  0  0  0  0  0  0  0  0  0  0  0
  192.3910  174.2840  136.1250 C   0  0  0  0  0  3  0  0  0  0  0  0
  189.8200  177.2990  139.6410 C   0  0  0  0  0  0  0  0  0  0  0  0
  193.4760  175.1000  136.6950 C   0  0  0  0  0  3  0  0  0  0  0  0
  191.0570  177.3250  140.2030 N   0  0  0  0  0  0  0  0  0  0  0  0
  192.0750  176.4970  138.2530 C   0  0  0  0  0  0  0  0  0  0  0  0
  193.3360  176.0630  137.6160 C   0  0  0  0  0  3  0  0  0  0  0  0
  188.6270  177.6620  140.4680 C   0  0  2  0  0  3  0  0  0  0  0  0
  188.4100  179.0410  140.4250 O   0  0  0  0  0  1  0  0  0  0  0  0
  186.6550  177.9150  142.4770 N   0  0  0  0  0  2  0  0  0  0  0  0
  188.2910  176.8610  144.1410 C   0  0  0  0  0  1  0  0  0  0  0  0
  187.9510  177.3630  142.7790 C   0  0  0  0  0  0  0  0  0  0  0  0
  188.8410  177.2350  141.8460 N   0  0  0  0  0  0  0  0  0  0  0  0
  184.7760  178.6470  145.6470 C   0  0  0  0  0  0  0  0  0  0  0  0
  183.2870  178.8800  143.7530 C   0  0  0  0  0  3  0  0  0  0  0  0
  184.9890  178.6930  146.9840 F   0  0  0  0  0  0  0  0  0  0  0  0
  185.8220  178.3120  144.7830 C   0  0  0  0  0  3  0  0  0  0  0  0
  184.3330  178.5390  142.8900 C   0  0  0  0  0  3  0  0  0  0  0  0
  185.6060  178.2480  143.3990 C   0  0  0  0  0  0  0  0  0  0  0  0
  183.5090  178.9350  145.1320 C   0  0  0  0  0  3  0  0  0  0  0  0
  188.2990  176.8980  137.6870 C   0  0  1  0  0  3  0  0  0  0  0  0
  188.1880  177.9090  136.5510 C   0  0  0  0  0  2  0  0  0  0  0  0
  187.5580  179.1330  137.0170 N   0  0  0  0  0  2  0  0  0  0  0  0
  186.4680  178.7680  137.7350 O   0  0  0  0  0  1  0  0  0  0  0  0
  187.8690  175.5000  137.2690 C   0  0  0  0  0  2  0  0  0  0  0  0
  185.3550  175.1780  136.6420 C   0  0  0  0  0  1  0  0  0  0  0  0
  186.8770  175.5890  135.7490 S   0  0  0  0  0  0  0  0  0  0  0  0
  1  7  1  0  0  0  0
  2 10  1  0  0  0  0
  2  1  2  0  0  0  0
  3  6  2  0  0  0  0
  3  4  1  0  0  0  0
  4  2  1  0  0  0  0
  5  9  1  0  0  0  0
  6  8  1  0  0  0  0
  7  9  2  0  0  0  0
  7 12  1  0  0  0  0
  8 11  2  0  0  0  0
 10  5  2  0  0  0  0
 11 10  1  0  0  0  0
 12 13  1  1  0  0  0
 12 17  1  0  0  0  0
 14 16  1  0  0  0  0
 14 23  1  0  0  0  0
 16 15  1  0  0  0  0
 17 16  2  0  0  0  0
 18 20  1  0  0  0  0
 19 24  2  0  0  0  0
 21 18  2  0  0  0  0
 22 23  2  0  0  0  0
 22 19  1  0  0  0  0
 23 21  1  0  0  0  0
 24 18  1  0  0  0  0
 25 26  1  6  0  0  0
 25  1  1  0  0  0  0
 26 27  1  0  0  0  0
 27 28  1  0  0  0  0
 29 25  1  0  0  0  0
 31 30  1  0  0  0  0
 31 29  1  0  0  0  0
M  END
>  <MODEL>
1

>  <REMARK>
 VINA RESULT:      -7.7      0.000      0.000
  Name = 
  8 active torsions:
  status: ('A' for Active; 'I' for Inactive)
    1  A    between atoms: N_2  and  C_25
    2  A    between atoms: N_3  and  C_22
    3  A    between atoms: C_4  and  C_12
    4  A    between atoms: C_12  and  C_25
    5  A    between atoms: C_12  and  C_27
    6  A    between atoms: C_15  and  C_21
    7  A    between atoms: C_15  and  N_23
    8  A    between atoms: C_27  and  S_28
                            x       y       z     vdW  Elec       q    Type
                         _______ _______ _______ _____ _____    ______ ____

>  <TORSDO>
F 8

$$$$
=
 OpenBabel10262419223D

 31 33  0  0  1  0  0  0  0  0999 V2000
  182.0750  178.0610  139.3270 C   0  0  0  0  0  0  0  0  0  0  0  0
  181.4740  176.9210  138.7480 C   0  0  0  0  0  0  0  0  0  0  0  0
  179.6680  175.4540  139.5730 C   0  0  0  0  0  3  0  0  0  0  0  0
  179.9910  176.7120  138.8430 C   0  0  0  0  0  2  0  0  0  0  0  0
  183.5920  176.3000  137.8470 N   0  0  0  0  0  0  0  0  0  0  0  0
  179.9920  174.2500  139.1020 C   0  0  0  0  0  3  0  0  0  0  0  0
  183.4530  178.2590  139.1400 C   0  0  0  0  0  0  0  0  0  0  0  0
  180.7690  174.0090  137.8740 C   0  0  0  0  0  3  0  0  0  0  0  0
  184.1610  177.3750  138.3890 N   0  0  0  0  0  0  0  0  0  0  0  0
  182.2770  176.0210  138.0200 C   0  0  0  0  0  0  0  0  0  0  0  0
  181.7570  174.7810  137.4040 C   0  0  0  0  0  3  0  0  0  0  0  0
  184.1620  179.4050  139.7910 C   0  0  2  0  0  3  0  0  0  0  0  0
  184.0810  180.5440  138.9890 O   0  0  0  0  0  1  0  0  0  0  0  0
  185.1710  178.6540  142.3230 N   0  0  0  0  0  2  0  0  0  0  0  0
  187.4800  178.3600  141.2560 C   0  0  0  0  0  1  0  0  0  0  0  0
  186.0360  178.7230  141.1730 C   0  0  0  0  0  0  0  0  0  0  0  0
  185.5590  179.0510  140.0140 N   0  0  0  0  0  0  0  0  0  0  0  0
  187.0540  177.5790  145.3910 C   0  0  0  0  0  0  0  0  0  0  0  0
  185.0500  178.7680  146.0480 C   0  0  0  0  0  3  0  0  0  0  0  0
  188.1840  176.9110  145.7260 F   0  0  0  0  0  0  0  0  0  0  0  0
  186.7220  177.7620  144.0460 C   0  0  0  0  0  3  0  0  0  0  0  0
  184.7160  178.9450  144.7020 C   0  0  0  0  0  3  0  0  0  0  0  0
  185.5450  178.4390  143.6920 C   0  0  0  0  0  0  0  0  0  0  0  0
  186.2210  178.0860  146.3920 C   0  0  0  0  0  3  0  0  0  0  0  0
  181.3000  179.0710  140.1370 C   0  0  1  0  0  3  0  0  0  0  0  0
  180.3180  179.8590  139.2780 C   0  0  0  0  0  2  0  0  0  0  0  0
  180.4000  181.2790  139.5820 N   0  0  0  0  0  2  0  0  0  0  0  0
  181.0250  181.8710  138.5360 O   0  0  0  0  0  1  0  0  0  0  0  0
  180.6310  178.4230  141.3410 C   0  0  0  0  0  2  0  0  0  0  0  0
  180.0330  178.3850  143.8820 C   0  0  0  0  0  1  0  0  0  0  0  0
  181.3870  179.0420  142.8720 S   0  0  0  0  0  0  0  0  0  0  0  0
  1 25  1  0  0  0  0
  2  4  1  0  0  0  0
  2  1  2  0  0  0  0
  4  3  1  0  0  0  0
  5 10  2  0  0  0  0
  5  9  1  0  0  0  0
  6  3  2  0  0  0  0
  7  1  1  0  0  0  0
  7 12  1  0  0  0  0
  8  6  1  0  0  0  0
  9  7  2  0  0  0  0
 10  2  1  0  0  0  0
 11  8  2  0  0  0  0
 11 10  1  0  0  0  0
 12 13  1  6  0  0  0
 12 17  1  0  0  0  0
 14 23  1  0  0  0  0
 16 15  1  0  0  0  0
 16 14  1  0  0  0  0
 17 16  2  0  0  0  0
 18 20  1  0  0  0  0
 18 24  1  0  0  0  0
 19 24  2  0  0  0  0
 21 18  2  0  0  0  0
 22 19  1  0  0  0  0
 23 21  1  0  0  0  0
 23 22  2  0  0  0  0
 25 26  1  6  0  0  0
 25 29  1  0  0  0  0
 26 27  1  0  0  0  0
 28 27  1  0  0  0  0
 29 31  1  0  0  0  0
 31 30  1  0  0  0  0
M  END
>  <MODEL>
2

>  <REMARK>
 VINA RESULT:      -7.2      4.809      7.563
  Name = 
  8 active torsions:
  status: ('A' for Active; 'I' for Inactive)
    1  A    between atoms: N_2  and  C_25
    2  A    between atoms: N_3  and  C_22
    3  A    between atoms: C_4  and  C_12
    4  A    between atoms: C_12  and  C_25
    5  A    between atoms: C_12  and  C_27
    6  A    between atoms: C_15  and  C_21
    7  A    between atoms: C_15  and  N_23
    8  A    between atoms: C_27  and  S_28
                            x       y       z     vdW  Elec       q    Type
                         _______ _______ _______ _____ _____    ______ ____

>  <TORSDO>
F 8

$$$$
=
 OpenBabel10262419223D

 31 33  0  0  1  0  0  0  0  0999 V2000
  186.6470  178.1060  143.6870 C   0  0  0  0  0  0  0  0  0  0  0  0
  187.1530  178.2350  145.0000 C   0  0  0  0  0  0  0  0  0  0  0  0
  188.6870  176.7920  146.2880 C   0  0  0  0  0  3  0  0  0  0  0  0
  188.5850  177.9020  145.3000 C   0  0  0  0  0  2  0  0  0  0  0  0
  185.0620  179.1560  145.6820 N   0  0  0  0  0  0  0  0  0  0  0  0
  188.2600  176.9110  147.5460 C   0  0  0  0  0  3  0  0  0  0  0  0
  185.3250  178.5110  143.4360 C   0  0  0  0  0  0  0  0  0  0  0  0
  187.5710  178.0930  148.0900 C   0  0  0  0  0  3  0  0  0  0  0  0
  184.5830  179.0380  144.4450 N   0  0  0  0  0  0  0  0  0  0  0  0
  186.3130  178.7490  146.0090 C   0  0  0  0  0  0  0  0  0  0  0  0
  186.7290  178.8920  147.4200 C   0  0  0  0  0  3  0  0  0  0  0  0
  184.7070  178.3280  142.0850 C   0  0  2  0  0  3  0  0  0  0  0  0
  185.0630  179.3830  141.2430 O   0  0  0  0  0  1  0  0  0  0  0  0
  182.9460  178.8420  139.9350 N   0  0  0  0  0  2  0  0  0  0  0  0
  180.9790  178.3900  141.5090 C   0  0  0  0  0  1  0  0  0  0  0  0
  182.4400  178.5160  141.2430 C   0  0  0  0  0  0  0  0  0  0  0  0
  183.2570  178.2640  142.2170 N   0  0  0  0  0  0  0  0  0  0  0  0
  181.1300  180.9960  137.4490 C   0  0  0  0  0  0  0  0  0  0  0  0
  181.1160  178.6970  136.6900 C   0  0  0  0  0  3  0  0  0  0  0  0
  180.7840  182.2930  137.2680 F   0  0  0  0  0  0  0  0  0  0  0  0
  181.8520  180.6160  138.5850 C   0  0  0  0  0  3  0  0  0  0  0  0
  181.8320  178.3180  137.8290 C   0  0  0  0  0  3  0  0  0  0  0  0
  182.2010  179.2720  138.7860 C   0  0  0  0  0  0  0  0  0  0  0  0
  180.7660  180.0380  136.5000 C   0  0  0  0  0  3  0  0  0  0  0  0
  187.4660  177.5520  142.5470 C   0  0  1  0  0  3  0  0  0  0  0  0
  188.2160  178.6480  141.7980 C   0  0  0  0  0  2  0  0  0  0  0  0
  187.8040  178.6870  140.4040 N   0  0  0  0  0  2  0  0  0  0  0  0
  188.9160  178.9330  139.6710 O   0  0  0  0  0  1  0  0  0  0  0  0
  188.3840  176.4320  143.0150 C   0  0  0  0  0  2  0  0  0  0  0  0
  190.8740  175.7800  143.4470 C   0  0  0  0  0  1  0  0  0  0  0  0
  189.9290  176.4630  142.0610 S   0  0  0  0  0  0  0  0  0  0  0  0
  1  2  1  0  0  0  0
  2  4  1  0  0  0  0
  2 10  2  0  0  0  0
  3  6  2  0  0  0  0
  4  3  1  0  0  0  0
  5 10  1  0  0  0  0
  6  8  1  0  0  0  0
  7  1  2  0  0  0  0
  7  9  1  0  0  0  0
  9  5  2  0  0  0  0
 10 11  1  0  0  0  0
 11  8  2  0  0  0  0
 12 13  1  6  0  0  0
 12 17  1  0  0  0  0
 12  7  1  0  0  0  0
 14 16  1  0  0  0  0
 16 15  1  0  0  0  0
 16 17  2  0  0  0  0
 18 21  1  0  0  0  0
 19 22  2  0  0  0  0
 20 18  1  0  0  0  0
 21 23  2  0  0  0  0
 22 23  1  0  0  0  0
 23 14  1  0  0  0  0
 24 19  1  0  0  0  0
 24 18  2  0  0  0  0
 25 26  1  1  0  0  0
 25 29  1  0  0  0  0
 25  1  1  0  0  0  0
 27 26  1  0  0  0  0
 28 27  1  0  0  0  0
 31 29  1  0  0  0  0
 31 30  1  0  0  0  0
M  END
>  <MODEL>
3

>  <REMARK>
 VINA RESULT:      -7.0      4.770      7.987
  Name = 
  8 active torsions:
  status: ('A' for Active; 'I' for Inactive)
    1  A    between atoms: N_2  and  C_25
    2  A    between atoms: N_3  and  C_22
    3  A    between atoms: C_4  and  C_12
    4  A    between atoms: C_12  and  C_25
    5  A    between atoms: C_12  and  C_27
    6  A    between atoms: C_15  and  C_21
    7  A    between atoms: C_15  and  N_23
    8  A    between atoms: C_27  and  S_28
                            x       y       z     vdW  Elec       q    Type
                         _______ _______ _______ _____ _____    ______ ____

>  <TORSDO>
F 8

$$$$
=
 OpenBabel10262419223D

 31 33  0  0  1  0  0  0  0  0999 V2000
  183.3670  177.2830  138.0900 C   0  0  0  0  0  0  0  0  0  0  0  0
  183.3340  176.3450  137.0350 C   0  0  0  0  0  0  0  0  0  0  0  0
  182.1570  174.1830  136.8320 C   0  0  0  0  0  3  0  0  0  0  0  0
  182.0500  175.6600  136.6650 C   0  0  0  0  0  2  0  0  0  0  0  0
  185.6190  176.8360  136.5670 N   0  0  0  0  0  0  0  0  0  0  0  0
  182.9800  173.4370  136.0960 C   0  0  0  0  0  3  0  0  0  0  0  0
  184.5700  177.9620  138.3450 C   0  0  0  0  0  0  0  0  0  0  0  0
  183.9330  173.9660  135.1060 C   0  0  0  0  0  3  0  0  0  0  0  0
  185.6530  177.7240  137.5600 N   0  0  0  0  0  0  0  0  0  0  0  0
  184.5070  176.1130  136.2890 C   0  0  0  0  0  0  0  0  0  0  0  0
  184.5910  175.1290  135.1890 C   0  0  0  0  0  3  0  0  0  0  0  0
  184.6900  178.9100  139.4970 C   0  0  2  0  0  3  0  0  0  0  0  0
  184.3620  180.2060  139.0930 O   0  0  0  0  0  1  0  0  0  0  0  0
  185.2890  178.4400  142.2190 N   0  0  0  0  0  2  0  0  0  0  0  0
  187.7770  178.6520  141.6520 C   0  0  0  0  0  1  0  0  0  0  0  0
  186.3380  178.6830  141.2630 C   0  0  0  0  0  0  0  0  0  0  0  0
  186.0530  178.8800  140.0140 N   0  0  0  0  0  0  0  0  0  0  0  0
  186.5980  177.6530  145.6510 C   0  0  0  0  0  0  0  0  0  0  0  0
  184.4750  178.8020  145.8400 C   0  0  0  0  0  3  0  0  0  0  0  0
  187.6640  177.0550  146.2360 F   0  0  0  0  0  0  0  0  0  0  0  0
  186.5160  177.7300  144.2580 C   0  0  0  0  0  3  0  0  0  0  0  0
  184.3920  178.8730  144.4460 C   0  0  0  0  0  3  0  0  0  0  0  0
  185.4080  178.3340  143.6450 C   0  0  0  0  0  0  0  0  0  0  0  0
  185.5800  178.1920  146.4420 C   0  0  0  0  0  3  0  0  0  0  0  0
  182.1660  177.5840  138.9530 C   0  0  1  0  0  3  0  0  0  0  0  0
  181.0060  178.1470  138.1410 C   0  0  0  0  0  2  0  0  0  0  0  0
  181.3760  179.4150  137.5330 N   0  0  0  0  0  2  0  0  0  0  0  0
  180.7990  180.3910  138.2740 O   0  0  0  0  0  1  0  0  0  0  0  0
  181.7630  176.3760  139.7860 C   0  0  0  0  0  2  0  0  0  0  0  0
  179.8470  174.6030  139.7910 C   0  0  0  0  0  1  0  0  0  0  0  0
  179.9670  176.3900  140.0630 S   0  0  0  0  0  0  0  0  0  0  0  0
  1  7  1  0  0  0  0
  1 25  1  0  0  0  0
  2  1  2  0  0  0  0
  4  3  1  0  0  0  0
  4  2  1  0  0  0  0
  5  9  1  0  0  0  0
  6  3  2  0  0  0  0
  7 12  1  0  0  0  0
  8 11  2  0  0  0  0
  8  6  1  0  0  0  0
  9  7  2  0  0  0  0
 10  5  2  0  0  0  0
 10  2  1  0  0  0  0
 11 10  1  0  0  0  0
 12 13  1  6  0  0  0
 12 17  1  0  0  0  0
 14 23  1  0  0  0  0
 16 15  1  0  0  0  0
 16 14  1  0  0  0  0
 17 16  2  0  0  0  0
 18 20  1  0  0  0  0
 18 24  1  0  0  0  0
 19 24  2  0  0  0  0
 21 18  2  0  0  0  0
 22 19  1  0  0  0  0
 23 21  1  0  0  0  0
 23 22  2  0  0  0  0
 25 26  1  6  0  0  0
 25 29  1  0  0  0  0
 27 26  1  0  0  0  0
 27 28  1  0  0  0  0
 29 31  1  0  0  0  0
 30 31  1  0  0  0  0
M  END
>  <MODEL>
4

>  <REMARK>
 VINA RESULT:      -6.9      4.471      6.013
  Name = 
  8 active torsions:
  status: ('A' for Active; 'I' for Inactive)
    1  A    between atoms: N_2  and  C_25
    2  A    between atoms: N_3  and  C_22
    3  A    between atoms: C_4  and  C_12
    4  A    between atoms: C_12  and  C_25
    5  A    between atoms: C_12  and  C_27
    6  A    between atoms: C_15  and  C_21
    7  A    between atoms: C_15  and  N_23
    8  A    between atoms: C_27  and  S_28
                            x       y       z     vdW  Elec       q    Type
                         _______ _______ _______ _____ _____    ______ ____

>  <TORSDO>
F 8

$$$$
=
 OpenBabel10262419223D

 31 33  0  0  1  0  0  0  0  0999 V2000
  186.7820  178.0920  143.8770 C   0  0  0  0  0  0  0  0  0  0  0  0
  187.2830  178.2000  145.1930 C   0  0  0  0  0  0  0  0  0  0  0  0
  188.8440  176.7590  146.4510 C   0  0  0  0  0  3  0  0  0  0  0  0
  188.7210  177.8900  145.4890 C   0  0  0  0  0  2  0  0  0  0  0  0
  185.1710  179.0590  145.8920 N   0  0  0  0  0  0  0  0  0  0  0  0
  188.4130  176.8390  147.7100 C   0  0  0  0  0  3  0  0  0  0  0  0
  185.4530  178.4740  143.6320 C   0  0  0  0  0  0  0  0  0  0  0  0
  187.6970  177.9930  148.2800 C   0  0  0  0  0  3  0  0  0  0  0  0
  184.6980  178.9610  144.6510 N   0  0  0  0  0  0  0  0  0  0  0  0
  186.4300  178.6710  146.2120 C   0  0  0  0  0  0  0  0  0  0  0  0
  186.8400  178.7890  147.6270 C   0  0  0  0  0  3  0  0  0  0  0  0
  184.8420  178.3100  142.2750 C   0  0  2  0  0  3  0  0  0  0  0  0
  185.2090  179.3720  141.4470 O   0  0  0  0  0  1  0  0  0  0  0  0
  183.0990  178.7640  140.0970 N   0  0  0  0  0  2  0  0  0  0  0  0
  181.1180  178.3650  141.6690 C   0  0  0  0  0  1  0  0  0  0  0  0
  182.5810  178.4790  141.4100 C   0  0  0  0  0  0  0  0  0  0  0  0
  183.3900  178.2540  142.3980 N   0  0  0  0  0  0  0  0  0  0  0  0
  181.3250  178.6840  136.7860 C   0  0  0  0  0  0  0  0  0  0  0  0
  181.1960  180.9150  137.7190 C   0  0  0  0  0  3  0  0  0  0  0  0
  181.0390  177.8110  135.7900 F   0  0  0  0  0  0  0  0  0  0  0  0
  182.0500  178.2590  137.9030 C   0  0  0  0  0  3  0  0  0  0  0  0
  181.9260  180.4890  138.8320 C   0  0  0  0  0  3  0  0  0  0  0  0
  182.3630  179.1610  138.9310 C   0  0  0  0  0  0  0  0  0  0  0  0
  180.8950  180.0100  136.6950 C   0  0  0  0  0  3  0  0  0  0  0  0
  187.6160  177.5820  142.7260 C   0  0  1  0  0  3  0  0  0  0  0  0
  188.4630  178.6860  142.1030 C   0  0  0  0  0  2  0  0  0  0  0  0
  187.9890  179.0000  140.7650 N   0  0  0  0  0  2  0  0  0  0  0  0
  188.3450  177.9630  139.9670 O   0  0  0  0  0  1  0  0  0  0  0  0
  188.4410  176.3700  143.1310 C   0  0  0  0  0  2  0  0  0  0  0  0
  190.8930  175.6290  143.6340 C   0  0  0  0  0  1  0  0  0  0  0  0
  190.0200  176.3730  142.2320 S   0  0  0  0  0  0  0  0  0  0  0  0
  1  2  1  0  0  0  0
  2  4  1  0  0  0  0
  2 10  2  0  0  0  0
  3  6  2  0  0  0  0
  4  3  1  0  0  0  0
  5 10  1  0  0  0  0
  6  8  1  0  0  0  0
  7  1  2  0  0  0  0
  7  9  1  0  0  0  0
  9  5  2  0  0  0  0
 10 11  1  0  0  0  0
 11  8  2  0  0  0  0
 12 13  1  6  0  0  0
 12 17  1  0  0  0  0
 12  7  1  0  0  0  0
 14 16  1  0  0  0  0
 16 15  1  0  0  0  0
 16 17  2  0  0  0  0
 18 21  1  0  0  0  0
 19 22  2  0  0  0  0
 20 18  1  0  0  0  0
 21 23  2  0  0  0  0
 22 23  1  0  0  0  0
 23 14  1  0  0  0  0
 24 18  2  0  0  0  0
 24 19  1  0  0  0  0
 25 26  1  1  0  0  0
 25 29  1  0  0  0  0
 25  1  1  0  0  0  0
 27 26  1  0  0  0  0
 28 27  1  0  0  0  0
 31 29  1  0  0  0  0
 31 30  1  0  0  0  0
M  END
>  <MODEL>
5

>  <REMARK>
 VINA RESULT:      -6.8      4.931      8.032
  Name = 
  8 active torsions:
  status: ('A' for Active; 'I' for Inactive)
    1  A    between atoms: N_2  and  C_25
    2  A    between atoms: N_3  and  C_22
    3  A    between atoms: C_4  and  C_12
    4  A    between atoms: C_12  and  C_25
    5  A    between atoms: C_12  and  C_27
    6  A    between atoms: C_15  and  C_21
    7  A    between atoms: C_15  and  N_23
    8  A    between atoms: C_27  and  S_28
                            x       y       z     vdW  Elec       q    Type
                         _______ _______ _______ _____ _____    ______ ____

>  <TORSDO>
F 8

$$$$
=
 OpenBabel10262419223D

 31 33  0  0  1  0  0  0  0  0999 V2000
  189.3730  177.6620  139.6040 C   0  0  0  0  0  0  0  0  0  0  0  0
  189.1740  177.6320  141.0010 C   0  0  0  0  0  0  0  0  0  0  0  0
  189.8820  175.9850  142.6990 C   0  0  0  0  0  3  0  0  0  0  0  0
  190.2770  177.1910  141.9190 C   0  0  0  0  0  2  0  0  0  0  0  0
  187.0160  178.5970  140.6840 N   0  0  0  0  0  0  0  0  0  0  0  0
  188.8970  176.0030  143.5960 C   0  0  0  0  0  3  0  0  0  0  0  0
  188.3420  178.1620  138.7910 C   0  0  0  0  0  0  0  0  0  0  0  0
  188.0300  177.1630  143.8670 C   0  0  0  0  0  3  0  0  0  0  0  0
  187.2030  178.6280  139.3650 N   0  0  0  0  0  0  0  0  0  0  0  0
  187.9490  178.0890  141.5270 C   0  0  0  0  0  0  0  0  0  0  0  0
  187.6230  178.0690  142.9690 C   0  0  0  0  0  3  0  0  0  0  0  0
  188.4630  178.1490  137.2990 C   0  0  2  0  0  3  0  0  0  0  0  0
  189.1330  179.2900  136.8560 O   0  0  0  0  0  1  0  0  0  0  0  0
  187.1100  175.7180  136.7990 N   0  0  0  0  0  2  0  0  0  0  0  0
  185.1450  177.0660  135.8640 C   0  0  0  0  0  1  0  0  0  0  0  0
  186.5120  176.9810  136.4530 C   0  0  0  0  0  0  0  0  0  0  0  0
  187.1330  178.0900  136.7030 N   0  0  0  0  0  0  0  0  0  0  0  0
  185.1660  172.5030  136.8710 C   0  0  0  0  0  0  0  0  0  0  0  0
  186.7430  172.4540  135.0340 C   0  0  0  0  0  3  0  0  0  0  0  0
  184.1900  171.9050  137.5950 F   0  0  0  0  0  0  0  0  0  0  0  0
  185.6100  173.7830  137.2170 C   0  0  0  0  0  3  0  0  0  0  0  0
  187.1900  173.7310  135.3850 C   0  0  0  0  0  3  0  0  0  0  0  0
  186.6310  174.4020  136.4810 C   0  0  0  0  0  0  0  0  0  0  0  0
  185.7300  171.8400  135.7770 C   0  0  0  0  0  3  0  0  0  0  0  0
  190.6440  177.1780  138.9490 C   0  0  1  0  0  3  0  0  0  0  0  0
  191.8760  177.5030  139.7860 C   0  0  0  0  0  2  0  0  0  0  0  0
  193.0820  177.0360  139.1220 N   0  0  0  0  0  2  0  0  0  0  0  0
  194.0850  177.1060  140.0310 O   0  0  0  0  0  1  0  0  0  0  0  0
  190.5570  175.7020  138.5880 C   0  0  0  0  0  2  0  0  0  0  0  0
  192.0190  174.1180  137.1170 C   0  0  0  0  0  1  0  0  0  0  0  0
  190.8700  175.4840  136.8120 S   0  0  0  0  0  0  0  0  0  0  0  0
  1  2  1  0  0  0  0
  2 10  2  0  0  0  0
  2  4  1  0  0  0  0
  3  6  2  0  0  0  0
  4  3  1  0  0  0  0
  5 10  1  0  0  0  0
  6  8  1  0  0  0  0
  7  9  1  0  0  0  0
  7  1  2  0  0  0  0
  9  5  2  0  0  0  0
 10 11  1  0  0  0  0
 11  8  2  0  0  0  0
 12 13  1  6  0  0  0
 12  7  1  0  0  0  0
 15 16  1  0  0  0  0
 16 17  2  0  0  0  0
 16 14  1  0  0  0  0
 17 12  1  0  0  0  0
 18 21  1  0  0  0  0
 18 20  1  0  0  0  0
 19 22  2  0  0  0  0
 19 24  1  0  0  0  0
 22 23  1  0  0  0  0
 23 14  1  0  0  0  0
 23 21  2  0  0  0  0
 24 18  2  0  0  0  0
 25 29  1  1  0  0  0
 25  1  1  0  0  0  0
 25 26  1  0  0  0  0
 27 26  1  0  0  0  0
 27 28  1  0  0  0  0
 31 30  1  0  0  0  0
 31 29  1  0  0  0  0
M  END
>  <MODEL>
6

>  <REMARK>
 VINA RESULT:      -6.7      3.144      7.131
  Name = 
  8 active torsions:
  status: ('A' for Active; 'I' for Inactive)
    1  A    between atoms: N_2  and  C_25
    2  A    between atoms: N_3  and  C_22
    3  A    between atoms: C_4  and  C_12
    4  A    between atoms: C_12  and  C_25
    5  A    between atoms: C_12  and  C_27
    6  A    between atoms: C_15  and  C_21
    7  A    between atoms: C_15  and  N_23
    8  A    between atoms: C_27  and  S_28
                            x       y       z     vdW  Elec       q    Type
                         _______ _______ _______ _____ _____    ______ ____

>  <TORSDO>
F 8

$$$$
=
 OpenBabel10262419223D

 31 33  0  0  1  0  0  0  0  0999 V2000
  187.2950  178.2400  140.1130 C   0  0  0  0  0  0  0  0  0  0  0  0
  188.1620  178.0120  141.2050 C   0  0  0  0  0  0  0  0  0  0  0  0
  189.9890  176.3790  141.5030 C   0  0  0  0  0  3  0  0  0  0  0  0
  189.6160  177.7210  140.9750 C   0  0  0  0  0  2  0  0  0  0  0  0
  186.3680  178.5150  142.6930 N   0  0  0  0  0  0  0  0  0  0  0  0
  189.9470  176.0820  142.8020 C   0  0  0  0  0  3  0  0  0  0  0  0
  185.9620  178.5930  140.3780 C   0  0  0  0  0  0  0  0  0  0  0  0
  189.4570  176.9880  143.8540 C   0  0  0  0  0  3  0  0  0  0  0  0
  185.5500  178.7330  141.6650 N   0  0  0  0  0  0  0  0  0  0  0  0
  187.6560  178.1310  142.5150 C   0  0  0  0  0  0  0  0  0  0  0  0
  188.4650  177.8800  143.7260 C   0  0  0  0  0  3  0  0  0  0  0  0
  184.9770  178.7730  139.2650 C   0  0  2  0  0  3  0  0  0  0  0  0
  184.7100  180.1290  139.0690 O   0  0  0  0  0  1  0  0  0  0  0  0
  184.2270  176.3500  138.0160 N   0  0  0  0  0  2  0  0  0  0  0  0
  182.1070  176.3300  139.4500 C   0  0  0  0  0  1  0  0  0  0  0  0
  183.3810  176.9630  139.0070 C   0  0  0  0  0  0  0  0  0  0  0  0
  183.7440  178.0640  139.5870 N   0  0  0  0  0  0  0  0  0  0  0  0
  183.8970  172.8250  136.7600 C   0  0  0  0  0  0  0  0  0  0  0  0
  183.0050  174.3570  135.1110 C   0  0  0  0  0  3  0  0  0  0  0  0
  184.1810  171.5600  137.1530 F   0  0  0  0  0  0  0  0  0  0  0  0
  184.2080  173.9030  137.5940 C   0  0  0  0  0  3  0  0  0  0  0  0
  183.3230  175.4350  135.9440 C   0  0  0  0  0  3  0  0  0  0  0  0
  183.9300  175.2160  137.1870 C   0  0  0  0  0  0  0  0  0  0  0  0
  183.2920  173.0510  135.5210 C   0  0  0  0  0  3  0  0  0  0  0  0
  187.7430  178.1200  138.6760 C   0  0  1  0  0  3  0  0  0  0  0  0
  189.0130  178.9180  138.4060 C   0  0  0  0  0  2  0  0  0  0  0  0
  188.8500  179.7530  137.2260 N   0  0  0  0  0  2  0  0  0  0  0  0
  187.5540  179.6460  136.8440 O   0  0  0  0  0  1  0  0  0  0  0  0
  187.8680  176.6640  138.2530 C   0  0  0  0  0  2  0  0  0  0  0  0
  188.6830  176.2530  135.8070 C   0  0  0  0  0  1  0  0  0  0  0  0
  189.4670  176.3960  137.4330 S   0  0  0  0  0  0  0  0  0  0  0  0
  1  7  2  0  0  0  0
  1  2  1  0  0  0  0
  2 10  2  0  0  0  0
  3  6  2  0  0  0  0
  4  2  1  0  0  0  0
  4  3  1  0  0  0  0
  6  8  1  0  0  0  0
  7  9  1  0  0  0  0
  9  5  2  0  0  0  0
 10  5  1  0  0  0  0
 10 11  1  0  0  0  0
 11  8  2  0  0  0  0
 12 13  1  1  0  0  0
 12 17  1  0  0  0  0
 12  7  1  0  0  0  0
 14 16  1  0  0  0  0
 16 15  1  0  0  0  0
 16 17  2  0  0  0  0
 18 20  1  0  0  0  0
 18 21  1  0  0  0  0
 19 24  1  0  0  0  0
 19 22  2  0  0  0  0
 22 23  1  0  0  0  0
 23 21  2  0  0  0  0
 23 14  1  0  0  0  0
 24 18  2  0  0  0  0
 25 29  1  1  0  0  0
 25  1  1  0  0  0  0
 26 25  1  0  0  0  0
 27 26  1  0  0  0  0
 28 27  1  0  0  0  0
 30 31  1  0  0  0  0
 31 29  1  0  0  0  0
M  END
>  <MODEL>
7

>  <REMARK>
 VINA RESULT:      -6.7      3.740      6.517
  Name = 
  8 active torsions:
  status: ('A' for Active; 'I' for Inactive)
    1  A    between atoms: N_2  and  C_25
    2  A    between atoms: N_3  and  C_22
    3  A    between atoms: C_4  and  C_12
    4  A    between atoms: C_12  and  C_25
    5  A    between atoms: C_12  and  C_27
    6  A    between atoms: C_15  and  C_21
    7  A    between atoms: C_15  and  N_23
    8  A    between atoms: C_27  and  S_28
                            x       y       z     vdW  Elec       q    Type
                         _______ _______ _______ _____ _____    ______ ____

>  <TORSDO>
F 8

$$$$
=
 OpenBabel10262419223D

 31 33  0  0  1  0  0  0  0  0999 V2000
  187.4550  178.2280  140.1580 C   0  0  0  0  0  0  0  0  0  0  0  0
  188.2600  177.9990  141.2960 C   0  0  0  0  0  0  0  0  0  0  0  0
  190.0580  176.3570  141.6980 C   0  0  0  0  0  3  0  0  0  0  0  0
  189.7230  177.6990  141.1460 C   0  0  0  0  0  2  0  0  0  0  0  0
  186.3920  178.5200  142.6840 N   0  0  0  0  0  0  0  0  0  0  0  0
  189.9450  176.0670  142.9940 C   0  0  0  0  0  3  0  0  0  0  0  0
  186.1110  178.5900  140.3500 C   0  0  0  0  0  0  0  0  0  0  0  0
  189.4050  176.9800  144.0150 C   0  0  0  0  0  3  0  0  0  0  0  0
  185.6320  178.7390  141.6120 N   0  0  0  0  0  0  0  0  0  0  0  0
  187.6850  178.1280  142.5760 C   0  0  0  0  0  0  0  0  0  0  0  0
  188.4270  177.8770  143.8300 C   0  0  0  0  0  3  0  0  0  0  0  0
  185.1880  178.7710  139.1850 C   0  0  2  0  0  3  0  0  0  0  0  0
  184.4820  179.9690  139.3080 O   0  0  0  0  0  1  0  0  0  0  0  0
  182.6050  178.8520  140.3300 N   0  0  0  0  0  2  0  0  0  0  0  0
  182.2200  176.4610  139.4980 C   0  0  0  0  0  1  0  0  0  0  0  0
  183.0790  177.6690  139.6590 C   0  0  0  0  0  0  0  0  0  0  0  0
  184.2590  177.6490  139.1220 N   0  0  0  0  0  0  0  0  0  0  0  0
  180.1080  178.8010  143.1370 C   0  0  0  0  0  0  0  0  0  0  0  0
  179.0850  179.7580  141.1610 C   0  0  0  0  0  3  0  0  0  0  0  0
  180.0220  178.4180  144.4330 F   0  0  0  0  0  0  0  0  0  0  0  0
  181.3030  178.6270  142.4330 C   0  0  0  0  0  3  0  0  0  0  0  0
  180.2800  179.5780  140.4570 C   0  0  0  0  0  3  0  0  0  0  0  0
  181.3950  179.0070  141.0850 C   0  0  0  0  0  0  0  0  0  0  0  0
  179.0000  179.3700  142.5020 C   0  0  0  0  0  3  0  0  0  0  0  0
  187.9780  178.0980  138.7480 C   0  0  1  0  0  3  0  0  0  0  0  0
  189.1790  179.0030  138.5000 C   0  0  0  0  0  2  0  0  0  0  0  0
  189.0550  179.6760  137.2170 N   0  0  0  0  0  2  0  0  0  0  0  0
  187.7400  179.6630  136.8910 O   0  0  0  0  0  1  0  0  0  0  0  0
  188.2580  176.6460  138.3900 C   0  0  0  0  0  2  0  0  0  0  0  0
  188.5060  176.3360  135.8100 C   0  0  0  0  0  1  0  0  0  0  0  0
  187.1770  176.1300  137.0240 S   0  0  0  0  0  0  0  0  0  0  0  0
  1  7  2  0  0  0  0
  1  2  1  0  0  0  0
  2 10  2  0  0  0  0
  3  6  2  0  0  0  0
  4  2  1  0  0  0  0
  4  3  1  0  0  0  0
  6  8  1  0  0  0  0
  7  9  1  0  0  0  0
  9  5  2  0  0  0  0
 10  5  1  0  0  0  0
 10 11  1  0  0  0  0
 11  8  2  0  0  0  0
 12 13  1  1  0  0  0
 12  7  1  0  0  0  0
 14 23  1  0  0  0  0
 15 16  1  0  0  0  0
 16 14  1  0  0  0  0
 17 12  1  0  0  0  0
 17 16  2  0  0  0  0
 18 20  1  0  0  0  0
 19 24  2  0  0  0  0
 21 18  2  0  0  0  0
 22 23  2  0  0  0  0
 22 19  1  0  0  0  0
 23 21  1  0  0  0  0
 24 18  1  0  0  0  0
 25 29  1  1  0  0  0
 25  1  1  0  0  0  0
 26 25  1  0  0  0  0
 27 26  1  0  0  0  0
 28 27  1  0  0  0  0
 30 31  1  0  0  0  0
 31 29  1  0  0  0  0
M  END
>  <MODEL>
8

>  <REMARK>
 VINA RESULT:      -6.5      3.084      5.147
  Name = 
  8 active torsions:
  status: ('A' for Active; 'I' for Inactive)
    1  A    between atoms: N_2  and  C_25
    2  A    between atoms: N_3  and  C_22
    3  A    between atoms: C_4  and  C_12
    4  A    between atoms: C_12  and  C_25
    5  A    between atoms: C_12  and  C_27
    6  A    between atoms: C_15  and  C_21
    7  A    between atoms: C_15  and  N_23
    8  A    between atoms: C_27  and  S_28
                            x       y       z     vdW  Elec       q    Type
                         _______ _______ _______ _____ _____    ______ ____

>  <TORSDO>
F 8

$$$$
=
 OpenBabel10262419223D

 31 33  0  0  1  0  0  0  0  0999 V2000
  182.0920  178.0170  138.9800 C   0  0  0  0  0  0  0  0  0  0  0  0
  181.6130  176.9000  138.2600 C   0  0  0  0  0  0  0  0  0  0  0  0
  179.9250  175.1990  138.8550 C   0  0  0  0  0  3  0  0  0  0  0  0
  180.1520  176.5530  138.2770 C   0  0  0  0  0  2  0  0  0  0  0  0
  183.8030  176.5690  137.3760 N   0  0  0  0  0  0  0  0  0  0  0  0
  180.3700  174.0870  138.2700 C   0  0  0  0  0  3  0  0  0  0  0  0
  183.4510  178.3540  138.8660 C   0  0  0  0  0  0  0  0  0  0  0  0
  181.1990  174.0510  137.0540 C   0  0  0  0  0  3  0  0  0  0  0  0
  184.2560  177.6230  138.0520 N   0  0  0  0  0  0  0  0  0  0  0  0
  182.5140  176.1590  137.4700 C   0  0  0  0  0  0  0  0  0  0  0  0
  182.1260  174.9540  136.7060 C   0  0  0  0  0  3  0  0  0  0  0  0
  184.0340  179.4790  139.6620 C   0  0  2  0  0  3  0  0  0  0  0  0
  183.9690  180.6710  138.9380 O   0  0  0  0  0  1  0  0  0  0  0  0
  184.8640  178.7310  142.2590 N   0  0  0  0  0  2  0  0  0  0  0  0
  187.2600  178.5370  141.3790 C   0  0  0  0  0  1  0  0  0  0  0  0
  185.8150  178.8480  141.1840 C   0  0  0  0  0  0  0  0  0  0  0  0
  185.4210  179.1740  139.9930 N   0  0  0  0  0  0  0  0  0  0  0  0
  186.5530  177.7250  145.4610 C   0  0  0  0  0  0  0  0  0  0  0  0
  184.4150  178.7450  145.9600 C   0  0  0  0  0  3  0  0  0  0  0  0
  187.6970  177.1350  145.8810 F   0  0  0  0  0  0  0  0  0  0  0  0
  186.3240  177.9150  144.0950 C   0  0  0  0  0  3  0  0  0  0  0  0
  184.1850  178.9290  144.5940 C   0  0  0  0  0  3  0  0  0  0  0  0
  185.1340  178.5110  143.6510 C   0  0  0  0  0  0  0  0  0  0  0  0
  185.6000  178.1430  146.3940 C   0  0  0  0  0  3  0  0  0  0  0  0
  181.2060  178.8600  139.8640 C   0  0  1  0  0  3  0  0  0  0  0  0
  181.6250  178.7860  141.3280 C   0  0  0  0  0  2  0  0  0  0  0  0
  180.4700  178.5430  142.1770 N   0  0  0  0  0  2  0  0  0  0  0  0
  180.9020  178.6160  143.4600 O   0  0  0  0  0  1  0  0  0  0  0  0
  181.1120  180.2910  139.3550 C   0  0  0  0  0  2  0  0  0  0  0  0
  180.6410  182.0810  137.5150 C   0  0  0  0  0  1  0  0  0  0  0  0
  180.3040  180.3140  137.7280 S   0  0  0  0  0  0  0  0  0  0  0  0
  1 25  1  0  0  0  0
  2  4  1  0  0  0  0
  2  1  2  0  0  0  0
  4  3  1  0  0  0  0
  5 10  2  0  0  0  0
  5  9  1  0  0  0  0
  6  3  2  0  0  0  0
  7  1  1  0  0  0  0
  7 12  1  0  0  0  0
  8  6  1  0  0  0  0
  9  7  2  0  0  0  0
 10  2  1  0  0  0  0
 11  8  2  0  0  0  0
 11 10  1  0  0  0  0
 12 13  1  6  0  0  0
 12 17  1  0  0  0  0
 14 23  1  0  0  0  0
 16 15  1  0  0  0  0
 16 14  1  0  0  0  0
 17 16  2  0  0  0  0
 18 20  1  0  0  0  0
 18 24  1  0  0  0  0
 19 24  2  0  0  0  0
 21 18  2  0  0  0  0
 22 19  1  0  0  0  0
 23 21  1  0  0  0  0
 23 22  2  0  0  0  0
 25 29  1  6  0  0  0
 25 26  1  0  0  0  0
 26 27  1  0  0  0  0
 27 28  1  0  0  0  0
 30 31  1  0  0  0  0
 31 29  1  0  0  0  0
M  END
>  <MODEL>
9

>  <REMARK>
 VINA RESULT:      -6.4      4.876      7.384
  Name = 
  8 active torsions:
  status: ('A' for Active; 'I' for Inactive)
    1  A    between atoms: N_2  and  C_25
    2  A    between atoms: N_3  and  C_22
    3  A    between atoms: C_4  and  C_12
    4  A    between atoms: C_12  and  C_25
    5  A    between atoms: C_12  and  C_27
    6  A    between atoms: C_15  and  C_21
    7  A    between atoms: C_15  and  N_23
    8  A    between atoms: C_27  and  S_28
                            x       y       z     vdW  Elec       q    Type
                         _______ _______ _______ _____ _____    ______ ____

>  <TORSDO>
F 8

$$$$
