=
 OpenBabel10262423023D

 37 44  0  0  1  0  0  0  0  0999 V2000
  187.5690  177.6940  139.4360 C   0  0  1  0  0  3  0  0  0  0  0  0
  182.8730  178.7730  138.9870 C   0  0  0  0  0  0  0  0  0  0  0  0
  185.9010  176.0700  137.0190 C   0  0  1  0  0  3  0  0  0  0  0  0
  188.9290  178.0590  135.5730 C   0  0  0  0  0  2  0  0  0  0  0  0
  183.6840  177.3900  136.9700 C   0  0  1  0  0  3  0  0  0  0  0  0
  187.3100  176.6980  137.0990 C   0  0  1  0  0  3  0  0  0  0  0  0
  186.4880  178.4800  141.4340 O   0  0  0  0  0  0  0  0  0  0  0  0
  184.9670  177.0550  137.7210 C   0  0  2  0  0  3  0  0  0  0  0  0
  187.9580  176.8830  135.7070 C   0  0  2  0  0  3  0  0  0  0  0  0
  183.0150  176.1080  136.5020 C   0  0  0  0  0  2  0  0  0  0  0  0
  185.7310  178.3400  137.9810 C   0  0  1  0  0  3  0  0  0  0  0  0
  184.0290  178.4490  139.9010 C   0  0  0  0  0  2  0  0  0  0  0  0
  186.2040  174.5590  134.9100 C   0  0  0  0  0  2  0  0  0  0  0  0
  186.4990  178.4030  140.2150 C   0  0  0  0  0  0  0  0  0  0  0  0
  183.9210  175.3000  135.5620 C   0  0  0  0  0  2  0  0  0  0  0  0
  185.3940  178.9160  139.3640 C   0  0  1  0  0  3  0  0  0  0  0  0
  189.1470  178.7280  136.9140 C   0  0  0  0  0  2  0  0  0  0  0  0
  185.4100  175.6860  135.5940 C   0  0  1  0  0  3  0  0  0  0  0  0
  187.2120  177.9830  137.9600 C   0  0  1  0  0  0  0  0  0  0  0  0
  182.7180  178.2640  137.7450 C   0  0  0  0  0  3  0  0  0  0  0  0
  188.5510  175.5660  135.1640 C   0  0  2  0  0  3  0  0  0  0  0  0
  181.7860  179.6330  139.5290 C   0  0  0  0  0  1  0  0  0  0  0  0
  187.9060  179.1140  137.4470 O   0  0  0  0  0  0  0  0  0  0  0  0
  187.6370  174.3600  135.4060 C   0  0  0  0  0  2  0  0  0  0  0  0
  190.0470  174.3980  136.7990 C   0  0  0  0  0  3  0  0  0  0  0  0
  189.9180  175.2760  135.7170 C   0  0  0  0  0  0  0  0  0  0  0  0
  191.0670  175.8580  135.1570 C   0  0  0  0  0  3  0  0  0  0  0  0
  193.7560  176.2760  134.9550 Cl  0  0  0  0  0  0  0  0  0  0  0  0
  192.4530  174.6790  136.7510 C   0  0  0  0  0  3  0  0  0  0  0  0
  192.3300  175.5570  135.6700 C   0  0  0  0  0  0  0  0  0  0  0  0
  191.3120  174.1010  137.3150 C   0  0  0  0  0  3  0  0  0  0  0  0
  189.9440  176.8290  139.3610 C   0  0  0  0  0  2  0  0  0  0  0  0
  189.6530  177.0690  140.8310 C   0  0  2  0  0  3  0  0  0  0  0  0
  189.0510  177.9820  139.7760 C   0  0  2  0  0  3  0  0  0  0  0  0
  190.8300  177.7730  141.4730 C   0  0  0  0  0  2  0  0  0  0  0  0
  191.2970  176.9820  142.6790 C   0  0  0  0  0  2  0  0  0  0  0  0
  190.3210  175.8590  142.9540 C   0  0  0  0  0  1  0  0  0  0  0  0
  1 34  1  0  0  0  0
  1 14  1  1  0  0  0
  2 22  1  0  0  0  0
  2 12  1  0  0  0  0
  3  6  1  0  0  0  0
  3  8  1  0  0  0  0
  4  9  1  0  0  0  0
  4 17  1  0  0  0  0
  5  8  1  0  0  0  0
  5 20  1  0  0  0  0
  6 19  1  0  0  0  0
  8 11  1  0  0  0  0
  9  6  1  0  0  0  0
 10  5  1  0  0  0  0
 11 16  1  0  0  0  0
 13 24  1  0  0  0  0
 13 18  1  0  0  0  0
 14  7  2  0  0  0  0
 15 18  1  0  0  0  0
 15 10  1  0  0  0  0
 16 12  1  0  0  0  0
 16 14  1  0  0  0  0
 17 23  1  0  0  0  0
 18  3  1  0  0  0  0
 19 11  1  0  0  0  0
 19  1  1  0  0  0  0
 20  2  2  0  0  0  0
 21 24  1  0  0  0  0
 21  9  1  0  0  0  0
 21 26  1  0  0  0  0
 23 19  1  0  0  0  0
 25 31  1  0  0  0  0
 26 25  2  0  0  0  0
 27 30  2  0  0  0  0
 27 26  1  0  0  0  0
 28 30  1  0  0  0  0
 29 31  2  0  0  0  0
 30 29  1  0  0  0  0
 32 34  1  0  0  0  0
 32 33  1  0  0  0  0
 33 35  1  0  0  0  0
 34 33  1  0  0  0  0
 35 36  1  0  0  0  0
 36 37  1  0  0  0  0
M  END
>  <MODEL>
1

>  <REMARK>
 VINA RESULT:      -6.8      0.000      0.000
  Name = 
  4 active torsions:
  status: ('A' for Active; 'I' for Inactive)
    1  A    between atoms: C_1  and  C_36
    2  A    between atoms: C_6  and  C_31
    3  A    between atoms: C_11  and  C_26
    4  A    between atoms: C_17  and  C_26
                            x       y       z     vdW  Elec       q    Type
                         _______ _______ _______ _____ _____    ______ ____

>  <TORSDO>
F 4

$$$$
=
 OpenBabel10262423023D

 37 44  0  0  1  0  0  0  0  0999 V2000
  187.2540  177.7500  139.7090 C   0  0  1  0  0  3  0  0  0  0  0  0
  182.6710  178.9850  138.7710 C   0  0  0  0  0  0  0  0  0  0  0  0
  185.7760  176.1330  137.1680 C   0  0  1  0  0  3  0  0  0  0  0  0
  189.0050  177.9810  135.9970 C   0  0  0  0  0  2  0  0  0  0  0  0
  183.6260  177.5290  136.8710 C   0  0  1  0  0  3  0  0  0  0  0  0
  187.1930  176.7120  137.3770 C   0  0  1  0  0  3  0  0  0  0  0  0
  186.0100  178.6190  141.5740 O   0  0  0  0  0  0  0  0  0  0  0  0
  184.8140  177.1660  137.7540 C   0  0  2  0  0  3  0  0  0  0  0  0
  187.9830  176.8440  136.0540 C   0  0  2  0  0  3  0  0  0  0  0  0
  182.9590  176.2620  136.3630 C   0  0  0  0  0  2  0  0  0  0  0  0
  185.5960  178.4290  138.0650 C   0  0  1  0  0  3  0  0  0  0  0  0
  183.7160  178.6410  139.8030 C   0  0  0  0  0  2  0  0  0  0  0  0
  186.2300  174.5660  135.1290 C   0  0  0  0  0  2  0  0  0  0  0  0
  186.1390  178.5150  140.3630 C   0  0  0  0  0  0  0  0  0  0  0  0
  183.9240  175.4020  135.5340 C   0  0  0  0  0  2  0  0  0  0  0  0
  185.1450  179.0470  139.3970 C   0  0  1  0  0  3  0  0  0  0  0  0
  189.1140  178.6710  137.3400 C   0  0  0  0  0  2  0  0  0  0  0  0
  185.4150  175.7350  135.7080 C   0  0  1  0  0  3  0  0  0  0  0  0
  187.0570  178.0190  138.2000 C   0  0  1  0  0  0  0  0  0  0  0  0
  182.6210  178.4540  137.5300 C   0  0  0  0  0  3  0  0  0  0  0  0
  188.5770  175.4950  135.5980 C   0  0  2  0  0  3  0  0  0  0  0  0
  181.5670  179.8950  139.1850 C   0  0  0  0  0  1  0  0  0  0  0  0
  187.8410  179.1130  137.7380 O   0  0  0  0  0  0  0  0  0  0  0  0
  187.5990  174.3270  135.7690 C   0  0  0  0  0  2  0  0  0  0  0  0
  190.3360  173.8500  136.2870 C   0  0  0  0  0  3  0  0  0  0  0  0
  189.8700  175.1690  136.2910 C   0  0  0  0  0  0  0  0  0  0  0  0
  190.6250  176.1680  136.9270 C   0  0  0  0  0  3  0  0  0  0  0  0
  192.7750  177.1040  138.3220 Cl  0  0  0  0  0  0  0  0  0  0  0  0
  192.2970  174.5300  137.5370 C   0  0  0  0  0  3  0  0  0  0  0  0
  191.8360  175.8490  137.5450 C   0  0  0  0  0  0  0  0  0  0  0  0
  191.5470  173.5310  136.9100 C   0  0  0  0  0  3  0  0  0  0  0  0
  189.5140  176.7120  140.1660 C   0  0  0  0  0  2  0  0  0  0  0  0
  189.0690  177.2990  141.4930 C   0  0  2  0  0  3  0  0  0  0  0  0
  188.7050  177.9930  140.1910 C   0  0  2  0  0  3  0  0  0  0  0  0
  190.2260  178.0380  142.1330 C   0  0  0  0  0  2  0  0  0  0  0  0
  190.0000  178.1350  143.6290 C   0  0  0  0  0  2  0  0  0  0  0  0
  188.6500  177.5430  143.9740 C   0  0  0  0  0  1  0  0  0  0  0  0
  1 34  1  0  0  0  0
  1 14  1  1  0  0  0
  2 22  1  0  0  0  0
  2 12  1  0  0  0  0
  3  6  1  0  0  0  0
  3  8  1  0  0  0  0
  4  9  1  0  0  0  0
  4 17  1  0  0  0  0
  5 20  1  0  0  0  0
  5  8  1  0  0  0  0
  6 19  1  0  0  0  0
  8 11  1  0  0  0  0
  9  6  1  0  0  0  0
 10  5  1  0  0  0  0
 11 19  1  0  0  0  0
 11 16  1  0  0  0  0
 13 18  1  0  0  0  0
 13 24  1  0  0  0  0
 14  7  2  0  0  0  0
 15 18  1  0  0  0  0
 15 10  1  0  0  0  0
 16 12  1  0  0  0  0
 16 14  1  0  0  0  0
 17 23  1  0  0  0  0
 18  3  1  0  0  0  0
 19  1  1  0  0  0  0
 20  2  2  0  0  0  0
 21 24  1  0  0  0  0
 21  9  1  0  0  0  0
 21 26  1  0  0  0  0
 23 19  1  0  0  0  0
 25 26  2  0  0  0  0
 25 31  1  0  0  0  0
 26 27  1  0  0  0  0
 27 30  2  0  0  0  0
 29 30  1  0  0  0  0
 30 28  1  0  0  0  0
 31 29  2  0  0  0  0
 32 34  1  0  0  0  0
 32 33  1  0  0  0  0
 33 35  1  0  0  0  0
 34 33  1  0  0  0  0
 35 36  1  0  0  0  0
 36 37  1  0  0  0  0
M  END
>  <MODEL>
2

>  <REMARK>
 VINA RESULT:      -5.7      0.988      1.020
  Name = 
  4 active torsions:
  status: ('A' for Active; 'I' for Inactive)
    1  A    between atoms: C_1  and  C_36
    2  A    between atoms: C_6  and  C_31
    3  A    between atoms: C_11  and  C_26
    4  A    between atoms: C_17  and  C_26
                            x       y       z     vdW  Elec       q    Type
                         _______ _______ _______ _____ _____    ______ ____

>  <TORSDO>
F 4

$$$$
=
 OpenBabel10262423023D

 37 44  0  0  1  0  0  0  0  0999 V2000
  182.7810  175.6470  138.2560 C   0  0  1  0  0  3  0  0  0  0  0  0
  180.3010  171.7410  136.8370 C   0  0  0  0  0  0  0  0  0  0  0  0
  184.5600  173.2250  136.7630 C   0  0  1  0  0  3  0  0  0  0  0  0
  184.9020  176.6190  134.8720 C   0  0  0  0  0  2  0  0  0  0  0  0
  182.6780  171.7190  135.8420 C   0  0  1  0  0  3  0  0  0  0  0  0
  184.5880  174.7680  136.6810 C   0  0  1  0  0  3  0  0  0  0  0  0
  180.7720  175.1850  139.4940 O   0  0  0  0  0  0  0  0  0  0  0  0
  183.0820  172.8370  136.7950 C   0  0  2  0  0  3  0  0  0  0  0  0
  185.3730  175.2830  135.4520 C   0  0  2  0  0  3  0  0  0  0  0  0
  183.6410  170.5520  135.9840 C   0  0  0  0  0  2  0  0  0  0  0  0
  182.2550  174.0700  136.4810 C   0  0  1  0  0  3  0  0  0  0  0  0
  180.5670  172.7650  137.9130 C   0  0  0  0  0  2  0  0  0  0  0  0
  186.8800  172.6790  135.6950 C   0  0  0  0  0  2  0  0  0  0  0  0
  181.4270  175.0340  138.4740 C   0  0  0  0  0  0  0  0  0  0  0  0
  185.0850  170.9590  135.6570 C   0  0  0  0  0  2  0  0  0  0  0  0
  181.0020  174.1380  137.3670 C   0  0  1  0  0  3  0  0  0  0  0  0
  183.8170  177.2260  135.7360 C   0  0  0  0  0  2  0  0  0  0  0  0
  185.3560  172.4730  135.6580 C   0  0  1  0  0  3  0  0  0  0  0  0
  183.1290  175.2770  136.7960 C   0  0  1  0  0  0  0  0  0  0  0  0
  181.2390  171.2650  135.9890 C   0  0  0  0  0  3  0  0  0  0  0  0
  186.8980  175.2460  135.6810 C   0  0  2  0  0  3  0  0  0  0  0  0
  178.9380  171.1460  136.7740 C   0  0  0  0  0  1  0  0  0  0  0  0
  182.7680  176.3030  135.8780 O   0  0  0  0  0  0  0  0  0  0  0  0
  187.3620  173.9610  136.3770 C   0  0  0  0  0  2  0  0  0  0  0  0
  187.4700  177.6820  135.8130 C   0  0  0  0  0  3  0  0  0  0  0  0
  187.3960  176.4380  136.4500 C   0  0  0  0  0  0  0  0  0  0  0  0
  187.7710  176.3270  137.7990 C   0  0  0  0  0  3  0  0  0  0  0  0
  188.6610  177.3050  140.1860 Cl  0  0  0  0  0  0  0  0  0  0  0  0
  188.2800  178.6920  137.8610 C   0  0  0  0  0  3  0  0  0  0  0  0
  188.2090  177.4510  138.5020 C   0  0  0  0  0  0  0  0  0  0  0  0
  187.9120  178.8060  136.5170 C   0  0  0  0  0  3  0  0  0  0  0  0
  184.4310  177.4660  138.8570 C   0  0  0  0  0  2  0  0  0  0  0  0
  183.4240  177.4490  139.9930 C   0  0  2  0  0  3  0  0  0  0  0  0
  182.9760  177.1490  138.5720 C   0  0  2  0  0  3  0  0  0  0  0  0
  183.0290  178.8690  140.3400 C   0  0  0  0  0  2  0  0  0  0  0  0
  182.6850  178.9530  141.8140 C   0  0  0  0  0  2  0  0  0  0  0  0
  183.8960  178.5700  142.6370 C   0  0  0  0  0  1  0  0  0  0  0  0
  1 14  1  6  0  0  0
  1 34  1  0  0  0  0
  2 12  1  0  0  0  0
  3  8  1  0  0  0  0
  4  9  1  0  0  0  0
  4 17  1  0  0  0  0
  5 10  1  0  0  0  0
  5 20  1  0  0  0  0
  5  8  1  0  0  0  0
  6  3  1  0  0  0  0
  6 19  1  0  0  0  0
  9 21  1  0  0  0  0
  9  6  1  0  0  0  0
 11  8  1  0  0  0  0
 11 19  1  0  0  0  0
 11 16  1  0  0  0  0
 13 24  1  0  0  0  0
 14  7  2  0  0  0  0
 15 18  1  0  0  0  0
 15 10  1  0  0  0  0
 16 12  1  0  0  0  0
 16 14  1  0  0  0  0
 17 23  1  0  0  0  0
 18 13  1  0  0  0  0
 18  3  1  0  0  0  0
 19  1  1  0  0  0  0
 20  2  2  0  0  0  0
 21 24  1  0  0  0  0
 21 26  1  0  0  0  0
 22  2  1  0  0  0  0
 23 19  1  0  0  0  0
 25 26  2  0  0  0  0
 25 31  1  0  0  0  0
 26 27  1  0  0  0  0
 27 30  2  0  0  0  0
 29 30  1  0  0  0  0
 30 28  1  0  0  0  0
 31 29  2  0  0  0  0
 32 33  1  0  0  0  0
 33 35  1  0  0  0  0
 34 32  1  0  0  0  0
 34 33  1  0  0  0  0
 35 36  1  0  0  0  0
 36 37  1  0  0  0  0
M  END
>  <MODEL>
3

>  <REMARK>
 VINA RESULT:      -5.7      3.223      5.728
  Name = 
  4 active torsions:
  status: ('A' for Active; 'I' for Inactive)
    1  A    between atoms: C_1  and  C_36
    2  A    between atoms: C_6  and  C_31
    3  A    between atoms: C_11  and  C_26
    4  A    between atoms: C_17  and  C_26
                            x       y       z     vdW  Elec       q    Type
                         _______ _______ _______ _____ _____    ______ ____

>  <TORSDO>
F 4

$$$$
=
 OpenBabel10262423023D

 37 44  0  0  1  0  0  0  0  0999 V2000
  184.9030  178.2440  139.8510 C   0  0  1  0  0  3  0  0  0  0  0  0
  184.7170  179.0060  144.6260 C   0  0  0  0  0  0  0  0  0  0  0  0
  181.8820  177.9510  141.2810 C   0  0  1  0  0  3  0  0  0  0  0  0
  181.8700  180.6440  138.4590 C   0  0  0  0  0  2  0  0  0  0  0  0
  182.3440  178.9210  143.6270 C   0  0  1  0  0  3  0  0  0  0  0  0
  182.3720  178.5650  139.9510 C   0  0  1  0  0  3  0  0  0  0  0  0
  186.9390  177.8050  141.0540 O   0  0  0  0  0  0  0  0  0  0  0  0
  182.9140  178.3580  142.3310 C   0  0  2  0  0  3  0  0  0  0  0  0
  181.3180  179.4890  139.2980 C   0  0  2  0  0  3  0  0  0  0  0  0
  181.2440  178.0080  144.1420 C   0  0  0  0  0  2  0  0  0  0  0  0
  183.8450  179.3880  141.7180 C   0  0  1  0  0  3  0  0  0  0  0  0
  185.4240  178.3570  143.4620 C   0  0  0  0  0  2  0  0  0  0  0  0
  179.3270  177.7620  140.7710 C   0  0  0  0  0  2  0  0  0  0  0  0
  185.8530  178.3640  141.0090 C   0  0  0  0  0  0  0  0  0  0  0  0
  180.0940  177.8730  143.1340 C   0  0  0  0  0  2  0  0  0  0  0  0
  185.3000  179.1450  142.1450 C   0  0  1  0  0  3  0  0  0  0  0  0
  183.3760  180.5490  138.3430 C   0  0  0  0  0  2  0  0  0  0  0  0
  180.4270  178.3100  141.6970 C   0  0  1  0  0  3  0  0  0  0  0  0
  183.7550  179.2160  140.2070 C   0  0  1  0  0  0  0  0  0  0  0  0
  183.3810  179.1910  144.6990 C   0  0  0  0  0  3  0  0  0  0  0  0
  180.2280  178.6900  138.5540 C   0  0  2  0  0  3  0  0  0  0  0  0
  185.5380  179.3740  145.8120 C   0  0  0  0  0  1  0  0  0  0  0  0
  183.9380  180.5040  139.6300 O   0  0  0  0  0  0  0  0  0  0  0  0
  179.7580  177.4580  139.3340 C   0  0  0  0  0  2  0  0  0  0  0  0
  180.3930  179.1160  136.0900 C   0  0  0  0  0  3  0  0  0  0  0  0
  180.6580  178.2720  137.1740 C   0  0  0  0  0  0  0  0  0  0  0  0
  181.3350  177.0610  136.9600 C   0  0  0  0  0  3  0  0  0  0  0  0
  182.6020  175.1980  135.4210 Cl  0  0  0  0  0  0  0  0  0  0  0  0
  181.4800  177.5490  134.5950 C   0  0  0  0  0  3  0  0  0  0  0  0
  181.7460  176.7020  135.6750 C   0  0  0  0  0  0  0  0  0  0  0  0
  180.8020  178.7540  134.8020 C   0  0  0  0  0  3  0  0  0  0  0  0
  184.9600  177.3480  137.4870 C   0  0  0  0  0  2  0  0  0  0  0  0
  186.4070  177.3570  137.9460 C   0  0  2  0  0  3  0  0  0  0  0  0
  185.4510  178.4400  138.4170 C   0  0  2  0  0  3  0  0  0  0  0  0
  187.2830  177.9230  136.8480 C   0  0  0  0  0  2  0  0  0  0  0  0
  188.7410  177.7150  137.2040 C   0  0  0  0  0  2  0  0  0  0  0  0
  189.1110  178.6200  138.3600 C   0  0  0  0  0  1  0  0  0  0  0  0
  1 19  1  0  0  0  0
  1 14  1  1  0  0  0
  2 20  2  0  0  0  0
  2 22  1  0  0  0  0
  3 18  1  0  0  0  0
  3  8  1  0  0  0  0
  4  9  1  0  0  0  0
  5 10  1  0  0  0  0
  5 20  1  0  0  0  0
  6 19  1  0  0  0  0
  6  3  1  0  0  0  0
  8  5  1  0  0  0  0
  9  6  1  0  0  0  0
 11 16  1  0  0  0  0
 11  8  1  0  0  0  0
 12  2  1  0  0  0  0
 13 18  1  0  0  0  0
 14  7  2  0  0  0  0
 14 16  1  0  0  0  0
 15 10  1  0  0  0  0
 16 12  1  0  0  0  0
 17  4  1  0  0  0  0
 17 23  1  0  0  0  0
 18 15  1  0  0  0  0
 19 11  1  0  0  0  0
 21  9  1  0  0  0  0
 21 24  1  0  0  0  0
 23 19  1  0  0  0  0
 24 13  1  0  0  0  0
 25 26  1  0  0  0  0
 26 21  1  0  0  0  0
 27 26  2  0  0  0  0
 28 30  1  0  0  0  0
 29 31  1  0  0  0  0
 29 30  2  0  0  0  0
 30 27  1  0  0  0  0
 31 25  2  0  0  0  0
 32 33  1  0  0  0  0
 32 34  1  0  0  0  0
 33 34  1  0  0  0  0
 34  1  1  0  0  0  0
 35 36  1  0  0  0  0
 35 33  1  0  0  0  0
 36 37  1  0  0  0  0
M  END
>  <MODEL>
4

>  <REMARK>
 VINA RESULT:      -5.6      3.322      7.381
  Name = 
  4 active torsions:
  status: ('A' for Active; 'I' for Inactive)
    1  A    between atoms: C_1  and  C_36
    2  A    between atoms: C_6  and  C_31
    3  A    between atoms: C_11  and  C_26
    4  A    between atoms: C_17  and  C_26
                            x       y       z     vdW  Elec       q    Type
                         _______ _______ _______ _____ _____    ______ ____

>  <TORSDO>
F 4

$$$$
=
 OpenBabel10262423023D

 37 44  0  0  1  0  0  0  0  0999 V2000
  186.3550  178.2000  139.5960 C   0  0  1  0  0  3  0  0  0  0  0  0
  181.6210  179.1730  139.3460 C   0  0  0  0  0  0  0  0  0  0  0  0
  184.5770  176.3570  137.4270 C   0  0  1  0  0  3  0  0  0  0  0  0
  187.4760  178.2610  135.6410 C   0  0  0  0  0  2  0  0  0  0  0  0
  182.3370  177.6380  137.4040 C   0  0  1  0  0  3  0  0  0  0  0  0
  185.9770  177.0090  137.3690 C   0  0  1  0  0  3  0  0  0  0  0  0
  185.3800  179.1350  141.5850 O   0  0  0  0  0  0  0  0  0  0  0  0
  183.6680  177.3850  138.1010 C   0  0  2  0  0  3  0  0  0  0  0  0
  186.5370  177.0870  135.9300 C   0  0  2  0  0  3  0  0  0  0  0  0
  181.6660  176.3120  137.0850 C   0  0  0  0  0  2  0  0  0  0  0  0
  184.4220  178.6970  138.2070 C   0  0  1  0  0  3  0  0  0  0  0  0
  182.8350  178.9420  140.2120 C   0  0  0  0  0  2  0  0  0  0  0  0
  184.7830  174.6810  135.4350 C   0  0  0  0  0  2  0  0  0  0  0  0
  185.3200  178.9570  140.3780 C   0  0  0  0  0  0  0  0  0  0  0  0
  182.5290  175.4420  136.1610 C   0  0  0  0  0  2  0  0  0  0  0  0
  184.1570  179.3820  139.5560 C   0  0  1  0  0  3  0  0  0  0  0  0
  187.7610  179.0420  136.9070 C   0  0  0  0  0  2  0  0  0  0  0  0
  184.0100  175.8500  136.0710 C   0  0  1  0  0  3  0  0  0  0  0  0
  185.9050  178.3600  138.1260 C   0  0  1  0  0  0  0  0  0  0  0  0
  181.4020  178.5590  138.1630 C   0  0  0  0  0  3  0  0  0  0  0  0
  187.1210  175.7380  135.4620 C   0  0  2  0  0  3  0  0  0  0  0  0
  180.5520  180.0590  139.8810 C   0  0  0  0  0  1  0  0  0  0  0  0
  186.5460  179.4540  137.4800 O   0  0  0  0  0  0  0  0  0  0  0  0
  186.2470  174.5430  135.8570 C   0  0  0  0  0  2  0  0  0  0  0  0
  188.7250  174.9760  137.2290 C   0  0  0  0  0  3  0  0  0  0  0  0
  188.5250  175.5150  135.9530 C   0  0  0  0  0  0  0  0  0  0  0  0
  189.6330  175.8200  135.1480 C   0  0  0  0  0  3  0  0  0  0  0  0
  192.3030  175.9550  134.5970 Cl  0  0  0  0  0  0  0  0  0  0  0  0
  191.1230  175.0440  136.8890 C   0  0  0  0  0  3  0  0  0  0  0  0
  190.9280  175.5840  135.6140 C   0  0  0  0  0  0  0  0  0  0  0  0
  190.0230  174.7420  137.6960 C   0  0  0  0  0  3  0  0  0  0  0  0
  188.7260  177.3210  139.5920 C   0  0  0  0  0  2  0  0  0  0  0  0
  188.4910  177.8290  141.0030 C   0  0  2  0  0  3  0  0  0  0  0  0
  187.8490  178.5360  139.8210 C   0  0  2  0  0  3  0  0  0  0  0  0
  189.6910  178.6310  141.4580 C   0  0  0  0  0  2  0  0  0  0  0  0
  190.1000  178.1870  142.8490 C   0  0  0  0  0  2  0  0  0  0  0  0
  191.3830  177.3890  142.7660 C   0  0  0  0  0  1  0  0  0  0  0  0
  1 34  1  0  0  0  0
  1 14  1  1  0  0  0
  2 22  1  0  0  0  0
  2 12  1  0  0  0  0
  3  8  1  0  0  0  0
  4  9  1  0  0  0  0
  4 17  1  0  0  0  0
  5  8  1  0  0  0  0
  5 20  1  0  0  0  0
  6  3  1  0  0  0  0
  6 19  1  0  0  0  0
  8 11  1  0  0  0  0
  9  6  1  0  0  0  0
 10  5  1  0  0  0  0
 11 16  1  0  0  0  0
 13 24  1  0  0  0  0
 13 18  1  0  0  0  0
 14  7  2  0  0  0  0
 15 10  1  0  0  0  0
 16 12  1  0  0  0  0
 16 14  1  0  0  0  0
 17 23  1  0  0  0  0
 18 15  1  0  0  0  0
 18  3  1  0  0  0  0
 19 11  1  0  0  0  0
 19  1  1  0  0  0  0
 20  2  2  0  0  0  0
 21 24  1  0  0  0  0
 21  9  1  0  0  0  0
 21 26  1  0  0  0  0
 23 19  1  0  0  0  0
 25 31  1  0  0  0  0
 26 25  2  0  0  0  0
 27 30  2  0  0  0  0
 27 26  1  0  0  0  0
 28 30  1  0  0  0  0
 29 31  2  0  0  0  0
 30 29  1  0  0  0  0
 32 34  1  0  0  0  0
 32 33  1  0  0  0  0
 33 35  1  0  0  0  0
 34 33  1  0  0  0  0
 35 36  1  0  0  0  0
 37 36  1  0  0  0  0
M  END
>  <MODEL>
5

>  <REMARK>
 VINA RESULT:      -5.3      1.144      1.438
  Name = 
  4 active torsions:
  status: ('A' for Active; 'I' for Inactive)
    1  A    between atoms: C_1  and  C_36
    2  A    between atoms: C_6  and  C_31
    3  A    between atoms: C_11  and  C_26
    4  A    between atoms: C_17  and  C_26
                            x       y       z     vdW  Elec       q    Type
                         _______ _______ _______ _____ _____    ______ ____

>  <TORSDO>
F 4

$$$$
=
 OpenBabel10262423023D

 37 44  0  0  1  0  0  0  0  0999 V2000
  184.5140  178.2530  141.8500 C   0  0  1  0  0  3  0  0  0  0  0  0
  179.9140  178.5560  143.3230 C   0  0  0  0  0  0  0  0  0  0  0  0
  182.2590  176.5710  140.0200 C   0  0  1  0  0  3  0  0  0  0  0  0
  184.2170  179.1540  137.8490 C   0  0  0  0  0  2  0  0  0  0  0  0
  180.0480  177.4970  140.9780 C   0  0  1  0  0  3  0  0  0  0  0  0
  183.4990  177.4200  139.6600 C   0  0  1  0  0  3  0  0  0  0  0  0
  184.2000  178.6820  144.1950 O   0  0  0  0  0  0  0  0  0  0  0  0
  181.5530  177.3250  141.1470 C   0  0  2  0  0  3  0  0  0  0  0  0
  183.5290  177.8240  138.1670 C   0  0  2  0  0  3  0  0  0  0  0  0
  179.4170  176.1630  140.6170 C   0  0  0  0  0  2  0  0  0  0  0  0
  182.1900  178.6950  141.2820 C   0  0  1  0  0  3  0  0  0  0  0  0
  181.3640  178.3590  143.6910 C   0  0  0  0  0  2  0  0  0  0  0  0
  181.9100  175.3090  137.7610 C   0  0  0  0  0  2  0  0  0  0  0  0
  183.7480  178.7060  143.0590 C   0  0  0  0  0  0  0  0  0  0  0  0
  179.9830  175.5980  139.3060 C   0  0  0  0  0  2  0  0  0  0  0  0
  182.3450  179.0920  142.7570 C   0  0  1  0  0  3  0  0  0  0  0  0
  184.8510  179.7390  139.0930 C   0  0  0  0  0  2  0  0  0  0  0  0
  181.3080  176.2260  138.8390 C   0  0  1  0  0  3  0  0  0  0  0  0
  183.5800  178.5960  140.6660 C   0  0  1  0  0  0  0  0  0  0  0  0
  179.3560  178.1290  142.1690 C   0  0  0  0  0  3  0  0  0  0  0  0
  184.0260  176.6740  137.2660 C   0  0  2  0  0  3  0  0  0  0  0  0
  179.0220  179.1730  144.3430 C   0  0  0  0  0  1  0  0  0  0  0  0
  183.8740  179.8660  140.0960 O   0  0  0  0  0  0  0  0  0  0  0  0
  183.4360  175.3150  137.6580 C   0  0  0  0  0  2  0  0  0  0  0  0
  186.1300  175.3150  137.2720 C   0  0  0  0  0  3  0  0  0  0  0  0
  185.5260  176.5760  137.2290 C   0  0  0  0  0  0  0  0  0  0  0  0
  186.3270  177.7250  137.1340 C   0  0  0  0  0  3  0  0  0  0  0  0
  188.7050  179.0500  136.9450 Cl  0  0  0  0  0  0  0  0  0  0  0  0
  188.3160  176.3490  137.1200 C   0  0  0  0  0  3  0  0  0  0  0  0
  187.7170  177.6120  137.0780 C   0  0  0  0  0  0  0  0  0  0  0  0
  187.5240  175.2020  137.2190 C   0  0  0  0  0  3  0  0  0  0  0  0
  186.7270  177.8780  140.6860 C   0  0  0  0  0  2  0  0  0  0  0  0
  187.0410  177.8200  142.1690 C   0  0  2  0  0  3  0  0  0  0  0  0
  185.9630  178.7590  141.6540 C   0  0  2  0  0  3  0  0  0  0  0  0
  188.2930  178.6240  142.4530 C   0  0  0  0  0  2  0  0  0  0  0  0
  189.1620  177.8740  143.4430 C   0  0  0  0  0  2  0  0  0  0  0  0
  188.2820  177.1280  144.4230 C   0  0  0  0  0  1  0  0  0  0  0  0
  1 14  1  1  0  0  0
  2 12  1  0  0  0  0
  2 22  1  0  0  0  0
  3  8  1  0  0  0  0
  4  9  1  0  0  0  0
  4 17  1  0  0  0  0
  5  8  1  0  0  0  0
  5 20  1  0  0  0  0
  6  3  1  0  0  0  0
  6 19  1  0  0  0  0
  8 11  1  0  0  0  0
  9  6  1  0  0  0  0
 10  5  1  0  0  0  0
 11 16  1  0  0  0  0
 13 18  1  0  0  0  0
 14  7  2  0  0  0  0
 15 10  1  0  0  0  0
 16 14  1  0  0  0  0
 16 12  1  0  0  0  0
 17 23  1  0  0  0  0
 18 15  1  0  0  0  0
 18  3  1  0  0  0  0
 19 11  1  0  0  0  0
 19  1  1  0  0  0  0
 20  2  2  0  0  0  0
 21 24  1  0  0  0  0
 21  9  1  0  0  0  0
 23 19  1  0  0  0  0
 24 13  1  0  0  0  0
 26 21  1  0  0  0  0
 26 25  1  0  0  0  0
 27 26  2  0  0  0  0
 28 30  1  0  0  0  0
 29 31  1  0  0  0  0
 30 29  2  0  0  0  0
 30 27  1  0  0  0  0
 31 25  2  0  0  0  0
 32 34  1  0  0  0  0
 32 33  1  0  0  0  0
 33 35  1  0  0  0  0
 34  1  1  0  0  0  0
 34 33  1  0  0  0  0
 35 36  1  0  0  0  0
 36 37  1  0  0  0  0
M  END
>  <MODEL>
6

>  <REMARK>
 VINA RESULT:      -5.3      2.800      4.686
  Name = 
  4 active torsions:
  status: ('A' for Active; 'I' for Inactive)
    1  A    between atoms: C_1  and  C_36
    2  A    between atoms: C_6  and  C_31
    3  A    between atoms: C_11  and  C_26
    4  A    between atoms: C_17  and  C_26
                            x       y       z     vdW  Elec       q    Type
                         _______ _______ _______ _____ _____    ______ ____

>  <TORSDO>
F 4

$$$$
=
 OpenBabel10262423023D

 37 44  0  0  1  0  0  0  0  0999 V2000
  186.4480  173.6950  136.5780 C   0  0  1  0  0  3  0  0  0  0  0  0
  191.2320  173.9080  135.8880 C   0  0  0  0  0  0  0  0  0  0  0  0
  188.0290  176.3080  137.9670 C   0  0  1  0  0  3  0  0  0  0  0  0
  185.2360  177.4750  135.5070 C   0  0  0  0  0  2  0  0  0  0  0  0
  190.3570  176.1240  136.8690 C   0  0  1  0  0  3  0  0  0  0  0  0
  186.6810  176.1530  137.2290 C   0  0  1  0  0  3  0  0  0  0  0  0
  187.5390  171.5850  136.2060 O   0  0  0  0  0  0  0  0  0  0  0  0
  189.0280  175.4510  137.1910 C   0  0  2  0  0  3  0  0  0  0  0  0
  186.0920  177.5090  136.7760 C   0  0  2  0  0  3  0  0  0  0  0  0
  190.9200  176.7720  138.1220 C   0  0  0  0  0  2  0  0  0  0  0  0
  188.3770  175.0080  135.8940 C   0  0  1  0  0  3  0  0  0  0  0  0
  190.0270  173.0700  136.2360 C   0  0  0  0  0  2  0  0  0  0  0  0
  187.6500  178.6270  139.1070 C   0  0  0  0  0  2  0  0  0  0  0  0
  187.5550  172.8020  136.0970 C   0  0  0  0  0  0  0  0  0  0  0  0
  189.9710  177.8370  138.6900 C   0  0  0  0  0  2  0  0  0  0  0  0
  188.7250  173.5490  135.5680 C   0  0  1  0  0  3  0  0  0  0  0  0
  185.0410  176.0510  135.0310 C   0  0  0  0  0  2  0  0  0  0  0  0
  188.5230  177.7680  138.1760 C   0  0  1  0  0  3  0  0  0  0  0  0
  186.8710  175.1040  136.1040 C   0  0  1  0  0  0  0  0  0  0  0  0
  191.3760  175.2100  136.2170 C   0  0  0  0  0  3  0  0  0  0  0  0
  185.3980  178.2560  137.9340 C   0  0  2  0  0  3  0  0  0  0  0  0
  192.3780  173.2250  135.2260 C   0  0  0  0  0  1  0  0  0  0  0  0
  186.2970  175.4480  134.8480 O   0  0  0  0  0  0  0  0  0  0  0  0
  186.1910  178.1880  139.2440 C   0  0  0  0  0  2  0  0  0  0  0  0
  183.7640  176.8000  139.1540 C   0  0  0  0  0  3  0  0  0  0  0  0
  183.9950  177.7720  138.1750 C   0  0  0  0  0  0  0  0  0  0  0  0
  182.9130  178.2920  137.4460 C   0  0  0  0  0  3  0  0  0  0  0  0
  180.2710  178.5120  136.7980 Cl  0  0  0  0  0  0  0  0  0  0  0  0
  181.3890  176.8760  138.6810 C   0  0  0  0  0  3  0  0  0  0  0  0
  181.6140  177.8470  137.7010 C   0  0  0  0  0  0  0  0  0  0  0  0
  182.4630  176.3520  139.4060 C   0  0  0  0  0  3  0  0  0  0  0  0
  184.0320  173.6960  137.3250 C   0  0  0  0  0  2  0  0  0  0  0  0
  184.3660  172.2410  137.0560 C   0  0  2  0  0  3  0  0  0  0  0  0
  184.9890  173.3360  136.2060 C   0  0  2  0  0  3  0  0  0  0  0  0
  183.2380  171.5990  136.2750 C   0  0  0  0  0  2  0  0  0  0  0  0
  183.4250  170.0950  136.2570 C   0  0  0  0  0  2  0  0  0  0  0  0
  184.5550  169.7390  135.3140 C   0  0  0  0  0  1  0  0  0  0  0  0
  1 14  1  6  0  0  0
  2 20  2  0  0  0  0
  2 12  1  0  0  0  0
  3 18  1  0  0  0  0
  4  9  1  0  0  0  0
  5  8  1  0  0  0  0
  5 10  1  0  0  0  0
  6  3  1  0  0  0  0
  8  3  1  0  0  0  0
  9  6  1  0  0  0  0
  9 21  1  0  0  0  0
 10 15  1  0  0  0  0
 11 19  1  0  0  0  0
 11  8  1  0  0  0  0
 13 24  1  0  0  0  0
 14  7  2  0  0  0  0
 16 11  1  0  0  0  0
 16 14  1  0  0  0  0
 16 12  1  0  0  0  0
 17  4  1  0  0  0  0
 18 15  1  0  0  0  0
 18 13  1  0  0  0  0
 19  1  1  0  0  0  0
 19  6  1  0  0  0  0
 20  5  1  0  0  0  0
 21 26  1  0  0  0  0
 21 24  1  0  0  0  0
 22  2  1  0  0  0  0
 23 17  1  0  0  0  0
 23 19  1  0  0  0  0
 25 31  1  0  0  0  0
 26 25  2  0  0  0  0
 27 30  2  0  0  0  0
 27 26  1  0  0  0  0
 28 30  1  0  0  0  0
 29 31  2  0  0  0  0
 30 29  1  0  0  0  0
 33 32  1  0  0  0  0
 34  1  1  0  0  0  0
 34 33  1  0  0  0  0
 34 32  1  0  0  0  0
 35 33  1  0  0  0  0
 36 35  1  0  0  0  0
 37 36  1  0  0  0  0
M  END
>  <MODEL>
7

>  <REMARK>
 VINA RESULT:      -5.2      3.371      7.933
  Name = 
  4 active torsions:
  status: ('A' for Active; 'I' for Inactive)
    1  A    between atoms: C_1  and  C_36
    2  A    between atoms: C_6  and  C_31
    3  A    between atoms: C_11  and  C_26
    4  A    between atoms: C_17  and  C_26
                            x       y       z     vdW  Elec       q    Type
                         _______ _______ _______ _____ _____    ______ ____

>  <TORSDO>
F 4

$$$$
=
 OpenBabel10262423023D

 37 44  0  0  1  0  0  0  0  0999 V2000
  186.8520  173.8520  136.5730 C   0  0  1  0  0  3  0  0  0  0  0  0
  191.4650  172.9770  135.4020 C   0  0  0  0  0  0  0  0  0  0  0  0
  189.1350  175.9180  137.9060 C   0  0  1  0  0  3  0  0  0  0  0  0
  186.4970  177.8740  135.8020 C   0  0  0  0  0  2  0  0  0  0  0  0
  191.2420  175.2650  136.5660 C   0  0  1  0  0  3  0  0  0  0  0  0
  187.7280  176.1350  137.3050 C   0  0  1  0  0  3  0  0  0  0  0  0
  187.3640  171.5740  135.9980 O   0  0  0  0  0  0  0  0  0  0  0  0
  189.8240  174.9040  136.9930 C   0  0  2  0  0  3  0  0  0  0  0  0
  187.4460  177.6200  136.9760 C   0  0  2  0  0  3  0  0  0  0  0  0
  192.0540  175.6760  137.7820 C   0  0  0  0  0  2  0  0  0  0  0  0
  188.9720  174.7160  135.7530 C   0  0  1  0  0  3  0  0  0  0  0  0
  190.1290  172.4250  135.8360 C   0  0  0  0  0  2  0  0  0  0  0  0
  189.4300  178.1780  139.1800 C   0  0  0  0  0  2  0  0  0  0  0  0
  187.6630  172.7570  135.9410 C   0  0  0  0  0  0  0  0  0  0  0  0
  191.4450  176.8940  138.4920 C   0  0  0  0  0  2  0  0  0  0  0  0
  188.9270  173.2410  135.3270 C   0  0  1  0  0  3  0  0  0  0  0  0
  185.9220  176.5720  135.2860 C   0  0  0  0  0  2  0  0  0  0  0  0
  189.9830  177.2020  138.1270 C   0  0  1  0  0  3  0  0  0  0  0  0
  187.5580  175.1500  136.1210 C   0  0  1  0  0  0  0  0  0  0  0  0
  191.9470  174.1830  135.7720 C   0  0  0  0  0  3  0  0  0  0  0  0
  187.0590  178.4280  138.2310 C   0  0  2  0  0  3  0  0  0  0  0  0
  192.3470  172.0900  134.5960 C   0  0  0  0  0  1  0  0  0  0  0  0
  186.9740  175.7040  134.9470 O   0  0  0  0  0  0  0  0  0  0  0  0
  187.9270  178.0870  139.4480 C   0  0  0  0  0  2  0  0  0  0  0  0
  184.6960  177.8690  137.6130 C   0  0  0  0  0  3  0  0  0  0  0  0
  185.6080  178.2740  138.5940 C   0  0  0  0  0  0  0  0  0  0  0  0
  185.1570  178.5120  139.9020 C   0  0  0  0  0  3  0  0  0  0  0  0
  183.2610  178.6270  141.8610 Cl  0  0  0  0  0  0  0  0  0  0  0  0
  182.9030  177.9350  139.2410 C   0  0  0  0  0  3  0  0  0  0  0  0
  183.8100  178.3410  140.2250 C   0  0  0  0  0  0  0  0  0  0  0  0
  183.3460  177.7010  137.9360 C   0  0  0  0  0  3  0  0  0  0  0  0
  184.5790  174.2850  137.5940 C   0  0  0  0  0  2  0  0  0  0  0  0
  184.5410  172.8390  137.1340 C   0  0  2  0  0  3  0  0  0  0  0  0
  185.3220  173.8720  136.3380 C   0  0  2  0  0  3  0  0  0  0  0  0
  183.2300  172.5680  136.4270 C   0  0  0  0  0  2  0  0  0  0  0  0
  182.7960  171.1400  136.6940 C   0  0  0  0  0  2  0  0  0  0  0  0
  183.8060  170.1860  136.0920 C   0  0  0  0  0  1  0  0  0  0  0  0
  1 14  1  6  0  0  0
  2 20  2  0  0  0  0
  2 12  1  0  0  0  0
  3 18  1  0  0  0  0
  4  9  1  0  0  0  0
  5  8  1  0  0  0  0
  5 10  1  0  0  0  0
  6  3  1  0  0  0  0
  8  3  1  0  0  0  0
  9  6  1  0  0  0  0
  9 21  1  0  0  0  0
 10 15  1  0  0  0  0
 11 19  1  0  0  0  0
 11  8  1  0  0  0  0
 13 24  1  0  0  0  0
 14  7  2  0  0  0  0
 16 11  1  0  0  0  0
 16 12  1  0  0  0  0
 16 14  1  0  0  0  0
 17  4  1  0  0  0  0
 18 15  1  0  0  0  0
 18 13  1  0  0  0  0
 19  1  1  0  0  0  0
 19  6  1  0  0  0  0
 20  5  1  0  0  0  0
 21 26  1  0  0  0  0
 21 24  1  0  0  0  0
 22  2  1  0  0  0  0
 23 17  1  0  0  0  0
 23 19  1  0  0  0  0
 25 31  2  0  0  0  0
 25 26  1  0  0  0  0
 26 27  2  0  0  0  0
 27 30  1  0  0  0  0
 29 30  2  0  0  0  0
 30 28  1  0  0  0  0
 31 29  1  0  0  0  0
 33 32  1  0  0  0  0
 34  1  1  0  0  0  0
 34 33  1  0  0  0  0
 34 32  1  0  0  0  0
 35 36  1  0  0  0  0
 35 33  1  0  0  0  0
 37 36  1  0  0  0  0
M  END
>  <MODEL>
8

>  <REMARK>
 VINA RESULT:      -4.9      3.160      7.862
  Name = 
  4 active torsions:
  status: ('A' for Active; 'I' for Inactive)
    1  A    between atoms: C_1  and  C_36
    2  A    between atoms: C_6  and  C_31
    3  A    between atoms: C_11  and  C_26
    4  A    between atoms: C_17  and  C_26
                            x       y       z     vdW  Elec       q    Type
                         _______ _______ _______ _____ _____    ______ ____

>  <TORSDO>
F 4

$$$$
=
 OpenBabel10262423023D

 37 44  0  0  1  0  0  0  0  0999 V2000
  189.8990  177.9250  142.2960 C   0  0  1  0  0  3  0  0  0  0  0  0
  189.1650  177.4540  137.5360 C   0  0  0  0  0  0  0  0  0  0  0  0
  186.8500  178.7670  141.1780 C   0  0  1  0  0  3  0  0  0  0  0  0
  186.6540  175.9650  143.8850 C   0  0  0  0  0  2  0  0  0  0  0  0
  186.9360  177.8600  138.7630 C   0  0  1  0  0  3  0  0  0  0  0  0
  187.3510  178.0140  142.4300 C   0  0  1  0  0  3  0  0  0  0  0  0
  191.8630  178.0990  140.9190 O   0  0  0  0  0  0  0  0  0  0  0  0
  187.7040  178.2570  140.0170 C   0  0  2  0  0  3  0  0  0  0  0  0
  186.2230  177.2350  143.1470 C   0  0  2  0  0  3  0  0  0  0  0  0
  185.9570  178.9620  138.3910 C   0  0  0  0  0  2  0  0  0  0  0  0
  188.5060  177.0630  140.4990 C   0  0  1  0  0  3  0  0  0  0  0  0
  190.0700  177.9200  138.6500 C   0  0  0  0  0  2  0  0  0  0  0  0
  184.4160  179.3300  141.9400 C   0  0  0  0  0  2  0  0  0  0  0  0
  190.7090  177.7180  141.0480 C   0  0  0  0  0  0  0  0  0  0  0  0
  184.9400  179.2240  139.5110 C   0  0  0  0  0  2  0  0  0  0  0  0
  189.9370  177.0940  139.9420 C   0  0  1  0  0  3  0  0  0  0  0  0
  188.1600  175.8150  143.8580 C   0  0  0  0  0  2  0  0  0  0  0  0
  185.3240  178.6640  140.8910 C   0  0  1  0  0  3  0  0  0  0  0  0
  188.5810  177.1670  142.0170 C   0  0  1  0  0  0  0  0  0  0  0  0
  187.8150  177.4860  137.5860 C   0  0  0  0  0  3  0  0  0  0  0  0
  185.3490  178.1570  144.0230 C   0  0  2  0  0  3  0  0  0  0  0  0
  189.8050  177.0240  136.2630 C   0  0  0  0  0  1  0  0  0  0  0  0
  188.6040  175.8380  142.5250 O   0  0  0  0  0  0  0  0  0  0  0  0
  185.0170  179.4870  143.3380 C   0  0  0  0  0  2  0  0  0  0  0  0
  185.5500  179.5500  146.0960 C   0  0  0  0  0  3  0  0  0  0  0  0
  185.9630  178.4280  145.3680 C   0  0  0  0  0  0  0  0  0  0  0  0
  186.9290  177.5660  145.9130 C   0  0  0  0  0  3  0  0  0  0  0  0
  188.6610  176.7340  147.8500 Cl  0  0  0  0  0  0  0  0  0  0  0  0
  187.0530  178.9440  147.8970 C   0  0  0  0  0  3  0  0  0  0  0  0
  187.4700  177.8220  147.1740 C   0  0  0  0  0  0  0  0  0  0  0  0
  186.0960  179.8080  147.3580 C   0  0  0  0  0  3  0  0  0  0  0  0
  191.9390  178.1270  143.7760 C   0  0  0  0  0  2  0  0  0  0  0  0
  191.7310  176.6360  143.5850 C   0  0  2  0  0  3  0  0  0  0  0  0
  190.5340  177.5700  143.6610 C   0  0  2  0  0  3  0  0  0  0  0  0
  191.8840  175.9290  144.9150 C   0  0  0  0  0  2  0  0  0  0  0  0
  191.6890  176.9220  146.0430 C   0  0  0  0  0  2  0  0  0  0  0  0
  192.0040  176.2520  147.3640 C   0  0  0  0  0  1  0  0  0  0  0  0
  1 14  1  6  0  0  0
  1 34  1  0  0  0  0
  2 20  2  0  0  0  0
  2 12  1  0  0  0  0
  3  6  1  0  0  0  0
  5  8  1  0  0  0  0
  6  9  1  0  0  0  0
  7 14  2  0  0  0  0
  8 11  1  0  0  0  0
  8  3  1  0  0  0  0
  9  4  1  0  0  0  0
  9 21  1  0  0  0  0
 10  5  1  0  0  0  0
 10 15  1  0  0  0  0
 11 19  1  0  0  0  0
 12 16  1  0  0  0  0
 13 24  1  0  0  0  0
 15 18  1  0  0  0  0
 16 11  1  0  0  0  0
 16 14  1  0  0  0  0
 17  4  1  0  0  0  0
 18  3  1  0  0  0  0
 18 13  1  0  0  0  0
 19  1  1  0  0  0  0
 19  6  1  0  0  0  0
 19 23  1  0  0  0  0
 20  5  1  0  0  0  0
 21 26  1  0  0  0  0
 22  2  1  0  0  0  0
 23 17  1  0  0  0  0
 24 21  1  0  0  0  0
 25 31  1  0  0  0  0
 26 27  1  0  0  0  0
 26 25  2  0  0  0  0
 27 30  2  0  0  0  0
 30 28  1  0  0  0  0
 30 29  1  0  0  0  0
 31 29  2  0  0  0  0
 33 34  1  0  0  0  0
 33 32  1  0  0  0  0
 33 35  1  0  0  0  0
 34 32  1  0  0  0  0
 35 36  1  0  0  0  0
 36 37  1  0  0  0  0
M  END
>  <MODEL>
9

>  <REMARK>
 VINA RESULT:      -4.5      3.967      7.643
  Name = 
  4 active torsions:
  status: ('A' for Active; 'I' for Inactive)
    1  A    between atoms: C_1  and  C_36
    2  A    between atoms: C_6  and  C_31
    3  A    between atoms: C_11  and  C_26
    4  A    between atoms: C_17  and  C_26
                            x       y       z     vdW  Elec       q    Type
                         _______ _______ _______ _____ _____    ______ ____

>  <TORSDO>
F 4

$$$$
