=
 OpenBabel10262421213D

 32 34  0  0  1  0  0  0  0  0999 V2000
  185.9990  178.6880  140.4810 C   0  0  0  0  0  2  0  0  0  0  0  0
  185.6940  178.7110  139.1110 O   0  0  0  0  0  0  0  0  0  0  0  0
  186.8060  178.2340  138.3850 C   0  0  2  0  0  3  0  0  0  0  0  0
  186.5360  176.9750  137.5600 C   0  0  0  0  0  1  0  0  0  0  0  0
  188.1370  178.2680  139.1560 C   0  0  2  0  0  3  0  0  0  0  0  0
  188.9840  179.2430  138.6260 O   0  0  0  0  0  1  0  0  0  0  0  0
  188.8550  176.9180  139.2700 C   0  0  0  0  0  2  0  0  0  0  0  0
  190.2250  177.0730  139.7480 N   0  0  0  0  0  0  0  0  0  0  0  0
  190.9190  175.9060  139.3870 N   0  0  0  0  0  0  0  0  0  0  0  0
  190.3690  175.4570  138.1970 O   0  0  0  0  0  0  0  0  0  0  0  0
  191.5310  176.1510  138.1020 C   0  0  2  0  0  3  0  0  0  0  0  0
  192.5860  175.2600  137.9120 O   0  0  0  0  0  1  0  0  0  0  0  0
  190.1560  177.0850  141.2030 C   0  0  0  0  0  2  0  0  0  0  0  0
  191.5100  177.4610  141.7760 C   0  0  0  0  0  2  0  0  0  0  0  0
  191.3650  178.9110  143.7970 C   0  0  0  0  0  1  0  0  0  0  0  0
  191.4560  177.4830  143.2930 C   0  0  0  0  0  2  0  0  0  0  0  0
  184.7200  178.7570  141.3040 C   0  0  2  0  0  3  0  0  0  0  0  0
  184.9720  178.2960  142.7420 C   0  0  2  0  0  3  0  0  0  0  0  0
  184.3610  179.2500  143.7910 C   0  0  0  0  0  2  0  0  0  0  0  0
  188.0950  177.1720  146.1880 C   0  0  1  0  0  3  0  0  0  0  0  0
  186.4700  178.0590  142.9840 C   0  0  0  0  0  2  0  0  0  0  0  0
  186.7070  178.0740  146.9800 S   0  0  0  0  0  0  0  0  0  0  0  0
  186.1840  178.6420  145.3570 C   0  0  2  0  0  3  0  0  0  0  0  0
  184.6760  178.7890  145.2180 C   0  0  0  0  0  2  0  0  0  0  0  0
  188.0470  177.3180  144.7340 N   0  0  0  0  0  2  0  0  0  0  0  0
  189.4140  177.7020  146.7090 C   0  0  0  0  0  1  0  0  0  0  0  0
  186.6580  177.5780  144.4130 C   0  0  2  0  0  3  0  0  0  0  0  0
  183.6050  177.9580  140.6350 C   0  0  0  0  0  2  0  0  0  0  0  0
  182.3600  178.7710  140.5190 C   0  0  0  0  0  0  0  0  0  0  0  0
  182.1360  179.4460  139.4390 N   0  0  0  0  0  2  0  0  0  0  0  0
  180.1290  179.4440  141.4940 C   0  0  0  0  0  1  0  0  0  0  0  0
  181.3850  178.7170  141.5620 N   0  0  0  0  0  2  0  0  0  0  0  0
  2  1  1  0  0  0  0
  3  4  1  1  0  0  0
  3  2  1  0  0  0  0
  3  5  1  0  0  0  0
  5  6  1  6  0  0  0
  5  7  1  0  0  0  0
  7  8  1  0  0  0  0
  8 13  1  0  0  0  0
  9  8  1  0  0  0  0
 10  9  1  0  0  0  0
 11 12  1  1  0  0  0
 11 10  1  0  0  0  0
 11  9  1  0  0  0  0
 13 14  1  0  0  0  0
 14 16  1  0  0  0  0
 16 15  1  0  0  0  0
 17  1  1  6  0  0  0
 18 17  1  6  0  0  0
 18 21  1  0  0  0  0
 18 19  1  0  0  0  0
 19 24  1  0  0  0  0
 20 26  1  1  0  0  0
 20 22  1  0  0  0  0
 23 24  1  1  0  0  0
 23 22  1  0  0  0  0
 25 20  1  0  0  0  0
 27 21  1  6  0  0  0
 27 25  1  0  0  0  0
 27 23  1  0  0  0  0
 28 17  1  0  0  0  0
 29 28  1  0  0  0  0
 29 32  1  0  0  0  0
 30 29  2  0  0  0  0
 31 32  1  0  0  0  0
M  END
>  <MODEL>
1

>  <REMARK>
 VINA RESULT:      -7.2      0.000      0.000
  Name = 
  13 active torsions:
  status: ('A' for Active; 'I' for Inactive)
    1  A    between atoms: O_1  and  C_4
    2  A    between atoms: O_1  and  C_5
    3  A    between atoms: C_2  and  C_14
    4  A    between atoms: N_3  and  N_20
    5  A    between atoms: C_4  and  C_24
    6  A    between atoms: C_5  and  C_14
    7  A    between atoms: C_13  and  C_30
    8  A    between atoms: C_14  and  C_30
    9  A    between atoms: C_15  and  N_20
   10  A    between atoms: C_15  and  C_26
   11  A    between atoms: C_16  and  N_20
   12  A    between atoms: C_16  and  C_24
   13  A    between atoms: C_19  and  C_26
                            x       y       z     vdW  Elec       q    Type
                         _______ _______ _______ _____ _____    ______ ____

>  <TORSDO>
F 13

$$$$
=
 OpenBabel10262421213D

 32 34  0  0  1  0  0  0  0  0999 V2000
  188.6070  176.4550  143.4350 C   0  0  0  0  0  2  0  0  0  0  0  0
  189.4460  177.3100  142.7050 O   0  0  0  0  0  0  0  0  0  0  0  0
  190.4960  176.5520  142.1420 C   0  0  2  0  0  3  0  0  0  0  0  0
  191.6650  176.2790  143.0890 C   0  0  0  0  0  1  0  0  0  0  0  0
  190.8660  176.9430  140.7010 C   0  0  2  0  0  3  0  0  0  0  0  0
  192.1000  177.5940  140.6730 O   0  0  0  0  0  1  0  0  0  0  0  0
  189.7990  177.7540  139.9550 C   0  0  0  0  0  2  0  0  0  0  0  0
  189.8100  177.4750  138.5230 N   0  0  0  0  0  0  0  0  0  0  0  0
  188.5080  177.7080  138.0500 N   0  0  0  0  0  0  0  0  0  0  0  0
  188.2540  179.0620  138.2060 O   0  0  0  0  0  0  0  0  0  0  0  0
  188.6090  178.6530  136.9620 C   0  0  2  0  0  3  0  0  0  0  0  0
  187.4700  178.5660  136.1630 O   0  0  0  0  0  1  0  0  0  0  0  0
  190.0570  176.0470  138.3820 C   0  0  0  0  0  2  0  0  0  0  0  0
  190.9790  175.8010  137.2020 C   0  0  0  0  0  2  0  0  0  0  0  0
  193.4430  176.1670  137.2590 C   0  0  0  0  0  1  0  0  0  0  0  0
  192.3100  175.2470  137.6760 C   0  0  0  0  0  2  0  0  0  0  0  0
  188.1710  177.1270  144.7290 C   0  0  2  0  0  3  0  0  0  0  0  0
  186.9310  177.9970  144.5020 C   0  0  2  0  0  3  0  0  0  0  0  0
  185.9610  177.9790  145.7020 C   0  0  0  0  0  2  0  0  0  0  0  0
  183.0380  178.9670  141.8950 C   0  0  1  0  0  3  0  0  0  0  0  0
  186.2310  177.6150  143.1900 C   0  0  0  0  0  2  0  0  0  0  0  0
  182.5960  179.2270  143.6570 S   0  0  0  0  0  0  0  0  0  0  0  0
  184.0700  178.3150  144.1350 C   0  0  2  0  0  3  0  0  0  0  0  0
  184.7080  178.8160  145.4210 C   0  0  0  0  0  2  0  0  0  0  0  0
  184.3050  178.2440  141.7790 N   0  0  0  0  0  2  0  0  0  0  0  0
  181.9420  178.1860  141.2020 C   0  0  0  0  0  1  0  0  0  0  0  0
  185.0280  178.5250  143.0020 C   0  0  2  0  0  3  0  0  0  0  0  0
  189.3230  177.9210  145.3380 C   0  0  0  0  0  2  0  0  0  0  0  0
  189.9050  177.2080  146.5110 C   0  0  0  0  0  0  0  0  0  0  0  0
  189.1320  176.8310  147.4770 N   0  0  0  0  0  2  0  0  0  0  0  0
  191.9150  176.1290  147.5960 C   0  0  0  0  0  1  0  0  0  0  0  0
  191.2920  176.8660  146.5090 N   0  0  0  0  0  2  0  0  0  0  0  0
  2  1  1  0  0  0  0
  3  2  1  0  0  0  0
  3  4  1  1  0  0  0
  5  6  1  1  0  0  0
  5  3  1  0  0  0  0
  7  5  1  0  0  0  0
  8  7  1  0  0  0  0
  9 10  1  0  0  0  0
  9  8  1  0  0  0  0
 11 12  1  6  0  0  0
 11  9  1  0  0  0  0
 11 10  1  0  0  0  0
 13  8  1  0  0  0  0
 14 16  1  0  0  0  0
 14 13  1  0  0  0  0
 15 16  1  0  0  0  0
 17  1  1  6  0  0  0
 17 28  1  0  0  0  0
 18 17  1  1  0  0  0
 18 19  1  0  0  0  0
 20 26  1  1  0  0  0
 20 22  1  0  0  0  0
 21 18  1  0  0  0  0
 22 23  1  0  0  0  0
 23 24  1  1  0  0  0
 24 19  1  0  0  0  0
 25 20  1  0  0  0  0
 25 27  1  0  0  0  0
 27 21  1  1  0  0  0
 27 23  1  0  0  0  0
 28 29  1  0  0  0  0
 29 30  2  0  0  0  0
 32 29  1  0  0  0  0
 32 31  1  0  0  0  0
M  END
>  <MODEL>
2

>  <REMARK>
 VINA RESULT:      -7.1      2.226      6.129
  Name = 
  13 active torsions:
  status: ('A' for Active; 'I' for Inactive)
    1  A    between atoms: O_1  and  C_4
    2  A    between atoms: O_1  and  C_5
    3  A    between atoms: C_2  and  C_14
    4  A    between atoms: N_3  and  N_20
    5  A    between atoms: C_4  and  C_24
    6  A    between atoms: C_5  and  C_14
    7  A    between atoms: C_13  and  C_30
    8  A    between atoms: C_14  and  C_30
    9  A    between atoms: C_15  and  N_20
   10  A    between atoms: C_15  and  C_26
   11  A    between atoms: C_16  and  N_20
   12  A    between atoms: C_16  and  C_24
   13  A    between atoms: C_19  and  C_26
                            x       y       z     vdW  Elec       q    Type
                         _______ _______ _______ _____ _____    ______ ____

>  <TORSDO>
F 13

$$$$
=
 OpenBabel10262421213D

 32 34  0  0  1  0  0  0  0  0999 V2000
  185.8930  178.2630  144.7440 C   0  0  0  0  0  2  0  0  0  0  0  0
  187.1430  178.0650  145.3490 O   0  0  0  0  0  0  0  0  0  0  0  0
  186.9530  177.8300  146.7280 C   0  0  2  0  0  3  0  0  0  0  0  0
  186.1070  178.8840  147.4440 C   0  0  0  0  0  1  0  0  0  0  0  0
  188.2080  177.3450  147.4740 C   0  0  2  0  0  3  0  0  0  0  0  0
  188.1210  177.6590  148.8310 O   0  0  0  0  0  1  0  0  0  0  0  0
  189.5390  177.8240  146.8820 C   0  0  0  0  0  2  0  0  0  0  0  0
  190.2990  176.7240  146.2980 N   0  0  0  0  0  0  0  0  0  0  0  0
  191.6360  176.8930  146.6950 N   0  0  0  0  0  0  0  0  0  0  0  0
  191.6320  177.0920  148.0670 O   0  0  0  0  0  0  0  0  0  0  0  0
  191.9400  175.8420  147.6390 C   0  0  2  0  0  3  0  0  0  0  0  0
  193.3200  175.6610  147.7030 O   0  0  0  0  0  1  0  0  0  0  0  0
  190.2640  176.9180  144.8550 C   0  0  0  0  0  2  0  0  0  0  0  0
  190.3200  178.4010  144.5370 C   0  0  0  0  0  2  0  0  0  0  0  0
  191.7910  177.5570  142.7110 C   0  0  0  0  0  1  0  0  0  0  0  0
  191.5210  178.7100  143.6610 C   0  0  0  0  0  2  0  0  0  0  0  0
  186.0460  178.3200  143.2300 C   0  0  2  0  0  3  0  0  0  0  0  0
  184.6970  178.1080  142.5370 C   0  0  2  0  0  3  0  0  0  0  0  0
  184.7630  178.3600  141.0150 C   0  0  0  0  0  2  0  0  0  0  0  0
  180.0820  179.2970  142.1210 C   0  0  1  0  0  3  0  0  0  0  0  0
  183.6010  178.9440  143.2120 C   0  0  0  0  0  2  0  0  0  0  0  0
  180.7230  178.9910  140.4290 S   0  0  0  0  0  0  0  0  0  0  0  0
  182.3980  179.1030  141.0710 C   0  0  2  0  0  3  0  0  0  0  0  0
  183.3870  178.1910  140.3610 C   0  0  0  0  0  2  0  0  0  0  0  0
  181.1810  179.4170  143.0790 N   0  0  0  0  0  2  0  0  0  0  0  0
  179.2560  180.5660  142.1340 C   0  0  0  0  0  1  0  0  0  0  0  0
  182.2840  178.6750  142.5030 C   0  0  2  0  0  3  0  0  0  0  0  0
  187.0960  177.3180  142.7570 C   0  0  0  0  0  2  0  0  0  0  0  0
  188.0010  177.9290  141.7410 C   0  0  0  0  0  0  0  0  0  0  0  0
  188.1920  179.2070  141.7430 N   0  0  0  0  0  2  0  0  0  0  0  0
  189.6530  177.6070  139.8580 C   0  0  0  0  0  1  0  0  0  0  0  0
  188.7190  177.0840  140.8400 N   0  0  0  0  0  2  0  0  0  0  0  0
  1  2  1  0  0  0  0
  2  3  1  0  0  0  0
  3  4  1  1  0  0  0
  3  5  1  0  0  0  0
  5  6  1  1  0  0  0
  7  5  1  0  0  0  0
  8  9  1  0  0  0  0
  8  7  1  0  0  0  0
  9 11  1  0  0  0  0
  9 10  1  0  0  0  0
 11 12  1  6  0  0  0
 11 10  1  0  0  0  0
 13  8  1  0  0  0  0
 14 13  1  0  0  0  0
 15 16  1  0  0  0  0
 16 14  1  0  0  0  0
 17 28  1  6  0  0  0
 17  1  1  0  0  0  0
 18 21  1  0  0  0  0
 18 17  1  1  0  0  0
 19 18  1  0  0  0  0
 20 26  1  6  0  0  0
 20 25  1  0  0  0  0
 22 23  1  0  0  0  0
 22 20  1  0  0  0  0
 23 24  1  6  0  0  0
 23 27  1  0  0  0  0
 24 19  1  0  0  0  0
 27 25  1  0  0  0  0
 27 21  1  1  0  0  0
 29 30  2  0  0  0  0
 29 28  1  0  0  0  0
 31 32  1  0  0  0  0
 32 29  1  0  0  0  0
M  END
>  <MODEL>
3

>  <REMARK>
 VINA RESULT:      -7.0      3.973      7.044
  Name = 
  13 active torsions:
  status: ('A' for Active; 'I' for Inactive)
    1  A    between atoms: O_1  and  C_4
    2  A    between atoms: O_1  and  C_5
    3  A    between atoms: C_2  and  C_14
    4  A    between atoms: N_3  and  N_20
    5  A    between atoms: C_4  and  C_24
    6  A    between atoms: C_5  and  C_14
    7  A    between atoms: C_13  and  C_30
    8  A    between atoms: C_14  and  C_30
    9  A    between atoms: C_15  and  N_20
   10  A    between atoms: C_15  and  C_26
   11  A    between atoms: C_16  and  N_20
   12  A    between atoms: C_16  and  C_24
   13  A    between atoms: C_19  and  C_26
                            x       y       z     vdW  Elec       q    Type
                         _______ _______ _______ _____ _____    ______ ____

>  <TORSDO>
F 13

$$$$
=
 OpenBabel10262421213D

 32 34  0  0  1  0  0  0  0  0999 V2000
  188.8450  176.9700  144.5230 C   0  0  0  0  0  2  0  0  0  0  0  0
  187.4910  177.3400  144.5030 O   0  0  0  0  0  0  0  0  0  0  0  0
  187.2240  178.1640  145.6170 C   0  0  2  0  0  3  0  0  0  0  0  0
  187.6080  177.5560  146.9670 C   0  0  0  0  0  1  0  0  0  0  0  0
  185.8730  178.8970  145.5620 C   0  0  2  0  0  3  0  0  0  0  0  0
  185.3790  179.1090  146.8500 O   0  0  0  0  0  1  0  0  0  0  0  0
  184.8140  178.2390  144.6690 C   0  0  0  0  0  2  0  0  0  0  0  0
  184.2060  179.1980  143.7530 N   0  0  0  0  0  0  0  0  0  0  0  0
  183.0340  178.6030  143.2550 N   0  0  0  0  0  0  0  0  0  0  0  0
  182.1550  178.4830  144.3210 O   0  0  0  0  0  0  0  0  0  0  0  0
  181.9510  179.5320  143.4850 C   0  0  2  0  0  3  0  0  0  0  0  0
  180.8960  179.2360  142.6230 O   0  0  0  0  0  1  0  0  0  0  0  0
  185.1190  179.3290  142.6260 C   0  0  0  0  0  2  0  0  0  0  0  0
  184.6860  178.4000  141.5060 C   0  0  0  0  0  2  0  0  0  0  0  0
  183.2290  179.0240  139.5840 C   0  0  0  0  0  1  0  0  0  0  0  0
  184.6140  179.1540  140.1910 C   0  0  0  0  0  2  0  0  0  0  0  0
  189.6550  177.8920  143.6230 C   0  0  2  0  0  3  0  0  0  0  0  0
  189.6420  177.3900  142.1760 C   0  0  2  0  0  3  0  0  0  0  0  0
  191.0380  177.4340  141.5170 C   0  0  0  0  0  2  0  0  0  0  0  0
  187.9750  177.8200  137.7130 C   0  0  1  0  0  3  0  0  0  0  0  0
  188.5910  178.1430  141.3480 C   0  0  0  0  0  2  0  0  0  0  0  0
  189.7520  177.3790  137.5930 S   0  0  0  0  0  0  0  0  0  0  0  0
  189.9520  177.8230  139.3230 C   0  0  2  0  0  3  0  0  0  0  0  0
  190.9810  176.9760  140.0560 C   0  0  0  0  0  2  0  0  0  0  0  0
  187.6320  178.2320  139.0740 N   0  0  0  0  0  2  0  0  0  0  0  0
  187.6600  178.9440  136.7470 C   0  0  0  0  0  1  0  0  0  0  0  0
  188.6040  177.5870  139.9330 C   0  0  2  0  0  3  0  0  0  0  0  0
  191.0740  178.0570  144.1590 C   0  0  0  0  0  2  0  0  0  0  0  0
  191.4860  176.8690  144.9610 C   0  0  0  0  0  0  0  0  0  0  0  0
  191.7940  175.7670  144.3580 N   0  0  0  0  0  2  0  0  0  0  0  0
  192.0690  175.8900  147.2150 C   0  0  0  0  0  1  0  0  0  0  0  0
  191.6260  176.9920  146.3770 N   0  0  0  0  0  2  0  0  0  0  0  0
  2  1  1  0  0  0  0
  2  3  1  0  0  0  0
  3  4  1  1  0  0  0
  5  3  1  0  0  0  0
  5  6  1  1  0  0  0
  7  5  1  0  0  0  0
  8  7  1  0  0  0  0
  9 11  1  0  0  0  0
  9  8  1  0  0  0  0
  9 10  1  0  0  0  0
 11 12  1  6  0  0  0
 11 10  1  0  0  0  0
 13  8  1  0  0  0  0
 14 13  1  0  0  0  0
 15 16  1  0  0  0  0
 16 14  1  0  0  0  0
 17 28  1  1  0  0  0
 17  1  1  0  0  0  0
 18 17  1  1  0  0  0
 19 18  1  0  0  0  0
 20 26  1  6  0  0  0
 20 25  1  0  0  0  0
 21 18  1  0  0  0  0
 22 20  1  0  0  0  0
 22 23  1  0  0  0  0
 23 27  1  0  0  0  0
 23 24  1  1  0  0  0
 24 19  1  0  0  0  0
 25 27  1  0  0  0  0
 27 21  1  1  0  0  0
 28 29  1  0  0  0  0
 29 32  1  0  0  0  0
 30 29  2  0  0  0  0
 32 31  1  0  0  0  0
M  END
>  <MODEL>
4

>  <REMARK>
 VINA RESULT:      -7.0      3.547      8.577
  Name = 
  13 active torsions:
  status: ('A' for Active; 'I' for Inactive)
    1  A    between atoms: O_1  and  C_4
    2  A    between atoms: O_1  and  C_5
    3  A    between atoms: C_2  and  C_14
    4  A    between atoms: N_3  and  N_20
    5  A    between atoms: C_4  and  C_24
    6  A    between atoms: C_5  and  C_14
    7  A    between atoms: C_13  and  C_30
    8  A    between atoms: C_14  and  C_30
    9  A    between atoms: C_15  and  N_20
   10  A    between atoms: C_15  and  C_26
   11  A    between atoms: C_16  and  N_20
   12  A    between atoms: C_16  and  C_24
   13  A    between atoms: C_19  and  C_26
                            x       y       z     vdW  Elec       q    Type
                         _______ _______ _______ _____ _____    ______ ____

>  <TORSDO>
F 13

$$$$
=
 OpenBabel10262421213D

 32 34  0  0  1  0  0  0  0  0999 V2000
  188.8560  176.4080  143.1890 C   0  0  0  0  0  2  0  0  0  0  0  0
  190.1670  176.7400  142.8140 O   0  0  0  0  0  0  0  0  0  0  0  0
  190.1380  177.3540  141.5430 C   0  0  2  0  0  3  0  0  0  0  0  0
  188.7580  177.3970  140.8860 C   0  0  0  0  0  1  0  0  0  0  0  0
  191.3160  176.9800  140.6260 C   0  0  2  0  0  3  0  0  0  0  0  0
  192.4570  177.7030  140.9780 O   0  0  0  0  0  1  0  0  0  0  0  0
  191.0300  177.1000  139.1240 C   0  0  0  0  0  2  0  0  0  0  0  0
  191.4890  175.9250  138.3910 N   0  0  0  0  0  0  0  0  0  0  0  0
  192.3230  176.3860  137.3580 N   0  0  0  0  0  0  0  0  0  0  0  0
  193.4760  176.8740  137.9530 O   0  0  0  0  0  0  0  0  0  0  0  0
  193.5500  175.6260  137.4260 C   0  0  2  0  0  3  0  0  0  0  0  0
  194.2010  175.6840  136.1940 O   0  0  0  0  0  1  0  0  0  0  0  0
  190.3130  175.3510  137.7530 C   0  0  0  0  0  2  0  0  0  0  0  0
  189.5160  176.4470  137.0680 C   0  0  0  0  0  2  0  0  0  0  0  0
  187.2630  176.1130  136.0560 C   0  0  0  0  0  1  0  0  0  0  0  0
  188.0340  176.2810  137.3530 C   0  0  0  0  0  2  0  0  0  0  0  0
  188.5390  176.9910  144.5590 C   0  0  2  0  0  3  0  0  0  0  0  0
  187.2940  177.8810  144.4980 C   0  0  2  0  0  3  0  0  0  0  0  0
  186.4120  177.7620  145.7590 C   0  0  0  0  0  2  0  0  0  0  0  0
  183.2350  179.0880  142.2730 C   0  0  1  0  0  3  0  0  0  0  0  0
  186.4990  177.6170  143.2110 C   0  0  0  0  0  2  0  0  0  0  0  0
  182.9220  179.1940  144.0780 S   0  0  0  0  0  0  0  0  0  0  0  0
  184.4170  178.2390  144.3670 C   0  0  2  0  0  3  0  0  0  0  0  0
  185.1500  178.6240  145.6430 C   0  0  0  0  0  2  0  0  0  0  0  0
  184.4830  178.3740  142.0030 N   0  0  0  0  0  2  0  0  0  0  0  0
  182.0840  178.3740  141.5950 C   0  0  0  0  0  1  0  0  0  0  0  0
  185.2940  178.5450  143.1910 C   0  0  2  0  0  3  0  0  0  0  0  0
  189.7470  177.7350  145.1210 C   0  0  0  0  0  2  0  0  0  0  0  0
  190.2940  177.0390  146.3210 C   0  0  0  0  0  0  0  0  0  0  0  0
  189.4970  176.6990  147.2810 N   0  0  0  0  0  2  0  0  0  0  0  0
  192.2640  175.9510  147.4690 C   0  0  0  0  0  1  0  0  0  0  0  0
  191.6750  176.6720  146.3530 N   0  0  0  0  0  2  0  0  0  0  0  0
  2  1  1  0  0  0  0
  3  4  1  6  0  0  0
  3  2  1  0  0  0  0
  5  6  1  1  0  0  0
  5  3  1  0  0  0  0
  7  5  1  0  0  0  0
  8  7  1  0  0  0  0
  9 11  1  0  0  0  0
  9 10  1  0  0  0  0
  9  8  1  0  0  0  0
 11 12  1  6  0  0  0
 11 10  1  0  0  0  0
 13  8  1  0  0  0  0
 14 16  1  0  0  0  0
 14 13  1  0  0  0  0
 15 16  1  0  0  0  0
 17  1  1  6  0  0  0
 17 28  1  0  0  0  0
 18 17  1  1  0  0  0
 18 19  1  0  0  0  0
 20 26  1  6  0  0  0
 20 22  1  0  0  0  0
 21 18  1  0  0  0  0
 22 23  1  0  0  0  0
 23 24  1  1  0  0  0
 24 19  1  0  0  0  0
 25 20  1  0  0  0  0
 25 27  1  0  0  0  0
 27 21  1  6  0  0  0
 27 23  1  0  0  0  0
 28 29  1  0  0  0  0
 29 32  1  0  0  0  0
 29 30  2  0  0  0  0
 32 31  1  0  0  0  0
M  END
>  <MODEL>
5

>  <REMARK>
 VINA RESULT:      -6.8      2.466      6.065
  Name = 
  13 active torsions:
  status: ('A' for Active; 'I' for Inactive)
    1  A    between atoms: O_1  and  C_4
    2  A    between atoms: O_1  and  C_5
    3  A    between atoms: C_2  and  C_14
    4  A    between atoms: N_3  and  N_20
    5  A    between atoms: C_4  and  C_24
    6  A    between atoms: C_5  and  C_14
    7  A    between atoms: C_13  and  C_30
    8  A    between atoms: C_14  and  C_30
    9  A    between atoms: C_15  and  N_20
   10  A    between atoms: C_15  and  C_26
   11  A    between atoms: C_16  and  N_20
   12  A    between atoms: C_16  and  C_24
   13  A    between atoms: C_19  and  C_26
                            x       y       z     vdW  Elec       q    Type
                         _______ _______ _______ _____ _____    ______ ____

>  <TORSDO>
F 13

$$$$
=
 OpenBabel10262421213D

 32 34  0  0  1  0  0  0  0  0999 V2000
  190.9740  177.2870  140.8300 C   0  0  0  0  0  2  0  0  0  0  0  0
  190.5060  176.4620  141.8650 O   0  0  0  0  0  0  0  0  0  0  0  0
  191.2420  176.7370  143.0380 C   0  0  2  0  0  3  0  0  0  0  0  0
  191.6750  175.4980  143.8230 C   0  0  0  0  0  1  0  0  0  0  0  0
  190.7060  177.9150  143.8690 C   0  0  2  0  0  3  0  0  0  0  0  0
  191.5660  179.0110  143.7730 O   0  0  0  0  0  1  0  0  0  0  0  0
  190.3950  177.5860  145.3330 C   0  0  0  0  0  2  0  0  0  0  0  0
  189.0780  178.0740  145.7290 N   0  0  0  0  0  0  0  0  0  0  0  0
  188.6410  177.2620  146.7900 N   0  0  0  0  0  0  0  0  0  0  0  0
  189.7070  177.1300  147.6670 O   0  0  0  0  0  0  0  0  0  0  0  0
  188.7580  178.0400  148.0020 C   0  0  2  0  0  3  0  0  0  0  0  0
  187.9280  177.4990  148.9820 O   0  0  0  0  0  1  0  0  0  0  0  0
  188.1860  177.8120  144.6080 C   0  0  0  0  0  2  0  0  0  0  0  0
  186.8790  177.2330  145.1190 C   0  0  0  0  0  2  0  0  0  0  0  0
  185.4370  178.8420  146.3590 C   0  0  0  0  0  1  0  0  0  0  0  0
  185.7630  178.2550  144.9990 C   0  0  0  0  0  2  0  0  0  0  0  0
  190.0850  177.1440  139.6030 C   0  0  2  0  0  3  0  0  0  0  0  0
  190.8720  176.5640  138.4230 C   0  0  2  0  0  3  0  0  0  0  0  0
  190.2460  175.2660  137.8680 C   0  0  0  0  0  2  0  0  0  0  0  0
  194.9880  174.8250  136.7140 C   0  0  1  0  0  3  0  0  0  0  0  0
  192.3500  176.3780  138.7950 C   0  0  0  0  0  2  0  0  0  0  0  0
  193.6280  173.8400  135.9740 S   0  0  0  0  0  0  0  0  0  0  0  0
  192.5110  174.4920  137.2230 C   0  0  2  0  0  3  0  0  0  0  0  0
  191.0860  174.6850  136.7260 C   0  0  0  0  0  2  0  0  0  0  0  0
  194.4980  175.6270  137.8360 N   0  0  0  0  0  2  0  0  0  0  0  0
  196.0880  173.9010  137.1930 C   0  0  0  0  0  1  0  0  0  0  0  0
  193.0860  175.8280  137.5830 C   0  0  2  0  0  3  0  0  0  0  0  0
  189.4310  178.4780  139.2530 C   0  0  0  0  0  2  0  0  0  0  0  0
  187.9860  178.4790  139.6230 C   0  0  0  0  0  0  0  0  0  0  0  0
  187.0950  178.2360  138.7180 N   0  0  0  0  0  2  0  0  0  0  0  0
  186.2250  178.6200  141.4280 C   0  0  0  0  0  1  0  0  0  0  0  0
  187.6100  178.6550  140.9900 N   0  0  0  0  0  2  0  0  0  0  0  0
  1  2  1  0  0  0  0
  2  3  1  0  0  0  0
  3  4  1  1  0  0  0
  3  5  1  0  0  0  0
  5  6  1  1  0  0  0
  5  7  1  0  0  0  0
  7  8  1  0  0  0  0
  8  9  1  0  0  0  0
  9 10  1  0  0  0  0
  9 11  1  0  0  0  0
 10 11  1  0  0  0  0
 11 12  1  1  0  0  0
 13 14  1  0  0  0  0
 13  8  1  0  0  0  0
 16 14  1  0  0  0  0
 16 15  1  0  0  0  0
 17 28  1  6  0  0  0
 17  1  1  0  0  0  0
 18 21  1  0  0  0  0
 18 17  1  1  0  0  0
 19 18  1  0  0  0  0
 20 26  1  1  0  0  0
 20 25  1  0  0  0  0
 22 20  1  0  0  0  0
 22 23  1  0  0  0  0
 23 24  1  6  0  0  0
 23 27  1  0  0  0  0
 24 19  1  0  0  0  0
 27 25  1  0  0  0  0
 27 21  1  1  0  0  0
 28 29  1  0  0  0  0
 29 32  1  0  0  0  0
 30 29  2  0  0  0  0
 32 31  1  0  0  0  0
M  END
>  <MODEL>
6

>  <REMARK>
 VINA RESULT:      -6.8      4.149      8.240
  Name = 
  13 active torsions:
  status: ('A' for Active; 'I' for Inactive)
    1  A    between atoms: O_1  and  C_4
    2  A    between atoms: O_1  and  C_5
    3  A    between atoms: C_2  and  C_14
    4  A    between atoms: N_3  and  N_20
    5  A    between atoms: C_4  and  C_24
    6  A    between atoms: C_5  and  C_14
    7  A    between atoms: C_13  and  C_30
    8  A    between atoms: C_14  and  C_30
    9  A    between atoms: C_15  and  N_20
   10  A    between atoms: C_15  and  C_26
   11  A    between atoms: C_16  and  N_20
   12  A    between atoms: C_16  and  C_24
   13  A    between atoms: C_19  and  C_26
                            x       y       z     vdW  Elec       q    Type
                         _______ _______ _______ _____ _____    ______ ____

>  <TORSDO>
F 13

$$$$
=
 OpenBabel10262421213D

 32 34  0  0  1  0  0  0  0  0999 V2000
  190.3170  177.5160  140.1430 C   0  0  0  0  0  2  0  0  0  0  0  0
  189.3070  177.7640  141.0860 O   0  0  0  0  0  0  0  0  0  0  0  0
  189.8630  177.6950  142.3810 C   0  0  2  0  0  3  0  0  0  0  0  0
  191.3780  177.4880  142.4150 C   0  0  0  0  0  1  0  0  0  0  0  0
  189.0420  176.8710  143.3880 C   0  0  2  0  0  3  0  0  0  0  0  0
  188.7130  175.6270  142.8460 O   0  0  0  0  0  1  0  0  0  0  0  0
  187.7980  177.5760  143.9410 C   0  0  0  0  0  2  0  0  0  0  0  0
  187.7200  177.4770  145.3940 N   0  0  0  0  0  0  0  0  0  0  0  0
  186.8660  178.5030  145.8310 N   0  0  0  0  0  0  0  0  0  0  0  0
  185.7400  178.4670  145.0220 O   0  0  0  0  0  0  0  0  0  0  0  0
  185.6270  177.8840  146.2420 C   0  0  2  0  0  3  0  0  0  0  0  0
  184.9420  178.7420  147.1000 O   0  0  0  0  0  1  0  0  0  0  0  0
  189.0480  177.7950  145.9010 C   0  0  0  0  0  2  0  0  0  0  0  0
  189.2570  177.1200  147.2450 C   0  0  0  0  0  2  0  0  0  0  0  0
  191.4070  176.7690  146.0350 C   0  0  0  0  0  1  0  0  0  0  0  0
  190.6600  176.5480  147.3370 C   0  0  0  0  0  2  0  0  0  0  0  0
  189.7020  177.2320  138.7790 C   0  0  2  0  0  3  0  0  0  0  0  0
  190.6900  176.4790  137.8830 C   0  0  2  0  0  3  0  0  0  0  0  0
  190.1790  175.0800  137.4750 C   0  0  0  0  0  2  0  0  0  0  0  0
  195.0520  174.6140  137.2680 C   0  0  1  0  0  3  0  0  0  0  0  0
  192.0790  176.4170  138.5340 C   0  0  0  0  0  2  0  0  0  0  0  0
  193.8500  173.4620  136.4960 S   0  0  0  0  0  0  0  0  0  0  0  0
  192.5250  174.2860  137.3880 C   0  0  2  0  0  3  0  0  0  0  0  0
  191.2110  174.3340  136.6240 C   0  0  0  0  0  2  0  0  0  0  0  0
  194.3660  175.5860  138.1190 N   0  0  0  0  0  2  0  0  0  0  0  0
  196.0530  173.8320  138.0930 C   0  0  0  0  0  1  0  0  0  0  0  0
  193.0210  175.6860  137.5920 C   0  0  2  0  0  3  0  0  0  0  0  0
  189.2110  178.5230  138.1300 C   0  0  0  0  0  2  0  0  0  0  0  0
  187.7960  178.3900  137.6770 C   0  0  0  0  0  0  0  0  0  0  0  0
  187.5440  178.1620  136.4300 N   0  0  0  0  0  2  0  0  0  0  0  0
  185.3470  178.2510  138.2770 C   0  0  0  0  0  1  0  0  0  0  0  0
  186.7430  178.4220  138.6420 N   0  0  0  0  0  2  0  0  0  0  0  0
  1  2  1  0  0  0  0
  2  3  1  0  0  0  0
  3  4  1  6  0  0  0
  3  5  1  0  0  0  0
  5  6  1  6  0  0  0
  5  7  1  0  0  0  0
  7  8  1  0  0  0  0
  8  9  1  0  0  0  0
  8 13  1  0  0  0  0
  9 11  1  0  0  0  0
 10  9  1  0  0  0  0
 10 11  1  0  0  0  0
 11 12  1  1  0  0  0
 13 14  1  0  0  0  0
 14 16  1  0  0  0  0
 15 16  1  0  0  0  0
 17 28  1  6  0  0  0
 17  1  1  0  0  0  0
 18 21  1  0  0  0  0
 18 17  1  1  0  0  0
 19 18  1  0  0  0  0
 20 26  1  1  0  0  0
 20 25  1  0  0  0  0
 22 20  1  0  0  0  0
 22 23  1  0  0  0  0
 23 24  1  6  0  0  0
 23 27  1  0  0  0  0
 24 19  1  0  0  0  0
 27 25  1  0  0  0  0
 27 21  1  1  0  0  0
 29 28  1  0  0  0  0
 29 32  1  0  0  0  0
 30 29  2  0  0  0  0
 31 32  1  0  0  0  0
M  END
>  <MODEL>
7

>  <REMARK>
 VINA RESULT:      -6.7      3.803      7.961
  Name = 
  13 active torsions:
  status: ('A' for Active; 'I' for Inactive)
    1  A    between atoms: O_1  and  C_4
    2  A    between atoms: O_1  and  C_5
    3  A    between atoms: C_2  and  C_14
    4  A    between atoms: N_3  and  N_20
    5  A    between atoms: C_4  and  C_24
    6  A    between atoms: C_5  and  C_14
    7  A    between atoms: C_13  and  C_30
    8  A    between atoms: C_14  and  C_30
    9  A    between atoms: C_15  and  N_20
   10  A    between atoms: C_15  and  C_26
   11  A    between atoms: C_16  and  N_20
   12  A    between atoms: C_16  and  C_24
   13  A    between atoms: C_19  and  C_26
                            x       y       z     vdW  Elec       q    Type
                         _______ _______ _______ _____ _____    ______ ____

>  <TORSDO>
F 13

$$$$
=
 OpenBabel10262421213D

 32 34  0  0  1  0  0  0  0  0999 V2000
  188.6320  178.2470  144.9540 C   0  0  0  0  0  2  0  0  0  0  0  0
  189.0510  177.5920  143.7860 O   0  0  0  0  0  0  0  0  0  0  0  0
  190.4620  177.5960  143.7390 C   0  0  2  0  0  3  0  0  0  0  0  0
  191.1040  178.9650  143.9660 C   0  0  0  0  0  1  0  0  0  0  0  0
  191.0670  176.7400  142.6130 C   0  0  2  0  0  3  0  0  0  0  0  0
  192.1370  175.9840  143.0960 O   0  0  0  0  0  1  0  0  0  0  0  0
  191.4650  177.5150  141.3520 C   0  0  0  0  0  2  0  0  0  0  0  0
  191.4570  176.6640  140.1670 N   0  0  0  0  0  0  0  0  0  0  0  0
  192.2390  177.3070  139.1930 N   0  0  0  0  0  0  0  0  0  0  0  0
  193.5510  177.2750  139.6400 O   0  0  0  0  0  0  0  0  0  0  0  0
  193.2050  176.3450  138.7150 C   0  0  2  0  0  3  0  0  0  0  0  0
  193.6740  176.7420  137.4640 O   0  0  0  0  0  1  0  0  0  0  0  0
  190.0880  176.6620  139.6700 C   0  0  0  0  0  2  0  0  0  0  0  0
  189.6700  178.0780  139.3190 C   0  0  0  0  0  2  0  0  0  0  0  0
  187.7920  178.6240  140.8630 C   0  0  0  0  0  1  0  0  0  0  0  0
  188.1650  178.2330  139.4450 C   0  0  0  0  0  2  0  0  0  0  0  0
  187.3620  177.6000  145.4910 C   0  0  2  0  0  3  0  0  0  0  0  0
  186.1200  178.3460  144.9950 C   0  0  2  0  0  3  0  0  0  0  0  0
  184.9510  178.2940  146.0030 C   0  0  0  0  0  2  0  0  0  0  0  0
  182.7020  178.8500  141.6860 C   0  0  1  0  0  3  0  0  0  0  0  0
  185.7030  177.8460  143.6050 C   0  0  0  0  0  2  0  0  0  0  0  0
  181.9270  179.1470  143.3230 S   0  0  0  0  0  0  0  0  0  0  0  0
  183.3570  178.3910  144.1070 C   0  0  2  0  0  3  0  0  0  0  0  0
  183.7080  179.0030  145.4550 C   0  0  0  0  0  2  0  0  0  0  0  0
  184.0220  178.2390  141.8390 N   0  0  0  0  0  2  0  0  0  0  0  0
  181.8160  177.9450  140.8560 C   0  0  0  0  0  1  0  0  0  0  0  0
  184.4860  178.6360  143.1530 C   0  0  2  0  0  3  0  0  0  0  0  0
  187.4050  177.5110  147.0140 C   0  0  0  0  0  2  0  0  0  0  0  0
  188.8090  177.5670  147.5140 C   0  0  0  0  0  0  0  0  0  0  0  0
  189.1150  178.3840  148.4690 N   0  0  0  0  0  2  0  0  0  0  0  0
  191.1500  176.6170  147.4740 C   0  0  0  0  0  1  0  0  0  0  0  0
  189.7770  176.6510  146.9980 N   0  0  0  0  0  2  0  0  0  0  0  0
  2  1  1  0  0  0  0
  3  2  1  0  0  0  0
  3  4  1  6  0  0  0
  5  6  1  1  0  0  0
  5  3  1  0  0  0  0
  7  5  1  0  0  0  0
  8  7  1  0  0  0  0
  9 10  1  0  0  0  0
  9  8  1  0  0  0  0
 11 12  1  6  0  0  0
 11  9  1  0  0  0  0
 11 10  1  0  0  0  0
 13  8  1  0  0  0  0
 14 16  1  0  0  0  0
 14 13  1  0  0  0  0
 16 15  1  0  0  0  0
 17  1  1  1  0  0  0
 17 28  1  0  0  0  0
 18 17  1  1  0  0  0
 18 19  1  0  0  0  0
 20 26  1  6  0  0  0
 20 25  1  0  0  0  0
 20 22  1  0  0  0  0
 21 18  1  0  0  0  0
 22 23  1  0  0  0  0
 23 24  1  1  0  0  0
 24 19  1  0  0  0  0
 25 27  1  0  0  0  0
 27 21  1  1  0  0  0
 27 23  1  0  0  0  0
 28 29  1  0  0  0  0
 29 30  2  0  0  0  0
 32 31  1  0  0  0  0
 32 29  1  0  0  0  0
M  END
>  <MODEL>
8

>  <REMARK>
 VINA RESULT:      -6.7      2.414      5.982
  Name = 
  13 active torsions:
  status: ('A' for Active; 'I' for Inactive)
    1  A    between atoms: O_1  and  C_4
    2  A    between atoms: O_1  and  C_5
    3  A    between atoms: C_2  and  C_14
    4  A    between atoms: N_3  and  N_20
    5  A    between atoms: C_4  and  C_24
    6  A    between atoms: C_5  and  C_14
    7  A    between atoms: C_13  and  C_30
    8  A    between atoms: C_14  and  C_30
    9  A    between atoms: C_15  and  N_20
   10  A    between atoms: C_15  and  C_26
   11  A    between atoms: C_16  and  N_20
   12  A    between atoms: C_16  and  C_24
   13  A    between atoms: C_19  and  C_26
                            x       y       z     vdW  Elec       q    Type
                         _______ _______ _______ _____ _____    ______ ____

>  <TORSDO>
F 13

$$$$
=
 OpenBabel10262421213D

 32 34  0  0  1  0  0  0  0  0999 V2000
  188.5180  176.6900  143.2380 C   0  0  0  0  0  2  0  0  0  0  0  0
  189.5030  177.5200  142.6810 O   0  0  0  0  0  0  0  0  0  0  0  0
  190.4880  176.7160  142.0680 C   0  0  2  0  0  3  0  0  0  0  0  0
  191.6720  176.3610  142.9680 C   0  0  0  0  0  1  0  0  0  0  0  0
  190.8280  177.1120  140.6210 C   0  0  2  0  0  3  0  0  0  0  0  0
  192.1210  177.6320  140.5490 O   0  0  0  0  0  1  0  0  0  0  0  0
  189.8180  178.0530  139.9520 C   0  0  0  0  0  2  0  0  0  0  0  0
  188.8310  177.3180  139.1680 N   0  0  0  0  0  0  0  0  0  0  0  0
  189.0120  177.6940  137.8260 N   0  0  0  0  0  0  0  0  0  0  0  0
  190.3250  177.3980  137.4940 O   0  0  0  0  0  0  0  0  0  0  0  0
  189.3850  176.5050  137.0940 C   0  0  2  0  0  3  0  0  0  0  0  0
  189.1190  176.6920  135.7390 O   0  0  0  0  0  1  0  0  0  0  0  0
  187.5260  177.8220  139.5710 C   0  0  0  0  0  2  0  0  0  0  0  0
  186.6510  178.0130  138.3450 C   0  0  0  0  0  2  0  0  0  0  0  0
  184.1750  177.8390  138.1320 C   0  0  0  0  0  1  0  0  0  0  0  0
  185.3210  178.6310  138.7350 C   0  0  0  0  0  2  0  0  0  0  0  0
  188.1040  177.2130  144.6070 C   0  0  2  0  0  3  0  0  0  0  0  0
  186.8210  178.0430  144.5090 C   0  0  2  0  0  3  0  0  0  0  0  0
  185.9040  177.8710  145.7390 C   0  0  0  0  0  2  0  0  0  0  0  0
  182.7840  179.0680  142.1550 C   0  0  1  0  0  3  0  0  0  0  0  0
  186.0820  177.7500  143.1950 C   0  0  0  0  0  2  0  0  0  0  0  0
  182.4060  179.1460  143.9500 S   0  0  0  0  0  0  0  0  0  0  0  0
  183.9360  178.2620  144.2830 C   0  0  2  0  0  3  0  0  0  0  0  0
  184.6060  178.6720  145.5850 C   0  0  0  0  0  2  0  0  0  0  0  0
  184.0730  178.4180  141.9230 N   0  0  0  0  0  2  0  0  0  0  0  0
  181.6930  178.3040  141.4350 C   0  0  0  0  0  1  0  0  0  0  0  0
  184.8360  178.6180  143.1390 C   0  0  2  0  0  3  0  0  0  0  0  0
  189.2440  177.9970  145.2510 C   0  0  0  0  0  2  0  0  0  0  0  0
  189.8360  177.2410  146.3920 C   0  0  0  0  0  0  0  0  0  0  0  0
  189.1010  176.9500  147.4150 N   0  0  0  0  0  2  0  0  0  0  0  0
  191.8050  175.9830  147.3530 C   0  0  0  0  0  1  0  0  0  0  0  0
  191.1810  176.7660  146.3000 N   0  0  0  0  0  2  0  0  0  0  0  0
  2  1  1  0  0  0  0
  3  2  1  0  0  0  0
  3  4  1  1  0  0  0
  5  6  1  1  0  0  0
  5  3  1  0  0  0  0
  7  5  1  0  0  0  0
  8 13  1  0  0  0  0
  8  7  1  0  0  0  0
  9  8  1  0  0  0  0
 10  9  1  0  0  0  0
 11 12  1  6  0  0  0
 11 10  1  0  0  0  0
 11  9  1  0  0  0  0
 14 16  1  0  0  0  0
 14 13  1  0  0  0  0
 15 16  1  0  0  0  0
 17  1  1  6  0  0  0
 17 28  1  0  0  0  0
 18 17  1  1  0  0  0
 18 19  1  0  0  0  0
 20 26  1  6  0  0  0
 20 22  1  0  0  0  0
 21 18  1  0  0  0  0
 22 23  1  0  0  0  0
 23 24  1  1  0  0  0
 24 19  1  0  0  0  0
 25 20  1  0  0  0  0
 25 27  1  0  0  0  0
 27 21  1  6  0  0  0
 27 23  1  0  0  0  0
 28 29  1  0  0  0  0
 29 30  2  0  0  0  0
 32 29  1  0  0  0  0
 32 31  1  0  0  0  0
M  END
>  <MODEL>
9

>  <REMARK>
 VINA RESULT:      -6.6      2.231      6.132
  Name = 
  13 active torsions:
  status: ('A' for Active; 'I' for Inactive)
    1  A    between atoms: O_1  and  C_4
    2  A    between atoms: O_1  and  C_5
    3  A    between atoms: C_2  and  C_14
    4  A    between atoms: N_3  and  N_20
    5  A    between atoms: C_4  and  C_24
    6  A    between atoms: C_5  and  C_14
    7  A    between atoms: C_13  and  C_30
    8  A    between atoms: C_14  and  C_30
    9  A    between atoms: C_15  and  N_20
   10  A    between atoms: C_15  and  C_26
   11  A    between atoms: C_16  and  N_20
   12  A    between atoms: C_16  and  C_24
   13  A    between atoms: C_19  and  C_26
                            x       y       z     vdW  Elec       q    Type
                         _______ _______ _______ _____ _____    ______ ____

>  <TORSDO>
F 13

$$$$
