=
 OpenBabel10262420193D

 55 60  0  0  1  0  0  0  0  0999 V2000
  185.2410  177.1260  136.2090 C   0  0  0  0  0  2  0  0  0  0  0  0
  187.1540  178.1320  141.2320 C   0  0  0  0  0  2  0  0  0  0  0  0
  184.5480  178.7870  142.6720 C   0  0  0  0  0  1  0  0  0  0  0  0
  181.5310  178.5110  139.6590 C   0  0  0  0  0  2  0  0  0  0  0  0
  180.3320  179.4110  139.3850 C   0  0  0  0  0  2  0  0  0  0  0  0
  182.3770  179.0300  137.3040 C   0  0  1  0  0  3  0  0  0  0  0  0
  181.1100  179.8480  137.0600 C   0  0  0  0  0  2  0  0  0  0  0  0
  184.2710  177.6940  140.4490 C   0  0  0  0  0  2  0  0  0  0  0  0
  179.9550  179.3350  137.9120 C   0  0  0  0  0  2  0  0  0  0  0  0
  186.3240  178.9660  137.3510 O   0  0  0  0  0  0  0  0  0  0  0  0
  182.7440  178.9390  138.8120 C   0  0  2  0  0  3  0  0  0  0  0  0
  188.6040  178.2300  137.2490 C   0  0  1  0  0  0  0  0  0  0  0  0
  185.0010  176.2640  137.4510 C   0  0  0  0  0  2  0  0  0  0  0  0
  187.7400  177.2270  136.5410 C   0  0  0  0  0  2  0  0  0  0  0  0
  182.4390  176.6830  137.3970 C   0  0  2  0  0  3  0  0  0  0  0  0
  188.4820  178.5190  140.9890 O   0  0  0  0  0  0  0  0  0  0  0  0
  182.3550  177.8160  136.5560 O   0  0  0  0  0  0  0  0  0  0  0  0
  186.2120  179.2690  140.8590 C   0  0  0  0  0  2  0  0  0  0  0  0
  184.7540  178.9430  141.1760 C   0  0  2  0  0  3  0  0  0  0  0  0
  187.6100  179.1890  137.8850 C   0  0  0  0  0  2  0  0  0  0  0  0
  189.2150  177.3950  140.5500 C   0  0  2  0  0  3  0  0  0  0  0  0
  186.4710  178.0180  136.3230 C   0  0  1  0  0  3  0  0  0  0  0  0
  183.9380  177.9790  138.9850 C   0  0  2  0  0  3  0  0  0  0  0  0
  183.7380  176.6580  138.2290 C   0  0  2  0  0  3  0  0  0  0  0  0
  188.7950  176.9210  139.1610 C   0  0  0  0  0  2  0  0  0  0  0  0
  189.4980  177.6520  138.1870 O   0  0  0  0  0  0  0  0  0  0  0  0
  189.3470  178.9310  136.2950 O   0  0  0  0  0  1  0  0  0  0  0  0
  181.5360  174.3600  137.6720 C   0  0  0  0  0  2  0  0  0  0  0  0
  179.5200  173.8880  136.2080 C   0  0  2  0  0  3  0  0  0  0  0  0
  181.2310  175.5920  135.4340 C   0  0  0  0  0  2  0  0  0  0  0  0
  180.4640  174.3240  135.0740 C   0  0  0  0  0  2  0  0  0  0  0  0
  180.0110  174.3150  137.6040 C   0  0  0  0  0  2  0  0  0  0  0  0
  182.1160  175.3740  136.6740 C   0  0  1  0  0  3  0  0  0  0  0  0
  179.2440  172.4130  136.1580 C   0  0  0  0  0  0  0  0  0  0  0  0
  179.3380  171.7920  135.0670 O   0  0  0  0  0  0  0  0  0  0  0  0
  178.9430  171.7040  137.3180 O   0  0  0  0  0  1  0  0  0  0  0  0
  189.2780  176.2660  141.5860 C   0  0  0  0  0  2  0  0  0  0  0  0
  191.6520  176.0540  144.4310 O   0  0  0  0  0  0  0  0  0  0  0  0
  192.0970  177.5620  140.9310 O   0  0  0  0  0  0  0  0  0  0  0  0
  191.4820  177.3090  145.0690 C   0  0  1  0  0  3  0  0  0  0  0  0
  190.8510  178.4150  144.2080 C   0  0  0  0  0  2  0  0  0  0  0  0
  191.4540  177.4290  142.0050 C   0  0  0  0  0  0  0  0  0  0  0  0
  190.6610  176.1570  142.2150 C   0  0  1  0  0  3  0  0  0  0  0  0
  191.4930  178.4720  142.9420 O   0  0  0  0  0  0  0  0  0  0  0  0
  190.5000  175.7550  143.6820 C   0  0  0  0  0  2  0  0  0  0  0  0
  190.8860  177.2040  146.4780 C   0  0  0  0  0  2  0  0  0  0  0  0
  189.4300  176.7480  146.4910 C   0  0  0  0  0  2  0  0  0  0  0  0
  188.4730  177.9300  146.4310 C   0  0  1  0  0  3  0  0  0  0  0  0
  187.6410  177.8820  145.1480 C   0  0  0  0  0  3  0  0  0  0  0  0
  187.4610  176.5620  144.7330 O   0  0  0  0  0  1  0  0  0  0  0  0
  186.3940  178.4610  145.3730 O   0  0  0  0  0  1  0  0  0  0  0  0
  187.6270  177.8880  147.5730 O   0  0  0  0  0  0  0  0  0  0  0  0
  188.1360  177.9070  148.8740 C   0  0  0  0  0  0  0  0  0  0  0  0
  189.1960  178.5310  149.1470 O   0  0  0  0  0  0  0  0  0  0  0  0
  187.4850  177.2390  149.8570 F   0  0  0  0  0  0  0  0  0  0  0  0
  1 13  1  0  0  0  0
  5  4  1  0  0  0  0
  6  7  1  1  0  0  0
  6 11  1  0  0  0  0
  7  9  1  0  0  0  0
  8 19  1  0  0  0  0
  9  5  1  0  0  0  0
 10 20  1  0  0  0  0
 11 23  1  0  0  0  0
 11  4  1  1  0  0  0
 12 27  1  6  0  0  0
 12 20  1  0  0  0  0
 12 26  1  0  0  0  0
 14 12  1  0  0  0  0
 15 17  1  6  0  0  0
 15 24  1  0  0  0  0
 16  2  1  0  0  0  0
 17  6  1  0  0  0  0
 18 19  1  0  0  0  0
 18  2  1  0  0  0  0
 19  3  1  1  0  0  0
 21 16  1  0  0  0  0
 21 37  1  1  0  0  0
 22  1  1  1  0  0  0
 22 14  1  0  0  0  0
 22 10  1  0  0  0  0
 23  8  1  1  0  0  0
 24 13  1  6  0  0  0
 24 23  1  0  0  0  0
 25 21  1  0  0  0  0
 26 25  1  0  0  0  0
 29 34  1  1  0  0  0
 29 32  1  0  0  0  0
 31 30  1  0  0  0  0
 31 29  1  0  0  0  0
 32 28  1  0  0  0  0
 33 30  1  6  0  0  0
 33 15  1  0  0  0  0
 33 28  1  0  0  0  0
 34 36  1  0  0  0  0
 35 34  2  0  0  0  0
 38 40  1  0  0  0  0
 39 42  2  0  0  0  0
 40 46  1  1  0  0  0
 41 40  1  0  0  0  0
 42 43  1  0  0  0  0
 42 44  1  0  0  0  0
 43 37  1  1  0  0  0
 43 45  1  0  0  0  0
 44 41  1  0  0  0  0
 45 38  1  0  0  0  0
 46 47  1  0  0  0  0
 48 47  1  1  0  0  0
 48 52  1  0  0  0  0
 49 51  1  0  0  0  0
 49 48  1  0  0  0  0
 50 49  1  0  0  0  0
 52 53  1  0  0  0  0
 53 54  2  0  0  0  0
 53 55  1  0  0  0  0
M  END
>  <MODEL>
1

>  <REMARK>
 VINA RESULT:      -6.8      0.000      0.000
  Name = 
  10 active torsions:
  status: ('A' for Active; 'I' for Inactive)
    1  A    between atoms: C_1  and  O_53
    2  A    between atoms: C_3  and  C_12
    3  A    between atoms: C_3  and  C_38
    4  A    between atoms: C_8  and  C_22
    5  A    between atoms: C_8  and  C_43
    6  A    between atoms: C_10  and  C_32
    7  A    between atoms: C_11  and  C_29
    8  A    between atoms: C_29  and  C_38
    9  A    between atoms: C_29  and  O_53
   10  A    between atoms: C_33  and  C_52
                            x       y       z     vdW  Elec       q    Type
                         _______ _______ _______ _____ _____    ______ ____

>  <TORSDO>
F 10

$$$$
=
 OpenBabel10262420193D

 55 60  0  0  1  0  0  0  0  0999 V2000
  185.1000  176.0000  136.2460 C   0  0  0  0  0  2  0  0  0  0  0  0
  184.6320  178.7520  140.9470 C   0  0  0  0  0  2  0  0  0  0  0  0
  181.6060  178.6670  141.3140 C   0  0  0  0  0  1  0  0  0  0  0  0
  180.1430  176.5970  137.8740 C   0  0  0  0  0  2  0  0  0  0  0  0
  178.9310  176.8870  136.9960 C   0  0  0  0  0  2  0  0  0  0  0  0
  181.6220  176.8600  135.8070 C   0  0  1  0  0  3  0  0  0  0  0  0
  180.3620  177.0560  134.9660 C   0  0  0  0  0  2  0  0  0  0  0  0
  182.5000  177.0850  139.6070 C   0  0  0  0  0  2  0  0  0  0  0  0
  179.1690  176.3460  135.5930 C   0  0  0  0  0  2  0  0  0  0  0  0
  185.1110  178.3180  136.9440 O   0  0  0  0  0  0  0  0  0  0  0  0
  181.4100  177.2550  137.2960 C   0  0  2  0  0  3  0  0  0  0  0  0
  187.3720  178.5040  137.7210 C   0  0  1  0  0  0  0  0  0  0  0  0
  184.6680  175.4120  137.5910 C   0  0  0  0  0  2  0  0  0  0  0  0
  187.1560  177.1180  137.1900 C   0  0  0  0  0  2  0  0  0  0  0  0
  182.3060  174.7990  136.7050 C   0  0  2  0  0  3  0  0  0  0  0  0
  185.7870  179.5510  140.9580 O   0  0  0  0  0  0  0  0  0  0  0  0
  182.2260  175.5960  135.5400 O   0  0  0  0  0  0  0  0  0  0  0  0
  183.6170  179.3290  139.9700 C   0  0  0  0  0  2  0  0  0  0  0  0
  182.3020  178.5520  139.9700 C   0  0  2  0  0  3  0  0  0  0  0  0
  185.9850  179.1280  137.6980 C   0  0  0  0  0  2  0  0  0  0  0  0
  186.9160  178.7240  141.1440 C   0  0  2  0  0  3  0  0  0  0  0  0
  185.8920  177.2940  136.3800 C   0  0  1  0  0  3  0  0  0  0  0  0
  182.6720  176.8880  138.1020 C   0  0  2  0  0  3  0  0  0  0  0  0
  183.1510  175.4570  137.8150 C   0  0  2  0  0  3  0  0  0  0  0  0
  187.1970  177.8280  139.9400 C   0  0  0  0  0  2  0  0  0  0  0  0
  187.9750  178.5360  139.0050 O   0  0  0  0  0  0  0  0  0  0  0  0
  188.1860  179.2030  136.8270 O   0  0  0  0  0  1  0  0  0  0  0  0
  183.2980  173.2330  135.0150 C   0  0  0  0  0  2  0  0  0  0  0  0
  185.2990  171.9470  135.8940 C   0  0  2  0  0  3  0  0  0  0  0  0
  183.5120  172.7070  137.5250 C   0  0  0  0  0  2  0  0  0  0  0  0
  184.3160  171.5220  136.9990 C   0  0  0  0  0  2  0  0  0  0  0  0
  184.8220  173.1760  135.0980 C   0  0  0  0  0  2  0  0  0  0  0  0
  182.6610  173.3400  136.4100 C   0  0  1  0  0  3  0  0  0  0  0  0
  185.6260  170.8020  134.9790 C   0  0  0  0  0  0  0  0  0  0  0  0
  186.8110  170.6230  134.5940 O   0  0  0  0  0  0  0  0  0  0  0  0
  184.6440  169.8930  134.5940 O   0  0  0  0  0  1  0  0  0  0  0  0
  186.9040  177.9660  142.4760 C   0  0  0  0  0  2  0  0  0  0  0  0
  190.5770  178.4010  142.7900 O   0  0  0  0  0  0  0  0  0  0  0  0
  188.0530  176.7830  145.1850 O   0  0  0  0  0  0  0  0  0  0  0  0
  191.0770  177.1640  142.3080 C   0  0  1  0  0  3  0  0  0  0  0  0
  190.0770  175.9970  142.3040 C   0  0  0  0  0  2  0  0  0  0  0  0
  188.5570  176.9260  144.0410 C   0  0  0  0  0  0  0  0  0  0  0  0
  188.2020  178.1650  143.2470 C   0  0  1  0  0  3  0  0  0  0  0  0
  189.4090  175.9220  143.5550 O   0  0  0  0  0  0  0  0  0  0  0  0
  189.2880  178.6150  142.2700 C   0  0  0  0  0  2  0  0  0  0  0  0
  191.8840  177.2940  141.0120 C   0  0  0  0  0  2  0  0  0  0  0  0
  191.0390  177.1500  139.7500 C   0  0  0  0  0  2  0  0  0  0  0  0
  191.6260  176.1170  138.7980 C   0  0  1  0  0  3  0  0  0  0  0  0
  190.5550  175.6090  137.8320 C   0  0  0  0  0  3  0  0  0  0  0  0
  190.5510  176.3700  136.6630 O   0  0  0  0  0  1  0  0  0  0  0  0
  190.8070  174.2770  137.5050 O   0  0  0  0  0  1  0  0  0  0  0  0
  192.6970  176.7160  138.0820 O   0  0  0  0  0  0  0  0  0  0  0  0
  193.8710  176.0200  137.7820 C   0  0  0  0  0  0  0  0  0  0  0  0
  194.5370  176.2880  136.7470 O   0  0  0  0  0  0  0  0  0  0  0  0
  194.2970  175.0380  138.6120 F   0  0  0  0  0  0  0  0  0  0  0  0
  1 13  1  0  0  0  0
  2 16  1  0  0  0  0
  5  4  1  0  0  0  0
  6  7  1  6  0  0  0
  6 11  1  0  0  0  0
  7  9  1  0  0  0  0
  8 19  1  0  0  0  0
  9  5  1  0  0  0  0
 10 20  1  0  0  0  0
 11  4  1  1  0  0  0
 11 23  1  0  0  0  0
 12 27  1  6  0  0  0
 12 26  1  0  0  0  0
 14 12  1  0  0  0  0
 15 17  1  6  0  0  0
 15 24  1  0  0  0  0
 16 21  1  0  0  0  0
 17  6  1  0  0  0  0
 18 19  1  0  0  0  0
 18  2  1  0  0  0  0
 19  3  1  1  0  0  0
 20 12  1  0  0  0  0
 21 37  1  1  0  0  0
 22  1  1  1  0  0  0
 22 10  1  0  0  0  0
 22 14  1  0  0  0  0
 23  8  1  1  0  0  0
 24 13  1  6  0  0  0
 24 23  1  0  0  0  0
 25 21  1  0  0  0  0
 26 25  1  0  0  0  0
 28 32  1  0  0  0  0
 29 34  1  6  0  0  0
 29 31  1  0  0  0  0
 31 30  1  0  0  0  0
 32 29  1  0  0  0  0
 33 28  1  6  0  0  0
 33 15  1  0  0  0  0
 33 30  1  0  0  0  0
 35 34  2  0  0  0  0
 36 34  1  0  0  0  0
 40 46  1  6  0  0  0
 40 38  1  0  0  0  0
 41 40  1  0  0  0  0
 41 44  1  0  0  0  0
 42 39  2  0  0  0  0
 43 37  1  6  0  0  0
 43 42  1  0  0  0  0
 44 42  1  0  0  0  0
 45 38  1  0  0  0  0
 45 43  1  0  0  0  0
 47 46  1  0  0  0  0
 48 47  1  1  0  0  0
 49 48  1  0  0  0  0
 50 49  1  0  0  0  0
 51 49  1  0  0  0  0
 52 48  1  0  0  0  0
 53 52  1  0  0  0  0
 53 55  1  0  0  0  0
 54 53  2  0  0  0  0
M  END
>  <MODEL>
2

>  <REMARK>
 VINA RESULT:      -6.4      3.195      5.356
  Name = 
  10 active torsions:
  status: ('A' for Active; 'I' for Inactive)
    1  A    between atoms: C_1  and  O_53
    2  A    between atoms: C_3  and  C_12
    3  A    between atoms: C_3  and  C_38
    4  A    between atoms: C_8  and  C_22
    5  A    between atoms: C_8  and  C_43
    6  A    between atoms: C_10  and  C_32
    7  A    between atoms: C_11  and  C_29
    8  A    between atoms: C_29  and  C_38
    9  A    between atoms: C_29  and  O_53
   10  A    between atoms: C_33  and  C_52
                            x       y       z     vdW  Elec       q    Type
                         _______ _______ _______ _____ _____    ______ ____

>  <TORSDO>
F 10

$$$$
=
 OpenBabel10262420193D

 55 60  0  0  1  0  0  0  0  0999 V2000
  185.3130  175.4660  135.1910 C   0  0  0  0  0  2  0  0  0  0  0  0
  186.6880  178.4600  139.5550 C   0  0  0  0  0  2  0  0  0  0  0  0
  183.9200  179.3080  140.5120 C   0  0  0  0  0  1  0  0  0  0  0  0
  181.2130  177.6070  137.6770 C   0  0  0  0  0  2  0  0  0  0  0  0
  179.9710  178.2050  137.0270 C   0  0  0  0  0  2  0  0  0  0  0  0
  182.2140  177.3100  135.3460 C   0  0  1  0  0  3  0  0  0  0  0  0
  180.9090  177.8350  134.7500 C   0  0  0  0  0  2  0  0  0  0  0  0
  183.9310  177.4480  138.8520 C   0  0  0  0  0  2  0  0  0  0  0  0
  179.7310  177.5490  135.6730 C   0  0  0  0  0  2  0  0  0  0  0  0
  186.1340  177.7060  135.6090 O   0  0  0  0  0  0  0  0  0  0  0  0
  182.4550  177.8240  136.7940 C   0  0  2  0  0  3  0  0  0  0  0  0
  188.4680  177.2410  135.9050 C   0  0  1  0  0  0  0  0  0  0  0  0
  185.0390  175.1030  136.6520 C   0  0  0  0  0  2  0  0  0  0  0  0
  187.7560  175.9590  135.5850 C   0  0  0  0  0  2  0  0  0  0  0  0
  182.4650  175.1860  136.3180 C   0  0  2  0  0  3  0  0  0  0  0  0
  187.9960  178.8740  139.2510 O   0  0  0  0  0  0  0  0  0  0  0  0
  182.3600  175.9120  135.1090 O   0  0  0  0  0  0  0  0  0  0  0  0
  185.6900  179.2670  138.7360 C   0  0  0  0  0  2  0  0  0  0  0  0
  184.2420  178.9220  139.0800 C   0  0  2  0  0  3  0  0  0  0  0  0
  187.3450  178.2510  136.0840 C   0  0  0  0  0  2  0  0  0  0  0  0
  188.8560  177.7560  139.3040 C   0  0  2  0  0  3  0  0  0  0  0  0
  186.4490  176.4670  135.0220 C   0  0  1  0  0  3  0  0  0  0  0  0
  183.7060  177.1340  137.3740 C   0  0  2  0  0  3  0  0  0  0  0  0
  183.6840  175.6140  137.1620 C   0  0  2  0  0  3  0  0  0  0  0  0
  188.6000  176.7590  138.1770 C   0  0  0  0  0  2  0  0  0  0  0  0
  189.3210  177.1520  137.0350 O   0  0  0  0  0  0  0  0  0  0  0  0
  189.2300  177.6170  134.7970 O   0  0  0  0  0  1  0  0  0  0  0  0
  182.9000  173.2680  134.7620 C   0  0  0  0  0  2  0  0  0  0  0  0
  184.3480  171.4550  135.7850 C   0  0  2  0  0  3  0  0  0  0  0  0
  182.8950  172.8740  137.3050 C   0  0  0  0  0  2  0  0  0  0  0  0
  183.2660  171.4570  136.8800 C   0  0  0  0  0  2  0  0  0  0  0  0
  184.3160  172.7150  134.9000 C   0  0  0  0  0  2  0  0  0  0  0  0
  182.3180  173.6750  136.1240 C   0  0  1  0  0  3  0  0  0  0  0  0
  184.2860  170.2060  134.9530 C   0  0  0  0  0  0  0  0  0  0  0  0
  185.3500  169.6370  134.5940 O   0  0  0  0  0  0  0  0  0  0  0  0
  183.0630  169.6300  134.6220 O   0  0  0  0  0  1  0  0  0  0  0  0
  188.9220  177.1030  140.6900 C   0  0  0  0  0  2  0  0  0  0  0  0
  190.0330  178.9210  143.7290 O   0  0  0  0  0  0  0  0  0  0  0  0
  186.5020  178.0520  142.5060 O   0  0  0  0  0  0  0  0  0  0  0  0
  190.0640  177.8960  144.7090 C   0  0  1  0  0  3  0  0  0  0  0  0
  189.2390  176.6400  144.3860 C   0  0  0  0  0  2  0  0  0  0  0  0
  187.6890  177.7330  142.7750 C   0  0  0  0  0  0  0  0  0  0  0  0
  188.7790  178.1320  141.8040 C   0  0  1  0  0  3  0  0  0  0  0  0
  187.9380  177.0100  143.9520 O   0  0  0  0  0  0  0  0  0  0  0  0
  190.1480  178.3460  142.4510 C   0  0  0  0  0  2  0  0  0  0  0  0
  191.4720  177.5950  145.2350 C   0  0  0  0  0  2  0  0  0  0  0  0
  191.6140  176.1970  145.8310 C   0  0  0  0  0  2  0  0  0  0  0  0
  191.3890  176.2060  147.3360 C   0  0  1  0  0  3  0  0  0  0  0  0
  192.7090  175.9810  148.0770 C   0  0  0  0  0  3  0  0  0  0  0  0
  192.9710  177.0450  148.9400 O   0  0  0  0  0  1  0  0  0  0  0  0
  192.6390  174.8020  148.8170 O   0  0  0  0  0  1  0  0  0  0  0  0
  190.8210  177.4570  147.7030 O   0  0  0  0  0  0  0  0  0  0  0  0
  189.4910  177.5750  148.1140 C   0  0  0  0  0  0  0  0  0  0  0  0
  188.6110  176.7720  147.7030 O   0  0  0  0  0  0  0  0  0  0  0  0
  189.1380  178.5720  148.9610 F   0  0  0  0  0  0  0  0  0  0  0  0
  1 13  1  0  0  0  0
  5  4  1  0  0  0  0
  6  7  1  1  0  0  0
  6 11  1  0  0  0  0
  7  9  1  0  0  0  0
  8 19  1  0  0  0  0
  9  5  1  0  0  0  0
 10 20  1  0  0  0  0
 11 23  1  0  0  0  0
 11  4  1  1  0  0  0
 12 27  1  6  0  0  0
 12 20  1  0  0  0  0
 12 26  1  0  0  0  0
 14 12  1  0  0  0  0
 15 17  1  6  0  0  0
 15 24  1  0  0  0  0
 16 21  1  0  0  0  0
 16  2  1  0  0  0  0
 17  6  1  0  0  0  0
 18 19  1  0  0  0  0
 18  2  1  0  0  0  0
 19  3  1  1  0  0  0
 21 37  1  1  0  0  0
 22  1  1  1  0  0  0
 22 14  1  0  0  0  0
 22 10  1  0  0  0  0
 23  8  1  1  0  0  0
 24 13  1  6  0  0  0
 24 23  1  0  0  0  0
 25 21  1  0  0  0  0
 26 25  1  0  0  0  0
 28 32  1  0  0  0  0
 29 34  1  6  0  0  0
 29 31  1  0  0  0  0
 31 30  1  0  0  0  0
 32 29  1  0  0  0  0
 33 28  1  6  0  0  0
 33 15  1  0  0  0  0
 33 30  1  0  0  0  0
 35 34  2  0  0  0  0
 36 34  1  0  0  0  0
 38 40  1  0  0  0  0
 39 42  2  0  0  0  0
 40 46  1  6  0  0  0
 41 40  1  0  0  0  0
 42 44  1  0  0  0  0
 43 37  1  6  0  0  0
 43 45  1  0  0  0  0
 43 42  1  0  0  0  0
 44 41  1  0  0  0  0
 45 38  1  0  0  0  0
 46 47  1  0  0  0  0
 48 47  1  6  0  0  0
 48 52  1  0  0  0  0
 48 49  1  0  0  0  0
 49 51  1  0  0  0  0
 49 50  1  0  0  0  0
 52 53  1  0  0  0  0
 53 55  1  0  0  0  0
 54 53  2  0  0  0  0
M  END
>  <MODEL>
3

>  <REMARK>
 VINA RESULT:      -6.3      2.375      3.346
  Name = 
  10 active torsions:
  status: ('A' for Active; 'I' for Inactive)
    1  A    between atoms: C_1  and  O_53
    2  A    between atoms: C_3  and  C_12
    3  A    between atoms: C_3  and  C_38
    4  A    between atoms: C_8  and  C_22
    5  A    between atoms: C_8  and  C_43
    6  A    between atoms: C_10  and  C_32
    7  A    between atoms: C_11  and  C_29
    8  A    between atoms: C_29  and  C_38
    9  A    between atoms: C_29  and  O_53
   10  A    between atoms: C_33  and  C_52
                            x       y       z     vdW  Elec       q    Type
                         _______ _______ _______ _____ _____    ______ ____

>  <TORSDO>
F 10

$$$$
=
 OpenBabel10262420193D

 55 60  0  0  1  0  0  0  0  0999 V2000
  181.8810  176.4900  134.7260 C   0  0  0  0  0  2  0  0  0  0  0  0
  180.1890  177.9410  139.7190 C   0  0  0  0  0  2  0  0  0  0  0  0
  179.5430  175.1960  140.8800 C   0  0  0  0  0  1  0  0  0  0  0  0
  180.3520  172.4480  137.7100 C   0  0  0  0  0  2  0  0  0  0  0  0
  179.5670  171.2270  137.2460 C   0  0  0  0  0  2  0  0  0  0  0  0
  180.0520  173.4480  135.3770 C   0  0  1  0  0  3  0  0  0  0  0  0
  179.3490  172.1610  134.9480 C   0  0  0  0  0  2  0  0  0  0  0  0
  180.8970  175.1570  138.7870 C   0  0  0  0  0  2  0  0  0  0  0  0
  179.8340  170.9720  135.7680 C   0  0  0  0  0  2  0  0  0  0  0  0
  179.8570  177.3770  135.7170 O   0  0  0  0  0  0  0  0  0  0  0  0
  179.9460  173.6990  136.9090 C   0  0  2  0  0  3  0  0  0  0  0  0
  180.4530  179.6950  135.8680 C   0  0  1  0  0  0  0  0  0  0  0  0
  182.6090  176.2000  136.0400 C   0  0  0  0  0  2  0  0  0  0  0  0
  181.5830  178.9460  135.2240 C   0  0  0  0  0  2  0  0  0  0  0  0
  182.3640  173.6320  135.7520 C   0  0  2  0  0  3  0  0  0  0  0  0
  179.7490  179.2610  139.5290 O   0  0  0  0  0  0  0  0  0  0  0  0
  181.3410  173.5520  134.7790 O   0  0  0  0  0  0  0  0  0  0  0  0
  179.1650  176.9700  139.1470 C   0  0  0  0  0  2  0  0  0  0  0  0
  179.5450  175.5110  139.3950 C   0  0  2  0  0  3  0  0  0  0  0  0
  179.4930  178.6020  136.3130 C   0  0  0  0  0  2  0  0  0  0  0  0
  180.8660  180.0870  139.2800 C   0  0  2  0  0  3  0  0  0  0  0  0
  180.9050  177.6560  134.8220 C   0  0  1  0  0  3  0  0  0  0  0  0
  180.8020  174.9270  137.2800 C   0  0  2  0  0  3  0  0  0  0  0  0
  182.2110  174.8600  136.6730 C   0  0  2  0  0  3  0  0  0  0  0  0
  181.5220  179.8040  137.9310 C   0  0  0  0  0  2  0  0  0  0  0  0
  180.8620  180.5420  136.9300 O   0  0  0  0  0  0  0  0  0  0  0  0
  179.8190  180.4710  134.8950 O   0  0  0  0  0  1  0  0  0  0  0  0
  184.8200  173.8810  136.1930 C   0  0  0  0  0  2  0  0  0  0  0  0
  186.1000  171.7010  135.9970 C   0  0  2  0  0  3  0  0  0  0  0  0
  183.9850  172.0140  134.6320 C   0  0  0  0  0  2  0  0  0  0  0  0
  185.4700  171.6640  134.5940 C   0  0  0  0  0  2  0  0  0  0  0  0
  185.4000  172.6880  136.9490 C   0  0  0  0  0  2  0  0  0  0  0  0
  183.7640  173.4400  135.1670 C   0  0  1  0  0  3  0  0  0  0  0  0
  187.5770  171.9670  135.9290 C   0  0  0  0  0  0  0  0  0  0  0  0
  188.2260  171.6540  134.8970 O   0  0  0  0  0  0  0  0  0  0  0  0
  188.2330  172.6140  136.9730 O   0  0  0  0  0  1  0  0  0  0  0  0
  181.8640  180.1290  140.4440 C   0  0  0  0  0  2  0  0  0  0  0  0
  184.0150  177.5750  142.0650 O   0  0  0  0  0  0  0  0  0  0  0  0
  184.1560  179.0620  138.5310 O   0  0  0  0  0  0  0  0  0  0  0  0
  185.1000  178.3480  142.5510 C   0  0  1  0  0  3  0  0  0  0  0  0
  185.2860  179.7240  141.8920 C   0  0  0  0  0  2  0  0  0  0  0  0
  184.0850  179.1860  139.7800 C   0  0  0  0  0  0  0  0  0  0  0  0
  182.7630  178.9000  140.4590 C   0  0  1  0  0  3  0  0  0  0  0  0
  185.2310  179.5990  140.4780 O   0  0  0  0  0  0  0  0  0  0  0  0
  182.8920  178.4040  141.9000 C   0  0  0  0  0  2  0  0  0  0  0  0
  185.1950  178.3760  144.0810 C   0  0  0  0  0  2  0  0  0  0  0  0
  186.4980  177.7950  144.6220 C   0  0  0  0  0  2  0  0  0  0  0  0
  186.8530  178.3860  145.9790 C   0  0  1  0  0  3  0  0  0  0  0  0
  185.6300  179.0550  146.6080 C   0  0  0  0  0  3  0  0  0  0  0  0
  184.9530  178.1580  147.4340 O   0  0  0  0  0  1  0  0  0  0  0  0
  186.0320  180.1550  147.3650 O   0  0  0  0  0  1  0  0  0  0  0  0
  187.3340  177.3430  146.8170 O   0  0  0  0  0  0  0  0  0  0  0  0
  188.6670  177.2790  147.2310 C   0  0  0  0  0  0  0  0  0  0  0  0
  189.0380  177.8210  148.3070 O   0  0  0  0  0  0  0  0  0  0  0  0
  189.5770  176.6320  146.4630 F   0  0  0  0  0  0  0  0  0  0  0  0
  1 13  1  0  0  0  0
  5  4  1  0  0  0  0
  6  7  1  1  0  0  0
  6 11  1  0  0  0  0
  7  9  1  0  0  0  0
  8 19  1  0  0  0  0
  9  5  1  0  0  0  0
 10 20  1  0  0  0  0
 11 23  1  0  0  0  0
 11  4  1  1  0  0  0
 12 27  1  6  0  0  0
 12 20  1  0  0  0  0
 12 26  1  0  0  0  0
 14 12  1  0  0  0  0
 15 17  1  6  0  0  0
 15 24  1  0  0  0  0
 16  2  1  0  0  0  0
 17  6  1  0  0  0  0
 18 19  1  0  0  0  0
 18  2  1  0  0  0  0
 19  3  1  1  0  0  0
 21 16  1  0  0  0  0
 21 37  1  1  0  0  0
 22  1  1  1  0  0  0
 22 14  1  0  0  0  0
 22 10  1  0  0  0  0
 23  8  1  1  0  0  0
 24 13  1  6  0  0  0
 24 23  1  0  0  0  0
 25 21  1  0  0  0  0
 26 25  1  0  0  0  0
 28 32  1  0  0  0  0
 29 34  1  6  0  0  0
 29 32  1  0  0  0  0
 31 30  1  0  0  0  0
 31 29  1  0  0  0  0
 33 30  1  1  0  0  0
 33 15  1  0  0  0  0
 33 28  1  0  0  0  0
 34 36  1  0  0  0  0
 35 34  2  0  0  0  0
 38 40  1  0  0  0  0
 39 42  2  0  0  0  0
 40 46  1  1  0  0  0
 41 40  1  0  0  0  0
 42 43  1  0  0  0  0
 42 44  1  0  0  0  0
 43 37  1  1  0  0  0
 43 45  1  0  0  0  0
 44 41  1  0  0  0  0
 45 38  1  0  0  0  0
 46 47  1  0  0  0  0
 48 47  1  6  0  0  0
 48 49  1  0  0  0  0
 48 52  1  0  0  0  0
 49 51  1  0  0  0  0
 49 50  1  0  0  0  0
 52 53  1  0  0  0  0
 53 54  2  0  0  0  0
 55 53  1  0  0  0  0
M  END
>  <MODEL>
4

>  <REMARK>
 VINA RESULT:      -5.9      3.214      6.522
  Name = 
  10 active torsions:
  status: ('A' for Active; 'I' for Inactive)
    1  A    between atoms: C_1  and  O_53
    2  A    between atoms: C_3  and  C_12
    3  A    between atoms: C_3  and  C_38
    4  A    between atoms: C_8  and  C_22
    5  A    between atoms: C_8  and  C_43
    6  A    between atoms: C_10  and  C_32
    7  A    between atoms: C_11  and  C_29
    8  A    between atoms: C_29  and  C_38
    9  A    between atoms: C_29  and  O_53
   10  A    between atoms: C_33  and  C_52
                            x       y       z     vdW  Elec       q    Type
                         _______ _______ _______ _____ _____    ______ ____

>  <TORSDO>
F 10

$$$$
=
 OpenBabel10262420193D

 55 60  0  0  1  0  0  0  0  0999 V2000
  182.5000  173.8530  137.4470 C   0  0  0  0  0  2  0  0  0  0  0  0
  187.2970  175.7560  135.6390 C   0  0  0  0  0  2  0  0  0  0  0  0
  186.4850  178.5890  134.8570 C   0  0  0  0  0  1  0  0  0  0  0  0
  182.2970  178.7930  135.6770 C   0  0  0  0  0  2  0  0  0  0  0  0
  181.1680  179.4180  134.8660 C   0  0  0  0  0  2  0  0  0  0  0  0
  181.0990  176.5440  135.4910 C   0  0  1  0  0  3  0  0  0  0  0  0
  179.9560  177.2450  134.7590 C   0  0  0  0  0  2  0  0  0  0  0  0
  184.8330  177.3800  136.2790 C   0  0  0  0  0  2  0  0  0  0  0  0
  179.8560  178.7080  135.1740 C   0  0  0  0  0  2  0  0  0  0  0  0
  183.8190  173.6820  135.4230 O   0  0  0  0  0  0  0  0  0  0  0  0
  182.4510  177.2980  135.3430 C   0  0  2  0  0  3  0  0  0  0  0  0
  185.3880  171.9970  136.0950 C   0  0  1  0  0  0  0  0  0  0  0  0
  183.3480  174.9350  138.1200 C   0  0  0  0  0  2  0  0  0  0  0  0
  184.4220  172.2340  137.2190 C   0  0  0  0  0  2  0  0  0  0  0  0
  181.5170  176.7470  137.7950 C   0  0  2  0  0  3  0  0  0  0  0  0
  187.9720  174.5860  135.2520 O   0  0  0  0  0  0  0  0  0  0  0  0
  180.7030  176.1510  136.8030 O   0  0  0  0  0  0  0  0  0  0  0  0
  186.2390  176.1060  134.6010 C   0  0  0  0  0  2  0  0  0  0  0  0
  185.5230  177.4170  134.9210 C   0  0  2  0  0  3  0  0  0  0  0  0
  185.0470  173.0810  135.0830 C   0  0  0  0  0  2  0  0  0  0  0  0
  188.2990  173.8410  136.4050 C   0  0  2  0  0  3  0  0  0  0  0  0
  183.2990  172.9570  136.5100 C   0  0  1  0  0  3  0  0  0  0  0  0
  183.5120  176.6140  136.2280 C   0  0  2  0  0  3  0  0  0  0  0  0
  183.0030  176.3560  137.6530 C   0  0  2  0  0  3  0  0  0  0  0  0
  187.0720  173.2510  137.0960 C   0  0  0  0  0  2  0  0  0  0  0  0
  186.7480  172.0190  136.4970 O   0  0  0  0  0  0  0  0  0  0  0  0
  185.1100  170.7540  135.5220 O   0  0  0  0  0  1  0  0  0  0  0  0
  181.9170  177.2210  140.2240 C   0  0  0  0  0  2  0  0  0  0  0  0
  180.0960  178.6310  141.2830 C   0  0  2  0  0  3  0  0  0  0  0  0
  179.5100  177.1400  139.3170 C   0  0  0  0  0  2  0  0  0  0  0  0
  179.1730  177.5170  140.7560 C   0  0  0  0  0  2  0  0  0  0  0  0
  181.4860  178.6300  140.6220 C   0  0  0  0  0  2  0  0  0  0  0  0
  180.9470  176.6000  139.2060 C   0  0  1  0  0  3  0  0  0  0  0  0
  180.2070  178.5900  142.7810 C   0  0  0  0  0  0  0  0  0  0  0  0
  179.2130  178.2540  143.4760 O   0  0  0  0  0  1  0  0  0  0  0  0
  181.4170  178.8610  143.4130 O   0  0  0  0  0  0  0  0  0  0  0  0
  189.2380  174.5830  137.3640 C   0  0  0  0  0  2  0  0  0  0  0  0
  192.5410  175.1420  135.7650 O   0  0  0  0  0  0  0  0  0  0  0  0
  190.1720  177.6100  137.5040 O   0  0  0  0  0  0  0  0  0  0  0  0
  193.4350  175.0580  136.8640 C   0  0  1  0  0  3  0  0  0  0  0  0
  192.8060  175.2600  138.2510 C   0  0  0  0  0  2  0  0  0  0  0  0
  190.8110  176.5260  137.4710 C   0  0  0  0  0  0  0  0  0  0  0  0
  190.2780  175.4020  136.6100 C   0  0  1  0  0  3  0  0  0  0  0  0
  191.9750  176.4120  138.2470 O   0  0  0  0  0  0  0  0  0  0  0  0
  191.3550  174.4550  136.0780 C   0  0  0  0  0  2  0  0  0  0  0  0
  194.3900  173.8620  136.7840 C   0  0  0  0  0  2  0  0  0  0  0  0
  194.9760  173.4580  138.1340 C   0  0  0  0  0  2  0  0  0  0  0  0
  196.3830  174.0080  138.3200 C   0  0  1  0  0  3  0  0  0  0  0  0
  197.0680  174.1990  136.9660 C   0  0  0  0  0  3  0  0  0  0  0  0
  197.4800  175.5220  136.8080 O   0  0  0  0  0  1  0  0  0  0  0  0
  198.1800  173.3630  136.8780 O   0  0  0  0  0  1  0  0  0  0  0  0
  196.2980  175.2470  139.0120 O   0  0  0  0  0  0  0  0  0  0  0  0
  197.0550  175.5120  140.1560 C   0  0  0  0  0  0  0  0  0  0  0  0
  196.6810  176.3750  140.9950 O   0  0  0  0  0  0  0  0  0  0  0  0
  198.2110  174.8370  140.3650 F   0  0  0  0  0  0  0  0  0  0  0  0
  1 13  1  0  0  0  0
  5  9  1  0  0  0  0
  5  4  1  0  0  0  0
  6  7  1  1  0  0  0
  6 17  1  0  0  0  0
  7  9  1  0  0  0  0
 10 22  1  0  0  0  0
 11  6  1  0  0  0  0
 11  4  1  1  0  0  0
 11 23  1  0  0  0  0
 12 27  1  6  0  0  0
 12 26  1  0  0  0  0
 12 14  1  0  0  0  0
 15 17  1  6  0  0  0
 15 33  1  0  0  0  0
 16  2  1  0  0  0  0
 16 21  1  0  0  0  0
 18 19  1  0  0  0  0
 18  2  1  0  0  0  0
 19  3  1  1  0  0  0
 19  8  1  0  0  0  0
 20 10  1  0  0  0  0
 20 12  1  0  0  0  0
 21 25  1  0  0  0  0
 21 37  1  1  0  0  0
 22 14  1  1  0  0  0
 22  1  1  0  0  0  0
 23  8  1  1  0  0  0
 23 24  1  0  0  0  0
 24 15  1  0  0  0  0
 24 13  1  6  0  0  0
 26 25  1  0  0  0  0
 28 32  1  0  0  0  0
 29 34  1  1  0  0  0
 30 31  1  0  0  0  0
 31 29  1  0  0  0  0
 32 29  1  0  0  0  0
 33 30  1  6  0  0  0
 33 28  1  0  0  0  0
 34 36  2  0  0  0  0
 34 35  1  0  0  0  0
 38 45  1  0  0  0  0
 38 40  1  0  0  0  0
 40 46  1  1  0  0  0
 40 41  1  0  0  0  0
 42 39  2  0  0  0  0
 42 44  1  0  0  0  0
 43 37  1  1  0  0  0
 43 42  1  0  0  0  0
 44 41  1  0  0  0  0
 45 43  1  0  0  0  0
 46 47  1  0  0  0  0
 48 47  1  6  0  0  0
 48 52  1  0  0  0  0
 49 48  1  0  0  0  0
 50 49  1  0  0  0  0
 51 49  1  0  0  0  0
 52 53  1  0  0  0  0
 53 55  1  0  0  0  0
 53 54  2  0  0  0  0
M  END
>  <MODEL>
5

>  <REMARK>
 VINA RESULT:      -5.8      5.029      7.641
  Name = 
  10 active torsions:
  status: ('A' for Active; 'I' for Inactive)
    1  A    between atoms: C_1  and  O_53
    2  A    between atoms: C_3  and  C_12
    3  A    between atoms: C_3  and  C_38
    4  A    between atoms: C_8  and  C_22
    5  A    between atoms: C_8  and  C_43
    6  A    between atoms: C_10  and  C_32
    7  A    between atoms: C_11  and  C_29
    8  A    between atoms: C_29  and  C_38
    9  A    between atoms: C_29  and  O_53
   10  A    between atoms: C_33  and  C_52
                            x       y       z     vdW  Elec       q    Type
                         _______ _______ _______ _____ _____    ______ ____

>  <TORSDO>
F 10

$$$$
=
 OpenBabel10262420193D

 55 60  0  0  1  0  0  0  0  0999 V2000
  188.9610  178.5560  137.8980 C   0  0  0  0  0  2  0  0  0  0  0  0
  186.3120  174.1830  135.9580 C   0  0  0  0  0  2  0  0  0  0  0  0
  188.4600  172.0510  136.3320 C   0  0  0  0  0  1  0  0  0  0  0  0
  191.8150  174.1480  137.9440 C   0  0  0  0  0  2  0  0  0  0  0  0
  193.2990  174.0270  137.6150 C   0  0  0  0  0  2  0  0  0  0  0  0
  191.9270  176.6040  137.2490 C   0  0  1  0  0  3  0  0  0  0  0  0
  193.4280  176.4410  137.0210 C   0  0  0  0  0  2  0  0  0  0  0  0
  188.8760  174.1830  137.5540 C   0  0  0  0  0  2  0  0  0  0  0  0
  194.0020  175.3450  137.9100 C   0  0  0  0  0  2  0  0  0  0  0  0
  188.4330  177.6310  135.7230 O   0  0  0  0  0  0  0  0  0  0  0  0
  191.1560  175.2610  137.1090 C   0  0  2  0  0  3  0  0  0  0  0  0
  186.1720  178.3940  135.4870 C   0  0  1  0  0  0  0  0  0  0  0  0
  188.4870  177.3550  138.7200 C   0  0  0  0  0  2  0  0  0  0  0  0
  186.7220  178.9060  136.7870 C   0  0  0  0  0  2  0  0  0  0  0  0
  190.9110  176.6860  139.3670 C   0  0  2  0  0  3  0  0  0  0  0  0
  185.3700  174.7500  135.0840 O   0  0  0  0  0  0  0  0  0  0  0  0
  191.6670  177.3960  138.4060 O   0  0  0  0  0  0  0  0  0  0  0  0
  187.6920  174.2110  135.3150 C   0  0  0  0  0  2  0  0  0  0  0  0
  188.7510  173.5330  136.1820 C   0  0  2  0  0  3  0  0  0  0  0  0
  187.2500  177.4510  134.9770 C   0  0  0  0  0  2  0  0  0  0  0  0
  184.4010  175.4430  135.8410 C   0  0  2  0  0  3  0  0  0  0  0  0
  188.2080  178.7200  136.5830 C   0  0  1  0  0  3  0  0  0  0  0  0
  189.6810  175.4800  137.5000 C   0  0  2  0  0  3  0  0  0  0  0  0
  189.5360  176.2390  138.8270 C   0  0  2  0  0  3  0  0  0  0  0  0
  184.9600  176.6940  136.5130 C   0  0  0  0  0  2  0  0  0  0  0  0
  184.9020  177.7730  135.6110 O   0  0  0  0  0  0  0  0  0  0  0  0
  186.0620  179.4640  134.5970 O   0  0  0  0  0  1  0  0  0  0  0  0
  189.7260  176.7960  141.5740 C   0  0  0  0  0  2  0  0  0  0  0  0
  191.2490  176.3520  143.5520 C   0  0  2  0  0  3  0  0  0  0  0  0
  192.2340  177.3540  141.4410 C   0  0  0  0  0  2  0  0  0  0  0  0
  192.0720  177.5050  142.9500 C   0  0  0  0  0  2  0  0  0  0  0  0
  190.2360  175.7490  142.5620 C   0  0  0  0  0  2  0  0  0  0  0  0
  190.8700  177.3790  140.7300 C   0  0  1  0  0  3  0  0  0  0  0  0
  190.5770  176.7650  144.8310 C   0  0  0  0  0  0  0  0  0  0  0  0
  191.2710  177.1400  145.8130 O   0  0  0  0  0  1  0  0  0  0  0  0
  189.1890  176.7980  144.9290 O   0  0  0  0  0  0  0  0  0  0  0  0
  183.6120  174.5400  136.7970 C   0  0  0  0  0  2  0  0  0  0  0  0
  180.3440  176.2870  137.0070 O   0  0  0  0  0  0  0  0  0  0  0  0
  181.1680  172.5410  137.0880 O   0  0  0  0  0  0  0  0  0  0  0  0
  180.1340  176.3820  138.4060 C   0  0  1  0  0  3  0  0  0  0  0  0
  180.9470  175.4050  139.2700 C   0  0  0  0  0  2  0  0  0  0  0  0
  181.3490  173.7210  137.4830 C   0  0  0  0  0  0  0  0  0  0  0  0
  182.1100  174.6730  136.5840 C   0  0  1  0  0  3  0  0  0  0  0  0
  180.8490  174.0900  138.7410 O   0  0  0  0  0  0  0  0  0  0  0  0
  181.7190  176.1420  136.7530 C   0  0  0  0  0  2  0  0  0  0  0  0
  180.1380  177.8230  138.9290 C   0  0  0  0  0  2  0  0  0  0  0  0
  181.3870  178.1780  139.7300 C   0  0  0  0  0  2  0  0  0  0  0  0
  182.1510  179.3300  139.0930 C   0  0  1  0  0  3  0  0  0  0  0  0
  183.6410  178.9980  138.9990 C   0  0  0  0  0  3  0  0  0  0  0  0
  184.4100  180.1510  139.1580 O   0  0  0  0  0  1  0  0  0  0  0  0
  183.9840  178.0830  139.9930 O   0  0  0  0  0  1  0  0  0  0  0  0
  181.6130  179.5720  137.8000 O   0  0  0  0  0  0  0  0  0  0  0  0
  181.1590  180.8340  137.4080 C   0  0  0  0  0  0  0  0  0  0  0  0
  181.3930  181.8530  138.1110 O   0  0  0  0  0  0  0  0  0  0  0  0
  180.4510  180.9640  136.2610 F   0  0  0  0  0  0  0  0  0  0  0  0
  1 13  1  0  0  0  0
  5  9  1  0  0  0  0
  5  4  1  0  0  0  0
  6  7  1  1  0  0  0
  6 17  1  0  0  0  0
  7  9  1  0  0  0  0
 10 22  1  0  0  0  0
 11  6  1  0  0  0  0
 11 23  1  0  0  0  0
 11  4  1  1  0  0  0
 12 27  1  6  0  0  0
 12 26  1  0  0  0  0
 12 14  1  0  0  0  0
 15 17  1  6  0  0  0
 15 33  1  0  0  0  0
 16 21  1  0  0  0  0
 16  2  1  0  0  0  0
 18  2  1  0  0  0  0
 18 19  1  0  0  0  0
 19  3  1  1  0  0  0
 19  8  1  0  0  0  0
 20 12  1  0  0  0  0
 20 10  1  0  0  0  0
 21 25  1  0  0  0  0
 21 37  1  1  0  0  0
 22 14  1  1  0  0  0
 22  1  1  0  0  0  0
 23  8  1  1  0  0  0
 23 24  1  0  0  0  0
 24 13  1  6  0  0  0
 24 15  1  0  0  0  0
 26 25  1  0  0  0  0
 28 32  1  0  0  0  0
 29 34  1  1  0  0  0
 30 31  1  0  0  0  0
 31 29  1  0  0  0  0
 32 29  1  0  0  0  0
 33 30  1  1  0  0  0
 33 28  1  0  0  0  0
 34 36  2  0  0  0  0
 34 35  1  0  0  0  0
 38 40  1  0  0  0  0
 39 42  2  0  0  0  0
 40 46  1  1  0  0  0
 40 41  1  0  0  0  0
 42 44  1  0  0  0  0
 43 45  1  0  0  0  0
 43 37  1  1  0  0  0
 43 42  1  0  0  0  0
 44 41  1  0  0  0  0
 45 38  1  0  0  0  0
 46 47  1  0  0  0  0
 48 47  1  6  0  0  0
 49 48  1  0  0  0  0
 49 50  1  0  0  0  0
 49 51  1  0  0  0  0
 52 48  1  0  0  0  0
 53 52  1  0  0  0  0
 53 54  2  0  0  0  0
 55 53  1  0  0  0  0
M  END
>  <MODEL>
6

>  <REMARK>
 VINA RESULT:      -5.8      3.347     10.253
  Name = 
  10 active torsions:
  status: ('A' for Active; 'I' for Inactive)
    1  A    between atoms: C_1  and  O_53
    2  A    between atoms: C_3  and  C_12
    3  A    between atoms: C_3  and  C_38
    4  A    between atoms: C_8  and  C_22
    5  A    between atoms: C_8  and  C_43
    6  A    between atoms: C_10  and  C_32
    7  A    between atoms: C_11  and  C_29
    8  A    between atoms: C_29  and  C_38
    9  A    between atoms: C_29  and  O_53
   10  A    between atoms: C_33  and  C_52
                            x       y       z     vdW  Elec       q    Type
                         _______ _______ _______ _____ _____    ______ ____

>  <TORSDO>
F 10

$$$$
=
 OpenBabel10262420193D

 55 60  0  0  1  0  0  0  0  0999 V2000
  185.7990  175.9730  136.0670 C   0  0  0  0  0  2  0  0  0  0  0  0
  185.3870  178.6520  140.8160 C   0  0  0  0  0  2  0  0  0  0  0  0
  182.3550  178.8800  141.0370 C   0  0  0  0  0  1  0  0  0  0  0  0
  180.8570  177.0560  137.4750 C   0  0  0  0  0  2  0  0  0  0  0  0
  179.7270  177.4920  136.5500 C   0  0  0  0  0  2  0  0  0  0  0  0
  182.4570  177.2060  135.4890 C   0  0  1  0  0  3  0  0  0  0  0  0
  181.2680  177.5550  134.5950 C   0  0  0  0  0  2  0  0  0  0  0  0
  183.1620  177.2510  139.3310 C   0  0  0  0  0  2  0  0  0  0  0  0
  179.9770  176.9610  135.1440 C   0  0  0  0  0  2  0  0  0  0  0  0
  186.0180  178.2610  136.8290 O   0  0  0  0  0  0  0  0  0  0  0  0
  182.2130  177.5880  136.9770 C   0  0  2  0  0  3  0  0  0  0  0  0
  188.2440  178.1880  137.7180 C   0  0  1  0  0  0  0  0  0  0  0  0
  185.2420  175.4040  137.3740 C   0  0  0  0  0  2  0  0  0  0  0  0
  187.9110  176.8450  137.1380 C   0  0  0  0  0  2  0  0  0  0  0  0
  182.8750  175.0650  136.3600 C   0  0  2  0  0  3  0  0  0  0  0  0
  186.6180  179.3240  140.9040 O   0  0  0  0  0  0  0  0  0  0  0  0
  182.9370  175.8930  135.2150 O   0  0  0  0  0  0  0  0  0  0  0  0
  184.4890  179.3560  139.8080 C   0  0  0  0  0  2  0  0  0  0  0  0
  183.1010  178.7220  139.7240 C   0  0  2  0  0  3  0  0  0  0  0  0
  186.9330  178.9560  137.6470 C   0  0  0  0  0  2  0  0  0  0  0  0
  187.6430  178.3780  141.1200 C   0  0  2  0  0  3  0  0  0  0  0  0
  186.7150  177.1730  136.2750 C   0  0  1  0  0  3  0  0  0  0  0  0
  183.3880  177.0710  137.8310 C   0  0  2  0  0  3  0  0  0  0  0  0
  183.7280  175.6050  137.5270 C   0  0  2  0  0  3  0  0  0  0  0  0
  187.8890  177.4850  139.9060 C   0  0  0  0  0  2  0  0  0  0  0  0
  188.7830  178.1260  139.0290 O   0  0  0  0  0  0  0  0  0  0  0  0
  189.1710  178.8170  136.8830 O   0  0  0  0  0  1  0  0  0  0  0  0
  183.9710  173.4450  134.7900 C   0  0  0  0  0  2  0  0  0  0  0  0
  185.5740  171.8570  135.9460 C   0  0  2  0  0  3  0  0  0  0  0  0
  183.6140  172.7940  137.2530 C   0  0  0  0  0  2  0  0  0  0  0  0
  184.3460  171.5300  136.8120 C   0  0  0  0  0  2  0  0  0  0  0  0
  185.4270  173.1710  135.1570 C   0  0  0  0  0  2  0  0  0  0  0  0
  183.0890  173.5840  136.0410 C   0  0  1  0  0  3  0  0  0  0  0  0
  185.9250  170.7150  135.0360 C   0  0  0  0  0  0  0  0  0  0  0  0
  187.1150  170.5540  134.6570 O   0  0  0  0  0  1  0  0  0  0  0  0
  184.9600  169.7890  134.6490 O   0  0  0  0  0  0  0  0  0  0  0  0
  187.4860  177.5950  142.4290 C   0  0  0  0  0  2  0  0  0  0  0  0
  188.7330  178.5840  145.7820 O   0  0  0  0  0  0  0  0  0  0  0  0
  185.3680  179.2860  144.0760 O   0  0  0  0  0  0  0  0  0  0  0  0
  188.2190  177.5590  146.6170 C   0  0  1  0  0  3  0  0  0  0  0  0
  187.0350  176.7640  146.0450 C   0  0  0  0  0  2  0  0  0  0  0  0
  186.2870  178.5020  144.4300 C   0  0  0  0  0  0  0  0  0  0  0  0
  187.5810  178.5080  143.6440 C   0  0  1  0  0  3  0  0  0  0  0  0
  186.0580  177.6520  145.5230 O   0  0  0  0  0  0  0  0  0  0  0  0
  188.8110  178.1100  144.4600 C   0  0  0  0  0  2  0  0  0  0  0  0
  189.3060  176.6840  147.2510 C   0  0  0  0  0  2  0  0  0  0  0  0
  190.6960  177.3130  147.2140 C   0  0  0  0  0  2  0  0  0  0  0  0
  191.6370  176.5390  146.3020 C   0  0  1  0  0  3  0  0  0  0  0  0
  192.2040  175.3190  147.0290 C   0  0  0  0  0  3  0  0  0  0  0  0
  193.3870  175.6510  147.6910 O   0  0  0  0  0  1  0  0  0  0  0  0
  191.2790  174.8520  147.9610 O   0  0  0  0  0  1  0  0  0  0  0  0
  190.9170  176.1360  145.1440 O   0  0  0  0  0  0  0  0  0  0  0  0
  191.5620  175.7290  143.9730 C   0  0  0  0  0  0  0  0  0  0  0  0
  191.6790  176.5120  142.9930 O   0  0  0  0  0  0  0  0  0  0  0  0
  192.0630  174.4740  143.8870 F   0  0  0  0  0  0  0  0  0  0  0  0
  1 13  1  0  0  0  0
  2 16  1  0  0  0  0
  5  4  1  0  0  0  0
  6  7  1  6  0  0  0
  6 11  1  0  0  0  0
  7  9  1  0  0  0  0
  8 19  1  0  0  0  0
  9  5  1  0  0  0  0
 10 20  1  0  0  0  0
 11  4  1  1  0  0  0
 11 23  1  0  0  0  0
 12 27  1  6  0  0  0
 12 26  1  0  0  0  0
 14 12  1  0  0  0  0
 15 17  1  6  0  0  0
 15 24  1  0  0  0  0
 16 21  1  0  0  0  0
 17  6  1  0  0  0  0
 18  2  1  0  0  0  0
 19 18  1  0  0  0  0
 19  3  1  1  0  0  0
 20 12  1  0  0  0  0
 21 37  1  1  0  0  0
 22  1  1  1  0  0  0
 22 10  1  0  0  0  0
 22 14  1  0  0  0  0
 23  8  1  1  0  0  0
 24 13  1  6  0  0  0
 24 23  1  0  0  0  0
 25 21  1  0  0  0  0
 26 25  1  0  0  0  0
 28 32  1  0  0  0  0
 29 34  1  6  0  0  0
 29 31  1  0  0  0  0
 31 30  1  0  0  0  0
 32 29  1  0  0  0  0
 33 28  1  6  0  0  0
 33 15  1  0  0  0  0
 33 30  1  0  0  0  0
 35 34  1  0  0  0  0
 36 34  2  0  0  0  0
 38 40  1  0  0  0  0
 39 42  2  0  0  0  0
 40 46  1  6  0  0  0
 41 40  1  0  0  0  0
 42 44  1  0  0  0  0
 43 37  1  6  0  0  0
 43 42  1  0  0  0  0
 43 45  1  0  0  0  0
 44 41  1  0  0  0  0
 45 38  1  0  0  0  0
 47 46  1  0  0  0  0
 48 49  1  0  0  0  0
 48 47  1  1  0  0  0
 49 50  1  0  0  0  0
 49 51  1  0  0  0  0
 52 48  1  0  0  0  0
 53 52  1  0  0  0  0
 54 53  2  0  0  0  0
 55 53  1  0  0  0  0
M  END
>  <MODEL>
7

>  <REMARK>
 VINA RESULT:      -5.6      2.655      4.108
  Name = 
  10 active torsions:
  status: ('A' for Active; 'I' for Inactive)
    1  A    between atoms: C_1  and  O_53
    2  A    between atoms: C_3  and  C_12
    3  A    between atoms: C_3  and  C_38
    4  A    between atoms: C_8  and  C_22
    5  A    between atoms: C_8  and  C_43
    6  A    between atoms: C_10  and  C_32
    7  A    between atoms: C_11  and  C_29
    8  A    between atoms: C_29  and  C_38
    9  A    between atoms: C_29  and  O_53
   10  A    between atoms: C_33  and  C_52
                            x       y       z     vdW  Elec       q    Type
                         _______ _______ _______ _____ _____    ______ ____

>  <TORSDO>
F 10

$$$$
=
 OpenBabel10262420193D

 55 60  0  0  1  0  0  0  0  0999 V2000
  189.2260  178.5850  137.9200 C   0  0  0  0  0  2  0  0  0  0  0  0
  186.4390  174.3200  135.9350 C   0  0  0  0  0  2  0  0  0  0  0  0
  188.5050  172.1100  136.3180 C   0  0  0  0  0  1  0  0  0  0  0  0
  191.9180  174.0770  137.9730 C   0  0  0  0  0  2  0  0  0  0  0  0
  193.3990  173.9030  137.6570 C   0  0  0  0  0  2  0  0  0  0  0  0
  192.1260  176.5300  137.2910 C   0  0  1  0  0  3  0  0  0  0  0  0
  193.6220  176.3140  137.0760 C   0  0  0  0  0  2  0  0  0  0  0  0
  188.9860  174.2200  137.5550 C   0  0  0  0  0  2  0  0  0  0  0  0
  194.1470  175.1940  137.9640 C   0  0  0  0  0  2  0  0  0  0  0  0
  188.6860  177.6900  135.7360 O   0  0  0  0  0  0  0  0  0  0  0  0
  191.3070  175.2160  137.1370 C   0  0  2  0  0  3  0  0  0  0  0  0
  186.4570  178.5360  135.4830 C   0  0  1  0  0  0  0  0  0  0  0  0
  188.7010  177.3990  138.7320 C   0  0  0  0  0  2  0  0  0  0  0  0
  187.0130  179.0210  136.7900 C   0  0  0  0  0  2  0  0  0  0  0  0
  191.0930  176.6390  139.3990 C   0  0  2  0  0  3  0  0  0  0  0  0
  185.5270  174.9250  135.0550 O   0  0  0  0  0  0  0  0  0  0  0  0
  191.8830  177.3260  138.4480 O   0  0  0  0  0  0  0  0  0  0  0  0
  187.8250  174.3010  135.3040 C   0  0  0  0  0  2  0  0  0  0  0  0
  188.8510  173.5820  136.1780 C   0  0  2  0  0  3  0  0  0  0  0  0
  187.5050  177.5560  134.9780 C   0  0  0  0  0  2  0  0  0  0  0  0
  184.5760  175.6500  135.8050 C   0  0  2  0  0  3  0  0  0  0  0  0
  188.4930  178.7830  136.5990 C   0  0  1  0  0  3  0  0  0  0  0  0
  189.8380  175.4880  137.5140 C   0  0  2  0  0  3  0  0  0  0  0  0
  189.7080  176.2460  138.8430 C   0  0  2  0  0  3  0  0  0  0  0  0
  185.1740  176.8770  136.4890 C   0  0  0  0  0  2  0  0  0  0  0  0
  185.1640  177.9610  135.5910 O   0  0  0  0  0  0  0  0  0  0  0  0
  186.3940  179.6130  134.5960 O   0  0  0  0  0  1  0  0  0  0  0  0
  189.7250  177.0400  141.4610 C   0  0  0  0  0  2  0  0  0  0  0  0
  190.8610  176.2510  143.5860 C   0  0  2  0  0  3  0  0  0  0  0  0
  192.2920  176.9770  141.6230 C   0  0  0  0  0  2  0  0  0  0  0  0
  191.9990  177.1690  143.1080 C   0  0  0  0  0  2  0  0  0  0  0  0
  189.8530  175.9060  142.4750 C   0  0  0  0  0  2  0  0  0  0  0  0
  191.0640  177.3280  140.7640 C   0  0  1  0  0  3  0  0  0  0  0  0
  190.1660  176.8190  144.7910 C   0  0  0  0  0  0  0  0  0  0  0  0
  190.7890  176.9360  145.8790 O   0  0  0  0  0  1  0  0  0  0  0  0
  188.8540  177.2760  144.7090 O   0  0  0  0  0  0  0  0  0  0  0  0
  183.7460  174.7710  136.7490 C   0  0  0  0  0  2  0  0  0  0  0  0
  180.8320  176.9230  137.5590 O   0  0  0  0  0  0  0  0  0  0  0  0
  181.0460  173.1310  137.0170 O   0  0  0  0  0  0  0  0  0  0  0  0
  180.7600  176.8270  138.9720 C   0  0  1  0  0  3  0  0  0  0  0  0
  181.4760  175.6180  139.5950 C   0  0  0  0  0  2  0  0  0  0  0  0
  181.4470  174.1950  137.5540 C   0  0  0  0  0  0  0  0  0  0  0  0
  182.2720  175.1540  136.7220 C   0  0  1  0  0  3  0  0  0  0  0  0
  181.1230  174.4310  138.8990 O   0  0  0  0  0  0  0  0  0  0  0  0
  182.1390  176.6200  137.1390 C   0  0  0  0  0  2  0  0  0  0  0  0
  181.0410  178.1510  139.6910 C   0  0  0  0  0  2  0  0  0  0  0  0
  182.4530  178.2490  140.2600 C   0  0  0  0  0  2  0  0  0  0  0  0
  182.4920  179.1100  141.5160 C   0  0  1  0  0  3  0  0  0  0  0  0
  181.1770  178.9900  142.2880 C   0  0  0  0  0  3  0  0  0  0  0  0
  181.4210  178.6490  143.6190 O   0  0  0  0  0  1  0  0  0  0  0  0
  180.4940  180.2040  142.2480 O   0  0  0  0  0  1  0  0  0  0  0  0
  183.5820  178.6860  142.3230 O   0  0  0  0  0  0  0  0  0  0  0  0
  184.9100  178.8260  141.9100 C   0  0  0  0  0  0  0  0  0  0  0  0
  185.2370  179.7040  141.0670 O   0  0  0  0  0  0  0  0  0  0  0  0
  185.8590  178.0020  142.4160 F   0  0  0  0  0  0  0  0  0  0  0  0
  1 13  1  0  0  0  0
  5  9  1  0  0  0  0
  5  4  1  0  0  0  0
  6  7  1  1  0  0  0
  6 17  1  0  0  0  0
  7  9  1  0  0  0  0
 10 22  1  0  0  0  0
 11  6  1  0  0  0  0
 11 23  1  0  0  0  0
 11  4  1  1  0  0  0
 12 27  1  6  0  0  0
 12 26  1  0  0  0  0
 12 14  1  0  0  0  0
 15 17  1  6  0  0  0
 15 33  1  0  0  0  0
 16 21  1  0  0  0  0
 16  2  1  0  0  0  0
 18  2  1  0  0  0  0
 18 19  1  0  0  0  0
 19  3  1  1  0  0  0
 19  8  1  0  0  0  0
 20 12  1  0  0  0  0
 20 10  1  0  0  0  0
 21 25  1  0  0  0  0
 21 37  1  1  0  0  0
 22 14  1  1  0  0  0
 22  1  1  0  0  0  0
 23  8  1  1  0  0  0
 23 24  1  0  0  0  0
 24 13  1  6  0  0  0
 24 15  1  0  0  0  0
 26 25  1  0  0  0  0
 28 32  1  0  0  0  0
 29 34  1  1  0  0  0
 30 31  1  0  0  0  0
 31 29  1  0  0  0  0
 32 29  1  0  0  0  0
 33 28  1  1  0  0  0
 33 30  1  0  0  0  0
 34 35  1  0  0  0  0
 36 34  2  0  0  0  0
 38 40  1  0  0  0  0
 39 42  2  0  0  0  0
 40 41  1  0  0  0  0
 40 46  1  1  0  0  0
 42 44  1  0  0  0  0
 43 37  1  1  0  0  0
 43 45  1  0  0  0  0
 43 42  1  0  0  0  0
 44 41  1  0  0  0  0
 45 38  1  0  0  0  0
 46 47  1  0  0  0  0
 48 47  1  6  0  0  0
 48 49  1  0  0  0  0
 48 52  1  0  0  0  0
 49 50  1  0  0  0  0
 51 49  1  0  0  0  0
 53 52  1  0  0  0  0
 53 55  1  0  0  0  0
 54 53  2  0  0  0  0
M  END
>  <MODEL>
8

>  <REMARK>
 VINA RESULT:      -5.4      3.000      9.604
  Name = 
  10 active torsions:
  status: ('A' for Active; 'I' for Inactive)
    1  A    between atoms: C_1  and  O_53
    2  A    between atoms: C_3  and  C_12
    3  A    between atoms: C_3  and  C_38
    4  A    between atoms: C_8  and  C_22
    5  A    between atoms: C_8  and  C_43
    6  A    between atoms: C_10  and  C_32
    7  A    between atoms: C_11  and  C_29
    8  A    between atoms: C_29  and  C_38
    9  A    between atoms: C_29  and  O_53
   10  A    between atoms: C_33  and  C_52
                            x       y       z     vdW  Elec       q    Type
                         _______ _______ _______ _____ _____    ______ ____

>  <TORSDO>
F 10

$$$$
=
 OpenBabel10262420193D

 55 60  0  0  1  0  0  0  0  0999 V2000
  183.9750  177.4280  137.0940 C   0  0  0  0  0  2  0  0  0  0  0  0
  186.6760  178.3140  141.7650 C   0  0  0  0  0  2  0  0  0  0  0  0
  184.3500  179.0570  143.5910 C   0  0  0  0  0  1  0  0  0  0  0  0
  180.8980  178.9260  141.0770 C   0  0  0  0  0  2  0  0  0  0  0  0
  179.7080  179.8740  140.9940 C   0  0  0  0  0  2  0  0  0  0  0  0
  181.3910  179.4320  138.6220 C   0  0  1  0  0  3  0  0  0  0  0  0
  180.1350  180.3010  138.5790 C   0  0  0  0  0  2  0  0  0  0  0  0
  183.6910  177.9950  141.4340 C   0  0  0  0  0  2  0  0  0  0  0  0
  179.1060  179.8270  139.5960 C   0  0  0  0  0  2  0  0  0  0  0  0
  185.2930  179.2140  138.0600 O   0  0  0  0  0  0  0  0  0  0  0  0
  181.9820  179.3130  140.0560 C   0  0  2  0  0  3  0  0  0  0  0  0
  187.4990  178.3900  137.6060 C   0  0  1  0  0  0  0  0  0  0  0  0
  183.8940  176.5650  138.3550 C   0  0  0  0  0  2  0  0  0  0  0  0
  186.4970  177.4280  137.0380 C   0  0  0  0  0  2  0  0  0  0  0  0
  181.3730  177.0830  138.6980 C   0  0  2  0  0  3  0  0  0  0  0  0
  187.9650  178.6500  141.3220 O   0  0  0  0  0  0  0  0  0  0  0  0
  181.2070  178.2270  137.8830 O   0  0  0  0  0  0  0  0  0  0  0  0
  185.7340  179.4890  141.5450 C   0  0  0  0  0  2  0  0  0  0  0  0
  184.3300  179.2180  142.0820 C   0  0  2  0  0  3  0  0  0  0  0  0
  186.6540  179.3820  138.3910 C   0  0  0  0  0  2  0  0  0  0  0  0
  188.5760  177.5030  140.7720 C   0  0  2  0  0  3  0  0  0  0  0  0
  185.2420  178.2700  137.0200 C   0  0  1  0  0  3  0  0  0  0  0  0
  183.1490  178.3060  140.0400 C   0  0  2  0  0  3  0  0  0  0  0  0
  182.7830  177.0010  139.3200 C   0  0  2  0  0  3  0  0  0  0  0  0
  187.9290  177.0570  139.4630 C   0  0  0  0  0  2  0  0  0  0  0  0
  188.5030  177.7690  138.3940 O   0  0  0  0  0  0  0  0  0  0  0  0
  188.1140  179.0700  136.5520 O   0  0  0  0  0  1  0  0  0  0  0  0
  181.1880  175.8500  136.5230 C   0  0  0  0  0  2  0  0  0  0  0  0
  182.3520  173.5980  136.5450 C   0  0  2  0  0  3  0  0  0  0  0  0
  181.4430  174.5350  138.7190 C   0  0  0  0  0  2  0  0  0  0  0  0
  181.4500  173.3430  137.7660 C   0  0  0  0  0  2  0  0  0  0  0  0
  182.4640  175.0880  136.1740 C   0  0  0  0  0  2  0  0  0  0  0  0
  180.8910  175.7950  138.0290 C   0  0  1  0  0  3  0  0  0  0  0  0
  181.9220  172.7760  135.3640 C   0  0  0  0  0  0  0  0  0  0  0  0
  182.7860  172.2800  134.5940 O   0  0  0  0  0  0  0  0  0  0  0  0
  180.5760  172.5000  135.1390 O   0  0  0  0  0  1  0  0  0  0  0  0
  188.7520  176.3620  141.7820 C   0  0  0  0  0  2  0  0  0  0  0  0
  191.4660  176.3660  144.3150 O   0  0  0  0  0  0  0  0  0  0  0  0
  191.5260  177.3540  140.6090 O   0  0  0  0  0  0  0  0  0  0  0  0
  191.4490  177.7040  144.7840 C   0  0  1  0  0  3  0  0  0  0  0  0
  190.7710  178.7260  143.8590 C   0  0  0  0  0  2  0  0  0  0  0  0
  191.0240  177.4130  141.7600 C   0  0  0  0  0  0  0  0  0  0  0  0
  190.1980  176.2410  142.2470 C   0  0  1  0  0  3  0  0  0  0  0  0
  191.2420  178.5670  142.5280 O   0  0  0  0  0  0  0  0  0  0  0  0
  190.2110  176.0520  143.7640 C   0  0  0  0  0  2  0  0  0  0  0  0
  191.0390  177.8320  146.2560 C   0  0  0  0  0  2  0  0  0  0  0  0
  190.3110  176.6050  146.7950 C   0  0  0  0  0  2  0  0  0  0  0  0
  188.8590  176.9170  147.1270 C   0  0  1  0  0  3  0  0  0  0  0  0
  188.7580  177.6210  148.4810 C   0  0  0  0  0  3  0  0  0  0  0  0
  188.7400  179.0060  148.3110 O   0  0  0  0  0  1  0  0  0  0  0  0
  187.5890  177.2290  149.1320 O   0  0  0  0  0  1  0  0  0  0  0  0
  188.3250  177.7390  146.0980 O   0  0  0  0  0  0  0  0  0  0  0  0
  187.0250  177.5720  145.6140 C   0  0  0  0  0  0  0  0  0  0  0  0
  186.0470  178.1360  146.1740 O   0  0  0  0  0  0  0  0  0  0  0  0
  186.8100  176.7860  144.5310 F   0  0  0  0  0  0  0  0  0  0  0  0
  1 13  1  0  0  0  0
  5  4  1  0  0  0  0
  6  7  1  1  0  0  0
  6 11  1  0  0  0  0
  7  9  1  0  0  0  0
  8 19  1  0  0  0  0
  9  5  1  0  0  0  0
 10 20  1  0  0  0  0
 11  4  1  1  0  0  0
 12 27  1  6  0  0  0
 12 20  1  0  0  0  0
 12 26  1  0  0  0  0
 14 12  1  0  0  0  0
 15 17  1  6  0  0  0
 15 24  1  0  0  0  0
 16  2  1  0  0  0  0
 17  6  1  0  0  0  0
 18  2  1  0  0  0  0
 18 19  1  0  0  0  0
 19  3  1  1  0  0  0
 21 16  1  0  0  0  0
 21 37  1  1  0  0  0
 22 14  1  1  0  0  0
 22  1  1  0  0  0  0
 22 10  1  0  0  0  0
 23 11  1  0  0  0  0
 23  8  1  1  0  0  0
 24 13  1  6  0  0  0
 24 23  1  0  0  0  0
 25 21  1  0  0  0  0
 26 25  1  0  0  0  0
 29 34  1  6  0  0  0
 29 31  1  0  0  0  0
 31 30  1  0  0  0  0
 32 28  1  0  0  0  0
 32 29  1  0  0  0  0
 33 28  1  6  0  0  0
 33 15  1  0  0  0  0
 33 30  1  0  0  0  0
 35 34  2  0  0  0  0
 36 34  1  0  0  0  0
 38 40  1  0  0  0  0
 39 42  2  0  0  0  0
 40 46  1  1  0  0  0
 41 40  1  0  0  0  0
 42 43  1  0  0  0  0
 42 44  1  0  0  0  0
 43 37  1  1  0  0  0
 43 45  1  0  0  0  0
 44 41  1  0  0  0  0
 45 38  1  0  0  0  0
 46 47  1  0  0  0  0
 48 47  1  6  0  0  0
 48 49  1  0  0  0  0
 49 51  1  0  0  0  0
 50 49  1  0  0  0  0
 52 48  1  0  0  0  0
 53 52  1  0  0  0  0
 53 54  2  0  0  0  0
 55 53  1  0  0  0  0
M  END
>  <MODEL>
9

>  <REMARK>
 VINA RESULT:      -5.3      1.465      2.096
  Name = 
  10 active torsions:
  status: ('A' for Active; 'I' for Inactive)
    1  A    between atoms: C_1  and  O_53
    2  A    between atoms: C_3  and  C_12
    3  A    between atoms: C_3  and  C_38
    4  A    between atoms: C_8  and  C_22
    5  A    between atoms: C_8  and  C_43
    6  A    between atoms: C_10  and  C_32
    7  A    between atoms: C_11  and  C_29
    8  A    between atoms: C_29  and  C_38
    9  A    between atoms: C_29  and  O_53
   10  A    between atoms: C_33  and  C_52
                            x       y       z     vdW  Elec       q    Type
                         _______ _______ _______ _____ _____    ______ ____

>  <TORSDO>
F 10

$$$$
