=
 OpenBabel10262419533D

 25 28  0  0  1  0  0  0  0  0999 V2000
  186.3250  178.0750  145.2320 C   0  0  0  0  0  0  0  0  0  0  0  0
  186.0480  177.8350  143.8810 C   0  0  0  0  0  0  0  0  0  0  0  0
  184.1320  179.0150  145.6350 C   0  0  0  0  0  3  0  0  0  0  0  0
  187.4350  177.8490  146.0170 C   0  0  0  0  0  0  0  0  0  0  0  0
  187.4040  178.6280  141.7850 C   0  0  2  0  0  3  0  0  0  0  0  0
  189.2650  177.6700  148.0880 C   0  0  0  0  0  3  0  0  0  0  0  0
  183.8310  178.8060  144.2790 C   0  0  0  0  0  3  0  0  0  0  0  0
  187.0970  178.2900  147.2810 C   0  0  0  0  0  0  0  0  0  0  0  0
  187.9940  178.2150  148.3430 C   0  0  0  0  0  3  0  0  0  0  0  0
  184.4690  178.1070  141.9170 C   0  0  1  0  0  3  0  0  0  0  0  0
  182.9950  178.2780  141.5770 C   0  0  0  0  0  1  0  0  0  0  0  0
  187.2900  177.1120  142.7960 S   0  0  0  0  0  0  0  0  0  0  0  0
  189.6090  177.2190  146.7940 C   0  0  0  0  0  3  0  0  0  0  0  0
  185.3940  178.6390  146.0820 C   0  0  0  0  0  0  0  0  0  0  0  0
  185.8680  178.7630  147.3060 O   0  0  0  0  0  0  0  0  0  0  0  0
  185.3040  179.1260  141.1460 C   0  0  0  0  0  2  0  0  0  0  0  0
  188.6870  177.3050  145.7360 C   0  0  0  0  0  3  0  0  0  0  0  0
  186.5050  178.5460  140.7100 O   0  0  0  0  0  0  0  0  0  0  0  0
  184.7670  178.2120  143.3950 C   0  0  0  0  0  0  0  0  0  0  0  0
  188.8270  178.8670  141.2860 C   0  0  0  0  0  2  0  0  0  0  0  0
  189.4080  177.6670  140.5440 C   0  0  2  0  0  3  0  0  0  0  0  0
  190.6190  177.2800  141.1230 O   0  0  0  0  0  1  0  0  0  0  0  0
  189.6210  178.0080  139.1080 C   0  0  0  0  0  0  0  0  0  0  0  0
  189.0540  179.1620  138.5850 O   0  0  0  0  0  1  0  0  0  0  0  0
  190.3260  177.2680  138.3720 O   0  0  0  0  0  0  0  0  0  0  0  0
  1  4  1  0  0  0  0
  1 14  2  0  0  0  0
  2  1  1  0  0  0  0
  3 14  1  0  0  0  0
  4  8  1  0  0  0  0
  5 20  1  6  0  0  0
  5 12  1  0  0  0  0
  6  9  1  0  0  0  0
  7  3  2  0  0  0  0
  8 15  1  0  0  0  0
  8  9  2  0  0  0  0
 10 11  1  1  0  0  0
 10 19  1  0  0  0  0
 12  2  1  0  0  0  0
 13  6  2  0  0  0  0
 14 15  1  0  0  0  0
 16 10  1  0  0  0  0
 17  4  2  0  0  0  0
 17 13  1  0  0  0  0
 18 16  1  0  0  0  0
 18  5  1  0  0  0  0
 19  2  2  0  0  0  0
 19  7  1  0  0  0  0
 21 22  1  1  0  0  0
 21 20  1  0  0  0  0
 23 21  1  0  0  0  0
 24 23  1  0  0  0  0
 25 23  2  0  0  0  0
M  END
>  <MODEL>
1

>  <REMARK>
 VINA RESULT:     -10.0      0.000      0.000
  Name = 
  3 active torsions:
  status: ('A' for Active; 'I' for Inactive)
    1  A    between atoms: C_2  and  C_21
    2  A    between atoms: C_6  and  C_15
    3  A    between atoms: C_15  and  C_21
                            x       y       z     vdW  Elec       q    Type
                         _______ _______ _______ _____ _____    ______ ____

>  <TORSDO>
F 3

$$$$
=
 OpenBabel10262419533D

 25 28  0  0  1  0  0  0  0  0999 V2000
  187.8280  177.6540  145.6060 C   0  0  0  0  0  0  0  0  0  0  0  0
  186.9840  177.6360  144.4880 C   0  0  0  0  0  0  0  0  0  0  0  0
  186.1370  178.6680  147.0080 C   0  0  0  0  0  3  0  0  0  0  0  0
  189.1270  177.2420  145.8080 C   0  0  0  0  0  0  0  0  0  0  0  0
  187.4280  178.6390  142.1090 C   0  0  2  0  0  3  0  0  0  0  0  0
  191.6170  176.6370  146.8590 C   0  0  0  0  0  3  0  0  0  0  0  0
  185.2740  178.6830  145.9010 C   0  0  0  0  0  3  0  0  0  0  0  0
  189.4040  177.5120  147.1330 C   0  0  0  0  0  0  0  0  0  0  0  0
  190.6460  177.2210  147.6920 C   0  0  0  0  0  3  0  0  0  0  0  0
  184.7770  178.3000  143.4340 C   0  0  1  0  0  3  0  0  0  0  0  0
  183.3290  178.6170  143.7820 C   0  0  0  0  0  1  0  0  0  0  0  0
  187.5610  177.0010  142.9040 S   0  0  0  0  0  0  0  0  0  0  0  0
  191.3310  176.3610  145.5030 C   0  0  0  0  0  3  0  0  0  0  0  0
  187.4130  178.1470  146.8270 C   0  0  0  0  0  0  0  0  0  0  0  0
  188.3660  178.0560  147.7340 O   0  0  0  0  0  0  0  0  0  0  0  0
  185.3330  179.3640  142.4910 C   0  0  0  0  0  2  0  0  0  0  0  0
  190.0690  176.6630  144.9600 C   0  0  0  0  0  3  0  0  0  0  0  0
  186.1610  178.7770  141.5230 O   0  0  0  0  0  0  0  0  0  0  0  0
  185.6750  178.1650  144.6420 C   0  0  0  0  0  0  0  0  0  0  0  0
  188.5310  178.8540  141.0750 C   0  0  0  0  0  2  0  0  0  0  0  0
  188.6650  177.6920  140.0950 C   0  0  2  0  0  3  0  0  0  0  0  0
  189.9650  177.1830  140.1230 O   0  0  0  0  0  1  0  0  0  0  0  0
  188.3290  178.1470  138.7150 C   0  0  0  0  0  0  0  0  0  0  0  0
  188.9550  179.2690  138.1900 O   0  0  0  0  0  1  0  0  0  0  0  0
  187.4990  177.5090  138.0160 O   0  0  0  0  0  0  0  0  0  0  0  0
  1  4  1  0  0  0  0
  1 14  2  0  0  0  0
  2 19  2  0  0  0  0
  2  1  1  0  0  0  0
  4  8  1  0  0  0  0
  5 20  1  6  0  0  0
  5 12  1  0  0  0  0
  6  9  1  0  0  0  0
  7  3  2  0  0  0  0
  8  9  2  0  0  0  0
  8 15  1  0  0  0  0
 10 11  1  1  0  0  0
 10 19  1  0  0  0  0
 12  2  1  0  0  0  0
 13  6  2  0  0  0  0
 14  3  1  0  0  0  0
 14 15  1  0  0  0  0
 16 10  1  0  0  0  0
 17 13  1  0  0  0  0
 17  4  2  0  0  0  0
 18  5  1  0  0  0  0
 18 16  1  0  0  0  0
 19  7  1  0  0  0  0
 21 22  1  6  0  0  0
 21 20  1  0  0  0  0
 23 21  1  0  0  0  0
 24 23  1  0  0  0  0
 25 23  2  0  0  0  0
M  END
>  <MODEL>
2

>  <REMARK>
 VINA RESULT:      -9.7      1.249      1.853
  Name = 
  3 active torsions:
  status: ('A' for Active; 'I' for Inactive)
    1  A    between atoms: C_2  and  C_21
    2  A    between atoms: C_6  and  C_15
    3  A    between atoms: C_15  and  C_21
                            x       y       z     vdW  Elec       q    Type
                         _______ _______ _______ _____ _____    ______ ____

>  <TORSDO>
F 3

$$$$
=
 OpenBabel10262419533D

 25 28  0  0  1  0  0  0  0  0999 V2000
  187.2330  177.8990  142.6930 C   0  0  0  0  0  0  0  0  0  0  0  0
  188.4360  177.2370  142.4150 C   0  0  0  0  0  0  0  0  0  0  0  0
  186.9920  178.6630  140.4090 C   0  0  0  0  0  3  0  0  0  0  0  0
  186.4860  178.0450  143.8410 C   0  0  0  0  0  0  0  0  0  0  0  0
  190.7500  177.5160  143.6080 C   0  0  2  0  0  3  0  0  0  0  0  0
  184.5700  178.7010  145.7290 C   0  0  0  0  0  3  0  0  0  0  0  0
  188.2060  178.0260  140.1030 C   0  0  0  0  0  3  0  0  0  0  0  0
  185.3900  178.8020  143.4810 C   0  0  0  0  0  0  0  0  0  0  0  0
  184.4080  179.1500  144.4060 C   0  0  0  0  0  3  0  0  0  0  0  0
  190.2940  176.7300  140.7660 C   0  0  1  0  0  3  0  0  0  0  0  0
  190.5780  176.6240  139.2750 C   0  0  0  0  0  1  0  0  0  0  0  0
  189.3340  176.3690  143.7110 S   0  0  0  0  0  0  0  0  0  0  0  0
  185.6920  177.9260  146.0960 C   0  0  0  0  0  3  0  0  0  0  0  0
  186.5320  178.5830  141.7190 C   0  0  0  0  0  0  0  0  0  0  0  0
  185.4300  179.1190  142.2040 O   0  0  0  0  0  0  0  0  0  0  0  0
  191.3790  177.5600  141.4480 C   0  0  0  0  0  2  0  0  0  0  0  0
  186.6710  177.5870  145.1440 C   0  0  0  0  0  3  0  0  0  0  0  0
  191.6970  177.0160  142.7010 O   0  0  0  0  0  0  0  0  0  0  0  0
  188.9320  177.3040  141.0850 C   0  0  0  0  0  0  0  0  0  0  0  0
  191.3840  177.7540  144.9770 C   0  0  0  0  0  2  0  0  0  0  0  0
  190.7260  176.9410  146.0880 C   0  0  2  0  0  3  0  0  0  0  0  0
  189.8740  177.7500  146.8410 O   0  0  0  0  0  1  0  0  0  0  0  0
  191.7700  176.3460  146.9710 C   0  0  0  0  0  0  0  0  0  0  0  0
  192.4040  175.1710  146.5910 O   0  0  0  0  0  0  0  0  0  0  0  0
  192.0950  176.9120  148.0490 O   0  0  0  0  0  1  0  0  0  0  0  0
  1  4  1  0  0  0  0
  2  1  1  0  0  0  0
  2 12  1  0  0  0  0
  3 14  1  0  0  0  0
  4 17  1  0  0  0  0
  5 12  1  0  0  0  0
  5 20  1  1  0  0  0
  6 13  1  0  0  0  0
  7  3  2  0  0  0  0
  7 19  1  0  0  0  0
  8  4  2  0  0  0  0
  8  9  1  0  0  0  0
  9  6  2  0  0  0  0
 10 11  1  6  0  0  0
 10 19  1  0  0  0  0
 10 16  1  0  0  0  0
 14 15  1  0  0  0  0
 14  1  2  0  0  0  0
 15  8  1  0  0  0  0
 16 18  1  0  0  0  0
 17 13  2  0  0  0  0
 18  5  1  0  0  0  0
 19  2  2  0  0  0  0
 20 21  1  0  0  0  0
 21 22  1  1  0  0  0
 21 23  1  0  0  0  0
 23 25  1  0  0  0  0
 24 23  2  0  0  0  0
M  END
>  <MODEL>
3

>  <REMARK>
 VINA RESULT:      -9.5      2.494      5.665
  Name = 
  3 active torsions:
  status: ('A' for Active; 'I' for Inactive)
    1  A    between atoms: C_2  and  C_21
    2  A    between atoms: C_6  and  C_15
    3  A    between atoms: C_15  and  C_21
                            x       y       z     vdW  Elec       q    Type
                         _______ _______ _______ _____ _____    ______ ____

>  <TORSDO>
F 3

$$$$
=
 OpenBabel10262419533D

 25 28  0  0  1  0  0  0  0  0999 V2000
  186.2820  178.1850  145.3150 C   0  0  0  0  0  0  0  0  0  0  0  0
  186.2430  177.8110  143.9660 C   0  0  0  0  0  0  0  0  0  0  0  0
  184.2020  179.4100  145.1540 C   0  0  0  0  0  3  0  0  0  0  0  0
  187.1760  177.9340  146.3330 C   0  0  0  0  0  0  0  0  0  0  0  0
  188.0770  178.1770  142.1320 C   0  0  2  0  0  3  0  0  0  0  0  0
  188.5250  177.8090  148.7480 C   0  0  0  0  0  3  0  0  0  0  0  0
  184.1450  179.0700  143.7930 C   0  0  0  0  0  3  0  0  0  0  0  0
  186.6620  178.5650  147.4480 C   0  0  0  0  0  0  0  0  0  0  0  0
  187.3150  178.5220  148.6760 C   0  0  0  0  0  3  0  0  0  0  0  0
  185.1300  178.0130  141.6980 C   0  0  1  0  0  3  0  0  0  0  0  0
  183.7880  178.3060  141.0420 C   0  0  0  0  0  1  0  0  0  0  0  0
  187.5620  176.8220  143.2420 S   0  0  0  0  0  0  0  0  0  0  0  0
  189.0500  177.1640  147.6060 C   0  0  0  0  0  3  0  0  0  0  0  0
  185.2890  178.9530  145.8900 C   0  0  0  0  0  0  0  0  0  0  0  0
  185.5280  179.1740  147.1680 O   0  0  0  0  0  0  0  0  0  0  0  0
  186.2310  178.8260  141.0220 C   0  0  0  0  0  2  0  0  0  0  0  0
  188.3720  177.2210  146.3750 C   0  0  0  0  0  3  0  0  0  0  0  0
  187.4030  178.0630  140.9070 O   0  0  0  0  0  0  0  0  0  0  0  0
  185.1460  178.2670  143.1880 C   0  0  0  0  0  0  0  0  0  0  0  0
  189.5900  178.1880  141.9200 C   0  0  0  0  0  2  0  0  0  0  0  0
  190.3750  178.1080  143.2260 C   0  0  2  0  0  3  0  0  0  0  0  0
  191.3400  179.1160  143.2730 O   0  0  0  0  0  1  0  0  0  0  0  0
  191.0320  176.7740  143.3450 C   0  0  0  0  0  0  0  0  0  0  0  0
  190.7850  175.7990  142.3880 O   0  0  0  0  0  0  0  0  0  0  0  0
  191.8240  176.5330  144.2940 O   0  0  0  0  0  1  0  0  0  0  0  0
  1 14  2  0  0  0  0
  1  4  1  0  0  0  0
  2  1  1  0  0  0  0
  3 14  1  0  0  0  0
  4 17  2  0  0  0  0
  4  8  1  0  0  0  0
  5 20  1  6  0  0  0
  5 12  1  0  0  0  0
  7  3  2  0  0  0  0
  8  9  2  0  0  0  0
  9  6  1  0  0  0  0
 10 11  1  6  0  0  0
 10 19  1  0  0  0  0
 12  2  1  0  0  0  0
 13  6  2  0  0  0  0
 14 15  1  0  0  0  0
 15  8  1  0  0  0  0
 16 10  1  0  0  0  0
 17 13  1  0  0  0  0
 18 16  1  0  0  0  0
 18  5  1  0  0  0  0
 19  7  1  0  0  0  0
 19  2  2  0  0  0  0
 20 21  1  0  0  0  0
 21 22  1  6  0  0  0
 21 23  1  0  0  0  0
 23 25  1  0  0  0  0
 24 23  2  0  0  0  0
M  END
>  <MODEL>
4

>  <REMARK>
 VINA RESULT:      -9.1      1.452      2.155
  Name = 
  3 active torsions:
  status: ('A' for Active; 'I' for Inactive)
    1  A    between atoms: C_2  and  C_21
    2  A    between atoms: C_6  and  C_15
    3  A    between atoms: C_15  and  C_21
                            x       y       z     vdW  Elec       q    Type
                         _______ _______ _______ _____ _____    ______ ____

>  <TORSDO>
F 3

$$$$
=
 OpenBabel10262419533D

 25 28  0  0  1  0  0  0  0  0999 V2000
  187.4710  178.0110  145.7220 C   0  0  0  0  0  0  0  0  0  0  0  0
  188.8380  177.8460  145.4680 C   0  0  0  0  0  0  0  0  0  0  0  0
  187.6990  177.3250  148.0310 C   0  0  0  0  0  3  0  0  0  0  0  0
  186.4120  178.4150  144.9370 C   0  0  0  0  0  0  0  0  0  0  0  0
  189.9750  176.4060  143.5990 C   0  0  2  0  0  3  0  0  0  0  0  0
  183.9280  179.1310  143.9450 C   0  0  0  0  0  3  0  0  0  0  0  0
  189.0710  177.1300  147.8030 C   0  0  0  0  0  3  0  0  0  0  0  0
  185.3040  178.3870  145.7590 C   0  0  0  0  0  0  0  0  0  0  0  0
  184.0410  178.7400  145.2920 C   0  0  0  0  0  3  0  0  0  0  0  0
  191.1080  177.0630  146.2790 C   0  0  1  0  0  3  0  0  0  0  0  0
  191.9240  176.8580  147.5480 C   0  0  0  0  0  1  0  0  0  0  0  0
  189.5190  178.1580  143.8310 S   0  0  0  0  0  0  0  0  0  0  0  0
  185.0640  179.1580  143.1060 C   0  0  0  0  0  3  0  0  0  0  0  0
  186.9220  177.7650  146.9660 C   0  0  0  0  0  0  0  0  0  0  0  0
  185.6240  177.9950  146.9750 O   0  0  0  0  0  0  0  0  0  0  0  0
  191.2080  175.8260  145.3900 C   0  0  0  0  0  2  0  0  0  0  0  0
  186.3300  178.7980  143.6000 C   0  0  0  0  0  3  0  0  0  0  0  0
  191.2910  176.1990  144.0400 O   0  0  0  0  0  0  0  0  0  0  0  0
  189.6560  177.3940  146.5380 C   0  0  0  0  0  0  0  0  0  0  0  0
  189.8150  175.9700  142.1440 C   0  0  0  0  0  2  0  0  0  0  0  0
  189.9110  177.1310  141.1590 C   0  0  2  0  0  3  0  0  0  0  0  0
  188.7070  177.2820  140.4690 O   0  0  0  0  0  1  0  0  0  0  0  0
  191.0210  176.8900  140.1920 C   0  0  0  0  0  0  0  0  0  0  0  0
  190.8590  175.9540  139.1800 O   0  0  0  0  0  0  0  0  0  0  0  0
  192.0950  177.5430  140.2750 O   0  0  0  0  0  1  0  0  0  0  0  0
  1 14  1  0  0  0  0
  2  1  2  0  0  0  0
  2 19  1  0  0  0  0
  4  1  1  0  0  0  0
  4  8  1  0  0  0  0
  5 20  1  6  0  0  0
  5 12  1  0  0  0  0
  5 18  1  0  0  0  0
  6  9  1  0  0  0  0
  7  3  1  0  0  0  0
  8 15  1  0  0  0  0
  9  8  2  0  0  0  0
 10 19  1  0  0  0  0
 10 11  1  1  0  0  0
 12  2  1  0  0  0  0
 13 17  1  0  0  0  0
 13  6  2  0  0  0  0
 14 15  1  0  0  0  0
 14  3  2  0  0  0  0
 16 10  1  0  0  0  0
 17  4  2  0  0  0  0
 18 16  1  0  0  0  0
 19  7  2  0  0  0  0
 21 22  1  6  0  0  0
 21 20  1  0  0  0  0
 23 25  1  0  0  0  0
 23 21  1  0  0  0  0
 24 23  2  0  0  0  0
M  END
>  <MODEL>
5

>  <REMARK>
 VINA RESULT:      -8.6      1.613      4.872
  Name = 
  3 active torsions:
  status: ('A' for Active; 'I' for Inactive)
    1  A    between atoms: C_2  and  C_21
    2  A    between atoms: C_6  and  C_15
    3  A    between atoms: C_15  and  C_21
                            x       y       z     vdW  Elec       q    Type
                         _______ _______ _______ _____ _____    ______ ____

>  <TORSDO>
F 3

$$$$
=
 OpenBabel10262419533D

 25 28  0  0  1  0  0  0  0  0999 V2000
  189.5480  177.3510  143.7360 C   0  0  0  0  0  0  0  0  0  0  0  0
  188.4410  177.2250  144.5840 C   0  0  0  0  0  0  0  0  0  0  0  0
  191.0810  177.6200  145.5880 C   0  0  0  0  0  3  0  0  0  0  0  0
  189.6890  177.3250  142.3650 C   0  0  0  0  0  0  0  0  0  0  0  0
  186.2200  178.6140  144.5620 C   0  0  2  0  0  3  0  0  0  0  0  0
  190.6400  177.3650  139.7650 C   0  0  0  0  0  3  0  0  0  0  0  0
  189.9880  177.5180  146.4640 C   0  0  0  0  0  3  0  0  0  0  0  0
  191.0370  177.4930  142.1230 C   0  0  0  0  0  0  0  0  0  0  0  0
  191.5480  177.5180  140.8280 C   0  0  0  0  0  3  0  0  0  0  0  0
  187.4940  177.3270  146.9330 C   0  0  1  0  0  3  0  0  0  0  0  0
  187.8850  177.1470  148.3930 C   0  0  0  0  0  1  0  0  0  0  0  0
  186.7840  177.0030  143.9140 S   0  0  0  0  0  0  0  0  0  0  0  0
  189.2600  177.1930  140.0150 C   0  0  0  0  0  3  0  0  0  0  0  0
  190.8270  177.5340  144.2250 C   0  0  0  0  0  0  0  0  0  0  0  0
  191.7100  177.6180  143.2490 O   0  0  0  0  0  0  0  0  0  0  0  0
  186.7040  178.6210  146.7590 C   0  0  0  0  0  2  0  0  0  0  0  0
  188.7670  177.1710  141.3320 C   0  0  0  0  0  3  0  0  0  0  0  0
  185.6620  178.4400  145.8370 O   0  0  0  0  0  0  0  0  0  0  0  0
  188.6690  177.3120  145.9830 C   0  0  0  0  0  0  0  0  0  0  0  0
  185.2210  179.2820  143.6190 C   0  0  0  0  0  2  0  0  0  0  0  0
  185.2260  178.6770  142.2190 C   0  0  2  0  0  3  0  0  0  0  0  0
  185.7660  179.5800  141.3020 O   0  0  0  0  0  1  0  0  0  0  0  0
  183.8360  178.3170  141.8150 C   0  0  0  0  0  0  0  0  0  0  0  0
  182.7590  178.8430  142.5140 O   0  0  0  0  0  1  0  0  0  0  0  0
  183.6330  177.5550  140.8320 O   0  0  0  0  0  0  0  0  0  0  0  0
  1 14  1  0  0  0  0
  1  2  2  0  0  0  0
  2 19  1  0  0  0  0
  3  7  1  0  0  0  0
  4  1  1  0  0  0  0
  5 20  1  6  0  0  0
  5 18  1  0  0  0  0
  6 13  2  0  0  0  0
  6  9  1  0  0  0  0
  8  4  1  0  0  0  0
  8 15  1  0  0  0  0
  9  8  2  0  0  0  0
 10 11  1  1  0  0  0
 12  5  1  0  0  0  0
 12  2  1  0  0  0  0
 13 17  1  0  0  0  0
 14  3  2  0  0  0  0
 15 14  1  0  0  0  0
 16 10  1  0  0  0  0
 17  4  2  0  0  0  0
 18 16  1  0  0  0  0
 19  7  2  0  0  0  0
 19 10  1  0  0  0  0
 21 22  1  6  0  0  0
 21 20  1  0  0  0  0
 23 21  1  0  0  0  0
 23 24  1  0  0  0  0
 25 23  2  0  0  0  0
M  END
>  <MODEL>
6

>  <REMARK>
 VINA RESULT:      -8.5      1.859      5.949
  Name = 
  3 active torsions:
  status: ('A' for Active; 'I' for Inactive)
    1  A    between atoms: C_2  and  C_21
    2  A    between atoms: C_6  and  C_15
    3  A    between atoms: C_15  and  C_21
                            x       y       z     vdW  Elec       q    Type
                         _______ _______ _______ _____ _____    ______ ____

>  <TORSDO>
F 3

$$$$
=
 OpenBabel10262419533D

 25 28  0  0  1  0  0  0  0  0999 V2000
  185.8560  178.4510  144.3570 C   0  0  0  0  0  0  0  0  0  0  0  0
  187.1420  178.3900  144.9100 C   0  0  0  0  0  0  0  0  0  0  0  0
  184.7920  178.2710  146.5230 C   0  0  0  0  0  3  0  0  0  0  0  0
  185.3940  178.5710  143.0640 C   0  0  0  0  0  0  0  0  0  0  0  0
  189.0840  176.7380  144.3080 C   0  0  2  0  0  3  0  0  0  0  0  0
  183.8490  178.7970  140.7780 C   0  0  0  0  0  3  0  0  0  0  0  0
  186.0670  178.1860  147.1050 C   0  0  0  0  0  3  0  0  0  0  0  0
  184.0180  178.5870  143.1580 C   0  0  0  0  0  0  0  0  0  0  0  0
  183.2120  178.6990  142.0280 C   0  0  0  0  0  3  0  0  0  0  0  0
  188.6030  178.0380  146.9510 C   0  0  1  0  0  3  0  0  0  0  0  0
  188.6030  178.1830  148.4660 C   0  0  0  0  0  1  0  0  0  0  0  0
  188.6030  178.4410  143.8590 S   0  0  0  0  0  0  0  0  0  0  0  0
  185.2580  178.7810  140.6850 C   0  0  0  0  0  3  0  0  0  0  0  0
  184.7200  178.4010  145.1410 C   0  0  0  0  0  0  0  0  0  0  0  0
  183.6250  178.4830  144.4110 O   0  0  0  0  0  0  0  0  0  0  0  0
  189.1470  176.6670  146.5570 C   0  0  0  0  0  2  0  0  0  0  0  0
  186.0520  178.6670  141.8400 C   0  0  0  0  0  3  0  0  0  0  0  0
  189.9510  176.7700  145.4110 O   0  0  0  0  0  0  0  0  0  0  0  0
  187.2470  178.2530  146.3200 C   0  0  0  0  0  0  0  0  0  0  0  0
  189.7270  176.0050  143.1330 C   0  0  0  0  0  2  0  0  0  0  0  0
  190.0250  176.9210  141.9500 C   0  0  2  0  0  3  0  0  0  0  0  0
  189.7490  176.2660  140.7490 O   0  0  0  0  0  1  0  0  0  0  0  0
  191.4560  177.3420  141.9790 C   0  0  0  0  0  0  0  0  0  0  0  0
  192.0830  177.5600  143.1980 O   0  0  0  0  0  1  0  0  0  0  0  0
  192.1030  177.4830  140.9080 O   0  0  0  0  0  0  0  0  0  0  0  0
  1  2  2  0  0  0  0
  1 14  1  0  0  0  0
  2 19  1  0  0  0  0
  3  7  1  0  0  0  0
  4  8  1  0  0  0  0
  4  1  1  0  0  0  0
  5 20  1  6  0  0  0
  5 18  1  0  0  0  0
  6  9  1  0  0  0  0
  8 15  1  0  0  0  0
  9  8  2  0  0  0  0
 10 11  1  1  0  0  0
 12  5  1  0  0  0  0
 12  2  1  0  0  0  0
 13  6  2  0  0  0  0
 13 17  1  0  0  0  0
 14  3  2  0  0  0  0
 15 14  1  0  0  0  0
 16 10  1  0  0  0  0
 17  4  2  0  0  0  0
 18 16  1  0  0  0  0
 19 10  1  0  0  0  0
 19  7  2  0  0  0  0
 21 22  1  6  0  0  0
 21 23  1  0  0  0  0
 21 20  1  0  0  0  0
 23 24  1  0  0  0  0
 25 23  2  0  0  0  0
M  END
>  <MODEL>
7

>  <REMARK>
 VINA RESULT:      -8.2      1.879      4.964
  Name = 
  3 active torsions:
  status: ('A' for Active; 'I' for Inactive)
    1  A    between atoms: C_2  and  C_21
    2  A    between atoms: C_6  and  C_15
    3  A    between atoms: C_15  and  C_21
                            x       y       z     vdW  Elec       q    Type
                         _______ _______ _______ _____ _____    ______ ____

>  <TORSDO>
F 3

$$$$
=
 OpenBabel10262419533D

 25 28  0  0  1  0  0  0  0  0999 V2000
  186.5750  178.1900  142.6180 C   0  0  0  0  0  0  0  0  0  0  0  0
  187.9640  178.1930  142.4370 C   0  0  0  0  0  0  0  0  0  0  0  0
  186.7580  177.4010  144.8980 C   0  0  0  0  0  3  0  0  0  0  0  0
  185.5200  178.5190  141.7940 C   0  0  0  0  0  0  0  0  0  0  0  0
  189.3540  176.9990  140.5660 C   0  0  2  0  0  3  0  0  0  0  0  0
  183.0260  179.0100  140.6960 C   0  0  0  0  0  3  0  0  0  0  0  0
  188.1530  177.3740  144.7420 C   0  0  0  0  0  3  0  0  0  0  0  0
  184.3800  178.3200  142.5470 C   0  0  0  0  0  0  0  0  0  0  0  0
  183.1120  178.5570  142.0250 C   0  0  0  0  0  3  0  0  0  0  0  0
  190.2630  177.6210  143.3390 C   0  0  1  0  0  3  0  0  0  0  0  0
  191.0280  177.4360  144.6420 C   0  0  0  0  0  1  0  0  0  0  0  0
  188.6900  178.6730  140.8610 S   0  0  0  0  0  0  0  0  0  0  0  0
  184.1940  179.2120  139.9270 C   0  0  0  0  0  3  0  0  0  0  0  0
  185.9930  177.8130  143.8130 C   0  0  0  0  0  0  0  0  0  0  0  0
  184.6790  177.8960  143.7580 O   0  0  0  0  0  0  0  0  0  0  0  0
  190.5490  176.4570  142.3940 C   0  0  0  0  0  2  0  0  0  0  0  0
  185.4650  178.9670  140.4760 C   0  0  0  0  0  3  0  0  0  0  0  0
  190.6600  176.9150  141.0730 O   0  0  0  0  0  0  0  0  0  0  0  0
  188.7710  177.7740  143.5280 C   0  0  0  0  0  0  0  0  0  0  0  0
  189.3230  176.6330  139.0840 C   0  0  0  0  0  2  0  0  0  0  0  0
  188.2740  177.4150  138.2990 C   0  0  2  0  0  3  0  0  0  0  0  0
  187.3600  176.5410  137.7070 O   0  0  0  0  0  1  0  0  0  0  0  0
  188.9360  178.2420  137.2480 C   0  0  0  0  0  0  0  0  0  0  0  0
  188.9730  179.6230  137.3820 O   0  0  0  0  0  1  0  0  0  0  0  0
  189.4770  177.6950  136.2510 O   0  0  0  0  0  0  0  0  0  0  0  0
  1 14  1  0  0  0  0
  2  1  2  0  0  0  0
  2 19  1  0  0  0  0
  4  8  1  0  0  0  0
  4  1  1  0  0  0  0
  5 20  1  6  0  0  0
  5 12  1  0  0  0  0
  5 18  1  0  0  0  0
  6  9  1  0  0  0  0
  7  3  1  0  0  0  0
  8 15  1  0  0  0  0
  9  8  2  0  0  0  0
 10 19  1  0  0  0  0
 10 11  1  1  0  0  0
 12  2  1  0  0  0  0
 13 17  1  0  0  0  0
 13  6  2  0  0  0  0
 14  3  2  0  0  0  0
 15 14  1  0  0  0  0
 16 10  1  0  0  0  0
 17  4  2  0  0  0  0
 18 16  1  0  0  0  0
 19  7  2  0  0  0  0
 21 22  1  6  0  0  0
 21 20  1  0  0  0  0
 23 24  1  0  0  0  0
 23 21  1  0  0  0  0
 25 23  2  0  0  0  0
M  END
>  <MODEL>
8

>  <REMARK>
 VINA RESULT:      -7.9      2.105      5.085
  Name = 
  3 active torsions:
  status: ('A' for Active; 'I' for Inactive)
    1  A    between atoms: C_2  and  C_21
    2  A    between atoms: C_6  and  C_15
    3  A    between atoms: C_15  and  C_21
                            x       y       z     vdW  Elec       q    Type
                         _______ _______ _______ _____ _____    ______ ____

>  <TORSDO>
F 3

$$$$
=
 OpenBabel10262419533D

 25 28  0  0  1  0  0  0  0  0999 V2000
  186.9050  178.1000  143.3740 C   0  0  0  0  0  0  0  0  0  0  0  0
  188.2940  178.0720  143.1920 C   0  0  0  0  0  0  0  0  0  0  0  0
  187.0760  177.3830  145.6780 C   0  0  0  0  0  3  0  0  0  0  0  0
  185.8560  178.4210  142.5400 C   0  0  0  0  0  0  0  0  0  0  0  0
  189.6610  176.7930  141.3600 C   0  0  2  0  0  3  0  0  0  0  0  0
  183.3700  178.9220  141.4270 C   0  0  0  0  0  3  0  0  0  0  0  0
  188.4710  177.3240  145.5220 C   0  0  0  0  0  3  0  0  0  0  0  0
  184.7140  178.2680  143.2990 C   0  0  0  0  0  0  0  0  0  0  0  0
  183.4490  178.5110  142.7700 C   0  0  0  0  0  3  0  0  0  0  0  0
  190.5830  177.4880  144.1110 C   0  0  1  0  0  3  0  0  0  0  0  0
  191.3460  177.3310  145.4190 C   0  0  0  0  0  1  0  0  0  0  0  0
  189.0270  178.4880  141.6010 S   0  0  0  0  0  0  0  0  0  0  0  0
  184.5410  179.0780  140.6520 C   0  0  0  0  0  3  0  0  0  0  0  0
  186.3180  177.7730  144.5800 C   0  0  0  0  0  0  0  0  0  0  0  0
  185.0050  177.8780  144.5230 O   0  0  0  0  0  0  0  0  0  0  0  0
  190.8470  176.2890  143.2040 C   0  0  0  0  0  2  0  0  0  0  0  0
  185.8080  178.8270  141.2080 C   0  0  0  0  0  3  0  0  0  0  0  0
  190.9650  176.7010  141.8690 O   0  0  0  0  0  0  0  0  0  0  0  0
  189.0940  177.6730  144.2960 C   0  0  0  0  0  0  0  0  0  0  0  0
  189.6210  176.3800  139.8900 C   0  0  0  0  0  2  0  0  0  0  0  0
  190.6080  177.1580  139.0250 C   0  0  2  0  0  3  0  0  0  0  0  0
  189.9250  177.9010  138.0600 O   0  0  0  0  0  1  0  0  0  0  0  0
  191.5560  176.2170  138.3610 C   0  0  0  0  0  0  0  0  0  0  0  0
  191.2080  174.8820  138.2130 O   0  0  0  0  0  1  0  0  0  0  0  0
  192.6600  176.6290  137.9170 O   0  0  0  0  0  0  0  0  0  0  0  0
  1 14  1  0  0  0  0
  2  1  2  0  0  0  0
  2 19  1  0  0  0  0
  4  8  1  0  0  0  0
  4  1  1  0  0  0  0
  5 20  1  6  0  0  0
  5 12  1  0  0  0  0
  5 18  1  0  0  0  0
  6  9  1  0  0  0  0
  7  3  1  0  0  0  0
  8 15  1  0  0  0  0
  9  8  2  0  0  0  0
 10 19  1  0  0  0  0
 10 11  1  1  0  0  0
 12  2  1  0  0  0  0
 13 17  1  0  0  0  0
 13  6  2  0  0  0  0
 14  3  2  0  0  0  0
 15 14  1  0  0  0  0
 16 10  1  0  0  0  0
 17  4  2  0  0  0  0
 18 16  1  0  0  0  0
 19  7  2  0  0  0  0
 21 22  1  6  0  0  0
 21 20  1  0  0  0  0
 23 21  1  0  0  0  0
 24 23  1  0  0  0  0
 25 23  2  0  0  0  0
M  END
>  <MODEL>
9

>  <REMARK>
 VINA RESULT:      -7.9      1.864      4.964
  Name = 
  3 active torsions:
  status: ('A' for Active; 'I' for Inactive)
    1  A    between atoms: C_2  and  C_21
    2  A    between atoms: C_6  and  C_15
    3  A    between atoms: C_15  and  C_21
                            x       y       z     vdW  Elec       q    Type
                         _______ _______ _______ _____ _____    ______ ____

>  <TORSDO>
F 3

$$$$
