=
 OpenBabel10262419333D

 31 35  0  0  1  0  0  0  0  0999 V2000
  189.7630  176.6240  142.3370 N   0  0  0  0  0  0  0  0  0  0  0  0
  186.5210  178.2970  143.4230 C   0  0  0  0  0  0  0  0  0  0  0  0
  186.4180  178.2090  144.8370 C   0  0  0  0  0  0  0  0  0  0  0  0
  185.1560  179.2130  138.3440 O   0  0  0  0  0  0  0  0  0  0  0  0
  184.1500  179.3600  139.0890 C   0  0  0  0  0  0  0  0  0  0  0  0
  187.3070  177.6690  147.0270 C   0  0  0  0  0  0  0  0  0  0  0  0
  187.7070  177.8650  142.6300 C   0  0  0  0  0  0  0  0  0  0  0  0
  190.0480  177.2430  141.0470 C   0  0  0  0  0  2  0  0  0  0  0  0
  187.4620  177.7270  145.6410 C   0  0  0  0  0  3  0  0  0  0  0  0
  185.4830  178.9360  141.2330 C   0  0  0  0  0  0  0  0  0  0  0  0
  190.6970  175.6580  142.8830 C   0  0  0  0  0  1  0  0  0  0  0  0
  184.1830  179.1440  144.7090 C   0  0  0  0  0  3  0  0  0  0  0  0
  188.4130  177.1540  147.8750 C   0  0  0  0  0  1  0  0  0  0  0  0
  186.5940  178.7080  140.5940 N   0  0  0  0  0  0  0  0  0  0  0  0
  185.4300  178.8380  142.7060 C   0  0  0  0  0  0  0  0  0  0  0  0
  184.2780  179.2360  140.5140 N   0  0  0  0  0  2  0  0  0  0  0  0
  188.6240  177.0160  143.1130 C   0  0  0  0  0  3  0  0  0  0  0  0
  186.1460  178.0810  147.6040 N   0  0  0  0  0  0  0  0  0  0  0  0
  187.8800  178.4560  141.2430 C   0  0  2  0  0  3  0  0  0  0  0  0
  188.7440  177.5810  140.3370 C   0  0  0  0  0  2  0  0  0  0  0  0
  184.3040  179.2300  143.3620 N   0  0  0  0  0  0  0  0  0  0  0  0
  185.2310  178.6380  145.4710 C   0  0  0  0  0  0  0  0  0  0  0  0
  185.1150  178.5620  146.8590 C   0  0  0  0  0  3  0  0  0  0  0  0
  180.6910  180.5210  136.8060 C   0  0  1  0  0  3  0  0  0  0  0  0
  182.3180  180.8930  138.6530 C   0  0  0  0  0  3  0  0  0  0  0  0
  182.1170  177.4100  138.1960 F   0  0  0  0  0  0  0  0  0  0  0  0
  179.0270  180.9410  136.2230 S   0  0  0  0  0  1  0  0  0  0  0  0
  180.9970  181.3070  138.0730 C   0  0  0  0  0  2  0  0  0  0  0  0
  182.1690  178.6480  137.5810 C   0  0  2  0  0  3  0  0  0  0  0  0
  182.8350  179.6660  138.4910 C   0  0  0  0  0  0  0  0  0  0  0  0
  180.7560  179.0390  137.1360 C   0  0  0  0  0  2  0  0  0  0  0  0
  1 11  1  0  0  0  0
  1 17  1  0  0  0  0
  2  3  1  0  0  0  0
  3 22  2  0  0  0  0
  3  9  1  0  0  0  0
  4  5  2  0  0  0  0
  5 16  1  0  0  0  0
  6 18  1  0  0  0  0
  6 13  1  0  0  0  0
  7 17  2  0  0  0  0
  7  2  1  0  0  0  0
  8  1  1  0  0  0  0
  9  6  2  0  0  0  0
 10 15  1  0  0  0  0
 12 22  1  0  0  0  0
 14 10  2  0  0  0  0
 14 19  1  0  0  0  0
 15 21  1  0  0  0  0
 15  2  2  0  0  0  0
 16 10  1  0  0  0  0
 19 20  1  6  0  0  0
 19  7  1  0  0  0  0
 20  8  1  0  0  0  0
 21 12  2  0  0  0  0
 22 23  1  0  0  0  0
 23 18  2  0  0  0  0
 24 27  1  1  0  0  0
 24 31  1  0  0  0  0
 24 28  1  0  0  0  0
 28 25  1  0  0  0  0
 29 26  1  1  0  0  0
 29 30  1  0  0  0  0
 30 25  2  0  0  0  0
 30  5  1  0  0  0  0
 31 29  1  0  0  0  0
M  END
>  <MODEL>
1

>  <REMARK>
 VINA RESULT:     -10.7      0.000      0.000
  Name = 
  1 active torsions:
  status: ('A' for Active; 'I' for Inactive)
    1  A    between atoms: C_9  and  C_22
                            x       y       z     vdW  Elec       q    Type
                         _______ _______ _______ _____ _____    ______ ____

>  <TORSDO>
F 1

$$$$
=
 OpenBabel10262419333D

 31 35  0  0  1  0  0  0  0  0999 V2000
  188.4140  177.5030  146.3370 N   0  0  0  0  0  0  0  0  0  0  0  0
  187.3120  178.1320  142.7480 C   0  0  0  0  0  0  0  0  0  0  0  0
  185.9160  178.3930  142.7420 C   0  0  0  0  0  0  0  0  0  0  0  0
  192.2300  177.1090  140.9380 O   0  0  0  0  0  0  0  0  0  0  0  0
  191.4090  177.0790  139.9820 C   0  0  0  0  0  0  0  0  0  0  0  0
  183.8030  178.8120  143.8550 C   0  0  0  0  0  0  0  0  0  0  0  0
  188.1380  177.9570  143.9770 C   0  0  0  0  0  0  0  0  0  0  0  0
  189.8390  177.8150  146.3140 C   0  0  0  0  0  2  0  0  0  0  0  0
  185.1730  178.5500  143.9210 C   0  0  0  0  0  3  0  0  0  0  0  0
  189.4280  177.7490  141.4590 C   0  0  0  0  0  0  0  0  0  0  0  0
  187.7910  177.1180  147.5890 C   0  0  0  0  0  1  0  0  0  0  0  0
  185.9510  178.3970  140.3160 C   0  0  0  0  0  3  0  0  0  0  0  0
  183.0190  178.9730  145.1060 C   0  0  0  0  0  1  0  0  0  0  0  0
  190.1430  177.7710  142.5470 N   0  0  0  0  0  0  0  0  0  0  0  0
  187.9790  178.0350  141.5060 C   0  0  0  0  0  0  0  0  0  0  0  0
  190.0250  177.3950  140.2030 N   0  0  0  0  0  2  0  0  0  0  0  0
  187.6010  177.6530  145.1660 C   0  0  0  0  0  3  0  0  0  0  0  0
  183.1850  178.9200  142.6490 N   0  0  0  0  0  0  0  0  0  0  0  0
  189.6350  178.1780  143.8570 C   0  0  2  0  0  3  0  0  0  0  0  0
  190.4220  177.4620  144.9520 C   0  0  0  0  0  2  0  0  0  0  0  0
  187.2850  178.1590  140.3420 N   0  0  0  0  0  0  0  0  0  0  0  0
  185.2430  178.5220  141.5070 C   0  0  0  0  0  0  0  0  0  0  0  0
  183.8730  178.7830  141.4840 C   0  0  0  0  0  3  0  0  0  0  0  0
  192.6840  175.3720  136.2430 C   0  0  1  0  0  3  0  0  0  0  0  0
  193.1710  176.4300  138.4430 C   0  0  0  0  0  3  0  0  0  0  0  0
  190.0290  177.6470  137.4320 F   0  0  0  0  0  0  0  0  0  0  0  0
  193.3670  175.0580  134.5940 S   0  0  0  0  0  1  0  0  0  0  0  0
  193.7400  176.0430  137.1090 C   0  0  0  0  0  2  0  0  0  0  0  0
  190.8650  176.5480  137.5070 C   0  0  2  0  0  3  0  0  0  0  0  0
  191.8760  176.7240  138.6270 C   0  0  0  0  0  0  0  0  0  0  0  0
  191.4930  176.3090  136.1310 C   0  0  0  0  0  2  0  0  0  0  0  0
  1 11  1  0  0  0  0
  2  7  1  0  0  0  0
  3  2  1  0  0  0  0
  3  9  1  0  0  0  0
  5 16  1  0  0  0  0
  5  4  2  0  0  0  0
  6  9  2  0  0  0  0
  6 13  1  0  0  0  0
  7 17  2  0  0  0  0
  8  1  1  0  0  0  0
 10 15  1  0  0  0  0
 10 14  2  0  0  0  0
 12 21  2  0  0  0  0
 12 22  1  0  0  0  0
 14 19  1  0  0  0  0
 15  2  2  0  0  0  0
 16 10  1  0  0  0  0
 17  1  1  0  0  0  0
 18  6  1  0  0  0  0
 19  7  1  0  0  0  0
 19 20  1  1  0  0  0
 20  8  1  0  0  0  0
 21 15  1  0  0  0  0
 22  3  2  0  0  0  0
 23 22  1  0  0  0  0
 23 18  2  0  0  0  0
 24 27  1  6  0  0  0
 24 28  1  0  0  0  0
 25 30  2  0  0  0  0
 28 25  1  0  0  0  0
 29 26  1  6  0  0  0
 29 30  1  0  0  0  0
 30  5  1  0  0  0  0
 31 24  1  0  0  0  0
 31 29  1  0  0  0  0
M  END
>  <MODEL>
2

>  <REMARK>
 VINA RESULT:      -9.2      4.222      7.231
  Name = 
  1 active torsions:
  status: ('A' for Active; 'I' for Inactive)
    1  A    between atoms: C_9  and  C_22
                            x       y       z     vdW  Elec       q    Type
                         _______ _______ _______ _____ _____    ______ ____

>  <TORSDO>
F 1

$$$$
=
 OpenBabel10262419333D

 31 35  0  0  1  0  0  0  0  0999 V2000
  185.5760  178.7010  145.7960 N   0  0  0  0  0  0  0  0  0  0  0  0
  186.4160  178.3490  142.1000 C   0  0  0  0  0  0  0  0  0  0  0  0
  187.7990  178.0490  141.9770 C   0  0  0  0  0  0  0  0  0  0  0  0
  181.4290  179.6660  140.7230 O   0  0  0  0  0  0  0  0  0  0  0  0
  182.1860  179.7530  139.7180 C   0  0  0  0  0  0  0  0  0  0  0  0
  189.9650  177.4750  142.9050 C   0  0  0  0  0  0  0  0  0  0  0  0
  185.6800  178.4420  143.3930 C   0  0  0  0  0  0  0  0  0  0  0  0
  184.1420  178.4340  145.8450 C   0  0  0  0  0  2  0  0  0  0  0  0
  188.6130  177.7710  143.0860 C   0  0  0  0  0  3  0  0  0  0  0  0
  184.2360  178.9020  140.9950 C   0  0  0  0  0  0  0  0  0  0  0  0
  186.2920  178.9600  147.0300 C   0  0  0  0  0  1  0  0  0  0  0  0
  187.6060  178.2530  139.5680 C   0  0  0  0  0  3  0  0  0  0  0  0
  190.8240  177.1860  144.0820 C   0  0  0  0  0  1  0  0  0  0  0  0
  183.5930  178.8080  142.1240 N   0  0  0  0  0  0  0  0  0  0  0  0
  185.6740  178.5710  140.9200 C   0  0  0  0  0  0  0  0  0  0  0  0
  183.5700  179.3790  139.8170 N   0  0  0  0  0  2  0  0  0  0  0  0
  186.3040  178.6280  144.5640 C   0  0  0  0  0  3  0  0  0  0  0  0
  190.4980  177.4530  141.6540 N   0  0  0  0  0  0  0  0  0  0  0  0
  184.1720  178.2760  143.3580 C   0  0  2  0  0  3  0  0  0  0  0  0
  183.4830  178.9190  144.5600 C   0  0  0  0  0  2  0  0  0  0  0  0
  186.2850  178.5270  139.7050 N   0  0  0  0  0  0  0  0  0  0  0  0
  188.3850  178.0060  140.6930 C   0  0  0  0  0  0  0  0  0  0  0  0
  189.7410  177.7080  140.5540 C   0  0  0  0  0  3  0  0  0  0  0  0
  179.9710  181.0010  136.2460 C   0  0  1  0  0  3  0  0  0  0  0  0
  181.3720  179.3450  137.4670 C   0  0  0  0  0  3  0  0  0  0  0  0
  182.3050  182.5150  138.6750 F   0  0  0  0  0  0  0  0  0  0  0  0
  179.4320  181.5180  134.5940 S   0  0  0  0  0  1  0  0  0  0  0  0
  180.8050  179.7330  136.1330 C   0  0  0  0  0  2  0  0  0  0  0  0
  181.2610  181.6970  138.2810 C   0  0  2  0  0  3  0  0  0  0  0  0
  181.6440  180.2360  138.4320 C   0  0  0  0  0  0  0  0  0  0  0  0
  180.8370  182.0880  136.8630 C   0  0  0  0  0  2  0  0  0  0  0  0
  1  8  1  0  0  0  0
  1 11  1  0  0  0  0
  2  7  1  0  0  0  0
  3  2  1  0  0  0  0
  3  9  1  0  0  0  0
  5 16  1  0  0  0  0
  5  4  2  0  0  0  0
  6  9  2  0  0  0  0
  6 13  1  0  0  0  0
  7 17  2  0  0  0  0
 10 14  2  0  0  0  0
 12 21  2  0  0  0  0
 12 22  1  0  0  0  0
 14 19  1  0  0  0  0
 15 10  1  0  0  0  0
 15  2  2  0  0  0  0
 16 10  1  0  0  0  0
 17  1  1  0  0  0  0
 18  6  1  0  0  0  0
 19  7  1  0  0  0  0
 19 20  1  1  0  0  0
 20  8  1  0  0  0  0
 21 15  1  0  0  0  0
 22  3  2  0  0  0  0
 23 22  1  0  0  0  0
 23 18  2  0  0  0  0
 24 27  1  6  0  0  0
 24 31  1  0  0  0  0
 25 30  2  0  0  0  0
 28 24  1  0  0  0  0
 28 25  1  0  0  0  0
 29 30  1  0  0  0  0
 29 26  1  6  0  0  0
 30  5  1  0  0  0  0
 31 29  1  0  0  0  0
M  END
>  <MODEL>
3

>  <REMARK>
 VINA RESULT:      -9.1      1.751      4.387
  Name = 
  1 active torsions:
  status: ('A' for Active; 'I' for Inactive)
    1  A    between atoms: C_9  and  C_22
                            x       y       z     vdW  Elec       q    Type
                         _______ _______ _______ _____ _____    ______ ____

>  <TORSDO>
F 1

$$$$
=
 OpenBabel10262419333D

 31 35  0  0  1  0  0  0  0  0999 V2000
  183.2520  178.3490  139.4640 N   0  0  0  0  0  0  0  0  0  0  0  0
  187.0570  178.2260  139.5000 C   0  0  0  0  0  0  0  0  0  0  0  0
  187.5190  178.1260  138.1610 C   0  0  0  0  0  0  0  0  0  0  0  0
  187.1210  178.2510  144.8390 O   0  0  0  0  0  0  0  0  0  0  0  0
  188.2490  177.8960  144.4000 C   0  0  0  0  0  0  0  0  0  0  0  0
  187.1730  178.1380  135.7610 C   0  0  0  0  0  0  0  0  0  0  0  0
  185.6320  178.4200  139.8940 C   0  0  0  0  0  0  0  0  0  0  0  0
  182.9220  179.0030  140.7260 C   0  0  0  0  0  2  0  0  0  0  0  0
  186.6620  178.2380  137.0560 C   0  0  0  0  0  3  0  0  0  0  0  0
  187.5740  178.2270  141.9530 C   0  0  0  0  0  0  0  0  0  0  0  0
  182.1850  177.9800  138.5550 C   0  0  0  0  0  1  0  0  0  0  0  0
  189.7810  177.8340  138.9880 C   0  0  0  0  0  3  0  0  0  0  0  0
  186.2610  178.2520  134.5940 C   0  0  0  0  0  1  0  0  0  0  0  0
  186.3520  178.5650  142.2520 N   0  0  0  0  0  0  0  0  0  0  0  0
  188.0070  178.1440  140.5430 C   0  0  0  0  0  0  0  0  0  0  0  0
  188.5060  177.8800  142.9870 N   0  0  0  0  0  2  0  0  0  0  0  0
  184.6140  178.1430  139.0680 C   0  0  0  0  0  3  0  0  0  0  0  0
  188.5030  177.9340  135.5650 N   0  0  0  0  0  0  0  0  0  0  0  0
  185.3530  178.9920  141.2720 C   0  0  2  0  0  3  0  0  0  0  0  0
  183.9580  178.6400  141.7820 C   0  0  0  0  0  2  0  0  0  0  0  0
  189.3220  177.9430  140.2600 N   0  0  0  0  0  0  0  0  0  0  0  0
  188.8960  177.9260  137.9190 C   0  0  0  0  0  0  0  0  0  0  0  0
  189.3680  177.8300  136.6090 C   0  0  0  0  0  3  0  0  0  0  0  0
  191.1910  176.0840  146.9660 C   0  0  1  0  0  3  0  0  0  0  0  0
  188.9710  177.1480  146.5940 C   0  0  0  0  0  3  0  0  0  0  0  0
  191.1340  178.4920  144.1660 F   0  0  0  0  0  0  0  0  0  0  0  0
  192.4390  175.7180  148.2290 S   0  0  0  0  0  1  0  0  0  0  0  0
  189.9750  176.7180  147.6250 C   0  0  0  0  0  2  0  0  0  0  0  0
  190.7410  177.3570  144.8520 C   0  0  2  0  0  3  0  0  0  0  0  0
  189.3120  177.5030  145.3470 C   0  0  0  0  0  0  0  0  0  0  0  0
  191.7590  177.0720  145.9600 C   0  0  0  0  0  2  0  0  0  0  0  0
  1  8  1  0  0  0  0
  2  7  1  0  0  0  0
  2 15  1  0  0  0  0
  3  2  2  0  0  0  0
  5  4  2  0  0  0  0
  5 30  1  0  0  0  0
  6  9  2  0  0  0  0
  7 19  1  0  0  0  0
  8 20  1  0  0  0  0
  9  3  1  0  0  0  0
 10 14  2  0  0  0  0
 10 16  1  0  0  0  0
 11  1  1  0  0  0  0
 12 21  1  0  0  0  0
 13  6  1  0  0  0  0
 15 10  1  0  0  0  0
 16  5  1  0  0  0  0
 17  1  1  0  0  0  0
 17  7  2  0  0  0  0
 18  6  1  0  0  0  0
 18 23  2  0  0  0  0
 19 20  1  1  0  0  0
 19 14  1  0  0  0  0
 21 15  2  0  0  0  0
 22  3  1  0  0  0  0
 22 12  2  0  0  0  0
 23 22  1  0  0  0  0
 24 28  1  0  0  0  0
 24 27  1  1  0  0  0
 25 28  1  0  0  0  0
 29 26  1  1  0  0  0
 29 30  1  0  0  0  0
 29 31  1  0  0  0  0
 30 25  2  0  0  0  0
 31 24  1  0  0  0  0
M  END
>  <MODEL>
4

>  <REMARK>
 VINA RESULT:      -9.0      4.776      9.430
  Name = 
  1 active torsions:
  status: ('A' for Active; 'I' for Inactive)
    1  A    between atoms: C_9  and  C_22
                            x       y       z     vdW  Elec       q    Type
                         _______ _______ _______ _____ _____    ______ ____

>  <TORSDO>
F 1

$$$$
=
 OpenBabel10262419333D

 31 35  0  0  1  0  0  0  0  0999 V2000
  185.6280  178.8890  143.9050 N   0  0  0  0  0  0  0  0  0  0  0  0
  189.0740  177.2720  143.9670 C   0  0  0  0  0  0  0  0  0  0  0  0
  189.5290  177.2270  145.3120 C   0  0  0  0  0  0  0  0  0  0  0  0
  189.1300  176.9180  138.6400 O   0  0  0  0  0  0  0  0  0  0  0  0
  190.2960  176.7470  139.0910 C   0  0  0  0  0  0  0  0  0  0  0  0
  189.2110  177.5100  147.6990 C   0  0  0  0  0  0  0  0  0  0  0  0
  187.7170  177.7230  143.5440 C   0  0  0  0  0  0  0  0  0  0  0  0
  185.0400  178.3850  142.6690 C   0  0  0  0  0  2  0  0  0  0  0  0
  188.7120  177.5790  146.3970 C   0  0  0  0  0  3  0  0  0  0  0  0
  189.5390  176.8970  141.5330 C   0  0  0  0  0  0  0  0  0  0  0  0
  184.8430  179.7520  144.7660 C   0  0  0  0  0  1  0  0  0  0  0  0
  191.6780  176.4150  144.5340 C   0  0  0  0  0  3  0  0  0  0  0  0
  188.3440  177.8880  148.8450 C   0  0  0  0  0  1  0  0  0  0  0  0
  188.2970  177.1340  141.2180 N   0  0  0  0  0  0  0  0  0  0  0  0
  189.9590  176.8550  142.9480 C   0  0  0  0  0  0  0  0  0  0  0  0
  190.5290  176.7250  140.5090 N   0  0  0  0  0  2  0  0  0  0  0  0
  186.9350  178.4780  144.3280 C   0  0  0  0  0  3  0  0  0  0  0  0
  190.4880  177.0990  147.9210 N   0  0  0  0  0  0  0  0  0  0  0  0
  187.2120  177.2620  142.1900 C   0  0  2  0  0  3  0  0  0  0  0  0
  186.1290  178.1790  141.6250 C   0  0  0  0  0  2  0  0  0  0  0  0
  191.2220  176.4540  143.2570 N   0  0  0  0  0  0  0  0  0  0  0  0
  190.8460  176.7950  145.5810 C   0  0  0  0  0  0  0  0  0  0  0  0
  191.3070  176.7410  146.8970 C   0  0  0  0  0  3  0  0  0  0  0  0
  193.6200  175.5510  136.6340 C   0  0  1  0  0  3  0  0  0  0  0  0
  192.6740  176.7440  138.6040 C   0  0  0  0  0  3  0  0  0  0  0  0
  190.1620  176.7520  136.1400 F   0  0  0  0  0  0  0  0  0  0  0  0
  195.0510  175.4770  135.5240 S   0  0  0  0  0  1  0  0  0  0  0  0
  193.8860  176.5650  137.7370 C   0  0  0  0  0  2  0  0  0  0  0  0
  191.1600  176.0220  136.7610 C   0  0  2  0  0  3  0  0  0  0  0  0
  191.4230  176.5620  138.1560 C   0  0  0  0  0  0  0  0  0  0  0  0
  192.3950  176.0030  135.8560 C   0  0  0  0  0  2  0  0  0  0  0  0
  1 17  1  0  0  0  0
  1 11  1  0  0  0  0
  2  3  1  0  0  0  0
  3 22  2  0  0  0  0
  3  9  1  0  0  0  0
  4  5  2  0  0  0  0
  5 16  1  0  0  0  0
  6 18  1  0  0  0  0
  6 13  1  0  0  0  0
  7  2  1  0  0  0  0
  7 17  2  0  0  0  0
  8  1  1  0  0  0  0
  9  6  2  0  0  0  0
 10 15  1  0  0  0  0
 12 22  1  0  0  0  0
 14 10  2  0  0  0  0
 14 19  1  0  0  0  0
 15 21  1  0  0  0  0
 15  2  2  0  0  0  0
 16 10  1  0  0  0  0
 19 20  1  6  0  0  0
 19  7  1  0  0  0  0
 20  8  1  0  0  0  0
 21 12  2  0  0  0  0
 22 23  1  0  0  0  0
 23 18  2  0  0  0  0
 24 27  1  6  0  0  0
 24 28  1  0  0  0  0
 28 25  1  0  0  0  0
 29 26  1  6  0  0  0
 29 30  1  0  0  0  0
 30 25  2  0  0  0  0
 30  5  1  0  0  0  0
 31 24  1  0  0  0  0
 31 29  1  0  0  0  0
M  END
>  <MODEL>
5

>  <REMARK>
 VINA RESULT:      -8.6      4.729      7.430
  Name = 
  1 active torsions:
  status: ('A' for Active; 'I' for Inactive)
    1  A    between atoms: C_9  and  C_22
                            x       y       z     vdW  Elec       q    Type
                         _______ _______ _______ _____ _____    ______ ____

>  <TORSDO>
F 1

$$$$
=
 OpenBabel10262419333D

 31 35  0  0  1  0  0  0  0  0999 V2000
  187.3390  176.8730  135.9190 N   0  0  0  0  0  0  0  0  0  0  0  0
  190.0610  177.0570  138.5740 C   0  0  0  0  0  0  0  0  0  0  0  0
  191.3010  176.7090  137.9760 C   0  0  0  0  0  0  0  0  0  0  0  0
  186.4640  178.2290  142.3420 O   0  0  0  0  0  0  0  0  0  0  0  0
  187.5490  177.8780  142.8820 C   0  0  0  0  0  0  0  0  0  0  0  0
  192.6900  176.1790  136.0610 C   0  0  0  0  0  0  0  0  0  0  0  0
  188.7770  177.2190  137.8340 C   0  0  0  0  0  0  0  0  0  0  0  0
  186.2990  177.7540  136.4380 C   0  0  0  0  0  2  0  0  0  0  0  0
  191.4440  176.5140  136.5940 C   0  0  0  0  0  3  0  0  0  0  0  0
  188.7610  177.6240  140.6410 C   0  0  0  0  0  0  0  0  0  0  0  0
  187.1530  176.2360  134.6290 C   0  0  0  0  0  1  0  0  0  0  0  0
  192.3490  176.7780  140.1630 C   0  0  0  0  0  3  0  0  0  0  0  0
  192.8360  175.9700  134.5970 C   0  0  0  0  0  1  0  0  0  0  0  0
  187.7020  177.9210  139.9430 N   0  0  0  0  0  0  0  0  0  0  0  0
  190.0300  177.2750  139.9700 C   0  0  0  0  0  0  0  0  0  0  0  0
  188.6990  177.5790  142.0740 N   0  0  0  0  0  2  0  0  0  0  0  0
  188.5780  176.6930  136.6180 C   0  0  0  0  0  3  0  0  0  0  0  0
  193.7690  176.0430  136.8770 N   0  0  0  0  0  0  0  0  0  0  0  0
  187.6870  178.0500  138.4860 C   0  0  2  0  0  3  0  0  0  0  0  0
  186.2950  177.7070  137.9600 C   0  0  0  0  0  2  0  0  0  0  0  0
  191.1580  177.1200  140.7150 N   0  0  0  0  0  0  0  0  0  0  0  0
  192.4460  176.5690  138.7920 C   0  0  0  0  0  0  0  0  0  0  0  0
  193.6730  176.2320  138.2190 C   0  0  0  0  0  3  0  0  0  0  0  0
  188.0780  178.2470  147.1370 C   0  0  1  0  0  3  0  0  0  0  0  0
  188.7950  177.3970  144.9100 C   0  0  0  0  0  3  0  0  0  0  0  0
  185.2910  177.6890  144.7790 F   0  0  0  0  0  0  0  0  0  0  0  0
  188.2340  177.9700  148.9210 S   0  0  0  0  0  1  0  0  0  0  0  0
  188.9900  177.2810  146.3940 C   0  0  0  0  0  2  0  0  0  0  0  0
  186.4760  178.2590  145.2070 C   0  0  2  0  0  3  0  0  0  0  0  0
  187.6370  177.7800  144.3530 C   0  0  0  0  0  0  0  0  0  0  0  0
  186.6460  177.9810  146.7030 C   0  0  0  0  0  2  0  0  0  0  0  0
  1  8  1  0  0  0  0
  1 17  1  0  0  0  0
  2 15  1  0  0  0  0
  3  2  2  0  0  0  0
  3 22  1  0  0  0  0
  4  5  2  0  0  0  0
  5 30  1  0  0  0  0
  6  9  2  0  0  0  0
  6 18  1  0  0  0  0
  7 19  1  0  0  0  0
  7  2  1  0  0  0  0
  8 20  1  0  0  0  0
  9  3  1  0  0  0  0
 10 16  1  0  0  0  0
 11  1  1  0  0  0  0
 12 21  1  0  0  0  0
 13  6  1  0  0  0  0
 14 10  2  0  0  0  0
 15 10  1  0  0  0  0
 15 21  2  0  0  0  0
 16  5  1  0  0  0  0
 17  7  2  0  0  0  0
 18 23  2  0  0  0  0
 19 20  1  6  0  0  0
 19 14  1  0  0  0  0
 22 12  2  0  0  0  0
 23 22  1  0  0  0  0
 24 27  1  1  0  0  0
 25 28  1  0  0  0  0
 28 24  1  0  0  0  0
 29 26  1  6  0  0  0
 29 31  1  0  0  0  0
 30 25  2  0  0  0  0
 30 29  1  0  0  0  0
 31 24  1  0  0  0  0
M  END
>  <MODEL>
6

>  <REMARK>
 VINA RESULT:      -8.6      4.635      8.966
  Name = 
  1 active torsions:
  status: ('A' for Active; 'I' for Inactive)
    1  A    between atoms: C_9  and  C_22
                            x       y       z     vdW  Elec       q    Type
                         _______ _______ _______ _____ _____    ______ ____

>  <TORSDO>
F 1

$$$$
=
 OpenBabel10262419333D

 31 35  0  0  1  0  0  0  0  0999 V2000
  191.2960  176.6190  144.4690 N   0  0  0  0  0  0  0  0  0  0  0  0
  187.7470  177.9130  143.9960 C   0  0  0  0  0  0  0  0  0  0  0  0
  187.1410  178.0500  145.2740 C   0  0  0  0  0  0  0  0  0  0  0  0
  188.2640  177.7270  138.6850 O   0  0  0  0  0  0  0  0  0  0  0  0
  187.0450  177.8350  138.9920 C   0  0  0  0  0  0  0  0  0  0  0  0
  187.2100  178.0370  147.6970 C   0  0  0  0  0  0  0  0  0  0  0  0
  189.1750  177.5480  143.7680 C   0  0  0  0  0  0  0  0  0  0  0  0
  191.9780  177.0490  143.2520 C   0  0  0  0  0  2  0  0  0  0  0  0
  187.8560  177.8840  146.4690 C   0  0  0  0  0  3  0  0  0  0  0  0
  187.5310  177.9990  141.5000 C   0  0  0  0  0  0  0  0  0  0  0  0
  192.0460  175.9210  145.4950 C   0  0  0  0  0  1  0  0  0  0  0  0
  185.0350  178.5810  144.1920 C   0  0  0  0  0  3  0  0  0  0  0  0
  187.9690  177.8560  148.9610 C   0  0  0  0  0  1  0  0  0  0  0  0
  188.8150  177.8460  141.3440 N   0  0  0  0  0  0  0  0  0  0  0  0
  186.9520  178.1430  142.8520 C   0  0  0  0  0  0  0  0  0  0  0  0
  186.6520  177.9770  140.3670 N   0  0  0  0  0  2  0  0  0  0  0  0
  189.9210  176.9500  144.7060 C   0  0  0  0  0  3  0  0  0  0  0  0
  185.8870  178.3490  147.7390 N   0  0  0  0  0  0  0  0  0  0  0  0
  189.7910  177.9150  142.4310 C   0  0  2  0  0  3  0  0  0  0  0  0
  191.0000  177.0500  142.0850 C   0  0  0  0  0  2  0  0  0  0  0  0
  185.6340  178.4560  142.9820 N   0  0  0  0  0  0  0  0  0  0  0  0
  185.7720  178.3850  145.3560 C   0  0  0  0  0  0  0  0  0  0  0  0
  185.1620  178.5270  146.6030 C   0  0  0  0  0  3  0  0  0  0  0  0
  183.9990  177.1050  136.0410 C   0  0  1  0  0  3  0  0  0  0  0  0
  186.3750  177.4650  136.6880 C   0  0  0  0  0  3  0  0  0  0  0  0
  184.4320  179.2130  139.0430 F   0  0  0  0  0  0  0  0  0  0  0  0
  182.8370  177.1910  134.6530 S   0  0  0  0  0  1  0  0  0  0  0  0
  185.4050  177.4060  135.5440 C   0  0  0  0  0  2  0  0  0  0  0  0
  184.5630  178.0590  138.2910 C   0  0  2  0  0  3  0  0  0  0  0  0
  186.0190  177.8220  137.9300 C   0  0  0  0  0  0  0  0  0  0  0  0
  183.6270  178.1480  137.0830 C   0  0  0  0  0  2  0  0  0  0  0  0
  1 17  1  0  0  0  0
  1 11  1  0  0  0  0
  2  3  1  0  0  0  0
  3 22  2  0  0  0  0
  3  9  1  0  0  0  0
  4  5  2  0  0  0  0
  5 16  1  0  0  0  0
  6 18  1  0  0  0  0
  6 13  1  0  0  0  0
  7  2  1  0  0  0  0
  7 17  2  0  0  0  0
  8  1  1  0  0  0  0
  9  6  2  0  0  0  0
 10 15  1  0  0  0  0
 12 22  1  0  0  0  0
 14 10  2  0  0  0  0
 14 19  1  0  0  0  0
 15 21  1  0  0  0  0
 15  2  2  0  0  0  0
 16 10  1  0  0  0  0
 19 20  1  6  0  0  0
 19  7  1  0  0  0  0
 20  8  1  0  0  0  0
 21 12  2  0  0  0  0
 22 23  1  0  0  0  0
 23 18  2  0  0  0  0
 24 27  1  6  0  0  0
 24 31  1  0  0  0  0
 25 30  2  0  0  0  0
 28 24  1  0  0  0  0
 28 25  1  0  0  0  0
 29 26  1  6  0  0  0
 30 29  1  0  0  0  0
 30  5  1  0  0  0  0
 31 29  1  0  0  0  0
M  END
>  <MODEL>
7

>  <REMARK>
 VINA RESULT:      -8.5      2.217      2.932
  Name = 
  1 active torsions:
  status: ('A' for Active; 'I' for Inactive)
    1  A    between atoms: C_9  and  C_22
                            x       y       z     vdW  Elec       q    Type
                         _______ _______ _______ _____ _____    ______ ____

>  <TORSDO>
F 1

$$$$
=
 OpenBabel10262419333D

 31 35  0  0  1  0  0  0  0  0999 V2000
  180.2250  178.3360  142.2950 N   0  0  0  0  0  0  0  0  0  0  0  0
  183.8350  178.4620  141.0910 C   0  0  0  0  0  0  0  0  0  0  0  0
  183.8400  178.3940  139.6720 C   0  0  0  0  0  0  0  0  0  0  0  0
  185.6320  178.4780  146.1180 O   0  0  0  0  0  0  0  0  0  0  0  0
  186.5760  178.1990  145.3280 C   0  0  0  0  0  0  0  0  0  0  0  0
  182.7320  178.3890  137.5160 C   0  0  0  0  0  0  0  0  0  0  0  0
  182.6070  178.5610  141.9310 C   0  0  0  0  0  0  0  0  0  0  0  0
  180.2850  178.9640  143.6110 C   0  0  0  0  0  2  0  0  0  0  0  0
  182.6650  178.4520  138.9080 C   0  0  0  0  0  3  0  0  0  0  0  0
  185.1210  178.4910  143.2410 C   0  0  0  0  0  0  0  0  0  0  0  0
  178.9440  177.9010  141.7740 C   0  0  0  0  0  1  0  0  0  0  0  0
  186.2620  178.2490  139.7120 C   0  0  0  0  0  3  0  0  0  0  0  0
  181.4840  178.4460  136.7110 C   0  0  0  0  0  1  0  0  0  0  0  0
  184.0450  178.7470  143.9290 N   0  0  0  0  0  0  0  0  0  0  0  0
  185.0750  178.4390  141.7660 C   0  0  0  0  0  0  0  0  0  0  0  0
  186.3590  178.2030  143.9080 N   0  0  0  0  0  2  0  0  0  0  0  0
  181.3940  178.2200  141.4730 C   0  0  0  0  0  3  0  0  0  0  0  0
  183.9350  178.2730  136.8930 N   0  0  0  0  0  0  0  0  0  0  0  0
  182.7570  179.1110  143.3370 C   0  0  2  0  0  3  0  0  0  0  0  0
  181.6290  178.6670  144.2640 C   0  0  0  0  0  2  0  0  0  0  0  0
  186.2360  178.3250  141.0660 N   0  0  0  0  0  0  0  0  0  0  0  0
  185.0730  178.2850  138.9910 C   0  0  0  0  0  0  0  0  0  0  0  0
  185.0970  178.2220  137.5970 C   0  0  0  0  0  3  0  0  0  0  0  0
  190.2110  176.5920  146.9760 C   0  0  1  0  0  3  0  0  0  0  0  0
  188.0910  177.8770  147.1970 C   0  0  0  0  0  3  0  0  0  0  0  0
  189.1390  178.2610  143.8610 F   0  0  0  0  0  0  0  0  0  0  0  0
  191.8460  176.3370  147.7180 S   0  0  0  0  0  1  0  0  0  0  0  0
  189.4040  177.5450  147.8450 C   0  0  0  0  0  2  0  0  0  0  0  0
  189.0030  177.3930  144.9290 C   0  0  2  0  0  3  0  0  0  0  0  0
  187.9110  177.8740  145.8690 C   0  0  0  0  0  0  0  0  0  0  0  0
  190.3690  177.2170  145.5990 C   0  0  0  0  0  2  0  0  0  0  0  0
  1  8  1  0  0  0  0
  2 15  1  0  0  0  0
  2  7  1  0  0  0  0
  3  2  2  0  0  0  0
  5 30  1  0  0  0  0
  5  4  2  0  0  0  0
  6  9  2  0  0  0  0
  7 19  1  0  0  0  0
  8 20  1  0  0  0  0
  9  3  1  0  0  0  0
 10 16  1  0  0  0  0
 10 14  2  0  0  0  0
 11  1  1  0  0  0  0
 12 21  1  0  0  0  0
 13  6  1  0  0  0  0
 15 10  1  0  0  0  0
 16  5  1  0  0  0  0
 17  7  2  0  0  0  0
 17  1  1  0  0  0  0
 18  6  1  0  0  0  0
 18 23  2  0  0  0  0
 19 14  1  0  0  0  0
 19 20  1  1  0  0  0
 21 15  2  0  0  0  0
 22  3  1  0  0  0  0
 22 12  2  0  0  0  0
 23 22  1  0  0  0  0
 24 27  1  1  0  0  0
 24 28  1  0  0  0  0
 25 28  1  0  0  0  0
 29 26  1  6  0  0  0
 29 31  1  0  0  0  0
 29 30  1  0  0  0  0
 30 25  2  0  0  0  0
 31 24  1  0  0  0  0
M  END
>  <MODEL>
8

>  <REMARK>
 VINA RESULT:      -8.4      4.445      9.192
  Name = 
  1 active torsions:
  status: ('A' for Active; 'I' for Inactive)
    1  A    between atoms: C_9  and  C_22
                            x       y       z     vdW  Elec       q    Type
                         _______ _______ _______ _____ _____    ______ ____

>  <TORSDO>
F 1

$$$$
