=
 OpenBabel10262422453D

 43 47  0  0  1  0  0  0  0  0999 V2000
  187.3350  176.5080  136.9370 N   0  0  0  0  0  0  0  0  0  0  0  0
  186.2840  178.5240  137.6170 C   0  0  2  0  0  3  0  0  0  0  0  0
  185.8170  177.5380  135.5020 O   0  0  0  0  0  1  0  0  0  0  0  0
  186.0810  177.2340  136.8390 C   0  0  1  0  0  3  0  0  0  0  0  0
  187.5190  175.2150  136.3320 C   0  0  0  0  0  0  0  0  0  0  0  0
  186.5100  174.4990  136.0920 O   0  0  0  0  0  0  0  0  0  0  0  0
  188.3580  177.2330  137.6790 C   0  0  1  0  0  3  0  0  0  0  0  0
  187.7860  178.6240  137.8800 C   0  0  0  0  0  2  0  0  0  0  0  0
  191.4160  173.8160  135.2140 C   0  0  0  0  0  0  0  0  0  0  0  0
  189.4240  173.5810  136.5760 C   0  0  0  0  0  0  0  0  0  0  0  0
  190.8630  174.9380  134.5940 C   0  0  0  0  0  3  0  0  0  0  0  0
  193.0140  173.2680  134.7650 Cl  0  0  0  0  0  0  0  0  0  0  0  0
  188.8620  174.7180  135.9590 C   0  0  0  0  0  0  0  0  0  0  0  0
  190.6980  173.1400  136.2020 C   0  0  0  0  0  3  0  0  0  0  0  0
  189.5930  175.3850  134.9640 C   0  0  0  0  0  3  0  0  0  0  0  0
  188.7400  172.8940  137.5720 O   0  0  0  0  0  1  0  0  0  0  0  0
  185.4820  178.4850  138.8890 C   0  0  0  0  0  0  0  0  0  0  0  0
  186.0540  179.0130  140.0880 N   0  0  0  0  0  2  0  0  0  0  0  0
  184.3350  177.9610  138.9150 O   0  0  0  0  0  0  0  0  0  0  0  0
  185.3260  179.0520  141.3440 C   0  0  0  0  0  2  0  0  0  0  0  0
  185.5550  177.7530  142.0910 C   0  0  0  0  0  2  0  0  0  0  0  0
  185.7020  178.0100  143.5570 C   0  0  0  0  0  0  0  0  0  0  0  0
  186.8130  177.6640  145.6890 C   0  0  0  0  0  3  0  0  0  0  0  0
  184.7870  178.8620  144.1840 C   0  0  0  0  0  3  0  0  0  0  0  0
  184.8820  179.1130  145.5550 C   0  0  0  0  0  3  0  0  0  0  0  0
  186.7320  177.4130  144.3130 C   0  0  0  0  0  0  0  0  0  0  0  0
  185.8920  178.5120  146.3080 C   0  0  0  0  0  3  0  0  0  0  0  0
  187.7480  176.5140  143.6730 C   0  0  0  0  0  2  0  0  0  0  0  0
  189.1300  177.0450  143.8660 C   0  0  0  0  0  0  0  0  0  0  0  0
  191.7110  178.0150  144.1680 C   0  0  0  0  0  3  0  0  0  0  0  0
  191.4540  176.6430  144.1490 C   0  0  0  0  0  3  0  0  0  0  0  0
  190.6500  178.9100  144.0310 C   0  0  0  0  0  3  0  0  0  0  0  0
  190.1810  176.1900  144.0000 N   0  0  0  0  0  0  0  0  0  0  0  0
  189.3490  178.4250  143.8770 C   0  0  0  0  0  3  0  0  0  0  0  0
  188.5780  176.6030  139.0520 C   0  0  0  0  0  2  0  0  0  0  0  0
  192.3670  176.2910  138.4010 C   0  0  1  0  0  3  0  0  0  0  0  0
  192.8210  177.2010  139.5180 C   0  0  0  0  0  0  0  0  0  0  0  0
  193.9280  177.7200  139.5020 O   0  0  0  0  0  0  0  0  0  0  0  0
  190.4950  177.5590  140.3190 C   0  0  0  0  0  2  0  0  0  0  0  0
  190.8880  176.5180  138.0910 C   0  0  0  0  0  2  0  0  0  0  0  0
  190.0550  176.4490  139.3710 C   0  0  2  0  0  3  0  0  0  0  0  0
  193.1770  176.4880  137.1300 C   0  0  0  0  0  1  0  0  0  0  0  0
  191.9520  177.3580  140.7300 C   0  0  0  0  0  2  0  0  0  0  0  0
  1  7  1  0  0  0  0
  2  8  1  0  0  0  0
  2 17  1  1  0  0  0
  4  3  1  6  0  0  0
  4  1  1  0  0  0  0
  4  2  1  0  0  0  0
  5  1  1  0  0  0  0
  6  5  2  0  0  0  0
  7  8  1  0  0  0  0
  7 35  1  1  0  0  0
  9 14  1  0  0  0  0
 10 16  1  0  0  0  0
 11 15  1  0  0  0  0
 11  9  2  0  0  0  0
 12  9  1  0  0  0  0
 13  5  1  0  0  0  0
 13 10  1  0  0  0  0
 14 10  2  0  0  0  0
 15 13  2  0  0  0  0
 17 19  2  0  0  0  0
 17 18  1  0  0  0  0
 18 20  1  0  0  0  0
 20 21  1  0  0  0  0
 21 22  1  0  0  0  0
 22 24  2  0  0  0  0
 22 26  1  0  0  0  0
 23 27  1  0  0  0  0
 24 25  1  0  0  0  0
 25 27  2  0  0  0  0
 26 23  2  0  0  0  0
 28 29  1  0  0  0  0
 28 26  1  0  0  0  0
 29 34  2  0  0  0  0
 29 33  1  0  0  0  0
 31 30  1  0  0  0  0
 32 30  2  0  0  0  0
 33 31  2  0  0  0  0
 34 32  1  0  0  0  0
 36 42  1  6  0  0  0
 36 37  1  0  0  0  0
 37 43  1  0  0  0  0
 38 37  2  0  0  0  0
 39 43  1  0  0  0  0
 40 36  1  0  0  0  0
 40 41  1  0  0  0  0
 41 35  1  6  0  0  0
 41 39  1  0  0  0  0
M  END
>  <MODEL>
1

>  <REMARK>
 VINA RESULT:      -8.4      0.000      0.000
  Name = 
  9 active torsions:
  status: ('A' for Active; 'I' for Inactive)
    1  A    between atoms: C_1  and  C_34
    2  A    between atoms: C_1  and  C_35
    3  A    between atoms: C_2  and  C_13
    4  A    between atoms: C_3  and  C_4
    5  A    between atoms: C_3  and  C_12
    6  A    between atoms: N_6  and  C_12
    7  A    between atoms: C_11  and  C_14
    8  A    between atoms: C_14  and  C_41
    9  A    between atoms: C_21  and  C_30
                            x       y       z     vdW  Elec       q    Type
                         _______ _______ _______ _____ _____    ______ ____

>  <TORSDO>
F 9

$$$$
=
 OpenBabel10262422453D

 43 47  0  0  1  0  0  0  0  0999 V2000
  189.0260  177.3480  141.9880 N   0  0  0  0  0  0  0  0  0  0  0  0
  188.8280  178.3420  139.8420 C   0  0  2  0  0  3  0  0  0  0  0  0
  190.9540  177.8050  140.7640 O   0  0  0  0  0  1  0  0  0  0  0  0
  189.6360  177.3560  140.6700 C   0  0  1  0  0  3  0  0  0  0  0  0
  189.5140  176.5080  143.0510 C   0  0  0  0  0  0  0  0  0  0  0  0
  190.1680  175.4700  142.7640 O   0  0  0  0  0  0  0  0  0  0  0  0
  187.9120  178.2780  142.1070 C   0  0  1  0  0  3  0  0  0  0  0  0
  187.9520  179.1050  140.8360 C   0  0  0  0  0  2  0  0  0  0  0  0
  188.8110  177.4930  147.1650 C   0  0  0  0  0  0  0  0  0  0  0  0
  190.3610  177.1870  145.3270 C   0  0  0  0  0  0  0  0  0  0  0  0
  187.7450  177.1680  146.3250 C   0  0  0  0  0  3  0  0  0  0  0  0
  188.5150  177.8720  148.8460 Cl  0  0  0  0  0  0  0  0  0  0  0  0
  189.2900  176.8510  144.4730 C   0  0  0  0  0  0  0  0  0  0  0  0
  190.1160  177.5020  146.6670 C   0  0  0  0  0  3  0  0  0  0  0  0
  187.9840  176.8500  144.9860 C   0  0  0  0  0  3  0  0  0  0  0  0
  191.6720  177.1920  144.8640 O   0  0  0  0  0  1  0  0  0  0  0  0
  188.0150  177.6020  138.8150 C   0  0  0  0  0  0  0  0  0  0  0  0
  186.7730  178.1570  138.3800 N   0  0  0  0  0  2  0  0  0  0  0  0
  188.4000  176.4880  138.3670 O   0  0  0  0  0  0  0  0  0  0  0  0
  185.9540  177.5260  137.3600 C   0  0  0  0  0  2  0  0  0  0  0  0
  184.6770  177.0120  137.9960 C   0  0  0  0  0  2  0  0  0  0  0  0
  183.6520  178.0980  138.0670 C   0  0  0  0  0  0  0  0  0  0  0  0
  181.4330  178.9800  137.6240 C   0  0  0  0  0  3  0  0  0  0  0  0
  184.0070  179.3180  138.6540 C   0  0  0  0  0  3  0  0  0  0  0  0
  183.0830  180.3630  138.7240 C   0  0  0  0  0  3  0  0  0  0  0  0
  182.3490  177.9220  137.5570 C   0  0  0  0  0  0  0  0  0  0  0  0
  181.7970  180.1960  138.2070 C   0  0  0  0  0  3  0  0  0  0  0  0
  181.9220  176.6220  136.9450 C   0  0  0  0  0  2  0  0  0  0  0  0
  180.9760  175.8930  137.8400 C   0  0  0  0  0  0  0  0  0  0  0  0
  179.2340  174.4870  139.4780 C   0  0  0  0  0  3  0  0  0  0  0  0
  178.9320  174.7180  138.1350 C   0  0  0  0  0  3  0  0  0  0  0  0
  180.4330  174.9710  140.0010 C   0  0  0  0  0  3  0  0  0  0  0  0
  179.8010  175.4100  137.3500 N   0  0  0  0  0  0  0  0  0  0  0  0
  181.3130  175.6780  139.1790 C   0  0  0  0  0  3  0  0  0  0  0  0
  186.5830  177.5260  142.1470 C   0  0  0  0  0  2  0  0  0  0  0  0
  183.0210  179.0020  142.1960 C   0  0  1  0  0  3  0  0  0  0  0  0
  182.8880  179.1150  143.6970 C   0  0  0  0  0  0  0  0  0  0  0  0
  181.7920  179.1890  144.2330 O   0  0  0  0  0  0  0  0  0  0  0  0
  185.2070  178.2980  144.0710 C   0  0  0  0  0  2  0  0  0  0  0  0
  184.1570  178.0500  141.8270 C   0  0  0  0  0  2  0  0  0  0  0  0
  185.4380  178.4290  142.5700 C   0  0  2  0  0  3  0  0  0  0  0  0
  181.7370  178.5250  141.5380 C   0  0  0  0  0  1  0  0  0  0  0  0
  184.1260  179.2760  144.5290 C   0  0  0  0  0  2  0  0  0  0  0  0
  1  7  1  0  0  0  0
  1  5  1  0  0  0  0
  2 17  1  6  0  0  0
  2  4  1  0  0  0  0
  2  8  1  0  0  0  0
  4  3  1  1  0  0  0
  4  1  1  0  0  0  0
  5 13  1  0  0  0  0
  6  5  2  0  0  0  0
  7 35  1  6  0  0  0
  8  7  1  0  0  0  0
  9 12  1  0  0  0  0
 10 14  2  0  0  0  0
 11  9  2  0  0  0  0
 13 15  2  0  0  0  0
 13 10  1  0  0  0  0
 14  9  1  0  0  0  0
 15 11  1  0  0  0  0
 16 10  1  0  0  0  0
 18 17  1  0  0  0  0
 19 17  2  0  0  0  0
 20 21  1  0  0  0  0
 20 18  1  0  0  0  0
 21 22  1  0  0  0  0
 22 24  1  0  0  0  0
 23 27  2  0  0  0  0
 24 25  2  0  0  0  0
 26 23  1  0  0  0  0
 26 22  2  0  0  0  0
 27 25  1  0  0  0  0
 28 26  1  0  0  0  0
 28 29  1  0  0  0  0
 29 34  1  0  0  0  0
 30 32  1  0  0  0  0
 31 30  2  0  0  0  0
 33 29  2  0  0  0  0
 33 31  1  0  0  0  0
 34 32  2  0  0  0  0
 36 42  1  1  0  0  0
 36 37  1  0  0  0  0
 37 38  2  0  0  0  0
 37 43  1  0  0  0  0
 39 43  1  0  0  0  0
 40 36  1  0  0  0  0
 40 41  1  0  0  0  0
 41 35  1  6  0  0  0
 41 39  1  0  0  0  0
M  END
>  <MODEL>
2

>  <REMARK>
 VINA RESULT:      -8.2      4.290      8.984
  Name = 
  9 active torsions:
  status: ('A' for Active; 'I' for Inactive)
    1  A    between atoms: C_1  and  C_34
    2  A    between atoms: C_1  and  C_35
    3  A    between atoms: C_2  and  C_13
    4  A    between atoms: C_3  and  C_4
    5  A    between atoms: C_3  and  C_12
    6  A    between atoms: N_6  and  C_12
    7  A    between atoms: C_11  and  C_14
    8  A    between atoms: C_14  and  C_41
    9  A    between atoms: C_21  and  C_30
                            x       y       z     vdW  Elec       q    Type
                         _______ _______ _______ _____ _____    ______ ____

>  <TORSDO>
F 9

$$$$
=
 OpenBabel10262422453D

 43 47  0  0  1  0  0  0  0  0999 V2000
  188.9610  177.3000  141.9770 N   0  0  0  0  0  0  0  0  0  0  0  0
  188.7030  178.2260  139.8070 C   0  0  2  0  0  3  0  0  0  0  0  0
  190.8560  177.7330  140.6940 O   0  0  0  0  0  1  0  0  0  0  0  0
  189.5390  177.2720  140.6450 C   0  0  1  0  0  3  0  0  0  0  0  0
  189.4810  176.4980  143.0530 C   0  0  0  0  0  0  0  0  0  0  0  0
  190.1360  175.4560  142.7820 O   0  0  0  0  0  0  0  0  0  0  0  0
  187.8430  178.2260  142.0940 C   0  0  1  0  0  3  0  0  0  0  0  0
  187.8460  179.0140  140.7980 C   0  0  0  0  0  2  0  0  0  0  0  0
  188.8690  177.6100  147.1490 C   0  0  0  0  0  0  0  0  0  0  0  0
  190.3860  177.1120  145.3250 C   0  0  0  0  0  0  0  0  0  0  0  0
  187.7780  177.3920  146.3060 C   0  0  0  0  0  3  0  0  0  0  0  0
  188.6070  178.0430  148.8230 Cl  0  0  0  0  0  0  0  0  0  0  0  0
  189.2890  176.8820  144.4690 C   0  0  0  0  0  0  0  0  0  0  0  0
  190.1690  177.4700  146.6600 C   0  0  0  0  0  3  0  0  0  0  0  0
  187.9880  177.0320  144.9740 C   0  0  0  0  0  3  0  0  0  0  0  0
  191.6910  176.9670  144.8710 O   0  0  0  0  0  1  0  0  0  0  0  0
  187.8720  177.4500  138.8240 C   0  0  0  0  0  0  0  0  0  0  0  0
  186.5410  177.8850  138.5420 N   0  0  0  0  0  2  0  0  0  0  0  0
  188.3240  176.4050  138.2790 O   0  0  0  0  0  0  0  0  0  0  0  0
  185.6930  177.2150  137.5720 C   0  0  0  0  0  2  0  0  0  0  0  0
  184.4240  178.0220  137.3790 C   0  0  0  0  0  2  0  0  0  0  0  0
  183.2270  177.2230  137.7820 C   0  0  0  0  0  0  0  0  0  0  0  0
  180.8390  176.7790  137.7490 C   0  0  0  0  0  3  0  0  0  0  0  0
  183.4060  176.1350  138.6440 C   0  0  0  0  0  3  0  0  0  0  0  0
  182.3090  175.3740  139.0570 C   0  0  0  0  0  3  0  0  0  0  0  0
  181.9330  177.5430  137.3210 C   0  0  0  0  0  0  0  0  0  0  0  0
  181.0260  175.6980  138.6130 C   0  0  0  0  0  3  0  0  0  0  0  0
  181.7030  178.6850  136.3770 C   0  0  0  0  0  2  0  0  0  0  0  0
  181.0230  179.8220  137.0670 C   0  0  0  0  0  0  0  0  0  0  0  0
  179.7240  181.8940  138.3770 C   0  0  0  0  0  3  0  0  0  0  0  0
  179.1000  181.1880  137.3470 C   0  0  0  0  0  3  0  0  0  0  0  0
  181.0230  181.5470  138.7510 C   0  0  0  0  0  3  0  0  0  0  0  0
  179.7550  180.1760  136.7190 N   0  0  0  0  0  0  0  0  0  0  0  0
  181.6790  180.5030  138.0950 C   0  0  0  0  0  3  0  0  0  0  0  0
  186.5210  177.4670  142.1900 C   0  0  0  0  0  2  0  0  0  0  0  0
  182.9890  178.9650  141.8030 C   0  0  1  0  0  3  0  0  0  0  0  0
  182.7140  179.1710  143.2740 C   0  0  0  0  0  0  0  0  0  0  0  0
  181.5730  179.2860  143.6960 O   0  0  0  0  0  0  0  0  0  0  0  0
  184.9750  178.3660  143.9210 C   0  0  0  0  0  2  0  0  0  0  0  0
  184.1430  177.9840  141.6050 C   0  0  0  0  0  2  0  0  0  0  0  0
  185.3520  178.4010  142.4440 C   0  0  2  0  0  3  0  0  0  0  0  0
  181.7690  178.4550  141.0540 C   0  0  0  0  0  1  0  0  0  0  0  0
  183.8680  179.3770  144.2100 C   0  0  0  0  0  2  0  0  0  0  0  0
  1  7  1  0  0  0  0
  1  5  1  0  0  0  0
  2 17  1  6  0  0  0
  2  4  1  0  0  0  0
  2  8  1  0  0  0  0
  4  3  1  1  0  0  0
  4  1  1  0  0  0  0
  5 13  1  0  0  0  0
  6  5  2  0  0  0  0
  7 35  1  6  0  0  0
  8  7  1  0  0  0  0
  9 12  1  0  0  0  0
 10 14  2  0  0  0  0
 11  9  2  0  0  0  0
 13 15  2  0  0  0  0
 13 10  1  0  0  0  0
 14  9  1  0  0  0  0
 15 11  1  0  0  0  0
 16 10  1  0  0  0  0
 18 17  1  0  0  0  0
 19 17  2  0  0  0  0
 20 18  1  0  0  0  0
 21 20  1  0  0  0  0
 21 22  1  0  0  0  0
 22 24  1  0  0  0  0
 23 27  2  0  0  0  0
 24 25  2  0  0  0  0
 26 23  1  0  0  0  0
 26 22  2  0  0  0  0
 27 25  1  0  0  0  0
 28 29  1  0  0  0  0
 28 26  1  0  0  0  0
 29 34  1  0  0  0  0
 30 32  1  0  0  0  0
 31 30  2  0  0  0  0
 33 29  2  0  0  0  0
 33 31  1  0  0  0  0
 34 32  2  0  0  0  0
 36 42  1  6  0  0  0
 36 37  1  0  0  0  0
 37 38  2  0  0  0  0
 37 43  1  0  0  0  0
 39 43  1  0  0  0  0
 40 36  1  0  0  0  0
 40 41  1  0  0  0  0
 41 35  1  1  0  0  0
 41 39  1  0  0  0  0
M  END
>  <MODEL>
3

>  <REMARK>
 VINA RESULT:      -8.1      4.294      9.126
  Name = 
  9 active torsions:
  status: ('A' for Active; 'I' for Inactive)
    1  A    between atoms: C_1  and  C_34
    2  A    between atoms: C_1  and  C_35
    3  A    between atoms: C_2  and  C_13
    4  A    between atoms: C_3  and  C_4
    5  A    between atoms: C_3  and  C_12
    6  A    between atoms: N_6  and  C_12
    7  A    between atoms: C_11  and  C_14
    8  A    between atoms: C_14  and  C_41
    9  A    between atoms: C_21  and  C_30
                            x       y       z     vdW  Elec       q    Type
                         _______ _______ _______ _____ _____    ______ ____

>  <TORSDO>
F 9

$$$$
=
 OpenBabel10262422453D

 43 47  0  0  1  0  0  0  0  0999 V2000
  181.9560  176.8130  138.5340 N   0  0  0  0  0  0  0  0  0  0  0  0
  182.5080  179.1140  138.7090 C   0  0  2  0  0  3  0  0  0  0  0  0
  180.3850  178.2960  139.4040 O   0  0  0  0  0  1  0  0  0  0  0  0
  181.7440  177.9800  139.3720 C   0  0  1  0  0  3  0  0  0  0  0  0
  181.3940  175.5270  138.8570 C   0  0  0  0  0  0  0  0  0  0  0  0
  181.0910  175.2720  140.0530 O   0  0  0  0  0  0  0  0  0  0  0  0
  182.7600  177.0970  137.3540 C   0  0  1  0  0  3  0  0  0  0  0  0
  182.8860  178.6080  137.3170 C   0  0  0  0  0  2  0  0  0  0  0  0
  180.7030  172.5550  135.8440 C   0  0  0  0  0  0  0  0  0  0  0  0
  179.9320  174.4910  137.0840 C   0  0  0  0  0  0  0  0  0  0  0  0
  181.9030  172.5710  136.5580 C   0  0  0  0  0  3  0  0  0  0  0  0
  180.4240  171.3250  134.6330 Cl  0  0  0  0  0  0  0  0  0  0  0  0
  181.1390  174.5090  137.8140 C   0  0  0  0  0  0  0  0  0  0  0  0
  179.7210  173.5120  136.1070 C   0  0  0  0  0  3  0  0  0  0  0  0
  182.1190  173.5450  137.5360 C   0  0  0  0  0  3  0  0  0  0  0  0
  178.9310  175.4220  137.3320 O   0  0  0  0  0  1  0  0  0  0  0  0
  183.7140  179.4700  139.5350 C   0  0  0  0  0  0  0  0  0  0  0  0
  183.8680  178.8840  140.8290 N   0  0  0  0  0  2  0  0  0  0  0  0
  184.5630  180.3030  139.1140 O   0  0  0  0  0  0  0  0  0  0  0  0
  185.0260  179.1420  141.6670 C   0  0  0  0  0  2  0  0  0  0  0  0
  185.4730  177.8450  142.3100 C   0  0  0  0  0  2  0  0  0  0  0  0
  185.6510  178.0240  143.7840 C   0  0  0  0  0  0  0  0  0  0  0  0
  186.8540  177.6360  145.8580 C   0  0  0  0  0  3  0  0  0  0  0  0
  184.6970  178.7660  144.4890 C   0  0  0  0  0  3  0  0  0  0  0  0
  184.8190  178.9410  145.8700 C   0  0  0  0  0  3  0  0  0  0  0  0
  186.7460  177.4610  144.4720 C   0  0  0  0  0  0  0  0  0  0  0  0
  185.8950  178.3740  146.5550 C   0  0  0  0  0  3  0  0  0  0  0  0
  187.8030  176.6810  143.7480 C   0  0  0  0  0  2  0  0  0  0  0  0
  189.1600  177.2430  144.0140 C   0  0  0  0  0  0  0  0  0  0  0  0
  191.7070  178.2420  144.4760 C   0  0  0  0  0  3  0  0  0  0  0  0
  191.2480  177.1010  145.1370 C   0  0  0  0  0  3  0  0  0  0  0  0
  190.8670  178.8870  143.5680 C   0  0  0  0  0  3  0  0  0  0  0  0
  189.9970  176.6290  144.8950 N   0  0  0  0  0  0  0  0  0  0  0  0
  189.5850  178.3860  143.3320 C   0  0  0  0  0  3  0  0  0  0  0  0
  184.1590  176.5020  137.4970 C   0  0  0  0  0  2  0  0  0  0  0  0
  187.4500  178.4090  136.8610 C   0  0  1  0  0  3  0  0  0  0  0  0
  187.7170  177.8610  135.4780 C   0  0  0  0  0  0  0  0  0  0  0  0
  188.8380  177.8820  134.9930 O   0  0  0  0  0  0  0  0  0  0  0  0
  185.5940  176.5650  135.4650 C   0  0  0  0  0  2  0  0  0  0  0  0
  186.4360  177.5360  137.5990 C   0  0  0  0  0  2  0  0  0  0  0  0
  185.1950  177.3080  136.7350 C   0  0  2  0  0  3  0  0  0  0  0  0
  188.7170  178.5120  137.6940 C   0  0  0  0  0  1  0  0  0  0  0  0
  186.5590  177.4110  134.6370 C   0  0  0  0  0  2  0  0  0  0  0  0
  1  5  1  0  0  0  0
  1  4  1  0  0  0  0
  2  4  1  0  0  0  0
  2 17  1  1  0  0  0
  4  3  1  6  0  0  0
  5  6  2  0  0  0  0
  7 35  1  1  0  0  0
  7  1  1  0  0  0  0
  8  7  1  0  0  0  0
  8  2  1  0  0  0  0
  9 14  2  0  0  0  0
  9 11  1  0  0  0  0
 10 16  1  0  0  0  0
 10 13  2  0  0  0  0
 11 15  2  0  0  0  0
 12  9  1  0  0  0  0
 13  5  1  0  0  0  0
 14 10  1  0  0  0  0
 15 13  1  0  0  0  0
 17 18  1  0  0  0  0
 18 20  1  0  0  0  0
 19 17  2  0  0  0  0
 20 21  1  0  0  0  0
 21 22  1  0  0  0  0
 22 26  2  0  0  0  0
 22 24  1  0  0  0  0
 23 27  2  0  0  0  0
 24 25  2  0  0  0  0
 25 27  1  0  0  0  0
 26 23  1  0  0  0  0
 28 29  1  0  0  0  0
 28 26  1  0  0  0  0
 29 33  1  0  0  0  0
 30 31  1  0  0  0  0
 32 30  2  0  0  0  0
 33 31  2  0  0  0  0
 34 32  1  0  0  0  0
 34 29  2  0  0  0  0
 36 40  1  0  0  0  0
 36 42  1  1  0  0  0
 37 36  1  0  0  0  0
 38 37  2  0  0  0  0
 39 41  1  0  0  0  0
 41 35  1  1  0  0  0
 41 40  1  0  0  0  0
 43 39  1  0  0  0  0
 43 37  1  0  0  0  0
M  END
>  <MODEL>
4

>  <REMARK>
 VINA RESULT:      -7.9      3.834      5.765
  Name = 
  9 active torsions:
  status: ('A' for Active; 'I' for Inactive)
    1  A    between atoms: C_1  and  C_34
    2  A    between atoms: C_1  and  C_35
    3  A    between atoms: C_2  and  C_13
    4  A    between atoms: C_3  and  C_4
    5  A    between atoms: C_3  and  C_12
    6  A    between atoms: N_6  and  C_12
    7  A    between atoms: C_11  and  C_14
    8  A    between atoms: C_14  and  C_41
    9  A    between atoms: C_21  and  C_30
                            x       y       z     vdW  Elec       q    Type
                         _______ _______ _______ _____ _____    ______ ____

>  <TORSDO>
F 9

$$$$
=
 OpenBabel10262422453D

 43 47  0  0  1  0  0  0  0  0999 V2000
  188.0860  176.6870  136.4010 N   0  0  0  0  0  0  0  0  0  0  0  0
  186.6310  178.5220  136.7850 C   0  0  2  0  0  3  0  0  0  0  0  0
  186.9510  177.6340  134.6010 O   0  0  0  0  0  1  0  0  0  0  0  0
  186.8380  177.2720  135.9450 C   0  0  1  0  0  3  0  0  0  0  0  0
  188.6070  175.4660  135.8440 C   0  0  0  0  0  0  0  0  0  0  0  0
  187.8170  174.6590  135.2850 O   0  0  0  0  0  0  0  0  0  0  0  0
  188.7380  177.4720  137.4400 C   0  0  1  0  0  3  0  0  0  0  0  0
  187.9590  178.7730  137.4980 C   0  0  0  0  0  2  0  0  0  0  0  0
  192.8040  174.5890  135.9250 C   0  0  0  0  0  0  0  0  0  0  0  0
  190.5630  174.1530  136.7410 C   0  0  0  0  0  0  0  0  0  0  0  0
  192.3050  175.5730  135.0700 C   0  0  0  0  0  3  0  0  0  0  0  0
  194.5200  174.2550  135.9650 Cl  0  0  0  0  0  0  0  0  0  0  0  0
  190.0520  175.1510  135.8850 C   0  0  0  0  0  0  0  0  0  0  0  0
  191.9350  173.8810  136.7580 C   0  0  0  0  0  3  0  0  0  0  0  0
  190.9360  175.8500  135.0500 C   0  0  0  0  0  3  0  0  0  0  0  0
  189.7260  173.4400  137.5910 O   0  0  0  0  0  1  0  0  0  0  0  0
  185.4960  178.3080  137.7490 C   0  0  0  0  0  0  0  0  0  0  0  0
  185.0650  179.3970  138.5680 N   0  0  0  0  0  2  0  0  0  0  0  0
  184.9520  177.1760  137.8660 O   0  0  0  0  0  0  0  0  0  0  0  0
  183.9490  179.2810  139.4890 C   0  0  0  0  0  2  0  0  0  0  0  0
  184.4160  178.5840  140.7520 C   0  0  0  0  0  2  0  0  0  0  0  0
  183.3490  178.6220  141.7980 C   0  0  0  0  0  0  0  0  0  0  0  0
  182.5770  179.0980  144.0520 C   0  0  0  0  0  3  0  0  0  0  0  0
  182.0700  178.1590  141.4700 C   0  0  0  0  0  3  0  0  0  0  0  0
  181.0510  178.1630  142.4250 C   0  0  0  0  0  3  0  0  0  0  0  0
  183.6040  179.1060  143.0980 C   0  0  0  0  0  0  0  0  0  0  0  0
  181.3040  178.6280  143.7160 C   0  0  0  0  0  3  0  0  0  0  0  0
  184.9530  179.6350  143.4820 C   0  0  0  0  0  2  0  0  0  0  0  0
  185.4460  178.9890  144.7350 C   0  0  0  0  0  0  0  0  0  0  0  0
  186.3040  177.7760  147.0780 C   0  0  0  0  0  3  0  0  0  0  0  0
  185.6880  179.0300  147.0970 C   0  0  0  0  0  3  0  0  0  0  0  0
  186.4870  177.1260  145.8570 C   0  0  0  0  0  3  0  0  0  0  0  0
  185.2760  179.6050  145.9370 N   0  0  0  0  0  0  0  0  0  0  0  0
  186.0550  177.7330  144.6760 C   0  0  0  0  0  3  0  0  0  0  0  0
  188.6150  176.7800  138.7960 C   0  0  0  0  0  2  0  0  0  0  0  0
  189.8450  177.8670  142.2860 C   0  0  1  0  0  3  0  0  0  0  0  0
  191.2990  177.5070  142.0890 C   0  0  0  0  0  0  0  0  0  0  0  0
  192.0410  177.3230  143.0430 O   0  0  0  0  0  0  0  0  0  0  0  0
  190.9210  176.8130  139.7320 C   0  0  0  0  0  2  0  0  0  0  0  0
  188.9730  177.1710  141.2420 C   0  0  0  0  0  2  0  0  0  0  0  0
  189.5230  177.4120  139.8360 C   0  0  2  0  0  3  0  0  0  0  0  0
  189.3440  177.5070  143.6740 C   0  0  0  0  0  1  0  0  0  0  0  0
  191.8710  177.5110  140.7030 C   0  0  0  0  0  2  0  0  0  0  0  0
  1  7  1  0  0  0  0
  2  8  1  0  0  0  0
  2 17  1  1  0  0  0
  4  3  1  6  0  0  0
  4  1  1  0  0  0  0
  4  2  1  0  0  0  0
  5 13  1  0  0  0  0
  5  1  1  0  0  0  0
  6  5  2  0  0  0  0
  7  8  1  0  0  0  0
  7 35  1  1  0  0  0
  9 12  1  0  0  0  0
  9 14  1  0  0  0  0
 10 14  2  0  0  0  0
 10 16  1  0  0  0  0
 11  9  2  0  0  0  0
 13 10  1  0  0  0  0
 15 11  1  0  0  0  0
 15 13  2  0  0  0  0
 17 19  2  0  0  0  0
 17 18  1  0  0  0  0
 18 20  1  0  0  0  0
 20 21  1  0  0  0  0
 21 22  1  0  0  0  0
 22 26  1  0  0  0  0
 24 22  2  0  0  0  0
 24 25  1  0  0  0  0
 25 27  2  0  0  0  0
 26 28  1  0  0  0  0
 26 23  2  0  0  0  0
 27 23  1  0  0  0  0
 28 29  1  0  0  0  0
 29 33  1  0  0  0  0
 30 31  1  0  0  0  0
 32 30  2  0  0  0  0
 33 31  2  0  0  0  0
 34 29  2  0  0  0  0
 34 32  1  0  0  0  0
 36 42  1  1  0  0  0
 37 36  1  0  0  0  0
 37 38  2  0  0  0  0
 39 41  1  0  0  0  0
 39 43  1  0  0  0  0
 40 36  1  0  0  0  0
 41 35  1  6  0  0  0
 41 40  1  0  0  0  0
 43 37  1  0  0  0  0
M  END
>  <MODEL>
5

>  <REMARK>
 VINA RESULT:      -7.6      1.920      3.341
  Name = 
  9 active torsions:
  status: ('A' for Active; 'I' for Inactive)
    1  A    between atoms: C_1  and  C_34
    2  A    between atoms: C_1  and  C_35
    3  A    between atoms: C_2  and  C_13
    4  A    between atoms: C_3  and  C_4
    5  A    between atoms: C_3  and  C_12
    6  A    between atoms: N_6  and  C_12
    7  A    between atoms: C_11  and  C_14
    8  A    between atoms: C_14  and  C_41
    9  A    between atoms: C_21  and  C_30
                            x       y       z     vdW  Elec       q    Type
                         _______ _______ _______ _____ _____    ______ ____

>  <TORSDO>
F 9

$$$$
=
 OpenBabel10262422453D

 43 47  0  0  1  0  0  0  0  0999 V2000
  189.0360  177.3220  142.0060 N   0  0  0  0  0  0  0  0  0  0  0  0
  188.8470  178.2770  139.8420 C   0  0  2  0  0  3  0  0  0  0  0  0
  190.9700  177.7770  140.7920 O   0  0  0  0  0  1  0  0  0  0  0  0
  189.6570  177.3140  140.6940 C   0  0  1  0  0  3  0  0  0  0  0  0
  189.5220  176.5060  143.0880 C   0  0  0  0  0  0  0  0  0  0  0  0
  190.1890  175.4700  142.8240 O   0  0  0  0  0  0  0  0  0  0  0  0
  187.9120  178.2440  142.0990 C   0  0  1  0  0  3  0  0  0  0  0  0
  187.9550  179.0490  140.8140 C   0  0  0  0  0  2  0  0  0  0  0  0
  188.7720  177.5590  147.1760 C   0  0  0  0  0  0  0  0  0  0  0  0
  190.3500  177.1260  145.3870 C   0  0  0  0  0  0  0  0  0  0  0  0
  187.7100  177.3150  146.3040 C   0  0  0  0  0  3  0  0  0  0  0  0
  188.4550  177.9670  148.8470 Cl  0  0  0  0  0  0  0  0  0  0  0  0
  189.2820  176.8710  144.5020 C   0  0  0  0  0  0  0  0  0  0  0  0
  190.0880  177.4650  146.7190 C   0  0  0  0  0  3  0  0  0  0  0  0
  187.9650  176.9740  144.9740 C   0  0  0  0  0  3  0  0  0  0  0  0
  191.6700  177.0280  144.9640 O   0  0  0  0  0  1  0  0  0  0  0  0
  188.0510  177.5120  138.8210 C   0  0  0  0  0  0  0  0  0  0  0  0
  186.7840  178.0230  138.4010 N   0  0  0  0  0  2  0  0  0  0  0  0
  188.4710  176.4140  138.3640 O   0  0  0  0  0  0  0  0  0  0  0  0
  185.9780  177.3660  137.3880 C   0  0  0  0  0  2  0  0  0  0  0  0
  184.5930  177.1060  137.9460 C   0  0  0  0  0  2  0  0  0  0  0  0
  183.6850  176.5880  136.8770 C   0  0  0  0  0  0  0  0  0  0  0  0
  182.5730  174.7710  135.7090 C   0  0  0  0  0  3  0  0  0  0  0  0
  183.1030  177.5000  135.9900 C   0  0  0  0  0  3  0  0  0  0  0  0
  182.2630  177.0520  134.9670 C   0  0  0  0  0  3  0  0  0  0  0  0
  183.4100  175.2110  136.7430 C   0  0  0  0  0  0  0  0  0  0  0  0
  182.0000  175.6880  134.8240 C   0  0  0  0  0  3  0  0  0  0  0  0
  183.9930  174.2040  137.6900 C   0  0  0  0  0  2  0  0  0  0  0  0
  185.1110  173.4500  137.0480 C   0  0  0  0  0  0  0  0  0  0  0  0
  187.2020  172.0270  135.9090 C   0  0  0  0  0  3  0  0  0  0  0  0
  187.4380  173.1850  136.6530 C   0  0  0  0  0  3  0  0  0  0  0  0
  185.8910  171.5810  135.7390 C   0  0  0  0  0  3  0  0  0  0  0  0
  186.3980  173.8660  137.2030 N   0  0  0  0  0  0  0  0  0  0  0  0
  184.8360  172.2940  136.3120 C   0  0  0  0  0  3  0  0  0  0  0  0
  186.5900  177.4800  142.1400 C   0  0  0  0  0  2  0  0  0  0  0  0
  183.0580  179.0000  141.8500 C   0  0  1  0  0  3  0  0  0  0  0  0
  182.7810  179.1090  143.3310 C   0  0  0  0  0  0  0  0  0  0  0  0
  181.6390  179.1950  143.7580 O   0  0  0  0  0  0  0  0  0  0  0  0
  185.0420  178.2610  143.9250 C   0  0  0  0  0  2  0  0  0  0  0  0
  184.2130  178.0350  141.5880 C   0  0  0  0  0  2  0  0  0  0  0  0
  185.4200  178.3950  142.4550 C   0  0  2  0  0  3  0  0  0  0  0  0
  181.8380  178.5420  141.0670 C   0  0  0  0  0  1  0  0  0  0  0  0
  183.9340  179.2510  144.2800 C   0  0  0  0  0  2  0  0  0  0  0  0
  1  7  1  0  0  0  0
  1  5  1  0  0  0  0
  2 17  1  6  0  0  0
  2  4  1  0  0  0  0
  2  8  1  0  0  0  0
  4  3  1  1  0  0  0
  4  1  1  0  0  0  0
  5 13  1  0  0  0  0
  6  5  2  0  0  0  0
  7 35  1  6  0  0  0
  8  7  1  0  0  0  0
  9 12  1  0  0  0  0
 10 14  2  0  0  0  0
 11  9  2  0  0  0  0
 13 15  2  0  0  0  0
 13 10  1  0  0  0  0
 14  9  1  0  0  0  0
 15 11  1  0  0  0  0
 16 10  1  0  0  0  0
 18 17  1  0  0  0  0
 19 17  2  0  0  0  0
 20 21  1  0  0  0  0
 20 18  1  0  0  0  0
 22 21  1  0  0  0  0
 23 26  2  0  0  0  0
 24 22  2  0  0  0  0
 25 24  1  0  0  0  0
 26 22  1  0  0  0  0
 26 28  1  0  0  0  0
 27 25  2  0  0  0  0
 27 23  1  0  0  0  0
 29 33  1  0  0  0  0
 29 28  1  0  0  0  0
 30 31  1  0  0  0  0
 31 33  2  0  0  0  0
 32 30  2  0  0  0  0
 32 34  1  0  0  0  0
 34 29  2  0  0  0  0
 36 42  1  6  0  0  0
 36 37  1  0  0  0  0
 37 38  2  0  0  0  0
 37 43  1  0  0  0  0
 39 43  1  0  0  0  0
 40 36  1  0  0  0  0
 40 41  1  0  0  0  0
 41 35  1  6  0  0  0
 41 39  1  0  0  0  0
M  END
>  <MODEL>
6

>  <REMARK>
 VINA RESULT:      -7.6      3.763      8.914
  Name = 
  9 active torsions:
  status: ('A' for Active; 'I' for Inactive)
    1  A    between atoms: C_1  and  C_34
    2  A    between atoms: C_1  and  C_35
    3  A    between atoms: C_2  and  C_13
    4  A    between atoms: C_3  and  C_4
    5  A    between atoms: C_3  and  C_12
    6  A    between atoms: N_6  and  C_12
    7  A    between atoms: C_11  and  C_14
    8  A    between atoms: C_14  and  C_41
    9  A    between atoms: C_21  and  C_30
                            x       y       z     vdW  Elec       q    Type
                         _______ _______ _______ _____ _____    ______ ____

>  <TORSDO>
F 9

$$$$
=
 OpenBabel10262422453D

 43 47  0  0  1  0  0  0  0  0999 V2000
  189.1870  177.3090  142.0250 N   0  0  0  0  0  0  0  0  0  0  0  0
  189.1020  178.2910  139.8670 C   0  0  2  0  0  3  0  0  0  0  0  0
  191.1760  177.7480  140.8970 O   0  0  0  0  0  1  0  0  0  0  0  0
  189.8620  177.3060  140.7400 C   0  0  1  0  0  3  0  0  0  0  0  0
  189.6160  176.4740  143.1170 C   0  0  0  0  0  0  0  0  0  0  0  0
  190.2770  175.4310  142.8690 O   0  0  0  0  0  0  0  0  0  0  0  0
  188.0730  178.2460  142.0830 C   0  0  1  0  0  3  0  0  0  0  0  0
  188.1820  179.0660  140.8100 C   0  0  0  0  0  2  0  0  0  0  0  0
  188.7130  177.4870  147.1850 C   0  0  0  0  0  0  0  0  0  0  0  0
  190.3500  177.1870  145.4210 C   0  0  0  0  0  0  0  0  0  0  0  0
  187.6910  177.1380  146.3010 C   0  0  0  0  0  3  0  0  0  0  0  0
  188.3360  177.8770  148.8470 Cl  0  0  0  0  0  0  0  0  0  0  0  0
  189.3230  176.8260  144.5240 C   0  0  0  0  0  0  0  0  0  0  0  0
  190.0390  177.5110  146.7460 C   0  0  0  0  0  3  0  0  0  0  0  0
  187.9950  176.8110  144.9770 C   0  0  0  0  0  3  0  0  0  0  0  0
  191.6790  177.2070  145.0170 O   0  0  0  0  0  1  0  0  0  0  0  0
  188.3370  177.5500  138.8050 C   0  0  0  0  0  0  0  0  0  0  0  0
  187.5580  178.2900  137.8640 N   0  0  0  0  0  2  0  0  0  0  0  0
  188.3490  176.2890  138.7620 O   0  0  0  0  0  0  0  0  0  0  0  0
  186.8290  177.6500  136.7830 C   0  0  0  0  0  2  0  0  0  0  0  0
  187.7740  177.4040  135.6240 C   0  0  0  0  0  2  0  0  0  0  0  0
  187.9870  175.9380  135.4220 C   0  0  0  0  0  0  0  0  0  0  0  0
  189.3650  174.0420  134.7840 C   0  0  0  0  0  3  0  0  0  0  0  0
  186.9230  175.0640  135.6750 C   0  0  0  0  0  3  0  0  0  0  0  0
  187.0780  173.6890  135.4830 C   0  0  0  0  0  3  0  0  0  0  0  0
  189.2240  175.4220  134.9820 C   0  0  0  0  0  0  0  0  0  0  0  0
  188.2970  173.1780  135.0340 C   0  0  0  0  0  3  0  0  0  0  0  0
  190.3950  176.3220  134.7250 C   0  0  0  0  0  2  0  0  0  0  0  0
  191.4890  176.0730  135.7100 C   0  0  0  0  0  0  0  0  0  0  0  0
  193.5500  175.6590  137.5200 C   0  0  0  0  0  3  0  0  0  0  0  0
  193.7120  175.3680  136.1640 C   0  0  0  0  0  3  0  0  0  0  0  0
  192.3310  176.1670  137.9680 C   0  0  0  0  0  3  0  0  0  0  0  0
  192.6880  175.5800  135.2950 N   0  0  0  0  0  0  0  0  0  0  0  0
  191.2910  176.3780  137.0590 C   0  0  0  0  0  3  0  0  0  0  0  0
  186.7400  177.5020  142.0610 C   0  0  0  0  0  2  0  0  0  0  0  0
  183.1880  179.0030  141.9860 C   0  0  1  0  0  3  0  0  0  0  0  0
  182.9940  179.0920  143.4810 C   0  0  0  0  0  0  0  0  0  0  0  0
  181.8770  179.1660  143.9720 O   0  0  0  0  0  0  0  0  0  0  0  0
  185.2890  178.2530  143.9390 C   0  0  0  0  0  2  0  0  0  0  0  0
  184.3320  178.0490  141.6480 C   0  0  0  0  0  2  0  0  0  0  0  0
  185.5840  178.4060  142.4510 C   0  0  2  0  0  3  0  0  0  0  0  0
  181.9300  178.5460  141.2670 C   0  0  0  0  0  1  0  0  0  0  0  0
  184.1970  179.2310  144.3660 C   0  0  0  0  0  2  0  0  0  0  0  0
  1  7  1  0  0  0  0
  1  5  1  0  0  0  0
  2 17  1  6  0  0  0
  2  4  1  0  0  0  0
  2  8  1  0  0  0  0
  4  3  1  1  0  0  0
  4  1  1  0  0  0  0
  5 13  1  0  0  0  0
  6  5  2  0  0  0  0
  7 35  1  6  0  0  0
  8  7  1  0  0  0  0
  9 12  1  0  0  0  0
 10 14  2  0  0  0  0
 11  9  2  0  0  0  0
 13 15  2  0  0  0  0
 13 10  1  0  0  0  0
 14  9  1  0  0  0  0
 15 11  1  0  0  0  0
 16 10  1  0  0  0  0
 18 17  1  0  0  0  0
 19 17  2  0  0  0  0
 20 18  1  0  0  0  0
 21 20  1  0  0  0  0
 22 21  1  0  0  0  0
 22 24  1  0  0  0  0
 23 26  1  0  0  0  0
 23 27  2  0  0  0  0
 25 24  2  0  0  0  0
 26 22  2  0  0  0  0
 27 25  1  0  0  0  0
 28 26  1  0  0  0  0
 28 29  1  0  0  0  0
 29 34  1  0  0  0  0
 30 32  1  0  0  0  0
 31 30  2  0  0  0  0
 33 29  2  0  0  0  0
 33 31  1  0  0  0  0
 34 32  2  0  0  0  0
 36 42  1  6  0  0  0
 36 37  1  0  0  0  0
 37 38  2  0  0  0  0
 37 43  1  0  0  0  0
 39 43  1  0  0  0  0
 40 36  1  0  0  0  0
 40 41  1  0  0  0  0
 41 35  1  6  0  0  0
 41 39  1  0  0  0  0
M  END
>  <MODEL>
7

>  <REMARK>
 VINA RESULT:      -7.5      3.398      8.828
  Name = 
  9 active torsions:
  status: ('A' for Active; 'I' for Inactive)
    1  A    between atoms: C_1  and  C_34
    2  A    between atoms: C_1  and  C_35
    3  A    between atoms: C_2  and  C_13
    4  A    between atoms: C_3  and  C_4
    5  A    between atoms: C_3  and  C_12
    6  A    between atoms: N_6  and  C_12
    7  A    between atoms: C_11  and  C_14
    8  A    between atoms: C_14  and  C_41
    9  A    between atoms: C_21  and  C_30
                            x       y       z     vdW  Elec       q    Type
                         _______ _______ _______ _____ _____    ______ ____

>  <TORSDO>
F 9

$$$$
=
 OpenBabel10262422453D

 43 47  0  0  1  0  0  0  0  0999 V2000
  184.8970  176.1840  137.4590 N   0  0  0  0  0  0  0  0  0  0  0  0
  184.4390  178.5100  137.5780 C   0  0  2  0  0  3  0  0  0  0  0  0
  182.8540  176.9810  136.6760 O   0  0  0  0  0  1  0  0  0  0  0  0
  183.8150  177.1270  137.6780 C   0  0  1  0  0  3  0  0  0  0  0  0
  184.6900  174.7600  137.4990 C   0  0  0  0  0  0  0  0  0  0  0  0
  183.7080  174.2990  138.1400 O   0  0  0  0  0  0  0  0  0  0  0  0
  186.1710  176.8320  137.1810 C   0  0  1  0  0  3  0  0  0  0  0  0
  185.8330  178.2990  136.9880 C   0  0  0  0  0  2  0  0  0  0  0  0
  187.3100  172.0380  135.4700 C   0  0  0  0  0  0  0  0  0  0  0  0
  185.5650  173.7190  135.3760 C   0  0  0  0  0  0  0  0  0  0  0  0
  187.3420  172.1440  136.8610 C   0  0  0  0  0  3  0  0  0  0  0  0
  188.3680  170.9090  134.6550 Cl  0  0  0  0  0  0  0  0  0  0  0  0
  185.5870  173.8260  136.7820 C   0  0  0  0  0  0  0  0  0  0  0  0
  186.4230  172.8230  134.7300 C   0  0  0  0  0  3  0  0  0  0  0  0
  186.4860  173.0350  137.5130 C   0  0  0  0  0  3  0  0  0  0  0  0
  184.6850  174.4770  134.6130 O   0  0  0  0  0  1  0  0  0  0  0  0
  184.4850  179.1500  138.9380 C   0  0  0  0  0  0  0  0  0  0  0  0
  184.8100  178.3470  140.0740 N   0  0  0  0  0  2  0  0  0  0  0  0
  184.2050  180.3710  139.0870 O   0  0  0  0  0  0  0  0  0  0  0  0
  184.9190  178.9010  141.4120 C   0  0  0  0  0  2  0  0  0  0  0  0
  186.1270  178.2990  142.1030 C   0  0  0  0  0  2  0  0  0  0  0  0
  185.9350  178.2940  143.5850 C   0  0  0  0  0  0  0  0  0  0  0  0
  186.5340  177.5510  145.8190 C   0  0  0  0  0  3  0  0  0  0  0  0
  184.8950  179.0550  144.1300 C   0  0  0  0  0  3  0  0  0  0  0  0
  184.6730  179.0630  145.5090 C   0  0  0  0  0  3  0  0  0  0  0  0
  186.7700  177.5430  144.4380 C   0  0  0  0  0  0  0  0  0  0  0  0
  185.4900  178.3090  146.3530 C   0  0  0  0  0  3  0  0  0  0  0  0
  187.9120  176.7350  143.8960 C   0  0  0  0  0  2  0  0  0  0  0  0
  189.2190  177.4020  144.1730 C   0  0  0  0  0  0  0  0  0  0  0  0
  191.6760  178.5910  144.6690 C   0  0  0  0  0  3  0  0  0  0  0  0
  191.1660  177.6060  145.5180 C   0  0  0  0  0  3  0  0  0  0  0  0
  190.9340  178.9790  143.5530 C   0  0  0  0  0  3  0  0  0  0  0  0
  189.9600  177.0370  145.2550 N   0  0  0  0  0  0  0  0  0  0  0  0
  189.6980  178.3820  143.2990 C   0  0  0  0  0  3  0  0  0  0  0  0
  187.1110  176.7110  138.3780 C   0  0  0  0  0  2  0  0  0  0  0  0
  189.8380  175.1360  136.1520 C   0  0  1  0  0  3  0  0  0  0  0  0
  190.9080  176.1700  136.4100 C   0  0  0  0  0  0  0  0  0  0  0  0
  191.8470  176.3170  135.6420 O   0  0  0  0  0  0  0  0  0  0  0  0
  189.4720  177.4110  138.0170 C   0  0  0  0  0  2  0  0  0  0  0  0
  188.4630  175.6750  136.5440 C   0  0  0  0  0  2  0  0  0  0  0  0
  188.4950  176.2430  137.9630 C   0  0  2  0  0  3  0  0  0  0  0  0
  189.8030  174.6930  134.6980 C   0  0  0  0  0  1  0  0  0  0  0  0
  190.8880  176.9330  137.7020 C   0  0  0  0  0  2  0  0  0  0  0  0
  1  5  1  0  0  0  0
  1  4  1  0  0  0  0
  2  4  1  0  0  0  0
  2 17  1  1  0  0  0
  4  3  1  6  0  0  0
  5  6  2  0  0  0  0
  7  1  1  0  0  0  0
  7 35  1  1  0  0  0
  8  7  1  0  0  0  0
  8  2  1  0  0  0  0
  9 11  1  0  0  0  0
 10 13  2  0  0  0  0
 11 15  2  0  0  0  0
 12  9  1  0  0  0  0
 13  5  1  0  0  0  0
 13 15  1  0  0  0  0
 14 10  1  0  0  0  0
 14  9  2  0  0  0  0
 16 10  1  0  0  0  0
 17 19  2  0  0  0  0
 17 18  1  0  0  0  0
 18 20  1  0  0  0  0
 20 21  1  0  0  0  0
 21 22  1  0  0  0  0
 22 24  2  0  0  0  0
 22 26  1  0  0  0  0
 23 27  1  0  0  0  0
 24 25  1  0  0  0  0
 25 27  2  0  0  0  0
 26 23  2  0  0  0  0
 28 29  1  0  0  0  0
 28 26  1  0  0  0  0
 29 33  1  0  0  0  0
 30 31  1  0  0  0  0
 32 30  2  0  0  0  0
 33 31  2  0  0  0  0
 34 32  1  0  0  0  0
 34 29  2  0  0  0  0
 36 42  1  6  0  0  0
 36 37  1  0  0  0  0
 36 40  1  0  0  0  0
 37 43  1  0  0  0  0
 38 37  2  0  0  0  0
 40 41  1  0  0  0  0
 41 39  1  0  0  0  0
 41 35  1  6  0  0  0
 43 39  1  0  0  0  0
M  END
>  <MODEL>
8

>  <REMARK>
 VINA RESULT:      -7.4      2.003      2.845
  Name = 
  9 active torsions:
  status: ('A' for Active; 'I' for Inactive)
    1  A    between atoms: C_1  and  C_34
    2  A    between atoms: C_1  and  C_35
    3  A    between atoms: C_2  and  C_13
    4  A    between atoms: C_3  and  C_4
    5  A    between atoms: C_3  and  C_12
    6  A    between atoms: N_6  and  C_12
    7  A    between atoms: C_11  and  C_14
    8  A    between atoms: C_14  and  C_41
    9  A    between atoms: C_21  and  C_30
                            x       y       z     vdW  Elec       q    Type
                         _______ _______ _______ _____ _____    ______ ____

>  <TORSDO>
F 9

$$$$
=
 OpenBabel10262422453D

 43 47  0  0  1  0  0  0  0  0999 V2000
  189.2120  177.2730  141.9880 N   0  0  0  0  0  0  0  0  0  0  0  0
  189.1510  178.2460  139.8240 C   0  0  2  0  0  3  0  0  0  0  0  0
  191.2140  177.6890  140.8720 O   0  0  0  0  0  1  0  0  0  0  0  0
  189.8960  177.2580  140.7070 C   0  0  1  0  0  3  0  0  0  0  0  0
  189.6260  176.4390  143.0860 C   0  0  0  0  0  0  0  0  0  0  0  0
  190.2800  175.3890  142.8480 O   0  0  0  0  0  0  0  0  0  0  0  0
  188.1070  178.2210  142.0330 C   0  0  1  0  0  3  0  0  0  0  0  0
  188.2320  179.0330  140.7580 C   0  0  0  0  0  2  0  0  0  0  0  0
  188.7050  177.4790  147.1430 C   0  0  0  0  0  0  0  0  0  0  0  0
  190.3490  177.1660  145.3900 C   0  0  0  0  0  0  0  0  0  0  0  0
  187.6860  177.1270  146.2560 C   0  0  0  0  0  3  0  0  0  0  0  0
  188.3190  177.8810  148.8010 Cl  0  0  0  0  0  0  0  0  0  0  0  0
  189.3270  176.8010  144.4890 C   0  0  0  0  0  0  0  0  0  0  0  0
  190.0320  177.4990  146.7110 C   0  0  0  0  0  3  0  0  0  0  0  0
  187.9970  176.7910  144.9360 C   0  0  0  0  0  3  0  0  0  0  0  0
  191.6810  177.1820  144.9930 O   0  0  0  0  0  1  0  0  0  0  0  0
  188.3870  177.5060  138.7600 C   0  0  0  0  0  0  0  0  0  0  0  0
  187.2250  178.1110  138.1900 N   0  0  0  0  0  2  0  0  0  0  0  0
  188.7390  176.3500  138.3980 O   0  0  0  0  0  0  0  0  0  0  0  0
  186.4620  177.4810  137.1280 C   0  0  0  0  0  2  0  0  0  0  0  0
  185.0540  177.2110  137.6210 C   0  0  0  0  0  2  0  0  0  0  0  0
  184.6580  175.7980  137.3340 C   0  0  0  0  0  0  0  0  0  0  0  0
  183.1000  173.9400  137.4770 C   0  0  0  0  0  3  0  0  0  0  0  0
  185.5560  174.9780  136.6420 C   0  0  0  0  0  3  0  0  0  0  0  0
  185.2300  173.6470  136.3690 C   0  0  0  0  0  3  0  0  0  0  0  0
  183.4140  175.2790  137.7470 C   0  0  0  0  0  0  0  0  0  0  0  0
  184.0050  173.1270  136.7900 C   0  0  0  0  0  3  0  0  0  0  0  0
  182.4150  176.1330  138.4690 C   0  0  0  0  0  2  0  0  0  0  0  0
  181.5600  176.8880  137.5060 C   0  0  0  0  0  0  0  0  0  0  0  0
  179.9240  178.2820  135.7510 C   0  0  0  0  0  3  0  0  0  0  0  0
  179.8710  176.8890  135.8350 C   0  0  0  0  0  3  0  0  0  0  0  0
  180.8150  178.9800  136.5660 C   0  0  0  0  0  3  0  0  0  0  0  0
  180.6820  176.2260  136.7030 N   0  0  0  0  0  0  0  0  0  0  0  0
  181.6390  178.2820  137.4510 C   0  0  0  0  0  3  0  0  0  0  0  0
  186.7670  177.4890  142.0060 C   0  0  0  0  0  2  0  0  0  0  0  0
  183.2270  179.0150  141.9190 C   0  0  1  0  0  3  0  0  0  0  0  0
  183.0310  179.1140  143.4130 C   0  0  0  0  0  0  0  0  0  0  0  0
  181.9150  179.1990  143.9030 O   0  0  0  0  0  0  0  0  0  0  0  0
  185.3200  178.2610  143.8780 C   0  0  0  0  0  2  0  0  0  0  0  0
  184.3640  178.0510  141.5880 C   0  0  0  0  0  2  0  0  0  0  0  0
  185.6170  178.4030  142.3890 C   0  0  2  0  0  3  0  0  0  0  0  0
  181.9650  178.5630  141.2010 C   0  0  0  0  0  1  0  0  0  0  0  0
  184.2350  179.2490  144.2990 C   0  0  0  0  0  2  0  0  0  0  0  0
  1  7  1  0  0  0  0
  1  5  1  0  0  0  0
  2 17  1  6  0  0  0
  2  4  1  0  0  0  0
  2  8  1  0  0  0  0
  4  3  1  1  0  0  0
  4  1  1  0  0  0  0
  5 13  1  0  0  0  0
  6  5  2  0  0  0  0
  7 35  1  6  0  0  0
  8  7  1  0  0  0  0
  9 12  1  0  0  0  0
 10 14  2  0  0  0  0
 11  9  2  0  0  0  0
 13 15  2  0  0  0  0
 13 10  1  0  0  0  0
 14  9  1  0  0  0  0
 15 11  1  0  0  0  0
 16 10  1  0  0  0  0
 18 17  1  0  0  0  0
 19 17  2  0  0  0  0
 20 21  1  0  0  0  0
 20 18  1  0  0  0  0
 22 21  1  0  0  0  0
 22 26  1  0  0  0  0
 23 26  2  0  0  0  0
 24 22  2  0  0  0  0
 25 24  1  0  0  0  0
 25 27  2  0  0  0  0
 26 28  1  0  0  0  0
 27 23  1  0  0  0  0
 29 28  1  0  0  0  0
 30 31  2  0  0  0  0
 30 32  1  0  0  0  0
 31 33  1  0  0  0  0
 32 34  2  0  0  0  0
 33 29  2  0  0  0  0
 34 29  1  0  0  0  0
 36 42  1  6  0  0  0
 36 37  1  0  0  0  0
 37 38  2  0  0  0  0
 37 43  1  0  0  0  0
 39 43  1  0  0  0  0
 40 36  1  0  0  0  0
 40 41  1  0  0  0  0
 41 35  1  6  0  0  0
 41 39  1  0  0  0  0
M  END
>  <MODEL>
9

>  <REMARK>
 VINA RESULT:      -7.4      4.048      9.163
  Name = 
  9 active torsions:
  status: ('A' for Active; 'I' for Inactive)
    1  A    between atoms: C_1  and  C_34
    2  A    between atoms: C_1  and  C_35
    3  A    between atoms: C_2  and  C_13
    4  A    between atoms: C_3  and  C_4
    5  A    between atoms: C_3  and  C_12
    6  A    between atoms: N_6  and  C_12
    7  A    between atoms: C_11  and  C_14
    8  A    between atoms: C_14  and  C_41
    9  A    between atoms: C_21  and  C_30
                            x       y       z     vdW  Elec       q    Type
                         _______ _______ _______ _____ _____    ______ ____

>  <TORSDO>
F 9

$$$$
