=
 OpenBabel10262420093D

 27 31  0  0  1  0  0  0  0  0999 V2000
  188.1060  176.9680  143.6920 C   0  0  0  0  0  3  0  0  0  0  0  0
  185.9930  178.1510  144.2940 C   0  0  0  0  0  0  0  0  0  0  0  0
  186.3190  178.6680  141.8900 C   0  0  0  0  0  3  0  0  0  0  0  0
  181.9130  179.2310  143.2510 C   0  0  0  0  0  2  0  0  0  0  0  0
  180.9870  178.6440  141.0740 O   0  0  0  0  0  0  0  0  0  0  0  0
  185.1150  178.8120  145.3010 C   0  0  0  0  0  3  0  0  0  0  0  0
  183.2570  178.1920  141.5400 N   0  0  0  0  0  0  0  0  0  0  0  0
  189.5440  178.3200  138.6180 O   0  0  0  0  0  0  0  0  0  0  0  0
  183.5990  177.3640  140.3950 C   0  0  0  0  0  1  0  0  0  0  0  0
  189.1970  178.0540  139.7970 C   0  0  0  0  0  0  0  0  0  0  0  0
  184.0290  178.3710  142.7160 C   0  0  0  0  0  0  0  0  0  0  0  0
  187.2050  177.6560  144.6520 C   0  0  0  0  0  0  0  0  0  0  0  0
  181.9670  178.6850  141.8640 C   0  0  0  0  0  0  0  0  0  0  0  0
  183.3190  178.9460  143.6820 C   0  0  0  0  0  0  0  0  0  0  0  0
  188.2760  177.2340  142.3900 C   0  0  0  0  0  0  0  0  0  0  0  0
  185.4670  177.9480  142.8800 C   0  0  2  0  0  3  0  0  0  0  0  0
  188.3080  179.0130  140.5390 C   0  0  0  0  0  2  0  0  0  0  0  0
  183.8680  179.1900  145.0170 C   0  0  0  0  0  3  0  0  0  0  0  0
  189.7230  176.8440  140.4530 C   0  0  0  0  0  3  0  0  0  0  0  0
  189.3110  176.4760  141.6680 C   0  0  0  0  0  3  0  0  0  0  0  0
  187.5860  178.3290  141.6590 C   0  0  0  0  0  0  0  0  0  0  0  0
  188.6850  177.9160  148.6730 C   0  0  0  0  0  3  0  0  0  0  0  0
  187.6990  177.7210  146.0500 C   0  0  0  0  0  0  0  0  0  0  0  0
  186.8760  178.1890  147.0880 C   0  0  0  0  0  3  0  0  0  0  0  0
  187.3660  178.2810  148.3940 C   0  0  0  0  0  3  0  0  0  0  0  0
  189.5170  177.4640  147.6440 C   0  0  0  0  0  3  0  0  0  0  0  0
  189.0270  177.3720  146.3390 C   0  0  0  0  0  3  0  0  0  0  0  0
  1 12  1  0  0  0  0
  2 12  2  0  0  0  0
  2  6  1  0  0  0  0
  4 14  1  0  0  0  0
  5 13  2  0  0  0  0
  7 13  1  0  0  0  0
  7 11  1  0  0  0  0
  8 10  2  0  0  0  0
  9  7  1  0  0  0  0
 10 19  1  0  0  0  0
 10 17  1  0  0  0  0
 11 16  1  0  0  0  0
 11 14  2  0  0  0  0
 12 23  1  0  0  0  0
 13  4  1  0  0  0  0
 14 18  1  0  0  0  0
 15  1  2  0  0  0  0
 16  3  1  6  0  0  0
 16  2  1  0  0  0  0
 17 21  1  0  0  0  0
 18  6  2  0  0  0  0
 19 20  2  0  0  0  0
 20 15  1  0  0  0  0
 21  3  2  0  0  0  0
 21 15  1  0  0  0  0
 23 27  2  0  0  0  0
 23 24  1  0  0  0  0
 24 25  2  0  0  0  0
 25 22  1  0  0  0  0
 26 22  2  0  0  0  0
 27 26  1  0  0  0  0
M  END
>  <MODEL>
1

>  <REMARK>
 VINA RESULT:     -11.6      0.000      0.000
  Name = 
  1 active torsions:
  status: ('A' for Active; 'I' for Inactive)
    1  A    between atoms: C_9  and  C_15
                            x       y       z     vdW  Elec       q    Type
                         _______ _______ _______ _____ _____    ______ ____

>  <TORSDO>
F 1

$$$$
=
 OpenBabel10262420093D

 27 31  0  0  1  0  0  0  0  0999 V2000
  189.0960  176.6810  142.7460 C   0  0  0  0  0  3  0  0  0  0  0  0
  187.3590  177.7630  144.1750 C   0  0  0  0  0  0  0  0  0  0  0  0
  186.9820  178.7260  141.9200 C   0  0  0  0  0  3  0  0  0  0  0  0
  183.2490  179.0930  144.6590 C   0  0  0  0  0  2  0  0  0  0  0  0
  181.6670  178.9500  142.8100 O   0  0  0  0  0  0  0  0  0  0  0  0
  186.8790  178.2350  145.5040 C   0  0  0  0  0  3  0  0  0  0  0  0
  183.9310  178.3780  142.4600 N   0  0  0  0  0  0  0  0  0  0  0  0
  189.0330  178.9550  137.8000 O   0  0  0  0  0  0  0  0  0  0  0  0
  183.8480  177.7790  141.1380 C   0  0  0  0  0  1  0  0  0  0  0  0
  189.0390  178.4750  138.9620 C   0  0  0  0  0  0  0  0  0  0  0  0
  185.0340  178.3160  143.3500 C   0  0  0  0  0  0  0  0  0  0  0  0
  188.5820  177.1890  144.0450 C   0  0  0  0  0  0  0  0  0  0  0  0
  182.8400  178.8220  143.2510 C   0  0  0  0  0  0  0  0  0  0  0  0
  184.6940  178.7070  144.5750 C   0  0  0  0  0  0  0  0  0  0  0  0
  188.8850  177.1890  141.5240 C   0  0  0  0  0  0  0  0  0  0  0  0
  186.4170  177.8450  142.9820 C   0  0  2  0  0  3  0  0  0  0  0  0
  188.4910  179.2890  140.1010 C   0  0  0  0  0  2  0  0  0  0  0  0
  185.6370  178.6810  145.6940 C   0  0  0  0  0  3  0  0  0  0  0  0
  189.6460  177.1520  139.1980 C   0  0  0  0  0  3  0  0  0  0  0  0
  189.5930  176.5660  140.3950 C   0  0  0  0  0  3  0  0  0  0  0  0
  188.0910  178.4150  141.2510 C   0  0  0  0  0  0  0  0  0  0  0  0
  191.2130  176.6550  147.3940 C   0  0  0  0  0  3  0  0  0  0  0  0
  189.4780  176.9760  145.2080 C   0  0  0  0  0  0  0  0  0  0  0  0
  188.9920  177.0680  146.5240 C   0  0  0  0  0  3  0  0  0  0  0  0
  189.8550  176.9030  147.6110 C   0  0  0  0  0  3  0  0  0  0  0  0
  191.7090  176.5770  146.0900 C   0  0  0  0  0  3  0  0  0  0  0  0
  190.8460  176.7420  145.0030 C   0  0  0  0  0  3  0  0  0  0  0  0
  1 12  1  0  0  0  0
  2  6  1  0  0  0  0
  5 13  2  0  0  0  0
  6 18  2  0  0  0  0
  7 13  1  0  0  0  0
  7 11  1  0  0  0  0
  8 10  2  0  0  0  0
  9  7  1  0  0  0  0
 10 19  1  0  0  0  0
 10 17  1  0  0  0  0
 11 14  2  0  0  0  0
 12  2  2  0  0  0  0
 12 23  1  0  0  0  0
 13  4  1  0  0  0  0
 14  4  1  0  0  0  0
 14 18  1  0  0  0  0
 15  1  2  0  0  0  0
 16  3  1  6  0  0  0
 16 11  1  0  0  0  0
 16  2  1  0  0  0  0
 17 21  1  0  0  0  0
 19 20  2  0  0  0  0
 20 15  1  0  0  0  0
 21 15  1  0  0  0  0
 21  3  2  0  0  0  0
 22 25  1  0  0  0  0
 23 24  1  0  0  0  0
 24 25  2  0  0  0  0
 26 22  2  0  0  0  0
 27 23  2  0  0  0  0
 27 26  1  0  0  0  0
M  END
>  <MODEL>
2

>  <REMARK>
 VINA RESULT:     -11.1      1.170      1.735
  Name = 
  1 active torsions:
  status: ('A' for Active; 'I' for Inactive)
    1  A    between atoms: C_9  and  C_15
                            x       y       z     vdW  Elec       q    Type
                         _______ _______ _______ _____ _____    ______ ____

>  <TORSDO>
F 1

$$$$
=
 OpenBabel10262420093D

 27 31  0  0  1  0  0  0  0  0999 V2000
  187.1010  178.8270  141.5360 C   0  0  0  0  0  3  0  0  0  0  0  0
  187.1120  177.8950  143.8510 C   0  0  0  0  0  0  0  0  0  0  0  0
  189.1280  176.9150  142.7870 C   0  0  0  0  0  3  0  0  0  0  0  0
  189.3560  176.8580  147.4270 C   0  0  0  0  0  2  0  0  0  0  0  0
  191.7840  177.0710  147.4790 O   0  0  0  0  0  0  0  0  0  0  0  0
  186.3940  177.4850  145.0900 C   0  0  0  0  0  3  0  0  0  0  0  0
  190.6170  177.4800  145.4680 N   0  0  0  0  0  0  0  0  0  0  0  0
  191.0460  176.4630  138.6230 O   0  0  0  0  0  0  0  0  0  0  0  0
  191.6810  178.0570  144.6620 C   0  0  0  0  0  1  0  0  0  0  0  0
  190.1260  176.9660  139.3170 C   0  0  0  0  0  0  0  0  0  0  0  0
  189.2300  177.4860  145.1700 C   0  0  0  0  0  0  0  0  0  0  0  0
  186.4290  178.3830  142.7840 C   0  0  0  0  0  0  0  0  0  0  0  0
  190.7010  177.1280  146.8400 C   0  0  0  0  0  0  0  0  0  0  0  0
  188.5030  177.1430  146.2290 C   0  0  0  0  0  0  0  0  0  0  0  0
  188.1970  178.3110  140.9640 C   0  0  0  0  0  0  0  0  0  0  0  0
  188.6330  177.8540  143.8360 C   0  0  2  0  0  3  0  0  0  0  0  0
  189.6080  176.2140  140.5120 C   0  0  0  0  0  2  0  0  0  0  0  0
  187.0390  177.1280  146.2000 C   0  0  0  0  0  3  0  0  0  0  0  0
  189.5260  178.2480  138.9090 C   0  0  0  0  0  3  0  0  0  0  0  0
  188.6130  178.8620  139.6640 C   0  0  0  0  0  3  0  0  0  0  0  0
  188.9420  177.1360  141.4870 C   0  0  0  0  0  0  0  0  0  0  0  0
  182.1790  178.9800  142.8490 C   0  0  0  0  0  3  0  0  0  0  0  0
  184.9560  178.5580  142.8080 C   0  0  0  0  0  0  0  0  0  0  0  0
  184.1710  178.2530  141.6830 C   0  0  0  0  0  3  0  0  0  0  0  0
  182.7890  178.4590  141.7060 C   0  0  0  0  0  3  0  0  0  0  0  0
  182.9520  179.3010  143.9690 C   0  0  0  0  0  3  0  0  0  0  0  0
  184.3340  179.0960  143.9460 C   0  0  0  0  0  3  0  0  0  0  0  0
  1 12  1  0  0  0  0
  2  6  1  0  0  0  0
  6 18  2  0  0  0  0
  7 13  1  0  0  0  0
  8 10  2  0  0  0  0
  9  7  1  0  0  0  0
 10 17  1  0  0  0  0
 11  7  1  0  0  0  0
 11 14  2  0  0  0  0
 12 23  1  0  0  0  0
 12  2  2  0  0  0  0
 13  4  1  0  0  0  0
 13  5  2  0  0  0  0
 14  4  1  0  0  0  0
 15 21  1  0  0  0  0
 15  1  2  0  0  0  0
 16  3  1  6  0  0  0
 16  2  1  0  0  0  0
 16 11  1  0  0  0  0
 17 21  1  0  0  0  0
 18 14  1  0  0  0  0
 19 10  1  0  0  0  0
 19 20  2  0  0  0  0
 20 15  1  0  0  0  0
 21  3  2  0  0  0  0
 22 26  1  0  0  0  0
 23 27  1  0  0  0  0
 24 25  1  0  0  0  0
 24 23  2  0  0  0  0
 25 22  2  0  0  0  0
 27 26  2  0  0  0  0
M  END
>  <MODEL>
3

>  <REMARK>
 VINA RESULT:     -10.8      2.843      5.936
  Name = 
  1 active torsions:
  status: ('A' for Active; 'I' for Inactive)
    1  A    between atoms: C_9  and  C_15
                            x       y       z     vdW  Elec       q    Type
                         _______ _______ _______ _____ _____    ______ ____

>  <TORSDO>
F 1

$$$$
=
 OpenBabel10262420093D

 27 31  0  0  1  0  0  0  0  0999 V2000
  187.2120  177.3300  143.8210 C   0  0  0  0  0  3  0  0  0  0  0  0
  186.7350  178.1120  141.5000 C   0  0  0  0  0  0  0  0  0  0  0  0
  189.1880  178.3880  141.7460 C   0  0  0  0  0  3  0  0  0  0  0  0
  187.8560  178.1830  137.3000 C   0  0  0  0  0  2  0  0  0  0  0  0
  189.9340  177.1550  136.5480 O   0  0  0  0  0  0  0  0  0  0  0  0
  185.8080  178.6950  140.4890 C   0  0  0  0  0  3  0  0  0  0  0  0
  189.4420  177.2450  138.8550 N   0  0  0  0  0  0  0  0  0  0  0  0
  192.4300  178.3200  145.0190 O   0  0  0  0  0  0  0  0  0  0  0  0
  190.4810  176.3730  139.3780 C   0  0  0  0  0  1  0  0  0  0  0  0
  191.2230  178.1350  144.7180 C   0  0  0  0  0  0  0  0  0  0  0  0
  188.3060  177.7240  139.5560 C   0  0  1  0  0  3  0  0  0  0  0  0
  186.3340  177.9290  142.7830 C   0  0  0  0  0  0  0  0  0  0  0  0
  189.1660  177.4950  137.4860 C   0  0  0  0  0  0  0  0  0  0  0  0
  187.4100  178.2530  138.7280 C   0  0  0  0  0  0  0  0  0  0  0  0
  188.5390  177.4640  143.9510 C   0  0  0  0  0  0  0  0  0  0  0  0
  188.1070  177.6330  141.0480 C   0  0  0  0  0  0  0  0  0  0  0  0
  190.5940  178.9710  143.6390 C   0  0  0  0  0  2  0  0  0  0  0  0
  186.1210  178.7670  139.1960 C   0  0  0  0  0  3  0  0  0  0  0  0
  190.4300  177.1500  145.4750 C   0  0  0  0  0  3  0  0  0  0  0  0
  189.1740  176.8560  145.1310 C   0  0  0  0  0  3  0  0  0  0  0  0
  189.3900  178.2940  143.0590 C   0  0  0  0  0  0  0  0  0  0  0  0
  182.3850  178.9900  144.0900 C   0  0  0  0  0  3  0  0  0  0  0  0
  184.9600  178.2650  143.2320 C   0  0  0  0  0  0  0  0  0  0  0  0
  183.8830  178.2720  142.3300 C   0  0  0  0  0  3  0  0  0  0  0  0
  182.6010  178.6280  142.7580 C   0  0  0  0  0  3  0  0  0  0  0  0
  183.4520  179.0030  144.9930 C   0  0  0  0  0  3  0  0  0  0  0  0
  184.7340  178.6470  144.5640 C   0  0  0  0  0  3  0  0  0  0  0  0
  1 15  1  0  0  0  0
  2 12  1  0  0  0  0
  3 21  1  0  0  0  0
  4 13  1  0  0  0  0
  4 14  1  0  0  0  0
  5 13  2  0  0  0  0
  6  2  2  0  0  0  0
  7  9  1  0  0  0  0
  7 11  1  0  0  0  0
 10  8  2  0  0  0  0
 10 19  1  0  0  0  0
 11 14  1  6  0  0  0
 11 16  1  0  0  0  0
 12 23  1  0  0  0  0
 12  1  2  0  0  0  0
 13  7  1  0  0  0  0
 14 18  2  0  0  0  0
 15 20  1  0  0  0  0
 16  2  1  0  0  0  0
 16  3  2  0  0  0  0
 17 10  1  0  0  0  0
 18  6  1  0  0  0  0
 20 19  2  0  0  0  0
 21 17  1  0  0  0  0
 21 15  2  0  0  0  0
 22 26  1  0  0  0  0
 23 27  1  0  0  0  0
 24 25  1  0  0  0  0
 24 23  2  0  0  0  0
 25 22  2  0  0  0  0
 27 26  2  0  0  0  0
M  END
>  <MODEL>
4

>  <REMARK>
 VINA RESULT:      -9.3      2.926      5.708
  Name = 
  1 active torsions:
  status: ('A' for Active; 'I' for Inactive)
    1  A    between atoms: C_9  and  C_15
                            x       y       z     vdW  Elec       q    Type
                         _______ _______ _______ _____ _____    ______ ____

>  <TORSDO>
F 1

$$$$
=
 OpenBabel10262420093D

 27 31  0  0  1  0  0  0  0  0999 V2000
  186.2230  177.2660  145.0380 C   0  0  0  0  0  3  0  0  0  0  0  0
  186.9030  178.0060  142.7530 C   0  0  0  0  0  0  0  0  0  0  0  0
  188.9910  178.1410  144.0860 C   0  0  0  0  0  3  0  0  0  0  0  0
  189.8060  177.8850  139.5200 C   0  0  0  0  0  2  0  0  0  0  0  0
  191.9260  176.7120  139.7930 O   0  0  0  0  0  0  0  0  0  0  0  0
  186.5750  178.6130  141.4330 C   0  0  0  0  0  3  0  0  0  0  0  0
  190.4490  176.9000  141.6250 N   0  0  0  0  0  0  0  0  0  0  0  0
  190.3850  177.9760  148.4740 O   0  0  0  0  0  0  0  0  0  0  0  0
  191.0770  175.9830  142.5620 C   0  0  0  0  0  1  0  0  0  0  0  0
  189.4360  177.8550  147.6580 C   0  0  0  0  0  0  0  0  0  0  0  0
  189.1530  177.4670  141.7340 C   0  0  1  0  0  3  0  0  0  0  0  0
  185.9520  177.8850  143.7140 C   0  0  0  0  0  0  0  0  0  0  0  0
  190.8410  177.1250  140.2800 C   0  0  0  0  0  0  0  0  0  0  0  0
  188.7670  178.0240  140.5900 C   0  0  0  0  0  0  0  0  0  0  0  0
  187.3520  177.3240  145.7560 C   0  0  0  0  0  0  0  0  0  0  0  0
  188.2950  177.4330  142.9730 C   0  0  0  0  0  0  0  0  0  0  0  0
  189.4220  178.6950  146.4120 C   0  0  0  0  0  2  0  0  0  0  0  0
  187.4440  178.6280  140.4220 C   0  0  0  0  0  3  0  0  0  0  0  0
  188.3220  176.9430  147.9720 C   0  0  0  0  0  3  0  0  0  0  0  0
  187.3420  176.7140  147.0950 C   0  0  0  0  0  3  0  0  0  0  0  0
  188.5690  178.0740  145.3480 C   0  0  0  0  0  0  0  0  0  0  0  0
  181.8730  179.0460  143.0550 C   0  0  0  0  0  3  0  0  0  0  0  0
  184.5500  178.3170  143.4910 C   0  0  0  0  0  0  0  0  0  0  0  0
  183.7380  178.7240  144.5630 C   0  0  0  0  0  3  0  0  0  0  0  0
  182.4070  179.0920  144.3440 C   0  0  0  0  0  3  0  0  0  0  0  0
  182.6670  178.6280  141.9830 C   0  0  0  0  0  3  0  0  0  0  0  0
  183.9980  178.2600  142.2020 C   0  0  0  0  0  3  0  0  0  0  0  0
  1 15  1  0  0  0  0
  2 16  1  0  0  0  0
  2 12  1  0  0  0  0
  3 21  1  0  0  0  0
  4 13  1  0  0  0  0
  4 14  1  0  0  0  0
  5 13  2  0  0  0  0
  6  2  2  0  0  0  0
  7 11  1  0  0  0  0
  7  9  1  0  0  0  0
 10 19  1  0  0  0  0
 10  8  2  0  0  0  0
 11 14  1  6  0  0  0
 11 16  1  0  0  0  0
 12  1  2  0  0  0  0
 13  7  1  0  0  0  0
 15 20  1  0  0  0  0
 16  3  2  0  0  0  0
 17 10  1  0  0  0  0
 18 14  2  0  0  0  0
 18  6  1  0  0  0  0
 20 19  2  0  0  0  0
 21 15  2  0  0  0  0
 21 17  1  0  0  0  0
 22 25  1  0  0  0  0
 23 12  1  0  0  0  0
 23 24  1  0  0  0  0
 25 24  2  0  0  0  0
 26 27  1  0  0  0  0
 26 22  2  0  0  0  0
 27 23  2  0  0  0  0
M  END
>  <MODEL>
5

>  <REMARK>
 VINA RESULT:      -9.2      2.822      6.515
  Name = 
  1 active torsions:
  status: ('A' for Active; 'I' for Inactive)
    1  A    between atoms: C_9  and  C_15
                            x       y       z     vdW  Elec       q    Type
                         _______ _______ _______ _____ _____    ______ ____

>  <TORSDO>
F 1

$$$$
=
 OpenBabel10262420093D

 27 31  0  0  1  0  0  0  0  0999 V2000
  188.9090  178.6400  141.3360 C   0  0  0  0  0  3  0  0  0  0  0  0
  186.5740  178.2720  140.5350 C   0  0  1  0  0  3  0  0  0  0  0  0
  186.5030  177.6470  142.9340 C   0  0  0  0  0  3  0  0  0  0  0  0
  182.3020  178.6650  141.2340 C   0  0  0  0  0  2  0  0  0  0  0  0
  181.4610  179.5130  143.3590 O   0  0  0  0  0  0  0  0  0  0  0  0
  185.6080  177.9680  139.4420 C   0  0  0  0  0  3  0  0  0  0  0  0
  183.7770  179.1530  143.0780 N   0  0  0  0  0  0  0  0  0  0  0  0
  189.3690  176.8150  146.4450 O   0  0  0  0  0  0  0  0  0  0  0  0
  184.2890  179.7980  144.2770 C   0  0  0  0  0  1  0  0  0  0  0  0
  189.2340  177.1980  145.2540 C   0  0  0  0  0  0  0  0  0  0  0  0
  184.5330  178.7300  141.9550 C   0  0  0  0  0  0  0  0  0  0  0  0
  187.9080  178.3180  140.2860 C   0  0  0  0  0  0  0  0  0  0  0  0
  182.4270  179.1430  142.6420 C   0  0  0  0  0  0  0  0  0  0  0  0
  183.7500  178.4480  140.9190 C   0  0  0  0  0  0  0  0  0  0  0  0
  188.8700  178.3170  142.6350 C   0  0  0  0  0  0  0  0  0  0  0  0
  186.0370  178.6280  141.9130 C   0  0  0  0  0  0  0  0  0  0  0  0
  188.1330  176.6160  144.4120 C   0  0  0  0  0  2  0  0  0  0  0  0
  184.2890  178.0440  139.6190 C   0  0  0  0  0  3  0  0  0  0  0  0
  190.1980  178.1570  144.6860 C   0  0  0  0  0  3  0  0  0  0  0  0
  190.0390  178.6600  143.4600 C   0  0  0  0  0  3  0  0  0  0  0  0
  187.7860  177.5220  143.2700 C   0  0  0  0  0  0  0  0  0  0  0  0
  189.4310  177.6530  136.3290 C   0  0  0  0  0  3  0  0  0  0  0  0
  188.4620  178.1020  138.9270 C   0  0  0  0  0  0  0  0  0  0  0  0
  188.6240  179.1730  138.0310 C   0  0  0  0  0  3  0  0  0  0  0  0
  189.1110  178.9490  136.7400 C   0  0  0  0  0  3  0  0  0  0  0  0
  189.2590  176.5790  137.2060 C   0  0  0  0  0  3  0  0  0  0  0  0
  188.7720  176.8020  138.4970 C   0  0  0  0  0  3  0  0  0  0  0  0
  1 15  1  0  0  0  0
  2  6  1  6  0  0  0
  2 16  1  0  0  0  0
  3 21  1  0  0  0  0
  4 13  1  0  0  0  0
  6 18  2  0  0  0  0
  7  9  1  0  0  0  0
 10  8  2  0  0  0  0
 11  7  1  0  0  0  0
 12  2  1  0  0  0  0
 12  1  2  0  0  0  0
 13  7  1  0  0  0  0
 13  5  2  0  0  0  0
 14  4  1  0  0  0  0
 14 11  2  0  0  0  0
 15 21  2  0  0  0  0
 15 20  1  0  0  0  0
 16 11  1  0  0  0  0
 16  3  2  0  0  0  0
 17 10  1  0  0  0  0
 18 14  1  0  0  0  0
 19 10  1  0  0  0  0
 20 19  2  0  0  0  0
 21 17  1  0  0  0  0
 22 25  2  0  0  0  0
 22 26  1  0  0  0  0
 23 12  1  0  0  0  0
 24 23  2  0  0  0  0
 25 24  1  0  0  0  0
 26 27  2  0  0  0  0
 27 23  1  0  0  0  0
M  END
>  <MODEL>
6

>  <REMARK>
 VINA RESULT:      -8.6      2.360      5.801
  Name = 
  1 active torsions:
  status: ('A' for Active; 'I' for Inactive)
    1  A    between atoms: C_9  and  C_15
                            x       y       z     vdW  Elec       q    Type
                         _______ _______ _______ _____ _____    ______ ____

>  <TORSDO>
F 1

$$$$
