=
 OpenBabel10262422593D

 37 38  0  0  1  0  0  0  0  0999 V2000
  181.4650  177.8320  140.5630 C   0  0  1  0  0  3  0  0  0  0  0  0
  184.9340  178.9120  138.9160 C   0  0  0  0  0  2  0  0  0  0  0  0
  182.9230  177.9780  140.5800 N   0  0  0  0  0  0  0  0  0  0  0  0
  184.1500  177.9800  141.2500 C   0  0  1  0  0  3  0  0  0  0  0  0
  184.2460  178.4120  139.9320 C   0  0  0  0  0  0  0  0  0  0  0  0
  184.1460  179.1330  142.2440 C   0  0  0  0  0  2  0  0  0  0  0  0
  183.5910  178.7310  143.6080 C   0  0  0  0  0  2  0  0  0  0  0  0
  184.5240  178.7520  145.9250 C   0  0  0  0  0  3  0  0  0  0  0  0
  184.7090  178.4940  144.5620 C   0  0  0  0  0  0  0  0  0  0  0  0
  185.9450  178.0130  144.1000 C   0  0  0  0  0  3  0  0  0  0  0  0
  188.2160  177.3250  144.5450 O   0  0  0  0  0  1  0  0  0  0  0  0
  186.8050  178.0700  146.3650 C   0  0  0  0  0  3  0  0  0  0  0  0
  186.9920  177.8030  145.0010 C   0  0  0  0  0  0  0  0  0  0  0  0
  185.5720  178.5410  146.8260 C   0  0  0  0  0  3  0  0  0  0  0  0
  180.7690  179.2160  140.5120 C   0  0  2  0  0  3  0  0  0  0  0  0
  181.1090  180.9240  138.8090 C   0  0  0  0  0  0  0  0  0  0  0  0
  180.6040  181.5560  137.7830 C   0  0  0  0  0  3  0  0  0  0  0  0
  181.6040  180.2760  139.8280 C   0  0  0  0  0  3  0  0  0  0  0  0
  180.5950  183.2960  136.0410 C   0  0  0  0  0  1  0  0  0  0  0  0
  181.1100  182.9100  137.4150 C   0  0  0  0  0  2  0  0  0  0  0  0
  180.2950  179.6200  141.8520 N   0  0  0  0  0  0  0  0  0  0  0  0
  179.3170  180.7160  141.8090 C   0  0  0  0  0  1  0  0  0  0  0  0
  179.9190  178.6450  144.1320 C   0  0  0  0  0  1  0  0  0  0  0  0
  179.7860  178.4720  142.6170 C   0  0  0  0  0  2  0  0  0  0  0  0
  180.9990  176.8570  139.4360 C   0  0  2  0  0  0  0  0  0  0  0  0
  179.3440  177.4770  137.5730 C   0  0  0  0  0  1  0  0  0  0  0  0
  180.7630  177.5960  138.1020 C   0  0  0  0  0  2  0  0  0  0  0  0
  179.6370  176.2600  139.8260 C   0  0  0  0  0  2  0  0  0  0  0  0
  178.9440  173.9450  139.3240 C   0  0  0  0  0  1  0  0  0  0  0  0
  179.6940  174.8150  140.3160 C   0  0  2  0  0  3  0  0  0  0  0  0
  179.3160  173.4490  142.0330 C   0  0  0  0  0  1  0  0  0  0  0  0
  179.0650  174.7380  141.5610 O   0  0  0  0  0  0  0  0  0  0  0  0
  182.0290  175.7160  139.2590 C   0  0  0  0  0  2  0  0  0  0  0  0
  182.5690  175.5820  137.8360 C   0  0  0  0  0  2  0  0  0  0  0  0
  183.7530  174.6370  137.8090 C   0  0  0  0  0  2  0  0  0  0  0  0
  183.6930  173.7480  136.5800 C   0  0  0  0  0  2  0  0  0  0  0  0
  182.9500  172.4660  136.8990 C   0  0  0  0  0  1  0  0  0  0  0  0
  1 15  1  6  0  0  0
  1  3  1  0  0  0  0
  2  5  2  0  0  0  0
  3  4  1  0  0  0  0
  4  6  1  1  0  0  0
  5  3  1  0  0  0  0
  5  4  1  0  0  0  0
  6  7  1  0  0  0  0
  7  9  1  0  0  0  0
  8 14  1  0  0  0  0
  9  8  2  0  0  0  0
 10  9  1  0  0  0  0
 10 13  2  0  0  0  0
 11 13  1  0  0  0  0
 12 14  2  0  0  0  0
 13 12  1  0  0  0  0
 15 18  1  1  0  0  0
 15 21  1  0  0  0  0
 16 18  2  0  0  0  0
 17 16  2  0  0  0  0
 19 20  1  0  0  0  0
 20 17  1  0  0  0  0
 21 24  1  0  0  0  0
 22 21  1  0  0  0  0
 24 23  1  0  0  0  0
 25 27  1  6  0  0  0
 25 28  1  0  0  0  0
 25  1  1  0  0  0  0
 26 27  1  0  0  0  0
 28 30  1  0  0  0  0
 30 29  1  6  0  0  0
 30 32  1  0  0  0  0
 32 31  1  0  0  0  0
 33 25  1  0  0  0  0
 34 33  1  0  0  0  0
 35 34  1  0  0  0  0
 36 37  1  0  0  0  0
 36 35  1  0  0  0  0
M  END
>  <MODEL>
1

>  <REMARK>
 VINA RESULT:      -5.8      0.000      0.000
  Name = 
  18 active torsions:
  status: ('A' for Active; 'I' for Inactive)
    1  A    between atoms: N_1  and  C_23
    2  A    between atoms: N_1  and  C_36
    3  A    between atoms: C_3  and  C_32
    4  A    between atoms: C_6  and  C_31
    5  A    between atoms: C_9  and  C_13
    6  A    between atoms: C_9  and  C_32
    7  A    between atoms: N_10  and  C_29
    8  A    between atoms: C_13  and  C_20
    9  A    between atoms: C_14  and  C_37
   10  A    between atoms: C_16  and  C_20
   11  A    between atoms: C_16  and  C_24
   12  A    between atoms: C_20  and  C_25
   13  A    between atoms: C_20  and  C_29
   14  A    between atoms: C_24  and  O_28
   15  A    between atoms: C_26  and  C_34
   16  A    between atoms: C_29  and  C_36
   17  A    between atoms: C_31  and  C_37
   18  A    between atoms: C_33  and  C_36
                            x       y       z     vdW  Elec       q    Type
                         _______ _______ _______ _____ _____    ______ ____

>  <TORSDO>
F 18

$$$$
=
 OpenBabel10262422593D

 37 38  0  0  1  0  0  0  0  0999 V2000
  185.8010  177.9140  137.6040 C   0  0  1  0  0  3  0  0  0  0  0  0
  182.6860  180.0740  138.8470 C   0  0  0  0  0  2  0  0  0  0  0  0
  185.0980  178.7300  138.5960 N   0  0  0  0  0  0  0  0  0  0  0  0
  184.9470  179.2260  139.8960 C   0  0  1  0  0  3  0  0  0  0  0  0
  183.8840  179.5480  139.0600 C   0  0  0  0  0  0  0  0  0  0  0  0
  184.6330  178.0540  140.8160 C   0  0  0  0  0  2  0  0  0  0  0  0
  183.9160  178.4850  142.0930 C   0  0  0  0  0  2  0  0  0  0  0  0
  186.0940  177.7730  143.0870 C   0  0  0  0  0  3  0  0  0  0  0  0
  184.8270  178.3430  143.2610 C   0  0  0  0  0  0  0  0  0  0  0  0
  184.4210  178.7770  144.5330 C   0  0  0  0  0  3  0  0  0  0  0  0
  184.8800  179.0620  146.8860 O   0  0  0  0  0  1  0  0  0  0  0  0
  186.5450  178.0530  145.4490 C   0  0  0  0  0  3  0  0  0  0  0  0
  185.2800  178.6300  145.6260 C   0  0  0  0  0  0  0  0  0  0  0  0
  186.9520  177.6280  144.1800 C   0  0  0  0  0  3  0  0  0  0  0  0
  187.2070  177.5090  138.1130 C   0  0  2  0  0  3  0  0  0  0  0  0
  188.3770  177.7330  140.2370 C   0  0  0  0  0  0  0  0  0  0  0  0
  189.0860  177.1380  141.1590 C   0  0  0  0  0  3  0  0  0  0  0  0
  187.6580  178.3110  139.3140 C   0  0  0  0  0  3  0  0  0  0  0  0
  190.6870  177.0180  143.0260 C   0  0  0  0  0  1  0  0  0  0  0  0
  189.9800  177.9370  142.0470 C   0  0  0  0  0  2  0  0  0  0  0  0
  188.1900  177.5070  137.0090 N   0  0  0  0  0  0  0  0  0  0  0  0
  188.9400  178.7680  136.9070 C   0  0  0  0  0  1  0  0  0  0  0  0
  190.5540  176.7310  137.3190 C   0  0  0  0  0  1  0  0  0  0  0  0
  189.0910  176.3480  137.0860 C   0  0  0  0  0  2  0  0  0  0  0  0
  184.9320  176.7030  137.1380 C   0  0  2  0  0  0  0  0  0  0  0  0
  183.3530  177.3350  135.2150 C   0  0  0  0  0  1  0  0  0  0  0  0
  184.6870  176.7280  135.6150 C   0  0  0  0  0  2  0  0  0  0  0  0
  183.5410  176.8110  137.7850 C   0  0  0  0  0  2  0  0  0  0  0  0
  181.9780  174.9080  137.6220 C   0  0  0  0  0  1  0  0  0  0  0  0
  183.0620  175.5380  138.4770 C   0  0  2  0  0  3  0  0  0  0  0  0
  181.3860  176.6370  139.4480 C   0  0  0  0  0  1  0  0  0  0  0  0
  182.5250  175.8780  139.7210 O   0  0  0  0  0  0  0  0  0  0  0  0
  185.5960  175.3730  137.5680 C   0  0  0  0  0  2  0  0  0  0  0  0
  185.7500  174.3610  136.4330 C   0  0  0  0  0  2  0  0  0  0  0  0
  185.9440  172.9670  136.9950 C   0  0  0  0  0  2  0  0  0  0  0  0
  187.4220  172.6280  137.0690 C   0  0  0  0  0  2  0  0  0  0  0  0
  187.7660  171.5700  136.0390 C   0  0  0  0  0  1  0  0  0  0  0  0
  1 15  1  1  0  0  0
  1  3  1  0  0  0  0
  2  5  2  0  0  0  0
  3  5  1  0  0  0  0
  3  4  1  0  0  0  0
  4  6  1  1  0  0  0
  5  4  1  0  0  0  0
  6  7  1  0  0  0  0
  7  9  1  0  0  0  0
  8  9  2  0  0  0  0
  8 14  1  0  0  0  0
  9 10  1  0  0  0  0
 10 13  2  0  0  0  0
 12 13  1  0  0  0  0
 13 11  1  0  0  0  0
 14 12  2  0  0  0  0
 15 18  1  1  0  0  0
 16 17  2  0  0  0  0
 17 20  1  0  0  0  0
 18 16  2  0  0  0  0
 20 19  1  0  0  0  0
 21 24  1  0  0  0  0
 21 15  1  0  0  0  0
 22 21  1  0  0  0  0
 24 23  1  0  0  0  0
 25 27  1  6  0  0  0
 25 33  1  0  0  0  0
 25  1  1  0  0  0  0
 25 28  1  0  0  0  0
 26 27  1  0  0  0  0
 28 30  1  0  0  0  0
 30 29  1  6  0  0  0
 30 32  1  0  0  0  0
 31 32  1  0  0  0  0
 34 35  1  0  0  0  0
 34 33  1  0  0  0  0
 35 36  1  0  0  0  0
 37 36  1  0  0  0  0
M  END
>  <MODEL>
2

>  <REMARK>
 VINA RESULT:      -5.5      3.096      6.159
  Name = 
  18 active torsions:
  status: ('A' for Active; 'I' for Inactive)
    1  A    between atoms: N_1  and  C_23
    2  A    between atoms: N_1  and  C_36
    3  A    between atoms: C_3  and  C_32
    4  A    between atoms: C_6  and  C_31
    5  A    between atoms: C_9  and  C_13
    6  A    between atoms: C_9  and  C_32
    7  A    between atoms: N_10  and  C_29
    8  A    between atoms: C_13  and  C_20
    9  A    between atoms: C_14  and  C_37
   10  A    between atoms: C_16  and  C_20
   11  A    between atoms: C_16  and  C_24
   12  A    between atoms: C_20  and  C_25
   13  A    between atoms: C_20  and  C_29
   14  A    between atoms: C_24  and  O_28
   15  A    between atoms: C_26  and  C_34
   16  A    between atoms: C_29  and  C_36
   17  A    between atoms: C_31  and  C_37
   18  A    between atoms: C_33  and  C_36
                            x       y       z     vdW  Elec       q    Type
                         _______ _______ _______ _____ _____    ______ ____

>  <TORSDO>
F 18

$$$$
=
 OpenBabel10262422593D

 37 38  0  0  1  0  0  0  0  0999 V2000
  181.0890  177.4590  139.8670 C   0  0  1  0  0  3  0  0  0  0  0  0
  184.4350  179.5640  139.3340 C   0  0  0  0  0  2  0  0  0  0  0  0
  182.4650  177.8220  140.2130 N   0  0  0  0  0  0  0  0  0  0  0  0
  183.5620  177.7980  141.0800 C   0  0  1  0  0  3  0  0  0  0  0  0
  183.7400  178.6520  139.9980 C   0  0  0  0  0  0  0  0  0  0  0  0
  183.1760  178.5410  142.3530 C   0  0  0  0  0  2  0  0  0  0  0  0
  184.2850  179.4600  142.8570 C   0  0  0  0  0  2  0  0  0  0  0  0
  184.6520  178.9200  145.2680 C   0  0  0  0  0  3  0  0  0  0  0  0
  185.0560  178.7820  143.9350 C   0  0  0  0  0  0  0  0  0  0  0  0
  186.1830  178.0060  143.6190 C   0  0  0  0  0  3  0  0  0  0  0  0
  188.0220  176.6110  144.3280 O   0  0  0  0  0  1  0  0  0  0  0  0
  186.5030  177.5290  145.9740 C   0  0  0  0  0  3  0  0  0  0  0  0
  186.9060  177.3820  144.6390 C   0  0  0  0  0  0  0  0  0  0  0  0
  185.3760  178.2950  146.2870 C   0  0  0  0  0  3  0  0  0  0  0  0
  180.1420  178.6770  140.0030 C   0  0  2  0  0  3  0  0  0  0  0  0
  180.7680  180.5680  138.6010 C   0  0  0  0  0  0  0  0  0  0  0  0
  180.6980  181.1180  137.4180 C   0  0  0  0  0  3  0  0  0  0  0  0
  180.8390  180.0000  139.7740 C   0  0  0  0  0  3  0  0  0  0  0  0
  179.7320  183.3230  137.9350 C   0  0  0  0  0  1  0  0  0  0  0  0
  180.8800  182.5910  137.2660 C   0  0  0  0  0  2  0  0  0  0  0  0
  179.3910  178.6250  141.2750 N   0  0  0  0  0  0  0  0  0  0  0  0
  179.5450  177.3440  141.9800 C   0  0  0  0  0  1  0  0  0  0  0  0
  179.6460  179.4270  143.6380 C   0  0  0  0  0  1  0  0  0  0  0  0
  179.7200  179.7630  142.1460 C   0  0  0  0  0  2  0  0  0  0  0  0
  181.0130  176.7610  138.4720 C   0  0  2  0  0  0  0  0  0  0  0  0
  179.6460  177.4510  136.4110 C   0  0  0  0  0  1  0  0  0  0  0  0
  179.6180  176.9140  137.8320 C   0  0  0  0  0  2  0  0  0  0  0  0
  181.2210  175.2490  138.6590 C   0  0  0  0  0  2  0  0  0  0  0  0
  179.7410  174.1470  140.2970 C   0  0  0  0  0  1  0  0  0  0  0  0
  179.9340  174.4460  138.8220 C   0  0  2  0  0  3  0  0  0  0  0  0
  181.1030  173.4420  137.2150 C   0  0  0  0  0  1  0  0  0  0  0  0
  180.0620  173.2440  138.1230 O   0  0  0  0  0  0  0  0  0  0  0  0
  182.1130  177.3180  137.5370 C   0  0  0  0  0  2  0  0  0  0  0  0
  183.1880  176.2970  137.1660 C   0  0  0  0  0  2  0  0  0  0  0  0
  184.0430  176.8230  136.0300 C   0  0  0  0  0  2  0  0  0  0  0  0
  185.5000  176.4610  136.2540 C   0  0  0  0  0  2  0  0  0  0  0  0
  186.2610  177.6610  136.7830 C   0  0  0  0  0  1  0  0  0  0  0  0
  1 15  1  6  0  0  0
  1  3  1  0  0  0  0
  2  5  2  0  0  0  0
  3  4  1  0  0  0  0
  4  6  1  1  0  0  0
  5  3  1  0  0  0  0
  5  4  1  0  0  0  0
  6  7  1  0  0  0  0
  7  9  1  0  0  0  0
  8 14  1  0  0  0  0
  9  8  2  0  0  0  0
 10  9  1  0  0  0  0
 10 13  2  0  0  0  0
 11 13  1  0  0  0  0
 12 14  2  0  0  0  0
 13 12  1  0  0  0  0
 15 18  1  1  0  0  0
 15 21  1  0  0  0  0
 16 18  2  0  0  0  0
 17 16  2  0  0  0  0
 20 17  1  0  0  0  0
 20 19  1  0  0  0  0
 21 22  1  0  0  0  0
 21 24  1  0  0  0  0
 24 23  1  0  0  0  0
 25 33  1  6  0  0  0
 25 28  1  0  0  0  0
 25  1  1  0  0  0  0
 26 27  1  0  0  0  0
 27 25  1  0  0  0  0
 28 30  1  0  0  0  0
 30 29  1  1  0  0  0
 31 32  1  0  0  0  0
 32 30  1  0  0  0  0
 34 33  1  0  0  0  0
 35 36  1  0  0  0  0
 35 34  1  0  0  0  0
 36 37  1  0  0  0  0
M  END
>  <MODEL>
3

>  <REMARK>
 VINA RESULT:      -5.3      1.384      2.014
  Name = 
  18 active torsions:
  status: ('A' for Active; 'I' for Inactive)
    1  A    between atoms: N_1  and  C_23
    2  A    between atoms: N_1  and  C_36
    3  A    between atoms: C_3  and  C_32
    4  A    between atoms: C_6  and  C_31
    5  A    between atoms: C_9  and  C_13
    6  A    between atoms: C_9  and  C_32
    7  A    between atoms: N_10  and  C_29
    8  A    between atoms: C_13  and  C_20
    9  A    between atoms: C_14  and  C_37
   10  A    between atoms: C_16  and  C_20
   11  A    between atoms: C_16  and  C_24
   12  A    between atoms: C_20  and  C_25
   13  A    between atoms: C_20  and  C_29
   14  A    between atoms: C_24  and  O_28
   15  A    between atoms: C_26  and  C_34
   16  A    between atoms: C_29  and  C_36
   17  A    between atoms: C_31  and  C_37
   18  A    between atoms: C_33  and  C_36
                            x       y       z     vdW  Elec       q    Type
                         _______ _______ _______ _____ _____    ______ ____

>  <TORSDO>
F 18

$$$$
=
 OpenBabel10262422593D

 37 38  0  0  1  0  0  0  0  0999 V2000
  185.7460  176.6040  137.3830 C   0  0  1  0  0  3  0  0  0  0  0  0
  182.2970  178.0500  138.7720 C   0  0  0  0  0  2  0  0  0  0  0  0
  184.9340  177.6440  138.0190 N   0  0  0  0  0  0  0  0  0  0  0  0
  184.8090  178.8360  138.7400 C   0  0  1  0  0  3  0  0  0  0  0  0
  183.5990  178.1780  138.5580 C   0  0  0  0  0  0  0  0  0  0  0  0
  185.3930  178.6140  140.1290 C   0  0  0  0  0  2  0  0  0  0  0  0
  184.4150  178.9770  141.2430 C   0  0  0  0  0  2  0  0  0  0  0  0
  186.2390  177.9800  142.6280 C   0  0  0  0  0  3  0  0  0  0  0  0
  185.0040  178.6360  142.5670 C   0  0  0  0  0  0  0  0  0  0  0  0
  184.3260  178.9700  143.7500 C   0  0  0  0  0  3  0  0  0  0  0  0
  184.2130  178.9690  146.1620 O   0  0  0  0  0  1  0  0  0  0  0  0
  186.1160  177.9730  145.0460 C   0  0  0  0  0  3  0  0  0  0  0  0
  184.8820  178.6370  144.9880 C   0  0  0  0  0  0  0  0  0  0  0  0
  186.7940  177.6480  143.8670 C   0  0  0  0  0  3  0  0  0  0  0  0
  185.1260  176.1640  136.0320 C   0  0  2  0  0  3  0  0  0  0  0  0
  182.9060  176.8480  135.2980 C   0  0  0  0  0  0  0  0  0  0  0  0
  181.6590  176.4980  135.1250 C   0  0  0  0  0  3  0  0  0  0  0  0
  184.1570  177.1790  135.4650 C   0  0  0  0  0  3  0  0  0  0  0  0
  179.5910  177.2840  136.2040 C   0  0  0  0  0  1  0  0  0  0  0  0
  180.5890  177.5360  135.0900 C   0  0  0  0  0  2  0  0  0  0  0  0
  184.5560  174.8040  136.1290 N   0  0  0  0  0  0  0  0  0  0  0  0
  185.1260  173.8720  135.1460 C   0  0  0  0  0  1  0  0  0  0  0  0
  185.4810  172.9880  137.5910 C   0  0  0  0  0  1  0  0  0  0  0  0
  184.6510  174.2710  137.4960 C   0  0  0  0  0  2  0  0  0  0  0  0
  187.2430  177.0310  137.2730 C   0  0  2  0  0  0  0  0  0  0  0  0
  187.7640  178.3200  135.1140 C   0  0  0  0  0  1  0  0  0  0  0  0
  187.3960  178.4040  136.5850 C   0  0  0  0  0  2  0  0  0  0  0  0
  187.9820  176.0300  136.3690 C   0  0  0  0  0  2  0  0  0  0  0  0
  190.4240  175.6780  136.3400 C   0  0  0  0  0  1  0  0  0  0  0  0
  189.1360  175.2950  137.0450 C   0  0  2  0  0  3  0  0  0  0  0  0
  189.8470  173.4910  135.9490 C   0  0  0  0  0  1  0  0  0  0  0  0
  188.9320  173.9200  136.9120 O   0  0  0  0  0  0  0  0  0  0  0  0
  187.9000  177.0400  138.6730 C   0  0  0  0  0  2  0  0  0  0  0  0
  188.8040  178.2460  138.9280 C   0  0  0  0  0  2  0  0  0  0  0  0
  189.9910  177.8430  139.7790 C   0  0  0  0  0  2  0  0  0  0  0  0
  189.5260  177.1130  141.0260 C   0  0  0  0  0  2  0  0  0  0  0  0
  190.2370  177.6610  142.2470 C   0  0  0  0  0  1  0  0  0  0  0  0
  1 15  1  6  0  0  0
  1  3  1  0  0  0  0
  3  5  1  0  0  0  0
  3  4  1  0  0  0  0
  4  6  1  1  0  0  0
  5  4  1  0  0  0  0
  5  2  2  0  0  0  0
  6  7  1  0  0  0  0
  7  9  1  0  0  0  0
  8 14  1  0  0  0  0
  9  8  2  0  0  0  0
  9 10  1  0  0  0  0
 10 13  2  0  0  0  0
 13 12  1  0  0  0  0
 13 11  1  0  0  0  0
 14 12  2  0  0  0  0
 15 18  1  1  0  0  0
 15 21  1  0  0  0  0
 16 18  2  0  0  0  0
 17 16  2  0  0  0  0
 20 17  1  0  0  0  0
 20 19  1  0  0  0  0
 21 24  1  0  0  0  0
 22 21  1  0  0  0  0
 24 23  1  0  0  0  0
 25 28  1  6  0  0  0
 25  1  1  0  0  0  0
 25 33  1  0  0  0  0
 26 27  1  0  0  0  0
 27 25  1  0  0  0  0
 28 30  1  0  0  0  0
 30 29  1  6  0  0  0
 31 32  1  0  0  0  0
 32 30  1  0  0  0  0
 33 34  1  0  0  0  0
 34 35  1  0  0  0  0
 35 36  1  0  0  0  0
 36 37  1  0  0  0  0
M  END
>  <MODEL>
4

>  <REMARK>
 VINA RESULT:      -5.2      3.644      6.971
  Name = 
  18 active torsions:
  status: ('A' for Active; 'I' for Inactive)
    1  A    between atoms: N_1  and  C_23
    2  A    between atoms: N_1  and  C_36
    3  A    between atoms: C_3  and  C_32
    4  A    between atoms: C_6  and  C_31
    5  A    between atoms: C_9  and  C_13
    6  A    between atoms: C_9  and  C_32
    7  A    between atoms: N_10  and  C_29
    8  A    between atoms: C_13  and  C_20
    9  A    between atoms: C_14  and  C_37
   10  A    between atoms: C_16  and  C_20
   11  A    between atoms: C_16  and  C_24
   12  A    between atoms: C_20  and  C_25
   13  A    between atoms: C_20  and  C_29
   14  A    between atoms: C_24  and  O_28
   15  A    between atoms: C_26  and  C_34
   16  A    between atoms: C_29  and  C_36
   17  A    between atoms: C_31  and  C_37
   18  A    between atoms: C_33  and  C_36
                            x       y       z     vdW  Elec       q    Type
                         _______ _______ _______ _____ _____    ______ ____

>  <TORSDO>
F 18

$$$$
=
 OpenBabel10262422593D

 37 38  0  0  1  0  0  0  0  0999 V2000
  185.7030  177.7420  138.8410 C   0  0  1  0  0  3  0  0  0  0  0  0
  184.5560  179.1610  142.3890 C   0  0  0  0  0  2  0  0  0  0  0  0
  185.9650  178.3890  140.1300 N   0  0  0  0  0  0  0  0  0  0  0  0
  186.8410  178.8480  141.1190 C   0  0  1  0  0  3  0  0  0  0  0  0
  185.5050  178.9180  141.4960 C   0  0  0  0  0  0  0  0  0  0  0  0
  187.5540  177.6430  141.7170 C   0  0  0  0  0  2  0  0  0  0  0  0
  188.8080  178.0290  142.4970 C   0  0  0  0  0  2  0  0  0  0  0  0
  187.3080  177.7440  144.4740 C   0  0  0  0  0  3  0  0  0  0  0  0
  188.6060  177.7670  143.9480 C   0  0  0  0  0  0  0  0  0  0  0  0
  189.7080  177.5440  144.7880 C   0  0  0  0  0  3  0  0  0  0  0  0
  190.6000  177.0850  146.9850 O   0  0  0  0  0  1  0  0  0  0  0  0
  188.2080  177.2930  146.6750 C   0  0  0  0  0  3  0  0  0  0  0  0
  189.5080  177.3090  146.1510 C   0  0  0  0  0  0  0  0  0  0  0  0
  187.1100  177.5070  145.8360 C   0  0  0  0  0  3  0  0  0  0  0  0
  184.5350  178.4380  138.0980 C   0  0  2  0  0  3  0  0  0  0  0  0
  182.7390  179.9750  138.6890 C   0  0  0  0  0  0  0  0  0  0  0  0
  181.4870  180.3040  138.5200 C   0  0  0  0  0  3  0  0  0  0  0  0
  183.9930  179.6410  138.8390 C   0  0  0  0  0  3  0  0  0  0  0  0
  180.1390  180.1530  140.5740 C   0  0  0  0  0  1  0  0  0  0  0  0
  180.7720  181.0920  139.5650 C   0  0  0  0  0  2  0  0  0  0  0  0
  183.4900  177.4630  137.7230 N   0  0  0  0  0  0  0  0  0  0  0  0
  183.5300  177.0980  136.3000 C   0  0  0  0  0  1  0  0  0  0  0  0
  182.4490  176.2850  139.6770 C   0  0  0  0  0  1  0  0  0  0  0  0
  183.5230  176.2730  138.5870 C   0  0  0  0  0  2  0  0  0  0  0  0
  187.0040  177.6210  137.9860 C   0  0  2  0  0  0  0  0  0  0  0  0
  187.3960  178.7840  135.7300 C   0  0  0  0  0  1  0  0  0  0  0  0
  187.3220  178.9340  137.2400 C   0  0  0  0  0  2  0  0  0  0  0  0
  186.7830  176.5650  136.8900 C   0  0  0  0  0  2  0  0  0  0  0  0
  188.2010  174.6750  136.1790 C   0  0  0  0  0  1  0  0  0  0  0  0
  187.2510  175.1600  137.2590 C   0  0  2  0  0  3  0  0  0  0  0  0
  186.6510  173.0160  137.2640 C   0  0  0  0  0  1  0  0  0  0  0  0
  186.1410  174.3140  137.3060 O   0  0  0  0  0  0  0  0  0  0  0  0
  188.1920  177.1930  138.8790 C   0  0  0  0  0  2  0  0  0  0  0  0
  189.4940  177.9360  138.5790 C   0  0  0  0  0  2  0  0  0  0  0  0
  190.6620  177.2450  139.2540 C   0  0  0  0  0  2  0  0  0  0  0  0
  191.0500  175.9930  138.4880 C   0  0  0  0  0  2  0  0  0  0  0  0
  191.3820  176.3420  137.0510 C   0  0  0  0  0  1  0  0  0  0  0  0
  1 15  1  6  0  0  0
  1  3  1  0  0  0  0
  3  4  1  0  0  0  0
  3  5  1  0  0  0  0
  4  5  1  0  0  0  0
  4  6  1  1  0  0  0
  5  2  2  0  0  0  0
  6  7  1  0  0  0  0
  7  9  1  0  0  0  0
  8 14  1  0  0  0  0
  9  8  2  0  0  0  0
  9 10  1  0  0  0  0
 10 13  2  0  0  0  0
 13 12  1  0  0  0  0
 13 11  1  0  0  0  0
 14 12  2  0  0  0  0
 15 18  1  1  0  0  0
 16 18  2  0  0  0  0
 17 16  2  0  0  0  0
 17 20  1  0  0  0  0
 20 19  1  0  0  0  0
 21 15  1  0  0  0  0
 21 24  1  0  0  0  0
 22 21  1  0  0  0  0
 24 23  1  0  0  0  0
 25 28  1  6  0  0  0
 25  1  1  0  0  0  0
 25 33  1  0  0  0  0
 26 27  1  0  0  0  0
 27 25  1  0  0  0  0
 28 30  1  0  0  0  0
 30 29  1  6  0  0  0
 30 32  1  0  0  0  0
 31 32  1  0  0  0  0
 34 33  1  0  0  0  0
 34 35  1  0  0  0  0
 36 35  1  0  0  0  0
 37 36  1  0  0  0  0
M  END
>  <MODEL>
5

>  <REMARK>
 VINA RESULT:      -5.1      3.380      5.745
  Name = 
  18 active torsions:
  status: ('A' for Active; 'I' for Inactive)
    1  A    between atoms: N_1  and  C_23
    2  A    between atoms: N_1  and  C_36
    3  A    between atoms: C_3  and  C_32
    4  A    between atoms: C_6  and  C_31
    5  A    between atoms: C_9  and  C_13
    6  A    between atoms: C_9  and  C_32
    7  A    between atoms: N_10  and  C_29
    8  A    between atoms: C_13  and  C_20
    9  A    between atoms: C_14  and  C_37
   10  A    between atoms: C_16  and  C_20
   11  A    between atoms: C_16  and  C_24
   12  A    between atoms: C_20  and  C_25
   13  A    between atoms: C_20  and  C_29
   14  A    between atoms: C_24  and  O_28
   15  A    between atoms: C_26  and  C_34
   16  A    between atoms: C_29  and  C_36
   17  A    between atoms: C_31  and  C_37
   18  A    between atoms: C_33  and  C_36
                            x       y       z     vdW  Elec       q    Type
                         _______ _______ _______ _____ _____    ______ ____

>  <TORSDO>
F 18

$$$$
=
 OpenBabel10262422593D

 37 38  0  0  1  0  0  0  0  0999 V2000
  184.5440  176.7260  137.6110 C   0  0  1  0  0  3  0  0  0  0  0  0
  182.3860  179.7970  138.9620 C   0  0  0  0  0  2  0  0  0  0  0  0
  184.3850  177.9690  138.3690 N   0  0  0  0  0  0  0  0  0  0  0  0
  184.8430  178.9110  139.2960 C   0  0  1  0  0  3  0  0  0  0  0  0
  183.5340  179.1370  138.8880 C   0  0  0  0  0  0  0  0  0  0  0  0
  184.9220  178.2350  140.6590 C   0  0  0  0  0  2  0  0  0  0  0  0
  184.7690  179.2210  141.8140 C   0  0  0  0  0  2  0  0  0  0  0  0
  184.8980  179.0050  144.2990 C   0  0  0  0  0  3  0  0  0  0  0  0
  185.4100  178.6710  143.0390 C   0  0  0  0  0  0  0  0  0  0  0  0
  186.5220  177.8210  142.9360 C   0  0  0  0  0  3  0  0  0  0  0  0
  188.2250  176.4730  143.9930 O   0  0  0  0  0  1  0  0  0  0  0  0
  186.6120  177.6600  145.3530 C   0  0  0  0  0  3  0  0  0  0  0  0
  187.1230  177.3170  144.0930 C   0  0  0  0  0  0  0  0  0  0  0  0
  185.4990  178.5000  145.4550 C   0  0  0  0  0  3  0  0  0  0  0  0
  183.3340  176.4880  136.6730 C   0  0  2  0  0  3  0  0  0  0  0  0
  181.4760  177.9400  136.0610 C   0  0  0  0  0  0  0  0  0  0  0  0
  180.1800  178.0930  136.0210 C   0  0  0  0  0  3  0  0  0  0  0  0
  182.7700  177.7680  136.0960 C   0  0  0  0  0  3  0  0  0  0  0  0
  180.6720  180.4810  135.6830 C   0  0  0  0  0  1  0  0  0  0  0  0
  179.5880  179.4610  135.9780 C   0  0  0  0  0  2  0  0  0  0  0  0
  182.3140  175.6430  137.3270 N   0  0  0  0  0  0  0  0  0  0  0  0
  182.0950  174.3660  136.6330 C   0  0  0  0  0  1  0  0  0  0  0  0
  181.5370  176.0030  139.6840 C   0  0  0  0  0  1  0  0  0  0  0  0
  182.6120  175.4380  138.7530 C   0  0  0  0  0  2  0  0  0  0  0  0
  185.9220  176.6720  136.8790 C   0  0  2  0  0  0  0  0  0  0  0  0
  186.5780  177.6420  134.5940 C   0  0  0  0  0  1  0  0  0  0  0  0
  186.1650  177.9350  136.0260 C   0  0  0  0  0  2  0  0  0  0  0  0
  185.9150  175.4960  135.8880 C   0  0  0  0  0  2  0  0  0  0  0  0
  187.9040  174.1930  135.2330 C   0  0  0  0  0  1  0  0  0  0  0  0
  186.8150  174.3290  136.2810 C   0  0  2  0  0  3  0  0  0  0  0  0
  185.4770  173.1040  137.5730 C   0  0  0  0  0  1  0  0  0  0  0  0
  186.0510  173.1600  136.3020 O   0  0  0  0  0  0  0  0  0  0  0  0
  187.0640  176.4720  137.9040 C   0  0  0  0  0  2  0  0  0  0  0  0
  188.0030  177.6700  138.0300 C   0  0  0  0  0  2  0  0  0  0  0  0
  188.5560  177.7610  139.4380 C   0  0  0  0  0  2  0  0  0  0  0  0
  190.0710  177.6810  139.4190 C   0  0  0  0  0  2  0  0  0  0  0  0
  190.5150  176.2880  139.0200 C   0  0  0  0  0  1  0  0  0  0  0  0
  1 15  1  6  0  0  0
  1  3  1  0  0  0  0
  3  5  1  0  0  0  0
  3  4  1  0  0  0  0
  4  6  1  1  0  0  0
  5  2  2  0  0  0  0
  5  4  1  0  0  0  0
  6  7  1  0  0  0  0
  7  9  1  0  0  0  0
  8 14  1  0  0  0  0
  9  8  2  0  0  0  0
 10  9  1  0  0  0  0
 10 13  2  0  0  0  0
 11 13  1  0  0  0  0
 12 14  2  0  0  0  0
 13 12  1  0  0  0  0
 15 18  1  1  0  0  0
 15 21  1  0  0  0  0
 16 18  2  0  0  0  0
 17 16  2  0  0  0  0
 19 20  1  0  0  0  0
 20 17  1  0  0  0  0
 21 24  1  0  0  0  0
 22 21  1  0  0  0  0
 24 23  1  0  0  0  0
 25 28  1  6  0  0  0
 25  1  1  0  0  0  0
 25 33  1  0  0  0  0
 26 27  1  0  0  0  0
 27 25  1  0  0  0  0
 28 30  1  0  0  0  0
 30 29  1  6  0  0  0
 30 32  1  0  0  0  0
 32 31  1  0  0  0  0
 33 34  1  0  0  0  0
 34 35  1  0  0  0  0
 36 35  1  0  0  0  0
 37 36  1  0  0  0  0
M  END
>  <MODEL>
6

>  <REMARK>
 VINA RESULT:      -5.0      3.059      5.367
  Name = 
  18 active torsions:
  status: ('A' for Active; 'I' for Inactive)
    1  A    between atoms: N_1  and  C_23
    2  A    between atoms: N_1  and  C_36
    3  A    between atoms: C_3  and  C_32
    4  A    between atoms: C_6  and  C_31
    5  A    between atoms: C_9  and  C_13
    6  A    between atoms: C_9  and  C_32
    7  A    between atoms: N_10  and  C_29
    8  A    between atoms: C_13  and  C_20
    9  A    between atoms: C_14  and  C_37
   10  A    between atoms: C_16  and  C_20
   11  A    between atoms: C_16  and  C_24
   12  A    between atoms: C_20  and  C_25
   13  A    between atoms: C_20  and  C_29
   14  A    between atoms: C_24  and  O_28
   15  A    between atoms: C_26  and  C_34
   16  A    between atoms: C_29  and  C_36
   17  A    between atoms: C_31  and  C_37
   18  A    between atoms: C_33  and  C_36
                            x       y       z     vdW  Elec       q    Type
                         _______ _______ _______ _____ _____    ______ ____

>  <TORSDO>
F 18

$$$$
=
 OpenBabel10262422593D

 37 38  0  0  1  0  0  0  0  0999 V2000
  183.6050  176.4540  138.0430 C   0  0  1  0  0  3  0  0  0  0  0  0
  183.2920  180.3510  138.8360 C   0  0  0  0  0  2  0  0  0  0  0  0
  183.9560  177.6600  138.7980 N   0  0  0  0  0  0  0  0  0  0  0  0
  184.5510  178.2950  139.8930 C   0  0  1  0  0  3  0  0  0  0  0  0
  183.8120  179.1590  139.0950 C   0  0  0  0  0  0  0  0  0  0  0  0
  183.8010  177.8740  141.1500 C   0  0  0  0  0  2  0  0  0  0  0  0
  183.7000  178.9970  142.1780 C   0  0  0  0  0  2  0  0  0  0  0  0
  184.0040  178.9790  144.6570 C   0  0  0  0  0  3  0  0  0  0  0  0
  184.4960  178.6520  143.3880 C   0  0  0  0  0  0  0  0  0  0  0  0
  185.7330  178.0020  143.2600 C   0  0  0  0  0  3  0  0  0  0  0  0
  187.7030  177.0440  144.2770 O   0  0  0  0  0  1  0  0  0  0  0  0
  185.9850  178.0260  145.6710 C   0  0  0  0  0  3  0  0  0  0  0  0
  186.4770  177.6910  144.4020 C   0  0  0  0  0  0  0  0  0  0  0  0
  184.7480  178.6660  145.7980 C   0  0  0  0  0  3  0  0  0  0  0  0
  182.1470  176.5280  137.5250 C   0  0  2  0  0  3  0  0  0  0  0  0
  181.3200  178.5330  136.4160 C   0  0  0  0  0  0  0  0  0  0  0  0
  181.0760  179.1280  135.2790 C   0  0  0  0  0  3  0  0  0  0  0  0
  181.5800  177.9310  137.5450 C   0  0  0  0  0  3  0  0  0  0  0  0
  180.4150  181.3050  136.2190 C   0  0  0  0  0  1  0  0  0  0  0  0
  180.0690  180.2260  135.2100 C   0  0  0  0  0  2  0  0  0  0  0  0
  181.2890  175.5420  138.2150 N   0  0  0  0  0  0  0  0  0  0  0  0
  181.0180  175.8970  139.6160 C   0  0  0  0  0  1  0  0  0  0  0  0
  180.2150  174.2880  136.3270 C   0  0  0  0  0  1  0  0  0  0  0  0
  180.0450  175.2900  137.4720 C   0  0  0  0  0  2  0  0  0  0  0  0
  184.6510  176.1540  136.9230 C   0  0  2  0  0  0  0  0  0  0  0  0
  184.2620  177.1840  134.6040 C   0  0  0  0  0  1  0  0  0  0  0  0
  183.9830  176.0200  135.5390 C   0  0  0  0  0  2  0  0  0  0  0  0
  185.3030  174.7900  137.2040 C   0  0  0  0  0  2  0  0  0  0  0  0
  183.8130  172.8250  137.1060 C   0  0  0  0  0  1  0  0  0  0  0  0
  184.8070  173.6540  136.3140 C   0  0  2  0  0  3  0  0  0  0  0  0
  186.6120  173.5790  135.0120 C   0  0  0  0  0  1  0  0  0  0  0  0
  185.8940  172.8510  135.9620 O   0  0  0  0  0  0  0  0  0  0  0  0
  185.7430  177.2500  136.9050 C   0  0  0  0  0  2  0  0  0  0  0  0
  187.1200  176.7620  137.3540 C   0  0  0  0  0  2  0  0  0  0  0  0
  187.7930  177.8100  138.2170 C   0  0  0  0  0  2  0  0  0  0  0  0
  188.7690  177.1570  139.1790 C   0  0  0  0  0  2  0  0  0  0  0  0
  190.1130  177.8550  139.1140 C   0  0  0  0  0  1  0  0  0  0  0  0
  1 15  1  6  0  0  0
  1  3  1  0  0  0  0
  2  5  2  0  0  0  0
  3  5  1  0  0  0  0
  3  4  1  0  0  0  0
  4  6  1  1  0  0  0
  5  4  1  0  0  0  0
  6  7  1  0  0  0  0
  7  9  1  0  0  0  0
  8 14  1  0  0  0  0
  9  8  2  0  0  0  0
 10  9  1  0  0  0  0
 10 13  2  0  0  0  0
 11 13  1  0  0  0  0
 12 14  2  0  0  0  0
 13 12  1  0  0  0  0
 15 18  1  1  0  0  0
 15 21  1  0  0  0  0
 16 18  2  0  0  0  0
 17 16  2  0  0  0  0
 20 17  1  0  0  0  0
 20 19  1  0  0  0  0
 21 22  1  0  0  0  0
 23 24  1  0  0  0  0
 24 21  1  0  0  0  0
 25 27  1  6  0  0  0
 25 28  1  0  0  0  0
 25  1  1  0  0  0  0
 26 27  1  0  0  0  0
 30 29  1  1  0  0  0
 30 28  1  0  0  0  0
 31 32  1  0  0  0  0
 32 30  1  0  0  0  0
 33 25  1  0  0  0  0
 33 34  1  0  0  0  0
 34 35  1  0  0  0  0
 35 36  1  0  0  0  0
 37 36  1  0  0  0  0
M  END
>  <MODEL>
7

>  <REMARK>
 VINA RESULT:      -4.9      2.716      4.816
  Name = 
  18 active torsions:
  status: ('A' for Active; 'I' for Inactive)
    1  A    between atoms: N_1  and  C_23
    2  A    between atoms: N_1  and  C_36
    3  A    between atoms: C_3  and  C_32
    4  A    between atoms: C_6  and  C_31
    5  A    between atoms: C_9  and  C_13
    6  A    between atoms: C_9  and  C_32
    7  A    between atoms: N_10  and  C_29
    8  A    between atoms: C_13  and  C_20
    9  A    between atoms: C_14  and  C_37
   10  A    between atoms: C_16  and  C_20
   11  A    between atoms: C_16  and  C_24
   12  A    between atoms: C_20  and  C_25
   13  A    between atoms: C_20  and  C_29
   14  A    between atoms: C_24  and  O_28
   15  A    between atoms: C_26  and  C_34
   16  A    between atoms: C_29  and  C_36
   17  A    between atoms: C_31  and  C_37
   18  A    between atoms: C_33  and  C_36
                            x       y       z     vdW  Elec       q    Type
                         _______ _______ _______ _____ _____    ______ ____

>  <TORSDO>
F 18

$$$$
=
 OpenBabel10262422593D

 37 38  0  0  1  0  0  0  0  0999 V2000
  186.6520  177.4960  138.6890 C   0  0  1  0  0  3  0  0  0  0  0  0
  184.9310  178.7690  142.0550 C   0  0  0  0  0  2  0  0  0  0  0  0
  186.6860  178.1460  140.0020 N   0  0  0  0  0  0  0  0  0  0  0  0
  187.3810  178.6650  141.0990 C   0  0  1  0  0  3  0  0  0  0  0  0
  186.0060  178.6180  141.2960 C   0  0  0  0  0  0  0  0  0  0  0  0
  188.1090  177.5170  141.7850 C   0  0  0  0  0  2  0  0  0  0  0  0
  189.4100  177.9600  142.4500 C   0  0  0  0  0  2  0  0  0  0  0  0
  188.1440  177.6870  144.5870 C   0  0  0  0  0  3  0  0  0  0  0  0
  189.3670  177.6500  143.9050 C   0  0  0  0  0  0  0  0  0  0  0  0
  190.5450  177.3210  144.5950 C   0  0  0  0  0  3  0  0  0  0  0  0
  191.6630  176.7140  146.6470 O   0  0  0  0  0  1  0  0  0  0  0  0
  189.2720  177.0870  146.6430 C   0  0  0  0  0  3  0  0  0  0  0  0
  190.4970  177.0420  145.9630 C   0  0  0  0  0  0  0  0  0  0  0  0
  188.0970  177.4070  145.9550 C   0  0  0  0  0  3  0  0  0  0  0  0
  185.5220  178.0850  137.8070 C   0  0  2  0  0  3  0  0  0  0  0  0
  183.4660  178.9880  138.7500 C   0  0  0  0  0  0  0  0  0  0  0  0
  182.1950  178.7930  138.9820 C   0  0  0  0  0  3  0  0  0  0  0  0
  184.7330  179.1740  138.5000 C   0  0  0  0  0  3  0  0  0  0  0  0
  180.3440  178.7220  140.6030 C   0  0  0  0  0  1  0  0  0  0  0  0
  181.5120  179.5370  140.0790 C   0  0  0  0  0  2  0  0  0  0  0  0
  184.6710  177.0120  137.2500 N   0  0  0  0  0  0  0  0  0  0  0  0
  184.4600  177.1410  135.8010 C   0  0  0  0  0  1  0  0  0  0  0  0
  184.0720  174.6350  137.7770 C   0  0  0  0  0  1  0  0  0  0  0  0
  185.1790  175.6780  137.6050 C   0  0  0  0  0  2  0  0  0  0  0  0
  188.0540  177.5150  138.0030 C   0  0  2  0  0  0  0  0  0  0  0  0
  189.0340  179.7540  137.2150 C   0  0  0  0  0  1  0  0  0  0  0  0
  188.8520  178.7840  138.3700 C   0  0  0  0  0  2  0  0  0  0  0  0
  187.8620  177.5720  136.4790 C   0  0  0  0  0  2  0  0  0  0  0  0
  189.5130  177.0860  134.7100 C   0  0  0  0  0  1  0  0  0  0  0  0
  188.5610  176.4550  135.7090 C   0  0  2  0  0  3  0  0  0  0  0  0
  187.9130  174.3750  135.2480 C   0  0  0  0  0  1  0  0  0  0  0  0
  187.5980  175.7150  135.0180 O   0  0  0  0  0  0  0  0  0  0  0  0
  188.8470  176.2400  138.3740 C   0  0  0  0  0  2  0  0  0  0  0  0
  190.1920  176.5170  139.0460 C   0  0  0  0  0  2  0  0  0  0  0  0
  191.3280  176.2400  138.0820 C   0  0  0  0  0  2  0  0  0  0  0  0
  191.2390  174.8210  137.5520 C   0  0  0  0  0  2  0  0  0  0  0  0
  192.5100  174.4590  136.8110 C   0  0  0  0  0  1  0  0  0  0  0  0
  1 15  1  6  0  0  0
  1  3  1  0  0  0  0
  3  4  1  0  0  0  0
  3  5  1  0  0  0  0
  4  5  1  0  0  0  0
  4  6  1  1  0  0  0
  5  2  2  0  0  0  0
  6  7  1  0  0  0  0
  7  9  1  0  0  0  0
  8 14  1  0  0  0  0
  9  8  2  0  0  0  0
  9 10  1  0  0  0  0
 10 13  2  0  0  0  0
 13 12  1  0  0  0  0
 13 11  1  0  0  0  0
 14 12  2  0  0  0  0
 15 18  1  1  0  0  0
 16 17  2  0  0  0  0
 17 20  1  0  0  0  0
 18 16  2  0  0  0  0
 20 19  1  0  0  0  0
 21 24  1  0  0  0  0
 21 15  1  0  0  0  0
 22 21  1  0  0  0  0
 24 23  1  0  0  0  0
 25 28  1  6  0  0  0
 25 27  1  0  0  0  0
 25 33  1  0  0  0  0
 25  1  1  0  0  0  0
 26 27  1  0  0  0  0
 30 29  1  6  0  0  0
 30 28  1  0  0  0  0
 32 31  1  0  0  0  0
 32 30  1  0  0  0  0
 33 34  1  0  0  0  0
 35 34  1  0  0  0  0
 36 35  1  0  0  0  0
 37 36  1  0  0  0  0
M  END
>  <MODEL>
8

>  <REMARK>
 VINA RESULT:      -4.8      4.176      6.817
  Name = 
  18 active torsions:
  status: ('A' for Active; 'I' for Inactive)
    1  A    between atoms: N_1  and  C_23
    2  A    between atoms: N_1  and  C_36
    3  A    between atoms: C_3  and  C_32
    4  A    between atoms: C_6  and  C_31
    5  A    between atoms: C_9  and  C_13
    6  A    between atoms: C_9  and  C_32
    7  A    between atoms: N_10  and  C_29
    8  A    between atoms: C_13  and  C_20
    9  A    between atoms: C_14  and  C_37
   10  A    between atoms: C_16  and  C_20
   11  A    between atoms: C_16  and  C_24
   12  A    between atoms: C_20  and  C_25
   13  A    between atoms: C_20  and  C_29
   14  A    between atoms: C_24  and  O_28
   15  A    between atoms: C_26  and  C_34
   16  A    between atoms: C_29  and  C_36
   17  A    between atoms: C_31  and  C_37
   18  A    between atoms: C_33  and  C_36
                            x       y       z     vdW  Elec       q    Type
                         _______ _______ _______ _____ _____    ______ ____

>  <TORSDO>
F 18

$$$$
=
 OpenBabel10262422593D

 37 38  0  0  1  0  0  0  0  0999 V2000
  182.6090  178.3360  137.8790 C   0  0  1  0  0  3  0  0  0  0  0  0
  185.0560  177.0510  135.0030 C   0  0  0  0  0  2  0  0  0  0  0  0
  183.8260  177.6700  137.4090 N   0  0  0  0  0  0  0  0  0  0  0  0
  185.0950  177.1260  137.6340 C   0  0  1  0  0  3  0  0  0  0  0  0
  184.7600  177.1940  136.2870 C   0  0  0  0  0  0  0  0  0  0  0  0
  186.0240  178.2540  138.0630 C   0  0  0  0  0  2  0  0  0  0  0  0
  187.4660  178.0280  137.6170 C   0  0  0  0  0  2  0  0  0  0  0  0
  189.5330  177.0510  138.6230 C   0  0  0  0  0  3  0  0  0  0  0  0
  188.3230  177.7330  138.7980 C   0  0  0  0  0  0  0  0  0  0  0  0
  187.9220  178.1350  140.0820 C   0  0  0  0  0  3  0  0  0  0  0  0
  188.3340  178.2440  142.4590 O   0  0  0  0  0  1  0  0  0  0  0  0
  189.9360  177.1550  141.0080 C   0  0  0  0  0  3  0  0  0  0  0  0
  188.7290  177.8440  141.1860 C   0  0  0  0  0  0  0  0  0  0  0  0
  190.3390  176.7620  139.7280 C   0  0  0  0  0  3  0  0  0  0  0  0
  181.4220  178.0640  136.9210 C   0  0  2  0  0  3  0  0  0  0  0  0
  180.7810  175.7830  136.3570 C   0  0  0  0  0  0  0  0  0  0  0  0
  179.9820  174.7810  136.6090 C   0  0  0  0  0  3  0  0  0  0  0  0
  181.5810  176.7880  136.1250 C   0  0  0  0  0  3  0  0  0  0  0  0
  180.4810  172.4770  135.9030 C   0  0  0  0  0  1  0  0  0  0  0  0
  179.7250  173.7470  135.5650 C   0  0  0  0  0  2  0  0  0  0  0  0
  181.1390  179.2460  136.0790 N   0  0  0  0  0  0  0  0  0  0  0  0
  179.8900  179.1200  135.3140 C   0  0  0  0  0  1  0  0  0  0  0  0
  180.0180  181.4440  136.5310 C   0  0  0  0  0  1  0  0  0  0  0  0
  181.1680  180.4900  136.8640 C   0  0  0  0  0  2  0  0  0  0  0  0
  182.3020  177.9850  139.3690 C   0  0  2  0  0  0  0  0  0  0  0  0
  181.4660  175.6070  139.8560 C   0  0  0  0  0  1  0  0  0  0  0  0
  182.6670  176.5230  139.6980 C   0  0  0  0  0  2  0  0  0  0  0  0
  180.7860  178.0980  139.6050 C   0  0  0  0  0  2  0  0  0  0  0  0
  179.8600  178.4920  141.8580 C   0  0  0  0  0  1  0  0  0  0  0  0
  180.3770  179.1750  140.6050 C   0  0  2  0  0  3  0  0  0  0  0  0
  179.6550  181.2670  140.3620 C   0  0  0  0  0  1  0  0  0  0  0  0
  179.3530  179.9420  140.0460 O   0  0  0  0  0  0  0  0  0  0  0  0
  183.0410  178.9640  140.3120 C   0  0  0  0  0  2  0  0  0  0  0  0
  184.0430  178.2870  141.2470 C   0  0  0  0  0  2  0  0  0  0  0  0
  183.6900  178.5750  142.6920 C   0  0  0  0  0  2  0  0  0  0  0  0
  184.9120  179.0630  143.4490 C   0  0  0  0  0  2  0  0  0  0  0  0
  184.6660  178.9870  144.9420 C   0  0  0  0  0  1  0  0  0  0  0  0
  1 15  1  6  0  0  0
  1 25  1  0  0  0  0
  2  5  2  0  0  0  0
  3  4  1  0  0  0  0
  3  1  1  0  0  0  0
  4  6  1  6  0  0  0
  5  3  1  0  0  0  0
  5  4  1  0  0  0  0
  7  6  1  0  0  0  0
  7  9  1  0  0  0  0
  8  9  2  0  0  0  0
  8 14  1  0  0  0  0
  9 10  1  0  0  0  0
 10 13  2  0  0  0  0
 12 13  1  0  0  0  0
 13 11  1  0  0  0  0
 14 12  2  0  0  0  0
 15 18  1  6  0  0  0
 16 17  2  0  0  0  0
 18 16  2  0  0  0  0
 20 19  1  0  0  0  0
 20 17  1  0  0  0  0
 21 24  1  0  0  0  0
 21 15  1  0  0  0  0
 22 21  1  0  0  0  0
 23 24  1  0  0  0  0
 25 28  1  1  0  0  0
 25 27  1  0  0  0  0
 25 33  1  0  0  0  0
 27 26  1  0  0  0  0
 28 30  1  0  0  0  0
 30 29  1  1  0  0  0
 32 31  1  0  0  0  0
 32 30  1  0  0  0  0
 33 34  1  0  0  0  0
 34 35  1  0  0  0  0
 35 36  1  0  0  0  0
 36 37  1  0  0  0  0
M  END
>  <MODEL>
9

>  <REMARK>
 VINA RESULT:      -4.8      2.886      6.082
  Name = 
  18 active torsions:
  status: ('A' for Active; 'I' for Inactive)
    1  A    between atoms: N_1  and  C_23
    2  A    between atoms: N_1  and  C_36
    3  A    between atoms: C_3  and  C_32
    4  A    between atoms: C_6  and  C_31
    5  A    between atoms: C_9  and  C_13
    6  A    between atoms: C_9  and  C_32
    7  A    between atoms: N_10  and  C_29
    8  A    between atoms: C_13  and  C_20
    9  A    between atoms: C_14  and  C_37
   10  A    between atoms: C_16  and  C_20
   11  A    between atoms: C_16  and  C_24
   12  A    between atoms: C_20  and  C_25
   13  A    between atoms: C_20  and  C_29
   14  A    between atoms: C_24  and  O_28
   15  A    between atoms: C_26  and  C_34
   16  A    between atoms: C_29  and  C_36
   17  A    between atoms: C_31  and  C_37
   18  A    between atoms: C_33  and  C_36
                            x       y       z     vdW  Elec       q    Type
                         _______ _______ _______ _____ _____    ______ ____

>  <TORSDO>
F 18

$$$$
