=
 OpenBabel10262421353D

 32 36  0  0  1  0  0  0  0  0999 V2000
  185.9190  178.1620  145.3670 C   0  0  0  0  0  0  0  0  0  0  0  0
  187.8700  177.9550  141.6910 C   0  0  0  0  0  0  0  0  0  0  0  0
  187.9130  177.6640  144.1130 C   0  0  0  0  0  0  0  0  0  0  0  0
  185.8850  178.4350  142.9950 C   0  0  0  0  0  3  0  0  0  0  0  0
  187.9030  177.3740  146.5010 N   0  0  0  0  0  0  0  0  0  0  0  0
  184.4960  178.6080  145.4820 C   0  0  0  0  0  1  0  0  0  0  0  0
  186.5270  178.3720  141.7530 C   0  0  0  0  0  0  0  0  0  0  0  0
  185.8680  178.7170  140.5600 C   0  0  0  0  0  0  0  0  0  0  0  0
  187.8330  178.2330  139.2910 C   0  0  0  0  0  0  0  0  0  0  0  0
  190.0230  176.8890  145.1780 C   0  0  0  0  0  1  0  0  0  0  0  0
  186.5560  178.0870  144.1800 C   0  0  0  0  0  0  0  0  0  0  0  0
  188.5850  177.3200  145.2330 C   0  0  0  0  0  0  0  0  0  0  0  0
  186.5950  177.8180  146.5390 O   0  0  0  0  0  0  0  0  0  0  0  0
  186.5310  178.6300  139.3740 N   0  0  0  0  0  0  0  0  0  0  0  0
  188.5480  177.6060  142.8590 C   0  0  0  0  0  3  0  0  0  0  0  0
  188.5220  177.8840  140.4630 C   0  0  0  0  0  3  0  0  0  0  0  0
  186.8740  177.0530  134.7530 O   0  0  0  0  0  1  0  0  0  0  0  0
  187.4890  177.8610  136.8830 C   0  0  0  0  0  3  0  0  0  0  0  0
  189.5940  177.0360  137.9620 C   0  0  1  0  0  3  0  0  0  0  0  0
  190.0550  176.6860  136.5720 C   0  0  0  0  0  3  0  0  0  0  0  0
  189.2020  176.7490  135.5450 C   0  0  0  0  0  3  0  0  0  0  0  0
  189.1270  179.3740  137.6470 O   0  0  0  0  0  1  0  0  0  0  0  0
  187.8260  177.2410  135.7460 C   0  0  0  0  0  0  0  0  0  0  0  0
  190.7340  177.4060  138.7850 N   0  0  0  0  0  1  0  0  0  0  0  0
  188.5190  178.1490  137.9500 C   0  0  2  0  0  0  0  0  0  0  0  0
  188.5950  177.0720  147.7510 C   0  0  0  0  0  3  0  0  0  0  0  0
  187.8970  177.7720  148.9030 C   0  0  0  0  0  2  0  0  0  0  0  0
  189.1840  178.3390  148.3510 C   0  0  0  0  0  2  0  0  0  0  0  0
  184.4360  179.1410  140.5520 C   0  0  0  0  0  2  0  0  0  0  0  0
  184.1940  180.0290  139.4280 N   0  0  0  0  0  2  0  0  0  0  0  0
  182.8830  179.6940  138.9050 C   0  0  0  0  0  2  0  0  0  0  0  0
  182.9580  178.3730  138.1690 C   0  0  0  0  0  1  0  0  0  0  0  0
  1  6  1  0  0  0  0
  1 13  1  0  0  0  0
  2  7  1  0  0  0  0
  2 15  2  0  0  0  0
  3 11  1  0  0  0  0
  3 12  2  0  0  0  0
  4 11  1  0  0  0  0
  5 13  1  0  0  0  0
  5 26  1  0  0  0  0
  7  4  2  0  0  0  0
  8  7  1  0  0  0  0
  9 14  1  0  0  0  0
  9 16  2  0  0  0  0
 10 12  1  0  0  0  0
 11  1  2  0  0  0  0
 12  5  1  0  0  0  0
 14  8  2  0  0  0  0
 15  3  1  0  0  0  0
 16  2  1  0  0  0  0
 17 23  1  0  0  0  0
 18 25  1  0  0  0  0
 19 24  1  1  0  0  0
 20 19  1  0  0  0  0
 21 23  1  0  0  0  0
 21 20  2  0  0  0  0
 23 18  2  0  0  0  0
 25 22  1  6  0  0  0
 25 19  1  0  0  0  0
 25  9  1  0  0  0  0
 26 28  1  0  0  0  0
 26 27  1  0  0  0  0
 28 27  1  0  0  0  0
 29  8  1  0  0  0  0
 30 29  1  0  0  0  0
 31 30  1  0  0  0  0
 32 31  1  0  0  0  0
M  END
>  <MODEL>
1

>  <REMARK>
 VINA RESULT:     -10.1      0.000      0.000
  Name = 
  5 active torsions:
  status: ('A' for Active; 'I' for Inactive)
    1  A    between atoms: C_1  and  N_10
    2  A    between atoms: N_4  and  C_5
    3  A    between atoms: N_4  and  C_13
    4  A    between atoms: C_13  and  C_15
    5  A    between atoms: C_16  and  C_32
                            x       y       z     vdW  Elec       q    Type
                         _______ _______ _______ _____ _____    ______ ____

>  <TORSDO>
F 5

$$$$
=
 OpenBabel10262421353D

 32 36  0  0  1  0  0  0  0  0999 V2000
  189.9570  177.4280  144.4360 C   0  0  0  0  0  0  0  0  0  0  0  0
  186.4720  178.2530  142.3070 C   0  0  0  0  0  0  0  0  0  0  0  0
  187.5770  177.7890  144.4320 C   0  0  0  0  0  0  0  0  0  0  0  0
  188.8670  177.8910  142.3620 C   0  0  0  0  0  3  0  0  0  0  0  0
  188.7120  177.3460  146.5060 N   0  0  0  0  0  0  0  0  0  0  0  0
  191.2880  177.3190  143.7620 C   0  0  0  0  0  1  0  0  0  0  0  0
  187.7050  178.1670  141.6330 C   0  0  0  0  0  0  0  0  0  0  0  0
  187.7320  178.3610  140.2410 C   0  0  0  0  0  0  0  0  0  0  0  0
  185.3710  178.7200  140.2070 C   0  0  0  0  0  0  0  0  0  0  0  0
  186.1890  177.6860  146.4930 C   0  0  0  0  0  1  0  0  0  0  0  0
  188.8250  177.7000  143.7540 C   0  0  0  0  0  0  0  0  0  0  0  0
  187.5030  177.6120  145.7680 C   0  0  0  0  0  0  0  0  0  0  0  0
  189.9050  177.2360  145.8170 O   0  0  0  0  0  0  0  0  0  0  0  0
  186.5770  178.6380  139.5760 N   0  0  0  0  0  0  0  0  0  0  0  0
  186.4150  178.0650  143.6880 C   0  0  0  0  0  3  0  0  0  0  0  0
  185.3070  178.5300  141.5960 C   0  0  0  0  0  3  0  0  0  0  0  0
  180.6450  179.1140  140.8480 O   0  0  0  0  0  1  0  0  0  0  0  0
  182.9550  179.1600  140.3750 C   0  0  0  0  0  3  0  0  0  0  0  0
  183.8400  177.9210  138.3860 C   0  0  1  0  0  3  0  0  0  0  0  0
  182.4440  178.0120  137.8300 C   0  0  0  0  0  3  0  0  0  0  0  0
  181.4410  178.4470  138.5980 C   0  0  0  0  0  3  0  0  0  0  0  0
  184.2710  180.2580  138.7560 O   0  0  0  0  0  1  0  0  0  0  0  0
  181.7030  178.9210  139.9700 C   0  0  0  0  0  0  0  0  0  0  0  0
  184.8100  177.9450  137.3020 N   0  0  0  0  0  1  0  0  0  0  0  0
  184.1210  179.0350  139.4220 C   0  0  2  0  0  0  0  0  0  0  0  0
  188.6860  177.0870  147.9440 C   0  0  0  0  0  3  0  0  0  0  0  0
  188.0840  178.2800  148.6660 C   0  0  0  0  0  2  0  0  0  0  0  0
  189.5810  178.0730  148.6770 C   0  0  0  0  0  2  0  0  0  0  0  0
  189.0100  178.3120  139.4690 C   0  0  0  0  0  2  0  0  0  0  0  0
  188.8940  179.1310  138.2750 N   0  0  0  0  0  2  0  0  0  0  0  0
  189.2740  178.2910  137.1550 C   0  0  0  0  0  2  0  0  0  0  0  0
  190.1790  177.1800  137.6430 C   0  0  0  0  0  1  0  0  0  0  0  0
  1 13  1  0  0  0  0
  2 15  2  0  0  0  0
  3 12  2  0  0  0  0
  4 11  1  0  0  0  0
  5 26  1  0  0  0  0
  6  1  1  0  0  0  0
  7  2  1  0  0  0  0
  7  4  2  0  0  0  0
  8  7  1  0  0  0  0
  9 16  2  0  0  0  0
 11  3  1  0  0  0  0
 11  1  2  0  0  0  0
 12 10  1  0  0  0  0
 12  5  1  0  0  0  0
 13  5  1  0  0  0  0
 14  9  1  0  0  0  0
 14  8  2  0  0  0  0
 15  3  1  0  0  0  0
 16  2  1  0  0  0  0
 19 24  1  6  0  0  0
 19 25  1  0  0  0  0
 20 19  1  0  0  0  0
 20 21  2  0  0  0  0
 21 23  1  0  0  0  0
 23 18  2  0  0  0  0
 23 17  1  0  0  0  0
 25 22  1  6  0  0  0
 25  9  1  0  0  0  0
 25 18  1  0  0  0  0
 26 27  1  0  0  0  0
 26 28  1  0  0  0  0
 27 28  1  0  0  0  0
 29  8  1  0  0  0  0
 30 29  1  0  0  0  0
 31 32  1  0  0  0  0
 31 30  1  0  0  0  0
M  END
>  <MODEL>
2

>  <REMARK>
 VINA RESULT:      -9.5      2.159      4.745
  Name = 
  5 active torsions:
  status: ('A' for Active; 'I' for Inactive)
    1  A    between atoms: C_1  and  N_10
    2  A    between atoms: N_4  and  C_5
    3  A    between atoms: N_4  and  C_13
    4  A    between atoms: C_13  and  C_15
    5  A    between atoms: C_16  and  C_32
                            x       y       z     vdW  Elec       q    Type
                         _______ _______ _______ _____ _____    ______ ____

>  <TORSDO>
F 5

$$$$
=
 OpenBabel10262421353D

 32 36  0  0  1  0  0  0  0  0999 V2000
  188.6220  177.6520  145.6810 C   0  0  0  0  0  0  0  0  0  0  0  0
  188.5950  177.5550  141.5160 C   0  0  0  0  0  0  0  0  0  0  0  0
  189.7210  177.0600  143.6230 C   0  0  0  0  0  0  0  0  0  0  0  0
  187.5240  178.1240  143.6130 C   0  0  0  0  0  3  0  0  0  0  0  0
  190.7850  176.5740  145.7240 N   0  0  0  0  0  0  0  0  0  0  0  0
  187.4870  178.2290  146.4660 C   0  0  0  0  0  1  0  0  0  0  0  0
  187.5010  178.1000  142.2140 C   0  0  0  0  0  0  0  0  0  0  0  0
  186.4140  178.6090  141.4820 C   0  0  0  0  0  0  0  0  0  0  0  0
  187.4830  178.0350  139.4250 C   0  0  0  0  0  0  0  0  0  0  0  0
  191.9640  175.9880  143.5460 C   0  0  0  0  0  1  0  0  0  0  0  0
  188.6180  177.6130  144.3320 C   0  0  0  0  0  0  0  0  0  0  0  0
  190.7860  176.5580  144.2840 C   0  0  0  0  0  0  0  0  0  0  0  0
  189.7140  177.1440  146.3860 O   0  0  0  0  0  0  0  0  0  0  0  0
  186.4320  178.5550  140.1220 N   0  0  0  0  0  0  0  0  0  0  0  0
  189.6870  177.0430  142.2160 C   0  0  0  0  0  3  0  0  0  0  0  0
  188.5850  177.5210  140.1240 C   0  0  0  0  0  3  0  0  0  0  0  0
  187.1820  174.8660  135.8520 O   0  0  0  0  0  1  0  0  0  0  0  0
  187.1410  176.5860  137.4650 C   0  0  0  0  0  3  0  0  0  0  0  0
  188.8080  178.4510  137.3340 C   0  0  1  0  0  3  0  0  0  0  0  0
  188.9380  178.1020  135.8750 C   0  0  0  0  0  3  0  0  0  0  0  0
  188.3700  176.9920  135.3960 C   0  0  0  0  0  3  0  0  0  0  0  0
  186.4360  178.8360  137.4390 O   0  0  0  0  0  1  0  0  0  0  0  0
  187.5420  176.1400  136.2700 C   0  0  0  0  0  0  0  0  0  0  0  0
  189.0160  179.8780  137.5250 N   0  0  0  0  0  1  0  0  0  0  0  0
  187.4490  177.9940  137.9170 C   0  0  2  0  0  0  0  0  0  0  0  0
  191.9340  176.1000  146.4920 C   0  0  0  0  0  3  0  0  0  0  0  0
  191.4540  175.2740  147.6710 C   0  0  0  0  0  2  0  0  0  0  0  0
  191.9190  176.6940  147.8910 C   0  0  0  0  0  2  0  0  0  0  0  0
  185.2100  179.1760  142.1620 C   0  0  0  0  0  2  0  0  0  0  0  0
  184.1050  178.2390  142.0630 N   0  0  0  0  0  2  0  0  0  0  0  0
  183.1700  178.5830  143.1170 C   0  0  0  0  0  2  0  0  0  0  0  0
  183.9380  179.0000  144.3540 C   0  0  0  0  0  1  0  0  0  0  0  0
  1 13  1  0  0  0  0
  1  6  1  0  0  0  0
  2  7  1  0  0  0  0
  2 15  2  0  0  0  0
  3 12  2  0  0  0  0
  3 11  1  0  0  0  0
  4 11  1  0  0  0  0
  5 13  1  0  0  0  0
  5 26  1  0  0  0  0
  7  4  2  0  0  0  0
  8 29  1  0  0  0  0
  8  7  1  0  0  0  0
  9 14  1  0  0  0  0
  9 16  2  0  0  0  0
 10 12  1  0  0  0  0
 11  1  2  0  0  0  0
 12  5  1  0  0  0  0
 14  8  2  0  0  0  0
 15  3  1  0  0  0  0
 16  2  1  0  0  0  0
 17 23  1  0  0  0  0
 18 25  1  0  0  0  0
 19 24  1  6  0  0  0
 19 25  1  0  0  0  0
 20 19  1  0  0  0  0
 21 20  2  0  0  0  0
 21 23  1  0  0  0  0
 23 18  2  0  0  0  0
 25 22  1  6  0  0  0
 25  9  1  0  0  0  0
 26 27  1  0  0  0  0
 26 28  1  0  0  0  0
 27 28  1  0  0  0  0
 30 29  1  0  0  0  0
 30 31  1  0  0  0  0
 31 32  1  0  0  0  0
M  END
>  <MODEL>
3

>  <REMARK>
 VINA RESULT:      -9.2      2.042      2.633
  Name = 
  5 active torsions:
  status: ('A' for Active; 'I' for Inactive)
    1  A    between atoms: C_1  and  N_10
    2  A    between atoms: N_4  and  C_5
    3  A    between atoms: N_4  and  C_13
    4  A    between atoms: C_13  and  C_15
    5  A    between atoms: C_16  and  C_32
                            x       y       z     vdW  Elec       q    Type
                         _______ _______ _______ _____ _____    ______ ____

>  <TORSDO>
F 5

$$$$
=
 OpenBabel10262421353D

 32 36  0  0  1  0  0  0  0  0999 V2000
  188.0750  177.7820  146.5850 C   0  0  0  0  0  0  0  0  0  0  0  0
  186.7990  178.1670  142.6370 C   0  0  0  0  0  0  0  0  0  0  0  0
  188.5760  177.6700  144.2330 C   0  0  0  0  0  0  0  0  0  0  0  0
  186.3400  178.2580  145.0140 C   0  0  0  0  0  3  0  0  0  0  0  0
  190.2920  177.1710  145.8420 N   0  0  0  0  0  0  0  0  0  0  0  0
  187.1540  178.0200  147.7390 C   0  0  0  0  0  1  0  0  0  0  0  0
  185.8970  178.3930  143.6930 C   0  0  0  0  0  0  0  0  0  0  0  0
  184.5710  178.7510  143.3900 C   0  0  0  0  0  0  0  0  0  0  0  0
  185.0420  178.6510  141.0500 C   0  0  0  0  0  0  0  0  0  0  0  0
  190.8320  177.0950  143.3560 C   0  0  0  0  0  1  0  0  0  0  0  0
  187.6680  177.9000  145.3040 C   0  0  0  0  0  0  0  0  0  0  0  0
  189.8580  177.3230  144.4770 C   0  0  0  0  0  0  0  0  0  0  0  0
  189.3960  177.4290  146.8620 O   0  0  0  0  0  0  0  0  0  0  0  0
  184.1840  178.8600  142.0890 N   0  0  0  0  0  0  0  0  0  0  0  0
  188.1200  177.8110  142.9090 C   0  0  0  0  0  3  0  0  0  0  0  0
  186.3720  178.2940  141.3180 C   0  0  0  0  0  3  0  0  0  0  0  0
  181.3260  177.3830  138.3140 O   0  0  0  0  0  1  0  0  0  0  0  0
  183.1410  178.2650  139.5350 C   0  0  0  0  0  3  0  0  0  0  0  0
  185.4750  177.9780  138.6710 C   0  0  1  0  0  3  0  0  0  0  0  0
  184.8460  177.7940  137.3150 C   0  0  0  0  0  3  0  0  0  0  0  0
  183.5210  177.6630  137.2010 C   0  0  0  0  0  3  0  0  0  0  0  0
  184.5580  180.1270  139.2430 O   0  0  0  0  0  1  0  0  0  0  0  0
  182.6540  177.7820  138.3870 C   0  0  0  0  0  0  0  0  0  0  0  0
  186.7800  178.6060  138.5330 N   0  0  0  0  0  1  0  0  0  0  0  0
  184.5590  178.7800  139.6260 C   0  0  2  0  0  0  0  0  0  0  0  0
  191.6810  176.8550  146.1690 C   0  0  0  0  0  3  0  0  0  0  0  0
  191.8600  175.3490  146.2370 C   0  0  0  0  0  2  0  0  0  0  0  0
  191.7630  176.1510  147.5140 C   0  0  0  0  0  2  0  0  0  0  0  0
  183.5570  178.9770  144.4620 C   0  0  0  0  0  2  0  0  0  0  0  0
  182.3640  179.5770  143.8900 N   0  0  0  0  0  2  0  0  0  0  0  0
  181.2980  178.6040  144.0350 C   0  0  0  0  0  2  0  0  0  0  0  0
  180.2580  178.8320  142.9580 C   0  0  0  0  0  1  0  0  0  0  0  0
  1 13  1  0  0  0  0
  1  6  1  0  0  0  0
  2 15  2  0  0  0  0
  2  7  1  0  0  0  0
  3 12  2  0  0  0  0
  3 11  1  0  0  0  0
  4 11  1  0  0  0  0
  5 26  1  0  0  0  0
  5 13  1  0  0  0  0
  7  4  2  0  0  0  0
  8  7  1  0  0  0  0
  8 29  1  0  0  0  0
  9 16  2  0  0  0  0
  9 14  1  0  0  0  0
 10 12  1  0  0  0  0
 11  1  2  0  0  0  0
 12  5  1  0  0  0  0
 14  8  2  0  0  0  0
 15  3  1  0  0  0  0
 16  2  1  0  0  0  0
 17 23  1  0  0  0  0
 18 25  1  0  0  0  0
 19 24  1  6  0  0  0
 19 25  1  0  0  0  0
 20 19  1  0  0  0  0
 21 20  2  0  0  0  0
 21 23  1  0  0  0  0
 23 18  2  0  0  0  0
 25 22  1  6  0  0  0
 25  9  1  0  0  0  0
 26 27  1  0  0  0  0
 26 28  1  0  0  0  0
 27 28  1  0  0  0  0
 30 31  1  0  0  0  0
 30 29  1  0  0  0  0
 32 31  1  0  0  0  0
M  END
>  <MODEL>
4

>  <REMARK>
 VINA RESULT:      -9.1      2.680      3.921
  Name = 
  5 active torsions:
  status: ('A' for Active; 'I' for Inactive)
    1  A    between atoms: C_1  and  N_10
    2  A    between atoms: N_4  and  C_5
    3  A    between atoms: N_4  and  C_13
    4  A    between atoms: C_13  and  C_15
    5  A    between atoms: C_16  and  C_32
                            x       y       z     vdW  Elec       q    Type
                         _______ _______ _______ _____ _____    ______ ____

>  <TORSDO>
F 5

$$$$
=
 OpenBabel10262421353D

 32 36  0  0  1  0  0  0  0  0999 V2000
  182.7750  179.2650  140.0880 C   0  0  0  0  0  0  0  0  0  0  0  0
  185.9680  178.0920  142.4960 C   0  0  0  0  0  0  0  0  0  0  0  0
  183.6190  178.7120  142.2750 C   0  0  0  0  0  0  0  0  0  0  0  0
  185.0720  178.6490  140.3140 C   0  0  0  0  0  3  0  0  0  0  0  0
  181.3050  179.3100  142.0060 N   0  0  0  0  0  0  0  0  0  0  0  0
  182.9280  179.4590  138.6130 C   0  0  0  0  0  1  0  0  0  0  0  0
  186.1540  178.2560  141.1100 C   0  0  0  0  0  0  0  0  0  0  0  0
  187.4280  178.0210  140.5640 C   0  0  0  0  0  0  0  0  0  0  0  0
  188.2920  177.4710  142.7220 C   0  0  0  0  0  0  0  0  0  0  0  0
  182.2080  178.7670  144.3230 C   0  0  0  0  0  1  0  0  0  0  0  0
  183.8030  178.8800  140.8740 C   0  0  0  0  0  0  0  0  0  0  0  0
  182.4120  178.9240  142.8420 C   0  0  0  0  0  0  0  0  0  0  0  0
  181.5200  179.4960  140.6540 O   0  0  0  0  0  0  0  0  0  0  0  0
  188.4480  177.6310  141.3760 N   0  0  0  0  0  0  0  0  0  0  0  0
  184.7150  178.3190  143.0640 C   0  0  0  0  0  3  0  0  0  0  0  0
  187.0350  177.6990  143.3000 C   0  0  0  0  0  3  0  0  0  0  0  0
  189.4820  177.0070  147.3340 O   0  0  0  0  0  1  0  0  0  0  0  0
  189.0190  176.9790  145.0210 C   0  0  0  0  0  3  0  0  0  0  0  0
  190.6430  178.0110  143.4170 C   0  0  1  0  0  3  0  0  0  0  0  0
  191.6790  177.8140  144.4910 C   0  0  0  0  0  3  0  0  0  0  0  0
  191.3120  177.4390  145.7200 C   0  0  0  0  0  3  0  0  0  0  0  0
  189.8650  175.7450  143.1990 O   0  0  0  0  0  1  0  0  0  0  0  0
  189.9000  177.1320  146.0160 C   0  0  0  0  0  0  0  0  0  0  0  0
  191.2580  177.8930  142.1040 N   0  0  0  0  0  1  0  0  0  0  0  0
  189.4560  177.0300  143.5760 C   0  0  2  0  0  0  0  0  0  0  0  0
  179.9920  179.6120  142.5720 C   0  0  0  0  0  3  0  0  0  0  0  0
  178.9320  179.4930  141.4920 C   0  0  0  0  0  2  0  0  0  0  0  0
  179.4100  180.8590  141.9270 C   0  0  0  0  0  2  0  0  0  0  0  0
  187.6870  178.1490  139.0980 C   0  0  0  0  0  2  0  0  0  0  0  0
  188.8450  178.9970  138.8780 N   0  0  0  0  0  2  0  0  0  0  0  0
  189.0730  179.0280  137.4450 C   0  0  0  0  0  2  0  0  0  0  0  0
  187.7710  178.7520  136.7230 C   0  0  0  0  0  1  0  0  0  0  0  0
  1 13  1  0  0  0  0
  1 11  2  0  0  0  0
  2 15  2  0  0  0  0
  2 16  1  0  0  0  0
  3 12  2  0  0  0  0
  3 15  1  0  0  0  0
  4 11  1  0  0  0  0
  4  7  2  0  0  0  0
  5 26  1  0  0  0  0
  5 12  1  0  0  0  0
  6  1  1  0  0  0  0
  7  2  1  0  0  0  0
  8  7  1  0  0  0  0
  8 14  2  0  0  0  0
  9 16  2  0  0  0  0
  9 25  1  0  0  0  0
 11  3  1  0  0  0  0
 12 10  1  0  0  0  0
 13  5  1  0  0  0  0
 14  9  1  0  0  0  0
 18 23  2  0  0  0  0
 19 24  1  6  0  0  0
 19 25  1  0  0  0  0
 19 20  1  0  0  0  0
 20 21  2  0  0  0  0
 21 23  1  0  0  0  0
 23 17  1  0  0  0  0
 25 22  1  6  0  0  0
 25 18  1  0  0  0  0
 27 28  1  0  0  0  0
 27 26  1  0  0  0  0
 28 26  1  0  0  0  0
 29  8  1  0  0  0  0
 30 29  1  0  0  0  0
 31 30  1  0  0  0  0
 32 31  1  0  0  0  0
M  END
>  <MODEL>
5

>  <REMARK>
 VINA RESULT:      -8.7      2.800      7.002
  Name = 
  5 active torsions:
  status: ('A' for Active; 'I' for Inactive)
    1  A    between atoms: C_1  and  N_10
    2  A    between atoms: N_4  and  C_5
    3  A    between atoms: N_4  and  C_13
    4  A    between atoms: C_13  and  C_15
    5  A    between atoms: C_16  and  C_32
                            x       y       z     vdW  Elec       q    Type
                         _______ _______ _______ _____ _____    ______ ____

>  <TORSDO>
F 5

$$$$
=
 OpenBabel10262421353D

 32 36  0  0  1  0  0  0  0  0999 V2000
  185.9320  178.2020  145.5340 C   0  0  0  0  0  0  0  0  0  0  0  0
  184.5520  178.2760  141.6030 C   0  0  0  0  0  0  0  0  0  0  0  0
  186.3590  177.8620  143.1890 C   0  0  0  0  0  0  0  0  0  0  0  0
  184.1670  178.5960  143.9740 C   0  0  0  0  0  3  0  0  0  0  0  0
  188.1050  177.4490  144.7900 N   0  0  0  0  0  0  0  0  0  0  0  0
  185.0550  178.5750  146.6870 C   0  0  0  0  0  1  0  0  0  0  0  0
  183.6890  178.6270  142.6590 C   0  0  0  0  0  0  0  0  0  0  0  0
  182.3680  179.0030  142.3590 C   0  0  0  0  0  0  0  0  0  0  0  0
  182.7650  178.6770  140.0270 C   0  0  0  0  0  0  0  0  0  0  0  0
  188.5670  177.1310  142.3080 C   0  0  0  0  0  1  0  0  0  0  0  0
  185.4900  178.2190  144.2590 C   0  0  0  0  0  0  0  0  0  0  0  0
  187.6350  177.4930  143.4300 C   0  0  0  0  0  0  0  0  0  0  0  0
  187.2490  177.8290  145.8070 O   0  0  0  0  0  0  0  0  0  0  0  0
  181.9460  179.0090  141.0650 N   0  0  0  0  0  0  0  0  0  0  0  0
  185.8670  177.8990  141.8710 C   0  0  0  0  0  3  0  0  0  0  0  0
  184.0900  178.2990  140.2900 C   0  0  0  0  0  3  0  0  0  0  0  0
  180.8060  181.7060  136.8820 O   0  0  0  0  0  1  0  0  0  0  0  0
  181.9340  180.1190  138.2140 C   0  0  0  0  0  3  0  0  0  0  0  0
  180.9690  177.8240  138.4940 C   0  0  1  0  0  3  0  0  0  0  0  0
  180.2280  178.0840  137.2090 C   0  0  0  0  0  3  0  0  0  0  0  0
  180.2270  179.3060  136.6690 C   0  0  0  0  0  3  0  0  0  0  0  0
  183.2200  178.2020  137.7360 O   0  0  0  0  0  1  0  0  0  0  0  0
  181.0180  180.3920  137.2770 C   0  0  0  0  0  0  0  0  0  0  0  0
  181.2790  176.4080  138.6120 N   0  0  0  0  0  1  0  0  0  0  0  0
  182.2430  178.6940  138.6110 C   0  0  2  0  0  0  0  0  0  0  0  0
  189.4920  177.1150  145.1070 C   0  0  0  0  0  3  0  0  0  0  0  0
  189.7950  177.5030  146.5430 C   0  0  0  0  0  2  0  0  0  0  0  0
  190.2850  178.3750  145.4110 C   0  0  0  0  0  2  0  0  0  0  0  0
  181.3940  179.3600  143.4340 C   0  0  0  0  0  2  0  0  0  0  0  0
  180.4060  180.2880  142.9110 N   0  0  0  0  0  2  0  0  0  0  0  0
  179.1110  179.8190  143.3670 C   0  0  0  0  0  2  0  0  0  0  0  0
  179.3040  178.6780  144.3430 C   0  0  0  0  0  1  0  0  0  0  0  0
  1 13  1  0  0  0  0
  1  6  1  0  0  0  0
  2 15  2  0  0  0  0
  2  7  1  0  0  0  0
  3 12  2  0  0  0  0
  3 11  1  0  0  0  0
  4 11  1  0  0  0  0
  5 26  1  0  0  0  0
  5 13  1  0  0  0  0
  7  4  2  0  0  0  0
  8  7  1  0  0  0  0
  8 29  1  0  0  0  0
  9 16  2  0  0  0  0
  9 14  1  0  0  0  0
 10 12  1  0  0  0  0
 11  1  2  0  0  0  0
 12  5  1  0  0  0  0
 14  8  2  0  0  0  0
 15  3  1  0  0  0  0
 16  2  1  0  0  0  0
 17 23  1  0  0  0  0
 18 25  1  0  0  0  0
 19 25  1  0  0  0  0
 19 24  1  6  0  0  0
 20 19  1  0  0  0  0
 21 20  2  0  0  0  0
 21 23  1  0  0  0  0
 23 18  2  0  0  0  0
 25 22  1  6  0  0  0
 25  9  1  0  0  0  0
 26 28  1  0  0  0  0
 26 27  1  0  0  0  0
 28 27  1  0  0  0  0
 30 31  1  0  0  0  0
 30 29  1  0  0  0  0
 31 32  1  0  0  0  0
M  END
>  <MODEL>
6

>  <REMARK>
 VINA RESULT:      -8.7      3.378      5.269
  Name = 
  5 active torsions:
  status: ('A' for Active; 'I' for Inactive)
    1  A    between atoms: C_1  and  N_10
    2  A    between atoms: N_4  and  C_5
    3  A    between atoms: N_4  and  C_13
    4  A    between atoms: C_13  and  C_15
    5  A    between atoms: C_16  and  C_32
                            x       y       z     vdW  Elec       q    Type
                         _______ _______ _______ _____ _____    ______ ____

>  <TORSDO>
F 5

$$$$
=
 OpenBabel10262421353D

 32 36  0  0  1  0  0  0  0  0999 V2000
  188.8030  177.8710  144.3820 C   0  0  0  0  0  0  0  0  0  0  0  0
  185.3860  178.4840  142.0780 C   0  0  0  0  0  0  0  0  0  0  0  0
  186.4300  178.2620  144.2720 C   0  0  0  0  0  0  0  0  0  0  0  0
  187.7720  178.0990  142.2400 C   0  0  0  0  0  3  0  0  0  0  0  0
  187.5040  178.0540  146.4130 N   0  0  0  0  0  0  0  0  0  0  0  0
  190.1470  177.6640  143.7620 C   0  0  0  0  0  1  0  0  0  0  0  0
  186.6330  178.3020  141.4520 C   0  0  0  0  0  0  0  0  0  0  0  0
  186.6990  178.3280  140.0480 C   0  0  0  0  0  0  0  0  0  0  0  0
  184.3460  178.7130  139.9090 C   0  0  0  0  0  0  0  0  0  0  0  0
  184.9890  178.4250  146.2930 C   0  0  0  0  0  1  0  0  0  0  0  0
  187.6930  178.0750  143.6430 C   0  0  0  0  0  0  0  0  0  0  0  0
  186.3190  178.2470  145.6170 C   0  0  0  0  0  0  0  0  0  0  0  0
  188.7120  177.8460  145.7750 O   0  0  0  0  0  0  0  0  0  0  0  0
  185.5660  178.5390  139.3240 N   0  0  0  0  0  0  0  0  0  0  0  0
  185.2910  178.4630  143.4690 C   0  0  0  0  0  3  0  0  0  0  0  0
  184.2440  178.6910  141.3080 C   0  0  0  0  0  3  0  0  0  0  0  0
  181.6850  182.3250  138.2420 O   0  0  0  0  0  1  0  0  0  0  0  0
  182.9750  180.4310  138.8000 C   0  0  0  0  0  3  0  0  0  0  0  0
  181.8580  178.4100  139.7710 C   0  0  1  0  0  3  0  0  0  0  0  0
  180.5940  178.9230  139.1340 C   0  0  0  0  0  3  0  0  0  0  0  0
  180.5600  180.1460  138.5970 C   0  0  0  0  0  3  0  0  0  0  0  0
  183.2660  178.3040  137.8240 O   0  0  0  0  0  1  0  0  0  0  0  0
  181.7790  180.9740  138.5470 C   0  0  0  0  0  0  0  0  0  0  0  0
  181.8450  176.9560  139.8020 N   0  0  0  0  0  1  0  0  0  0  0  0
  183.1220  178.9490  139.0590 C   0  0  2  0  0  0  0  0  0  0  0  0
  187.4380  177.9690  147.8700 C   0  0  0  0  0  3  0  0  0  0  0  0
  188.8120  178.2330  148.4600 C   0  0  0  0  0  2  0  0  0  0  0  0
  188.2920  176.8170  148.3740 C   0  0  0  0  0  2  0  0  0  0  0  0
  187.9950  178.1690  139.3220 C   0  0  0  0  0  2  0  0  0  0  0  0
  187.8410  177.2000  138.2510 N   0  0  0  0  0  2  0  0  0  0  0  0
  188.3980  177.8070  137.0570 C   0  0  0  0  0  2  0  0  0  0  0  0
  189.8220  177.3270  136.8660 C   0  0  0  0  0  1  0  0  0  0  0  0
  1 13  1  0  0  0  0
  2 15  2  0  0  0  0
  3 12  2  0  0  0  0
  4 11  1  0  0  0  0
  5 26  1  0  0  0  0
  6  1  1  0  0  0  0
  7  2  1  0  0  0  0
  7  4  2  0  0  0  0
  8  7  1  0  0  0  0
  9 16  2  0  0  0  0
 11  3  1  0  0  0  0
 11  1  2  0  0  0  0
 12 10  1  0  0  0  0
 12  5  1  0  0  0  0
 13  5  1  0  0  0  0
 14  9  1  0  0  0  0
 14  8  2  0  0  0  0
 15  3  1  0  0  0  0
 16  2  1  0  0  0  0
 17 23  1  0  0  0  0
 18 25  1  0  0  0  0
 19 24  1  6  0  0  0
 20 19  1  0  0  0  0
 21 20  2  0  0  0  0
 23 21  1  0  0  0  0
 23 18  2  0  0  0  0
 25 22  1  6  0  0  0
 25 19  1  0  0  0  0
 25  9  1  0  0  0  0
 26 28  1  0  0  0  0
 26 27  1  0  0  0  0
 28 27  1  0  0  0  0
 29  8  1  0  0  0  0
 30 29  1  0  0  0  0
 31 30  1  0  0  0  0
 32 31  1  0  0  0  0
M  END
>  <MODEL>
7

>  <REMARK>
 VINA RESULT:      -8.7      2.149      5.133
  Name = 
  5 active torsions:
  status: ('A' for Active; 'I' for Inactive)
    1  A    between atoms: C_1  and  N_10
    2  A    between atoms: N_4  and  C_5
    3  A    between atoms: N_4  and  C_13
    4  A    between atoms: C_13  and  C_15
    5  A    between atoms: C_16  and  C_32
                            x       y       z     vdW  Elec       q    Type
                         _______ _______ _______ _____ _____    ______ ____

>  <TORSDO>
F 5

$$$$
=
 OpenBabel10262421353D

 32 36  0  0  1  0  0  0  0  0999 V2000
  184.0690  178.8150  140.9220 C   0  0  0  0  0  0  0  0  0  0  0  0
  187.1930  178.0130  143.5600 C   0  0  0  0  0  0  0  0  0  0  0  0
  184.8300  178.4880  143.1830 C   0  0  0  0  0  0  0  0  0  0  0  0
  186.3790  178.3410  141.3020 C   0  0  0  0  0  3  0  0  0  0  0  0
  182.5050  178.9400  142.7610 N   0  0  0  0  0  0  0  0  0  0  0  0
  184.2840  178.8960  139.4440 C   0  0  0  0  0  1  0  0  0  0  0  0
  187.4390  178.0730  142.1760 C   0  0  0  0  0  0  0  0  0  0  0  0
  188.7480  177.8610  141.7090 C   0  0  0  0  0  0  0  0  0  0  0  0
  189.5300  177.5360  143.9420 C   0  0  0  0  0  0  0  0  0  0  0  0
  183.3200  178.6360  145.1540 C   0  0  0  0  0  1  0  0  0  0  0  0
  185.0750  178.5510  141.7820 C   0  0  0  0  0  0  0  0  0  0  0  0
  183.5880  178.6820  143.6760 C   0  0  0  0  0  0  0  0  0  0  0  0
  182.7780  179.0250  141.4090 O   0  0  0  0  0  0  0  0  0  0  0  0
  189.7450  177.5930  142.5960 N   0  0  0  0  0  0  0  0  0  0  0  0
  185.9040  178.2190  144.0510 C   0  0  0  0  0  3  0  0  0  0  0  0
  188.2370  177.7440  144.4420 C   0  0  0  0  0  3  0  0  0  0  0  0
  192.7780  174.1190  144.7690 O   0  0  0  0  0  1  0  0  0  0  0  0
  191.3910  175.9910  144.4000 C   0  0  0  0  0  3  0  0  0  0  0  0
  190.1420  177.0080  146.3180 C   0  0  1  0  0  3  0  0  0  0  0  0
  191.1780  176.3690  147.2050 C   0  0  0  0  0  3  0  0  0  0  0  0
  192.0510  175.4950  146.6970 C   0  0  0  0  0  3  0  0  0  0  0  0
  191.5850  178.2900  144.8850 O   0  0  0  0  0  1  0  0  0  0  0  0
  192.0660  175.2090  145.2500 C   0  0  0  0  0  0  0  0  0  0  0  0
  189.6770  178.2510  146.9120 N   0  0  0  0  0  1  0  0  0  0  0  0
  190.6710  177.2290  144.8810 C   0  0  2  0  0  0  0  0  0  0  0  0
  181.1530  179.2170  143.2400 C   0  0  0  0  0  3  0  0  0  0  0  0
  180.1640  178.3140  142.5250 C   0  0  0  0  0  2  0  0  0  0  0  0
  180.2920  179.7620  142.1120 C   0  0  0  0  0  2  0  0  0  0  0  0
  189.0710  177.8820  140.2510 C   0  0  0  0  0  2  0  0  0  0  0  0
  190.2940  177.1350  140.0090 N   0  0  0  0  0  2  0  0  0  0  0  0
  190.4470  177.0410  138.5700 C   0  0  0  0  0  2  0  0  0  0  0  0
  189.4180  177.9230  137.8950 C   0  0  0  0  0  1  0  0  0  0  0  0
  1 13  1  0  0  0  0
  1 11  2  0  0  0  0
  2 15  2  0  0  0  0
  2 16  1  0  0  0  0
  3 12  2  0  0  0  0
  3 15  1  0  0  0  0
  4 11  1  0  0  0  0
  4  7  2  0  0  0  0
  5 26  1  0  0  0  0
  5 12  1  0  0  0  0
  6  1  1  0  0  0  0
  7  2  1  0  0  0  0
  8  7  1  0  0  0  0
  8 14  2  0  0  0  0
  9 16  2  0  0  0  0
  9 25  1  0  0  0  0
 11  3  1  0  0  0  0
 12 10  1  0  0  0  0
 13  5  1  0  0  0  0
 14  9  1  0  0  0  0
 17 23  1  0  0  0  0
 18 25  1  0  0  0  0
 18 23  2  0  0  0  0
 19 24  1  1  0  0  0
 19 20  1  0  0  0  0
 21 20  2  0  0  0  0
 23 21  1  0  0  0  0
 25 22  1  1  0  0  0
 25 19  1  0  0  0  0
 27 26  1  0  0  0  0
 28 27  1  0  0  0  0
 28 26  1  0  0  0  0
 29  8  1  0  0  0  0
 30 29  1  0  0  0  0
 31 30  1  0  0  0  0
 32 31  1  0  0  0  0
M  END
>  <MODEL>
8

>  <REMARK>
 VINA RESULT:      -8.7      2.861      7.164
  Name = 
  5 active torsions:
  status: ('A' for Active; 'I' for Inactive)
    1  A    between atoms: C_1  and  N_10
    2  A    between atoms: N_4  and  C_5
    3  A    between atoms: N_4  and  C_13
    4  A    between atoms: C_13  and  C_15
    5  A    between atoms: C_16  and  C_32
                            x       y       z     vdW  Elec       q    Type
                         _______ _______ _______ _____ _____    ______ ____

>  <TORSDO>
F 5

$$$$
=
 OpenBabel10262421353D

 32 36  0  0  1  0  0  0  0  0999 V2000
  181.5410  179.1110  143.0130 C   0  0  0  0  0  0  0  0  0  0  0  0
  185.5500  178.0100  142.7260 C   0  0  0  0  0  0  0  0  0  0  0  0
  183.4230  178.5030  141.6390 C   0  0  0  0  0  0  0  0  0  0  0  0
  183.6310  178.6340  144.0670 C   0  0  0  0  0  3  0  0  0  0  0  0
  181.3110  179.0160  140.6090 N   0  0  0  0  0  0  0  0  0  0  0  0
  180.8890  179.3820  144.3310 C   0  0  0  0  0  1  0  0  0  0  0  0
  184.9780  178.2630  143.9870 C   0  0  0  0  0  0  0  0  0  0  0  0
  185.7800  178.1350  145.1350 C   0  0  0  0  0  0  0  0  0  0  0  0
  187.6620  177.5260  143.7960 C   0  0  0  0  0  0  0  0  0  0  0  0
  183.2890  178.3330  139.1610 C   0  0  0  0  0  1  0  0  0  0  0  0
  182.8400  178.7580  142.9120 C   0  0  0  0  0  0  0  0  0  0  0  0
  182.6910  178.6170  140.5100 C   0  0  0  0  0  0  0  0  0  0  0  0
  180.7640  179.2280  141.8600 O   0  0  0  0  0  0  0  0  0  0  0  0
  187.0890  177.7810  145.0060 N   0  0  0  0  0  0  0  0  0  0  0  0
  184.7780  178.1290  141.5710 C   0  0  0  0  0  3  0  0  0  0  0  0
  186.8900  177.6430  142.6300 C   0  0  0  0  0  3  0  0  0  0  0  0
  191.5270  177.1680  146.5950 O   0  0  0  0  0  1  0  0  0  0  0  0
  189.7020  177.0920  145.1030 C   0  0  0  0  0  3  0  0  0  0  0  0
  189.8960  178.1680  142.8490 C   0  0  1  0  0  3  0  0  0  0  0  0
  191.3860  178.0270  143.0180 C   0  0  0  0  0  3  0  0  0  0  0  0
  191.8970  177.6520  144.1940 C   0  0  0  0  0  3  0  0  0  0  0  0
  189.2460  175.8710  143.1380 O   0  0  0  0  0  1  0  0  0  0  0  0
  191.0080  177.2930  145.3140 C   0  0  0  0  0  0  0  0  0  0  0  0
  189.5420  178.0590  141.4420 N   0  0  0  0  0  1  0  0  0  0  0  0
  189.1200  177.1440  143.7100 C   0  0  2  0  0  0  0  0  0  0  0  0
  180.4540  179.0980  139.4280 C   0  0  0  0  0  3  0  0  0  0  0  0
  179.0030  179.2200  139.8570 C   0  0  0  0  0  2  0  0  0  0  0  0
  179.5290  177.8940  139.3590 C   0  0  0  0  0  2  0  0  0  0  0  0
  185.2440  178.4160  146.5000 C   0  0  0  0  0  2  0  0  0  0  0  0
  186.2840  179.0070  147.3230 N   0  0  0  0  0  2  0  0  0  0  0  0
  186.9690  177.9100  147.9810 C   0  0  0  0  0  2  0  0  0  0  0  0
  188.3590  178.3530  148.3840 C   0  0  0  0  0  1  0  0  0  0  0  0
  1  6  1  0  0  0  0
  2  7  1  0  0  0  0
  3 11  1  0  0  0  0
  5 13  1  0  0  0  0
  7  4  2  0  0  0  0
  7  8  1  0  0  0  0
  8 29  1  0  0  0  0
  9 14  1  0  0  0  0
 10 12  1  0  0  0  0
 11  1  2  0  0  0  0
 11  4  1  0  0  0  0
 12  5  1  0  0  0  0
 12  3  2  0  0  0  0
 13  1  1  0  0  0  0
 14  8  2  0  0  0  0
 15  3  1  0  0  0  0
 15  2  2  0  0  0  0
 16  2  1  0  0  0  0
 16  9  2  0  0  0  0
 18 23  2  0  0  0  0
 19 24  1  6  0  0  0
 19 20  1  0  0  0  0
 19 25  1  0  0  0  0
 20 21  2  0  0  0  0
 21 23  1  0  0  0  0
 23 17  1  0  0  0  0
 25 22  1  6  0  0  0
 25  9  1  0  0  0  0
 25 18  1  0  0  0  0
 26 27  1  0  0  0  0
 26  5  1  0  0  0  0
 28 26  1  0  0  0  0
 28 27  1  0  0  0  0
 29 30  1  0  0  0  0
 30 31  1  0  0  0  0
 31 32  1  0  0  0  0
M  END
>  <MODEL>
9

>  <REMARK>
 VINA RESULT:      -8.5      3.616      7.656
  Name = 
  5 active torsions:
  status: ('A' for Active; 'I' for Inactive)
    1  A    between atoms: C_1  and  N_10
    2  A    between atoms: N_4  and  C_5
    3  A    between atoms: N_4  and  C_13
    4  A    between atoms: C_13  and  C_15
    5  A    between atoms: C_16  and  C_32
                            x       y       z     vdW  Elec       q    Type
                         _______ _______ _______ _____ _____    ______ ____

>  <TORSDO>
F 5

$$$$
