=
 OpenBabel10262420363D

 55 61  0  0  1  0  0  0  0  0999 V2000
  189.9850  176.4540  142.0430 C   0  0  0  0  0  3  0  0  0  0  0  0
  187.4650  177.6210  142.4670 C   0  0  0  0  0  0  0  0  0  0  0  0
  188.0520  177.6440  141.1900 C   0  0  0  0  0  3  0  0  0  0  0  0
  189.4070  176.4300  143.3160 C   0  0  0  0  0  3  0  0  0  0  0  0
  189.3120  177.0710  140.9730 C   0  0  0  0  0  0  0  0  0  0  0  0
  188.1510  177.0140  143.5280 C   0  0  0  0  0  3  0  0  0  0  0  0
  189.9070  177.0930  139.6090 C   0  0  2  0  0  3  0  0  0  0  0  0
  187.6240  174.6430  137.2210 C   0  0  0  0  0  2  0  0  0  0  0  0
  189.8390  173.7700  136.4690 C   0  0  2  0  0  3  0  0  0  0  0  0
  188.8420  176.8800  138.5550 C   0  0  2  0  0  3  0  0  0  0  0  0
  188.9120  174.8710  136.9880 C   0  0  0  0  0  0  0  0  0  0  0  0
  190.8650  176.0780  139.4560 O   0  0  0  0  0  0  0  0  0  0  0  0
  191.4520  174.5040  137.8130 N   0  0  2  0  0  0  0  0  0  0  0  0
  191.1780  174.2180  136.5090 O   0  0  0  0  0  0  0  0  0  0  0  0
  189.5800  176.1450  137.4540 C   0  0  2  0  0  3  0  0  0  0  0  0
  190.9680  175.8720  138.0780 C   0  0  1  0  0  3  0  0  0  0  0  0
  193.5130  175.7890  137.3300 C   0  0  0  0  0  2  0  0  0  0  0  0
  195.7390  174.6450  137.1810 C   0  0  2  0  0  3  0  0  0  0  0  0
  193.5740  173.3580  137.1990 C   0  0  0  0  0  2  0  0  0  0  0  0
  194.7180  173.8810  136.3460 C   0  0  1  0  0  3  0  0  0  0  0  0
  194.6610  175.4010  136.4100 C   0  0  1  0  0  3  0  0  0  0  0  0
  192.9170  174.5240  137.9320 C   0  0  2  0  0  3  0  0  0  0  0  0
  197.1040  174.6510  136.4900 C   0  0  2  0  0  3  0  0  0  0  0  0
  197.8950  173.4430  136.9470 C   0  0  0  0  0  1  0  0  0  0  0  0
  197.8470  175.8170  136.7140 O   0  0  0  0  0  1  0  0  0  0  0  0
  187.0540  178.1940  137.3050 N   0  0  0  0  0  2  0  0  0  0  0  0
  188.8880  179.2510  138.3070 O   0  0  0  0  0  0  0  0  0  0  0  0
  186.4380  179.4340  136.8590 C   0  0  0  0  0  1  0  0  0  0  0  0
  188.2680  178.1740  138.0680 C   0  0  0  0  0  0  0  0  0  0  0  0
  190.1230  171.8250  134.7620 C   0  0  0  0  0  2  0  0  0  0  0  0
  189.5410  173.2070  135.0610 C   0  0  0  0  0  3  0  0  0  0  0  0
  188.6680  171.9620  135.1640 C   0  0  0  0  0  2  0  0  0  0  0  0
  186.1210  178.2660  142.6380 C   0  0  0  0  0  2  0  0  0  0  0  0
  185.7580  178.6540  144.0790 C   0  0  0  0  0  2  0  0  0  0  0  0
  184.2830  178.3770  144.3540 C   0  0  0  0  0  2  0  0  0  0  0  0
  183.4040  179.3290  143.5630 C   0  0  0  0  0  2  0  0  0  0  0  0
  182.7100  178.6050  142.5940 O   0  0  0  0  0  0  0  0  0  0  0  0
  180.4520  178.1710  144.1670 O   0  0  0  0  0  1  0  0  0  0  0  0
  181.0610  178.9480  142.7890 P   0  0  1  0  0  0  0  0  0  0  0  0
  180.7890  180.4370  142.9170 O   0  0  0  0  0  0  0  0  0  0  0  0
  180.1900  178.3570  141.3020 C   0  0  0  0  0  2  0  0  0  0  0  0
  181.1920  177.8920  140.2610 C   0  0  0  0  0  2  0  0  0  0  0  0
  180.8880  176.5730  139.5260 C   0  0  2  0  0  0  0  0  0  0  0  0
  182.6320  177.5960  136.8530 C   0  0  0  0  0  2  0  0  0  0  0  0
  183.1280  175.8390  138.6120 C   0  0  0  0  0  0  0  0  0  0  0  0
  183.7760  178.1350  138.9400 O   0  0  0  0  0  1  0  0  0  0  0  0
  183.5570  177.1340  137.9830 C   0  0  2  0  0  3  0  0  0  0  0  0
  180.4280  176.8370  138.0770 C   0  0  2  0  0  3  0  0  0  0  0  0
  179.8640  175.8760  140.1850 O   0  0  0  0  0  1  0  0  0  0  0  0
  181.2120  177.9040  137.3100 C   0  0  1  0  0  3  0  0  0  0  0  0
  183.6590  174.7810  138.1950 O   0  0  0  0  0  0  0  0  0  0  0  0
  179.0580  177.0980  138.0030 O   0  0  0  0  0  1  0  0  0  0  0  0
  182.0470  175.7340  139.5170 O   0  0  0  0  0  0  0  0  0  0  0  0
  180.7030  179.3400  137.2770 C   0  0  0  0  0  2  0  0  0  0  0  0
  181.6730  180.2260  137.7530 O   0  0  0  0  0  1  0  0  0  0  0  0
  1  4  1  0  0  0  0
  2 33  1  0  0  0  0
  2  6  1  0  0  0  0
  3  2  2  0  0  0  0
  4  6  2  0  0  0  0
  5  3  1  0  0  0  0
  5  1  2  0  0  0  0
  7  5  1  1  0  0  0
  9 31  1  6  0  0  0
  9 14  1  0  0  0  0
  9 11  1  0  0  0  0
 10 29  1  6  0  0  0
 10  7  1  0  0  0  0
 11  8  2  0  0  0  0
 12  7  1  0  0  0  0
 13 14  1  6  0  0  0
 13 22  1  0  0  0  0
 13 16  1  0  0  0  0
 15 11  1  1  0  0  0
 15 16  1  0  0  0  0
 15 10  1  0  0  0  0
 16 12  1  1  0  0  0
 17 22  1  0  0  0  0
 18 23  1  6  0  0  0
 20 21  1  0  0  0  0
 20 18  1  0  0  0  0
 20 19  1  1  0  0  0
 21 18  1  0  0  0  0
 21 17  1  1  0  0  0
 22 19  1  6  0  0  0
 23 25  1  0  0  0  0
 23 24  1  1  0  0  0
 26 29  1  0  0  0  0
 28 26  1  0  0  0  0
 29 27  2  0  0  0  0
 30 31  1  0  0  0  0
 30 32  1  0  0  0  0
 31 32  1  0  0  0  0
 33 34  1  0  0  0  0
 34 35  1  0  0  0  0
 36 35  1  0  0  0  0
 37 39  1  0  0  0  0
 37 36  1  0  0  0  0
 39 40  2  1  0  0  0
 39 38  1  0  0  0  0
 41 39  1  0  0  0  0
 42 41  1  0  0  0  0
 43 49  1  1  0  0  0
 43 42  1  0  0  0  0
 44 50  1  0  0  0  0
 44 47  1  0  0  0  0
 45 53  1  0  0  0  0
 47 45  1  0  0  0  0
 47 46  1  1  0  0  0
 48 52  1  1  0  0  0
 48 43  1  0  0  0  0
 50 54  1  1  0  0  0
 50 48  1  0  0  0  0
 51 45  2  0  0  0  0
 53 43  1  0  0  0  0
 54 55  1  0  0  0  0
M  END
>  <MODEL>
1

>  <REMARK>
 VINA RESULT:      -7.1      0.000      0.000
  Name = 
  15 active torsions:
  status: ('A' for Active; 'I' for Inactive)
    1  A    between atoms: C_1  and  C_21
    2  A    between atoms: C_2  and  C_44
    3  A    between atoms: O_8  and  P_20
    4  A    between atoms: O_8  and  C_43
    5  A    between atoms: C_10  and  C_32
    6  A    between atoms: C_11  and  C_38
    7  A    between atoms: C_16  and  C_17
    8  A    between atoms: C_19  and  C_40
    9  A    between atoms: P_20  and  C_42
   10  A    between atoms: C_21  and  C_42
   11  A    between atoms: C_27  and  C_54
   12  A    between atoms: N_33  and  C_52
   13  A    between atoms: C_35  and  C_43
   14  A    between atoms: C_35  and  C_51
   15  A    between atoms: C_51  and  C_54
                            x       y       z     vdW  Elec       q    Type
                         _______ _______ _______ _____ _____    ______ ____

>  <TORSDO>
F 15

$$$$
=
 OpenBabel10262420363D

 55 61  0  0  1  0  0  0  0  0999 V2000
  183.9950  172.8890  137.0940 C   0  0  0  0  0  3  0  0  0  0  0  0
  185.7690  174.5790  135.7190 C   0  0  0  0  0  0  0  0  0  0  0  0
  184.7150  175.1210  136.4760 C   0  0  0  0  0  3  0  0  0  0  0  0
  185.0400  172.3440  136.3420 C   0  0  0  0  0  3  0  0  0  0  0  0
  183.8220  174.2830  137.1570 C   0  0  0  0  0  0  0  0  0  0  0  0
  185.9240  173.1870  135.6550 C   0  0  0  0  0  3  0  0  0  0  0  0
  182.7230  174.8800  137.9640 C   0  0  2  0  0  3  0  0  0  0  0  0
  181.4490  178.2680  136.0120 C   0  0  0  0  0  2  0  0  0  0  0  0
  181.5620  179.2900  138.2870 C   0  0  2  0  0  3  0  0  0  0  0  0
  181.7410  175.6130  137.0770 C   0  0  2  0  0  3  0  0  0  0  0  0
  181.3440  178.1180  137.3280 C   0  0  0  0  0  0  0  0  0  0  0  0
  183.2230  175.8020  138.8980 O   0  0  0  0  0  0  0  0  0  0  0  0
  182.6370  177.9360  139.6870 N   0  0  2  0  0  0  0  0  0  0  0  0
  181.5970  178.8160  139.6170 O   0  0  0  0  0  0  0  0  0  0  0  0
  181.2520  176.7460  137.9570 C   0  0  2  0  0  3  0  0  0  0  0  0
  182.1420  176.6290  139.2150 C   0  0  1  0  0  3  0  0  0  0  0  0
  182.1260  178.7290  141.9760 C   0  0  0  0  0  2  0  0  0  0  0  0
  183.7980  178.4860  143.8270 C   0  0  2  0  0  3  0  0  0  0  0  0
  184.4190  178.1390  141.4120 C   0  0  0  0  0  2  0  0  0  0  0  0
  184.4800  179.0820  142.6010 C   0  0  1  0  0  3  0  0  0  0  0  0
  183.0450  179.4690  142.9360 C   0  0  1  0  0  3  0  0  0  0  0  0
  182.9630  177.7960  141.1130 C   0  0  2  0  0  3  0  0  0  0  0  0
  184.3460  179.1180  145.1090 C   0  0  2  0  0  3  0  0  0  0  0  0
  185.7980  178.7210  145.2740 C   0  0  0  0  0  1  0  0  0  0  0  0
  183.6270  178.7760  146.2610 O   0  0  0  0  0  1  0  0  0  0  0  0
  180.1130  173.7010  137.4990 N   0  0  0  0  0  2  0  0  0  0  0  0
  180.1330  174.8800  135.4760 O   0  0  0  0  0  0  0  0  0  0  0  0
  178.9880  172.8570  137.1280 C   0  0  0  0  0  1  0  0  0  0  0  0
  180.6150  174.7300  136.6360 C   0  0  0  0  0  0  0  0  0  0  0  0
  181.1440  181.8550  138.4530 C   0  0  0  0  0  2  0  0  0  0  0  0
  180.5610  180.4640  138.2010 C   0  0  0  0  0  3  0  0  0  0  0  0
  180.9150  181.3760  137.0330 C   0  0  0  0  0  2  0  0  0  0  0  0
  186.6820  175.5270  135.0000 C   0  0  0  0  0  2  0  0  0  0  0  0
  187.0840  176.7800  135.7920 C   0  0  0  0  0  2  0  0  0  0  0  0
  188.2880  176.4890  136.6820 C   0  0  0  0  0  2  0  0  0  0  0  0
  187.8380  176.1080  138.0810 C   0  0  0  0  0  2  0  0  0  0  0  0
  188.7070  176.6820  139.0080 O   0  0  0  0  0  0  0  0  0  0  0  0
  189.0920  179.4400  139.0190 O   0  0  0  0  0  1  0  0  0  0  0  0
  188.0510  178.1780  139.4620 P   0  0  1  0  0  0  0  0  0  0  0  0
  186.6920  178.4310  138.8320 O   0  0  0  0  0  0  0  0  0  0  0  0
  187.8240  178.1600  141.2690 C   0  0  0  0  0  2  0  0  0  0  0  0
  189.1070  177.7240  141.9520 C   0  0  0  0  0  2  0  0  0  0  0  0
  188.9770  176.8110  143.1860 C   0  0  2  0  0  0  0  0  0  0  0  0
  191.9470  177.8500  144.3370 C   0  0  0  0  0  2  0  0  0  0  0  0
  189.5840  178.3050  145.1330 C   0  0  0  0  0  0  0  0  0  0  0  0
  190.6180  179.7010  143.4650 O   0  0  0  0  0  1  0  0  0  0  0  0
  190.8540  178.8920  144.5870 C   0  0  2  0  0  3  0  0  0  0  0  0
  190.2800  176.0240  143.4350 C   0  0  2  0  0  3  0  0  0  0  0  0
  187.9410  175.8840  142.9950 O   0  0  0  0  0  1  0  0  0  0  0  0
  191.5800  176.8150  143.2810 C   0  0  1  0  0  3  0  0  0  0  0  0
  189.4180  178.3220  146.3770 O   0  0  0  0  0  0  0  0  0  0  0  0
  190.3360  174.8520  142.6760 O   0  0  0  0  0  1  0  0  0  0  0  0
  188.6560  177.5880  144.3440 O   0  0  0  0  0  0  0  0  0  0  0  0
  192.3280  176.7940  141.9530 C   0  0  0  0  0  2  0  0  0  0  0  0
  192.0050  177.9110  141.1780 O   0  0  0  0  0  1  0  0  0  0  0  0
  1  5  1  0  0  0  0
  2  3  1  0  0  0  0
  3  5  2  0  0  0  0
  4  1  2  0  0  0  0
  6  2  2  0  0  0  0
  6  4  1  0  0  0  0
  7  5  1  6  0  0  0
  7 12  1  0  0  0  0
  8 11  2  0  0  0  0
  9 31  1  1  0  0  0
  9 14  1  0  0  0  0
 10 29  1  1  0  0  0
 10 15  1  0  0  0  0
 10  7  1  0  0  0  0
 11  9  1  0  0  0  0
 13 14  1  1  0  0  0
 13 22  1  0  0  0  0
 15 11  1  6  0  0  0
 15 16  1  0  0  0  0
 16 12  1  6  0  0  0
 16 13  1  0  0  0  0
 18 23  1  1  0  0  0
 20 19  1  6  0  0  0
 20 21  1  0  0  0  0
 20 18  1  0  0  0  0
 21 17  1  6  0  0  0
 21 18  1  0  0  0  0
 22 19  1  6  0  0  0
 22 17  1  0  0  0  0
 23 24  1  1  0  0  0
 23 25  1  0  0  0  0
 27 29  2  0  0  0  0
 28 26  1  0  0  0  0
 29 26  1  0  0  0  0
 31 30  1  0  0  0  0
 32 31  1  0  0  0  0
 32 30  1  0  0  0  0
 33  2  1  0  0  0  0
 33 34  1  0  0  0  0
 34 35  1  0  0  0  0
 35 36  1  0  0  0  0
 36 37  1  0  0  0  0
 37 39  1  0  0  0  0
 38 39  1  0  0  0  0
 39 40  2  6  0  0  0
 39 41  1  0  0  0  0
 41 42  1  0  0  0  0
 42 43  1  0  0  0  0
 43 49  1  6  0  0  0
 43 48  1  0  0  0  0
 43 53  1  0  0  0  0
 44 47  1  0  0  0  0
 45 51  2  0  0  0  0
 47 46  1  6  0  0  0
 47 45  1  0  0  0  0
 48 52  1  6  0  0  0
 50 54  1  6  0  0  0
 50 48  1  0  0  0  0
 50 44  1  0  0  0  0
 53 45  1  0  0  0  0
 55 54  1  0  0  0  0
M  END
>  <MODEL>
2

>  <REMARK>
 VINA RESULT:      -7.0      3.796     10.340
  Name = 
  15 active torsions:
  status: ('A' for Active; 'I' for Inactive)
    1  A    between atoms: C_1  and  C_21
    2  A    between atoms: C_2  and  C_44
    3  A    between atoms: O_8  and  P_20
    4  A    between atoms: O_8  and  C_43
    5  A    between atoms: C_10  and  C_32
    6  A    between atoms: C_11  and  C_38
    7  A    between atoms: C_16  and  C_17
    8  A    between atoms: C_19  and  C_40
    9  A    between atoms: P_20  and  C_42
   10  A    between atoms: C_21  and  C_42
   11  A    between atoms: C_27  and  C_54
   12  A    between atoms: N_33  and  C_52
   13  A    between atoms: C_35  and  C_43
   14  A    between atoms: C_35  and  C_51
   15  A    between atoms: C_51  and  C_54
                            x       y       z     vdW  Elec       q    Type
                         _______ _______ _______ _____ _____    ______ ____

>  <TORSDO>
F 15

$$$$
=
 OpenBabel10262420363D

 55 61  0  0  1  0  0  0  0  0999 V2000
  180.6760  178.6320  141.6370 C   0  0  0  0  0  3  0  0  0  0  0  0
  182.4730  178.7680  143.7930 C   0  0  0  0  0  0  0  0  0  0  0  0
  182.9270  178.9610  142.4760 C   0  0  0  0  0  3  0  0  0  0  0  0
  180.2180  178.4370  142.9440 C   0  0  0  0  0  3  0  0  0  0  0  0
  182.0380  178.8860  141.3960 C   0  0  0  0  0  0  0  0  0  0  0  0
  181.1150  178.5030  144.0190 C   0  0  0  0  0  3  0  0  0  0  0  0
  182.5400  179.1100  140.0130 C   0  0  2  0  0  3  0  0  0  0  0  0
  179.7520  177.5630  137.4160 C   0  0  0  0  0  2  0  0  0  0  0  0
  181.7490  176.5630  136.2990 C   0  0  2  0  0  3  0  0  0  0  0  0
  181.3900  179.2750  139.0430 C   0  0  2  0  0  3  0  0  0  0  0  0
  181.0420  177.6500  137.1110 C   0  0  0  0  0  0  0  0  0  0  0  0
  183.3140  178.0240  139.5720 O   0  0  0  0  0  0  0  0  0  0  0  0
  183.5400  176.7630  137.6030 N   0  0  2  0  0  0  0  0  0  0  0  0
  183.1410  176.7990  136.2990 O   0  0  0  0  0  0  0  0  0  0  0  0
  181.9310  178.6910  137.7540 C   0  0  2  0  0  3  0  0  0  0  0  0
  183.2950  178.1000  138.1770 C   0  0  1  0  0  3  0  0  0  0  0  0
  185.7560  177.8690  137.5810 C   0  0  0  0  0  2  0  0  0  0  0  0
  187.7830  176.6730  136.7200 C   0  0  2  0  0  3  0  0  0  0  0  0
  185.4540  175.7950  136.3400 C   0  0  0  0  0  2  0  0  0  0  0  0
  186.6410  176.5170  135.7240 C   0  0  1  0  0  3  0  0  0  0  0  0
  186.8100  177.8240  136.4860 C   0  0  1  0  0  3  0  0  0  0  0  0
  184.9940  176.5500  137.5830 C   0  0  2  0  0  3  0  0  0  0  0  0
  189.1170  176.8390  135.9890 C   0  0  2  0  0  3  0  0  0  0  0  0
  189.3640  175.6190  135.1260 C   0  0  0  0  0  1  0  0  0  0  0  0
  190.2090  177.0450  136.8420 O   0  0  0  0  0  1  0  0  0  0  0  0
  179.6190  181.1030  138.9300 N   0  0  0  0  0  2  0  0  0  0  0  0
  181.8970  181.5730  138.6560 O   0  0  0  0  0  0  0  0  0  0  0  0
  179.2030  182.4920  138.8260 C   0  0  0  0  0  1  0  0  0  0  0  0
  180.9970  180.7110  138.8780 C   0  0  0  0  0  0  0  0  0  0  0  0
  180.4140  175.1180  134.5940 C   0  0  0  0  0  2  0  0  0  0  0  0
  181.2760  176.3550  134.8420 C   0  0  0  0  0  3  0  0  0  0  0  0
  179.7600  176.4760  134.7560 C   0  0  0  0  0  2  0  0  0  0  0  0
  183.4760  178.8440  144.9050 C   0  0  0  0  0  2  0  0  0  0  0  0
  184.9350  178.5990  144.4910 C   0  0  0  0  0  2  0  0  0  0  0  0
  185.8900  179.1080  145.5660 C   0  0  0  0  0  2  0  0  0  0  0  0
  185.9380  178.1450  146.7380 C   0  0  0  0  0  2  0  0  0  0  0  0
  186.9900  177.2500  146.5460 O   0  0  0  0  0  0  0  0  0  0  0  0
  188.6170  179.1720  147.7350 O   0  0  0  0  0  0  0  0  0  0  0  0
  188.1380  177.5460  147.7590 P   0  0  1  0  0  0  0  0  0  0  0  0
  187.6130  177.2200  149.1460 O   0  0  0  0  0  1  0  0  0  0  0  0
  189.5710  176.4670  147.4440 C   0  0  0  0  0  2  0  0  0  0  0  0
  189.9560  176.5260  145.9770 C   0  0  0  0  0  2  0  0  0  0  0  0
  191.4410  176.7650  145.6450 C   0  0  2  0  0  0  0  0  0  0  0  0
  190.6530  177.6540  142.5120 C   0  0  0  0  0  2  0  0  0  0  0  0
  191.4650  179.0140  144.4910 C   0  0  0  0  0  0  0  0  0  0  0  0
  189.1150  178.6220  144.1390 O   0  0  0  0  0  1  0  0  0  0  0  0
  190.3560  178.7800  143.5050 C   0  0  2  0  0  3  0  0  0  0  0  0
  191.8220  176.1140  144.2990 C   0  0  2  0  0  3  0  0  0  0  0  0
  192.2560  176.2070  146.6420 O   0  0  0  0  0  1  0  0  0  0  0  0
  190.8110  176.2860  143.1640 C   0  0  1  0  0  3  0  0  0  0  0  0
  192.2990  179.9160  144.2310 O   0  0  0  0  0  0  0  0  0  0  0  0
  192.1570  174.7670  144.4460 O   0  0  0  0  0  1  0  0  0  0  0  0
  191.7150  178.1680  145.5950 O   0  0  0  0  0  0  0  0  0  0  0  0
  189.7720  175.2020  142.9030 C   0  0  0  0  0  2  0  0  0  0  0  0
  188.4780  175.7260  142.9500 O   0  0  0  0  0  1  0  0  0  0  0  0
  1  4  1  0  0  0  0
  2  6  1  0  0  0  0
  2 33  1  0  0  0  0
  3  2  2  0  0  0  0
  4  6  2  0  0  0  0
  5  1  2  0  0  0  0
  5  3  1  0  0  0  0
  7  5  1  1  0  0  0
  9 31  1  6  0  0  0
  9 14  1  0  0  0  0
  9 11  1  0  0  0  0
 10 29  1  6  0  0  0
 10  7  1  0  0  0  0
 11  8  2  0  0  0  0
 12  7  1  0  0  0  0
 13 14  1  6  0  0  0
 13 16  1  0  0  0  0
 15 11  1  1  0  0  0
 15 16  1  0  0  0  0
 15 10  1  0  0  0  0
 16 12  1  1  0  0  0
 17 22  1  0  0  0  0
 18 23  1  6  0  0  0
 20 19  1  1  0  0  0
 20 21  1  0  0  0  0
 20 18  1  0  0  0  0
 21 18  1  0  0  0  0
 21 17  1  1  0  0  0
 22 19  1  6  0  0  0
 22 13  1  0  0  0  0
 23 24  1  1  0  0  0
 23 25  1  0  0  0  0
 27 29  2  0  0  0  0
 28 26  1  0  0  0  0
 29 26  1  0  0  0  0
 30 32  1  0  0  0  0
 30 31  1  0  0  0  0
 32 31  1  0  0  0  0
 34 33  1  0  0  0  0
 34 35  1  0  0  0  0
 35 36  1  0  0  0  0
 37 36  1  0  0  0  0
 37 39  1  0  0  0  0
 39 38  2  6  0  0  0
 39 40  1  0  0  0  0
 41 39  1  0  0  0  0
 42 41  1  0  0  0  0
 43 42  1  0  0  0  0
 43 49  1  1  0  0  0
 44 50  1  0  0  0  0
 44 47  1  0  0  0  0
 45 53  1  0  0  0  0
 47 46  1  1  0  0  0
 47 45  1  0  0  0  0
 48 52  1  1  0  0  0
 48 43  1  0  0  0  0
 50 54  1  1  0  0  0
 50 48  1  0  0  0  0
 51 45  2  0  0  0  0
 53 43  1  0  0  0  0
 54 55  1  0  0  0  0
M  END
>  <MODEL>
3

>  <REMARK>
 VINA RESULT:      -6.8      3.877      8.974
  Name = 
  15 active torsions:
  status: ('A' for Active; 'I' for Inactive)
    1  A    between atoms: C_1  and  C_21
    2  A    between atoms: C_2  and  C_44
    3  A    between atoms: O_8  and  P_20
    4  A    between atoms: O_8  and  C_43
    5  A    between atoms: C_10  and  C_32
    6  A    between atoms: C_11  and  C_38
    7  A    between atoms: C_16  and  C_17
    8  A    between atoms: C_19  and  C_40
    9  A    between atoms: P_20  and  C_42
   10  A    between atoms: C_21  and  C_42
   11  A    between atoms: C_27  and  C_54
   12  A    between atoms: N_33  and  C_52
   13  A    between atoms: C_35  and  C_43
   14  A    between atoms: C_35  and  C_51
   15  A    between atoms: C_51  and  C_54
                            x       y       z     vdW  Elec       q    Type
                         _______ _______ _______ _____ _____    ______ ____

>  <TORSDO>
F 15

$$$$
=
 OpenBabel10262420363D

 55 61  0  0  1  0  0  0  0  0999 V2000
  189.8040  177.0070  141.5810 C   0  0  0  0  0  3  0  0  0  0  0  0
  187.3230  178.3140  141.7420 C   0  0  0  0  0  0  0  0  0  0  0  0
  187.9800  178.1890  140.5060 C   0  0  0  0  0  3  0  0  0  0  0  0
  189.1560  177.1300  142.8140 C   0  0  0  0  0  3  0  0  0  0  0  0
  189.2220  177.5450  140.4200 C   0  0  0  0  0  0  0  0  0  0  0  0
  187.9190  177.7840  142.8940 C   0  0  0  0  0  3  0  0  0  0  0  0
  189.8910  177.4100  139.0980 C   0  0  2  0  0  3  0  0  0  0  0  0
  187.7230  174.7110  136.8790 C   0  0  0  0  0  2  0  0  0  0  0  0
  189.9680  173.7520  136.3560 C   0  0  2  0  0  3  0  0  0  0  0  0
  188.8850  177.0810  138.0160 C   0  0  2  0  0  3  0  0  0  0  0  0
  189.0230  174.9070  136.6940 C   0  0  0  0  0  0  0  0  0  0  0  0
  190.8480  176.3810  139.1150 O   0  0  0  0  0  0  0  0  0  0  0  0
  191.5110  174.6300  137.6970 N   0  0  2  0  0  0  0  0  0  0  0  0
  191.3070  174.1980  136.4200 O   0  0  0  0  0  0  0  0  0  0  0  0
  189.6770  176.2240  137.0490 C   0  0  2  0  0  3  0  0  0  0  0  0
  191.0250  176.0200  137.7770 C   0  0  1  0  0  3  0  0  0  0  0  0
  193.6050  175.8560  137.2030 C   0  0  0  0  0  2  0  0  0  0  0  0
  195.8270  174.7000  137.2950 C   0  0  2  0  0  3  0  0  0  0  0  0
  193.6550  173.4240  137.3210 C   0  0  0  0  0  2  0  0  0  0  0  0
  194.8480  173.8570  136.4850 C   0  0  1  0  0  3  0  0  0  0  0  0
  194.7990  175.3760  136.3930 C   0  0  1  0  0  3  0  0  0  0  0  0
  192.9670  174.6590  137.8950 C   0  0  2  0  0  3  0  0  0  0  0  0
  197.2280  174.6330  136.6840 C   0  0  2  0  0  3  0  0  0  0  0  0
  197.6410  173.1820  136.5490 C   0  0  0  0  0  1  0  0  0  0  0  0
  198.1970  175.3360  137.4130 O   0  0  0  0  0  1  0  0  0  0  0  0
  187.1700  178.2540  136.5430 N   0  0  0  0  0  2  0  0  0  0  0  0
  188.9750  179.4050  137.4900 O   0  0  0  0  0  0  0  0  0  0  0  0
  186.5920  179.4370  135.9260 C   0  0  0  0  0  1  0  0  0  0  0  0
  188.3510  178.3130  137.3540 C   0  0  0  0  0  0  0  0  0  0  0  0
  190.3800  171.6490  134.8780 C   0  0  0  0  0  2  0  0  0  0  0  0
  189.7440  173.0330  135.0070 C   0  0  0  0  0  3  0  0  0  0  0  0
  188.9060  171.7760  135.2100 C   0  0  0  0  0  2  0  0  0  0  0  0
  186.0030  179.0270  141.7710 C   0  0  0  0  0  2  0  0  0  0  0  0
  185.4020  179.2390  143.1690 C   0  0  0  0  0  2  0  0  0  0  0  0
  184.2280  178.2910  143.3960 C   0  0  0  0  0  2  0  0  0  0  0  0
  182.9100  179.0090  143.1690 C   0  0  0  0  0  2  0  0  0  0  0  0
  182.3930  178.6270  141.9320 O   0  0  0  0  0  0  0  0  0  0  0  0
  179.7800  177.7710  142.3730 O   0  0  0  0  0  0  0  0  0  0  0  0
  180.7580  179.0740  141.9050 P   0  0  1  0  0  0  0  0  0  0  0  0
  180.4620  180.2500  142.8190 O   0  0  0  0  0  1  0  0  0  0  0  0
  180.3480  179.5830  140.2040 C   0  0  0  0  0  2  0  0  0  0  0  0
  180.9770  178.6260  139.2080 C   0  0  0  0  0  2  0  0  0  0  0  0
  182.0060  179.2090  138.2210 C   0  0  2  0  0  0  0  0  0  0  0  0
  182.0800  176.3270  136.5120 C   0  0  0  0  0  2  0  0  0  0  0  0
  181.0990  178.5940  135.9420 C   0  0  0  0  0  0  0  0  0  0  0  0
  179.8050  176.9500  137.1350 O   0  0  0  0  0  1  0  0  0  0  0  0
  180.8230  177.1390  136.1880 C   0  0  2  0  0  3  0  0  0  0  0  0
  183.1670  178.2220  137.9810 C   0  0  2  0  0  3  0  0  0  0  0  0
  182.5470  180.3990  138.7320 O   0  0  0  0  0  1  0  0  0  0  0  0
  182.7720  176.7560  137.8000 C   0  0  1  0  0  3  0  0  0  0  0  0
  181.2430  178.9710  134.7530 O   0  0  0  0  0  0  0  0  0  0  0  0
  184.1600  178.3370  138.9570 O   0  0  0  0  0  1  0  0  0  0  0  0
  181.3740  179.5190  136.9750 O   0  0  0  0  0  0  0  0  0  0  0  0
  182.7860  175.8130  138.9980 C   0  0  0  0  0  2  0  0  0  0  0  0
  181.4910  175.5780  139.4670 O   0  0  0  0  0  1  0  0  0  0  0  0
  1  4  1  0  0  0  0
  2 33  1  0  0  0  0
  2  6  1  0  0  0  0
  3  2  2  0  0  0  0
  4  6  2  0  0  0  0
  5  3  1  0  0  0  0
  5  1  2  0  0  0  0
  7 12  1  0  0  0  0
  7  5  1  1  0  0  0
  9 31  1  6  0  0  0
  9 14  1  0  0  0  0
  9 11  1  0  0  0  0
 10 29  1  6  0  0  0
 10  7  1  0  0  0  0
 11  8  2  0  0  0  0
 13 14  1  6  0  0  0
 13 16  1  0  0  0  0
 13 22  1  0  0  0  0
 15 11  1  1  0  0  0
 15 16  1  0  0  0  0
 15 10  1  0  0  0  0
 16 12  1  1  0  0  0
 18 23  1  6  0  0  0
 19 22  1  0  0  0  0
 20 18  1  0  0  0  0
 20 19  1  1  0  0  0
 21 20  1  0  0  0  0
 21 17  1  1  0  0  0
 21 18  1  0  0  0  0
 22 17  1  6  0  0  0
 23 24  1  1  0  0  0
 23 25  1  0  0  0  0
 26 29  1  0  0  0  0
 28 26  1  0  0  0  0
 29 27  2  0  0  0  0
 30 31  1  0  0  0  0
 30 32  1  0  0  0  0
 31 32  1  0  0  0  0
 33 34  1  0  0  0  0
 34 35  1  0  0  0  0
 36 35  1  0  0  0  0
 37 36  1  0  0  0  0
 39 37  1  0  0  0  0
 39 38  2  1  0  0  0
 39 40  1  0  0  0  0
 41 39  1  0  0  0  0
 42 41  1  0  0  0  0
 43 49  1  1  0  0  0
 43 42  1  0  0  0  0
 44 50  1  0  0  0  0
 45 47  1  0  0  0  0
 45 53  1  0  0  0  0
 47 44  1  0  0  0  0
 47 46  1  1  0  0  0
 48 43  1  0  0  0  0
 48 52  1  1  0  0  0
 50 48  1  0  0  0  0
 50 54  1  1  0  0  0
 51 45  2  0  0  0  0
 53 43  1  0  0  0  0
 54 55  1  0  0  0  0
M  END
>  <MODEL>
4

>  <REMARK>
 VINA RESULT:      -6.7      0.977      2.170
  Name = 
  15 active torsions:
  status: ('A' for Active; 'I' for Inactive)
    1  A    between atoms: C_1  and  C_21
    2  A    between atoms: C_2  and  C_44
    3  A    between atoms: O_8  and  P_20
    4  A    between atoms: O_8  and  C_43
    5  A    between atoms: C_10  and  C_32
    6  A    between atoms: C_11  and  C_38
    7  A    between atoms: C_16  and  C_17
    8  A    between atoms: C_19  and  C_40
    9  A    between atoms: P_20  and  C_42
   10  A    between atoms: C_21  and  C_42
   11  A    between atoms: C_27  and  C_54
   12  A    between atoms: N_33  and  C_52
   13  A    between atoms: C_35  and  C_43
   14  A    between atoms: C_35  and  C_51
   15  A    between atoms: C_51  and  C_54
                            x       y       z     vdW  Elec       q    Type
                         _______ _______ _______ _____ _____    ______ ____

>  <TORSDO>
F 15

$$$$
=
 OpenBabel10262420363D

 55 61  0  0  1  0  0  0  0  0999 V2000
  182.3700  178.9060  143.1650 C   0  0  0  0  0  3  0  0  0  0  0  0
  185.0900  178.4260  143.6760 C   0  0  0  0  0  0  0  0  0  0  0  0
  184.5960  178.3760  142.3610 C   0  0  0  0  0  3  0  0  0  0  0  0
  182.8560  178.9550  144.4750 C   0  0  0  0  0  3  0  0  0  0  0  0
  183.2380  178.6070  142.1000 C   0  0  0  0  0  0  0  0  0  0  0  0
  184.2130  178.7130  144.7300 C   0  0  0  0  0  3  0  0  0  0  0  0
  182.7410  178.5650  140.6980 C   0  0  2  0  0  3  0  0  0  0  0  0
  180.3760  175.2230  140.3190 C   0  0  0  0  0  2  0  0  0  0  0  0
  181.6720  174.8800  138.2130 C   0  0  2  0  0  3  0  0  0  0  0  0
  181.3850  177.8970  140.6280 C   0  0  2  0  0  3  0  0  0  0  0  0
  181.0330  175.7530  139.2940 C   0  0  0  0  0  0  0  0  0  0  0  0
  183.6150  177.8420  139.8700 O   0  0  0  0  0  0  0  0  0  0  0  0
  183.4300  176.2410  138.1610 N   0  0  2  0  0  0  0  0  0  0  0  0
  182.4740  175.6780  137.3680 O   0  0  0  0  0  0  0  0  0  0  0  0
  181.3970  177.2210  139.2710 C   0  0  2  0  0  3  0  0  0  0  0  0
  182.8430  177.4470  138.7750 C   0  0  1  0  0  3  0  0  0  0  0  0
  185.4120  175.5270  136.8590 C   0  0  0  0  0  2  0  0  0  0  0  0
  187.1860  177.1720  136.2070 C   0  0  2  0  0  3  0  0  0  0  0  0
  185.4120  177.7250  137.9070 C   0  0  0  0  0  2  0  0  0  0  0  0
  186.8640  177.3330  137.6880 C   0  0  1  0  0  3  0  0  0  0  0  0
  186.8600  175.9470  137.0560 C   0  0  1  0  0  3  0  0  0  0  0  0
  184.5050  176.6820  137.2610 C   0  0  2  0  0  3  0  0  0  0  0  0
  188.6840  177.3640  135.9590 C   0  0  2  0  0  3  0  0  0  0  0  0
  189.1200  178.6850  136.5570 C   0  0  0  0  0  1  0  0  0  0  0  0
  189.0440  177.3150  134.6050 O   0  0  0  0  0  1  0  0  0  0  0  0
  180.5000  180.1970  141.2710 N   0  0  0  0  0  2  0  0  0  0  0  0
  179.0990  178.5340  140.4020 O   0  0  0  0  0  0  0  0  0  0  0  0
  179.4500  181.2000  141.3510 C   0  0  0  0  0  1  0  0  0  0  0  0
  180.2650  178.8840  140.7440 C   0  0  0  0  0  0  0  0  0  0  0  0
  180.9200  172.5180  137.4170 C   0  0  0  0  0  2  0  0  0  0  0  0
  180.7190  174.0310  137.3420 C   0  0  0  0  0  3  0  0  0  0  0  0
  179.8170  173.1760  138.2240 C   0  0  0  0  0  2  0  0  0  0  0  0
  186.5500  178.1540  143.8920 C   0  0  0  0  0  2  0  0  0  0  0  0
  187.2110  177.2460  142.8440 C   0  0  0  0  0  2  0  0  0  0  0  0
  188.4630  177.9060  142.2760 C   0  0  0  0  0  2  0  0  0  0  0  0
  188.6740  177.4960  140.8300 C   0  0  0  0  0  2  0  0  0  0  0  0
  189.7510  178.2130  140.3090 O   0  0  0  0  0  0  0  0  0  0  0  0
  192.5010  177.8200  140.5170 O   0  0  0  0  0  0  0  0  0  0  0  0
  191.0230  177.1170  140.0730 P   0  0  1  0  0  0  0  0  0  0  0  0
  190.8420  175.8360  140.8700 O   0  0  0  0  0  1  0  0  0  0  0  0
  191.0500  176.6660  138.3080 C   0  0  0  0  0  2  0  0  0  0  0  0
  192.3730  176.0080  137.9580 C   0  0  0  0  0  2  0  0  0  0  0  0
  192.3410  174.8620  136.9300 C   0  0  2  0  0  0  0  0  0  0  0  0
  195.6390  175.1590  136.4150 C   0  0  0  0  0  2  0  0  0  0  0  0
  194.2760  173.3770  137.5950 C   0  0  0  0  0  0  0  0  0  0  0  0
  195.0760  175.3120  138.7840 O   0  0  0  0  0  1  0  0  0  0  0  0
  195.3400  174.4290  137.7270 C   0  0  2  0  0  3  0  0  0  0  0  0
  193.1210  175.2380  135.6530 C   0  0  2  0  0  3  0  0  0  0  0  0
  191.0170  174.5780  136.5620 O   0  0  0  0  0  1  0  0  0  0  0  0
  194.4560  175.9500  135.8700 C   0  0  1  0  0  3  0  0  0  0  0  0
  194.6440  172.1910  137.4070 O   0  0  0  0  0  0  0  0  0  0  0  0
  192.3310  175.9570  134.7520 O   0  0  0  0  0  1  0  0  0  0  0  0
  192.8970  173.6730  137.4990 O   0  0  0  0  0  0  0  0  0  0  0  0
  194.5180  177.4730  135.8390 C   0  0  0  0  0  2  0  0  0  0  0  0
  195.7380  177.9160  135.3210 O   0  0  0  0  0  1  0  0  0  0  0  0
  1  4  1  0  0  0  0
  2 33  1  0  0  0  0
  2  6  1  0  0  0  0
  3  2  2  0  0  0  0
  4  6  2  0  0  0  0
  5  3  1  0  0  0  0
  5  1  2  0  0  0  0
  7  5  1  1  0  0  0
  9 31  1  6  0  0  0
  9 11  1  0  0  0  0
 10  7  1  0  0  0  0
 10 29  1  6  0  0  0
 11  8  2  0  0  0  0
 12  7  1  0  0  0  0
 13 14  1  6  0  0  0
 13 16  1  0  0  0  0
 14  9  1  0  0  0  0
 15 11  1  1  0  0  0
 15 10  1  0  0  0  0
 16 15  1  0  0  0  0
 16 12  1  1  0  0  0
 18 23  1  1  0  0  0
 18 21  1  0  0  0  0
 18 20  1  0  0  0  0
 20 19  1  6  0  0  0
 21 17  1  6  0  0  0
 21 20  1  0  0  0  0
 22 17  1  1  0  0  0
 22 19  1  0  0  0  0
 22 13  1  0  0  0  0
 23 24  1  6  0  0  0
 25 23  1  0  0  0  0
 26 28  1  0  0  0  0
 27 29  2  0  0  0  0
 29 26  1  0  0  0  0
 30 32  1  0  0  0  0
 31 30  1  0  0  0  0
 31 32  1  0  0  0  0
 34 33  1  0  0  0  0
 35 34  1  0  0  0  0
 36 35  1  0  0  0  0
 37 36  1  0  0  0  0
 39 37  1  0  0  0  0
 39 38  2  1  0  0  0
 39 40  1  0  0  0  0
 41 39  1  0  0  0  0
 42 41  1  0  0  0  0
 43 49  1  6  0  0  0
 43 53  1  0  0  0  0
 43 42  1  0  0  0  0
 44 47  1  0  0  0  0
 45 47  1  0  0  0  0
 47 46  1  1  0  0  0
 48 52  1  6  0  0  0
 48 50  1  0  0  0  0
 48 43  1  0  0  0  0
 50 54  1  1  0  0  0
 50 44  1  0  0  0  0
 51 45  2  0  0  0  0
 53 45  1  0  0  0  0
 55 54  1  0  0  0  0
M  END
>  <MODEL>
5

>  <REMARK>
 VINA RESULT:      -6.3      2.823      9.526
  Name = 
  15 active torsions:
  status: ('A' for Active; 'I' for Inactive)
    1  A    between atoms: C_1  and  C_21
    2  A    between atoms: C_2  and  C_44
    3  A    between atoms: O_8  and  P_20
    4  A    between atoms: O_8  and  C_43
    5  A    between atoms: C_10  and  C_32
    6  A    between atoms: C_11  and  C_38
    7  A    between atoms: C_16  and  C_17
    8  A    between atoms: C_19  and  C_40
    9  A    between atoms: P_20  and  C_42
   10  A    between atoms: C_21  and  C_42
   11  A    between atoms: C_27  and  C_54
   12  A    between atoms: N_33  and  C_52
   13  A    between atoms: C_35  and  C_43
   14  A    between atoms: C_35  and  C_51
   15  A    between atoms: C_51  and  C_54
                            x       y       z     vdW  Elec       q    Type
                         _______ _______ _______ _____ _____    ______ ____

>  <TORSDO>
F 15

$$$$
=
 OpenBabel10262420363D

 55 61  0  0  1  0  0  0  0  0999 V2000
  182.5560  177.9220  139.6440 C   0  0  0  0  0  3  0  0  0  0  0  0
  184.2530  178.8720  141.6710 C   0  0  0  0  0  0  0  0  0  0  0  0
  184.7510  178.6490  140.3750 C   0  0  0  0  0  3  0  0  0  0  0  0
  182.0550  178.1390  140.9320 C   0  0  0  0  0  3  0  0  0  0  0  0
  183.9110  178.1680  139.3620 C   0  0  0  0  0  0  0  0  0  0  0  0
  182.9030  178.6120  141.9430 C   0  0  0  0  0  3  0  0  0  0  0  0
  184.4560  177.9550  137.9930 C   0  0  2  0  0  3  0  0  0  0  0  0
  183.1700  174.2680  136.7040 C   0  0  0  0  0  2  0  0  0  0  0  0
  185.5480  173.9890  135.9980 C   0  0  2  0  0  3  0  0  0  0  0  0
  183.5310  177.0810  137.1750 C   0  0  2  0  0  3  0  0  0  0  0  0
  184.2960  174.8240  136.2710 C   0  0  0  0  0  0  0  0  0  0  0  0
  185.7090  177.3210  138.0390 O   0  0  0  0  0  0  0  0  0  0  0  0
  186.8060  175.5990  136.8770 N   0  0  2  0  0  0  0  0  0  0  0  0
  186.6460  174.8430  135.7540 O   0  0  0  0  0  0  0  0  0  0  0  0
  184.4770  176.3250  136.2640 C   0  0  2  0  0  3  0  0  0  0  0  0
  185.8740  176.7390  136.7810 C   0  0  1  0  0  3  0  0  0  0  0  0
  188.9460  175.5840  135.6320 C   0  0  0  0  0  2  0  0  0  0  0  0
  191.0910  176.2420  136.7500 C   0  0  2  0  0  3  0  0  0  0  0  0
  188.9880  175.7860  138.0580 C   0  0  0  0  0  2  0  0  0  0  0  0
  190.3430  175.2480  137.6300 C   0  0  1  0  0  3  0  0  0  0  0  0
  190.3040  175.0990  136.1150 C   0  0  1  0  0  3  0  0  0  0  0  0
  188.1720  176.1390  136.8190 C   0  0  2  0  0  3  0  0  0  0  0  0
  192.5990  175.9880  136.8110 C   0  0  2  0  0  3  0  0  0  0  0  0
  193.1770  176.7250  138.0010 C   0  0  0  0  0  1  0  0  0  0  0  0
  193.2830  176.3580  135.6460 O   0  0  0  0  0  1  0  0  0  0  0  0
  181.6970  178.8440  137.0540 N   0  0  0  0  0  2  0  0  0  0  0  0
  182.4290  177.6930  135.1510 O   0  0  0  0  0  0  0  0  0  0  0  0
  180.7590  179.6830  136.3250 C   0  0  0  0  0  1  0  0  0  0  0  0
  182.5390  177.8880  136.3960 C   0  0  0  0  0  0  0  0  0  0  0  0
  186.4790  171.8050  134.9290 C   0  0  0  0  0  2  0  0  0  0  0  0
  185.4630  172.9450  134.8610 C   0  0  0  0  0  3  0  0  0  0  0  0
  185.0610  171.5860  135.4200 C   0  0  0  0  0  2  0  0  0  0  0  0
  185.2050  179.3730  142.7170 C   0  0  0  0  0  2  0  0  0  0  0  0
  185.5250  178.3790  143.8440 C   0  0  0  0  0  2  0  0  0  0  0  0
  184.8790  178.8250  145.1510 C   0  0  0  0  0  2  0  0  0  0  0  0
  185.8730  178.7400  146.2950 C   0  0  0  0  0  2  0  0  0  0  0  0
  186.4840  177.4860  146.2730 O   0  0  0  0  0  0  0  0  0  0  0  0
  187.5770  178.3580  148.6820 O   0  0  0  0  0  1  0  0  0  0  0  0
  187.8980  177.5940  147.2020 P   0  0  1  0  0  0  0  0  0  0  0  0
  188.5110  176.2330  147.4860 O   0  0  0  0  0  0  0  0  0  0  0  0
  189.1160  178.5590  146.2520 C   0  0  0  0  0  2  0  0  0  0  0  0
  189.4050  177.8750  144.9280 C   0  0  0  0  0  2  0  0  0  0  0  0
  190.0650  178.7220  143.8240 C   0  0  2  0  0  0  0  0  0  0  0  0
  190.3840  176.0210  141.8660 C   0  0  0  0  0  2  0  0  0  0  0  0
  188.8570  178.0390  141.7110 C   0  0  0  0  0  0  0  0  0  0  0  0
  188.2060  176.0880  142.9650 O   0  0  0  0  0  1  0  0  0  0  0  0
  188.9460  176.5470  141.8650 C   0  0  2  0  0  3  0  0  0  0  0  0
  191.3310  178.0320  143.2760 C   0  0  2  0  0  3  0  0  0  0  0  0
  190.4400  179.9740  144.3330 O   0  0  0  0  0  1  0  0  0  0  0  0
  191.2210  176.5260  143.0340 C   0  0  1  0  0  3  0  0  0  0  0  0
  188.6720  178.4980  140.5570 O   0  0  0  0  0  0  0  0  0  0  0  0
  192.4580  178.3150  144.0520 O   0  0  0  0  0  1  0  0  0  0  0  0
  189.1400  178.9470  142.7550 O   0  0  0  0  0  0  0  0  0  0  0  0
  191.6780  175.5490  144.1120 C   0  0  0  0  0  2  0  0  0  0  0  0
  191.4060  174.2300  143.7420 O   0  0  0  0  0  1  0  0  0  0  0  0
  1  4  1  0  0  0  0
  2  6  1  0  0  0  0
  2 33  1  0  0  0  0
  3  2  2  0  0  0  0
  4  6  2  0  0  0  0
  5  1  2  0  0  0  0
  5  3  1  0  0  0  0
  7 12  1  0  0  0  0
  7  5  1  1  0  0  0
  9 31  1  6  0  0  0
  9 11  1  0  0  0  0
 10 29  1  6  0  0  0
 10  7  1  0  0  0  0
 11  8  2  0  0  0  0
 13 14  1  6  0  0  0
 14  9  1  0  0  0  0
 15 11  1  1  0  0  0
 15 16  1  0  0  0  0
 15 10  1  0  0  0  0
 16 13  1  0  0  0  0
 16 12  1  1  0  0  0
 18 23  1  1  0  0  0
 18 20  1  0  0  0  0
 20 19  1  6  0  0  0
 21 17  1  6  0  0  0
 21 18  1  0  0  0  0
 21 20  1  0  0  0  0
 22 17  1  6  0  0  0
 22 13  1  0  0  0  0
 22 19  1  0  0  0  0
 23 24  1  1  0  0  0
 25 23  1  0  0  0  0
 27 29  2  0  0  0  0
 28 26  1  0  0  0  0
 29 26  1  0  0  0  0
 30 32  1  0  0  0  0
 31 30  1  0  0  0  0
 31 32  1  0  0  0  0
 33 34  1  0  0  0  0
 34 35  1  0  0  0  0
 35 36  1  0  0  0  0
 37 36  1  0  0  0  0
 37 39  1  0  0  0  0
 39 40  2  1  0  0  0
 39 38  1  0  0  0  0
 41 39  1  0  0  0  0
 42 41  1  0  0  0  0
 43 49  1  1  0  0  0
 43 42  1  0  0  0  0
 44 50  1  0  0  0  0
 45 47  1  0  0  0  0
 45 53  1  0  0  0  0
 47 44  1  0  0  0  0
 47 46  1  1  0  0  0
 48 43  1  0  0  0  0
 48 52  1  1  0  0  0
 50 48  1  0  0  0  0
 50 54  1  1  0  0  0
 51 45  2  0  0  0  0
 53 43  1  0  0  0  0
 55 54  1  0  0  0  0
M  END
>  <MODEL>
6

>  <REMARK>
 VINA RESULT:      -6.3      3.252      7.138
  Name = 
  15 active torsions:
  status: ('A' for Active; 'I' for Inactive)
    1  A    between atoms: C_1  and  C_21
    2  A    between atoms: C_2  and  C_44
    3  A    between atoms: O_8  and  P_20
    4  A    between atoms: O_8  and  C_43
    5  A    between atoms: C_10  and  C_32
    6  A    between atoms: C_11  and  C_38
    7  A    between atoms: C_16  and  C_17
    8  A    between atoms: C_19  and  C_40
    9  A    between atoms: P_20  and  C_42
   10  A    between atoms: C_21  and  C_42
   11  A    between atoms: C_27  and  C_54
   12  A    between atoms: N_33  and  C_52
   13  A    between atoms: C_35  and  C_43
   14  A    between atoms: C_35  and  C_51
   15  A    between atoms: C_51  and  C_54
                            x       y       z     vdW  Elec       q    Type
                         _______ _______ _______ _____ _____    ______ ____

>  <TORSDO>
F 15

$$$$
=
 OpenBabel10262420363D

 55 61  0  0  1  0  0  0  0  0999 V2000
  188.8630  177.6080  146.2620 C   0  0  0  0  0  3  0  0  0  0  0  0
  186.1710  178.2380  145.7630 C   0  0  0  0  0  0  0  0  0  0  0  0
  186.9230  177.5290  144.8100 C   0  0  0  0  0  3  0  0  0  0  0  0
  188.1210  178.3150  147.2140 C   0  0  0  0  0  3  0  0  0  0  0  0
  188.2680  177.2190  145.0490 C   0  0  0  0  0  0  0  0  0  0  0  0
  186.7790  178.6310  146.9640 C   0  0  0  0  0  3  0  0  0  0  0  0
  189.0390  176.4530  144.0320 C   0  0  2  0  0  3  0  0  0  0  0  0
  192.4280  178.6130  143.1590 C   0  0  0  0  0  2  0  0  0  0  0  0
  191.8130  178.1020  140.7930 C   0  0  2  0  0  3  0  0  0  0  0  0
  190.5230  176.7130  144.1730 C   0  0  2  0  0  3  0  0  0  0  0  0
  191.8660  177.7820  142.2890 C   0  0  0  0  0  0  0  0  0  0  0  0
  188.6650  176.8200  142.7290 O   0  0  0  0  0  0  0  0  0  0  0  0
  189.7500  177.2770  140.6960 N   0  0  2  0  0  0  0  0  0  0  0  0
  190.9870  177.1640  140.1340 O   0  0  0  0  0  0  0  0  0  0  0  0
  191.0350  176.6050  142.7510 C   0  0  2  0  0  3  0  0  0  0  0  0
  189.7410  176.4520  141.9190 C   0  0  1  0  0  3  0  0  0  0  0  0
  189.5350  176.0030  138.5830 C   0  0  0  0  0  2  0  0  0  0  0  0
  187.4170  176.0750  137.2450 C   0  0  2  0  0  3  0  0  0  0  0  0
  187.8660  177.6920  139.1230 C   0  0  0  0  0  2  0  0  0  0  0  0
  187.8320  177.4940  137.6170 C   0  0  1  0  0  3  0  0  0  0  0  0
  188.8940  176.4560  137.2800 C   0  0  1  0  0  3  0  0  0  0  0  0
  188.8090  176.6660  139.7450 C   0  0  2  0  0  3  0  0  0  0  0  0
  186.8270  176.0390  135.8330 C   0  0  2  0  0  3  0  0  0  0  0  0
  186.3600  177.4300  135.4570 C   0  0  0  0  0  1  0  0  0  0  0  0
  185.7740  175.1280  135.6830 O   0  0  0  0  0  1  0  0  0  0  0  0
  191.5000  176.0590  146.4330 N   0  0  0  0  0  2  0  0  0  0  0  0
  191.4930  174.5810  144.6170 O   0  0  0  0  0  0  0  0  0  0  0  0
  192.0940  175.1040  147.3540 C   0  0  0  0  0  1  0  0  0  0  0  0
  191.1840  175.7180  145.0760 C   0  0  0  0  0  0  0  0  0  0  0  0
  194.0950  176.9930  140.2120 C   0  0  0  0  0  2  0  0  0  0  0  0
  193.1630  178.1920  140.0460 C   0  0  0  0  0  3  0  0  0  0  0  0
  193.2420  177.1210  138.9650 C   0  0  0  0  0  2  0  0  0  0  0  0
  184.7410  178.5540  145.4420 C   0  0  0  0  0  2  0  0  0  0  0  0
  184.5270  179.4620  144.2210 C   0  0  0  0  0  2  0  0  0  0  0  0
  183.7300  178.7340  143.1440 C   0  0  0  0  0  2  0  0  0  0  0  0
  182.2580  179.0920  143.2320 C   0  0  0  0  0  2  0  0  0  0  0  0
  181.5350  178.2470  142.3910 O   0  0  0  0  0  0  0  0  0  0  0  0
  178.9350  178.6280  143.3150 O   0  0  0  0  0  1  0  0  0  0  0  0
  180.0430  178.9920  142.0850 P   0  0  1  0  0  0  0  0  0  0  0  0
  180.1590  180.5030  141.9750 O   0  0  0  0  0  0  0  0  0  0  0  0
  179.4280  178.3710  140.4860 C   0  0  0  0  0  2  0  0  0  0  0  0
  180.5690  177.7670  139.6880 C   0  0  0  0  0  2  0  0  0  0  0  0
  180.5330  177.9450  138.1580 C   0  0  2  0  0  0  0  0  0  0  0  0
  183.8500  177.5080  137.9740 C   0  0  0  0  0  2  0  0  0  0  0  0
  181.9180  176.0230  137.2760 C   0  0  0  0  0  0  0  0  0  0  0  0
  182.8140  175.9200  139.5100 O   0  0  0  0  0  1  0  0  0  0  0  0
  183.1190  176.1760  138.1650 C   0  0  2  0  0  3  0  0  0  0  0  0
  181.6410  178.9090  137.6840 C   0  0  2  0  0  3  0  0  0  0  0  0
  179.2970  178.4770  137.7610 O   0  0  0  0  0  1  0  0  0  0  0  0
  183.0110  178.7260  138.3380 C   0  0  1  0  0  3  0  0  0  0  0  0
  182.0660  175.4040  136.1940 O   0  0  0  0  0  0  0  0  0  0  0  0
  181.2410  180.2440  137.7660 O   0  0  0  0  0  1  0  0  0  0  0  0
  180.6890  176.6780  137.5110 O   0  0  0  0  0  0  0  0  0  0  0  0
  183.3920  179.5700  139.5490 C   0  0  0  0  0  2  0  0  0  0  0  0
  184.7760  179.7490  139.6210 O   0  0  0  0  0  1  0  0  0  0  0  0
  1  4  1  0  0  0  0
  2  6  1  0  0  0  0
  3  5  1  0  0  0  0
  3  2  2  0  0  0  0
  5  1  2  0  0  0  0
  6  4  2  0  0  0  0
  7 10  1  0  0  0  0
  7  5  1  1  0  0  0
  9 31  1  6  0  0  0
  9 11  1  0  0  0  0
 10 29  1  1  0  0  0
 11  8  2  0  0  0  0
 12  7  1  0  0  0  0
 13 14  1  6  0  0  0
 13 16  1  0  0  0  0
 14  9  1  0  0  0  0
 15 11  1  6  0  0  0
 15 10  1  0  0  0  0
 16 12  1  1  0  0  0
 16 15  1  0  0  0  0
 18 23  1  6  0  0  0
 18 21  1  0  0  0  0
 18 20  1  0  0  0  0
 19 22  1  0  0  0  0
 20 19  1  1  0  0  0
 21 20  1  0  0  0  0
 21 17  1  1  0  0  0
 22 17  1  6  0  0  0
 22 13  1  0  0  0  0
 23 24  1  1  0  0  0
 25 23  1  0  0  0  0
 26 28  1  0  0  0  0
 27 29  2  0  0  0  0
 29 26  1  0  0  0  0
 31 30  1  0  0  0  0
 32 31  1  0  0  0  0
 32 30  1  0  0  0  0
 33  2  1  0  0  0  0
 34 33  1  0  0  0  0
 35 36  1  0  0  0  0
 35 34  1  0  0  0  0
 37 36  1  0  0  0  0
 39 40  2  6  0  0  0
 39 37  1  0  0  0  0
 39 38  1  0  0  0  0
 41 39  1  0  0  0  0
 42 41  1  0  0  0  0
 43 49  1  6  0  0  0
 43 42  1  0  0  0  0
 44 47  1  0  0  0  0
 44 50  1  0  0  0  0
 45 53  1  0  0  0  0
 45 47  1  0  0  0  0
 47 46  1  1  0  0  0
 48 52  1  1  0  0  0
 48 43  1  0  0  0  0
 48 50  1  0  0  0  0
 50 54  1  1  0  0  0
 51 45  2  0  0  0  0
 53 43  1  0  0  0  0
 54 55  1  0  0  0  0
M  END
>  <MODEL>
7

>  <REMARK>
 VINA RESULT:      -6.0      2.788      5.740
  Name = 
  15 active torsions:
  status: ('A' for Active; 'I' for Inactive)
    1  A    between atoms: C_1  and  C_21
    2  A    between atoms: C_2  and  C_44
    3  A    between atoms: O_8  and  P_20
    4  A    between atoms: O_8  and  C_43
    5  A    between atoms: C_10  and  C_32
    6  A    between atoms: C_11  and  C_38
    7  A    between atoms: C_16  and  C_17
    8  A    between atoms: C_19  and  C_40
    9  A    between atoms: P_20  and  C_42
   10  A    between atoms: C_21  and  C_42
   11  A    between atoms: C_27  and  C_54
   12  A    between atoms: N_33  and  C_52
   13  A    between atoms: C_35  and  C_43
   14  A    between atoms: C_35  and  C_51
   15  A    between atoms: C_51  and  C_54
                            x       y       z     vdW  Elec       q    Type
                         _______ _______ _______ _____ _____    ______ ____

>  <TORSDO>
F 15

$$$$
=
 OpenBabel10262420363D

 55 61  0  0  1  0  0  0  0  0999 V2000
  184.8200  172.8420  136.8780 C   0  0  0  0  0  3  0  0  0  0  0  0
  186.3510  174.6590  135.3800 C   0  0  0  0  0  0  0  0  0  0  0  0
  185.2640  175.1110  136.1480 C   0  0  0  0  0  3  0  0  0  0  0  0
  185.8990  172.3850  136.1140 C   0  0  0  0  0  3  0  0  0  0  0  0
  184.4920  174.2080  136.8920 C   0  0  0  0  0  0  0  0  0  0  0  0
  186.6610  173.2920  135.3660 C   0  0  0  0  0  3  0  0  0  0  0  0
  183.3560  174.7120  137.7100 C   0  0  2  0  0  3  0  0  0  0  0  0
  181.8140  178.0100  135.7970 C   0  0  0  0  0  2  0  0  0  0  0  0
  181.8630  179.0180  138.0810 C   0  0  2  0  0  3  0  0  0  0  0  0
  182.3150  175.3760  136.8350 C   0  0  2  0  0  3  0  0  0  0  0  0
  181.7290  177.8410  137.1110 C   0  0  0  0  0  0  0  0  0  0  0  0
  183.7890  175.6620  138.6500 O   0  0  0  0  0  0  0  0  0  0  0  0
  183.0460  177.7380  139.4620 N   0  0  2  0  0  0  0  0  0  0  0  0
  181.9420  178.5360  139.4060 O   0  0  0  0  0  0  0  0  0  0  0  0
  181.7460  176.4600  137.7280 C   0  0  2  0  0  3  0  0  0  0  0  0
  182.6500  176.4000  138.9800 C   0  0  1  0  0  3  0  0  0  0  0  0
  182.4140  178.3700  141.7710 C   0  0  0  0  0  2  0  0  0  0  0  0
  184.1030  178.3460  143.6220 C   0  0  2  0  0  3  0  0  0  0  0  0
  184.7730  178.1750  141.2000 C   0  0  0  0  0  2  0  0  0  0  0  0
  184.6800  179.0800  142.4170 C   0  0  1  0  0  3  0  0  0  0  0  0
  183.2020  179.2200  142.7550 C   0  0  1  0  0  3  0  0  0  0  0  0
  183.3910  177.6100  140.8850 C   0  0  2  0  0  3  0  0  0  0  0  0
  184.5420  179.0200  144.9240 C   0  0  2  0  0  3  0  0  0  0  0  0
  185.7120  178.2550  145.5070 C   0  0  0  0  0  1  0  0  0  0  0  0
  183.5220  179.1260  145.8780 O   0  0  0  0  0  1  0  0  0  0  0  0
  181.0030  173.2140  137.1360 N   0  0  0  0  0  2  0  0  0  0  0  0
  180.6110  174.6540  135.3320 O   0  0  0  0  0  0  0  0  0  0  0  0
  179.9510  172.2800  136.7670 C   0  0  0  0  0  1  0  0  0  0  0  0
  181.2570  174.4130  136.3920 C   0  0  0  0  0  0  0  0  0  0  0  0
  181.0930  181.4150  138.7450 C   0  0  0  0  0  2  0  0  0  0  0  0
  180.7740  180.1130  138.0100 C   0  0  0  0  0  3  0  0  0  0  0  0
  181.2910  181.3240  137.2440 C   0  0  0  0  0  2  0  0  0  0  0  0
  187.1300  175.6710  134.5940 C   0  0  0  0  0  2  0  0  0  0  0  0
  188.0380  176.5910  135.4240 C   0  0  0  0  0  2  0  0  0  0  0  0
  189.4390  175.9990  135.5400 C   0  0  0  0  0  2  0  0  0  0  0  0
  189.7440  175.6240  136.9790 C   0  0  0  0  0  2  0  0  0  0  0  0
  190.7640  176.4480  137.4550 O   0  0  0  0  0  0  0  0  0  0  0  0
  192.0450  175.2140  139.5980 O   0  0  0  0  0  1  0  0  0  0  0  0
  192.0500  175.4460  137.9190 P   0  0  1  0  0  0  0  0  0  0  0  0
  191.9990  174.0850  137.2450 O   0  0  0  0  0  0  0  0  0  0  0  0
  193.5990  176.2560  137.4050 C   0  0  0  0  0  2  0  0  0  0  0  0
  194.6010  175.2160  136.9370 C   0  0  0  0  0  2  0  0  0  0  0  0
  195.7650  174.8780  137.8870 C   0  0  2  0  0  0  0  0  0  0  0  0
  196.8890  172.5390  135.7660 C   0  0  0  0  0  2  0  0  0  0  0  0
  197.7980  174.8230  136.3860 C   0  0  0  0  0  0  0  0  0  0  0  0
  196.2070  174.5690  134.5960 O   0  0  0  0  0  1  0  0  0  0  0  0
  197.2550  173.9480  135.2920 C   0  0  2  0  0  3  0  0  0  0  0  0
  195.9080  173.3520  138.0700 C   0  0  2  0  0  3  0  0  0  0  0  0
  195.5390  175.4460  139.1500 O   0  0  0  0  0  1  0  0  0  0  0  0
  195.7700  172.5110  136.8000 C   0  0  1  0  0  3  0  0  0  0  0  0
  199.0450  174.9020  136.5080 O   0  0  0  0  0  0  0  0  0  0  0  0
  195.0600  172.8630  139.0670 O   0  0  0  0  0  1  0  0  0  0  0  0
  196.9890  175.4170  137.3800 O   0  0  0  0  0  0  0  0  0  0  0  0
  194.4190  171.9070  136.4330 C   0  0  0  0  0  2  0  0  0  0  0  0
  194.4180  171.4440  135.1150 O   0  0  0  0  0  1  0  0  0  0  0  0
  1  5  1  0  0  0  0
  2  3  1  0  0  0  0
  3  5  2  0  0  0  0
  4  1  2  0  0  0  0
  6  2  2  0  0  0  0
  6  4  1  0  0  0  0
  7  5  1  6  0  0  0
  7 12  1  0  0  0  0
  8 11  2  0  0  0  0
  9 31  1  1  0  0  0
  9 14  1  0  0  0  0
 10 29  1  1  0  0  0
 10  7  1  0  0  0  0
 10 15  1  0  0  0  0
 11  9  1  0  0  0  0
 13 14  1  1  0  0  0
 13 22  1  0  0  0  0
 15 11  1  6  0  0  0
 15 16  1  0  0  0  0
 16 12  1  6  0  0  0
 16 13  1  0  0  0  0
 18 23  1  1  0  0  0
 20 19  1  6  0  0  0
 20 21  1  0  0  0  0
 20 18  1  0  0  0  0
 21 17  1  6  0  0  0
 21 18  1  0  0  0  0
 22 19  1  6  0  0  0
 22 17  1  0  0  0  0
 23 24  1  1  0  0  0
 23 25  1  0  0  0  0
 27 29  2  0  0  0  0
 28 26  1  0  0  0  0
 29 26  1  0  0  0  0
 31 30  1  0  0  0  0
 32 31  1  0  0  0  0
 32 30  1  0  0  0  0
 33  2  1  0  0  0  0
 33 34  1  0  0  0  0
 34 35  1  0  0  0  0
 35 36  1  0  0  0  0
 36 37  1  0  0  0  0
 37 39  1  0  0  0  0
 39 40  2  6  0  0  0
 39 38  1  0  0  0  0
 41 39  1  0  0  0  0
 42 41  1  0  0  0  0
 42 43  1  0  0  0  0
 43 48  1  0  0  0  0
 43 49  1  1  0  0  0
 44 50  1  0  0  0  0
 45 51  2  0  0  0  0
 45 53  1  0  0  0  0
 47 46  1  1  0  0  0
 47 44  1  0  0  0  0
 47 45  1  0  0  0  0
 48 52  1  1  0  0  0
 50 54  1  6  0  0  0
 50 48  1  0  0  0  0
 53 43  1  0  0  0  0
 55 54  1  0  0  0  0
M  END
>  <MODEL>
8

>  <REMARK>
 VINA RESULT:      -5.0      3.229     12.041
  Name = 
  15 active torsions:
  status: ('A' for Active; 'I' for Inactive)
    1  A    between atoms: C_1  and  C_21
    2  A    between atoms: C_2  and  C_44
    3  A    between atoms: O_8  and  P_20
    4  A    between atoms: O_8  and  C_43
    5  A    between atoms: C_10  and  C_32
    6  A    between atoms: C_11  and  C_38
    7  A    between atoms: C_16  and  C_17
    8  A    between atoms: C_19  and  C_40
    9  A    between atoms: P_20  and  C_42
   10  A    between atoms: C_21  and  C_42
   11  A    between atoms: C_27  and  C_54
   12  A    between atoms: N_33  and  C_52
   13  A    between atoms: C_35  and  C_43
   14  A    between atoms: C_35  and  C_51
   15  A    between atoms: C_51  and  C_54
                            x       y       z     vdW  Elec       q    Type
                         _______ _______ _______ _____ _____    ______ ____

>  <TORSDO>
F 15

$$$$
=
 OpenBabel10262420363D

 55 61  0  0  1  0  0  0  0  0999 V2000
  188.7380  177.6530  146.2340 C   0  0  0  0  0  3  0  0  0  0  0  0
  186.0900  178.2730  145.5290 C   0  0  0  0  0  0  0  0  0  0  0  0
  186.9050  177.5350  144.6520 C   0  0  0  0  0  3  0  0  0  0  0  0
  187.9340  178.3890  147.1110 C   0  0  0  0  0  3  0  0  0  0  0  0
  188.2290  177.2300  144.9940 C   0  0  0  0  0  0  0  0  0  0  0  0
  186.6140  178.6990  146.7580 C   0  0  0  0  0  3  0  0  0  0  0  0
  189.0670  176.4340  144.0560 C   0  0  2  0  0  3  0  0  0  0  0  0
  192.4320  178.6440  143.2190 C   0  0  0  0  0  2  0  0  0  0  0  0
  191.9420  177.9900  140.8600 C   0  0  2  0  0  3  0  0  0  0  0  0
  190.5350  176.7460  144.2490 C   0  0  2  0  0  3  0  0  0  0  0  0
  191.9340  177.7520  142.3710 C   0  0  0  0  0  0  0  0  0  0  0  0
  188.7440  176.7210  142.7200 O   0  0  0  0  0  0  0  0  0  0  0  0
  189.9090  177.1000  140.7150 N   0  0  2  0  0  0  0  0  0  0  0  0
  191.1740  176.9940  140.2170 O   0  0  0  0  0  0  0  0  0  0  0  0
  191.1150  176.5780  142.8590 C   0  0  2  0  0  3  0  0  0  0  0  0
  189.8660  176.3410  141.9800 C   0  0  1  0  0  3  0  0  0  0  0  0
  189.7920  175.9590  138.5200 C   0  0  0  0  0  2  0  0  0  0  0  0
  187.6230  175.7770  137.2770 C   0  0  2  0  0  3  0  0  0  0  0  0
  187.9040  177.3090  139.2560 C   0  0  0  0  0  2  0  0  0  0  0  0
  187.8240  177.2150  137.7410 C   0  0  1  0  0  3  0  0  0  0  0  0
  189.0200  176.3920  137.2830 C   0  0  1  0  0  3  0  0  0  0  0  0
  189.0300  176.4120  139.7580 C   0  0  2  0  0  3  0  0  0  0  0  0
  186.9750  175.7440  135.8910 C   0  0  2  0  0  3  0  0  0  0  0  0
  185.9730  176.8750  135.7860 C   0  0  0  0  0  1  0  0  0  0  0  0
  186.3500  174.5280  135.5870 O   0  0  0  0  0  1  0  0  0  0  0  0
  191.4760  176.2620  146.5660 N   0  0  0  0  0  2  0  0  0  0  0  0
  191.4940  174.6520  144.8660 O   0  0  0  0  0  0  0  0  0  0  0  0
  192.0540  175.3780  147.5660 C   0  0  0  0  0  1  0  0  0  0  0  0
  191.1800  175.8210  145.2340 C   0  0  0  0  0  0  0  0  0  0  0  0
  194.1750  176.8130  140.2230 C   0  0  0  0  0  2  0  0  0  0  0  0
  193.3220  178.0810  140.1700 C   0  0  0  0  0  3  0  0  0  0  0  0
  193.3780  177.1380  138.9740 C   0  0  0  0  0  2  0  0  0  0  0  0
  184.6870  178.5810  145.0990 C   0  0  0  0  0  2  0  0  0  0  0  0
  184.5560  179.6450  143.9980 C   0  0  0  0  0  2  0  0  0  0  0  0
  184.6310  179.0000  142.6180 C   0  0  0  0  0  2  0  0  0  0  0  0
  183.2590  178.9670  141.9690 C   0  0  0  0  0  2  0  0  0  0  0  0
  183.2770  178.0480  140.9190 O   0  0  0  0  0  0  0  0  0  0  0  0
  181.9290  179.9380  139.3800 O   0  0  0  0  0  1  0  0  0  0  0  0
  183.2900  178.9320  139.4720 P   0  0  1  0  0  0  0  0  0  0  0  0
  184.5340  179.7910  139.3270 O   0  0  0  0  0  0  0  0  0  0  0  0
  183.2810  177.7410  138.0930 C   0  0  0  0  0  2  0  0  0  0  0  0
  181.9220  177.0720  137.9910 C   0  0  0  0  0  2  0  0  0  0  0  0
  181.8040  175.6290  138.5170 C   0  0  2  0  0  0  0  0  0  0  0  0
  180.7820  174.5590  135.5100 C   0  0  0  0  0  2  0  0  0  0  0  0
  182.9630  174.2300  136.7590 C   0  0  0  0  0  0  0  0  0  0  0  0
  182.6340  176.1370  135.3260 O   0  0  0  0  0  1  0  0  0  0  0  0
  182.2950  174.7930  135.5370 C   0  0  2  0  0  3  0  0  0  0  0  0
  180.4670  174.9890  138.0870 C   0  0  2  0  0  3  0  0  0  0  0  0
  181.8590  175.6180  139.9190 O   0  0  0  0  0  1  0  0  0  0  0  0
  180.0340  175.2490  136.6440 C   0  0  1  0  0  3  0  0  0  0  0  0
  183.4770  173.0880  136.6720 O   0  0  0  0  0  0  0  0  0  0  0  0
  179.4290  175.3070  138.9670 O   0  0  0  0  0  1  0  0  0  0  0  0
  182.8930  174.8360  138.0330 O   0  0  0  0  0  0  0  0  0  0  0  0
  179.0880  176.4020  136.3320 C   0  0  0  0  0  2  0  0  0  0  0  0
  179.7820  177.4890  135.7950 O   0  0  0  0  0  1  0  0  0  0  0  0
  1  4  1  0  0  0  0
  2  6  1  0  0  0  0
  3  5  1  0  0  0  0
  3  2  2  0  0  0  0
  5  1  2  0  0  0  0
  6  4  2  0  0  0  0
  7 10  1  0  0  0  0
  7  5  1  1  0  0  0
  9 31  1  6  0  0  0
  9 11  1  0  0  0  0
 10 29  1  1  0  0  0
 11  8  2  0  0  0  0
 12  7  1  0  0  0  0
 13 14  1  6  0  0  0
 13 16  1  0  0  0  0
 14  9  1  0  0  0  0
 15 11  1  6  0  0  0
 15 10  1  0  0  0  0
 16 12  1  1  0  0  0
 16 15  1  0  0  0  0
 18 23  1  6  0  0  0
 18 21  1  0  0  0  0
 18 20  1  0  0  0  0
 19 22  1  0  0  0  0
 20 19  1  1  0  0  0
 21 20  1  0  0  0  0
 21 17  1  1  0  0  0
 22 17  1  6  0  0  0
 22 13  1  0  0  0  0
 23 24  1  1  0  0  0
 25 23  1  0  0  0  0
 26 28  1  0  0  0  0
 27 29  2  0  0  0  0
 29 26  1  0  0  0  0
 31 30  1  0  0  0  0
 32 31  1  0  0  0  0
 32 30  1  0  0  0  0
 33  2  1  0  0  0  0
 34 33  1  0  0  0  0
 35 34  1  0  0  0  0
 36 35  1  0  0  0  0
 37 36  1  0  0  0  0
 38 39  1  0  0  0  0
 39 40  2  6  0  0  0
 39 37  1  0  0  0  0
 41 39  1  0  0  0  0
 42 41  1  0  0  0  0
 42 43  1  0  0  0  0
 43 49  1  1  0  0  0
 44 47  1  0  0  0  0
 44 50  1  0  0  0  0
 45 53  1  0  0  0  0
 47 46  1  1  0  0  0
 47 45  1  0  0  0  0
 48 43  1  0  0  0  0
 48 52  1  1  0  0  0
 50 54  1  6  0  0  0
 50 48  1  0  0  0  0
 51 45  2  0  0  0  0
 53 43  1  0  0  0  0
 55 54  1  0  0  0  0
M  END
>  <MODEL>
9

>  <REMARK>
 VINA RESULT:      -5.0      2.940      5.882
  Name = 
  15 active torsions:
  status: ('A' for Active; 'I' for Inactive)
    1  A    between atoms: C_1  and  C_21
    2  A    between atoms: C_2  and  C_44
    3  A    between atoms: O_8  and  P_20
    4  A    between atoms: O_8  and  C_43
    5  A    between atoms: C_10  and  C_32
    6  A    between atoms: C_11  and  C_38
    7  A    between atoms: C_16  and  C_17
    8  A    between atoms: C_19  and  C_40
    9  A    between atoms: P_20  and  C_42
   10  A    between atoms: C_21  and  C_42
   11  A    between atoms: C_27  and  C_54
   12  A    between atoms: N_33  and  C_52
   13  A    between atoms: C_35  and  C_43
   14  A    between atoms: C_35  and  C_51
   15  A    between atoms: C_51  and  C_54
                            x       y       z     vdW  Elec       q    Type
                         _______ _______ _______ _____ _____    ______ ____

>  <TORSDO>
F 15

$$$$
