=
 OpenBabel10262421503D

 30 36  0  0  1  0  0  0  0  0999 V2000
  187.3450  178.1720  145.0160 C   0  0  2  0  0  3  0  0  0  0  0  0
  184.9730  178.6280  145.8430 C   0  0  1  0  0  3  0  0  0  0  0  0
  186.6660  179.0160  141.0870 C   0  0  0  0  0  2  0  0  0  0  0  0
  188.2420  177.8690  143.8270 C   0  0  1  0  0  3  0  0  0  0  0  0
  187.8570  177.4530  146.2270 C   0  0  0  0  0  3  0  0  0  0  0  0
  191.6810  177.1440  145.6750 S   0  0  0  0  0  0  0  0  0  0  0  0
  190.8370  177.1500  141.9530 C   0  0  1  0  0  3  0  0  0  0  0  0
  190.1220  178.0740  145.4450 C   0  0  2  0  0  3  0  0  0  0  0  0
  189.7690  176.7140  147.4740 N   0  0  0  0  0  2  0  0  0  0  0  0
  189.6220  176.5640  141.2330 C   0  0  2  0  0  3  0  0  0  0  0  0
  187.9440  178.4500  140.5940 C   0  0  0  0  0  0  0  0  0  0  0  0
  189.1740  177.4520  146.4260 C   0  0  0  0  0  0  0  0  0  0  0  0
  189.5910  177.9830  144.0110 C   0  0  2  0  0  3  0  0  0  0  0  0
  183.5000  178.7060  145.4500 C   0  0  0  0  0  2  0  0  0  0  0  0
  189.9970  176.3780  139.7720 C   0  0  0  0  0  2  0  0  0  0  0  0
  191.8070  177.5410  140.8530 C   0  0  0  0  0  2  0  0  0  0  0  0
  191.7230  175.2980  147.7030 C   0  0  0  0  0  1  0  0  0  0  0  0
  185.0490  177.8090  147.1200 C   0  0  0  0  0  1  0  0  0  0  0  0
  186.2930  178.0370  142.2050 C   0  0  1  0  0  3  0  0  0  0  0  0
  183.3280  179.4850  144.1580 C   0  0  0  0  0  2  0  0  0  0  0  0
  191.2160  176.6880  147.3840 C   0  0  1  0  0  3  0  0  0  0  0  0
  185.8390  178.0070  144.7190 C   0  0  1  0  0  3  0  0  0  0  0  0
  187.5850  177.2850  142.5790 C   0  0  1  0  0  3  0  0  0  0  0  0
  188.5610  178.8920  139.5900 O   0  0  0  0  0  0  0  0  0  0  0  0
  188.4210  177.3840  141.4030 N   0  0  0  0  0  0  0  0  0  0  0  0
  191.4870  176.6290  139.6890 C   0  0  0  0  0  2  0  0  0  0  0  0
  191.6510  179.0030  143.2720 O   0  0  0  0  0  1  0  0  0  0  0  0
  184.0720  178.7680  143.0470 C   0  0  0  0  0  2  0  0  0  0  0  0
  185.5610  178.7160  143.3690 C   0  0  2  0  0  3  0  0  0  0  0  0
  190.4930  178.3470  142.8430 C   0  0  1  0  0  3  0  0  0  0  0  0
  1  5  1  1  0  0  0
  2 18  1  1  0  0  0
  3 19  1  0  0  0  0
  4 13  1  0  0  0  0
  4  1  1  0  0  0  0
  5 12  2  0  0  0  0
  6 21  1  0  0  0  0
  7 30  1  0  0  0  0
  8  6  1  0  0  0  0
  8 12  1  0  0  0  0
 10 25  1  0  0  0  0
 10  7  1  0  0  0  0
 11  3  1  0  0  0  0
 11 25  1  0  0  0  0
 12  9  1  0  0  0  0
 13  8  1  0  0  0  0
 14  2  1  0  0  0  0
 15 10  1  0  0  0  0
 16  7  1  0  0  0  0
 19 23  1  0  0  0  0
 19 29  1  0  0  0  0
 20 14  1  0  0  0  0
 21  9  1  0  0  0  0
 21 17  1  0  0  0  0
 22  1  1  0  0  0  0
 22  2  1  0  0  0  0
 23  4  1  0  0  0  0
 24 11  2  0  0  0  0
 25 23  1  0  0  0  0
 26 15  1  0  0  0  0
 26 16  1  0  0  0  0
 28 29  1  0  0  0  0
 28 20  1  0  0  0  0
 29 22  1  0  0  0  0
 30 27  1  0  0  0  0
 30 13  1  0  0  0  0
M  END
>  <MODEL>
1

>  <REMARK>
 VINA RESULT:     -11.8      0.000      0.000
  Name = 
  0 active torsions:
  status: ('A' for Active; 'I' for Inactive)
                            x       y       z     vdW  Elec       q    Type
                         _______ _______ _______ _____ _____    ______ ____

>  <TORSDO>
F 0

$$$$
=
 OpenBabel10262421503D

 30 36  0  0  1  0  0  0  0  0999 V2000
  186.6710  178.2990  142.8870 C   0  0  2  0  0  3  0  0  0  0  0  0
  187.6840  178.1340  145.2240 C   0  0  1  0  0  3  0  0  0  0  0  0
  182.9210  179.3890  144.0520 C   0  0  0  0  0  2  0  0  0  0  0  0
  185.4040  178.3290  142.0480 C   0  0  1  0  0  3  0  0  0  0  0  0
  187.7530  177.5840  142.1350 C   0  0  0  0  0  3  0  0  0  0  0  0
  186.9470  178.1810  138.3920 S   0  0  0  0  0  0  0  0  0  0  0  0
  183.3080  178.4000  139.5240 C   0  0  1  0  0  3  0  0  0  0  0  0
  186.9230  178.7660  140.1250 C   0  0  2  0  0  3  0  0  0  0  0  0
  188.7870  177.1530  140.0140 N   0  0  0  0  0  2  0  0  0  0  0  0
  182.5940  177.6420  140.6440 C   0  0  2  0  0  3  0  0  0  0  0  0
  182.2890  179.1720  142.7290 C   0  0  0  0  0  0  0  0  0  0  0  0
  187.8740  177.8510  140.8360 C   0  0  0  0  0  0  0  0  0  0  0  0
  185.5220  178.7150  140.7420 C   0  0  2  0  0  3  0  0  0  0  0  0
  187.3890  177.9290  146.7080 C   0  0  0  0  0  2  0  0  0  0  0  0
  181.1020  177.7000  140.3610 C   0  0  0  0  0  2  0  0  0  0  0  0
  182.2100  179.1090  138.7530 C   0  0  0  0  0  2  0  0  0  0  0  0
  188.7280  176.1830  137.7930 C   0  0  0  0  0  1  0  0  0  0  0  0
  188.8450  177.2200  144.8710 C   0  0  0  0  0  1  0  0  0  0  0  0
  183.9310  178.2380  144.1160 C   0  0  1  0  0  3  0  0  0  0  0  0
  186.2150  178.7850  147.1470 C   0  0  0  0  0  2  0  0  0  0  0  0
  188.6110  177.4550  138.6070 C   0  0  1  0  0  3  0  0  0  0  0  0
  186.4440  177.8420  144.3430 C   0  0  1  0  0  3  0  0  0  0  0  0
  184.1340  177.7520  142.6680 C   0  0  1  0  0  3  0  0  0  0  0  0
  181.3120  179.8440  142.3050 O   0  0  0  0  0  0  0  0  0  0  0  0
  182.9330  178.1570  141.9730 N   0  0  0  0  0  0  0  0  0  0  0  0
  180.9640  178.2780  138.9700 C   0  0  0  0  0  2  0  0  0  0  0  0
  184.7950  180.2340  139.0120 O   0  0  0  0  0  1  0  0  0  0  0  0
  184.9830  178.3720  146.3630 C   0  0  0  0  0  2  0  0  0  0  0  0
  185.2090  178.6120  144.8750 C   0  0  2  0  0  3  0  0  0  0  0  0
  184.3570  179.3900  140.0380 C   0  0  1  0  0  3  0  0  0  0  0  0
  1  5  1  6  0  0  0
  1 22  1  0  0  0  0
  2 18  1  6  0  0  0
  2 14  1  0  0  0  0
  3 19  1  0  0  0  0
  4 23  1  0  0  0  0
  4  1  1  0  0  0  0
  6 21  1  0  0  0  0
  6  8  1  0  0  0  0
  7 30  1  0  0  0  0
  7 10  1  0  0  0  0
  8 13  1  0  0  0  0
  8 12  1  0  0  0  0
  9 12  1  0  0  0  0
 10 25  1  0  0  0  0
 11  3  1  0  0  0  0
 12  5  2  0  0  0  0
 13  4  1  0  0  0  0
 14 20  1  0  0  0  0
 15 10  1  0  0  0  0
 16 26  1  0  0  0  0
 16  7  1  0  0  0  0
 17 21  1  0  0  0  0
 19 29  1  0  0  0  0
 21  9  1  0  0  0  0
 22 29  1  0  0  0  0
 22  2  1  0  0  0  0
 23 19  1  0  0  0  0
 24 11  2  0  0  0  0
 25 23  1  0  0  0  0
 25 11  1  0  0  0  0
 26 15  1  0  0  0  0
 27 30  1  0  0  0  0
 28 20  1  0  0  0  0
 29 28  1  0  0  0  0
 30 13  1  0  0  0  0
M  END
>  <MODEL>
2

>  <REMARK>
 VINA RESULT:      -9.5      3.279      6.409
  Name = 
  0 active torsions:
  status: ('A' for Active; 'I' for Inactive)
                            x       y       z     vdW  Elec       q    Type
                         _______ _______ _______ _____ _____    ______ ____

>  <TORSDO>
F 0

$$$$
