=
 OpenBabel10262420433D

 28 31  0  0  1  0  0  0  0  0999 V2000
  182.4210  179.0850  139.2420 C   0  0  2  0  0  3  0  0  0  0  0  0
  186.2900  177.9110  142.5290 C   0  0  0  0  0  3  0  0  0  0  0  0
  180.5280  179.4160  143.7530 O   0  0  0  0  0  0  0  0  0  0  0  0
  185.3530  178.3480  144.7290 C   0  0  0  0  0  0  0  0  0  0  0  0
  183.9160  178.4830  142.7570 C   0  0  0  0  0  0  0  0  0  0  0  0
  187.6990  177.7880  144.4940 C   0  0  0  0  0  0  0  0  0  0  0  0
  185.1830  178.2450  143.3260 C   0  0  0  0  0  0  0  0  0  0  0  0
  183.0150  178.9050  144.9810 C   0  0  0  0  0  3  0  0  0  0  0  0
  186.6080  178.1210  145.3010 C   0  0  0  0  0  3  0  0  0  0  0  0
  181.2740  178.9630  141.5360 C   0  0  2  0  0  3  0  0  0  0  0  0
  183.7040  178.3260  141.2710 C   0  0  0  0  0  2  0  0  0  0  0  0
  184.2710  178.6770  145.5440 C   0  0  0  0  0  3  0  0  0  0  0  0
  180.9180  177.1380  139.7620 C   0  0  0  0  0  2  0  0  0  0  0  0
  181.4930  179.0860  143.0140 C   0  0  0  0  0  0  0  0  0  0  0  0
  180.6560  177.5960  141.2020 C   0  0  0  0  0  2  0  0  0  0  0  0
  189.0300  177.5490  145.1080 C   0  0  0  0  0  1  0  0  0  0  0  0
  187.5410  177.6840  143.1100 C   0  0  0  0  0  3  0  0  0  0  0  0
  182.8240  178.8060  143.5960 C   0  0  0  0  0  0  0  0  0  0  0  0
  181.1590  178.3190  138.8320 C   0  0  0  0  0  2  0  0  0  0  0  0
  182.5820  179.2330  140.7670 C   0  0  1  0  0  3  0  0  0  0  0  0
  182.4030  180.4550  138.5800 C   0  0  0  0  0  2  0  0  0  0  0  0
  181.1360  180.6620  137.7560 C   0  0  0  0  0  2  0  0  0  0  0  0
  180.1130  182.9580  137.5810 C   0  0  0  0  0  0  0  0  0  0  0  0
  180.3240  181.7380  138.3110 N   0  0  0  0  0  0  0  0  0  0  0  0
  179.3960  183.8730  138.0690 O   0  0  0  0  0  0  0  0  0  0  0  0
  179.7700  181.5830  139.6490 C   0  0  0  0  0  1  0  0  0  0  0  0
  181.0770  184.6550  136.0740 C   0  0  0  0  0  1  0  0  0  0  0  0
  180.7560  183.1840  136.2530 C   0  0  0  0  0  2  0  0  0  0  0  0
  1 21  1  6  0  0  0
  1 20  1  0  0  0  0
  2 17  2  0  0  0  0
  2  7  1  0  0  0  0
  4  9  1  0  0  0  0
  4 12  1  0  0  0  0
  5  7  1  0  0  0  0
  5 18  2  0  0  0  0
  6 16  1  0  0  0  0
  6  9  2  0  0  0  0
  7  4  2  0  0  0  0
  8 12  2  0  0  0  0
 10 15  1  1  0  0  0
 10 14  1  0  0  0  0
 11  5  1  0  0  0  0
 13 15  1  0  0  0  0
 14 18  1  0  0  0  0
 14  3  2  0  0  0  0
 17  6  1  0  0  0  0
 18  8  1  0  0  0  0
 19  1  1  0  0  0  0
 19 13  1  0  0  0  0
 20 11  1  1  0  0  0
 20 10  1  0  0  0  0
 22 24  1  0  0  0  0
 22 21  1  0  0  0  0
 23 25  2  0  0  0  0
 23 24  1  0  0  0  0
 24 26  1  0  0  0  0
 27 28  1  0  0  0  0
 28 23  1  0  0  0  0
M  END
>  <MODEL>
1

>  <REMARK>
 VINA RESULT:      -8.7      0.000      0.000
  Name = 
  4 active torsions:
  status: ('A' for Active; 'I' for Inactive)
    1  A    between atoms: C_1  and  C_2
    2  A    between atoms: C_2  and  C_3
    3  A    between atoms: C_3  and  N_7
    4  A    between atoms: C_6  and  C_11
                            x       y       z     vdW  Elec       q    Type
                         _______ _______ _______ _____ _____    ______ ____

>  <TORSDO>
F 4

$$$$
=
 OpenBabel10262420433D

 28 31  0  0  1  0  0  0  0  0999 V2000
  186.8070  177.9260  137.6860 C   0  0  2  0  0  3  0  0  0  0  0  0
  185.7990  178.5780  142.7570 C   0  0  0  0  0  3  0  0  0  0  0  0
  190.7260  176.2180  140.0870 O   0  0  0  0  0  0  0  0  0  0  0  0
  187.6560  177.4790  143.8760 C   0  0  0  0  0  0  0  0  0  0  0  0
  187.6890  177.7250  141.4450 C   0  0  0  0  0  0  0  0  0  0  0  0
  185.7830  178.3190  145.1640 C   0  0  0  0  0  0  0  0  0  0  0  0
  187.0440  177.9320  142.6820 C   0  0  0  0  0  0  0  0  0  0  0  0
  189.5330  176.6380  142.6080 C   0  0  0  0  0  3  0  0  0  0  0  0
  187.0210  177.6740  145.1070 C   0  0  0  0  0  3  0  0  0  0  0  0
  189.0170  177.3170  138.8440 C   0  0  2  0  0  3  0  0  0  0  0  0
  187.0780  178.2480  140.1680 C   0  0  0  0  0  2  0  0  0  0  0  0
  188.8930  176.8360  143.8310 C   0  0  0  0  0  3  0  0  0  0  0  0
  188.7600  179.5010  137.5130 C   0  0  0  0  0  2  0  0  0  0  0  0
  189.6260  176.8300  140.1230 C   0  0  0  0  0  0  0  0  0  0  0  0
  189.6530  178.6530  138.4260 C   0  0  0  0  0  2  0  0  0  0  0  0
  185.1120  178.5220  146.4740 C   0  0  0  0  0  1  0  0  0  0  0  0
  185.1730  178.7700  143.9910 C   0  0  0  0  0  3  0  0  0  0  0  0
  188.9480  177.0810  141.4140 C   0  0  0  0  0  0  0  0  0  0  0  0
  187.7740  178.6400  136.7350 C   0  0  0  0  0  2  0  0  0  0  0  0
  187.4830  177.3970  138.9650 C   0  0  1  0  0  3  0  0  0  0  0  0
  186.1310  176.7870  136.9370 C   0  0  0  0  0  2  0  0  0  0  0  0
  184.6280  177.0110  136.8170 C   0  0  0  0  0  2  0  0  0  0  0  0
  183.2810  176.6920  138.9230 C   0  0  0  0  0  0  0  0  0  0  0  0
  183.8980  176.1520  137.7430 N   0  0  0  0  0  0  0  0  0  0  0  0
  182.6410  175.9390  139.7050 O   0  0  0  0  0  0  0  0  0  0  0  0
  183.8480  174.7200  137.4830 C   0  0  0  0  0  1  0  0  0  0  0  0
  182.8600  178.3930  140.6580 C   0  0  0  0  0  1  0  0  0  0  0  0
  183.4070  178.1390  139.2670 C   0  0  0  0  0  2  0  0  0  0  0  0
  1 21  1  6  0  0  0
  1 20  1  0  0  0  0
  2 17  1  0  0  0  0
  3 14  2  0  0  0  0
  4  9  2  0  0  0  0
  5  7  1  0  0  0  0
  6 16  1  0  0  0  0
  7  2  2  0  0  0  0
  7  4  1  0  0  0  0
  8 12  2  0  0  0  0
  9  6  1  0  0  0  0
 10 15  1  1  0  0  0
 10 20  1  0  0  0  0
 10 14  1  0  0  0  0
 11  5  1  0  0  0  0
 12  4  1  0  0  0  0
 13 15  1  0  0  0  0
 14 18  1  0  0  0  0
 17  6  2  0  0  0  0
 18  5  2  0  0  0  0
 18  8  1  0  0  0  0
 19 13  1  0  0  0  0
 19  1  1  0  0  0  0
 20 11  1  1  0  0  0
 22 21  1  0  0  0  0
 22 24  1  0  0  0  0
 23 28  1  0  0  0  0
 23 25  2  0  0  0  0
 24 23  1  0  0  0  0
 26 24  1  0  0  0  0
 28 27  1  0  0  0  0
M  END
>  <MODEL>
2

>  <REMARK>
 VINA RESULT:      -8.3      4.086      6.380
  Name = 
  4 active torsions:
  status: ('A' for Active; 'I' for Inactive)
    1  A    between atoms: C_1  and  C_2
    2  A    between atoms: C_2  and  C_3
    3  A    between atoms: C_3  and  N_7
    4  A    between atoms: C_6  and  C_11
                            x       y       z     vdW  Elec       q    Type
                         _______ _______ _______ _____ _____    ______ ____

>  <TORSDO>
F 4

$$$$
=
 OpenBabel10262420433D

 28 31  0  0  1  0  0  0  0  0999 V2000
  186.9800  177.8510  137.7780 C   0  0  2  0  0  3  0  0  0  0  0  0
  185.7450  178.5810  142.7870 C   0  0  0  0  0  3  0  0  0  0  0  0
  190.7890  176.1870  140.3790 O   0  0  0  0  0  0  0  0  0  0  0  0
  187.5510  177.5030  144.0060 C   0  0  0  0  0  0  0  0  0  0  0  0
  187.6930  177.7110  141.5750 C   0  0  0  0  0  0  0  0  0  0  0  0
  185.6210  178.3600  145.1950 C   0  0  0  0  0  0  0  0  0  0  0  0
  186.9930  177.9370  142.7780 C   0  0  0  0  0  0  0  0  0  0  0  0
  189.4840  176.6450  142.8370 C   0  0  0  0  0  3  0  0  0  0  0  0
  186.8610  177.7160  145.2030 C   0  0  0  0  0  3  0  0  0  0  0  0
  189.1360  177.2640  139.0430 C   0  0  2  0  0  3  0  0  0  0  0  0
  187.1390  178.2130  140.2640 C   0  0  0  0  0  2  0  0  0  0  0  0
  188.7890  176.8610  144.0260 C   0  0  0  0  0  3  0  0  0  0  0  0
  188.9380  179.4260  137.6670 C   0  0  0  0  0  2  0  0  0  0  0  0
  189.6870  176.7970  140.3560 C   0  0  0  0  0  0  0  0  0  0  0  0
  189.7900  178.5940  138.6330 C   0  0  0  0  0  2  0  0  0  0  0  0
  184.8920  178.5830  146.4700 C   0  0  0  0  0  1  0  0  0  0  0  0
  185.0640  178.7920  143.9890 C   0  0  0  0  0  3  0  0  0  0  0  0
  188.9520  177.0680  141.6110 C   0  0  0  0  0  0  0  0  0  0  0  0
  187.9880  178.5510  136.8590 C   0  0  0  0  0  2  0  0  0  0  0  0
  187.5980  177.3430  139.0940 C   0  0  1  0  0  3  0  0  0  0  0  0
  186.3390  176.7000  137.0180 C   0  0  0  0  0  2  0  0  0  0  0  0
  187.3340  176.0250  136.0790 C   0  0  0  0  0  2  0  0  0  0  0  0
  189.2600  174.5340  136.7270 C   0  0  0  0  0  0  0  0  0  0  0  0
  187.8480  174.7920  136.6640 N   0  0  0  0  0  0  0  0  0  0  0  0
  189.6880  173.4690  137.2490 O   0  0  0  0  0  0  0  0  0  0  0  0
  186.9010  173.7920  137.1390 C   0  0  0  0  0  1  0  0  0  0  0  0
  191.5240  175.4790  136.9660 C   0  0  0  0  0  1  0  0  0  0  0  0
  190.2460  175.4960  136.1520 C   0  0  0  0  0  2  0  0  0  0  0  0
  1 21  1  6  0  0  0
  1 20  1  0  0  0  0
  2 17  1  0  0  0  0
  4 12  1  0  0  0  0
  4  9  2  0  0  0  0
  5 18  2  0  0  0  0
  5  7  1  0  0  0  0
  6  9  1  0  0  0  0
  6 16  1  0  0  0  0
  7  2  2  0  0  0  0
  7  4  1  0  0  0  0
  8 12  2  0  0  0  0
 10 15  1  1  0  0  0
 10 20  1  0  0  0  0
 10 14  1  0  0  0  0
 11  5  1  0  0  0  0
 13 15  1  0  0  0  0
 14  3  2  0  0  0  0
 14 18  1  0  0  0  0
 17  6  2  0  0  0  0
 18  8  1  0  0  0  0
 19 13  1  0  0  0  0
 19  1  1  0  0  0  0
 20 11  1  1  0  0  0
 22 24  1  0  0  0  0
 22 21  1  0  0  0  0
 23 25  2  0  0  0  0
 24 23  1  0  0  0  0
 24 26  1  0  0  0  0
 28 23  1  0  0  0  0
 28 27  1  0  0  0  0
M  END
>  <MODEL>
3

>  <REMARK>
 VINA RESULT:      -8.1      5.900      7.969
  Name = 
  4 active torsions:
  status: ('A' for Active; 'I' for Inactive)
    1  A    between atoms: C_1  and  C_2
    2  A    between atoms: C_2  and  C_3
    3  A    between atoms: C_3  and  N_7
    4  A    between atoms: C_6  and  C_11
                            x       y       z     vdW  Elec       q    Type
                         _______ _______ _______ _____ _____    ______ ____

>  <TORSDO>
F 4

$$$$
=
 OpenBabel10262420433D

 28 31  0  0  1  0  0  0  0  0999 V2000
  183.2010  178.5310  139.3890 C   0  0  2  0  0  3  0  0  0  0  0  0
  186.8120  177.7380  143.0610 C   0  0  0  0  0  3  0  0  0  0  0  0
  180.9560  179.2510  143.6880 O   0  0  0  0  0  0  0  0  0  0  0  0
  185.7000  178.3640  145.1300 C   0  0  0  0  0  0  0  0  0  0  0  0
  184.4210  178.2880  143.0490 C   0  0  0  0  0  0  0  0  0  0  0  0
  188.0630  177.8250  145.1320 C   0  0  0  0  0  0  0  0  0  0  0  0
  185.6420  178.1260  143.7350 C   0  0  0  0  0  0  0  0  0  0  0  0
  183.3440  178.9010  145.1470 C   0  0  0  0  0  3  0  0  0  0  0  0
  186.9080  178.2130  145.8170 C   0  0  0  0  0  3  0  0  0  0  0  0
  181.8790  178.6050  141.5880 C   0  0  2  0  0  3  0  0  0  0  0  0
  184.3280  177.9880  141.5730 C   0  0  0  0  0  2  0  0  0  0  0  0
  184.5540  178.7490  145.8240 C   0  0  0  0  0  3  0  0  0  0  0  0
  181.6810  176.6150  139.9730 C   0  0  0  0  0  2  0  0  0  0  0  0
  181.9790  178.8700  143.0600 C   0  0  0  0  0  0  0  0  0  0  0  0
  181.3020  177.2020  141.3390 C   0  0  0  0  0  2  0  0  0  0  0  0
  189.3440  177.6680  145.8670 C   0  0  0  0  0  1  0  0  0  0  0  0
  188.0150  177.5880  143.7560 C   0  0  0  0  0  3  0  0  0  0  0  0
  183.2630  178.6690  143.7680 C   0  0  0  0  0  0  0  0  0  0  0  0
  181.9830  177.7080  138.9560 C   0  0  0  0  0  2  0  0  0  0  0  0
  183.2400  178.8240  140.9000 C   0  0  1  0  0  3  0  0  0  0  0  0
  183.2210  179.8320  138.5990 C   0  0  0  0  0  2  0  0  0  0  0  0
  181.8660  180.1230  137.9640 C   0  0  0  0  0  2  0  0  0  0  0  0
  179.9920  181.5740  138.8210 C   0  0  0  0  0  0  0  0  0  0  0  0
  181.3560  181.4190  138.3960 N   0  0  0  0  0  0  0  0  0  0  0  0
  179.5720  182.6990  139.2050 O   0  0  0  0  0  0  0  0  0  0  0  0
  182.2390  182.5760  138.3370 C   0  0  0  0  0  1  0  0  0  0  0  0
  178.9610  179.7780  140.1580 C   0  0  0  0  0  1  0  0  0  0  0  0
  179.0390  180.4260  138.7900 C   0  0  0  0  0  2  0  0  0  0  0  0
  1 21  1  6  0  0  0
  1 20  1  0  0  0  0
  2  7  2  0  0  0  0
  2 17  1  0  0  0  0
  4  9  2  0  0  0  0
  4 12  1  0  0  0  0
  5  7  1  0  0  0  0
  5 18  2  0  0  0  0
  6  9  1  0  0  0  0
  6 16  1  0  0  0  0
  7  4  1  0  0  0  0
  8 12  2  0  0  0  0
 10 15  1  1  0  0  0
 10 14  1  0  0  0  0
 11  5  1  0  0  0  0
 13 15  1  0  0  0  0
 14  3  2  0  0  0  0
 14 18  1  0  0  0  0
 17  6  2  0  0  0  0
 18  8  1  0  0  0  0
 19  1  1  0  0  0  0
 19 13  1  0  0  0  0
 20 11  1  1  0  0  0
 20 10  1  0  0  0  0
 22 24  1  0  0  0  0
 22 21  1  0  0  0  0
 23 25  2  0  0  0  0
 24 23  1  0  0  0  0
 26 24  1  0  0  0  0
 28 23  1  0  0  0  0
 28 27  1  0  0  0  0
M  END
>  <MODEL>
4

>  <REMARK>
 VINA RESULT:      -8.0      1.156      1.794
  Name = 
  4 active torsions:
  status: ('A' for Active; 'I' for Inactive)
    1  A    between atoms: C_1  and  C_2
    2  A    between atoms: C_2  and  C_3
    3  A    between atoms: C_3  and  N_7
    4  A    between atoms: C_6  and  C_11
                            x       y       z     vdW  Elec       q    Type
                         _______ _______ _______ _____ _____    ______ ____

>  <TORSDO>
F 4

$$$$
=
 OpenBabel10262420433D

 28 31  0  0  1  0  0  0  0  0999 V2000
  190.2510  177.6770  142.4190 C   0  0  2  0  0  3  0  0  0  0  0  0
  185.2490  179.0040  143.0250 C   0  0  0  0  0  3  0  0  0  0  0  0
  189.1730  176.8240  147.1260 O   0  0  0  0  0  0  0  0  0  0  0  0
  184.7230  178.3130  145.2960 C   0  0  0  0  0  0  0  0  0  0  0  0
  187.0280  178.1740  144.4960 C   0  0  0  0  0  0  0  0  0  0  0  0
  182.9700  179.1290  143.8350 C   0  0  0  0  0  0  0  0  0  0  0  0
  185.6760  178.5000  144.2650 C   0  0  0  0  0  0  0  0  0  0  0  0
  186.4590  177.5000  146.7670 C   0  0  0  0  0  3  0  0  0  0  0  0
  183.3790  178.6270  145.0730 C   0  0  0  0  0  3  0  0  0  0  0  0
  189.8650  177.5120  144.9520 C   0  0  2  0  0  3  0  0  0  0  0  0
  188.0660  178.4160  143.4280 C   0  0  0  0  0  2  0  0  0  0  0  0
  185.1200  177.8150  146.5360 C   0  0  0  0  0  3  0  0  0  0  0  0
  191.2600  179.4160  143.9310 C   0  0  0  0  0  2  0  0  0  0  0  0
  188.8290  177.3060  146.0140 C   0  0  0  0  0  0  0  0  0  0  0  0
  190.6220  178.8290  145.1960 C   0  0  0  0  0  2  0  0  0  0  0  0
  181.5410  179.4600  143.6030 C   0  0  0  0  0  1  0  0  0  0  0  0
  183.9040  179.3180  142.8120 C   0  0  0  0  0  3  0  0  0  0  0  0
  187.4190  177.6790  145.7630 C   0  0  0  0  0  0  0  0  0  0  0  0
  191.5500  178.3360  142.8960 C   0  0  0  0  0  2  0  0  0  0  0  0
  189.2330  177.4370  143.5500 C   0  0  1  0  0  3  0  0  0  0  0  0
  190.5900  176.3650  141.7270 C   0  0  0  0  0  2  0  0  0  0  0  0
  189.7650  176.1710  140.4600 C   0  0  0  0  0  2  0  0  0  0  0  0
  189.1330  178.2240  139.1420 C   0  0  0  0  0  0  0  0  0  0  0  0
  190.0800  177.1940  139.4700 N   0  0  0  0  0  0  0  0  0  0  0  0
  189.4280  179.1090  138.2940 O   0  0  0  0  0  0  0  0  0  0  0  0
  191.3570  177.1270  138.7730 C   0  0  0  0  0  1  0  0  0  0  0  0
  186.7100  178.2420  138.6890 C   0  0  0  0  0  1  0  0  0  0  0  0
  187.7770  178.2520  139.7650 C   0  0  0  0  0  2  0  0  0  0  0  0
  1 21  1  1  0  0  0
  1 19  1  0  0  0  0
  1 20  1  0  0  0  0
  2  7  1  0  0  0  0
  4 12  1  0  0  0  0
  5 18  2  0  0  0  0
  6  9  2  0  0  0  0
  7  5  1  0  0  0  0
  7  4  2  0  0  0  0
  9  4  1  0  0  0  0
 10 15  1  1  0  0  0
 10 14  1  0  0  0  0
 11  5  1  0  0  0  0
 12  8  2  0  0  0  0
 13 15  1  0  0  0  0
 14  3  2  0  0  0  0
 16  6  1  0  0  0  0
 17  2  2  0  0  0  0
 17  6  1  0  0  0  0
 18 14  1  0  0  0  0
 18  8  1  0  0  0  0
 19 13  1  0  0  0  0
 20 11  1  1  0  0  0
 20 10  1  0  0  0  0
 22 21  1  0  0  0  0
 23 24  1  0  0  0  0
 23 28  1  0  0  0  0
 24 22  1  0  0  0  0
 25 23  2  0  0  0  0
 26 24  1  0  0  0  0
 27 28  1  0  0  0  0
M  END
>  <MODEL>
5

>  <REMARK>
 VINA RESULT:      -7.9      5.005      8.039
  Name = 
  4 active torsions:
  status: ('A' for Active; 'I' for Inactive)
    1  A    between atoms: C_1  and  C_2
    2  A    between atoms: C_2  and  C_3
    3  A    between atoms: C_3  and  N_7
    4  A    between atoms: C_6  and  C_11
                            x       y       z     vdW  Elec       q    Type
                         _______ _______ _______ _____ _____    ______ ____

>  <TORSDO>
F 4

$$$$
=
 OpenBabel10262420433D

 28 31  0  0  1  0  0  0  0  0999 V2000
  180.5820  178.4930  139.8330 C   0  0  2  0  0  3  0  0  0  0  0  0
  183.4080  178.7130  144.2050 C   0  0  0  0  0  3  0  0  0  0  0  0
  185.2700  178.7400  138.4170 O   0  0  0  0  0  0  0  0  0  0  0  0
  185.7080  178.5700  143.4320 C   0  0  0  0  0  0  0  0  0  0  0  0
  183.8980  178.7650  141.8020 C   0  0  0  0  0  0  0  0  0  0  0  0
  185.2150  178.5130  145.8040 C   0  0  0  0  0  0  0  0  0  0  0  0
  184.3260  178.6860  143.1430 C   0  0  0  0  0  0  0  0  0  0  0  0
  186.2180  178.6280  141.0710 C   0  0  0  0  0  3  0  0  0  0  0  0
  186.1420  178.4830  144.7590 C   0  0  0  0  0  3  0  0  0  0  0  0
  182.9710  178.9460  139.0080 C   0  0  2  0  0  3  0  0  0  0  0  0
  182.4350  178.9420  141.4760 C   0  0  0  0  0  2  0  0  0  0  0  0
  186.6420  178.5420  142.3970 C   0  0  0  0  0  3  0  0  0  0  0  0
  181.1590  180.7680  138.9290 C   0  0  0  0  0  2  0  0  0  0  0  0
  184.4230  178.8000  139.3480 C   0  0  0  0  0  0  0  0  0  0  0  0
  182.6380  180.4190  138.7180 C   0  0  0  0  0  2  0  0  0  0  0  0
  185.6810  178.4190  147.2110 C   0  0  0  0  0  1  0  0  0  0  0  0
  183.8500  178.6280  145.5280 C   0  0  0  0  0  3  0  0  0  0  0  0
  184.8570  178.7460  140.7610 C   0  0  0  0  0  0  0  0  0  0  0  0
  180.2650  179.5460  138.7650 C   0  0  0  0  0  2  0  0  0  0  0  0
  182.0880  178.3400  140.1160 C   0  0  1  0  0  3  0  0  0  0  0  0
  179.9880  177.1600  139.4020 C   0  0  0  0  0  2  0  0  0  0  0  0
  180.8870  175.9930  139.7950 C   0  0  0  0  0  2  0  0  0  0  0  0
  181.9070  174.6280  137.9380 C   0  0  0  0  0  0  0  0  0  0  0  0
  180.8050  174.9180  138.8130 N   0  0  0  0  0  0  0  0  0  0  0  0
  181.8250  173.6860  137.1050 O   0  0  0  0  0  0  0  0  0  0  0  0
  179.5610  174.1710  138.6930 C   0  0  0  0  0  1  0  0  0  0  0  0
  183.3320  176.1760  136.6530 C   0  0  0  0  0  1  0  0  0  0  0  0
  183.1540  175.4490  137.9700 C   0  0  0  0  0  2  0  0  0  0  0  0
  1 21  1  6  0  0  0
  1 20  1  0  0  0  0
  2 17  1  0  0  0  0
  3 14  2  0  0  0  0
  4  9  2  0  0  0  0
  5  7  1  0  0  0  0
  6 16  1  0  0  0  0
  7  4  1  0  0  0  0
  7  2  2  0  0  0  0
  8 12  2  0  0  0  0
  9  6  1  0  0  0  0
 10 15  1  1  0  0  0
 10 14  1  0  0  0  0
 10 20  1  0  0  0  0
 11  5  1  0  0  0  0
 12  4  1  0  0  0  0
 14 18  1  0  0  0  0
 15 13  1  0  0  0  0
 17  6  2  0  0  0  0
 18  8  1  0  0  0  0
 18  5  2  0  0  0  0
 19 13  1  0  0  0  0
 19  1  1  0  0  0  0
 20 11  1  1  0  0  0
 21 22  1  0  0  0  0
 23 28  1  0  0  0  0
 23 24  1  0  0  0  0
 24 22  1  0  0  0  0
 25 23  2  0  0  0  0
 26 24  1  0  0  0  0
 27 28  1  0  0  0  0
M  END
>  <MODEL>
6

>  <REMARK>
 VINA RESULT:      -7.9      3.000      5.053
  Name = 
  4 active torsions:
  status: ('A' for Active; 'I' for Inactive)
    1  A    between atoms: C_1  and  C_2
    2  A    between atoms: C_2  and  C_3
    3  A    between atoms: C_3  and  N_7
    4  A    between atoms: C_6  and  C_11
                            x       y       z     vdW  Elec       q    Type
                         _______ _______ _______ _____ _____    ______ ____

>  <TORSDO>
F 4

$$$$
=
 OpenBabel10262420433D

 28 31  0  0  1  0  0  0  0  0999 V2000
  184.3300  178.0530  139.2880 C   0  0  2  0  0  3  0  0  0  0  0  0
  187.0680  177.4060  143.6740 C   0  0  0  0  0  3  0  0  0  0  0  0
  181.4330  179.5700  142.9420 O   0  0  0  0  0  0  0  0  0  0  0  0
  185.6780  178.4150  145.3950 C   0  0  0  0  0  0  0  0  0  0  0  0
  184.8080  178.1860  143.1220 C   0  0  0  0  0  0  0  0  0  0  0  0
  187.9130  177.6470  145.9300 C   0  0  0  0  0  0  0  0  0  0  0  0
  185.8510  177.9970  144.0520 C   0  0  0  0  0  0  0  0  0  0  0  0
  183.4460  179.1830  144.8790 C   0  0  0  0  0  3  0  0  0  0  0  0
  186.7090  178.2380  146.3220 C   0  0  0  0  0  3  0  0  0  0  0  0
  182.6420  178.5560  141.1560 C   0  0  2  0  0  3  0  0  0  0  0  0
  184.9550  177.7000  141.7010 C   0  0  0  0  0  2  0  0  0  0  0  0
  184.4800  179.0030  145.7970 C   0  0  0  0  0  3  0  0  0  0  0  0
  182.5010  176.3950  139.7710 C   0  0  0  0  0  2  0  0  0  0  0  0
  182.4990  179.0060  142.5790 C   0  0  0  0  0  0  0  0  0  0  0  0
  181.9510  177.1970  140.9570 C   0  0  0  0  0  2  0  0  0  0  0  0
  189.0060  177.4630  146.9190 C   0  0  0  0  0  1  0  0  0  0  0  0
  188.0930  177.2320  144.6080 C   0  0  0  0  0  3  0  0  0  0  0  0
  183.5940  178.7750  143.5470 C   0  0  0  0  0  0  0  0  0  0  0  0
  183.1200  177.3050  138.7170 C   0  0  0  0  0  2  0  0  0  0  0  0
  184.1230  178.5420  140.7340 C   0  0  1  0  0  3  0  0  0  0  0  0
  184.6580  179.2260  138.3770 C   0  0  0  0  0  2  0  0  0  0  0  0
  186.1620  179.3690  138.1680 C   0  0  0  0  0  2  0  0  0  0  0  0
  187.8990  177.5510  138.3480 C   0  0  0  0  0  0  0  0  0  0  0  0
  186.7440  178.1150  137.7030 N   0  0  0  0  0  0  0  0  0  0  0  0
  188.3810  176.4600  137.9430 O   0  0  0  0  0  0  0  0  0  0  0  0
  186.1700  177.4640  136.5340 C   0  0  0  0  0  1  0  0  0  0  0  0
  189.0230  177.2470  140.5210 C   0  0  0  0  0  1  0  0  0  0  0  0
  188.5690  178.2540  139.4820 C   0  0  0  0  0  2  0  0  0  0  0  0
  1 21  1  6  0  0  0
  1 20  1  0  0  0  0
  2  7  2  0  0  0  0
  2 17  1  0  0  0  0
  4 12  1  0  0  0  0
  4  9  2  0  0  0  0
  5 18  2  0  0  0  0
  5  7  1  0  0  0  0
  6  9  1  0  0  0  0
  6 16  1  0  0  0  0
  7  4  1  0  0  0  0
  8 12  2  0  0  0  0
 10 15  1  1  0  0  0
 10 14  1  0  0  0  0
 11  5  1  0  0  0  0
 13 15  1  0  0  0  0
 14  3  2  0  0  0  0
 14 18  1  0  0  0  0
 17  6  2  0  0  0  0
 18  8  1  0  0  0  0
 19  1  1  0  0  0  0
 19 13  1  0  0  0  0
 20 10  1  0  0  0  0
 20 11  1  1  0  0  0
 22 21  1  0  0  0  0
 23 28  1  0  0  0  0
 24 22  1  0  0  0  0
 24 23  1  0  0  0  0
 25 23  2  0  0  0  0
 26 24  1  0  0  0  0
 28 27  1  0  0  0  0
M  END
>  <MODEL>
7

>  <REMARK>
 VINA RESULT:      -7.6      3.206      4.838
  Name = 
  4 active torsions:
  status: ('A' for Active; 'I' for Inactive)
    1  A    between atoms: C_1  and  C_2
    2  A    between atoms: C_2  and  C_3
    3  A    between atoms: C_3  and  N_7
    4  A    between atoms: C_6  and  C_11
                            x       y       z     vdW  Elec       q    Type
                         _______ _______ _______ _____ _____    ______ ____

>  <TORSDO>
F 4

$$$$
=
 OpenBabel10262420433D

 28 31  0  0  1  0  0  0  0  0999 V2000
  191.8660  175.6270  137.6960 C   0  0  2  0  0  3  0  0  0  0  0  0
  190.7470  176.2260  142.7500 C   0  0  0  0  0  3  0  0  0  0  0  0
  187.9170  178.5260  137.8850 O   0  0  0  0  0  0  0  0  0  0  0  0
  188.9570  177.8700  142.7700 C   0  0  0  0  0  0  0  0  0  0  0  0
  189.7530  176.9800  140.6370 C   0  0  0  0  0  0  0  0  0  0  0  0
  189.9470  177.1240  144.8510 C   0  0  0  0  0  0  0  0  0  0  0  0
  189.8250  177.0170  142.0450 C   0  0  0  0  0  0  0  0  0  0  0  0
  187.9550  178.6230  140.7030 C   0  0  0  0  0  3  0  0  0  0  0  0
  189.0250  177.9180  144.1650 C   0  0  0  0  0  3  0  0  0  0  0  0
  189.6210  176.8720  137.6940 C   0  0  2  0  0  3  0  0  0  0  0  0
  190.6330  176.0390  139.8520 C   0  0  0  0  0  2  0  0  0  0  0  0
  188.0300  178.6640  142.0950 C   0  0  0  0  0  3  0  0  0  0  0  0
  189.7790  174.3960  137.0200 C   0  0  0  0  0  2  0  0  0  0  0  0
  188.7320  177.7800  138.4880 C   0  0  0  0  0  0  0  0  0  0  0  0
  188.8620  175.5930  137.3040 C   0  0  0  0  0  2  0  0  0  0  0  0
  190.0170  177.1790  146.3340 C   0  0  0  0  0  1  0  0  0  0  0  0
  190.8070  176.2790  144.1450 C   0  0  0  0  0  3  0  0  0  0  0  0
  188.8020  177.7840  139.9660 C   0  0  0  0  0  0  0  0  0  0  0  0
  191.1660  174.8450  136.5780 C   0  0  0  0  0  2  0  0  0  0  0  0
  190.9280  176.5840  138.4550 C   0  0  1  0  0  3  0  0  0  0  0  0
  193.0360  176.3960  137.1000 C   0  0  0  0  0  2  0  0  0  0  0  0
  193.6890  175.6260  135.9580 C   0  0  0  0  0  2  0  0  0  0  0  0
  196.0250  176.4690  135.5330 C   0  0  0  0  0  0  0  0  0  0  0  0
  195.1310  175.5300  136.1520 N   0  0  0  0  0  0  0  0  0  0  0  0
  197.2680  176.3810  135.7230 O   0  0  0  0  0  0  0  0  0  0  0  0
  195.6620  174.4280  136.9420 C   0  0  0  0  0  1  0  0  0  0  0  0
  196.2040  178.8570  134.9460 C   0  0  0  0  0  1  0  0  0  0  0  0
  195.5130  177.5440  134.6330 C   0  0  0  0  0  2  0  0  0  0  0  0
  1 21  1  6  0  0  0
  1 20  1  0  0  0  0
  2 17  1  0  0  0  0
  3 14  2  0  0  0  0
  4  9  2  0  0  0  0
  5  7  1  0  0  0  0
  6 16  1  0  0  0  0
  7  2  2  0  0  0  0
  7  4  1  0  0  0  0
  8 12  2  0  0  0  0
  9  6  1  0  0  0  0
 10 15  1  1  0  0  0
 10 20  1  0  0  0  0
 10 14  1  0  0  0  0
 11  5  1  0  0  0  0
 12  4  1  0  0  0  0
 13 15  1  0  0  0  0
 14 18  1  0  0  0  0
 17  6  2  0  0  0  0
 18  5  2  0  0  0  0
 18  8  1  0  0  0  0
 19 13  1  0  0  0  0
 19  1  1  0  0  0  0
 20 11  1  1  0  0  0
 22 24  1  0  0  0  0
 22 21  1  0  0  0  0
 23 25  2  0  0  0  0
 23 24  1  0  0  0  0
 24 26  1  0  0  0  0
 28 27  1  0  0  0  0
 28 23  1  0  0  0  0
M  END
>  <MODEL>
8

>  <REMARK>
 VINA RESULT:      -7.3      7.962     10.577
  Name = 
  4 active torsions:
  status: ('A' for Active; 'I' for Inactive)
    1  A    between atoms: C_1  and  C_2
    2  A    between atoms: C_2  and  C_3
    3  A    between atoms: C_3  and  N_7
    4  A    between atoms: C_6  and  C_11
                            x       y       z     vdW  Elec       q    Type
                         _______ _______ _______ _____ _____    ______ ____

>  <TORSDO>
F 4

$$$$
=
 OpenBabel10262420433D

 28 31  0  0  1  0  0  0  0  0999 V2000
  190.4850  176.7090  139.1560 C   0  0  2  0  0  3  0  0  0  0  0  0
  186.3850  178.6580  141.7140 C   0  0  0  0  0  3  0  0  0  0  0  0
  191.1530  175.5670  143.8770 O   0  0  0  0  0  0  0  0  0  0  0  0
  186.6550  177.8320  143.9840 C   0  0  0  0  0  0  0  0  0  0  0  0
  188.4250  177.4490  142.3430 C   0  0  0  0  0  0  0  0  0  0  0  0
  184.6410  179.0210  143.3540 C   0  0  0  0  0  0  0  0  0  0  0  0
  187.1610  177.9820  142.6700 C   0  0  0  0  0  0  0  0  0  0  0  0
  188.6600  176.6460  144.6310 C   0  0  0  0  0  3  0  0  0  0  0  0
  185.4000  178.3510  144.3160 C   0  0  0  0  0  3  0  0  0  0  0  0
  191.0700  176.3570  141.6300 C   0  0  2  0  0  3  0  0  0  0  0  0
  189.0030  177.6460  140.9630 C   0  0  0  0  0  2  0  0  0  0  0  0
  187.4060  177.1670  144.9530 C   0  0  0  0  0  3  0  0  0  0  0  0
  192.2660  178.1360  140.2110 C   0  0  0  0  0  2  0  0  0  0  0  0
  190.4970  176.1960  143.0050 C   0  0  0  0  0  0  0  0  0  0  0  0
  192.0700  177.5250  141.6050 C   0  0  0  0  0  2  0  0  0  0  0  0
  183.3070  179.5690  143.7110 C   0  0  0  0  0  1  0  0  0  0  0  0
  185.1320  179.1750  142.0550 C   0  0  0  0  0  3  0  0  0  0  0  0
  189.1810  176.7860  143.3380 C   0  0  0  0  0  0  0  0  0  0  0  0
  191.9580  177.1310  139.1090 C   0  0  0  0  0  2  0  0  0  0  0  0
  189.9490  176.5060  140.5850 C   0  0  1  0  0  3  0  0  0  0  0  0
  190.3120  175.4350  138.3420 C   0  0  0  0  0  2  0  0  0  0  0  0
  189.6410  175.7140  137.0010 C   0  0  0  0  0  2  0  0  0  0  0  0
  187.1690  176.1550  137.2180 C   0  0  0  0  0  0  0  0  0  0  0  0
  188.2600  175.2440  137.0030 N   0  0  0  0  0  0  0  0  0  0  0  0
  185.9810  175.7350  137.2020 O   0  0  0  0  0  0  0  0  0  0  0  0
  188.0020  173.8210  136.8360 C   0  0  0  0  0  1  0  0  0  0  0  0
  186.1470  178.2530  138.0130 C   0  0  0  0  0  1  0  0  0  0  0  0
  187.4140  177.6010  137.4970 C   0  0  0  0  0  2  0  0  0  0  0  0
  1 21  1  6  0  0  0
  1 20  1  0  0  0  0
  2 17  2  0  0  0  0
  2  7  1  0  0  0  0
  4  9  1  0  0  0  0
  4 12  1  0  0  0  0
  5  7  1  0  0  0  0
  5 18  2  0  0  0  0
  6 16  1  0  0  0  0
  6  9  2  0  0  0  0
  7  4  2  0  0  0  0
  8 12  2  0  0  0  0
 10 15  1  1  0  0  0
 10 14  1  0  0  0  0
 11  5  1  0  0  0  0
 13 15  1  0  0  0  0
 14 18  1  0  0  0  0
 14  3  2  0  0  0  0
 17  6  1  0  0  0  0
 18  8  1  0  0  0  0
 19  1  1  0  0  0  0
 19 13  1  0  0  0  0
 20 11  1  1  0  0  0
 20 10  1  0  0  0  0
 22 24  1  0  0  0  0
 22 21  1  0  0  0  0
 23 28  1  0  0  0  0
 24 23  1  0  0  0  0
 25 23  2  0  0  0  0
 26 24  1  0  0  0  0
 28 27  1  0  0  0  0
M  END
>  <MODEL>
9

>  <REMARK>
 VINA RESULT:      -7.2      5.006      8.080
  Name = 
  4 active torsions:
  status: ('A' for Active; 'I' for Inactive)
    1  A    between atoms: C_1  and  C_2
    2  A    between atoms: C_2  and  C_3
    3  A    between atoms: C_3  and  N_7
    4  A    between atoms: C_6  and  C_11
                            x       y       z     vdW  Elec       q    Type
                         _______ _______ _______ _____ _____    ______ ____

>  <TORSDO>
F 4

$$$$
