=
 OpenBabel10262421143D

 32 36  0  0  1  0  0  0  0  0999 V2000
  187.8510  177.5680  142.2680 C   0  0  1  0  0  3  0  0  0  0  0  0
  185.4970  178.3510  142.7880 C   0  0  1  0  0  3  0  0  0  0  0  0
  189.1910  177.5920  142.6730 O   0  0  0  0  0  0  0  0  0  0  0  0
  186.9640  178.3290  143.2790 C   0  0  1  0  0  3  0  0  0  0  0  0
  184.5940  179.0960  143.7790 C   0  0  1  0  0  3  0  0  0  0  0  0
  185.3820  178.9330  141.3680 C   0  0  1  0  0  3  0  0  0  0  0  0
  184.6730  178.4280  145.1490 C   0  0  1  0  0  3  0  0  0  0  0  0
  187.0390  177.7090  144.6980 C   0  0  1  0  0  3  0  0  0  0  0  0
  184.9560  180.4460  143.8640 O   0  0  0  0  0  1  0  0  0  0  0  0
  188.4470  177.8100  145.2780 C   0  0  0  0  0  2  0  0  0  0  0  0
  189.3380  176.6340  144.8760 C   0  0  0  0  0  2  0  0  0  0  0  0
  186.2730  178.1530  140.3990 C   0  0  0  0  0  2  0  0  0  0  0  0
  186.1060  178.4380  145.6620 C   0  0  0  0  0  2  0  0  0  0  0  0
  187.7230  178.1740  140.8570 C   0  0  2  0  0  3  0  0  0  0  0  0
  183.8410  179.0860  146.0540 O   0  0  0  0  0  1  0  0  0  0  0  0
  189.3700  176.3930  143.3680 C   0  0  0  0  0  2  0  0  0  0  0  0
  189.4630  178.0760  137.4370 C   0  0  0  0  0  0  0  0  0  0  0  0
  189.2710  178.6690  136.2330 F   0  0  0  0  0  0  0  0  0  0  0  0
  188.5930  177.4740  139.8010 C   0  0  2  0  0  3  0  0  0  0  0  0
  190.6710  177.6010  137.7470 C   0  0  0  0  0  3  0  0  0  0  0  0
  190.0860  177.4850  140.1710 C   0  0  0  0  0  2  0  0  0  0  0  0
  188.3530  178.0020  138.4050 C   0  0  0  0  0  0  0  0  0  0  0  0
  187.1910  178.3330  138.0450 O   0  0  0  0  0  0  0  0  0  0  0  0
  190.9400  176.8930  139.0480 C   0  0  1  0  0  3  0  0  0  0  0  0
  191.4890  175.1050  137.8620 C   0  0  0  0  0  1  0  0  0  0  0  0
  190.6690  175.5290  138.9090 O   0  0  0  0  0  0  0  0  0  0  0  0
  182.8990  177.3590  139.5790 N   0  0  0  0  0  0  0  0  0  0  0  0
  184.1850  180.5180  139.0050 O   0  0  0  0  0  0  0  0  0  0  0  0
  183.8060  179.4120  139.4730 C   0  0  0  0  0  0  0  0  0  0  0  0
  183.9170  178.9930  140.8930 C   0  0  1  0  0  3  0  0  0  0  0  0
  183.1890  178.4060  138.6990 N   0  0  0  0  0  2  0  0  0  0  0  0
  183.2770  177.6340  140.7880 C   0  0  0  0  0  3  0  0  0  0  0  0
  1  3  1  1  0  0  0
  1  4  1  0  0  0  0
  2  4  1  0  0  0  0
  2  5  1  0  0  0  0
  3 16  1  0  0  0  0
  4  8  1  0  0  0  0
  5  9  1  0  0  0  0
  5  7  1  0  0  0  0
  6  2  1  0  0  0  0
  7 13  1  0  0  0  0
  7 15  1  0  0  0  0
  8 10  1  0  0  0  0
  8 13  1  0  0  0  0
 11 10  1  0  0  0  0
 12 14  1  0  0  0  0
 12  6  1  0  0  0  0
 14  1  1  0  0  0  0
 16 11  1  0  0  0  0
 17 20  2  0  0  0  0
 17 22  1  0  0  0  0
 18 17  1  0  0  0  0
 19 21  1  0  0  0  0
 19 14  1  0  0  0  0
 20 24  1  0  0  0  0
 22 19  1  0  0  0  0
 23 22  2  0  0  0  0
 24 21  1  0  0  0  0
 25 26  1  0  0  0  0
 26 24  1  0  0  0  0
 27 32  2  0  0  0  0
 28 29  2  0  0  0  0
 29 30  1  0  0  0  0
 30  6  1  0  0  0  0
 31 29  1  0  0  0  0
 31 27  1  0  0  0  0
 32 30  1  0  0  0  0
M  END
>  <MODEL>
1

>  <REMARK>
 VINA RESULT:      -9.5      0.000      0.000
  Name = 
  3 active torsions:
  status: ('A' for Active; 'I' for Inactive)
    1  A    between atoms: C_10  and  C_28
    2  A    between atoms: O_15  and  C_26
    3  A    between atoms: C_16  and  C_27
                            x       y       z     vdW  Elec       q    Type
                         _______ _______ _______ _____ _____    ______ ____

>  <TORSDO>
F 3

$$$$
=
 OpenBabel10262421143D

 32 36  0  0  1  0  0  0  0  0999 V2000
  186.2260  178.3810  143.7150 C   0  0  1  0  0  3  0  0  0  0  0  0
  188.6400  178.0460  143.0180 C   0  0  1  0  0  3  0  0  0  0  0  0
  185.2170  177.9920  144.6060 O   0  0  0  0  0  0  0  0  0  0  0  0
  187.5510  177.6580  144.0470 C   0  0  1  0  0  3  0  0  0  0  0  0
  189.9680  177.3450  143.3300 C   0  0  1  0  0  3  0  0  0  0  0  0
  188.1800  177.7750  141.5750 C   0  0  1  0  0  3  0  0  0  0  0  0
  190.4280  177.7160  144.7360 C   0  0  1  0  0  3  0  0  0  0  0  0
  188.0420  177.9740  145.4830 C   0  0  1  0  0  3  0  0  0  0  0  0
  189.8410  175.9570  143.1980 O   0  0  0  0  0  1  0  0  0  0  0  0
  187.0590  177.4650  146.5340 C   0  0  0  0  0  2  0  0  0  0  0  0
  185.9520  178.4720  146.8460 C   0  0  0  0  0  2  0  0  0  0  0  0
  186.8680  178.5080  141.2870 C   0  0  0  0  0  2  0  0  0  0  0  0
  189.3830  177.3000  145.7630 C   0  0  0  0  0  2  0  0  0  0  0  0
  185.7850  178.0870  142.2690 C   0  0  2  0  0  3  0  0  0  0  0  0
  191.6450  177.0990  145.0240 O   0  0  0  0  0  1  0  0  0  0  0  0
  185.2270  178.9740  145.6000 C   0  0  0  0  0  2  0  0  0  0  0  0
  183.1080  179.0280  139.6840 C   0  0  0  0  0  0  0  0  0  0  0  0
  183.0750  179.2020  138.3400 F   0  0  0  0  0  0  0  0  0  0  0  0
  184.4620  178.7650  141.8750 C   0  0  2  0  0  3  0  0  0  0  0  0
  181.9760  178.7550  140.3360 C   0  0  0  0  0  3  0  0  0  0  0  0
  183.2340  177.9650  142.3420 C   0  0  0  0  0  2  0  0  0  0  0  0
  184.3940  179.0980  140.4030 C   0  0  0  0  0  0  0  0  0  0  0  0
  185.4260  179.4880  139.7940 O   0  0  0  0  0  0  0  0  0  0  0  0
  181.9350  178.5940  141.8310 C   0  0  1  0  0  3  0  0  0  0  0  0
  180.4010  179.8350  142.8380 C   0  0  0  0  0  1  0  0  0  0  0  0
  181.7380  179.8390  142.4360 O   0  0  0  0  0  0  0  0  0  0  0  0
  188.9140  178.3270  138.2590 N   0  0  0  0  0  0  0  0  0  0  0  0
  190.3000  175.9180  140.3160 O   0  0  0  0  0  0  0  0  0  0  0  0
  189.7480  176.9280  139.8060 C   0  0  0  0  0  0  0  0  0  0  0  0
  189.2790  178.1230  140.5520 C   0  0  1  0  0  3  0  0  0  0  0  0
  189.5140  177.0750  138.4220 N   0  0  0  0  0  2  0  0  0  0  0  0
  188.7650  178.9360  139.3930 C   0  0  0  0  0  3  0  0  0  0  0  0
  1  4  1  0  0  0  0
  1  3  1  1  0  0  0
  2  5  1  0  0  0  0
  2  4  1  0  0  0  0
  3 16  1  0  0  0  0
  4  8  1  0  0  0  0
  5  7  1  0  0  0  0
  6  2  1  0  0  0  0
  7 15  1  0  0  0  0
  7 13  1  0  0  0  0
  8 13  1  0  0  0  0
  8 10  1  0  0  0  0
  9  5  1  0  0  0  0
 10 11  1  0  0  0  0
 12  6  1  0  0  0  0
 12 14  1  0  0  0  0
 14  1  1  0  0  0  0
 16 11  1  0  0  0  0
 17 20  2  0  0  0  0
 17 22  1  0  0  0  0
 18 17  1  0  0  0  0
 19 14  1  0  0  0  0
 19 21  1  0  0  0  0
 20 24  1  0  0  0  0
 22 19  1  0  0  0  0
 23 22  2  0  0  0  0
 24 21  1  0  0  0  0
 24 26  1  0  0  0  0
 26 25  1  0  0  0  0
 27 31  1  0  0  0  0
 27 32  2  0  0  0  0
 29 28  2  0  0  0  0
 29 30  1  0  0  0  0
 30  6  1  0  0  0  0
 31 29  1  0  0  0  0
 32 30  1  0  0  0  0
M  END
>  <MODEL>
2

>  <REMARK>
 VINA RESULT:      -9.4      2.524      6.095
  Name = 
  3 active torsions:
  status: ('A' for Active; 'I' for Inactive)
    1  A    between atoms: C_10  and  C_28
    2  A    between atoms: O_15  and  C_26
    3  A    between atoms: C_16  and  C_27
                            x       y       z     vdW  Elec       q    Type
                         _______ _______ _______ _____ _____    ______ ____

>  <TORSDO>
F 3

$$$$
=
 OpenBabel10262421143D

 32 36  0  0  1  0  0  0  0  0999 V2000
  186.6050  178.1810  142.6580 C   0  0  1  0  0  3  0  0  0  0  0  0
  185.8210  178.1940  140.2480 C   0  0  1  0  0  3  0  0  0  0  0  0
  186.4180  178.7260  143.9350 O   0  0  0  0  0  0  0  0  0  0  0  0
  185.5650  178.7530  141.6680 C   0  0  1  0  0  3  0  0  0  0  0  0
  184.7970  178.7420  139.2460 C   0  0  1  0  0  3  0  0  0  0  0  0
  187.2650  178.4580  139.7860 C   0  0  1  0  0  3  0  0  0  0  0  0
  183.3870  178.3770  139.7000 C   0  0  1  0  0  3  0  0  0  0  0  0
  184.1120  178.4400  142.1060 C   0  0  1  0  0  3  0  0  0  0  0  0
  184.9310  180.1280  139.1050 O   0  0  0  0  0  1  0  0  0  0  0  0
  183.7740  179.1080  143.4370 C   0  0  0  0  0  2  0  0  0  0  0  0
  184.1670  178.2550  144.6430 C   0  0  0  0  0  2  0  0  0  0  0  0
  188.2620  177.8770  140.7910 C   0  0  0  0  0  2  0  0  0  0  0  0
  183.1080  178.9590  141.0790 C   0  0  0  0  0  2  0  0  0  0  0  0
  188.0400  178.4660  142.1760 C   0  0  2  0  0  3  0  0  0  0  0  0
  182.4480  178.8550  138.7860 O   0  0  0  0  0  1  0  0  0  0  0  0
  185.6220  177.7930  144.6030 C   0  0  0  0  0  2  0  0  0  0  0  0
  190.4900  175.7440  143.3250 C   0  0  0  0  0  0  0  0  0  0  0  0
  190.5610  174.3940  143.2190 F   0  0  0  0  0  0  0  0  0  0  0  0
  189.1280  177.9370  143.1250 C   0  0  2  0  0  3  0  0  0  0  0  0
  191.6060  176.4420  143.5480 C   0  0  0  0  0  3  0  0  0  0  0  0
  190.5030  178.5690  142.8480 C   0  0  0  0  0  2  0  0  0  0  0  0
  189.1950  176.4270  143.1510 C   0  0  0  0  0  0  0  0  0  0  0  0
  188.1370  175.7460  143.0760 O   0  0  0  0  0  0  0  0  0  0  0  0
  191.5900  177.9370  143.7200 C   0  0  1  0  0  3  0  0  0  0  0  0
  191.6800  177.0900  145.7640 C   0  0  0  0  0  1  0  0  0  0  0  0
  191.3700  178.2560  145.0630 O   0  0  0  0  0  0  0  0  0  0  0  0
  189.0870  176.3110  137.8070 N   0  0  0  0  0  0  0  0  0  0  0  0
  188.9120  179.7530  137.5190 O   0  0  0  0  0  0  0  0  0  0  0  0
  188.7280  178.5280  137.7460 C   0  0  0  0  0  0  0  0  0  0  0  0
  187.5100  177.9370  138.3550 C   0  0  1  0  0  3  0  0  0  0  0  0
  189.6680  177.5240  137.4260 N   0  0  0  0  0  2  0  0  0  0  0  0
  187.9090  176.4860  138.3190 C   0  0  0  0  0  3  0  0  0  0  0  0
  1  3  1  1  0  0  0
  2  4  1  0  0  0  0
  3 16  1  0  0  0  0
  4  8  1  0  0  0  0
  4  1  1  0  0  0  0
  5  7  1  0  0  0  0
  5  2  1  0  0  0  0
  6  2  1  0  0  0  0
  6 12  1  0  0  0  0
  7 13  1  0  0  0  0
  8 10  1  0  0  0  0
  9  5  1  0  0  0  0
 10 11  1  0  0  0  0
 12 14  1  0  0  0  0
 13  8  1  0  0  0  0
 14  1  1  0  0  0  0
 14 19  1  0  0  0  0
 15  7  1  0  0  0  0
 16 11  1  0  0  0  0
 17 20  2  0  0  0  0
 18 17  1  0  0  0  0
 19 22  1  0  0  0  0
 20 24  1  0  0  0  0
 21 19  1  0  0  0  0
 21 24  1  0  0  0  0
 22 17  1  0  0  0  0
 23 22  2  0  0  0  0
 24 26  1  0  0  0  0
 26 25  1  0  0  0  0
 27 32  2  0  0  0  0
 28 29  2  0  0  0  0
 29 30  1  0  0  0  0
 30  6  1  0  0  0  0
 31 29  1  0  0  0  0
 31 27  1  0  0  0  0
 32 30  1  0  0  0  0
M  END
>  <MODEL>
3

>  <REMARK>
 VINA RESULT:      -9.1      2.835      5.109
  Name = 
  3 active torsions:
  status: ('A' for Active; 'I' for Inactive)
    1  A    between atoms: C_10  and  C_28
    2  A    between atoms: O_15  and  C_26
    3  A    between atoms: C_16  and  C_27
                            x       y       z     vdW  Elec       q    Type
                         _______ _______ _______ _____ _____    ______ ____

>  <TORSDO>
F 3

$$$$
=
 OpenBabel10262421143D

 32 36  0  0  1  0  0  0  0  0999 V2000
  189.3030  177.9580  141.9940 C   0  0  1  0  0  3  0  0  0  0  0  0
  190.1700  177.5050  139.6560 C   0  0  1  0  0  3  0  0  0  0  0  0
  189.4170  177.6290  143.3510 O   0  0  0  0  0  0  0  0  0  0  0  0
  190.3480  177.1830  141.1590 C   0  0  1  0  0  3  0  0  0  0  0  0
  191.2000  176.7520  138.8050 C   0  0  1  0  0  3  0  0  0  0  0  0
  188.7320  177.2280  139.1830 C   0  0  1  0  0  3  0  0  0  0  0  0
  192.6090  177.1280  139.2520 C   0  0  1  0  0  3  0  0  0  0  0  0
  191.7980  177.5040  141.6020 C   0  0  1  0  0  3  0  0  0  0  0  0
  191.0030  175.3690  138.8930 O   0  0  0  0  0  1  0  0  0  0  0  0
  192.0550  177.0570  143.0380 C   0  0  0  0  0  2  0  0  0  0  0  0
  191.6620  178.1170  144.0670 C   0  0  0  0  0  2  0  0  0  0  0  0
  187.7300  178.0130  140.0330 C   0  0  0  0  0  2  0  0  0  0  0  0
  192.8110  176.7770  140.7200 C   0  0  0  0  0  2  0  0  0  0  0  0
  187.8740  177.6580  141.5050 C   0  0  2  0  0  3  0  0  0  0  0  0
  193.5560  176.4630  138.4730 O   0  0  0  0  0  1  0  0  0  0  0  0
  190.2340  178.6280  143.8880 C   0  0  0  0  0  2  0  0  0  0  0  0
  184.2710  178.9100  141.9370 C   0  0  0  0  0  0  0  0  0  0  0  0
  183.2510  179.2380  141.1060 F   0  0  0  0  0  0  0  0  0  0  0  0
  186.7800  178.3850  142.3040 C   0  0  2  0  0  3  0  0  0  0  0  0
  184.0020  178.5700  143.1990 C   0  0  0  0  0  3  0  0  0  0  0  0
  186.2600  177.5450  143.4830 C   0  0  0  0  0  2  0  0  0  0  0  0
  185.6550  178.8870  141.4280 C   0  0  0  0  0  0  0  0  0  0  0  0
  185.9020  179.3380  140.2770 O   0  0  0  0  0  0  0  0  0  0  0  0
  185.0900  178.2380  144.1850 C   0  0  1  0  0  3  0  0  0  0  0  0
  185.6810  179.0570  146.1560 C   0  0  0  0  0  1  0  0  0  0  0  0
  185.5330  179.4060  144.8120 O   0  0  0  0  0  0  0  0  0  0  0  0
  187.4740  179.3780  136.8080 N   0  0  0  0  0  0  0  0  0  0  0  0
  186.6680  176.0400  137.2180 O   0  0  0  0  0  0  0  0  0  0  0  0
  187.1980  177.1820  137.1960 C   0  0  0  0  0  0  0  0  0  0  0  0
  188.5640  177.5100  137.6760 C   0  0  1  0  0  3  0  0  0  0  0  0
  186.5590  178.3300  136.6770 N   0  0  0  0  0  2  0  0  0  0  0  0
  188.5830  178.9790  137.3470 C   0  0  0  0  0  3  0  0  0  0  0  0
  1  3  1  1  0  0  0
  2  4  1  0  0  0  0
  3 16  1  0  0  0  0
  4  8  1  0  0  0  0
  4  1  1  0  0  0  0
  5  9  1  0  0  0  0
  5  7  1  0  0  0  0
  5  2  1  0  0  0  0
  6  2  1  0  0  0  0
  6 12  1  0  0  0  0
  7 13  1  0  0  0  0
  8 10  1  0  0  0  0
 10 11  1  0  0  0  0
 12 14  1  0  0  0  0
 13  8  1  0  0  0  0
 14  1  1  0  0  0  0
 14 19  1  0  0  0  0
 15  7  1  0  0  0  0
 16 11  1  0  0  0  0
 17 20  2  0  0  0  0
 18 17  1  0  0  0  0
 19 21  1  0  0  0  0
 20 24  1  0  0  0  0
 21 24  1  0  0  0  0
 22 17  1  0  0  0  0
 22 19  1  0  0  0  0
 23 22  2  0  0  0  0
 24 26  1  0  0  0  0
 26 25  1  0  0  0  0
 27 32  2  0  0  0  0
 29 28  2  0  0  0  0
 29 30  1  0  0  0  0
 30  6  1  0  0  0  0
 31 27  1  0  0  0  0
 31 29  1  0  0  0  0
 32 30  1  0  0  0  0
M  END
>  <MODEL>
4

>  <REMARK>
 VINA RESULT:      -9.1      2.352      6.391
  Name = 
  3 active torsions:
  status: ('A' for Active; 'I' for Inactive)
    1  A    between atoms: C_10  and  C_28
    2  A    between atoms: O_15  and  C_26
    3  A    between atoms: C_16  and  C_27
                            x       y       z     vdW  Elec       q    Type
                         _______ _______ _______ _____ _____    ______ ____

>  <TORSDO>
F 3

$$$$
=
 OpenBabel10262421143D

 32 36  0  0  1  0  0  0  0  0999 V2000
  186.9530  178.3440  141.5640 C   0  0  1  0  0  3  0  0  0  0  0  0
  187.3270  178.5380  144.0630 C   0  0  1  0  0  3  0  0  0  0  0  0
  186.0920  177.8880  140.5570 O   0  0  0  0  0  0  0  0  0  0  0  0
  186.3390  178.0900  142.9590 C   0  0  1  0  0  3  0  0  0  0  0  0
  186.7380  178.3020  145.4590 C   0  0  1  0  0  3  0  0  0  0  0  0
  188.7000  177.8630  143.9050 C   0  0  1  0  0  3  0  0  0  0  0  0
  185.4230  179.0640  145.5980 C   0  0  1  0  0  3  0  0  0  0  0  0
  184.9810  178.8150  143.1360 C   0  0  1  0  0  3  0  0  0  0  0  0
  186.5470  176.9350  145.6940 O   0  0  0  0  0  1  0  0  0  0  0  0
  183.9340  178.2850  142.1600 C   0  0  0  0  0  2  0  0  0  0  0  0
  183.9720  178.9980  140.8080 C   0  0  0  0  0  2  0  0  0  0  0  0
  189.2730  178.1380  142.5120 C   0  0  0  0  0  2  0  0  0  0  0  0
  184.4270  178.6000  144.5440 C   0  0  0  0  0  2  0  0  0  0  0  0
  188.3230  177.6510  141.4290 C   0  0  2  0  0  3  0  0  0  0  0  0
  184.8870  178.8710  146.8710 O   0  0  0  0  0  1  0  0  0  0  0  0
  185.3630  179.0180  140.1790 C   0  0  0  0  0  2  0  0  0  0  0  0
  191.0160  176.8200  138.8240 C   0  0  0  0  0  0  0  0  0  0  0  0
  192.2750  176.3160  138.8560 F   0  0  0  0  0  0  0  0  0  0  0  0
  188.9850  177.8500  140.0560 C   0  0  2  0  0  3  0  0  0  0  0  0
  190.3050  176.7300  137.6990 C   0  0  0  0  0  3  0  0  0  0  0  0
  188.1780  177.2020  138.9180 C   0  0  0  0  0  2  0  0  0  0  0  0
  190.4330  177.4170  140.0400 C   0  0  0  0  0  0  0  0  0  0  0  0
  191.1640  177.6140  141.0480 O   0  0  0  0  0  0  0  0  0  0  0  0
  188.9200  177.3070  137.5830 C   0  0  1  0  0  3  0  0  0  0  0  0
  187.7340  178.9340  136.6590 C   0  0  0  0  0  1  0  0  0  0  0  0
  188.9960  178.6440  137.1820 O   0  0  0  0  0  0  0  0  0  0  0  0
  191.9890  178.0550  144.9000 N   0  0  0  0  0  0  0  0  0  0  0  0
  189.4420  176.3270  146.4770 O   0  0  0  0  0  0  0  0  0  0  0  0
  190.1610  177.1100  145.8020 C   0  0  0  0  0  0  0  0  0  0  0  0
  189.6720  178.2770  145.0270 C   0  0  1  0  0  3  0  0  0  0  0  0
  191.5660  176.9960  145.7080 N   0  0  0  0  0  2  0  0  0  0  0  0
  190.9910  178.7820  144.5050 C   0  0  0  0  0  3  0  0  0  0  0  0
  1  3  1  6  0  0  0
  1  4  1  0  0  0  0
  2  5  1  0  0  0  0
  4  8  1  0  0  0  0
  4  2  1  0  0  0  0
  5  7  1  0  0  0  0
  5  9  1  0  0  0  0
  6  2  1  0  0  0  0
  6 30  1  0  0  0  0
  7 15  1  0  0  0  0
  8 13  1  0  0  0  0
 10  8  1  0  0  0  0
 11 10  1  0  0  0  0
 12  6  1  0  0  0  0
 13  7  1  0  0  0  0
 14  1  1  0  0  0  0
 14 12  1  0  0  0  0
 16  3  1  0  0  0  0
 16 11  1  0  0  0  0
 17 18  1  0  0  0  0
 17 22  1  0  0  0  0
 19 14  1  0  0  0  0
 20 17  2  0  0  0  0
 21 19  1  0  0  0  0
 22 19  1  0  0  0  0
 22 23  2  0  0  0  0
 24 20  1  0  0  0  0
 24 21  1  0  0  0  0
 25 26  1  0  0  0  0
 26 24  1  0  0  0  0
 27 31  1  0  0  0  0
 29 28  2  0  0  0  0
 30 29  1  0  0  0  0
 31 29  1  0  0  0  0
 32 27  2  0  0  0  0
 32 30  1  0  0  0  0
M  END
>  <MODEL>
5

>  <REMARK>
 VINA RESULT:      -9.0      3.193      5.225
  Name = 
  3 active torsions:
  status: ('A' for Active; 'I' for Inactive)
    1  A    between atoms: C_10  and  C_28
    2  A    between atoms: O_15  and  C_26
    3  A    between atoms: C_16  and  C_27
                            x       y       z     vdW  Elec       q    Type
                         _______ _______ _______ _____ _____    ______ ____

>  <TORSDO>
F 3

$$$$
=
 OpenBabel10262421143D

 32 36  0  0  1  0  0  0  0  0999 V2000
  189.5010  177.0020  143.6270 C   0  0  1  0  0  3  0  0  0  0  0  0
  187.5940  177.3950  145.2490 C   0  0  1  0  0  3  0  0  0  0  0  0
  190.8770  177.1470  143.4050 O   0  0  0  0  0  0  0  0  0  0  0  0
  189.1240  177.5000  145.0400 C   0  0  1  0  0  3  0  0  0  0  0  0
  187.1940  177.8780  146.6490 C   0  0  1  0  0  3  0  0  0  0  0  0
  186.8190  178.1390  144.1490 C   0  0  1  0  0  3  0  0  0  0  0  0
  187.9200  177.0500  147.7050 C   0  0  1  0  0  3  0  0  0  0  0  0
  189.8660  176.7120  146.1500 C   0  0  1  0  0  3  0  0  0  0  0  0
  187.4760  179.2400  146.8050 O   0  0  0  0  0  1  0  0  0  0  0  0
  191.3760  176.9190  146.0670 C   0  0  0  0  0  2  0  0  0  0  0  0
  192.0560  175.9330  145.1160 C   0  0  0  0  0  2  0  0  0  0  0  0
  187.2200  177.6180  142.7670 C   0  0  0  0  0  2  0  0  0  0  0  0
  189.4280  177.1790  147.5370 C   0  0  0  0  0  2  0  0  0  0  0  0
  188.7170  177.7680  142.5450 C   0  0  2  0  0  3  0  0  0  0  0  0
  187.5500  177.4680  148.9830 O   0  0  0  0  0  1  0  0  0  0  0  0
  191.4190  175.9000  143.7290 C   0  0  0  0  0  2  0  0  0  0  0  0
  189.0630  178.4830  138.7890 C   0  0  0  0  0  0  0  0  0  0  0  0
  188.5130  179.3600  137.9130 F   0  0  0  0  0  0  0  0  0  0  0  0
  189.0550  177.3330  141.1090 C   0  0  2  0  0  3  0  0  0  0  0  0
  190.2390  177.9220  138.5010 C   0  0  0  0  0  3  0  0  0  0  0  0
  190.5720  177.2220  140.8740 C   0  0  0  0  0  2  0  0  0  0  0  0
  188.3830  178.1950  140.0660 C   0  0  0  0  0  0  0  0  0  0  0  0
  187.2150  178.6280  140.2590 O   0  0  0  0  0  0  0  0  0  0  0  0
  190.8840  176.9100  139.4090 C   0  0  1  0  0  3  0  0  0  0  0  0
  190.9150  175.3880  137.8000 C   0  0  0  0  0  1  0  0  0  0  0  0
  190.4290  175.6280  139.0860 O   0  0  0  0  0  0  0  0  0  0  0  0
  183.7080  178.8620  142.8670 N   0  0  0  0  0  0  0  0  0  0  0  0
  185.0380  180.0030  145.8470 O   0  0  0  0  0  0  0  0  0  0  0  0
  184.7330  179.3790  144.7970 C   0  0  0  0  0  0  0  0  0  0  0  0
  185.2950  178.0700  144.3780 C   0  0  1  0  0  3  0  0  0  0  0  0
  183.7770  179.8370  143.8650 N   0  0  0  0  0  2  0  0  0  0  0  0
  184.5180  177.8780  143.1030 C   0  0  0  0  0  3  0  0  0  0  0  0
  1  3  1  6  0  0  0
  1  4  1  0  0  0  0
  2  5  1  0  0  0  0
  3 16  1  0  0  0  0
  4  2  1  0  0  0  0
  4  8  1  0  0  0  0
  5  9  1  0  0  0  0
  5  7  1  0  0  0  0
  6 30  1  0  0  0  0
  6  2  1  0  0  0  0
  7 15  1  0  0  0  0
  8 13  1  0  0  0  0
 10  8  1  0  0  0  0
 11 10  1  0  0  0  0
 12  6  1  0  0  0  0
 13  7  1  0  0  0  0
 14 12  1  0  0  0  0
 14  1  1  0  0  0  0
 16 11  1  0  0  0  0
 17 22  1  0  0  0  0
 18 17  1  0  0  0  0
 19 14  1  0  0  0  0
 20 17  2  0  0  0  0
 20 24  1  0  0  0  0
 21 19  1  0  0  0  0
 22 23  2  0  0  0  0
 22 19  1  0  0  0  0
 24 21  1  0  0  0  0
 25 26  1  0  0  0  0
 26 24  1  0  0  0  0
 27 32  2  0  0  0  0
 27 31  1  0  0  0  0
 29 28  2  0  0  0  0
 30 29  1  0  0  0  0
 31 29  1  0  0  0  0
 32 30  1  0  0  0  0
M  END
>  <MODEL>
6

>  <REMARK>
 VINA RESULT:      -8.8      2.101      3.240
  Name = 
  3 active torsions:
  status: ('A' for Active; 'I' for Inactive)
    1  A    between atoms: C_10  and  C_28
    2  A    between atoms: O_15  and  C_26
    3  A    between atoms: C_16  and  C_27
                            x       y       z     vdW  Elec       q    Type
                         _______ _______ _______ _____ _____    ______ ____

>  <TORSDO>
F 3

$$$$
=
 OpenBabel10262421143D

 32 36  0  0  1  0  0  0  0  0999 V2000
  187.7300  177.8880  141.3220 C   0  0  1  0  0  3  0  0  0  0  0  0
  188.2680  177.5960  138.8620 C   0  0  1  0  0  3  0  0  0  0  0  0
  187.0020  178.6260  142.2640 O   0  0  0  0  0  0  0  0  0  0  0  0
  187.4120  178.3740  139.8900 C   0  0  1  0  0  3  0  0  0  0  0  0
  187.9660  178.0560  137.4300 C   0  0  1  0  0  3  0  0  0  0  0  0
  189.7700  177.6940  139.1850 C   0  0  1  0  0  3  0  0  0  0  0  0
  186.4840  177.8550  137.1280 C   0  0  1  0  0  3  0  0  0  0  0  0
  185.9070  178.2240  139.5470 C   0  0  1  0  0  3  0  0  0  0  0  0
  188.3330  179.3950  137.2500 O   0  0  0  0  0  1  0  0  0  0  0  0
  185.0400  179.1010  140.4460 C   0  0  0  0  0  2  0  0  0  0  0  0
  184.6600  178.4110  141.7560 C   0  0  0  0  0  2  0  0  0  0  0  0
  190.0430  177.2050  140.6090 C   0  0  0  0  0  2  0  0  0  0  0  0
  185.6310  178.6500  138.1060 C   0  0  0  0  0  2  0  0  0  0  0  0
  189.2370  178.0040  141.6210 C   0  0  2  0  0  3  0  0  0  0  0  0
  186.2010  178.2520  135.8220 O   0  0  0  0  0  1  0  0  0  0  0  0
  185.8640  177.8550  142.5130 C   0  0  0  0  0  2  0  0  0  0  0  0
  191.4370  176.0020  144.0470 C   0  0  0  0  0  0  0  0  0  0  0  0
  192.1990  174.8830  143.9680 F   0  0  0  0  0  0  0  0  0  0  0  0
  189.6230  177.5510  143.0380 C   0  0  2  0  0  3  0  0  0  0  0  0
  191.6810  176.8930  145.0100 C   0  0  0  0  0  3  0  0  0  0  0  0
  190.3630  178.6490  143.8220 C   0  0  0  0  0  2  0  0  0  0  0  0
  190.3810  176.2440  143.0460 C   0  0  0  0  0  0  0  0  0  0  0  0
  190.0780  175.3320  142.2290 O   0  0  0  0  0  0  0  0  0  0  0  0
  190.8450  178.1330  145.1800 C   0  0  1  0  0  3  0  0  0  0  0  0
  190.2760  177.1280  147.0700 C   0  0  0  0  0  1  0  0  0  0  0  0
  189.7480  177.8560  146.0020 O   0  0  0  0  0  0  0  0  0  0  0  0
  190.7690  174.6340  137.9690 N   0  0  0  0  0  0  0  0  0  0  0  0
  192.8040  177.1280  139.2320 O   0  0  0  0  0  0  0  0  0  0  0  0
  191.8890  176.4300  138.7210 C   0  0  0  0  0  0  0  0  0  0  0  0
  190.6270  176.9540  138.1390 C   0  0  1  0  0  3  0  0  0  0  0  0
  191.9490  175.0240  138.6070 N   0  0  0  0  0  2  0  0  0  0  0  0
  190.0150  175.6530  137.6930 C   0  0  0  0  0  3  0  0  0  0  0  0
  1 14  1  0  0  0  0
  1  3  1  1  0  0  0
  2  6  1  0  0  0  0
  2  4  1  0  0  0  0
  3 16  1  0  0  0  0
  4  1  1  0  0  0  0
  5  2  1  0  0  0  0
  6 12  1  0  0  0  0
  7  5  1  0  0  0  0
  7 13  1  0  0  0  0
  8  4  1  0  0  0  0
  8 10  1  0  0  0  0
  9  5  1  0  0  0  0
 10 11  1  0  0  0  0
 11 16  1  0  0  0  0
 12 14  1  0  0  0  0
 13  8  1  0  0  0  0
 14 19  1  0  0  0  0
 15  7  1  0  0  0  0
 17 20  2  0  0  0  0
 18 17  1  0  0  0  0
 19 22  1  0  0  0  0
 19 21  1  0  0  0  0
 20 24  1  0  0  0  0
 21 24  1  0  0  0  0
 22 17  1  0  0  0  0
 23 22  2  0  0  0  0
 24 26  1  0  0  0  0
 26 25  1  0  0  0  0
 27 31  1  0  0  0  0
 29 28  2  0  0  0  0
 30 29  1  0  0  0  0
 30  6  1  0  0  0  0
 31 29  1  0  0  0  0
 32 27  2  0  0  0  0
 32 30  1  0  0  0  0
M  END
>  <MODEL>
7

>  <REMARK>
 VINA RESULT:      -8.7      3.350      6.725
  Name = 
  3 active torsions:
  status: ('A' for Active; 'I' for Inactive)
    1  A    between atoms: C_10  and  C_28
    2  A    between atoms: O_15  and  C_26
    3  A    between atoms: C_16  and  C_27
                            x       y       z     vdW  Elec       q    Type
                         _______ _______ _______ _____ _____    ______ ____

>  <TORSDO>
F 3

$$$$
=
 OpenBabel10262421143D

 32 36  0  0  1  0  0  0  0  0999 V2000
  188.3810  178.0200  141.8700 C   0  0  1  0  0  3  0  0  0  0  0  0
  187.6110  178.2530  139.4670 C   0  0  1  0  0  3  0  0  0  0  0  0
  189.2280  177.3330  142.7500 O   0  0  0  0  0  0  0  0  0  0  0  0
  188.5960  177.5330  140.4200 C   0  0  1  0  0  3  0  0  0  0  0  0
  187.8090  177.7910  138.0180 C   0  0  1  0  0  3  0  0  0  0  0  0
  186.1520  178.0810  139.9240 C   0  0  1  0  0  3  0  0  0  0  0  0
  189.2450  178.0650  137.5820 C   0  0  1  0  0  3  0  0  0  0  0  0
  190.0540  177.7560  139.9420 C   0  0  1  0  0  3  0  0  0  0  0  0
  187.4990  176.4330  137.8820 O   0  0  0  0  0  1  0  0  0  0  0  0
  191.0430  176.9370  140.7670 C   0  0  0  0  0  2  0  0  0  0  0  0
  191.5010  177.6620  142.0320 C   0  0  0  0  0  2  0  0  0  0  0  0
  185.9820  178.5740  141.3620 C   0  0  0  0  0  2  0  0  0  0  0  0
  190.2230  177.3270  138.4860 C   0  0  0  0  0  2  0  0  0  0  0  0
  186.9150  177.8300  142.3050 C   0  0  2  0  0  3  0  0  0  0  0  0
  189.4310  177.6660  136.2590 O   0  0  0  0  0  1  0  0  0  0  0  0
  190.3410  178.1650  142.8890 C   0  0  0  0  0  2  0  0  0  0  0  0
  184.5110  178.8410  145.1200 C   0  0  0  0  0  0  0  0  0  0  0  0
  183.2650  179.3730  145.1890 F   0  0  0  0  0  0  0  0  0  0  0  0
  186.6330  178.2800  143.7470 C   0  0  2  0  0  3  0  0  0  0  0  0
  184.9860  178.1530  146.1600 C   0  0  0  0  0  3  0  0  0  0  0  0
  186.7810  177.1310  144.7580 C   0  0  0  0  0  2  0  0  0  0  0  0
  185.3060  178.9890  143.8870 C   0  0  0  0  0  0  0  0  0  0  0  0
  184.8970  179.7530  142.9710 O   0  0  0  0  0  0  0  0  0  0  0  0
  186.3750  177.5740  146.1660 C   0  0  1  0  0  3  0  0  0  0  0  0
  188.0010  177.8610  147.6420 C   0  0  0  0  0  1  0  0  0  0  0  0
  187.2810  178.5240  146.6470 O   0  0  0  0  0  0  0  0  0  0  0  0
  182.9910  179.3780  139.5170 N   0  0  0  0  0  0  0  0  0  0  0  0
  184.4190  176.7950  137.7160 O   0  0  0  0  0  0  0  0  0  0  0  0
  184.1630  177.8100  138.4150 C   0  0  0  0  0  0  0  0  0  0  0  0
  185.1670  178.7620  138.9530 C   0  0  1  0  0  3  0  0  0  0  0  0
  182.8550  178.2040  138.7710 N   0  0  0  0  0  2  0  0  0  0  0  0
  184.2340  179.7230  139.6420 C   0  0  0  0  0  3  0  0  0  0  0  0
  1 14  1  0  0  0  0
  1  3  1  1  0  0  0
  2  6  1  0  0  0  0
  2  4  1  0  0  0  0
  3 16  1  0  0  0  0
  4  1  1  0  0  0  0
  5  2  1  0  0  0  0
  6 12  1  0  0  0  0
  7  5  1  0  0  0  0
  7 13  1  0  0  0  0
  8  4  1  0  0  0  0
  8 10  1  0  0  0  0
  9  5  1  0  0  0  0
 10 11  1  0  0  0  0
 11 16  1  0  0  0  0
 12 14  1  0  0  0  0
 13  8  1  0  0  0  0
 14 19  1  0  0  0  0
 15  7  1  0  0  0  0
 17 18  1  0  0  0  0
 17 20  2  0  0  0  0
 19 22  1  0  0  0  0
 19 21  1  0  0  0  0
 20 24  1  0  0  0  0
 21 24  1  0  0  0  0
 22 17  1  0  0  0  0
 23 22  2  0  0  0  0
 24 26  1  0  0  0  0
 26 25  1  0  0  0  0
 27 32  2  0  0  0  0
 28 29  2  0  0  0  0
 29 31  1  0  0  0  0
 29 30  1  0  0  0  0
 30 32  1  0  0  0  0
 30  6  1  0  0  0  0
 31 27  1  0  0  0  0
M  END
>  <MODEL>
8

>  <REMARK>
 VINA RESULT:      -8.6      2.514      6.188
  Name = 
  3 active torsions:
  status: ('A' for Active; 'I' for Inactive)
    1  A    between atoms: C_10  and  C_28
    2  A    between atoms: O_15  and  C_26
    3  A    between atoms: C_16  and  C_27
                            x       y       z     vdW  Elec       q    Type
                         _______ _______ _______ _____ _____    ______ ____

>  <TORSDO>
F 3

$$$$
=
 OpenBabel10262421143D

 32 36  0  0  1  0  0  0  0  0999 V2000
  185.6720  178.1550  140.7180 C   0  0  1  0  0  3  0  0  0  0  0  0
  188.0200  177.8800  139.8050 C   0  0  1  0  0  3  0  0  0  0  0  0
  184.4160  178.7420  140.5150 O   0  0  0  0  0  0  0  0  0  0  0  0
  186.6180  178.4780  139.5390 C   0  0  1  0  0  3  0  0  0  0  0  0
  188.9780  178.1810  138.6460 C   0  0  1  0  0  3  0  0  0  0  0  0
  188.5930  178.3530  141.1520 C   0  0  1  0  0  3  0  0  0  0  0  0
  188.4090  177.6130  137.3490 C   0  0  1  0  0  3  0  0  0  0  0  0
  186.0650  177.9530  138.1900 C   0  0  1  0  0  3  0  0  0  0  0  0
  189.2010  179.5580  138.5300 O   0  0  0  0  0  1  0  0  0  0  0  0
  184.7520  178.6390  137.8200 C   0  0  0  0  0  2  0  0  0  0  0  0
  183.5310  177.9440  138.4240 C   0  0  0  0  0  2  0  0  0  0  0  0
  187.6280  178.0150  142.2910 C   0  0  0  0  0  2  0  0  0  0  0  0
  187.0470  178.2270  137.0530 C   0  0  0  0  0  2  0  0  0  0  0  0
  186.2650  178.6460  142.0520 C   0  0  2  0  0  3  0  0  0  0  0  0
  189.2810  177.8660  136.2900 O   0  0  0  0  0  1  0  0  0  0  0  0
  183.6460  177.7320  139.9320 C   0  0  0  0  0  2  0  0  0  0  0  0
  185.7520  178.0500  145.8090 C   0  0  0  0  0  0  0  0  0  0  0  0
  186.5100  177.5780  146.8290 F   0  0  0  0  0  0  0  0  0  0  0  0
  185.3660  178.3710  143.2690 C   0  0  2  0  0  3  0  0  0  0  0  0
  184.7040  178.8320  146.0800 C   0  0  0  0  0  3  0  0  0  0  0  0
  184.5870  179.6200  143.7140 C   0  0  0  0  0  2  0  0  0  0  0  0
  186.1170  177.7340  144.4150 C   0  0  0  0  0  0  0  0  0  0  0  0
  187.0240  176.8900  144.1860 O   0  0  0  0  0  0  0  0  0  0  0  0
  183.7980  179.3530  144.9980 C   0  0  1  0  0  3  0  0  0  0  0  0
  181.9930  179.0200  143.7570 C   0  0  0  0  0  1  0  0  0  0  0  0
  182.7790  178.4280  144.7480 O   0  0  0  0  0  0  0  0  0  0  0  0
  190.4410  175.7700  142.4780 N   0  0  0  0  0  0  0  0  0  0  0  0
  190.6090  179.1090  143.3650 O   0  0  0  0  0  0  0  0  0  0  0  0
  190.4520  177.9930  142.8020 C   0  0  0  0  0  0  0  0  0  0  0  0
  190.0070  177.7910  141.4000 C   0  0  1  0  0  3  0  0  0  0  0  0
  190.7060  176.7560  143.4320 N   0  0  0  0  0  2  0  0  0  0  0  0
  190.0570  176.2870  141.3530 C   0  0  0  0  0  3  0  0  0  0  0  0
  1  3  1  6  0  0  0
  1 14  1  0  0  0  0
  2  6  1  0  0  0  0
  4  2  1  0  0  0  0
  4  1  1  0  0  0  0
  5  2  1  0  0  0  0
  6 30  1  0  0  0  0
  6 12  1  0  0  0  0
  7  5  1  0  0  0  0
  8  4  1  0  0  0  0
  9  5  1  0  0  0  0
 10  8  1  0  0  0  0
 10 11  1  0  0  0  0
 11 16  1  0  0  0  0
 13  7  1  0  0  0  0
 13  8  1  0  0  0  0
 14 12  1  0  0  0  0
 14 19  1  0  0  0  0
 15  7  1  0  0  0  0
 16  3  1  0  0  0  0
 17 20  2  0  0  0  0
 17 18  1  0  0  0  0
 19 21  1  0  0  0  0
 19 22  1  0  0  0  0
 21 24  1  0  0  0  0
 22 17  1  0  0  0  0
 23 22  2  0  0  0  0
 24 20  1  0  0  0  0
 25 26  1  0  0  0  0
 26 24  1  0  0  0  0
 27 31  1  0  0  0  0
 29 28  2  0  0  0  0
 29 31  1  0  0  0  0
 30 29  1  0  0  0  0
 32 30  1  0  0  0  0
 32 27  2  0  0  0  0
M  END
>  <MODEL>
9

>  <REMARK>
 VINA RESULT:      -8.5      3.383      7.603
  Name = 
  3 active torsions:
  status: ('A' for Active; 'I' for Inactive)
    1  A    between atoms: C_10  and  C_28
    2  A    between atoms: O_15  and  C_26
    3  A    between atoms: C_16  and  C_27
                            x       y       z     vdW  Elec       q    Type
                         _______ _______ _______ _____ _____    ______ ____

>  <TORSDO>
F 3

$$$$
