=
 OpenBabel10262421183D

 32 34  0  0  1  0  0  0  0  0999 V2000
  189.5270  177.3160  143.4660 C   0  0  1  0  0  3  0  0  0  0  0  0
  191.2160  177.8750  145.3340 C   0  0  1  0  0  3  0  0  0  0  0  0
  191.5130  178.7190  144.1110 C   0  0  0  0  0  2  0  0  0  0  0  0
  190.0710  178.3710  144.4360 C   0  0  1  0  0  3  0  0  0  0  0  0
  191.5970  176.4960  145.0630 N   0  0  0  0  0  2  0  0  0  0  0  0
  191.2810  176.5970  147.4600 C   0  0  0  0  0  1  0  0  0  0  0  0
  192.0190  175.9190  146.3250 C   0  0  0  0  0  2  0  0  0  0  0  0
  188.0760  176.9640  143.7970 C   0  0  2  0  0  3  0  0  0  0  0  0
  187.7510  175.7030  143.2940 O   0  0  0  0  0  1  0  0  0  0  0  0
  187.1260  177.9940  143.2030 C   0  0  0  0  0  2  0  0  0  0  0  0
  185.8430  177.9600  143.9090 N   0  0  0  0  0  0  0  0  0  0  0  0
  184.7280  178.1920  142.9690 C   0  0  1  0  0  3  0  0  0  0  0  0
  183.5180  178.8210  143.6590 C   0  0  0  0  0  1  0  0  0  0  0  0
  185.1590  179.0720  141.7900 C   0  0  0  0  0  2  0  0  0  0  0  0
  184.3320  178.8100  140.5400 C   0  0  0  0  0  1  0  0  0  0  0  0
  185.8650  178.9830  144.9700 C   0  0  0  0  0  2  0  0  0  0  0  0
  184.6840  178.3680  146.9620 O   0  0  0  0  0  0  0  0  0  0  0  0
  186.9640  177.9390  147.0060 N   0  0  0  0  0  1  0  0  0  0  0  0
  185.7880  178.4160  146.3620 C   0  0  0  0  0  0  0  0  0  0  0  0
  189.6290  177.8360  142.0400 C   0  0  0  0  0  2  0  0  0  0  0  0
  191.7350  177.4050  140.8080 C   0  0  0  0  0  2  0  0  0  0  0  0
  190.5940  177.4060  139.8170 C   0  0  2  0  0  3  0  0  0  0  0  0
  190.3920  176.8300  141.2050 C   0  0  2  0  0  3  0  0  0  0  0  0
  190.7560  176.2560  138.8480 C   0  0  0  0  0  2  0  0  0  0  0  0
  190.3050  176.6670  137.5290 N   0  0  0  0  0  2  0  0  0  0  0  0
  188.9020  176.6070  137.5390 N   0  0  0  0  0  0  0  0  0  0  0  0
  187.2780  178.3730  138.5860 O   0  0  0  0  0  1  0  0  0  0  0  0
  188.9100  178.9820  136.9730 C   0  0  0  0  0  2  0  0  0  0  0  0
  188.4190  177.6020  136.5810 C   0  0  2  0  0  3  0  0  0  0  0  0
  187.4640  178.6140  137.2220 C   0  0  1  0  0  3  0  0  0  0  0  0
  188.5130  175.2790  137.0650 C   0  0  0  0  0  2  0  0  0  0  0  0
  187.1690  175.2320  136.7260 F   0  0  0  0  0  0  0  0  0  0  0  0
  1 20  1  6  0  0  0
  1  8  1  0  0  0  0
  2  5  1  6  0  0  0
  3  4  1  0  0  0  0
  3  2  1  0  0  0  0
  4  1  1  6  0  0  0
  4  2  1  0  0  0  0
  5  7  1  0  0  0  0
  7  6  1  0  0  0  0
  8  9  1  6  0  0  0
 10  8  1  0  0  0  0
 10 11  1  0  0  0  0
 11 16  1  0  0  0  0
 12 13  1  1  0  0  0
 12 11  1  0  0  0  0
 14 12  1  0  0  0  0
 15 14  1  0  0  0  0
 16 19  1  0  0  0  0
 19 17  2  0  0  0  0
 19 18  1  0  0  0  0
 21 23  1  0  0  0  0
 22 24  1  6  0  0  0
 22 21  1  0  0  0  0
 22 23  1  0  0  0  0
 23 20  1  1  0  0  0
 25 26  1  0  0  0  0
 25 24  1  0  0  0  0
 28 30  1  0  0  0  0
 29 28  1  0  0  0  0
 29 30  1  0  0  0  0
 29 26  1  1  0  0  0
 30 27  1  1  0  0  0
 31 26  1  0  0  0  0
 32 31  1  0  0  0  0
M  END
>  <MODEL>
1

>  <REMARK>
 VINA RESULT:      -6.4      0.000      0.000
  Name = 
  17 active torsions:
  status: ('A' for Active; 'I' for Inactive)
    1  A    between atoms: C_2  and  C_6
    2  A    between atoms: C_3  and  N_20
    3  A    between atoms: C_3  and  C_22
    4  A    between atoms: C_4  and  C_14
    5  A    between atoms: C_4  and  C_24
    6  A    between atoms: C_4  and  C_30
    7  A    between atoms: C_5  and  C_14
    8  A    between atoms: C_6  and  N_17
    9  A    between atoms: C_11  and  N_12
   10  A    between atoms: N_12  and  N_17
   11  A    between atoms: N_12  and  C_28
   12  A    between atoms: N_13  and  C_18
   13  A    between atoms: N_13  and  C_29
   14  A    between atoms: C_15  and  N_20
   15  A    between atoms: C_15  and  C_26
   16  A    between atoms: C_16  and  N_20
   17  A    between atoms: C_16  and  C_24
                            x       y       z     vdW  Elec       q    Type
                         _______ _______ _______ _____ _____    ______ ____

>  <TORSDO>
F 17

$$$$
=
 OpenBabel10262421183D

 32 34  0  0  1  0  0  0  0  0999 V2000
  189.3830  177.4080  143.0750 C   0  0  1  0  0  3  0  0  0  0  0  0
  190.8280  177.7250  145.1890 C   0  0  1  0  0  3  0  0  0  0  0  0
  191.2660  178.7080  144.1210 C   0  0  0  0  0  2  0  0  0  0  0  0
  189.7970  178.3350  144.2250 C   0  0  1  0  0  3  0  0  0  0  0  0
  191.2500  176.3860  144.8010 N   0  0  0  0  0  2  0  0  0  0  0  0
  191.4630  176.3770  147.2110 C   0  0  0  0  0  1  0  0  0  0  0  0
  192.0210  175.8510  145.9070 C   0  0  0  0  0  2  0  0  0  0  0  0
  187.8640  177.2410  143.0280 C   0  0  2  0  0  3  0  0  0  0  0  0
  187.2650  178.3620  142.4510 O   0  0  0  0  0  1  0  0  0  0  0  0
  187.3020  177.0460  144.4300 C   0  0  0  0  0  2  0  0  0  0  0  0
  186.4740  178.1950  144.8030 N   0  0  0  0  0  0  0  0  0  0  0  0
  186.6770  178.5410  146.2240 C   0  0  1  0  0  3  0  0  0  0  0  0
  185.3570  178.6280  146.9880 C   0  0  0  0  0  1  0  0  0  0  0  0
  187.6060  177.5390  146.9200 C   0  0  0  0  0  2  0  0  0  0  0  0
  188.2550  178.1230  148.1670 C   0  0  0  0  0  1  0  0  0  0  0  0
  185.0630  177.8610  144.5350 C   0  0  0  0  0  2  0  0  0  0  0  0
  184.2390  180.0320  143.9450 O   0  0  0  0  0  0  0  0  0  0  0  0
  183.8710  178.3820  142.3550 N   0  0  0  0  0  1  0  0  0  0  0  0
  184.3750  178.8270  143.6100 C   0  0  0  0  0  0  0  0  0  0  0  0
  189.8900  177.9750  141.7580 C   0  0  0  0  0  2  0  0  0  0  0  0
  191.9130  177.3330  140.4790 C   0  0  0  0  0  2  0  0  0  0  0  0
  190.7310  177.3230  139.5380 C   0  0  2  0  0  3  0  0  0  0  0  0
  190.5610  176.8670  140.9740 C   0  0  2  0  0  3  0  0  0  0  0  0
  190.7880  176.0950  138.6570 C   0  0  0  0  0  2  0  0  0  0  0  0
  190.2530  176.4160  137.3450 N   0  0  0  0  0  2  0  0  0  0  0  0
  188.8560  176.4750  137.4740 N   0  0  0  0  0  0  0  0  0  0  0  0
  187.4000  178.3440  138.5860 O   0  0  0  0  0  1  0  0  0  0  0  0
  188.9660  178.8380  136.8710 C   0  0  0  0  0  2  0  0  0  0  0  0
  188.3750  177.4830  136.5310 C   0  0  2  0  0  3  0  0  0  0  0  0
  187.5180  178.5570  137.2090 C   0  0  1  0  0  3  0  0  0  0  0  0
  188.3200  175.1730  137.0750 C   0  0  0  0  0  2  0  0  0  0  0  0
  187.0080  175.0120  137.4930 F   0  0  0  0  0  0  0  0  0  0  0  0
  1 20  1  6  0  0  0
  2  5  1  6  0  0  0
  3  4  1  0  0  0  0
  3  2  1  0  0  0  0
  4  1  1  6  0  0  0
  4  2  1  0  0  0  0
  5  7  1  0  0  0  0
  7  6  1  0  0  0  0
  8  9  1  1  0  0  0
  8  1  1  0  0  0  0
  8 10  1  0  0  0  0
 10 11  1  0  0  0  0
 11 12  1  0  0  0  0
 12 14  1  0  0  0  0
 12 13  1  1  0  0  0
 14 15  1  0  0  0  0
 16 11  1  0  0  0  0
 18 19  1  0  0  0  0
 19 17  2  0  0  0  0
 19 16  1  0  0  0  0
 21 23  1  0  0  0  0
 22 24  1  6  0  0  0
 22 21  1  0  0  0  0
 22 23  1  0  0  0  0
 23 20  1  1  0  0  0
 25 26  1  0  0  0  0
 25 24  1  0  0  0  0
 28 30  1  0  0  0  0
 29 28  1  0  0  0  0
 29 30  1  0  0  0  0
 29 26  1  1  0  0  0
 30 27  1  1  0  0  0
 31 26  1  0  0  0  0
 31 32  1  0  0  0  0
M  END
>  <MODEL>
2

>  <REMARK>
 VINA RESULT:      -6.0      1.252      2.549
  Name = 
  17 active torsions:
  status: ('A' for Active; 'I' for Inactive)
    1  A    between atoms: C_2  and  C_6
    2  A    between atoms: C_3  and  N_20
    3  A    between atoms: C_3  and  C_22
    4  A    between atoms: C_4  and  C_14
    5  A    between atoms: C_4  and  C_24
    6  A    between atoms: C_4  and  C_30
    7  A    between atoms: C_5  and  C_14
    8  A    between atoms: C_6  and  N_17
    9  A    between atoms: C_11  and  N_12
   10  A    between atoms: N_12  and  N_17
   11  A    between atoms: N_12  and  C_28
   12  A    between atoms: N_13  and  C_18
   13  A    between atoms: N_13  and  C_29
   14  A    between atoms: C_15  and  N_20
   15  A    between atoms: C_15  and  C_26
   16  A    between atoms: C_16  and  N_20
   17  A    between atoms: C_16  and  C_24
                            x       y       z     vdW  Elec       q    Type
                         _______ _______ _______ _____ _____    ______ ____

>  <TORSDO>
F 17

$$$$
=
 OpenBabel10262421183D

 32 34  0  0  1  0  0  0  0  0999 V2000
  189.5600  177.3380  143.4230 C   0  0  1  0  0  3  0  0  0  0  0  0
  191.2390  177.7860  145.3310 C   0  0  1  0  0  3  0  0  0  0  0  0
  191.5510  178.6910  144.1560 C   0  0  0  0  0  2  0  0  0  0  0  0
  190.1050  178.3380  144.4520 C   0  0  1  0  0  3  0  0  0  0  0  0
  191.6120  176.4200  144.9900 N   0  0  0  0  0  2  0  0  0  0  0  0
  191.4670  176.5710  147.4010 C   0  0  0  0  0  1  0  0  0  0  0  0
  191.9830  175.7640  146.2290 C   0  0  0  0  0  2  0  0  0  0  0  0
  188.1220  176.9390  143.7550 C   0  0  2  0  0  3  0  0  0  0  0  0
  187.8780  175.6200  143.3690 O   0  0  0  0  0  1  0  0  0  0  0  0
  187.1350  177.8540  143.0430 C   0  0  0  0  0  2  0  0  0  0  0  0
  185.8700  177.8980  143.7800 N   0  0  0  0  0  0  0  0  0  0  0  0
  184.7550  178.2420  142.8760 C   0  0  1  0  0  3  0  0  0  0  0  0
  183.5790  178.8660  143.6270 C   0  0  0  0  0  1  0  0  0  0  0  0
  185.2080  179.1880  141.7570 C   0  0  0  0  0  2  0  0  0  0  0  0
  184.6600  178.7780  140.3980 C   0  0  0  0  0  1  0  0  0  0  0  0
  185.9960  178.8860  144.8670 C   0  0  0  0  0  2  0  0  0  0  0  0
  186.8560  177.6700  146.7440 O   0  0  0  0  0  0  0  0  0  0  0  0
  184.6740  178.4230  146.9850 N   0  0  0  0  0  1  0  0  0  0  0  0
  185.8830  178.2910  146.2450 C   0  0  0  0  0  0  0  0  0  0  0  0
  189.6280  177.9530  142.0330 C   0  0  0  0  0  2  0  0  0  0  0  0
  191.4830  177.4070  140.4830 C   0  0  0  0  0  2  0  0  0  0  0  0
  190.2090  177.5290  139.6790 C   0  0  2  0  0  3  0  0  0  0  0  0
  190.1730  176.9220  141.0680 C   0  0  2  0  0  3  0  0  0  0  0  0
  190.1310  176.4050  138.6700 C   0  0  0  0  0  2  0  0  0  0  0  0
  190.9910  176.7100  137.5390 N   0  0  0  0  0  2  0  0  0  0  0  0
  191.2670  175.4930  136.8940 N   0  0  0  0  0  0  0  0  0  0  0  0
  193.4030  174.8340  135.5310 O   0  0  0  0  0  1  0  0  0  0  0  0
  193.5450  175.6370  137.7610 C   0  0  0  0  0  2  0  0  0  0  0  0
  192.2820  174.8020  137.6890 C   0  0  2  0  0  3  0  0  0  0  0  0
  193.5130  174.4210  136.8620 C   0  0  1  0  0  3  0  0  0  0  0  0
  190.0420  174.6950  136.9100 C   0  0  0  0  0  2  0  0  0  0  0  0
  190.2890  173.3870  137.2980 F   0  0  0  0  0  0  0  0  0  0  0  0
  1 20  1  6  0  0  0
  1  8  1  0  0  0  0
  2  5  1  6  0  0  0
  3  4  1  0  0  0  0
  3  2  1  0  0  0  0
  4  1  1  6  0  0  0
  4  2  1  0  0  0  0
  5  7  1  0  0  0  0
  7  6  1  0  0  0  0
  8  9  1  6  0  0  0
 10  8  1  0  0  0  0
 10 11  1  0  0  0  0
 11 16  1  0  0  0  0
 12 13  1  1  0  0  0
 12 11  1  0  0  0  0
 14 12  1  0  0  0  0
 15 14  1  0  0  0  0
 16 19  1  0  0  0  0
 19 17  2  0  0  0  0
 19 18  1  0  0  0  0
 21 23  1  0  0  0  0
 22 24  1  6  0  0  0
 22 21  1  0  0  0  0
 22 23  1  0  0  0  0
 23 20  1  1  0  0  0
 25 24  1  0  0  0  0
 26 31  1  0  0  0  0
 26 25  1  0  0  0  0
 29 26  1  6  0  0  0
 29 28  1  0  0  0  0
 30 27  1  6  0  0  0
 30 29  1  0  0  0  0
 30 28  1  0  0  0  0
 31 32  1  0  0  0  0
M  END
>  <MODEL>
3

>  <REMARK>
 VINA RESULT:      -6.0      1.943      2.543
  Name = 
  17 active torsions:
  status: ('A' for Active; 'I' for Inactive)
    1  A    between atoms: C_2  and  C_6
    2  A    between atoms: C_3  and  N_20
    3  A    between atoms: C_3  and  C_22
    4  A    between atoms: C_4  and  C_14
    5  A    between atoms: C_4  and  C_24
    6  A    between atoms: C_4  and  C_30
    7  A    between atoms: C_5  and  C_14
    8  A    between atoms: C_6  and  N_17
    9  A    between atoms: C_11  and  N_12
   10  A    between atoms: N_12  and  N_17
   11  A    between atoms: N_12  and  C_28
   12  A    between atoms: N_13  and  C_18
   13  A    between atoms: N_13  and  C_29
   14  A    between atoms: C_15  and  N_20
   15  A    between atoms: C_15  and  C_26
   16  A    between atoms: C_16  and  N_20
   17  A    between atoms: C_16  and  C_24
                            x       y       z     vdW  Elec       q    Type
                         _______ _______ _______ _____ _____    ______ ____

>  <TORSDO>
F 17

$$$$
=
 OpenBabel10262421183D

 32 34  0  0  1  0  0  0  0  0999 V2000
  187.4290  178.3800  142.6680 C   0  0  1  0  0  3  0  0  0  0  0  0
  184.8510  178.3270  142.7610 C   0  0  1  0  0  3  0  0  0  0  0  0
  185.3000  178.8350  141.4060 C   0  0  0  0  0  2  0  0  0  0  0  0
  186.1320  177.7790  142.1120 C   0  0  1  0  0  3  0  0  0  0  0  0
  185.1120  179.3520  143.7620 N   0  0  0  0  0  2  0  0  0  0  0  0
  182.8120  178.8420  144.3140 C   0  0  0  0  0  1  0  0  0  0  0  0
  184.1970  179.1100  144.8610 C   0  0  0  0  0  2  0  0  0  0  0  0
  188.1520  177.3810  143.5710 C   0  0  2  0  0  3  0  0  0  0  0  0
  187.5390  176.1280  143.5050 O   0  0  0  0  0  1  0  0  0  0  0  0
  188.1420  177.8600  145.0160 C   0  0  0  0  0  2  0  0  0  0  0  0
  189.5130  178.0700  145.4850 N   0  0  0  0  0  0  0  0  0  0  0  0
  190.4730  177.8830  144.3790 C   0  0  1  0  0  3  0  0  0  0  0  0
  191.1770  179.1870  144.0050 C   0  0  0  0  0  1  0  0  0  0  0  0
  191.5210  176.8150  144.7170 C   0  0  0  0  0  2  0  0  0  0  0  0
  191.5940  175.7240  143.6580 C   0  0  0  0  0  1  0  0  0  0  0  0
  189.7810  177.1270  146.5860 C   0  0  0  0  0  2  0  0  0  0  0  0
  188.1010  176.4970  148.1730 O   0  0  0  0  0  0  0  0  0  0  0  0
  189.0740  178.5690  148.5520 N   0  0  0  0  0  1  0  0  0  0  0  0
  188.9360  177.3630  147.8080 C   0  0  0  0  0  0  0  0  0  0  0  0
  188.3300  178.7950  141.5160 C   0  0  0  0  0  2  0  0  0  0  0  0
  190.1820  177.4230  140.6050 C   0  0  0  0  0  2  0  0  0  0  0  0
  189.4090  178.0110  139.4470 C   0  0  2  0  0  3  0  0  0  0  0  0
  188.6780  177.5690  140.6990 C   0  0  2  0  0  3  0  0  0  0  0  0
  189.2020  176.9570  138.3820 C   0  0  0  0  0  2  0  0  0  0  0  0
  190.2470  177.0700  137.3790 N   0  0  0  0  0  2  0  0  0  0  0  0
  190.5980  175.7630  137.0030 N   0  0  0  0  0  0  0  0  0  0  0  0
  192.8460  175.0830  135.8480 O   0  0  0  0  0  1  0  0  0  0  0  0
  192.8100  176.2460  137.9170 C   0  0  0  0  0  2  0  0  0  0  0  0
  191.6230  175.3020  137.9380 C   0  0  2  0  0  3  0  0  0  0  0  0
  192.9220  174.9020  137.2320 C   0  0  1  0  0  3  0  0  0  0  0  0
  189.4110  174.9230  137.1630 C   0  0  0  0  0  2  0  0  0  0  0  0
  189.1390  174.1990  136.0130 F   0  0  0  0  0  0  0  0  0  0  0  0
  1 20  1  6  0  0  0
  1  8  1  0  0  0  0
  2  5  1  1  0  0  0
  3  4  1  0  0  0  0
  3  2  1  0  0  0  0
  4  1  1  1  0  0  0
  4  2  1  0  0  0  0
  5  7  1  0  0  0  0
  6  7  1  0  0  0  0
  8  9  1  1  0  0  0
  8 10  1  0  0  0  0
 10 11  1  0  0  0  0
 11 16  1  0  0  0  0
 12 13  1  1  0  0  0
 12 14  1  0  0  0  0
 12 11  1  0  0  0  0
 15 14  1  0  0  0  0
 16 19  1  0  0  0  0
 19 17  2  0  0  0  0
 19 18  1  0  0  0  0
 21 23  1  0  0  0  0
 22 24  1  6  0  0  0
 22 21  1  0  0  0  0
 22 23  1  0  0  0  0
 23 20  1  1  0  0  0
 25 24  1  0  0  0  0
 26 31  1  0  0  0  0
 26 25  1  0  0  0  0
 28 29  1  0  0  0  0
 29 26  1  6  0  0  0
 30 27  1  6  0  0  0
 30 28  1  0  0  0  0
 30 29  1  0  0  0  0
 32 31  1  0  0  0  0
M  END
>  <MODEL>
4

>  <REMARK>
 VINA RESULT:      -5.9      2.137      4.970
  Name = 
  17 active torsions:
  status: ('A' for Active; 'I' for Inactive)
    1  A    between atoms: C_2  and  C_6
    2  A    between atoms: C_3  and  N_20
    3  A    between atoms: C_3  and  C_22
    4  A    between atoms: C_4  and  C_14
    5  A    between atoms: C_4  and  C_24
    6  A    between atoms: C_4  and  C_30
    7  A    between atoms: C_5  and  C_14
    8  A    between atoms: C_6  and  N_17
    9  A    between atoms: C_11  and  N_12
   10  A    between atoms: N_12  and  N_17
   11  A    between atoms: N_12  and  C_28
   12  A    between atoms: N_13  and  C_18
   13  A    between atoms: N_13  and  C_29
   14  A    between atoms: C_15  and  N_20
   15  A    between atoms: C_15  and  C_26
   16  A    between atoms: C_16  and  N_20
   17  A    between atoms: C_16  and  C_24
                            x       y       z     vdW  Elec       q    Type
                         _______ _______ _______ _____ _____    ______ ____

>  <TORSDO>
F 17

$$$$
=
 OpenBabel10262421183D

 32 34  0  0  1  0  0  0  0  0999 V2000
  187.3210  178.4110  142.6340 C   0  0  1  0  0  3  0  0  0  0  0  0
  184.7670  178.3230  142.9890 C   0  0  1  0  0  3  0  0  0  0  0  0
  185.0710  178.9080  141.6240 C   0  0  0  0  0  2  0  0  0  0  0  0
  185.9780  177.8250  142.1830 C   0  0  1  0  0  3  0  0  0  0  0  0
  185.1240  179.2960  144.0120 N   0  0  0  0  0  2  0  0  0  0  0  0
  185.0770  178.4850  146.2910 C   0  0  0  0  0  1  0  0  0  0  0  0
  184.2590  179.0480  145.1490 C   0  0  0  0  0  2  0  0  0  0  0  0
  188.1590  177.3620  143.3650 C   0  0  2  0  0  3  0  0  0  0  0  0
  187.4280  176.1840  143.5360 O   0  0  0  0  0  1  0  0  0  0  0  0
  188.5920  177.8780  144.7310 C   0  0  0  0  0  2  0  0  0  0  0  0
  189.6020  176.9870  145.3070 N   0  0  0  0  0  0  0  0  0  0  0  0
  189.4400  176.8980  146.7710 C   0  0  1  0  0  3  0  0  0  0  0  0
  190.7840  176.8710  147.4970 C   0  0  0  0  0  1  0  0  0  0  0  0
  188.5880  178.0510  147.3150 C   0  0  0  0  0  2  0  0  0  0  0  0
  188.2770  177.8910  148.7970 C   0  0  0  0  0  1  0  0  0  0  0  0
  190.9370  177.5020  144.9510 C   0  0  0  0  0  2  0  0  0  0  0  0
  191.9720  177.3010  142.8000 O   0  0  0  0  0  0  0  0  0  0  0  0
  191.8580  175.3290  144.0170 N   0  0  0  0  0  1  0  0  0  0  0  0
  191.6180  176.7230  143.8590 C   0  0  0  0  0  0  0  0  0  0  0  0
  188.0780  178.9380  141.4250 C   0  0  0  0  0  2  0  0  0  0  0  0
  189.8150  177.6900  140.1730 C   0  0  0  0  0  2  0  0  0  0  0  0
  188.8910  178.3510  139.1760 C   0  0  2  0  0  3  0  0  0  0  0  0
  188.3340  177.7910  140.4700 C   0  0  2  0  0  3  0  0  0  0  0  0
  188.5630  177.3830  138.0620 C   0  0  0  0  0  2  0  0  0  0  0  0
  189.7270  177.2130  137.2090 N   0  0  0  0  0  2  0  0  0  0  0  0
  189.7270  175.8780  136.7750 N   0  0  0  0  0  0  0  0  0  0  0  0
  191.7620  174.6730  135.6530 O   0  0  0  0  0  1  0  0  0  0  0  0
  191.9460  175.7080  137.7810 C   0  0  0  0  0  2  0  0  0  0  0  0
  190.5510  175.1170  137.7140 C   0  0  2  0  0  3  0  0  0  0  0  0
  191.7260  174.4150  137.0260 C   0  0  1  0  0  3  0  0  0  0  0  0
  188.3520  175.3860  136.8590 C   0  0  0  0  0  2  0  0  0  0  0  0
  188.3130  174.0170  137.0750 F   0  0  0  0  0  0  0  0  0  0  0  0
  1 20  1  6  0  0  0
  1  8  1  0  0  0  0
  2  5  1  1  0  0  0
  3  4  1  0  0  0  0
  3  2  1  0  0  0  0
  4  1  1  1  0  0  0
  4  2  1  0  0  0  0
  5  7  1  0  0  0  0
  7  6  1  0  0  0  0
  8  9  1  1  0  0  0
  8 10  1  0  0  0  0
 10 11  1  0  0  0  0
 11 12  1  0  0  0  0
 12 14  1  0  0  0  0
 12 13  1  1  0  0  0
 14 15  1  0  0  0  0
 16 11  1  0  0  0  0
 17 19  2  0  0  0  0
 19 18  1  0  0  0  0
 19 16  1  0  0  0  0
 21 23  1  0  0  0  0
 22 24  1  6  0  0  0
 22 21  1  0  0  0  0
 22 23  1  0  0  0  0
 23 20  1  1  0  0  0
 25 24  1  0  0  0  0
 26 31  1  0  0  0  0
 26 25  1  0  0  0  0
 29 26  1  6  0  0  0
 29 28  1  0  0  0  0
 30 27  1  6  0  0  0
 30 29  1  0  0  0  0
 30 28  1  0  0  0  0
 31 32  1  0  0  0  0
M  END
>  <MODEL>
5

>  <REMARK>
 VINA RESULT:      -5.9      2.123      5.223
  Name = 
  17 active torsions:
  status: ('A' for Active; 'I' for Inactive)
    1  A    between atoms: C_2  and  C_6
    2  A    between atoms: C_3  and  N_20
    3  A    between atoms: C_3  and  C_22
    4  A    between atoms: C_4  and  C_14
    5  A    between atoms: C_4  and  C_24
    6  A    between atoms: C_4  and  C_30
    7  A    between atoms: C_5  and  C_14
    8  A    between atoms: C_6  and  N_17
    9  A    between atoms: C_11  and  N_12
   10  A    between atoms: N_12  and  N_17
   11  A    between atoms: N_12  and  C_28
   12  A    between atoms: N_13  and  C_18
   13  A    between atoms: N_13  and  C_29
   14  A    between atoms: C_15  and  N_20
   15  A    between atoms: C_15  and  C_26
   16  A    between atoms: C_16  and  N_20
   17  A    between atoms: C_16  and  C_24
                            x       y       z     vdW  Elec       q    Type
                         _______ _______ _______ _____ _____    ______ ____

>  <TORSDO>
F 17

$$$$
=
 OpenBabel10262421183D

 32 34  0  0  1  0  0  0  0  0999 V2000
  189.4830  177.3910  142.7100 C   0  0  1  0  0  3  0  0  0  0  0  0
  190.1940  178.3440  145.0000 C   0  0  1  0  0  3  0  0  0  0  0  0
  191.3930  178.2960  144.0740 C   0  0  0  0  0  2  0  0  0  0  0  0
  190.0230  178.5950  143.4920 C   0  0  1  0  0  3  0  0  0  0  0  0
  189.8470  176.9870  145.3960 N   0  0  0  0  0  2  0  0  0  0  0  0
  191.2650  176.4300  147.2760 C   0  0  0  0  0  1  0  0  0  0  0  0
  189.9080  176.9430  146.8450 C   0  0  0  0  0  2  0  0  0  0  0  0
  188.1210  177.7060  142.0910 C   0  0  2  0  0  3  0  0  0  0  0  0
  188.0240  179.0650  141.7870 O   0  0  0  0  0  1  0  0  0  0  0  0
  186.9980  177.3320  143.0480 C   0  0  0  0  0  2  0  0  0  0  0  0
  185.9760  178.3810  143.0580 N   0  0  0  0  0  0  0  0  0  0  0  0
  185.6670  178.7900  144.4430 C   0  0  1  0  0  3  0  0  0  0  0  0
  184.1620  178.8670  144.6960 C   0  0  0  0  0  1  0  0  0  0  0  0
  186.3110  177.8470  145.4660 C   0  0  0  0  0  2  0  0  0  0  0  0
  186.3370  178.4430  146.8660 C   0  0  0  0  0  1  0  0  0  0  0  0
  184.7740  177.8710  142.3750 C   0  0  0  0  0  2  0  0  0  0  0  0
  183.0440  178.8990  141.0750 O   0  0  0  0  0  0  0  0  0  0  0  0
  185.2050  179.4490  140.4340 N   0  0  0  0  0  1  0  0  0  0  0  0
  184.2790  178.7620  141.2690 C   0  0  0  0  0  0  0  0  0  0  0  0
  190.4760  177.0030  141.6260 C   0  0  0  0  0  2  0  0  0  0  0  0
  190.6710  176.3040  139.2560 C   0  0  0  0  0  2  0  0  0  0  0  0
  190.3470  177.7790  139.2930 C   0  0  2  0  0  3  0  0  0  0  0  0
  189.7340  176.8430  140.3160 C   0  0  2  0  0  3  0  0  0  0  0  0
  189.2940  178.0980  138.2550 C   0  0  0  0  0  2  0  0  0  0  0  0
  189.5650  177.3410  137.0440 N   0  0  0  0  0  2  0  0  0  0  0  0
  188.3310  177.1290  136.4080 N   0  0  0  0  0  0  0  0  0  0  0  0
  187.6020  175.3220  134.6600 O   0  0  0  0  0  1  0  0  0  0  0  0
  188.5970  174.7240  136.7310 C   0  0  0  0  0  2  0  0  0  0  0  0
  187.7320  175.9380  137.0090 C   0  0  2  0  0  3  0  0  0  0  0  0
  187.3070  174.9050  135.9610 C   0  0  1  0  0  3  0  0  0  0  0  0
  187.4770  178.2790  136.7060 C   0  0  0  0  0  2  0  0  0  0  0  0
  186.1680  178.0600  136.3030 F   0  0  0  0  0  0  0  0  0  0  0  0
  1 20  1  6  0  0  0
  2  5  1  6  0  0  0
  3  2  1  0  0  0  0
  4  1  1  6  0  0  0
  4  3  1  0  0  0  0
  4  2  1  0  0  0  0
  5  7  1  0  0  0  0
  7  6  1  0  0  0  0
  8  9  1  1  0  0  0
  8  1  1  0  0  0  0
  8 10  1  0  0  0  0
 10 11  1  0  0  0  0
 11 12  1  0  0  0  0
 12 13  1  6  0  0  0
 12 14  1  0  0  0  0
 14 15  1  0  0  0  0
 16 11  1  0  0  0  0
 17 19  2  0  0  0  0
 18 19  1  0  0  0  0
 19 16  1  0  0  0  0
 21 22  1  0  0  0  0
 21 23  1  0  0  0  0
 22 24  1  6  0  0  0
 22 23  1  0  0  0  0
 23 20  1  1  0  0  0
 25 24  1  0  0  0  0
 26 31  1  0  0  0  0
 26 25  1  0  0  0  0
 28 29  1  0  0  0  0
 29 26  1  6  0  0  0
 30 27  1  6  0  0  0
 30 28  1  0  0  0  0
 30 29  1  0  0  0  0
 32 31  1  0  0  0  0
M  END
>  <MODEL>
6

>  <REMARK>
 VINA RESULT:      -5.8      1.881      3.154
  Name = 
  17 active torsions:
  status: ('A' for Active; 'I' for Inactive)
    1  A    between atoms: C_2  and  C_6
    2  A    between atoms: C_3  and  N_20
    3  A    between atoms: C_3  and  C_22
    4  A    between atoms: C_4  and  C_14
    5  A    between atoms: C_4  and  C_24
    6  A    between atoms: C_4  and  C_30
    7  A    between atoms: C_5  and  C_14
    8  A    between atoms: C_6  and  N_17
    9  A    between atoms: C_11  and  N_12
   10  A    between atoms: N_12  and  N_17
   11  A    between atoms: N_12  and  C_28
   12  A    between atoms: N_13  and  C_18
   13  A    between atoms: N_13  and  C_29
   14  A    between atoms: C_15  and  N_20
   15  A    between atoms: C_15  and  C_26
   16  A    between atoms: C_16  and  N_20
   17  A    between atoms: C_16  and  C_24
                            x       y       z     vdW  Elec       q    Type
                         _______ _______ _______ _____ _____    ______ ____

>  <TORSDO>
F 17

$$$$
=
 OpenBabel10262421183D

 32 34  0  0  1  0  0  0  0  0999 V2000
  188.5260  177.4690  141.1340 C   0  0  1  0  0  3  0  0  0  0  0  0
  189.3770  177.4190  138.6990 C   0  0  1  0  0  3  0  0  0  0  0  0
  189.0570  178.8460  139.0960 C   0  0  0  0  0  2  0  0  0  0  0  0
  189.6150  177.8960  140.1410 C   0  0  1  0  0  3  0  0  0  0  0  0
  188.1320  176.6810  138.5390 N   0  0  0  0  0  2  0  0  0  0  0  0
  186.2400  176.5720  137.0340 C   0  0  0  0  0  1  0  0  0  0  0  0
  187.7250  176.8360  137.1550 C   0  0  0  0  0  2  0  0  0  0  0  0
  189.1440  176.9420  142.4290 C   0  0  2  0  0  3  0  0  0  0  0  0
  188.4610  175.8080  142.8720 O   0  0  0  0  0  1  0  0  0  0  0  0
  189.0940  178.0060  143.5180 C   0  0  0  0  0  2  0  0  0  0  0  0
  189.3980  177.4070  144.8200 N   0  0  0  0  0  0  0  0  0  0  0  0
  188.4420  177.8750  145.8420 C   0  0  1  0  0  3  0  0  0  0  0  0
  187.0020  177.8600  145.3300 C   0  0  0  0  0  1  0  0  0  0  0  0
  188.5380  177.0430  147.1260 C   0  0  0  0  0  2  0  0  0  0  0  0
  188.7290  177.9100  148.3630 C   0  0  0  0  0  1  0  0  0  0  0  0
  190.7820  177.7610  145.1850 C   0  0  0  0  0  2  0  0  0  0  0  0
  191.9480  175.7210  144.7150 O   0  0  0  0  0  0  0  0  0  0  0  0
  192.0640  176.4260  146.9230 N   0  0  0  0  0  1  0  0  0  0  0  0
  191.6280  176.5800  145.5770 C   0  0  0  0  0  0  0  0  0  0  0  0
  187.6160  178.6520  141.4280 C   0  0  0  0  0  2  0  0  0  0  0  0
  185.2990  178.9990  140.6200 C   0  0  0  0  0  2  0  0  0  0  0  0
  185.3300  179.2620  142.1080 C   0  0  2  0  0  3  0  0  0  0  0  0
  186.1870  178.1600  141.5150 C   0  0  2  0  0  3  0  0  0  0  0  0
  184.1280  178.6230  142.7660 C   0  0  0  0  0  2  0  0  0  0  0  0
  183.1460  178.2810  141.7510 N   0  0  0  0  0  2  0  0  0  0  0  0
  181.9890  179.0260  142.0320 N   0  0  0  0  0  0  0  0  0  0  0  0
  180.9960  180.1940  139.9110 O   0  0  0  0  0  1  0  0  0  0  0  0
  181.2150  177.8340  140.0470 C   0  0  0  0  0  2  0  0  0  0  0  0
  180.8580  178.3100  141.4420 C   0  0  2  0  0  3  0  0  0  0  0  0
  180.2940  179.0230  140.2090 C   0  0  1  0  0  3  0  0  0  0  0  0
  181.8180  179.0460  143.4850 C   0  0  0  0  0  2  0  0  0  0  0  0
  180.9580  178.0450  143.9120 F   0  0  0  0  0  0  0  0  0  0  0  0
  1 20  1  1  0  0  0
  1  8  1  0  0  0  0
  2  5  1  1  0  0  0
  2  3  1  0  0  0  0
  2  4  1  0  0  0  0
  3  4  1  0  0  0  0
  4  1  1  1  0  0  0
  6  7  1  0  0  0  0
  7  5  1  0  0  0  0
  8  9  1  1  0  0  0
  8 10  1  0  0  0  0
 10 11  1  0  0  0  0
 11 16  1  0  0  0  0
 11 12  1  0  0  0  0
 12 13  1  6  0  0  0
 12 14  1  0  0  0  0
 14 15  1  0  0  0  0
 16 19  1  0  0  0  0
 17 19  2  0  0  0  0
 19 18  1  0  0  0  0
 21 23  1  0  0  0  0
 21 22  1  0  0  0  0
 22 24  1  1  0  0  0
 23 20  1  6  0  0  0
 23 22  1  0  0  0  0
 25 26  1  0  0  0  0
 25 24  1  0  0  0  0
 26 31  1  0  0  0  0
 28 30  1  0  0  0  0
 28 29  1  0  0  0  0
 29 26  1  6  0  0  0
 30 27  1  6  0  0  0
 30 29  1  0  0  0  0
 31 32  1  0  0  0  0
M  END
>  <MODEL>
7

>  <REMARK>
 VINA RESULT:      -5.7      3.068      6.865
  Name = 
  17 active torsions:
  status: ('A' for Active; 'I' for Inactive)
    1  A    between atoms: C_2  and  C_6
    2  A    between atoms: C_3  and  N_20
    3  A    between atoms: C_3  and  C_22
    4  A    between atoms: C_4  and  C_14
    5  A    between atoms: C_4  and  C_24
    6  A    between atoms: C_4  and  C_30
    7  A    between atoms: C_5  and  C_14
    8  A    between atoms: C_6  and  N_17
    9  A    between atoms: C_11  and  N_12
   10  A    between atoms: N_12  and  N_17
   11  A    between atoms: N_12  and  C_28
   12  A    between atoms: N_13  and  C_18
   13  A    between atoms: N_13  and  C_29
   14  A    between atoms: C_15  and  N_20
   15  A    between atoms: C_15  and  C_26
   16  A    between atoms: C_16  and  N_20
   17  A    between atoms: C_16  and  C_24
                            x       y       z     vdW  Elec       q    Type
                         _______ _______ _______ _____ _____    ______ ____

>  <TORSDO>
F 17

$$$$
=
 OpenBabel10262421183D

 32 34  0  0  1  0  0  0  0  0999 V2000
  188.5440  177.4490  141.2710 C   0  0  1  0  0  3  0  0  0  0  0  0
  189.5910  177.3730  138.9140 C   0  0  1  0  0  3  0  0  0  0  0  0
  189.0750  178.7700  139.1970 C   0  0  0  0  0  2  0  0  0  0  0  0
  189.6530  177.9510  140.3370 C   0  0  1  0  0  3  0  0  0  0  0  0
  188.4580  176.4820  138.7080 N   0  0  0  0  0  2  0  0  0  0  0  0
  186.5680  176.9290  137.2650 C   0  0  0  0  0  1  0  0  0  0  0  0
  188.0500  176.6310  137.3240 C   0  0  0  0  0  2  0  0  0  0  0  0
  189.1290  176.9190  142.5800 C   0  0  2  0  0  3  0  0  0  0  0  0
  188.6470  175.6370  142.8490 O   0  0  0  0  0  1  0  0  0  0  0  0
  188.7660  177.8370  143.7390 C   0  0  0  0  0  2  0  0  0  0  0  0
  188.9770  177.1460  145.0130 N   0  0  0  0  0  0  0  0  0  0  0  0
  187.7760  177.2500  145.8650 C   0  0  1  0  0  3  0  0  0  0  0  0
  188.0830  177.9000  147.2130 C   0  0  0  0  0  1  0  0  0  0  0  0
  186.6550  178.0280  145.1650 C   0  0  0  0  0  2  0  0  0  0  0  0
  185.5370  178.4160  146.1220 C   0  0  0  0  0  1  0  0  0  0  0  0
  190.1520  177.7380  145.6780 C   0  0  0  0  0  2  0  0  0  0  0  0
  191.7330  176.1480  144.8350 O   0  0  0  0  0  0  0  0  0  0  0  0
  191.9180  176.6020  147.1030 N   0  0  0  0  0  1  0  0  0  0  0  0
  191.3070  176.7870  145.8310 C   0  0  0  0  0  0  0  0  0  0  0  0
  187.5660  178.5800  141.5510 C   0  0  0  0  0  2  0  0  0  0  0  0
  185.3980  179.0540  140.4490 C   0  0  0  0  0  2  0  0  0  0  0  0
  185.1830  179.0580  141.9450 C   0  0  2  0  0  3  0  0  0  0  0  0
  186.1570  178.0770  141.3220 C   0  0  2  0  0  3  0  0  0  0  0  0
  183.9120  178.3130  142.2820 C   0  0  0  0  0  2  0  0  0  0  0  0
  182.7820  179.2230  142.2040 N   0  0  0  0  0  2  0  0  0  0  0  0
  181.6900  178.4810  141.7240 N   0  0  0  0  0  0  0  0  0  0  0  0
  179.4950  177.7250  142.9340 O   0  0  0  0  0  1  0  0  0  0  0  0
  180.1770  179.9990  142.8950 C   0  0  0  0  0  2  0  0  0  0  0  0
  180.5750  179.4120  141.5540 C   0  0  2  0  0  3  0  0  0  0  0  0
  179.3030  178.9370  142.2650 C   0  0  1  0  0  3  0  0  0  0  0  0
  182.0570  177.9520  140.4110 C   0  0  0  0  0  2  0  0  0  0  0  0
  181.9450  178.9180  139.4220 F   0  0  0  0  0  0  0  0  0  0  0  0
  1 20  1  1  0  0  0
  1  8  1  0  0  0  0
  2  5  1  1  0  0  0
  2  3  1  0  0  0  0
  2  4  1  0  0  0  0
  3  4  1  0  0  0  0
  4  1  1  1  0  0  0
  6  7  1  0  0  0  0
  7  5  1  0  0  0  0
  8  9  1  1  0  0  0
  8 10  1  0  0  0  0
 10 11  1  0  0  0  0
 11 16  1  0  0  0  0
 11 12  1  0  0  0  0
 12 13  1  1  0  0  0
 14 12  1  0  0  0  0
 14 15  1  0  0  0  0
 16 19  1  0  0  0  0
 17 19  2  0  0  0  0
 19 18  1  0  0  0  0
 21 23  1  0  0  0  0
 21 22  1  0  0  0  0
 22 24  1  6  0  0  0
 23 20  1  1  0  0  0
 23 22  1  0  0  0  0
 25 24  1  0  0  0  0
 26 25  1  0  0  0  0
 29 26  1  1  0  0  0
 29 30  1  0  0  0  0
 29 28  1  0  0  0  0
 30 28  1  0  0  0  0
 30 27  1  1  0  0  0
 31 26  1  0  0  0  0
 32 31  1  0  0  0  0
M  END
>  <MODEL>
8

>  <REMARK>
 VINA RESULT:      -5.7      2.810      6.699
  Name = 
  17 active torsions:
  status: ('A' for Active; 'I' for Inactive)
    1  A    between atoms: C_2  and  C_6
    2  A    between atoms: C_3  and  N_20
    3  A    between atoms: C_3  and  C_22
    4  A    between atoms: C_4  and  C_14
    5  A    between atoms: C_4  and  C_24
    6  A    between atoms: C_4  and  C_30
    7  A    between atoms: C_5  and  C_14
    8  A    between atoms: C_6  and  N_17
    9  A    between atoms: C_11  and  N_12
   10  A    between atoms: N_12  and  N_17
   11  A    between atoms: N_12  and  C_28
   12  A    between atoms: N_13  and  C_18
   13  A    between atoms: N_13  and  C_29
   14  A    between atoms: C_15  and  N_20
   15  A    between atoms: C_15  and  C_26
   16  A    between atoms: C_16  and  N_20
   17  A    between atoms: C_16  and  C_24
                            x       y       z     vdW  Elec       q    Type
                         _______ _______ _______ _____ _____    ______ ____

>  <TORSDO>
F 17

$$$$
=
 OpenBabel10262421183D

 32 34  0  0  1  0  0  0  0  0999 V2000
  186.9750  178.1130  143.8750 C   0  0  1  0  0  3  0  0  0  0  0  0
  187.2210  177.1430  146.2530 C   0  0  1  0  0  3  0  0  0  0  0  0
  185.9720  177.9980  146.1790 C   0  0  0  0  0  2  0  0  0  0  0  0
  186.3920  177.1980  144.9590 C   0  0  1  0  0  3  0  0  0  0  0  0
  188.3910  178.0090  146.2190 N   0  0  0  0  0  2  0  0  0  0  0  0
  189.0760  178.2450  148.5280 C   0  0  0  0  0  1  0  0  0  0  0  0
  189.3110  177.5130  147.2240 C   0  0  0  0  0  2  0  0  0  0  0  0
  187.6230  177.2940  142.7580 C   0  0  2  0  0  3  0  0  0  0  0  0
  187.9510  176.0160  143.2140 O   0  0  0  0  0  1  0  0  0  0  0  0
  188.8870  177.9790  142.2550 C   0  0  0  0  0  2  0  0  0  0  0  0
  189.5010  177.1820  141.1910 N   0  0  0  0  0  0  0  0  0  0  0  0
  190.8980  176.8510  141.5310 C   0  0  1  0  0  3  0  0  0  0  0  0
  191.8920  177.5030  140.5700 C   0  0  0  0  0  1  0  0  0  0  0  0
  191.2390  177.2570  142.9710 C   0  0  0  0  0  2  0  0  0  0  0  0
  191.5550  176.0550  143.8500 C   0  0  0  0  0  1  0  0  0  0  0  0
  189.4270  177.9460  139.9320 C   0  0  0  0  0  2  0  0  0  0  0  0
  189.2420  176.2140  138.2880 O   0  0  0  0  0  0  0  0  0  0  0  0
  187.4450  177.6800  138.3690 N   0  0  0  0  0  1  0  0  0  0  0  0
  188.7140  177.2230  138.8230 C   0  0  0  0  0  0  0  0  0  0  0  0
  185.8730  178.9940  143.3080 C   0  0  0  0  0  2  0  0  0  0  0  0
  185.0650  179.0050  140.9660 C   0  0  0  0  0  2  0  0  0  0  0  0
  183.8650  178.9890  141.8840 C   0  0  2  0  0  3  0  0  0  0  0  0
  185.1140  178.2140  142.2560 C   0  0  2  0  0  3  0  0  0  0  0  0
  182.8370  178.0080  141.3680 C   0  0  0  0  0  2  0  0  0  0  0  0
  181.6510  178.7300  140.9400 N   0  0  0  0  0  2  0  0  0  0  0  0
  180.5440  178.0730  141.5020 N   0  0  0  0  0  0  0  0  0  0  0  0
  179.6750  177.9960  143.9700 O   0  0  0  0  0  1  0  0  0  0  0  0
  180.0710  180.0520  142.8510 C   0  0  0  0  0  2  0  0  0  0  0  0
  179.5400  179.0920  141.8030 C   0  0  2  0  0  3  0  0  0  0  0  0
  179.0450  179.0150  143.2510 C   0  0  1  0  0  3  0  0  0  0  0  0
  180.0010  177.1730  140.4850 C   0  0  0  0  0  2  0  0  0  0  0  0
  179.5530  175.9850  141.0410 F   0  0  0  0  0  0  0  0  0  0  0  0
  1 20  1  6  0  0  0
  2  5  1  6  0  0  0
  3  2  1  0  0  0  0
  4  1  1  6  0  0  0
  4  3  1  0  0  0  0
  4  2  1  0  0  0  0
  5  7  1  0  0  0  0
  7  6  1  0  0  0  0
  8  9  1  1  0  0  0
  8  1  1  0  0  0  0
 10  8  1  0  0  0  0
 11 12  1  0  0  0  0
 11 10  1  0  0  0  0
 12 13  1  6  0  0  0
 12 14  1  0  0  0  0
 14 15  1  0  0  0  0
 16 11  1  0  0  0  0
 17 19  2  0  0  0  0
 18 19  1  0  0  0  0
 19 16  1  0  0  0  0
 21 22  1  0  0  0  0
 21 23  1  0  0  0  0
 22 24  1  6  0  0  0
 22 23  1  0  0  0  0
 23 20  1  1  0  0  0
 25 24  1  0  0  0  0
 25 26  1  0  0  0  0
 28 30  1  0  0  0  0
 29 26  1  1  0  0  0
 29 28  1  0  0  0  0
 29 30  1  0  0  0  0
 30 27  1  1  0  0  0
 31 32  1  0  0  0  0
 31 26  1  0  0  0  0
M  END
>  <MODEL>
9

>  <REMARK>
 VINA RESULT:      -5.6      3.181      7.141
  Name = 
  17 active torsions:
  status: ('A' for Active; 'I' for Inactive)
    1  A    between atoms: C_2  and  C_6
    2  A    between atoms: C_3  and  N_20
    3  A    between atoms: C_3  and  C_22
    4  A    between atoms: C_4  and  C_14
    5  A    between atoms: C_4  and  C_24
    6  A    between atoms: C_4  and  C_30
    7  A    between atoms: C_5  and  C_14
    8  A    between atoms: C_6  and  N_17
    9  A    between atoms: C_11  and  N_12
   10  A    between atoms: N_12  and  N_17
   11  A    between atoms: N_12  and  C_28
   12  A    between atoms: N_13  and  C_18
   13  A    between atoms: N_13  and  C_29
   14  A    between atoms: C_15  and  N_20
   15  A    between atoms: C_15  and  C_26
   16  A    between atoms: C_16  and  N_20
   17  A    between atoms: C_16  and  C_24
                            x       y       z     vdW  Elec       q    Type
                         _______ _______ _______ _____ _____    ______ ____

>  <TORSDO>
F 17

$$$$
