=
 OpenBabel10262419193D

 31 34  0  0  1  0  0  0  0  0999 V2000
  188.1350  177.3690  145.7280 C   0  0  0  0  0  0  0  0  0  0  0  0
  186.4970  178.3350  142.5100 C   0  0  0  0  0  0  0  0  0  0  0  0
  185.0290  178.4840  142.9000 C   0  0  1  0  0  3  0  0  0  0  0  0
  183.8170  179.1590  145.0380 C   0  0  0  0  0  2  0  0  0  0  0  0
  187.4830  177.9880  143.4660 C   0  0  0  0  0  0  0  0  0  0  0  0
  189.4750  177.3230  145.3380 C   0  0  0  0  0  3  0  0  0  0  0  0
  184.8810  179.5300  144.0030 C   0  0  0  0  0  2  0  0  0  0  0  0
  188.2400  178.4700  140.7950 C   0  0  0  0  0  0  0  0  0  0  0  0
  187.6940  177.0180  147.3840 Cl  0  0  0  0  0  0  0  0  0  0  0  0
  184.5610  178.3540  140.4100 C   0  0  0  0  0  2  0  0  0  0  0  0
  182.5320  178.5520  144.4670 C   0  0  0  0  0  2  0  0  0  0  0  0
  189.2080  178.1790  141.7600 C   0  0  0  0  0  3  0  0  0  0  0  0
  186.8870  178.5070  141.1620 C   0  0  0  0  0  0  0  0  0  0  0  0
  187.1470  177.6980  144.7990 C   0  0  0  0  0  3  0  0  0  0  0  0
  182.0610  179.2430  143.1960 C   0  0  0  0  0  2  0  0  0  0  0  0
  188.8430  177.9250  143.0790 C   0  0  0  0  0  0  0  0  0  0  0  0
  189.8280  177.6000  144.0160 C   0  0  0  0  0  3  0  0  0  0  0  0
  185.9180  178.6980  140.1750 O   0  0  0  0  0  0  0  0  0  0  0  0
  184.1130  178.9340  141.7400 C   0  0  1  0  0  3  0  0  0  0  0  0
  182.6570  178.5440  141.9810 C   0  0  0  0  0  2  0  0  0  0  0  0
  189.5480  176.5870  138.8760 N   0  0  0  0  0  2  0  0  0  0  0  0
  189.2270  177.7850  138.5110 C   0  0  0  0  0  0  0  0  0  0  0  0
  188.5930  178.6980  139.4210 N   0  0  0  0  0  2  0  0  0  0  0  0
  189.3710  179.5720  136.9500 F   0  0  0  0  0  0  0  0  0  0  0  0
  189.4470  178.1970  137.0900 C   0  0  2  0  0  3  0  0  0  0  0  0
  188.8420  176.1090  136.0410 O   0  0  0  0  0  1  0  0  0  0  0  0
  188.5460  177.4740  136.0710 C   0  0  1  0  0  3  0  0  0  0  0  0
  187.0230  177.7100  136.1620 C   0  0  0  0  0  0  0  0  0  0  0  0
  186.3750  177.7690  134.7880 C   0  0  0  0  0  1  0  0  0  0  0  0
  186.3400  176.6340  136.9870 C   0  0  0  0  0  1  0  0  0  0  0  0
  186.8090  178.9240  136.7870 F   0  0  0  0  0  0  0  0  0  0  0  0
  1  9  1  0  0  0  0
  2  3  1  0  0  0  0
  2  5  1  0  0  0  0
  3  7  1  1  0  0  0
  5 14  1  0  0  0  0
  6  1  1  0  0  0  0
  7  4  1  0  0  0  0
  8 13  1  0  0  0  0
  8 12  2  0  0  0  0
 11  4  1  0  0  0  0
 12 16  1  0  0  0  0
 13  2  2  0  0  0  0
 14  1  2  0  0  0  0
 15 11  1  0  0  0  0
 16  5  2  0  0  0  0
 16 17  1  0  0  0  0
 17  6  2  0  0  0  0
 18 10  1  0  0  0  0
 18 13  1  0  0  0  0
 19 10  1  6  0  0  0
 19 20  1  0  0  0  0
 19  3  1  0  0  0  0
 20 15  1  0  0  0  0
 22 21  2  0  0  0  0
 22 23  1  0  0  0  0
 23  8  1  0  0  0  0
 25 24  1  1  0  0  0
 25 22  1  0  0  0  0
 27 26  1  1  0  0  0
 27 28  1  0  0  0  0
 27 25  1  0  0  0  0
 28 31  1  0  0  0  0
 28 30  1  0  0  0  0
 29 28  1  0  0  0  0
M  END
>  <MODEL>
1

>  <REMARK>
 VINA RESULT:      -9.9      0.000      0.000
  Name = 
  4 active torsions:
  status: ('A' for Active; 'I' for Inactive)
    1  A    between atoms: C_1  and  C_19
    2  A    between atoms: C_9  and  C_22
    3  A    between atoms: C_15  and  N_23
    4  A    between atoms: C_19  and  C_22
                            x       y       z     vdW  Elec       q    Type
                         _______ _______ _______ _____ _____    ______ ____

>  <TORSDO>
F 4

$$$$
=
 OpenBabel10262419193D

 31 34  0  0  1  0  0  0  0  0999 V2000
  190.1170  177.5130  140.5210 C   0  0  0  0  0  0  0  0  0  0  0  0
  187.9620  177.8600  143.5560 C   0  0  0  0  0  0  0  0  0  0  0  0
  188.9040  177.4800  144.6960 C   0  0  1  0  0  3  0  0  0  0  0  0
  191.4190  177.6720  145.0610 C   0  0  0  0  0  2  0  0  0  0  0  0
  188.4010  177.8770  142.2090 C   0  0  0  0  0  0  0  0  0  0  0  0
  189.2390  177.9450  139.5250 C   0  0  0  0  0  3  0  0  0  0  0  0
  190.1230  178.4010  144.6990 C   0  0  0  0  0  2  0  0  0  0  0  0
  185.7500  178.6110  142.8210 C   0  0  0  0  0  0  0  0  0  0  0  0
  191.7420  177.0200  140.1020 Cl  0  0  0  0  0  0  0  0  0  0  0  0
  186.7970  177.2090  146.0810 C   0  0  0  0  0  2  0  0  0  0  0  0
  191.3020  176.6550  146.2000 C   0  0  0  0  0  2  0  0  0  0  0  0
  186.2120  178.6730  141.5030 C   0  0  0  0  0  3  0  0  0  0  0  0
  186.6100  178.1670  143.8350 C   0  0  0  0  0  0  0  0  0  0  0  0
  189.7000  177.4790  141.8530 C   0  0  0  0  0  3  0  0  0  0  0  0
  190.4300  177.1430  147.3470 C   0  0  0  0  0  2  0  0  0  0  0  0
  187.5150  178.2990  141.1890 C   0  0  0  0  0  0  0  0  0  0  0  0
  187.9410  178.3360  139.8580 C   0  0  0  0  0  3  0  0  0  0  0  0
  186.1130  178.0100  145.1310 O   0  0  0  0  0  0  0  0  0  0  0  0
  188.2680  177.5860  146.0990 C   0  0  1  0  0  3  0  0  0  0  0  0
  188.9880  176.7070  147.1180 C   0  0  0  0  0  2  0  0  0  0  0  0
  183.2410  177.9920  141.3160 N   0  0  0  0  0  2  0  0  0  0  0  0
  183.2000  178.6570  142.4240 C   0  0  0  0  0  0  0  0  0  0  0  0
  184.3970  178.9570  143.1600 N   0  0  0  0  0  2  0  0  0  0  0  0
  181.7640  178.6830  144.3180 F   0  0  0  0  0  0  0  0  0  0  0  0
  181.8710  179.0510  142.9880 C   0  0  2  0  0  3  0  0  0  0  0  0
  179.7310  177.9350  142.9990 O   0  0  0  0  0  1  0  0  0  0  0  0
  180.6630  178.5630  142.1680 C   0  0  1  0  0  3  0  0  0  0  0  0
  179.9730  179.5750  141.2270 C   0  0  0  0  0  0  0  0  0  0  0  0
  178.9310  178.9100  140.3440 C   0  0  0  0  0  1  0  0  0  0  0  0
  179.3200  180.7030  142.0050 C   0  0  0  0  0  1  0  0  0  0  0  0
  180.9370  180.1290  140.4060 F   0  0  0  0  0  0  0  0  0  0  0  0
  1 14  1  0  0  0  0
  2 13  2  0  0  0  0
  2  3  1  0  0  0  0
  3  7  1  1  0  0  0
  3 19  1  0  0  0  0
  4 11  1  0  0  0  0
  5  2  1  0  0  0  0
  6 17  1  0  0  0  0
  6  1  2  0  0  0  0
  7  4  1  0  0  0  0
  8 23  1  0  0  0  0
  8 13  1  0  0  0  0
  9  1  1  0  0  0  0
 11 15  1  0  0  0  0
 12  8  2  0  0  0  0
 13 18  1  0  0  0  0
 14  5  2  0  0  0  0
 16 12  1  0  0  0  0
 16  5  1  0  0  0  0
 17 16  2  0  0  0  0
 18 10  1  0  0  0  0
 19 10  1  6  0  0  0
 19 20  1  0  0  0  0
 20 15  1  0  0  0  0
 21 22  2  0  0  0  0
 22 25  1  0  0  0  0
 22 23  1  0  0  0  0
 25 24  1  1  0  0  0
 27 25  1  0  0  0  0
 27 26  1  1  0  0  0
 28 30  1  0  0  0  0
 28 27  1  0  0  0  0
 29 28  1  0  0  0  0
 31 28  1  0  0  0  0
M  END
>  <MODEL>
2

>  <REMARK>
 VINA RESULT:      -9.8      4.032      7.058
  Name = 
  4 active torsions:
  status: ('A' for Active; 'I' for Inactive)
    1  A    between atoms: C_1  and  C_19
    2  A    between atoms: C_9  and  C_22
    3  A    between atoms: C_15  and  N_23
    4  A    between atoms: C_19  and  C_22
                            x       y       z     vdW  Elec       q    Type
                         _______ _______ _______ _____ _____    ______ ____

>  <TORSDO>
F 4

$$$$
=
 OpenBabel10262419193D

 31 34  0  0  1  0  0  0  0  0999 V2000
  186.5230  178.0760  146.4970 C   0  0  0  0  0  0  0  0  0  0  0  0
  186.7760  178.1150  142.7670 C   0  0  0  0  0  0  0  0  0  0  0  0
  188.2110  177.6650  142.5120 C   0  0  1  0  0  3  0  0  0  0  0  0
  189.8420  176.1410  143.7450 C   0  0  0  0  0  2  0  0  0  0  0  0
  186.2560  178.2180  144.0820 C   0  0  0  0  0  0  0  0  0  0  0  0
  185.1810  178.4160  146.6740 C   0  0  0  0  0  3  0  0  0  0  0  0
  188.4480  176.2880  143.1300 C   0  0  0  0  0  2  0  0  0  0  0  0
  184.5990  178.8000  141.8780 C   0  0  0  0  0  0  0  0  0  0  0  0
  187.5380  177.7660  147.8880 Cl  0  0  0  0  0  0  0  0  0  0  0  0
  187.8810  178.6040  140.1800 C   0  0  0  0  0  2  0  0  0  0  0  0
  190.9840  176.7520  142.9280 C   0  0  0  0  0  2  0  0  0  0  0  0
  184.0860  178.8470  143.1770 C   0  0  0  0  0  3  0  0  0  0  0  0
  185.9490  178.4750  141.6790 C   0  0  0  0  0  0  0  0  0  0  0  0
  187.0570  177.9790  145.2100 C   0  0  0  0  0  3  0  0  0  0  0  0
  190.8490  176.5020  141.4340 C   0  0  0  0  0  2  0  0  0  0  0  0
  184.9000  178.5760  144.2730 C   0  0  0  0  0  0  0  0  0  0  0  0
  184.3710  178.6660  145.5640 C   0  0  0  0  0  3  0  0  0  0  0  0
  186.4790  178.5290  140.3880 O   0  0  0  0  0  0  0  0  0  0  0  0
  188.5770  177.5450  141.0160 C   0  0  1  0  0  3  0  0  0  0  0  0
  190.0820  177.6490  140.7880 C   0  0  0  0  0  2  0  0  0  0  0  0
  182.9710  176.9440  140.1930 N   0  0  0  0  0  2  0  0  0  0  0  0
  183.0110  178.2090  139.9320 C   0  0  0  0  0  0  0  0  0  0  0  0
  183.7840  179.1140  140.7370 N   0  0  0  0  0  2  0  0  0  0  0  0
  182.8470  178.7100  137.6140 F   0  0  0  0  0  0  0  0  0  0  0  0
  182.1690  178.7510  138.8190 C   0  0  2  0  0  3  0  0  0  0  0  0
  181.4650  180.8670  137.8970 O   0  0  0  0  0  1  0  0  0  0  0  0
  181.5810  180.1480  139.0900 C   0  0  1  0  0  3  0  0  0  0  0  0
  180.2830  180.2370  139.9200 C   0  0  0  0  0  0  0  0  0  0  0  0
  179.5820  181.5730  139.7380 C   0  0  0  0  0  1  0  0  0  0  0  0
  179.3180  179.1180  139.5670 C   0  0  0  0  0  1  0  0  0  0  0  0
  180.6130  180.1060  141.2560 F   0  0  0  0  0  0  0  0  0  0  0  0
  1  6  1  0  0  0  0
  1  9  1  0  0  0  0
  2  5  1  0  0  0  0
  3  2  1  0  0  0  0
  3  7  1  1  0  0  0
  5 16  2  0  0  0  0
  5 14  1  0  0  0  0
  7  4  1  0  0  0  0
  8 12  2  0  0  0  0
 10 18  1  0  0  0  0
 11  4  1  0  0  0  0
 12 16  1  0  0  0  0
 13  8  1  0  0  0  0
 13  2  2  0  0  0  0
 14  1  2  0  0  0  0
 15 11  1  0  0  0  0
 16 17  1  0  0  0  0
 17  6  2  0  0  0  0
 18 13  1  0  0  0  0
 19 10  1  6  0  0  0
 19  3  1  0  0  0  0
 20 19  1  0  0  0  0
 20 15  1  0  0  0  0
 22 21  2  0  0  0  0
 22 23  1  0  0  0  0
 23  8  1  0  0  0  0
 25 24  1  6  0  0  0
 25 27  1  0  0  0  0
 25 22  1  0  0  0  0
 27 26  1  6  0  0  0
 27 28  1  0  0  0  0
 28 31  1  0  0  0  0
 29 28  1  0  0  0  0
 30 28  1  0  0  0  0
M  END
>  <MODEL>
3

>  <REMARK>
 VINA RESULT:      -9.6      3.074      5.932
  Name = 
  4 active torsions:
  status: ('A' for Active; 'I' for Inactive)
    1  A    between atoms: C_1  and  C_19
    2  A    between atoms: C_9  and  C_22
    3  A    between atoms: C_15  and  N_23
    4  A    between atoms: C_19  and  C_22
                            x       y       z     vdW  Elec       q    Type
                         _______ _______ _______ _____ _____    ______ ____

>  <TORSDO>
F 4

$$$$
=
 OpenBabel10262419193D

 31 34  0  0  1  0  0  0  0  0999 V2000
  187.9910  177.9240  147.0940 C   0  0  0  0  0  0  0  0  0  0  0  0
  186.9550  178.0390  143.5040 C   0  0  0  0  0  0  0  0  0  0  0  0
  188.2350  177.6650  142.7620 C   0  0  1  0  0  3  0  0  0  0  0  0
  190.2490  176.2040  143.3160 C   0  0  0  0  0  2  0  0  0  0  0  0
  186.9110  178.0940  144.9190 C   0  0  0  0  0  0  0  0  0  0  0  0
  186.7760  178.1930  147.7270 C   0  0  0  0  0  3  0  0  0  0  0  0
  188.7250  176.2920  143.2160 C   0  0  0  0  0  2  0  0  0  0  0  0
  184.5800  178.6300  143.4300 C   0  0  0  0  0  0  0  0  0  0  0  0
  189.4300  177.6410  148.0470 Cl  0  0  0  0  0  0  0  0  0  0  0  0
  187.0920  178.6270  140.7130 C   0  0  0  0  0  2  0  0  0  0  0  0
  191.0190  176.8850  142.1810 C   0  0  0  0  0  2  0  0  0  0  0  0
  184.5390  178.6290  144.8270 C   0  0  0  0  0  3  0  0  0  0  0  0
  185.7930  178.3760  142.7730 C   0  0  0  0  0  0  0  0  0  0  0  0
  188.0570  177.8760  145.7000 C   0  0  0  0  0  3  0  0  0  0  0  0
  190.3930  176.6540  140.8140 C   0  0  0  0  0  2  0  0  0  0  0  0
  185.6880  178.3800  145.5710 C   0  0  0  0  0  0  0  0  0  0  0  0
  185.6270  178.4210  146.9670 C   0  0  0  0  0  3  0  0  0  0  0  0
  185.8490  178.4790  141.3820 O   0  0  0  0  0  0  0  0  0  0  0  0
  188.0740  177.5900  141.2270 C   0  0  1  0  0  3  0  0  0  0  0  0
  189.4050  177.7730  140.5050 C   0  0  0  0  0  2  0  0  0  0  0  0
  181.7150  178.6280  144.2860 N   0  0  0  0  0  2  0  0  0  0  0  0
  182.0400  178.9120  143.0680 C   0  0  0  0  0  0  0  0  0  0  0  0
  183.4120  178.9220  142.6440 N   0  0  0  0  0  2  0  0  0  0  0  0
  179.7390  178.8040  142.4780 F   0  0  0  0  0  0  0  0  0  0  0  0
  180.9690  179.3160  142.1040 C   0  0  2  0  0  3  0  0  0  0  0  0
  180.8880  177.6980  140.3140 O   0  0  0  0  0  1  0  0  0  0  0  0
  181.2880  178.9990  140.6310 C   0  0  1  0  0  3  0  0  0  0  0  0
  180.8130  180.0020  139.5580 C   0  0  0  0  0  0  0  0  0  0  0  0
  181.9660  180.5240  138.7180 C   0  0  0  0  0  1  0  0  0  0  0  0
  179.7700  179.3870  138.6430 C   0  0  0  0  0  1  0  0  0  0  0  0
  180.2320  181.0800  140.2000 F   0  0  0  0  0  0  0  0  0  0  0  0
  1  6  1  0  0  0  0
  1  9  1  0  0  0  0
  2  5  1  0  0  0  0
  3  7  1  1  0  0  0
  3  2  1  0  0  0  0
  5 16  2  0  0  0  0
  5 14  1  0  0  0  0
  7  4  1  0  0  0  0
  8 12  2  0  0  0  0
 10 19  1  0  0  0  0
 10 18  1  0  0  0  0
 11  4  1  0  0  0  0
 12 16  1  0  0  0  0
 13  8  1  0  0  0  0
 13  2  2  0  0  0  0
 14  1  2  0  0  0  0
 15 11  1  0  0  0  0
 16 17  1  0  0  0  0
 17  6  2  0  0  0  0
 18 13  1  0  0  0  0
 19 20  1  6  0  0  0
 19  3  1  0  0  0  0
 20 15  1  0  0  0  0
 22 21  2  0  0  0  0
 23 22  1  0  0  0  0
 23  8  1  0  0  0  0
 25 24  1  1  0  0  0
 25 22  1  0  0  0  0
 27 26  1  6  0  0  0
 27 25  1  0  0  0  0
 28 31  1  0  0  0  0
 28 27  1  0  0  0  0
 29 28  1  0  0  0  0
 30 28  1  0  0  0  0
M  END
>  <MODEL>
4

>  <REMARK>
 VINA RESULT:      -9.5      3.759      6.347
  Name = 
  4 active torsions:
  status: ('A' for Active; 'I' for Inactive)
    1  A    between atoms: C_1  and  C_19
    2  A    between atoms: C_9  and  C_22
    3  A    between atoms: C_15  and  N_23
    4  A    between atoms: C_19  and  C_22
                            x       y       z     vdW  Elec       q    Type
                         _______ _______ _______ _____ _____    ______ ____

>  <TORSDO>
F 4

$$$$
=
 OpenBabel10262419193D

 31 34  0  0  1  0  0  0  0  0999 V2000
  185.5760  178.7040  140.5620 C   0  0  0  0  0  0  0  0  0  0  0  0
  188.9890  177.7350  141.7420 C   0  0  0  0  0  0  0  0  0  0  0  0
  188.8360  177.7070  143.2600 C   0  0  1  0  0  3  0  0  0  0  0  0
  186.9020  177.2030  144.8430 C   0  0  0  0  0  2  0  0  0  0  0  0
  187.8960  178.0460  140.8950 C   0  0  0  0  0  0  0  0  0  0  0  0
  185.7480  178.6390  139.1780 C   0  0  0  0  0  3  0  0  0  0  0  0
  187.7430  176.7170  143.6600 C   0  0  0  0  0  2  0  0  0  0  0  0
  190.3980  177.4090  139.7660 C   0  0  0  0  0  0  0  0  0  0  0  0
  184.0220  179.1490  141.2310 Cl  0  0  0  0  0  0  0  0  0  0  0  0
  191.3700  177.7730  143.3180 C   0  0  0  0  0  2  0  0  0  0  0  0
  187.6870  177.8780  145.9710 C   0  0  0  0  0  2  0  0  0  0  0  0
  189.2980  177.6670  138.9430 C   0  0  0  0  0  3  0  0  0  0  0  0
  190.2510  177.4830  141.1590 C   0  0  0  0  0  0  0  0  0  0  0  0
  186.6430  178.4110  141.4140 C   0  0  0  0  0  3  0  0  0  0  0  0
  188.9980  177.1740  146.2870 C   0  0  0  0  0  2  0  0  0  0  0  0
  188.0630  177.9970  139.4900 C   0  0  0  0  0  0  0  0  0  0  0  0
  186.9890  178.2870  138.6440 C   0  0  0  0  0  3  0  0  0  0  0  0
  191.3760  177.3240  141.9710 O   0  0  0  0  0  0  0  0  0  0  0  0
  190.1140  177.2790  144.0140 C   0  0  1  0  0  3  0  0  0  0  0  0
  190.1210  177.7820  145.4550 C   0  0  0  0  0  2  0  0  0  0  0  0
  191.2110  175.0390  138.1350 N   0  0  0  0  0  2  0  0  0  0  0  0
  192.0690  175.9560  138.4410 C   0  0  0  0  0  0  0  0  0  0  0  0
  191.6910  177.1030  139.2190 N   0  0  0  0  0  2  0  0  0  0  0  0
  193.6470  176.7150  136.8310 F   0  0  0  0  0  0  0  0  0  0  0  0
  193.4630  175.8590  137.9030 C   0  0  2  0  0  3  0  0  0  0  0  0
  193.8490  174.2060  136.1880 O   0  0  0  0  0  1  0  0  0  0  0  0
  193.9150  174.4260  137.5660 C   0  0  1  0  0  3  0  0  0  0  0  0
  195.2630  173.9400  138.1420 C   0  0  0  0  0  0  0  0  0  0  0  0
  195.3330  172.4250  138.2210 C   0  0  0  0  0  1  0  0  0  0  0  0
  196.4350  174.4500  137.3230 C   0  0  0  0  0  1  0  0  0  0  0  0
  195.3910  174.4410  139.4240 F   0  0  0  0  0  0  0  0  0  0  0  0
  1  9  1  0  0  0  0
  1 14  1  0  0  0  0
  2  3  1  0  0  0  0
  3  7  1  6  0  0  0
  3 19  1  0  0  0  0
  4 11  1  0  0  0  0
  5 14  2  0  0  0  0
  5  2  1  0  0  0  0
  6  1  2  0  0  0  0
  7  4  1  0  0  0  0
  8 13  1  0  0  0  0
 11 15  1  0  0  0  0
 12 16  1  0  0  0  0
 12  8  2  0  0  0  0
 13  2  2  0  0  0  0
 13 18  1  0  0  0  0
 16  5  1  0  0  0  0
 17  6  1  0  0  0  0
 17 16  2  0  0  0  0
 18 10  1  0  0  0  0
 19 10  1  6  0  0  0
 19 20  1  0  0  0  0
 20 15  1  0  0  0  0
 21 22  2  0  0  0  0
 22 23  1  0  0  0  0
 23  8  1  0  0  0  0
 25 24  1  6  0  0  0
 25 22  1  0  0  0  0
 27 26  1  6  0  0  0
 27 25  1  0  0  0  0
 27 28  1  0  0  0  0
 28 29  1  0  0  0  0
 28 31  1  0  0  0  0
 30 28  1  0  0  0  0
M  END
>  <MODEL>
5

>  <REMARK>
 VINA RESULT:      -9.4      4.008      6.087
  Name = 
  4 active torsions:
  status: ('A' for Active; 'I' for Inactive)
    1  A    between atoms: C_1  and  C_19
    2  A    between atoms: C_9  and  C_22
    3  A    between atoms: C_15  and  N_23
    4  A    between atoms: C_19  and  C_22
                            x       y       z     vdW  Elec       q    Type
                         _______ _______ _______ _____ _____    ______ ____

>  <TORSDO>
F 4

$$$$
=
 OpenBabel10262419193D

 31 34  0  0  1  0  0  0  0  0999 V2000
  186.7150  177.9510  146.5950 C   0  0  0  0  0  0  0  0  0  0  0  0
  187.0920  178.1270  142.8790 C   0  0  0  0  0  0  0  0  0  0  0  0
  188.5130  177.6190  142.6510 C   0  0  1  0  0  3  0  0  0  0  0  0
  190.0300  175.9720  143.8690 C   0  0  0  0  0  2  0  0  0  0  0  0
  186.5350  178.2020  144.1800 C   0  0  0  0  0  0  0  0  0  0  0  0
  185.3850  178.3460  146.7430 C   0  0  0  0  0  3  0  0  0  0  0  0
  188.6660  176.2090  143.2180 C   0  0  0  0  0  2  0  0  0  0  0  0
  184.9800  178.9490  141.9520 C   0  0  0  0  0  0  0  0  0  0  0  0
  187.6680  177.5380  148.0020 Cl  0  0  0  0  0  0  0  0  0  0  0  0
  188.3040  178.6660  140.3500 C   0  0  0  0  0  2  0  0  0  0  0  0
  191.2260  176.5610  143.1140 C   0  0  0  0  0  2  0  0  0  0  0  0
  184.4270  178.9680  143.2360 C   0  0  0  0  0  3  0  0  0  0  0  0
  186.3190  178.5690  141.7820 C   0  0  0  0  0  0  0  0  0  0  0  0
  187.2860  177.8800  145.3220 C   0  0  0  0  0  3  0  0  0  0  0  0
  191.1290  176.3770  141.6070 C   0  0  0  0  0  2  0  0  0  0  0  0
  185.1910  178.6150  144.3440 C   0  0  0  0  0  0  0  0  0  0  0  0
  184.6250  178.6780  145.6200 C   0  0  0  0  0  3  0  0  0  0  0  0
  186.8940  178.6500  140.5110 O   0  0  0  0  0  0  0  0  0  0  0  0
  188.9220  177.5430  141.1630 C   0  0  1  0  0  3  0  0  0  0  0  0
  190.4370  177.5840  140.9860 C   0  0  0  0  0  2  0  0  0  0  0  0
  183.0950  177.3050  140.3150 N   0  0  0  0  0  2  0  0  0  0  0  0
  183.3200  178.5430  140.0190 C   0  0  0  0  0  0  0  0  0  0  0  0
  184.2190  179.3460  140.8000 N   0  0  0  0  0  2  0  0  0  0  0  0
  182.9400  180.4900  138.7090 F   0  0  0  0  0  0  0  0  0  0  0  0
  182.5650  179.1700  138.8890 C   0  0  2  0  0  3  0  0  0  0  0  0
  180.4900  180.0970  139.7010 O   0  0  0  0  0  1  0  0  0  0  0  0
  181.0350  179.0260  138.9880 C   0  0  1  0  0  3  0  0  0  0  0  0
  180.2490  178.7680  137.6860 C   0  0  0  0  0  0  0  0  0  0  0  0
  181.1420  178.8440  136.4590 C   0  0  0  0  0  1  0  0  0  0  0  0
  179.5530  177.4180  137.7120 C   0  0  0  0  0  1  0  0  0  0  0  0
  179.2770  179.7430  137.5660 F   0  0  0  0  0  0  0  0  0  0  0  0
  1  6  1  0  0  0  0
  1  9  1  0  0  0  0
  2  5  1  0  0  0  0
  3  2  1  0  0  0  0
  3  7  1  6  0  0  0
  5 16  2  0  0  0  0
  5 14  1  0  0  0  0
  7  4  1  0  0  0  0
  8 12  2  0  0  0  0
 10 18  1  0  0  0  0
 11  4  1  0  0  0  0
 12 16  1  0  0  0  0
 13  8  1  0  0  0  0
 13  2  2  0  0  0  0
 14  1  2  0  0  0  0
 15 11  1  0  0  0  0
 16 17  1  0  0  0  0
 17  6  2  0  0  0  0
 18 13  1  0  0  0  0
 19 10  1  6  0  0  0
 19  3  1  0  0  0  0
 20 19  1  0  0  0  0
 20 15  1  0  0  0  0
 22 21  2  0  0  0  0
 22 23  1  0  0  0  0
 23  8  1  0  0  0  0
 25 24  1  1  0  0  0
 25 27  1  0  0  0  0
 25 22  1  0  0  0  0
 27 26  1  6  0  0  0
 28 30  1  0  0  0  0
 28 27  1  0  0  0  0
 29 28  1  0  0  0  0
 31 28  1  0  0  0  0
M  END
>  <MODEL>
6

>  <REMARK>
 VINA RESULT:      -9.2      3.133      5.763
  Name = 
  4 active torsions:
  status: ('A' for Active; 'I' for Inactive)
    1  A    between atoms: C_1  and  C_19
    2  A    between atoms: C_9  and  C_22
    3  A    between atoms: C_15  and  N_23
    4  A    between atoms: C_19  and  C_22
                            x       y       z     vdW  Elec       q    Type
                         _______ _______ _______ _____ _____    ______ ____

>  <TORSDO>
F 4

$$$$
=
 OpenBabel10262419193D

 31 34  0  0  1  0  0  0  0  0999 V2000
  184.0360  178.9060  142.8070 C   0  0  0  0  0  0  0  0  0  0  0  0
  187.6770  178.0660  142.6990 C   0  0  0  0  0  0  0  0  0  0  0  0
  188.0390  177.9020  144.1720 C   0  0  1  0  0  3  0  0  0  0  0  0
  186.7600  177.1430  146.2430 C   0  0  0  0  0  2  0  0  0  0  0  0
  186.3560  178.3750  142.2930 C   0  0  0  0  0  0  0  0  0  0  0  0
  183.7390  178.9670  141.4440 C   0  0  0  0  0  3  0  0  0  0  0  0
  187.1760  176.8130  144.8070 C   0  0  0  0  0  2  0  0  0  0  0  0
  188.3590  177.9980  140.3470 C   0  0  0  0  0  0  0  0  0  0  0  0
  182.7790  179.1910  143.9900 Cl  0  0  0  0  0  0  0  0  0  0  0  0
  190.4450  178.1280  143.4020 C   0  0  0  0  0  2  0  0  0  0  0  0
  187.8530  177.7710  147.1120 C   0  0  0  0  0  2  0  0  0  0  0  0
  187.0400  178.2520  139.9610 C   0  0  0  0  0  3  0  0  0  0  0  0
  188.6820  177.9460  141.7120 C   0  0  0  0  0  0  0  0  0  0  0  0
  185.3350  178.6130  143.2280 C   0  0  0  0  0  3  0  0  0  0  0  0
  189.2180  177.1310  146.9090 C   0  0  0  0  0  2  0  0  0  0  0  0
  186.0470  178.4540  140.9140 C   0  0  0  0  0  0  0  0  0  0  0  0
  184.7430  178.7420  140.4990 C   0  0  0  0  0  3  0  0  0  0  0  0
  190.0180  177.7940  142.0900 O   0  0  0  0  0  0  0  0  0  0  0  0
  189.5100  177.4970  144.4180 C   0  0  1  0  0  3  0  0  0  0  0  0
  189.9780  177.8770  145.8190 C   0  0  0  0  0  2  0  0  0  0  0  0
  188.4040  176.1930  137.9650 N   0  0  0  0  0  2  0  0  0  0  0  0
  189.4160  176.9480  138.2410 C   0  0  0  0  0  0  0  0  0  0  0  0
  189.4070  177.8240  139.3790 N   0  0  0  0  0  2  0  0  0  0  0  0
  190.1820  177.1690  136.0010 F   0  0  0  0  0  0  0  0  0  0  0  0
  190.5870  176.9660  137.3080 C   0  0  2  0  0  3  0  0  0  0  0  0
  191.3920  174.9250  136.3020 O   0  0  0  0  0  1  0  0  0  0  0  0
  191.5140  175.7420  137.4290 C   0  0  1  0  0  3  0  0  0  0  0  0
  192.9980  175.9930  137.7740 C   0  0  0  0  0  0  0  0  0  0  0  0
  193.1560  176.7530  139.0800 C   0  0  0  0  0  1  0  0  0  0  0  0
  193.7790  174.6930  137.8570 C   0  0  0  0  0  1  0  0  0  0  0  0
  193.5530  176.7580  136.7650 F   0  0  0  0  0  0  0  0  0  0  0  0
  1 14  1  0  0  0  0
  1  9  1  0  0  0  0
  2  3  1  0  0  0  0
  3 19  1  0  0  0  0
  3  7  1  6  0  0  0
  4 11  1  0  0  0  0
  5  2  1  0  0  0  0
  5 14  2  0  0  0  0
  6  1  2  0  0  0  0
  7  4  1  0  0  0  0
  8 13  1  0  0  0  0
 12  8  2  0  0  0  0
 12 16  1  0  0  0  0
 13 18  1  0  0  0  0
 13  2  2  0  0  0  0
 15 11  1  0  0  0  0
 16  5  1  0  0  0  0
 17 16  2  0  0  0  0
 17  6  1  0  0  0  0
 18 10  1  0  0  0  0
 19 10  1  6  0  0  0
 19 20  1  0  0  0  0
 20 15  1  0  0  0  0
 21 22  2  0  0  0  0
 22 23  1  0  0  0  0
 23  8  1  0  0  0  0
 25 24  1  6  0  0  0
 25 27  1  0  0  0  0
 25 22  1  0  0  0  0
 27 26  1  6  0  0  0
 27 28  1  0  0  0  0
 28 30  1  0  0  0  0
 28 29  1  0  0  0  0
 31 28  1  0  0  0  0
M  END
>  <MODEL>
7

>  <REMARK>
 VINA RESULT:      -9.0      2.552      4.962
  Name = 
  4 active torsions:
  status: ('A' for Active; 'I' for Inactive)
    1  A    between atoms: C_1  and  C_19
    2  A    between atoms: C_9  and  C_22
    3  A    between atoms: C_15  and  N_23
    4  A    between atoms: C_19  and  C_22
                            x       y       z     vdW  Elec       q    Type
                         _______ _______ _______ _____ _____    ______ ____

>  <TORSDO>
F 4

$$$$
=
 OpenBabel10262419193D

 31 34  0  0  1  0  0  0  0  0999 V2000
  184.3320  178.7870  143.6190 C   0  0  0  0  0  0  0  0  0  0  0  0
  187.9500  178.0480  143.0380 C   0  0  0  0  0  0  0  0  0  0  0  0
  188.5000  177.8740  144.4510 C   0  0  1  0  0  3  0  0  0  0  0  0
  187.5130  177.0530  146.6540 C   0  0  0  0  0  2  0  0  0  0  0  0
  186.5810  178.3260  142.8080 C   0  0  0  0  0  0  0  0  0  0  0  0
  183.8640  178.8580  142.3060 C   0  0  0  0  0  3  0  0  0  0  0  0
  187.7520  176.7540  145.1720 C   0  0  0  0  0  2  0  0  0  0  0  0
  188.3300  178.0300  140.6190 C   0  0  0  0  0  0  0  0  0  0  0  0
  183.2290  179.0220  144.9560 Cl  0  0  0  0  0  0  0  0  0  0  0  0
  190.7820  178.1760  143.3870 C   0  0  0  0  0  2  0  0  0  0  0  0
  188.6910  177.6990  147.3890 C   0  0  0  0  0  2  0  0  0  0  0  0
  186.9670  178.2520  140.4060 C   0  0  0  0  0  3  0  0  0  0  0  0
  188.8250  177.9690  141.9300 C   0  0  0  0  0  0  0  0  0  0  0  0
  185.6810  178.5230  143.8680 C   0  0  0  0  0  3  0  0  0  0  0  0
  190.0350  177.0990  147.0040 C   0  0  0  0  0  2  0  0  0  0  0  0
  186.0970  178.4140  141.4800 C   0  0  0  0  0  0  0  0  0  0  0  0
  184.7450  178.6730  141.2390 C   0  0  0  0  0  3  0  0  0  0  0  0
  190.2010  177.8480  142.1340 O   0  0  0  0  0  0  0  0  0  0  0  0
  190.0000  177.5060  144.5020 C   0  0  1  0  0  3  0  0  0  0  0  0
  190.6320  177.8800  145.8400 C   0  0  0  0  0  2  0  0  0  0  0  0
  187.9300  176.6070  138.0200 N   0  0  0  0  0  2  0  0  0  0  0  0
  189.0460  177.2050  138.2810 C   0  0  0  0  0  0  0  0  0  0  0  0
  189.2510  177.8970  139.5230 N   0  0  0  0  0  2  0  0  0  0  0  0
  189.6080  177.6680  136.0170 F   0  0  0  0  0  0  0  0  0  0  0  0
  190.1140  177.2430  137.2330 C   0  0  2  0  0  3  0  0  0  0  0  0
  191.1660  175.3760  138.3440 O   0  0  0  0  0  1  0  0  0  0  0  0
  190.9090  175.9320  137.0870 C   0  0  1  0  0  3  0  0  0  0  0  0
  190.3700  174.8670  136.1090 C   0  0  0  0  0  0  0  0  0  0  0  0
  191.4730  174.2820  135.2430 C   0  0  0  0  0  1  0  0  0  0  0  0
  189.6640  173.7410  136.8430 C   0  0  0  0  0  1  0  0  0  0  0  0
  189.4490  175.4720  135.2750 F   0  0  0  0  0  0  0  0  0  0  0  0
  1 14  1  0  0  0  0
  1  9  1  0  0  0  0
  2  3  1  0  0  0  0
  3 19  1  0  0  0  0
  3  7  1  6  0  0  0
  4 11  1  0  0  0  0
  5  2  1  0  0  0  0
  5 14  2  0  0  0  0
  6  1  2  0  0  0  0
  7  4  1  0  0  0  0
  8 13  1  0  0  0  0
 12  8  2  0  0  0  0
 12 16  1  0  0  0  0
 13 18  1  0  0  0  0
 13  2  2  0  0  0  0
 15 11  1  0  0  0  0
 16  5  1  0  0  0  0
 17 16  2  0  0  0  0
 17  6  1  0  0  0  0
 18 10  1  0  0  0  0
 19 10  1  6  0  0  0
 19 20  1  0  0  0  0
 20 15  1  0  0  0  0
 21 22  2  0  0  0  0
 22 23  1  0  0  0  0
 23  8  1  0  0  0  0
 25 24  1  6  0  0  0
 25 22  1  0  0  0  0
 27 25  1  0  0  0  0
 27 26  1  1  0  0  0
 28 30  1  0  0  0  0
 28 27  1  0  0  0  0
 29 28  1  0  0  0  0
 31 28  1  0  0  0  0
M  END
>  <MODEL>
8

>  <REMARK>
 VINA RESULT:      -8.5      2.322      4.628
  Name = 
  4 active torsions:
  status: ('A' for Active; 'I' for Inactive)
    1  A    between atoms: C_1  and  C_19
    2  A    between atoms: C_9  and  C_22
    3  A    between atoms: C_15  and  N_23
    4  A    between atoms: C_19  and  C_22
                            x       y       z     vdW  Elec       q    Type
                         _______ _______ _______ _____ _____    ______ ____

>  <TORSDO>
F 4

$$$$
=
 OpenBabel10262419193D

 31 34  0  0  1  0  0  0  0  0999 V2000
  190.3540  176.2670  142.6580 C   0  0  0  0  0  0  0  0  0  0  0  0
  187.0820  178.0000  143.1760 C   0  0  0  0  0  0  0  0  0  0  0  0
  186.8880  177.9290  144.6890 C   0  0  1  0  0  3  0  0  0  0  0  0
  188.4740  177.8780  146.6840 C   0  0  0  0  0  2  0  0  0  0  0  0
  188.2350  177.4630  142.5540 C   0  0  0  0  0  0  0  0  0  0  0  0
  190.5210  176.4270  141.2810 C   0  0  0  0  0  3  0  0  0  0  0  0
  188.0600  178.6020  145.4010 C   0  0  0  0  0  2  0  0  0  0  0  0
  186.2730  178.7420  140.9870 C   0  0  0  0  0  0  0  0  0  0  0  0
  191.5680  175.4270  143.5950 Cl  0  0  0  0  0  0  0  0  0  0  0  0
  184.4620  178.4870  144.2040 C   0  0  0  0  0  2  0  0  0  0  0  0
  187.3190  177.3730  147.5520 C   0  0  0  0  0  2  0  0  0  0  0  0
  187.4410  178.2530  140.3940 C   0  0  0  0  0  3  0  0  0  0  0  0
  186.0780  178.5780  142.3660 C   0  0  0  0  0  0  0  0  0  0  0  0
  189.2190  176.7800  143.2890 C   0  0  0  0  0  3  0  0  0  0  0  0
  186.1690  178.3650  147.6490 C   0  0  0  0  0  2  0  0  0  0  0  0
  188.4090  177.6070  141.1560 C   0  0  0  0  0  0  0  0  0  0  0  0
  189.5500  177.0960  140.5320 C   0  0  0  0  0  3  0  0  0  0  0  0
  184.8670  178.9770  142.9350 O   0  0  0  0  0  0  0  0  0  0  0  0
  185.6060  178.6290  145.1920 C   0  0  1  0  0  3  0  0  0  0  0  0
  185.1560  178.0870  146.5460 C   0  0  0  0  0  2  0  0  0  0  0  0
  184.1600  177.4650  139.3010 N   0  0  0  0  0  2  0  0  0  0  0  0
  184.2390  178.7510  139.4000 C   0  0  0  0  0  0  0  0  0  0  0  0
  185.2450  179.3780  140.2100 N   0  0  0  0  0  2  0  0  0  0  0  0
  183.5790  180.9320  138.7200 F   0  0  0  0  0  0  0  0  0  0  0  0
  183.2090  179.5980  138.7200 C   0  0  2  0  0  3  0  0  0  0  0  0
  181.7790  179.3780  140.6520 O   0  0  0  0  0  1  0  0  0  0  0  0
  181.7770  179.4090  139.2550 C   0  0  1  0  0  3  0  0  0  0  0  0
  180.6780  180.3530  138.7230 C   0  0  0  0  0  0  0  0  0  0  0  0
  180.8100  180.5930  137.2280 C   0  0  0  0  0  1  0  0  0  0  0  0
  179.2890  179.8160  139.0190 C   0  0  0  0  0  1  0  0  0  0  0  0
  180.8060  181.5720  139.3630 F   0  0  0  0  0  0  0  0  0  0  0  0
  1 14  1  0  0  0  0
  1  9  1  0  0  0  0
  2  3  1  0  0  0  0
  3 19  1  0  0  0  0
  3  7  1  1  0  0  0
  4 11  1  0  0  0  0
  5  2  1  0  0  0  0
  5 14  2  0  0  0  0
  6  1  2  0  0  0  0
  7  4  1  0  0  0  0
  8 13  1  0  0  0  0
 11 15  1  0  0  0  0
 12  8  2  0  0  0  0
 12 16  1  0  0  0  0
 13 18  1  0  0  0  0
 13  2  2  0  0  0  0
 16  5  1  0  0  0  0
 17 16  2  0  0  0  0
 17  6  1  0  0  0  0
 18 10  1  0  0  0  0
 19 10  1  6  0  0  0
 19 20  1  0  0  0  0
 20 15  1  0  0  0  0
 21 22  2  0  0  0  0
 22 23  1  0  0  0  0
 23  8  1  0  0  0  0
 25 24  1  1  0  0  0
 25 27  1  0  0  0  0
 25 22  1  0  0  0  0
 27 26  1  1  0  0  0
 28 30  1  0  0  0  0
 28 27  1  0  0  0  0
 28 31  1  0  0  0  0
 29 28  1  0  0  0  0
M  END
>  <MODEL>
9

>  <REMARK>
 VINA RESULT:      -8.4      3.345      5.049
  Name = 
  4 active torsions:
  status: ('A' for Active; 'I' for Inactive)
    1  A    between atoms: C_1  and  C_19
    2  A    between atoms: C_9  and  C_22
    3  A    between atoms: C_15  and  N_23
    4  A    between atoms: C_19  and  C_22
                            x       y       z     vdW  Elec       q    Type
                         _______ _______ _______ _____ _____    ______ ____

>  <TORSDO>
F 4

$$$$
