=
 OpenBabel10262421223D

 32 37  0  0  1  0  0  0  0  0999 V2000
  188.6120  176.5880  136.7470 C   0  0  0  0  0  3  0  0  0  0  0  0
  188.8780  177.6990  141.8330 C   0  0  0  0  0  0  0  0  0  0  0  0
  184.0580  178.8380  142.4010 C   0  0  0  0  0  3  0  0  0  0  0  0
  184.2200  178.6690  143.7090 C   0  0  0  0  0  3  0  0  0  0  0  0
  190.2970  177.2990  143.8870 N   0  0  0  0  0  0  0  0  0  0  0  0
  190.2740  177.0900  145.2980 C   0  0  0  0  0  0  0  0  0  0  0  0
  189.8060  177.7700  139.4780 C   0  0  2  0  0  3  0  0  0  0  0  0
  187.5200  178.2570  139.7750 C   0  0  0  0  0  2  0  0  0  0  0  0
  189.3610  177.0640  147.3030 N   0  0  0  0  0  0  0  0  0  0  0  0
  188.2960  177.7610  137.6330 C   0  0  0  0  0  2  0  0  0  0  0  0
  185.1980  178.6810  141.4340 C   0  0  0  0  0  2  0  0  0  0  0  0
  187.6300  178.0400  141.2660 C   0  0  0  0  0  0  0  0  0  0  0  0
  186.5100  178.2750  142.0810 C   0  0  0  0  0  0  0  0  0  0  0  0
  187.8490  177.7760  144.0670 C   0  0  0  0  0  0  0  0  0  0  0  0
  190.6810  176.7970  147.4350 C   0  0  0  0  0  3  0  0  0  0  0  0
  190.5490  175.7560  138.1320 C   0  0  0  0  0  2  0  0  0  0  0  0
  188.4500  177.4090  139.0390 N   0  0  1  0  0  0  0  0  0  0  0  0
  191.3040  176.8100  146.1800 C   0  0  0  0  0  3  0  0  0  0  0  0
  190.9050  177.1670  138.5890 C   0  0  0  0  0  2  0  0  0  0  0  0
  189.6450  175.7410  136.9220 C   0  0  0  0  0  0  0  0  0  0  0  0
  185.5330  178.3100  144.2580 C   0  0  0  0  0  3  0  0  0  0  0  0
  186.6140  178.1240  143.4810 C   0  0  0  0  0  0  0  0  0  0  0  0
  187.9130  177.6080  145.3690 N   0  0  0  0  0  0  0  0  0  0  0  0
  190.0080  177.2990  140.9140 C   0  0  0  0  0  2  0  0  0  0  0  0
  191.5930  177.4390  143.2350 C   0  0  0  0  0  1  0  0  0  0  0  0
  188.3910  177.1640  148.3790 C   0  0  0  0  0  1  0  0  0  0  0  0
  189.0160  177.5970  143.2430 C   0  0  0  0  0  0  0  0  0  0  0  0
  189.1380  177.2400  145.9980 C   0  0  0  0  0  0  0  0  0  0  0  0
  189.8350  174.6480  135.9210 C   0  0  0  0  0  2  0  0  0  0  0  0
  188.5780  173.8040  135.7870 C   0  0  2  0  0  3  0  0  0  0  0  0
  188.4840  172.8980  136.9180 N   0  0  0  0  0  1  0  0  0  0  0  0
  188.6240  173.0630  134.6060 O   0  0  0  0  0  1  0  0  0  0  0  0
  1 20  2  0  0  0  0
  1 10  1  0  0  0  0
  2 27  2  0  0  0  0
  3  4  2  0  0  0  0
  4 21  1  0  0  0  0
  5  6  1  0  0  0  0
  6 28  2  0  0  0  0
  6 18  1  0  0  0  0
  7 19  1  6  0  0  0
  7 24  1  0  0  0  0
  8 12  1  0  0  0  0
  9 15  1  0  0  0  0
  9 26  1  0  0  0  0
 11 13  1  0  0  0  0
 11  3  1  0  0  0  0
 12  2  1  0  0  0  0
 12 13  2  0  0  0  0
 13 22  1  0  0  0  0
 14 23  2  0  0  0  0
 16 19  1  0  0  0  0
 17 10  1  6  0  0  0
 17  7  1  0  0  0  0
 17  8  1  0  0  0  0
 18 15  2  0  0  0  0
 20 16  1  0  0  0  0
 22 14  1  0  0  0  0
 22 21  2  0  0  0  0
 23 28  1  0  0  0  0
 24  2  1  0  0  0  0
 25  5  1  0  0  0  0
 27  5  1  0  0  0  0
 27 14  1  0  0  0  0
 28  9  1  0  0  0  0
 29 20  1  0  0  0  0
 30 32  1  6  0  0  0
 30 29  1  0  0  0  0
 30 31  1  0  0  0  0
M  END
>  <MODEL>
1

>  <REMARK>
 VINA RESULT:     -10.2      0.000      0.000
  Name = 
  2 active torsions:
  status: ('A' for Active; 'I' for Inactive)
    1  A    between atoms: C_1  and  C_10
    2  A    between atoms: C_10  and  C_24
                            x       y       z     vdW  Elec       q    Type
                         _______ _______ _______ _____ _____    ______ ____

>  <TORSDO>
F 2

$$$$
=
 OpenBabel10262421223D

 32 37  0  0  1  0  0  0  0  0999 V2000
  186.7410  177.2020  137.0530 C   0  0  0  0  0  3  0  0  0  0  0  0
  187.6650  178.1050  142.1030 C   0  0  0  0  0  0  0  0  0  0  0  0
  182.9310  179.0090  143.3770 C   0  0  0  0  0  3  0  0  0  0  0  0
  183.2780  178.7900  144.6410 C   0  0  0  0  0  3  0  0  0  0  0  0
  189.3680  177.6790  143.9220 N   0  0  0  0  0  0  0  0  0  0  0  0
  189.5480  177.4080  145.3120 C   0  0  0  0  0  0  0  0  0  0  0  0
  188.2560  178.3170  139.6500 C   0  0  2  0  0  3  0  0  0  0  0  0
  186.0170  178.6910  140.2790 C   0  0  0  0  0  2  0  0  0  0  0  0
  188.9220  177.2570  147.4190 N   0  0  0  0  0  0  0  0  0  0  0  0
  186.5070  178.3220  138.0300 C   0  0  0  0  0  2  0  0  0  0  0  0
  183.9320  178.9430  142.2570 C   0  0  0  0  0  2  0  0  0  0  0  0
  186.3390  178.4160  141.7280 C   0  0  0  0  0  0  0  0  0  0  0  0
  185.3350  178.5660  142.6990 C   0  0  0  0  0  0  0  0  0  0  0  0
  186.9520  178.0400  144.4580 C   0  0  0  0  0  0  0  0  0  0  0  0
  190.2570  177.0420  147.3570 C   0  0  0  0  0  3  0  0  0  0  0  0
  188.8800  176.3960  138.1200 C   0  0  0  0  0  2  0  0  0  0  0  0
  186.8660  177.9160  139.3830 N   0  0  1  0  0  0  0  0  0  0  0  0
  190.7000  177.1350  146.0300 C   0  0  0  0  0  3  0  0  0  0  0  0
  189.2430  177.8000  138.5910 C   0  0  0  0  0  2  0  0  0  0  0  0
  187.8190  176.3940  137.0440 C   0  0  0  0  0  0  0  0  0  0  0  0
  184.6670  178.4650  144.9880 C   0  0  0  0  0  3  0  0  0  0  0  0
  185.6360  178.3600  144.0630 C   0  0  0  0  0  0  0  0  0  0  0  0
  187.2020  177.8210  145.7290 N   0  0  0  0  0  0  0  0  0  0  0  0
  188.6720  177.7940  141.0200 C   0  0  0  0  0  2  0  0  0  0  0  0
  190.5560  177.9030  143.1080 C   0  0  0  0  0  1  0  0  0  0  0  0
  188.1070  177.2680  148.6200 C   0  0  0  0  0  1  0  0  0  0  0  0
  188.0000  177.9480  143.4740 C   0  0  0  0  0  0  0  0  0  0  0  0
  188.5150  177.4790  146.1660 C   0  0  0  0  0  0  0  0  0  0  0  0
  187.9090  175.3540  135.9750 C   0  0  0  0  0  2  0  0  0  0  0  0
  188.0510  173.9640  136.5750 C   0  0  2  0  0  3  0  0  0  0  0  0
  188.3500  173.0130  135.5190 N   0  0  0  0  0  1  0  0  0  0  0  0
  186.8640  173.5940  137.2070 O   0  0  0  0  0  1  0  0  0  0  0  0
  1 10  1  0  0  0  0
  2 27  2  0  0  0  0
  3  4  2  0  0  0  0
  4 21  1  0  0  0  0
  5  6  1  0  0  0  0
  6 18  1  0  0  0  0
  6 28  2  0  0  0  0
  7 19  1  6  0  0  0
  7 24  1  0  0  0  0
  8 12  1  0  0  0  0
  9 26  1  0  0  0  0
 11 13  1  0  0  0  0
 11  3  1  0  0  0  0
 12  2  1  0  0  0  0
 12 13  2  0  0  0  0
 13 22  1  0  0  0  0
 14 23  2  0  0  0  0
 15  9  1  0  0  0  0
 16 19  1  0  0  0  0
 17 10  1  6  0  0  0
 17  7  1  0  0  0  0
 17  8  1  0  0  0  0
 18 15  2  0  0  0  0
 20  1  2  0  0  0  0
 20 16  1  0  0  0  0
 22 14  1  0  0  0  0
 22 21  2  0  0  0  0
 23 28  1  0  0  0  0
 24  2  1  0  0  0  0
 25  5  1  0  0  0  0
 27  5  1  0  0  0  0
 27 14  1  0  0  0  0
 28  9  1  0  0  0  0
 29 30  1  0  0  0  0
 29 20  1  0  0  0  0
 30 31  1  6  0  0  0
 30 32  1  0  0  0  0
M  END
>  <MODEL>
2

>  <REMARK>
 VINA RESULT:     -10.2      1.224      1.452
  Name = 
  2 active torsions:
  status: ('A' for Active; 'I' for Inactive)
    1  A    between atoms: C_1  and  C_10
    2  A    between atoms: C_10  and  C_24
                            x       y       z     vdW  Elec       q    Type
                         _______ _______ _______ _____ _____    ______ ____

>  <TORSDO>
F 2

$$$$
=
 OpenBabel10262421223D

 32 37  0  0  1  0  0  0  0  0999 V2000
  180.1510  178.2060  142.2820 C   0  0  0  0  0  3  0  0  0  0  0  0
  185.3560  178.4850  142.3970 C   0  0  0  0  0  0  0  0  0  0  0  0
  185.8040  178.3730  147.3600 C   0  0  0  0  0  3  0  0  0  0  0  0
  187.0770  178.0290  147.1910 C   0  0  0  0  0  3  0  0  0  0  0  0
  187.4020  178.0860  140.9680 N   0  0  0  0  0  0  0  0  0  0  0  0
  188.7600  177.6440  140.9710 C   0  0  0  0  0  0  0  0  0  0  0  0
  183.1010  179.1590  141.4610 C   0  0  2  0  0  3  0  0  0  0  0  0
  183.3330  179.0500  143.8030 C   0  0  0  0  0  2  0  0  0  0  0  0
  190.6770  177.0750  141.8940 N   0  0  0  0  0  0  0  0  0  0  0  0
  181.1900  179.1110  142.8870 C   0  0  0  0  0  2  0  0  0  0  0  0
  184.8950  178.6460  146.1950 C   0  0  0  0  0  3  0  0  0  0  0  0
  184.7750  178.6190  143.6780 C   0  0  0  0  0  0  0  0  0  0  0  0
  185.5480  178.4500  144.8380 C   0  0  0  0  0  0  0  0  0  0  0  0
  187.5080  177.9480  143.4620 C   0  0  0  0  0  0  0  0  0  0  0  0
  190.8450  177.1000  140.5520 C   0  0  0  0  0  3  0  0  0  0  0  0
  181.5030  177.6240  140.2340 C   0  0  0  0  0  2  0  0  0  0  0  0
  182.5300  178.5740  142.6840 N   0  0  1  0  0  0  0  0  0  0  0  0
  189.6460  177.4650  139.9230 C   0  0  0  0  0  3  0  0  0  0  0  0
  182.1950  178.9820  140.2320 C   0  0  0  0  0  2  0  0  0  0  0  0
  180.2530  177.6030  141.0820 C   0  0  0  0  0  0  0  0  0  0  0  0
  187.6410  177.8960  145.8420 C   0  0  0  0  0  3  0  0  0  0  0  0
  186.9110  178.0960  144.7320 C   0  0  2  0  0  3  0  0  0  0  0  0
  188.7690  177.5860  143.3880 N   0  0  0  0  0  0  0  0  0  0  0  0
  184.4550  178.5150  141.1840 C   0  0  0  0  0  2  0  0  0  0  0  0
  186.8600  178.6270  139.7280 C   0  0  0  0  0  1  0  0  0  0  0  0
  191.6940  176.7670  142.8830 C   0  0  0  0  0  1  0  0  0  0  0  0
  186.7370  178.1830  142.2690 C   0  0  0  0  0  0  0  0  0  0  0  0
  189.4040  177.4090  142.1240 C   0  0  0  0  0  0  0  0  0  0  0  0
  179.1060  176.7660  140.6170 C   0  0  0  0  0  2  0  0  0  0  0  0
  179.4740  175.2900  140.6080 C   0  0  2  0  0  3  0  0  0  0  0  0
  178.9310  174.6670  139.4150 N   0  0  0  0  0  1  0  0  0  0  0  0
  178.9490  174.6610  141.7370 O   0  0  0  0  0  1  0  0  0  0  0  0
  1 10  1  0  0  0  0
  2 12  1  0  0  0  0
  4  3  1  0  0  0  0
  5  6  1  0  0  0  0
  5 27  1  0  0  0  0
  6 28  2  0  0  0  0
  7 19  1  6  0  0  0
  7 17  1  0  0  0  0
  9 28  1  0  0  0  0
  9 26  1  0  0  0  0
 11  3  2  0  0  0  0
 12  8  1  0  0  0  0
 12 13  2  0  0  0  0
 13 11  1  0  0  0  0
 14 22  1  0  0  0  0
 15  9  1  0  0  0  0
 16 20  1  0  0  0  0
 17 10  1  1  0  0  0
 17  8  1  0  0  0  0
 18 15  2  0  0  0  0
 18  6  1  0  0  0  0
 19 16  1  0  0  0  0
 20  1  2  0  0  0  0
 21  4  2  0  0  0  0
 22 13  1  0  0  0  0
 22 21  1  6  0  0  0
 23 14  2  0  0  0  0
 24  7  1  0  0  0  0
 24  2  1  0  0  0  0
 25  5  1  0  0  0  0
 27  2  2  0  0  0  0
 27 14  1  0  0  0  0
 28 23  1  0  0  0  0
 29 20  1  0  0  0  0
 30 31  1  6  0  0  0
 30 29  1  0  0  0  0
 30 32  1  0  0  0  0
M  END
>  <MODEL>
3

>  <REMARK>
 VINA RESULT:     -10.1      3.779      6.870
  Name = 
  2 active torsions:
  status: ('A' for Active; 'I' for Inactive)
    1  A    between atoms: C_1  and  C_10
    2  A    between atoms: C_10  and  C_24
                            x       y       z     vdW  Elec       q    Type
                         _______ _______ _______ _____ _____    ______ ____

>  <TORSDO>
F 2

$$$$
=
 OpenBabel10262421223D

 32 37  0  0  1  0  0  0  0  0999 V2000
  188.7250  176.4170  136.6690 C   0  0  0  0  0  3  0  0  0  0  0  0
  189.0060  177.6310  141.7300 C   0  0  0  0  0  0  0  0  0  0  0  0
  184.2150  178.9040  142.2580 C   0  0  0  0  0  3  0  0  0  0  0  0
  184.3690  178.7590  143.5700 C   0  0  0  0  0  3  0  0  0  0  0  0
  190.4090  177.2410  143.7960 N   0  0  0  0  0  0  0  0  0  0  0  0
  190.3770  177.0630  145.2120 C   0  0  0  0  0  0  0  0  0  0  0  0
  189.9410  177.6280  139.3770 C   0  0  2  0  0  3  0  0  0  0  0  0
  187.6680  178.1790  139.6560 C   0  0  0  0  0  2  0  0  0  0  0  0
  189.4590  177.1040  147.2140 N   0  0  0  0  0  0  0  0  0  0  0  0
  188.4360  177.6170  137.5280 C   0  0  0  0  0  2  0  0  0  0  0  0
  185.3530  178.6970  141.2990 C   0  0  0  0  0  2  0  0  0  0  0  0
  187.7680  177.9920  141.1520 C   0  0  0  0  0  0  0  0  0  0  0  0
  186.6520  178.2720  141.9580 C   0  0  0  0  0  0  0  0  0  0  0  0
  187.9730  177.7820  143.9590 C   0  0  0  0  0  0  0  0  0  0  0  0
  190.7710  176.8060  147.3560 C   0  0  0  0  0  3  0  0  0  0  0  0
  190.6370  175.5670  138.0780 C   0  0  0  0  0  2  0  0  0  0  0  0
  188.5770  177.2910  138.9420 N   0  0  1  0  0  0  0  0  0  0  0  0
  191.3970  176.7760  146.1030 C   0  0  0  0  0  3  0  0  0  0  0  0
  191.0270  176.9780  138.5040 C   0  0  0  0  0  2  0  0  0  0  0  0
  189.7360  175.5480  136.8650 C   0  0  0  0  0  0  0  0  0  0  0  0
  185.6710  178.3790  144.1310 C   0  0  0  0  0  3  0  0  0  0  0  0
  186.7490  178.1490  143.3610 C   0  0  0  0  0  0  0  0  0  0  0  0
  188.0300  177.6420  145.2640 N   0  0  0  0  0  0  0  0  0  0  0  0
  190.1280  177.1830  140.8230 C   0  0  0  0  0  2  0  0  0  0  0  0
  191.7100  177.3340  143.1460 C   0  0  0  0  0  1  0  0  0  0  0  0
  188.4880  177.2510  148.2840 C   0  0  0  0  0  1  0  0  0  0  0  0
  189.1370  177.5570  143.1420 C   0  0  0  0  0  0  0  0  0  0  0  0
  189.2430  177.2560  145.9040 C   0  0  0  0  0  0  0  0  0  0  0  0
  189.9010  174.4290  135.8890 C   0  0  0  0  0  2  0  0  0  0  0  0
  191.3630  174.0340  135.7520 C   0  0  2  0  0  3  0  0  0  0  0  0
  192.0200  174.9340  134.8220 N   0  0  0  0  0  1  0  0  0  0  0  0
  191.4610  172.7260  135.2760 O   0  0  0  0  0  1  0  0  0  0  0  0
  1 20  2  0  0  0  0
  1 10  1  0  0  0  0
  2 27  2  0  0  0  0
  3  4  2  0  0  0  0
  4 21  1  0  0  0  0
  5  6  1  0  0  0  0
  6 28  2  0  0  0  0
  6 18  1  0  0  0  0
  7 19  1  6  0  0  0
  7 24  1  0  0  0  0
  8 12  1  0  0  0  0
  9 15  1  0  0  0  0
  9 26  1  0  0  0  0
 11 13  1  0  0  0  0
 11  3  1  0  0  0  0
 12  2  1  0  0  0  0
 12 13  2  0  0  0  0
 13 22  1  0  0  0  0
 14 23  2  0  0  0  0
 16 19  1  0  0  0  0
 17 10  1  6  0  0  0
 17  7  1  0  0  0  0
 17  8  1  0  0  0  0
 18 15  2  0  0  0  0
 20 16  1  0  0  0  0
 22 14  1  0  0  0  0
 22 21  2  0  0  0  0
 23 28  1  0  0  0  0
 24  2  1  0  0  0  0
 25  5  1  0  0  0  0
 27  5  1  0  0  0  0
 27 14  1  0  0  0  0
 28  9  1  0  0  0  0
 29 20  1  0  0  0  0
 30 31  1  6  0  0  0
 30 29  1  0  0  0  0
 32 30  1  0  0  0  0
M  END
>  <MODEL>
4

>  <REMARK>
 VINA RESULT:     -10.1      1.022      1.097
  Name = 
  2 active torsions:
  status: ('A' for Active; 'I' for Inactive)
    1  A    between atoms: C_1  and  C_10
    2  A    between atoms: C_10  and  C_24
                            x       y       z     vdW  Elec       q    Type
                         _______ _______ _______ _____ _____    ______ ____

>  <TORSDO>
F 2

$$$$
=
 OpenBabel10262421223D

 32 37  0  0  1  0  0  0  0  0999 V2000
  181.4500  178.0030  139.5970 C   0  0  0  0  0  3  0  0  0  0  0  0
  186.1180  178.3700  141.8880 C   0  0  0  0  0  0  0  0  0  0  0  0
  184.4210  178.5200  146.5730 C   0  0  0  0  0  3  0  0  0  0  0  0
  185.6440  178.1880  146.9770 C   0  0  0  0  0  3  0  0  0  0  0  0
  188.5740  177.9300  141.4840 N   0  0  0  0  0  0  0  0  0  0  0  0
  189.7990  177.5110  142.0840 C   0  0  0  0  0  0  0  0  0  0  0  0
  184.4770  178.9600  140.0520 C   0  0  2  0  0  3  0  0  0  0  0  0
  183.6940  178.9750  142.2740 C   0  0  0  0  0  2  0  0  0  0  0  0
  191.1410  177.0200  143.7620 N   0  0  0  0  0  0  0  0  0  0  0  0
  182.1420  178.9540  140.5350 C   0  0  0  0  0  2  0  0  0  0  0  0
  184.0940  178.7180  145.1200 C   0  0  0  0  0  3  0  0  0  0  0  0
  185.0500  178.5610  142.7940 C   0  0  0  0  0  0  0  0  0  0  0  0
  185.2580  178.4640  144.1800 C   0  0  0  0  0  0  0  0  0  0  0  0
  187.6130  177.9230  143.7920 C   0  0  0  0  0  0  0  0  0  0  0  0
  191.8610  176.9790  142.6170 C   0  0  0  0  0  3  0  0  0  0  0  0
  183.5380  177.3380  138.3470 C   0  0  0  0  0  2  0  0  0  0  0  0
  183.4380  178.4290  140.9470 N   0  0  1  0  0  0  0  0  0  0  0  0
  191.0450  177.2930  141.5220 C   0  0  0  0  0  3  0  0  0  0  0  0
  184.1760  178.7050  138.5670 C   0  0  0  0  0  2  0  0  0  0  0  0
  182.0460  177.3410  138.5860 C   0  0  0  0  0  0  0  0  0  0  0  0
  186.7250  177.9940  146.0030 C   0  0  0  0  0  3  0  0  0  0  0  0
  186.5350  178.1260  144.6790 C   0  0  2  0  0  3  0  0  0  0  0  0
  188.7830  177.5770  144.2780 N   0  0  0  0  0  0  0  0  0  0  0  0
  185.8160  178.3230  140.4090 C   0  0  0  0  0  2  0  0  0  0  0  0
  188.6120  178.3980  140.1040 C   0  0  0  0  0  1  0  0  0  0  0  0
  191.6410  176.7800  145.1040 C   0  0  0  0  0  1  0  0  0  0  0  0
  187.4210  178.0840  142.3740 C   0  0  0  0  0  0  0  0  0  0  0  0
  189.8930  177.3460  143.4130 C   0  0  0  0  0  0  0  0  0  0  0  0
  181.1980  176.4630  137.7240 C   0  0  0  0  0  2  0  0  0  0  0  0
  181.3470  175.0020  138.1180 C   0  0  2  0  0  3  0  0  0  0  0  0
  181.7850  174.2360  136.9650 N   0  0  0  0  0  1  0  0  0  0  0  0
  180.1250  174.5020  138.5670 O   0  0  0  0  0  1  0  0  0  0  0  0
  1 10  1  0  0  0  0
  2 27  2  0  0  0  0
  2 12  1  0  0  0  0
  3  4  1  0  0  0  0
  5  6  1  0  0  0  0
  5 27  1  0  0  0  0
  6 28  2  0  0  0  0
  7 19  1  6  0  0  0
  7 24  1  0  0  0  0
  7 17  1  0  0  0  0
  8 12  1  0  0  0  0
  9 26  1  0  0  0  0
 11  3  2  0  0  0  0
 12 13  2  0  0  0  0
 13 22  1  0  0  0  0
 13 11  1  0  0  0  0
 14 23  2  0  0  0  0
 14 22  1  0  0  0  0
 15  9  1  0  0  0  0
 16 19  1  0  0  0  0
 16 20  1  0  0  0  0
 17 10  1  6  0  0  0
 17  8  1  0  0  0  0
 18  6  1  0  0  0  0
 18 15  2  0  0  0  0
 20  1  2  0  0  0  0
 21  4  2  0  0  0  0
 22 21  1  6  0  0  0
 24  2  1  0  0  0  0
 25  5  1  0  0  0  0
 27 14  1  0  0  0  0
 28  9  1  0  0  0  0
 28 23  1  0  0  0  0
 29 30  1  0  0  0  0
 29 20  1  0  0  0  0
 30 31  1  6  0  0  0
 30 32  1  0  0  0  0
M  END
>  <MODEL>
5

>  <REMARK>
 VINA RESULT:      -9.6      3.309      5.183
  Name = 
  2 active torsions:
  status: ('A' for Active; 'I' for Inactive)
    1  A    between atoms: C_1  and  C_10
    2  A    between atoms: C_10  and  C_24
                            x       y       z     vdW  Elec       q    Type
                         _______ _______ _______ _____ _____    ______ ____

>  <TORSDO>
F 2

$$$$
=
 OpenBabel10262421223D

 32 37  0  0  1  0  0  0  0  0999 V2000
  184.0190  177.7850  137.5930 C   0  0  0  0  0  3  0  0  0  0  0  0
  187.1380  178.1270  141.7550 C   0  0  0  0  0  0  0  0  0  0  0  0
  183.5290  179.0240  145.0750 C   0  0  0  0  0  3  0  0  0  0  0  0
  184.3820  178.6650  146.0300 C   0  0  0  0  0  3  0  0  0  0  0  0
  189.4330  177.4650  142.5830 N   0  0  0  0  0  0  0  0  0  0  0  0
  190.1880  177.0450  143.7190 C   0  0  0  0  0  0  0  0  0  0  0  0
  186.6000  178.5780  139.3220 C   0  0  2  0  0  3  0  0  0  0  0  0
  184.9010  178.9470  140.9120 C   0  0  0  0  0  2  0  0  0  0  0  0
  190.5460  176.6920  145.8640 N   0  0  0  0  0  0  0  0  0  0  0  0
  184.3210  178.8020  138.6590 C   0  0  0  0  0  2  0  0  0  0  0  0
  183.9260  179.0480  143.6260 C   0  0  0  0  0  2  0  0  0  0  0  0
  185.8080  178.5120  142.0380 C   0  0  0  0  0  0  0  0  0  0  0  0
  185.3490  178.5880  143.3630 C   0  0  0  0  0  0  0  0  0  0  0  0
  187.5340  177.8360  144.1670 C   0  0  0  0  0  0  0  0  0  0  0  0
  191.6970  176.4470  145.1970 C   0  0  0  0  0  3  0  0  0  0  0  0
  186.3450  176.8120  137.5240 C   0  0  0  0  0  2  0  0  0  0  0  0
  185.2100  178.2470  139.6720 N   0  0  1  0  0  0  0  0  0  0  0  0
  191.5150  176.6660  143.8240 C   0  0  0  0  0  3  0  0  0  0  0  0
  186.9790  178.1490  137.8960 C   0  0  0  0  0  2  0  0  0  0  0  0
  184.9220  176.9530  137.0380 C   0  0  0  0  0  0  0  0  0  0  0  0
  185.7540  178.2660  145.6930 C   0  0  0  0  0  3  0  0  0  0  0  0
  186.2050  178.2320  144.4280 C   0  0  0  0  0  0  0  0  0  0  0  0
  188.3020  177.4770  145.1710 N   0  0  0  0  0  0  0  0  0  0  0  0
  187.5390  177.9030  140.3160 C   0  0  0  0  0  2  0  0  0  0  0  0
  190.1530  177.7400  141.3460 C   0  0  0  0  0  1  0  0  0  0  0  0
  190.3470  176.5990  147.3000 C   0  0  0  0  0  1  0  0  0  0  0  0
  188.0310  177.8180  142.8160 C   0  0  0  0  0  0  0  0  0  0  0  0
  189.6450  177.0540  144.9470 C   0  0  0  0  0  0  0  0  0  0  0  0
  184.4570  176.0290  135.9600 C   0  0  0  0  0  2  0  0  0  0  0  0
  183.8870  174.7470  136.5470 C   0  0  2  0  0  3  0  0  0  0  0  0
  182.4810  174.6430  136.2000 N   0  0  0  0  0  1  0  0  0  0  0  0
  184.0200  174.7570  137.9350 O   0  0  0  0  0  1  0  0  0  0  0  0
  1 10  1  0  0  0  0
  2 12  1  0  0  0  0
  2 27  2  0  0  0  0
  3  4  2  0  0  0  0
  5 27  1  0  0  0  0
  5  6  1  0  0  0  0
  6 18  1  0  0  0  0
  6 28  2  0  0  0  0
  7 19  1  6  0  0  0
  7 17  1  0  0  0  0
  7 24  1  0  0  0  0
  8 12  1  0  0  0  0
  9 26  1  0  0  0  0
 11  3  1  0  0  0  0
 12 13  2  0  0  0  0
 13 11  1  0  0  0  0
 13 22  1  0  0  0  0
 14 22  1  0  0  0  0
 14 23  2  0  0  0  0
 15  9  1  0  0  0  0
 16 19  1  0  0  0  0
 17 10  1  6  0  0  0
 17  8  1  0  0  0  0
 18 15  2  0  0  0  0
 20 16  1  0  0  0  0
 20  1  2  0  0  0  0
 21  4  1  0  0  0  0
 22 21  2  0  0  0  0
 24  2  1  0  0  0  0
 25  5  1  0  0  0  0
 27 14  1  0  0  0  0
 28 23  1  0  0  0  0
 28  9  1  0  0  0  0
 29 30  1  0  0  0  0
 29 20  1  0  0  0  0
 30 31  1  1  0  0  0
 30 32  1  0  0  0  0
M  END
>  <MODEL>
6

>  <REMARK>
 VINA RESULT:      -9.2      2.495      3.238
  Name = 
  2 active torsions:
  status: ('A' for Active; 'I' for Inactive)
    1  A    between atoms: C_1  and  C_10
    2  A    between atoms: C_10  and  C_24
                            x       y       z     vdW  Elec       q    Type
                         _______ _______ _______ _____ _____    ______ ____

>  <TORSDO>
F 2

$$$$
=
 OpenBabel10262421223D

 32 37  0  0  1  0  0  0  0  0999 V2000
  190.7910  175.4240  135.5930 C   0  0  0  0  0  3  0  0  0  0  0  0
  189.4770  177.4670  140.2050 C   0  0  0  0  0  0  0  0  0  0  0  0
  184.9010  178.9320  138.8750 C   0  0  0  0  0  3  0  0  0  0  0  0
  184.5990  179.0060  140.1680 C   0  0  0  0  0  3  0  0  0  0  0  0
  190.0800  177.3960  142.6590 N   0  0  0  0  0  0  0  0  0  0  0  0
  189.5670  177.4600  143.9900 C   0  0  0  0  0  0  0  0  0  0  0  0
  191.1350  177.0430  138.3390 C   0  0  2  0  0  3  0  0  0  0  0  0
  188.9500  177.6910  137.7430 C   0  0  0  0  0  2  0  0  0  0  0  0
  188.0430  177.8610  145.5300 N   0  0  0  0  0  0  0  0  0  0  0  0
  190.3320  176.7590  136.1130 C   0  0  0  0  0  2  0  0  0  0  0  0
  186.2720  178.5370  138.4030 C   0  0  0  0  0  2  0  0  0  0  0  0
  188.5340  177.7560  139.1930 C   0  0  0  0  0  0  0  0  0  0  0  0
  187.2410  178.1970  139.5210 C   0  0  0  0  0  0  0  0  0  0  0  0
  187.7800  178.0180  141.9010 C   0  0  0  0  0  0  0  0  0  0  0  0
  189.2060  177.5590  146.1530 C   0  0  0  0  0  3  0  0  0  0  0  0
  192.0520  174.7760  137.6790 C   0  0  0  0  0  2  0  0  0  0  0  0
  189.9700  176.6730  137.5230 N   0  0  1  0  0  0  0  0  0  0  0  0
  190.2080  177.3020  145.2060 C   0  0  0  0  0  3  0  0  0  0  0  0
  192.3920  176.2280  137.9960 C   0  0  0  0  0  2  0  0  0  0  0  0
  191.6060  174.5760  136.2500 C   0  0  0  0  0  0  0  0  0  0  0  0
  185.6070  178.6930  141.1890 C   0  0  0  0  0  3  0  0  0  0  0  0
  186.8560  178.3100  140.8750 C   0  0  0  0  0  0  0  0  0  0  0  0
  187.3900  178.0990  143.1530 N   0  0  0  0  0  0  0  0  0  0  0  0
  190.7960  176.8450  139.8120 C   0  0  0  0  0  2  0  0  0  0  0  0
  191.5260  177.3450  142.4840 C   0  0  0  0  0  1  0  0  0  0  0  0
  186.7890  178.2110  146.1710 C   0  0  0  0  0  1  0  0  0  0  0  0
  189.1260  177.6290  141.5720 C   0  0  0  0  0  0  0  0  0  0  0  0
  188.2870  177.7960  144.2180 C   0  0  0  0  0  0  0  0  0  0  0  0
  191.9940  173.3040  135.5680 C   0  0  0  0  0  2  0  0  0  0  0  0
  193.5060  173.1710  135.4780 C   0  0  2  0  0  3  0  0  0  0  0  0
  194.0270  174.2020  134.5980 N   0  0  0  0  0  1  0  0  0  0  0  0
  193.8450  171.9170  134.9700 O   0  0  0  0  0  1  0  0  0  0  0  0
  1 10  1  0  0  0  0
  1 20  2  0  0  0  0
  2 27  2  0  0  0  0
  3  4  2  0  0  0  0
  4 21  1  0  0  0  0
  5  6  1  0  0  0  0
  6 28  2  0  0  0  0
  6 18  1  0  0  0  0
  7 19  1  6  0  0  0
  7 24  1  0  0  0  0
  8 12  1  0  0  0  0
  9 15  1  0  0  0  0
  9 26  1  0  0  0  0
 11  3  1  0  0  0  0
 11 13  1  0  0  0  0
 12 13  2  0  0  0  0
 12  2  1  0  0  0  0
 13 22  1  0  0  0  0
 14 23  2  0  0  0  0
 16 19  1  0  0  0  0
 17 10  1  6  0  0  0
 17  8  1  0  0  0  0
 17  7  1  0  0  0  0
 18 15  2  0  0  0  0
 20 16  1  0  0  0  0
 22 21  2  0  0  0  0
 22 14  1  0  0  0  0
 23 28  1  0  0  0  0
 24  2  1  0  0  0  0
 25  5  1  0  0  0  0
 27 14  1  0  0  0  0
 27  5  1  0  0  0  0
 28  9  1  0  0  0  0
 29 20  1  0  0  0  0
 30 31  1  6  0  0  0
 30 29  1  0  0  0  0
 32 30  1  0  0  0  0
M  END
>  <MODEL>
7

>  <REMARK>
 VINA RESULT:      -8.3      2.098      2.813
  Name = 
  2 active torsions:
  status: ('A' for Active; 'I' for Inactive)
    1  A    between atoms: C_1  and  C_10
    2  A    between atoms: C_10  and  C_24
                            x       y       z     vdW  Elec       q    Type
                         _______ _______ _______ _____ _____    ______ ____

>  <TORSDO>
F 2

$$$$
=
 OpenBabel10262421223D

 32 37  0  0  1  0  0  0  0  0999 V2000
  191.9480  176.7180  143.2220 C   0  0  0  0  0  3  0  0  0  0  0  0
  187.8700  178.1490  140.3070 C   0  0  0  0  0  0  0  0  0  0  0  0
  189.8060  176.7560  135.9300 C   0  0  0  0  0  3  0  0  0  0  0  0
  188.5740  176.7780  135.4310 C   0  0  0  0  0  3  0  0  0  0  0  0
  185.3970  178.6510  140.4540 N   0  0  0  0  0  0  0  0  0  0  0  0
  184.1440  178.5530  139.7770 C   0  0  0  0  0  0  0  0  0  0  0  0
  189.4930  178.5180  142.2160 C   0  0  2  0  0  3  0  0  0  0  0  0
  190.3700  177.8130  140.1460 C   0  0  0  0  0  2  0  0  0  0  0  0
  182.8260  178.2070  138.0460 N   0  0  0  0  0  0  0  0  0  0  0  0
  191.7000  177.6320  142.0530 C   0  0  0  0  0  2  0  0  0  0  0  0
  190.0890  177.1270  137.3580 C   0  0  0  0  0  2  0  0  0  0  0  0
  188.9920  177.7800  139.5310 C   0  0  0  0  0  0  0  0  0  0  0  0
  188.8520  177.4760  138.1660 C   0  0  0  0  0  0  0  0  0  0  0  0
  186.4390  177.8480  138.3270 C   0  0  0  0  0  0  0  0  0  0  0  0
  182.0660  178.6460  139.0760 C   0  0  0  0  0  3  0  0  0  0  0  0
  189.6850  177.0630  144.2810 C   0  0  0  0  0  2  0  0  0  0  0  0
  190.3310  177.4980  141.5690 N   0  0  1  0  0  0  0  0  0  0  0  0
  182.8690  178.8860  140.2000 C   0  0  0  0  0  3  0  0  0  0  0  0
  189.5890  178.4890  143.7500 C   0  0  0  0  0  2  0  0  0  0  0  0
  191.0930  176.5170  144.2430 C   0  0  0  0  0  0  0  0  0  0  0  0
  187.4340  177.1620  136.2720 C   0  0  0  0  0  3  0  0  0  0  0  0
  187.5740  177.4910  137.5680 C   0  0  0  0  0  0  0  0  0  0  0  0
  185.2560  177.8230  137.7580 N   0  0  0  0  0  0  0  0  0  0  0  0
  188.0410  178.3090  141.8000 C   0  0  0  0  0  2  0  0  0  0  0  0
  185.4390  179.3780  141.7170 C   0  0  0  0  0  1  0  0  0  0  0  0
  182.3600  177.8780  136.7110 C   0  0  0  0  0  1  0  0  0  0  0  0
  186.5840  178.2230  139.7100 C   0  0  0  0  0  0  0  0  0  0  0  0
  184.0840  178.1600  138.4950 C   0  0  0  0  0  0  0  0  0  0  0  0
  191.5180  175.6020  145.3450 C   0  0  0  0  0  2  0  0  0  0  0  0
  191.6810  176.3600  146.6530 C   0  0  2  0  0  3  0  0  0  0  0  0
  192.6840  175.7020  147.4700 N   0  0  0  0  0  1  0  0  0  0  0  0
  190.4690  176.3860  147.3430 O   0  0  0  0  0  1  0  0  0  0  0  0
  1 20  2  0  0  0  0
  2 24  1  0  0  0  0
  3 11  1  0  0  0  0
  4  3  2  0  0  0  0
  4 21  1  0  0  0  0
  5 25  1  0  0  0  0
  6 18  1  0  0  0  0
  6  5  1  0  0  0  0
  7 24  1  1  0  0  0
  7 19  1  0  0  0  0
  9 28  1  0  0  0  0
  9 15  1  0  0  0  0
 10  1  1  0  0  0  0
 11 13  1  0  0  0  0
 12  8  1  0  0  0  0
 12  2  1  0  0  0  0
 13 12  2  0  0  0  0
 14 27  1  0  0  0  0
 15 18  2  0  0  0  0
 17  8  1  6  0  0  0
 17 10  1  0  0  0  0
 17  7  1  0  0  0  0
 19 16  1  0  0  0  0
 20 16  1  0  0  0  0
 20 29  1  0  0  0  0
 21 22  2  0  0  0  0
 22 13  1  0  0  0  0
 22 14  1  0  0  0  0
 23 14  2  0  0  0  0
 23 28  1  0  0  0  0
 26  9  1  0  0  0  0
 27  2  2  0  0  0  0
 27  5  1  0  0  0  0
 28  6  2  0  0  0  0
 29 30  1  0  0  0  0
 30 32  1  1  0  0  0
 30 31  1  0  0  0  0
M  END
>  <MODEL>
8

>  <REMARK>
 VINA RESULT:      -8.0      3.293      7.997
  Name = 
  2 active torsions:
  status: ('A' for Active; 'I' for Inactive)
    1  A    between atoms: C_1  and  C_10
    2  A    between atoms: C_10  and  C_24
                            x       y       z     vdW  Elec       q    Type
                         _______ _______ _______ _____ _____    ______ ____

>  <TORSDO>
F 2

$$$$
=
 OpenBabel10262421223D

 32 37  0  0  1  0  0  0  0  0999 V2000
  181.1770  180.9000  137.3340 C   0  0  0  0  0  3  0  0  0  0  0  0
  183.9140  178.7810  141.2320 C   0  0  0  0  0  0  0  0  0  0  0  0
  188.0890  178.0130  138.6190 C   0  0  0  0  0  3  0  0  0  0  0  0
  188.7370  177.9030  139.7750 C   0  0  0  0  0  3  0  0  0  0  0  0
  183.9960  178.6290  143.7530 N   0  0  0  0  0  0  0  0  0  0  0  0
  184.8550  178.5550  144.8910 C   0  0  0  0  0  0  0  0  0  0  0  0
  181.7740  179.0920  139.9130 C   0  0  2  0  0  3  0  0  0  0  0  0
  183.7730  178.7740  138.7080 C   0  0  0  0  0  2  0  0  0  0  0  0
  186.7740  178.2680  145.9340 N   0  0  0  0  0  0  0  0  0  0  0  0
  181.9060  179.6090  137.5900 C   0  0  0  0  0  2  0  0  0  0  0  0
  186.6070  178.2500  138.5610 C   0  0  0  0  0  2  0  0  0  0  0  0
  184.5720  178.6790  139.9860 C   0  0  0  0  0  0  0  0  0  0  0  0
  185.9460  178.3940  139.9200 C   0  0  0  0  0  0  0  0  0  0  0  0
  186.0580  178.3600  142.3640 C   0  0  0  0  0  0  0  0  0  0  0  0
  185.7990  178.3780  146.8650 C   0  0  0  0  0  3  0  0  0  0  0  0
  180.4660  181.2530  139.7280 C   0  0  0  0  0  2  0  0  0  0  0  0
  182.6250  179.6590  138.8570 N   0  0  1  0  0  0  0  0  0  0  0  0
  184.5550  178.5560  146.2420 C   0  0  0  0  0  3  0  0  0  0  0  0
  180.3880  179.7520  139.9880 C   0  0  0  0  0  2  0  0  0  0  0  0
  180.4820  181.5930  138.2560 C   0  0  0  0  0  0  0  0  0  0  0  0
  188.0160  178.0200  141.0480 C   0  0  0  0  0  3  0  0  0  0  0  0
  186.6940  178.2540  141.1100 C   0  0  0  0  0  0  0  0  0  0  0  0
  186.7800  178.2590  143.4570 N   0  0  0  0  0  0  0  0  0  0  0  0
  182.4770  179.2470  141.2570 C   0  0  0  0  0  2  0  0  0  0  0  0
  182.5600  178.4990  143.9690 C   0  0  0  0  0  1  0  0  0  0  0  0
  188.1870  178.0500  146.1890 C   0  0  0  0  0  1  0  0  0  0  0  0
  184.6380  178.5870  142.4380 C   0  0  0  0  0  0  0  0  0  0  0  0
  186.1770  178.3780  144.7440 C   0  0  0  0  0  0  0  0  0  0  0  0
  179.7840  182.8410  137.8190 C   0  0  0  0  0  2  0  0  0  0  0  0
  180.5280  183.5110  136.6750 C   0  0  2  0  0  3  0  0  0  0  0  0
  181.4060  184.5360  137.2080 N   0  0  0  0  0  1  0  0  0  0  0  0
  179.6190  184.0950  135.7930 O   0  0  0  0  0  1  0  0  0  0  0  0
  1 10  1  0  0  0  0
  1 20  2  0  0  0  0
  2 24  1  0  0  0  0
  2 27  2  0  0  0  0
  3  4  2  0  0  0  0
  4 21  1  0  0  0  0
  5 25  1  0  0  0  0
  5  6  1  0  0  0  0
  6 18  1  0  0  0  0
  7 19  1  1  0  0  0
  7 24  1  0  0  0  0
  8 17  1  0  0  0  0
  8 12  1  0  0  0  0
  9 26  1  0  0  0  0
  9 15  1  0  0  0  0
 11  3  1  0  0  0  0
 11 13  1  0  0  0  0
 12  2  1  0  0  0  0
 13 12  2  0  0  0  0
 13 22  1  0  0  0  0
 14 27  1  0  0  0  0
 14 23  2  0  0  0  0
 16 19  1  0  0  0  0
 17 10  1  6  0  0  0
 17  7  1  0  0  0  0
 18 15  2  0  0  0  0
 20 16  1  0  0  0  0
 21 22  2  0  0  0  0
 22 14  1  0  0  0  0
 23 28  1  0  0  0  0
 27  5  1  0  0  0  0
 28  6  2  0  0  0  0
 28  9  1  0  0  0  0
 29 20  1  0  0  0  0
 30 32  1  6  0  0  0
 30 31  1  0  0  0  0
 30 29  1  0  0  0  0
M  END
>  <MODEL>
9

>  <REMARK>
 VINA RESULT:      -7.9      4.675      7.561
  Name = 
  2 active torsions:
  status: ('A' for Active; 'I' for Inactive)
    1  A    between atoms: C_1  and  C_10
    2  A    between atoms: C_10  and  C_24
                            x       y       z     vdW  Elec       q    Type
                         _______ _______ _______ _____ _____    ______ ____

>  <TORSDO>
F 2

$$$$
