=
 OpenBabel10262422043D

 43 49  0  0  1  0  0  0  0  0999 V2000
  187.8460  177.4650  146.7620 C   0  0  0  0  0  0  0  0  0  0  0  0
  185.9160  178.6450  142.2270 C   0  0  0  0  0  0  0  0  0  0  0  0
  187.9220  178.1080  140.3280 C   0  0  0  0  0  0  0  0  0  0  0  0
  186.3970  178.2010  144.9630 C   0  0  0  0  0  0  0  0  0  0  0  0
  188.8640  177.2000  145.8430 C   0  0  0  0  0  3  0  0  0  0  0  0
  188.1120  177.1670  148.4680 Cl  0  0  0  0  0  0  0  0  0  0  0  0
  187.4220  177.9320  144.0220 C   0  0  0  0  0  0  0  0  0  0  0  0
  186.6160  177.9670  146.3230 C   0  0  0  0  0  3  0  0  0  0  0  0
  188.6550  177.4320  144.4800 C   0  0  0  0  0  3  0  0  0  0  0  0
  188.1740  177.9080  141.6900 C   0  0  0  0  0  3  0  0  0  0  0  0
  187.1830  178.1590  142.6500 C   0  0  0  0  0  0  0  0  0  0  0  0
  184.9240  178.9120  143.1790 C   0  0  0  0  0  3  0  0  0  0  0  0
  185.6620  178.8540  140.8570 C   0  0  0  0  0  0  0  0  0  0  0  0
  186.6710  178.5810  139.9220 C   0  0  0  0  0  3  0  0  0  0  0  0
  185.1630  178.6940  144.5360 C   0  0  0  0  0  3  0  0  0  0  0  0
  184.3880  179.3550  140.4250 N   0  0  0  0  0  2  0  0  0  0  0  0
  181.6080  178.5270  141.2910 C   0  0  0  0  0  2  0  0  0  0  0  0
  180.8410  179.5080  140.4030 C   0  0  1  0  0  0  0  0  0  0  0  0
  179.4960  179.1390  140.2410 O   0  0  0  0  0  0  0  0  0  0  0  0
  182.6550  179.5510  138.7350 C   0  0  0  0  0  3  0  0  0  0  0  0
  182.5710  177.6960  140.4390 C   0  0  0  0  0  2  0  0  0  0  0  0
  183.4700  178.6000  139.5790 C   0  0  2  0  0  3  0  0  0  0  0  0
  179.7530  180.2990  141.0030 C   0  0  0  0  0  2  0  0  0  0  0  0
  181.4480  179.9940  139.1210 C   0  0  0  0  0  3  0  0  0  0  0  0
  188.9790  177.8560  139.2860 C   0  0  1  0  0  3  0  0  0  0  0  0
  189.0030  179.0030  138.2800 C   0  0  0  0  0  2  0  0  0  0  0  0
  189.2230  178.4640  136.8780 C   0  0  0  0  0  1  0  0  0  0  0  0
  190.2980  177.6970  139.8910 N   0  0  0  0  0  2  0  0  0  0  0  0
  190.6900  176.3050  139.7240 C   0  0  0  0  0  2  0  0  0  0  0  0
  191.4570  176.1590  138.4220 C   0  0  0  0  0  2  0  0  0  0  0  0
  191.3480  174.7940  137.9290 N   0  0  0  0  0  0  0  0  0  0  0  0
  191.3360  174.2060  135.5700 C   0  0  0  0  0  2  0  0  0  0  0  0
  192.6870  174.3890  137.5200 C   0  0  0  0  0  2  0  0  0  0  0  0
  190.5430  174.8380  136.7080 C   0  0  1  0  0  3  0  0  0  0  0  0
  192.5610  173.6220  136.2220 C   0  0  0  0  0  2  0  0  0  0  0  0
  189.2010  174.1350  136.9330 C   0  0  2  0  0  3  0  0  0  0  0  0
  189.1700  172.8910  136.2890 O   0  0  0  0  0  1  0  0  0  0  0  0
  188.0980  174.9770  136.4800 N   0  0  0  0  0  0  0  0  0  0  0  0
  186.0630  177.5520  136.7760 F   0  0  0  0  0  0  0  0  0  0  0  0
  186.8770  176.1960  135.0330 C   0  0  0  0  0  3  0  0  0  0  0  0
  186.1230  176.2450  136.3260 C   0  0  1  0  0  3  0  0  0  0  0  0
  187.9750  175.4780  135.1630 C   0  0  0  0  0  3  0  0  0  0  0  0
  186.9740  175.4150  137.2860 C   0  0  0  0  0  2  0  0  0  0  0  0
  1  6  1  0  0  0  0
  2 11  1  0  0  0  0
  2 12  1  0  0  0  0
  3 10  1  0  0  0  0
  4  8  2  0  0  0  0
  5  1  2  0  0  0  0
  7  9  2  0  0  0  0
  7  4  1  0  0  0  0
  8  1  1  0  0  0  0
  9  5  1  0  0  0  0
 10 11  2  0  0  0  0
 11  7  1  0  0  0  0
 12 15  2  0  0  0  0
 13  2  2  0  0  0  0
 14  3  2  0  0  0  0
 14 13  1  0  0  0  0
 15  4  1  0  0  0  0
 16 13  1  0  0  0  0
 18 24  1  6  0  0  0
 18 23  1  0  0  0  0
 18 17  1  0  0  0  0
 19 18  1  0  0  0  0
 19 23  1  0  0  0  0
 20 24  2  0  0  0  0
 20 22  1  0  0  0  0
 21 17  1  0  0  0  0
 22 16  1  1  0  0  0
 22 21  1  0  0  0  0
 25 26  1  6  0  0  0
 25 28  1  0  0  0  0
 25  3  1  0  0  0  0
 27 26  1  0  0  0  0
 29 28  1  0  0  0  0
 30 29  1  0  0  0  0
 31 30  1  0  0  0  0
 32 35  1  0  0  0  0
 32 34  1  0  0  0  0
 33 31  1  0  0  0  0
 34 36  1  1  0  0  0
 34 31  1  0  0  0  0
 35 33  1  0  0  0  0
 36 37  1  6  0  0  0
 38 36  1  0  0  0  0
 38 43  1  0  0  0  0
 40 42  2  0  0  0  0
 40 41  1  0  0  0  0
 41 39  1  1  0  0  0
 41 43  1  0  0  0  0
 42 38  1  0  0  0  0
M  END
>  <MODEL>
1

>  <REMARK>
 VINA RESULT:      -9.0      0.000      0.000
  Name = 
  10 active torsions:
  status: ('A' for Active; 'I' for Inactive)
    1  A    between atoms: N_1  and  C_34
    2  A    between atoms: N_1  and  C_35
    3  A    between atoms: C_2  and  N_6
    4  A    between atoms: C_2  and  C_7
    5  A    between atoms: C_2  and  C_13
    6  A    between atoms: C_3  and  N_4
    7  A    between atoms: C_3  and  C_12
    8  A    between atoms: N_6  and  C_12
    9  A    between atoms: N_11  and  C_14
   10  A    between atoms: C_14  and  C_22
                            x       y       z     vdW  Elec       q    Type
                         _______ _______ _______ _____ _____    ______ ____

>  <TORSDO>
F 10

$$$$
=
 OpenBabel10262422043D

 43 49  0  0  1  0  0  0  0  0999 V2000
  191.2050  176.5250  146.7780 C   0  0  0  0  0  0  0  0  0  0  0  0
  189.1170  177.5790  142.2820 C   0  0  0  0  0  0  0  0  0  0  0  0
  186.4100  178.1730  142.7650 C   0  0  0  0  0  0  0  0  0  0  0  0
  190.8200  176.8900  144.4120 C   0  0  0  0  0  0  0  0  0  0  0  0
  189.8620  176.8040  147.0460 C   0  0  0  0  0  3  0  0  0  0  0  0
  192.2910  176.1240  148.0930 Cl  0  0  0  0  0  0  0  0  0  0  0  0
  189.4580  177.1790  144.6740 C   0  0  0  0  0  0  0  0  0  0  0  0
  191.6820  176.5660  145.4640 C   0  0  0  0  0  3  0  0  0  0  0  0
  188.9930  177.1290  146.0010 C   0  0  0  0  0  3  0  0  0  0  0  0
  187.2480  177.8070  143.8250 C   0  0  0  0  0  3  0  0  0  0  0  0
  188.6020  177.5190  143.6050 C   0  0  0  0  0  0  0  0  0  0  0  0
  190.4660  177.2790  142.0500 C   0  0  0  0  0  3  0  0  0  0  0  0
  188.2750  177.9390  141.2120 C   0  0  0  0  0  0  0  0  0  0  0  0
  186.9270  178.2330  141.4680 C   0  0  0  0  0  3  0  0  0  0  0  0
  191.3100  176.9360  143.1060 C   0  0  0  0  0  3  0  0  0  0  0  0
  188.7870  177.9900  139.8720 N   0  0  0  0  0  2  0  0  0  0  0  0
  189.8040  177.8250  137.0250 C   0  0  0  0  0  2  0  0  0  0  0  0
  189.0710  176.5390  136.6450 C   0  0  1  0  0  0  0  0  0  0  0  0
  188.9890  176.3650  135.2530 O   0  0  0  0  0  0  0  0  0  0  0  0
  187.2690  176.9810  138.2660 C   0  0  0  0  0  3  0  0  0  0  0  0
  188.8060  178.8530  137.5680 C   0  0  0  0  0  2  0  0  0  0  0  0
  187.9570  178.2530  138.7010 C   0  0  2  0  0  3  0  0  0  0  0  0
  189.8250  175.4750  135.9610 C   0  0  0  0  0  2  0  0  0  0  0  0
  187.7900  176.1710  137.3320 C   0  0  0  0  0  3  0  0  0  0  0  0
  184.9500  178.4720  142.9820 C   0  0  1  0  0  3  0  0  0  0  0  0
  184.7790  179.3830  144.1940 C   0  0  0  0  0  2  0  0  0  0  0  0
  183.5280  179.0000  144.9620 C   0  0  0  0  0  1  0  0  0  0  0  0
  184.3520  179.0930  141.8040 N   0  0  0  0  0  2  0  0  0  0  0  0
  183.2130  178.2770  141.4110 C   0  0  0  0  0  2  0  0  0  0  0  0
  183.4260  177.7780  139.9920 C   0  0  0  0  0  2  0  0  0  0  0  0
  182.1430  177.5010  139.3630 N   0  0  0  0  0  0  0  0  0  0  0  0
  180.7810  175.5530  139.8740 C   0  0  0  0  0  2  0  0  0  0  0  0
  181.1160  177.8630  140.3320 C   0  0  0  0  0  2  0  0  0  0  0  0
  182.0500  176.0510  139.1920 C   0  0  1  0  0  3  0  0  0  0  0  0
  180.0420  176.7980  140.2870 C   0  0  0  0  0  2  0  0  0  0  0  0
  182.0820  175.6910  137.7030 C   0  0  2  0  0  3  0  0  0  0  0  0
  180.7970  175.3970  137.2290 O   0  0  0  0  0  1  0  0  0  0  0  0
  182.9880  174.5710  137.4650 N   0  0  0  0  0  0  0  0  0  0  0  0
  185.5230  172.6270  138.2750 F   0  0  0  0  0  0  0  0  0  0  0  0
  183.5920  172.4660  136.9390 C   0  0  0  0  0  3  0  0  0  0  0  0
  184.8750  173.1950  137.1920 C   0  0  1  0  0  3  0  0  0  0  0  0
  182.5600  173.2720  137.1040 C   0  0  0  0  0  3  0  0  0  0  0  0
  184.4360  174.6140  137.5490 C   0  0  0  0  0  2  0  0  0  0  0  0
  1  5  1  0  0  0  0
  1  6  1  0  0  0  0
  2 11  1  0  0  0  0
  3 25  1  0  0  0  0
  3 10  1  0  0  0  0
  4  7  2  0  0  0  0
  4  8  1  0  0  0  0
  7  9  1  0  0  0  0
  8  1  2  0  0  0  0
  9  5  2  0  0  0  0
 11 10  2  0  0  0  0
 11  7  1  0  0  0  0
 12  2  1  0  0  0  0
 12 15  2  0  0  0  0
 13 14  1  0  0  0  0
 13  2  2  0  0  0  0
 14  3  2  0  0  0  0
 15  4  1  0  0  0  0
 16 13  1  0  0  0  0
 17 21  1  0  0  0  0
 18 23  1  1  0  0  0
 18 17  1  0  0  0  0
 18 24  1  0  0  0  0
 19 23  1  0  0  0  0
 19 18  1  0  0  0  0
 20 22  1  0  0  0  0
 21 22  1  0  0  0  0
 22 16  1  1  0  0  0
 24 20  2  0  0  0  0
 25 26  1  1  0  0  0
 26 27  1  0  0  0  0
 28 25  1  0  0  0  0
 29 28  1  0  0  0  0
 30 29  1  0  0  0  0
 31 30  1  0  0  0  0
 31 33  1  0  0  0  0
 32 35  1  0  0  0  0
 34 36  1  6  0  0  0
 34 31  1  0  0  0  0
 34 32  1  0  0  0  0
 35 33  1  0  0  0  0
 36 37  1  1  0  0  0
 38 43  1  0  0  0  0
 38 36  1  0  0  0  0
 40 42  2  0  0  0  0
 40 41  1  0  0  0  0
 41 43  1  0  0  0  0
 41 39  1  1  0  0  0
 42 38  1  0  0  0  0
M  END
>  <MODEL>
2

>  <REMARK>
 VINA RESULT:      -9.0      2.544      6.990
  Name = 
  10 active torsions:
  status: ('A' for Active; 'I' for Inactive)
    1  A    between atoms: N_1  and  C_34
    2  A    between atoms: N_1  and  C_35
    3  A    between atoms: C_2  and  N_6
    4  A    between atoms: C_2  and  C_7
    5  A    between atoms: C_2  and  C_13
    6  A    between atoms: C_3  and  N_4
    7  A    between atoms: C_3  and  C_12
    8  A    between atoms: N_6  and  C_12
    9  A    between atoms: N_11  and  C_14
   10  A    between atoms: C_14  and  C_22
                            x       y       z     vdW  Elec       q    Type
                         _______ _______ _______ _____ _____    ______ ____

>  <TORSDO>
F 10

$$$$
=
 OpenBabel10262422043D

 43 49  0  0  1  0  0  0  0  0999 V2000
  187.5940  177.6640  147.5140 C   0  0  0  0  0  0  0  0  0  0  0  0
  186.4150  178.5600  142.6670 C   0  0  0  0  0  0  0  0  0  0  0  0
  188.6400  177.7780  141.1330 C   0  0  0  0  0  0  0  0  0  0  0  0
  186.4670  178.3180  145.4690 C   0  0  0  0  0  0  0  0  0  0  0  0
  188.7180  177.2780  146.7780 C   0  0  0  0  0  3  0  0  0  0  0  0
  187.5920  177.4930  149.2570 Cl  0  0  0  0  0  0  0  0  0  0  0  0
  187.6000  177.9260  144.7140 C   0  0  0  0  0  0  0  0  0  0  0  0
  186.4720  178.1840  146.8600 C   0  0  0  0  0  3  0  0  0  0  0  0
  188.7220  177.4090  145.3870 C   0  0  0  0  0  3  0  0  0  0  0  0
  188.6800  177.6790  142.5290 C   0  0  0  0  0  3  0  0  0  0  0  0
  187.5760  178.0520  143.3080 C   0  0  0  0  0  0  0  0  0  0  0  0
  185.3110  178.9490  143.4380 C   0  0  0  0  0  3  0  0  0  0  0  0
  186.3740  178.6680  141.2630 C   0  0  0  0  0  0  0  0  0  0  0  0
  187.4910  178.2750  140.5120 C   0  0  0  0  0  3  0  0  0  0  0  0
  185.3380  178.8310  144.8280 C   0  0  0  0  0  3  0  0  0  0  0  0
  185.2080  179.1910  140.6100 N   0  0  0  0  0  2  0  0  0  0  0  0
  182.3470  178.3280  141.0970 C   0  0  0  0  0  2  0  0  0  0  0  0
  181.6930  179.3080  140.1230 C   0  0  1  0  0  0  0  0  0  0  0  0
  180.3850  178.9280  139.7820 O   0  0  0  0  0  0  0  0  0  0  0  0
  183.7090  179.3850  138.7080 C   0  0  0  0  0  3  0  0  0  0  0  0
  183.4230  177.5140  140.3720 C   0  0  0  0  0  2  0  0  0  0  0  0
  184.4170  178.4350  139.6450 C   0  0  2  0  0  3  0  0  0  0  0  0
  180.5270  180.0830  140.5800 C   0  0  0  0  0  2  0  0  0  0  0  0
  182.4580  179.8120  138.9350 C   0  0  0  0  0  3  0  0  0  0  0  0
  189.8220  177.3940  140.2820 C   0  0  1  0  0  3  0  0  0  0  0  0
  191.0540  177.1990  141.1590 C   0  0  0  0  0  2  0  0  0  0  0  0
  192.3080  177.5710  140.3890 C   0  0  0  0  0  1  0  0  0  0  0  0
  189.5570  176.1800  139.5180 N   0  0  0  0  0  2  0  0  0  0  0  0
  189.9860  176.4230  138.1480 C   0  0  0  0  0  2  0  0  0  0  0  0
  189.0470  175.7000  137.1980 C   0  0  0  0  0  2  0  0  0  0  0  0
  188.4270  176.6520  136.2890 N   0  0  0  0  0  0  0  0  0  0  0  0
  186.9580  178.4500  137.0110 C   0  0  0  0  0  2  0  0  0  0  0  0
  189.1880  177.8910  136.3990 C   0  0  0  0  0  2  0  0  0  0  0  0
  187.0920  176.9440  136.8130 C   0  0  1  0  0  3  0  0  0  0  0  0
  188.2020  179.0390  136.4030 C   0  0  0  0  0  2  0  0  0  0  0  0
  186.0210  176.3910  135.8700 C   0  0  2  0  0  3  0  0  0  0  0  0
  185.1360  177.3990  135.4660 O   0  0  0  0  0  1  0  0  0  0  0  0
  185.2970  175.2930  136.5030 N   0  0  0  0  0  0  0  0  0  0  0  0
  185.1200  172.6120  138.4120 F   0  0  0  0  0  0  0  0  0  0  0  0
  183.6490  174.2930  137.6690 C   0  0  0  0  0  3  0  0  0  0  0  0
  184.5820  173.1900  137.2750 C   0  0  1  0  0  3  0  0  0  0  0  0
  184.0860  175.4530  137.2180 C   0  0  0  0  0  3  0  0  0  0  0  0
  185.6870  173.8960  136.4910 C   0  0  0  0  0  2  0  0  0  0  0  0
  1  6  1  0  0  0  0
  2 11  1  0  0  0  0
  2 12  1  0  0  0  0
  3 10  1  0  0  0  0
  4  8  2  0  0  0  0
  5  1  2  0  0  0  0
  7  9  2  0  0  0  0
  7  4  1  0  0  0  0
  8  1  1  0  0  0  0
  9  5  1  0  0  0  0
 10 11  2  0  0  0  0
 11  7  1  0  0  0  0
 12 15  2  0  0  0  0
 13  2  2  0  0  0  0
 14  3  2  0  0  0  0
 14 13  1  0  0  0  0
 15  4  1  0  0  0  0
 16 13  1  0  0  0  0
 18 24  1  6  0  0  0
 18 23  1  0  0  0  0
 18 17  1  0  0  0  0
 19 18  1  0  0  0  0
 19 23  1  0  0  0  0
 20 24  2  0  0  0  0
 20 22  1  0  0  0  0
 21 17  1  0  0  0  0
 22 21  1  0  0  0  0
 22 16  1  1  0  0  0
 25  3  1  0  0  0  0
 25 26  1  1  0  0  0
 27 26  1  0  0  0  0
 28 25  1  0  0  0  0
 29 28  1  0  0  0  0
 30 29  1  0  0  0  0
 31 33  1  0  0  0  0
 31 34  1  0  0  0  0
 31 30  1  0  0  0  0
 33 35  1  0  0  0  0
 34 36  1  6  0  0  0
 34 32  1  0  0  0  0
 35 32  1  0  0  0  0
 36 37  1  1  0  0  0
 36 38  1  0  0  0  0
 38 42  1  0  0  0  0
 41 40  1  0  0  0  0
 41 39  1  1  0  0  0
 42 40  2  0  0  0  0
 43 38  1  0  0  0  0
 43 41  1  0  0  0  0
M  END
>  <MODEL>
3

>  <REMARK>
 VINA RESULT:      -8.9      1.925      2.907
  Name = 
  10 active torsions:
  status: ('A' for Active; 'I' for Inactive)
    1  A    between atoms: N_1  and  C_34
    2  A    between atoms: N_1  and  C_35
    3  A    between atoms: C_2  and  N_6
    4  A    between atoms: C_2  and  C_7
    5  A    between atoms: C_2  and  C_13
    6  A    between atoms: C_3  and  N_4
    7  A    between atoms: C_3  and  C_12
    8  A    between atoms: N_6  and  C_12
    9  A    between atoms: N_11  and  C_14
   10  A    between atoms: C_14  and  C_22
                            x       y       z     vdW  Elec       q    Type
                         _______ _______ _______ _____ _____    ______ ____

>  <TORSDO>
F 10

$$$$
=
 OpenBabel10262422043D

 43 49  0  0  1  0  0  0  0  0999 V2000
  181.5620  179.0420  143.5720 C   0  0  0  0  0  0  0  0  0  0  0  0
  186.4930  177.8920  143.7860 C   0  0  0  0  0  0  0  0  0  0  0  0
  187.5010  178.1520  141.1720 C   0  0  0  0  0  0  0  0  0  0  0  0
  183.7750  178.3880  144.3150 C   0  0  0  0  0  0  0  0  0  0  0  0
  182.0320  179.1680  142.2620 C   0  0  0  0  0  3  0  0  0  0  0  0
  179.8800  179.3760  143.9310 Cl  0  0  0  0  0  0  0  0  0  0  0  0
  184.2630  178.5170  142.9910 C   0  0  0  0  0  0  0  0  0  0  0  0
  182.4320  178.6510  144.5960 C   0  0  0  0  0  3  0  0  0  0  0  0
  183.3740  178.9070  141.9720 C   0  0  0  0  0  3  0  0  0  0  0  0
  186.1420  178.3760  141.4260 C   0  0  0  0  0  3  0  0  0  0  0  0
  185.6250  178.2630  142.7240 C   0  0  0  0  0  0  0  0  0  0  0  0
  185.9830  177.7620  145.0840 C   0  0  0  0  0  3  0  0  0  0  0  0
  187.8590  177.6580  143.5320 C   0  0  0  0  0  0  0  0  0  0  0  0
  188.3470  177.7920  142.2240 C   0  0  0  0  0  3  0  0  0  0  0  0
  184.6350  178.0060  145.3470 C   0  0  0  0  0  3  0  0  0  0  0  0
  188.7380  177.2720  144.5990 N   0  0  0  0  0  2  0  0  0  0  0  0
  189.8820  176.7560  147.3540 C   0  0  0  0  0  2  0  0  0  0  0  0
  191.3220  176.4980  146.9080 C   0  0  1  0  0  0  0  0  0  0  0  0
  192.2360  176.6140  147.9670 O   0  0  0  0  0  0  0  0  0  0  0  0
  191.0550  177.9290  144.9190 C   0  0  0  0  0  3  0  0  0  0  0  0
  189.4040  178.1070  146.8150 C   0  0  0  0  0  2  0  0  0  0  0  0
  189.6180  178.2040  145.2960 C   0  0  2  0  0  3  0  0  0  0  0  0
  192.0250  175.3200  147.4440 C   0  0  0  0  0  2  0  0  0  0  0  0
  191.8420  177.1220  145.6470 C   0  0  0  0  0  3  0  0  0  0  0  0
  188.0690  178.2560  139.7810 C   0  0  1  0  0  3  0  0  0  0  0  0
  189.0300  177.0990  139.5230 C   0  0  0  0  0  2  0  0  0  0  0  0
  190.4630  177.5980  139.5340 C   0  0  0  0  0  1  0  0  0  0  0  0
  187.0150  178.2620  138.7730 N   0  0  0  0  0  2  0  0  0  0  0  0
  187.6420  178.0070  137.4840 C   0  0  0  0  0  2  0  0  0  0  0  0
  186.6930  177.1900  136.6240 C   0  0  0  0  0  2  0  0  0  0  0  0
  186.4860  175.8770  137.2180 N   0  0  0  0  0  0  0  0  0  0  0  0
  185.7180  173.9370  135.9700 C   0  0  0  0  0  2  0  0  0  0  0  0
  187.6300  175.0600  136.8320 C   0  0  0  0  0  2  0  0  0  0  0  0
  185.3200  175.2850  136.5610 C   0  0  1  0  0  3  0  0  0  0  0  0
  187.1140  173.6840  136.4730 C   0  0  0  0  0  2  0  0  0  0  0  0
  184.1610  175.1580  137.5540 C   0  0  2  0  0  3  0  0  0  0  0  0
  183.2990  174.1160  137.1900 O   0  0  0  0  0  1  0  0  0  0  0  0
  183.4330  176.4190  137.6560 N   0  0  0  0  0  0  0  0  0  0  0  0
  183.0990  179.5390  138.6610 F   0  0  0  0  0  0  0  0  0  0  0  0
  182.2340  178.1860  136.9410 C   0  0  0  0  0  3  0  0  0  0  0  0
  182.3840  178.3810  138.4190 C   0  0  1  0  0  3  0  0  0  0  0  0
  182.8360  177.0780  136.5560 C   0  0  0  0  0  3  0  0  0  0  0  0
  183.2010  177.1720  138.8740 C   0  0  0  0  0  2  0  0  0  0  0  0
  1  6  1  0  0  0  0
  1  8  1  0  0  0  0
  2 12  1  0  0  0  0
  3 10  2  0  0  0  0
  3 14  1  0  0  0  0
  4  8  2  0  0  0  0
  4 15  1  0  0  0  0
  5  1  2  0  0  0  0
  7  4  1  0  0  0  0
  9  5  1  0  0  0  0
  9  7  2  0  0  0  0
 10 11  1  0  0  0  0
 11  7  1  0  0  0  0
 11  2  2  0  0  0  0
 12 15  2  0  0  0  0
 13  2  1  0  0  0  0
 13 16  1  0  0  0  0
 14 13  2  0  0  0  0
 18 24  1  6  0  0  0
 18 17  1  0  0  0  0
 18 23  1  0  0  0  0
 18 19  1  0  0  0  0
 20 22  1  0  0  0  0
 20 24  2  0  0  0  0
 21 17  1  0  0  0  0
 22 16  1  6  0  0  0
 22 21  1  0  0  0  0
 23 19  1  0  0  0  0
 25 26  1  6  0  0  0
 25  3  1  0  0  0  0
 26 27  1  0  0  0  0
 28 25  1  0  0  0  0
 29 28  1  0  0  0  0
 30 31  1  0  0  0  0
 30 29  1  0  0  0  0
 32 35  1  0  0  0  0
 32 34  1  0  0  0  0
 33 31  1  0  0  0  0
 34 31  1  0  0  0  0
 34 36  1  1  0  0  0
 35 33  1  0  0  0  0
 36 37  1  6  0  0  0
 36 38  1  0  0  0  0
 38 43  1  0  0  0  0
 40 41  1  0  0  0  0
 41 39  1  6  0  0  0
 41 43  1  0  0  0  0
 42 40  2  0  0  0  0
 42 38  1  0  0  0  0
M  END
>  <MODEL>
4

>  <REMARK>
 VINA RESULT:      -8.7      3.344      6.700
  Name = 
  10 active torsions:
  status: ('A' for Active; 'I' for Inactive)
    1  A    between atoms: N_1  and  C_34
    2  A    between atoms: N_1  and  C_35
    3  A    between atoms: C_2  and  N_6
    4  A    between atoms: C_2  and  C_7
    5  A    between atoms: C_2  and  C_13
    6  A    between atoms: C_3  and  N_4
    7  A    between atoms: C_3  and  C_12
    8  A    between atoms: N_6  and  C_12
    9  A    between atoms: N_11  and  C_14
   10  A    between atoms: C_14  and  C_22
                            x       y       z     vdW  Elec       q    Type
                         _______ _______ _______ _____ _____    ______ ____

>  <TORSDO>
F 10

$$$$
=
 OpenBabel10262422043D

 43 49  0  0  1  0  0  0  0  0999 V2000
  190.2770  177.2100  138.3180 C   0  0  0  0  0  0  0  0  0  0  0  0
  185.4920  178.5080  139.3690 C   0  0  0  0  0  0  0  0  0  0  0  0
  185.3690  178.9800  142.1400 C   0  0  0  0  0  0  0  0  0  0  0  0
  187.9130  177.7280  138.1680 C   0  0  0  0  0  0  0  0  0  0  0  0
  190.2430  177.4260  139.6990 C   0  0  0  0  0  3  0  0  0  0  0  0
  191.7800  176.7530  137.5440 Cl  0  0  0  0  0  0  0  0  0  0  0  0
  187.8690  177.9530  139.5660 C   0  0  0  0  0  0  0  0  0  0  0  0
  189.1130  177.3580  137.5550 C   0  0  0  0  0  3  0  0  0  0  0  0
  189.0460  177.7950  140.3200 C   0  0  0  0  0  3  0  0  0  0  0  0
  186.5710  178.5680  141.5510 C   0  0  0  0  0  3  0  0  0  0  0  0
  186.6530  178.3400  140.1700 C   0  0  0  0  0  0  0  0  0  0  0  0
  185.5610  178.2700  137.9900 C   0  0  0  0  0  3  0  0  0  0  0  0
  184.2800  178.9160  139.9600 C   0  0  0  0  0  0  0  0  0  0  0  0
  184.2340  179.1470  141.3430 C   0  0  0  0  0  3  0  0  0  0  0  0
  186.7610  177.8800  137.3950 C   0  0  0  0  0  3  0  0  0  0  0  0
  183.1010  179.0770  139.1580 N   0  0  0  0  0  2  0  0  0  0  0  0
  182.1460  177.3060  136.8950 C   0  0  0  0  0  2  0  0  0  0  0  0
  182.5800  175.9750  137.5110 C   0  0  1  0  0  0  0  0  0  0  0  0
  181.9370  174.8780  136.9140 O   0  0  0  0  0  0  0  0  0  0  0  0
  182.3490  176.8570  139.8000 C   0  0  0  0  0  3  0  0  0  0  0  0
  181.2550  178.0690  137.8800 C   0  0  0  0  0  2  0  0  0  0  0  0
  181.9350  178.2030  139.2520 C   0  0  2  0  0  3  0  0  0  0  0  0
  183.3200  175.0190  136.6700 C   0  0  0  0  0  2  0  0  0  0  0  0
  182.6720  175.8290  139.0000 C   0  0  0  0  0  3  0  0  0  0  0  0
  185.2600  179.2160  143.6240 C   0  0  1  0  0  3  0  0  0  0  0  0
  183.8750  179.7580  143.9640 C   0  0  0  0  0  2  0  0  0  0  0  0
  182.9690  178.6280  144.4180 C   0  0  0  0  0  1  0  0  0  0  0  0
  185.5160  177.9930  144.3780 N   0  0  0  0  0  2  0  0  0  0  0  0
  186.2230  178.3700  145.5930 C   0  0  0  0  0  2  0  0  0  0  0  0
  187.6990  178.0560  145.4260 C   0  0  0  0  0  2  0  0  0  0  0  0
  188.1820  177.3030  146.5740 N   0  0  0  0  0  0  0  0  0  0  0  0
  189.4070  178.2970  148.4230 C   0  0  0  0  0  2  0  0  0  0  0  0
  187.2660  177.5830  147.6730 C   0  0  0  0  0  2  0  0  0  0  0  0
  189.4710  177.8800  146.9590 C   0  0  1  0  0  3  0  0  0  0  0  0
  188.0920  177.7670  148.9270 C   0  0  0  0  0  2  0  0  0  0  0  0
  190.5990  176.8790  146.6940 C   0  0  2  0  0  3  0  0  0  0  0  0
  191.6660  177.0770  147.5810 O   0  0  0  0  0  1  0  0  0  0  0  0
  191.0540  176.9720  145.3110 N   0  0  0  0  0  0  0  0  0  0  0  0
  191.0810  176.0010  142.1620 F   0  0  0  0  0  0  0  0  0  0  0  0
  191.5650  177.9690  143.3570 C   0  0  0  0  0  3  0  0  0  0  0  0
  191.8880  176.5200  143.1580 C   0  0  1  0  0  3  0  0  0  0  0  0
  191.1010  178.1790  144.5740 C   0  0  0  0  0  3  0  0  0  0  0  0
  191.5280  175.8710  144.4940 C   0  0  0  0  0  2  0  0  0  0  0  0
  1  5  1  0  0  0  0
  2 13  2  0  0  0  0
  2 11  1  0  0  0  0
  3 25  1  0  0  0  0
  4  7  2  0  0  0  0
  5  9  2  0  0  0  0
  6  1  1  0  0  0  0
  7 11  1  0  0  0  0
  7  9  1  0  0  0  0
  8  4  1  0  0  0  0
  8  1  2  0  0  0  0
 10  3  1  0  0  0  0
 11 10  2  0  0  0  0
 12  2  1  0  0  0  0
 13 14  1  0  0  0  0
 14  3  2  0  0  0  0
 15 12  2  0  0  0  0
 15  4  1  0  0  0  0
 16 13  1  0  0  0  0
 17 18  1  0  0  0  0
 17 21  1  0  0  0  0
 18 23  1  6  0  0  0
 18 24  1  0  0  0  0
 19 18  1  0  0  0  0
 21 22  1  0  0  0  0
 22 16  1  6  0  0  0
 22 20  1  0  0  0  0
 23 19  1  0  0  0  0
 24 20  2  0  0  0  0
 25 26  1  6  0  0  0
 25 28  1  0  0  0  0
 26 27  1  0  0  0  0
 28 29  1  0  0  0  0
 30 29  1  0  0  0  0
 30 31  1  0  0  0  0
 31 34  1  0  0  0  0
 31 33  1  0  0  0  0
 32 35  1  0  0  0  0
 33 35  1  0  0  0  0
 34 36  1  1  0  0  0
 34 32  1  0  0  0  0
 36 37  1  1  0  0  0
 38 36  1  0  0  0  0
 40 42  2  0  0  0  0
 41 39  1  6  0  0  0
 41 40  1  0  0  0  0
 41 43  1  0  0  0  0
 42 38  1  0  0  0  0
 43 38  1  0  0  0  0
M  END
>  <MODEL>
5

>  <REMARK>
 VINA RESULT:      -8.6      3.781      7.731
  Name = 
  10 active torsions:
  status: ('A' for Active; 'I' for Inactive)
    1  A    between atoms: N_1  and  C_34
    2  A    between atoms: N_1  and  C_35
    3  A    between atoms: C_2  and  N_6
    4  A    between atoms: C_2  and  C_7
    5  A    between atoms: C_2  and  C_13
    6  A    between atoms: C_3  and  N_4
    7  A    between atoms: C_3  and  C_12
    8  A    between atoms: N_6  and  C_12
    9  A    between atoms: N_11  and  C_14
   10  A    between atoms: C_14  and  C_22
                            x       y       z     vdW  Elec       q    Type
                         _______ _______ _______ _____ _____    ______ ____

>  <TORSDO>
F 10

$$$$
=
 OpenBabel10262422043D

 43 49  0  0  1  0  0  0  0  0999 V2000
  181.4750  179.3120  143.1180 C   0  0  0  0  0  0  0  0  0  0  0  0
  186.3480  177.9430  143.3860 C   0  0  0  0  0  0  0  0  0  0  0  0
  187.3260  177.9060  140.7480 C   0  0  0  0  0  0  0  0  0  0  0  0
  183.6660  178.6210  143.8960 C   0  0  0  0  0  0  0  0  0  0  0  0
  181.9310  179.2910  141.7970 C   0  0  0  0  0  3  0  0  0  0  0  0
  179.8180  179.7610  143.4620 Cl  0  0  0  0  0  0  0  0  0  0  0  0
  184.1380  178.6010  142.5600 C   0  0  0  0  0  0  0  0  0  0  0  0
  182.3410  178.9760  144.1650 C   0  0  0  0  0  3  0  0  0  0  0  0
  183.2540  178.9370  141.5180 C   0  0  0  0  0  3  0  0  0  0  0  0
  185.9840  178.2200  140.9950 C   0  0  0  0  0  3  0  0  0  0  0  0
  185.4820  178.2550  142.3040 C   0  0  0  0  0  0  0  0  0  0  0  0
  185.8520  177.9620  144.6960 C   0  0  0  0  0  3  0  0  0  0  0  0
  187.6960  177.6190  143.1400 C   0  0  0  0  0  0  0  0  0  0  0  0
  188.1700  177.6050  141.8200 C   0  0  0  0  0  3  0  0  0  0  0  0
  184.5220  178.2960  144.9490 C   0  0  0  0  0  3  0  0  0  0  0  0
  188.5720  177.2910  144.2290 N   0  0  0  0  0  2  0  0  0  0  0  0
  189.7210  176.7640  146.9810 C   0  0  0  0  0  2  0  0  0  0  0  0
  191.1900  176.7310  146.5610 C   0  0  1  0  0  0  0  0  0  0  0  0
  192.0590  176.9030  147.6510 O   0  0  0  0  0  0  0  0  0  0  0  0
  190.7710  178.2340  144.6530 C   0  0  0  0  0  3  0  0  0  0  0  0
  189.0730  178.0700  146.5090 C   0  0  0  0  0  2  0  0  0  0  0  0
  189.3030  178.2890  145.0040 C   0  0  2  0  0  3  0  0  0  0  0  0
  192.0370  175.6280  147.0470 C   0  0  0  0  0  2  0  0  0  0  0  0
  191.6460  177.4960  145.3550 C   0  0  0  0  0  3  0  0  0  0  0  0
  187.8770  177.8500  139.3480 C   0  0  1  0  0  3  0  0  0  0  0  0
  186.8040  178.2700  138.3480 C   0  0  0  0  0  2  0  0  0  0  0  0
  187.4360  178.5930  137.0070 C   0  0  0  0  0  1  0  0  0  0  0  0
  189.0530  178.7030  139.2030 N   0  0  0  0  0  2  0  0  0  0  0  0
  190.1480  177.8620  138.7420 C   0  0  0  0  0  2  0  0  0  0  0  0
  189.7990  176.4070  139.0020 C   0  0  0  0  0  2  0  0  0  0  0  0
  190.8060  175.5390  138.4090 N   0  0  0  0  0  0  0  0  0  0  0  0
  191.5480  175.7120  136.1000 C   0  0  0  0  0  2  0  0  0  0  0  0
  192.0400  176.3110  138.3490 C   0  0  0  0  0  2  0  0  0  0  0  0
  190.4060  175.2980  137.0220 C   0  0  1  0  0  3  0  0  0  0  0  0
  192.6990  176.0260  137.0170 C   0  0  0  0  0  2  0  0  0  0  0  0
  190.0160  173.8300  136.8310 C   0  0  2  0  0  3  0  0  0  0  0  0
  190.5860  173.3060  135.6630 O   0  0  0  0  0  1  0  0  0  0  0  0
  188.5640  173.6830  136.8070 N   0  0  0  0  0  0  0  0  0  0  0  0
  185.7050  172.6110  138.0460 F   0  0  0  0  0  0  0  0  0  0  0  0
  186.4170  174.3300  136.6040 C   0  0  0  0  0  3  0  0  0  0  0  0
  186.3640  172.8540  136.8540 C   0  0  1  0  0  3  0  0  0  0  0  0
  187.6660  174.7530  136.5860 C   0  0  0  0  0  3  0  0  0  0  0  0
  187.8300  172.4450  136.9910 C   0  0  0  0  0  2  0  0  0  0  0  0
  1  6  1  0  0  0  0
  1  8  1  0  0  0  0
  2 12  1  0  0  0  0
  3 10  2  0  0  0  0
  3 14  1  0  0  0  0
  4  8  2  0  0  0  0
  4 15  1  0  0  0  0
  5  1  2  0  0  0  0
  7  4  1  0  0  0  0
  9  5  1  0  0  0  0
  9  7  2  0  0  0  0
 10 11  1  0  0  0  0
 11  7  1  0  0  0  0
 11  2  2  0  0  0  0
 12 15  2  0  0  0  0
 13  2  1  0  0  0  0
 13 16  1  0  0  0  0
 14 13  2  0  0  0  0
 18 24  1  6  0  0  0
 18 17  1  0  0  0  0
 18 23  1  0  0  0  0
 18 19  1  0  0  0  0
 20 22  1  0  0  0  0
 20 24  2  0  0  0  0
 21 17  1  0  0  0  0
 22 16  1  6  0  0  0
 22 21  1  0  0  0  0
 23 19  1  0  0  0  0
 25 26  1  6  0  0  0
 25  3  1  0  0  0  0
 27 26  1  0  0  0  0
 28 25  1  0  0  0  0
 29 30  1  0  0  0  0
 29 28  1  0  0  0  0
 31 30  1  0  0  0  0
 32 35  1  0  0  0  0
 32 34  1  0  0  0  0
 33 31  1  0  0  0  0
 34 36  1  1  0  0  0
 34 31  1  0  0  0  0
 35 33  1  0  0  0  0
 36 37  1  6  0  0  0
 38 36  1  0  0  0  0
 38 43  1  0  0  0  0
 40 41  1  0  0  0  0
 41 43  1  0  0  0  0
 41 39  1  1  0  0  0
 42 40  2  0  0  0  0
 42 38  1  0  0  0  0
M  END
>  <MODEL>
6

>  <REMARK>
 VINA RESULT:      -8.6      3.125      6.013
  Name = 
  10 active torsions:
  status: ('A' for Active; 'I' for Inactive)
    1  A    between atoms: N_1  and  C_34
    2  A    between atoms: N_1  and  C_35
    3  A    between atoms: C_2  and  N_6
    4  A    between atoms: C_2  and  C_7
    5  A    between atoms: C_2  and  C_13
    6  A    between atoms: C_3  and  N_4
    7  A    between atoms: C_3  and  C_12
    8  A    between atoms: N_6  and  C_12
    9  A    between atoms: N_11  and  C_14
   10  A    between atoms: C_14  and  C_22
                            x       y       z     vdW  Elec       q    Type
                         _______ _______ _______ _____ _____    ______ ____

>  <TORSDO>
F 10

$$$$
=
 OpenBabel10262422043D

 43 49  0  0  1  0  0  0  0  0999 V2000
  188.9200  177.8790  136.7220 C   0  0  0  0  0  0  0  0  0  0  0  0
  188.3750  177.5730  141.7510 C   0  0  0  0  0  0  0  0  0  0  0  0
  185.6980  178.2290  142.3190 C   0  0  0  0  0  0  0  0  0  0  0  0
  189.3060  177.5820  139.0970 C   0  0  0  0  0  0  0  0  0  0  0  0
  187.5880  178.2210  136.9750 C   0  0  0  0  0  3  0  0  0  0  0  0
  189.5130  177.8480  135.0740 Cl  0  0  0  0  0  0  0  0  0  0  0  0
  187.9570  177.9220  139.3640 C   0  0  0  0  0  0  0  0  0  0  0  0
  189.7770  177.5630  137.7810 C   0  0  0  0  0  3  0  0  0  0  0  0
  187.1090  178.2430  138.2880 C   0  0  0  0  0  3  0  0  0  0  0  0
  186.1630  178.2590  140.9980 C   0  0  0  0  0  3  0  0  0  0  0  0
  187.4910  177.9230  140.6960 C   0  0  0  0  0  0  0  0  0  0  0  0
  189.7070  177.2490  141.4600 C   0  0  0  0  0  3  0  0  0  0  0  0
  187.9120  177.5500  143.0810 C   0  0  0  0  0  0  0  0  0  0  0  0
  186.5750  177.8790  143.3490 C   0  0  0  0  0  3  0  0  0  0  0  0
  190.1690  177.2560  140.1440 C   0  0  0  0  0  3  0  0  0  0  0  0
  188.8030  177.2080  144.1530 N   0  0  0  0  0  2  0  0  0  0  0  0
  189.7490  176.6700  146.9790 C   0  0  0  0  0  2  0  0  0  0  0  0
  191.2440  176.6180  146.6630 C   0  0  1  0  0  0  0  0  0  0  0  0
  192.0360  176.7800  147.8120 O   0  0  0  0  0  0  0  0  0  0  0  0
  190.9790  178.1230  144.7300 C   0  0  0  0  0  3  0  0  0  0  0  0
  189.1520  177.9830  146.4620 C   0  0  0  0  0  2  0  0  0  0  0  0
  189.4900  178.1970  144.9770 C   0  0  2  0  0  3  0  0  0  0  0  0
  192.0400  175.5040  147.2080 C   0  0  0  0  0  2  0  0  0  0  0  0
  191.7920  177.3760  145.4920 C   0  0  0  0  0  3  0  0  0  0  0  0
  184.2800  178.6000  142.6620 C   0  0  1  0  0  3  0  0  0  0  0  0
  184.2660  179.5710  143.8400 C   0  0  0  0  0  2  0  0  0  0  0  0
  183.4450  178.9970  144.9800 C   0  0  0  0  0  1  0  0  0  0  0  0
  183.5920  179.1930  141.5200 N   0  0  0  0  0  2  0  0  0  0  0  0
  182.3710  178.4310  141.3030 C   0  0  0  0  0  2  0  0  0  0  0  0
  182.6120  177.4100  140.2050 C   0  0  0  0  0  2  0  0  0  0  0  0
  181.3530  177.0560  139.5670 N   0  0  0  0  0  0  0  0  0  0  0  0
  180.1520  174.9870  140.0030 C   0  0  0  0  0  2  0  0  0  0  0  0
  180.3040  177.2970  140.5500 C   0  0  0  0  0  2  0  0  0  0  0  0
  181.3750  175.6100  139.3390 C   0  0  1  0  0  3  0  0  0  0  0  0
  179.3190  176.1520  140.4650 C   0  0  0  0  0  2  0  0  0  0  0  0
  181.4290  175.3120  137.8380 C   0  0  2  0  0  3  0  0  0  0  0  0
  180.1960  174.8320  137.3760 O   0  0  0  0  0  1  0  0  0  0  0  0
  182.4960  174.3610  137.5420 N   0  0  0  0  0  0  0  0  0  0  0  0
  185.2760  172.7510  138.2770 F   0  0  0  0  0  0  0  0  0  0  0  0
  183.4170  172.4180  136.8710 C   0  0  0  0  0  3  0  0  0  0  0  0
  184.5730  173.3040  137.2220 C   0  0  1  0  0  3  0  0  0  0  0  0
  182.2740  173.0480  137.0650 C   0  0  0  0  0  3  0  0  0  0  0  0
  183.9190  174.6090  137.6750 C   0  0  0  0  0  2  0  0  0  0  0  0
  1  5  2  0  0  0  0
  1  8  1  0  0  0  0
  2 13  1  0  0  0  0
  3 25  1  0  0  0  0
  3 14  1  0  0  0  0
  4  7  1  0  0  0  0
  4 15  1  0  0  0  0
  5  9  1  0  0  0  0
  6  1  1  0  0  0  0
  7 11  1  0  0  0  0
  8  4  2  0  0  0  0
  9  7  2  0  0  0  0
 10  3  2  0  0  0  0
 11 10  1  0  0  0  0
 11  2  2  0  0  0  0
 12  2  1  0  0  0  0
 13 14  2  0  0  0  0
 13 16  1  0  0  0  0
 15 12  2  0  0  0  0
 18 24  1  6  0  0  0
 18 17  1  0  0  0  0
 18 23  1  0  0  0  0
 18 19  1  0  0  0  0
 20 22  1  0  0  0  0
 20 24  2  0  0  0  0
 21 17  1  0  0  0  0
 22 16  1  6  0  0  0
 22 21  1  0  0  0  0
 23 19  1  0  0  0  0
 25 26  1  1  0  0  0
 26 27  1  0  0  0  0
 28 25  1  0  0  0  0
 29 28  1  0  0  0  0
 30 29  1  0  0  0  0
 31 30  1  0  0  0  0
 31 33  1  0  0  0  0
 32 35  1  0  0  0  0
 34 36  1  6  0  0  0
 34 31  1  0  0  0  0
 34 32  1  0  0  0  0
 35 33  1  0  0  0  0
 36 37  1  1  0  0  0
 38 43  1  0  0  0  0
 38 36  1  0  0  0  0
 40 42  2  0  0  0  0
 40 41  1  0  0  0  0
 41 43  1  0  0  0  0
 41 39  1  1  0  0  0
 42 38  1  0  0  0  0
M  END
>  <MODEL>
7

>  <REMARK>
 VINA RESULT:      -8.5      3.865      8.662
  Name = 
  10 active torsions:
  status: ('A' for Active; 'I' for Inactive)
    1  A    between atoms: N_1  and  C_34
    2  A    between atoms: N_1  and  C_35
    3  A    between atoms: C_2  and  N_6
    4  A    between atoms: C_2  and  C_7
    5  A    between atoms: C_2  and  C_13
    6  A    between atoms: C_3  and  N_4
    7  A    between atoms: C_3  and  C_12
    8  A    between atoms: N_6  and  C_12
    9  A    between atoms: N_11  and  C_14
   10  A    between atoms: C_14  and  C_22
                            x       y       z     vdW  Elec       q    Type
                         _______ _______ _______ _____ _____    ______ ____

>  <TORSDO>
F 10

$$$$
=
 OpenBabel10262422043D

 43 49  0  0  1  0  0  0  0  0999 V2000
  187.7350  177.5370  147.0060 C   0  0  0  0  0  0  0  0  0  0  0  0
  185.7990  178.4640  142.4150 C   0  0  0  0  0  0  0  0  0  0  0  0
  187.9490  178.3950  140.6000 C   0  0  0  0  0  0  0  0  0  0  0  0
  186.2450  178.0330  145.1590 C   0  0  0  0  0  0  0  0  0  0  0  0
  188.8230  177.5090  146.1290 C   0  0  0  0  0  3  0  0  0  0  0  0
  187.9840  177.2410  148.7140 Cl  0  0  0  0  0  0  0  0  0  0  0  0
  187.3410  178.0020  144.2610 C   0  0  0  0  0  0  0  0  0  0  0  0
  186.4490  177.8010  146.5220 C   0  0  0  0  0  3  0  0  0  0  0  0
  188.6280  177.7400  144.7650 C   0  0  0  0  0  3  0  0  0  0  0  0
  188.1790  178.2040  141.9680 C   0  0  0  0  0  3  0  0  0  0  0  0
  187.1180  178.2230  142.8850 C   0  0  0  0  0  0  0  0  0  0  0  0
  184.7350  178.4980  143.3250 C   0  0  0  0  0  3  0  0  0  0  0  0
  185.5660  178.6630  141.0400 C   0  0  0  0  0  0  0  0  0  0  0  0
  186.6470  178.6260  140.1470 C   0  0  0  0  0  3  0  0  0  0  0  0
  184.9570  178.2870  144.6870 C   0  0  0  0  0  3  0  0  0  0  0  0
  184.2370  178.9180  140.5610 N   0  0  0  0  0  2  0  0  0  0  0  0
  181.2970  179.3860  140.0100 C   0  0  0  0  0  2  0  0  0  0  0  0
  181.3730  179.2470  138.4890 C   0  0  1  0  0  0  0  0  0  0  0  0
  180.1140  179.0080  137.9130 O   0  0  0  0  0  0  0  0  0  0  0  0
  183.3250  177.7510  138.6350 C   0  0  0  0  0  3  0  0  0  0  0  0
  181.9030  178.1480  140.6770 C   0  0  0  0  0  2  0  0  0  0  0  0
  183.3160  177.8660  140.1410 C   0  0  2  0  0  3  0  0  0  0  0  0
  180.7080  180.2630  137.6550 C   0  0  0  0  0  2  0  0  0  0  0  0
  182.4440  178.4050  137.8630 C   0  0  0  0  0  3  0  0  0  0  0  0
  189.0770  178.3910  139.6030 C   0  0  1  0  0  3  0  0  0  0  0  0
  189.5490  176.9610  139.3560 C   0  0  0  0  0  2  0  0  0  0  0  0
  190.9190  176.7500  139.9730 C   0  0  0  0  0  1  0  0  0  0  0  0
  188.6780  179.0090  138.3430 N   0  0  0  0  0  2  0  0  0  0  0  0
  188.8550  178.0150  137.2940 C   0  0  0  0  0  2  0  0  0  0  0  0
  187.8040  178.2350  136.2200 C   0  0  0  0  0  2  0  0  0  0  0  0
  187.2920  176.9550  135.7530 N   0  0  0  0  0  0  0  0  0  0  0  0
  186.9760  175.0210  137.1930 C   0  0  0  0  0  2  0  0  0  0  0  0
  185.8990  176.8830  136.1770 C   0  0  0  0  0  2  0  0  0  0  0  0
  187.9990  175.9100  136.4950 C   0  0  1  0  0  3  0  0  0  0  0  0
  185.6390  175.4780  136.6740 C   0  0  0  0  0  2  0  0  0  0  0  0
  188.9050  175.1130  135.5530 C   0  0  2  0  0  3  0  0  0  0  0  0
  188.4300  173.8060  135.3830 O   0  0  0  0  0  1  0  0  0  0  0  0
  190.2790  175.1020  136.0480 N   0  0  0  0  0  0  0  0  0  0  0  0
  192.9760  176.5700  137.2440 F   0  0  0  0  0  0  0  0  0  0  0  0
  192.0350  174.4120  137.2770 C   0  0  0  0  0  3  0  0  0  0  0  0
  192.5590  175.5310  136.4300 C   0  0  1  0  0  3  0  0  0  0  0  0
  190.7560  174.2050  137.0330 C   0  0  0  0  0  3  0  0  0  0  0  0
  191.3480  175.9800  135.6130 C   0  0  0  0  0  2  0  0  0  0  0  0
  1  6  1  0  0  0  0
  2 11  1  0  0  0  0
  2 12  1  0  0  0  0
  3 10  1  0  0  0  0
  4  8  2  0  0  0  0
  5  1  2  0  0  0  0
  7  9  2  0  0  0  0
  7  4  1  0  0  0  0
  8  1  1  0  0  0  0
  9  5  1  0  0  0  0
 10 11  2  0  0  0  0
 11  7  1  0  0  0  0
 12 15  2  0  0  0  0
 13  2  2  0  0  0  0
 14  3  2  0  0  0  0
 14 13  1  0  0  0  0
 15  4  1  0  0  0  0
 16 13  1  0  0  0  0
 17 21  1  0  0  0  0
 18 23  1  6  0  0  0
 18 17  1  0  0  0  0
 19 18  1  0  0  0  0
 20 22  1  0  0  0  0
 22 16  1  6  0  0  0
 22 21  1  0  0  0  0
 23 19  1  0  0  0  0
 24 18  1  0  0  0  0
 24 20  2  0  0  0  0
 25 26  1  6  0  0  0
 25  3  1  0  0  0  0
 26 27  1  0  0  0  0
 28 25  1  0  0  0  0
 29 28  1  0  0  0  0
 30 29  1  0  0  0  0
 31 33  1  0  0  0  0
 31 30  1  0  0  0  0
 31 34  1  0  0  0  0
 33 35  1  0  0  0  0
 34 36  1  6  0  0  0
 34 32  1  0  0  0  0
 35 32  1  0  0  0  0
 36 37  1  1  0  0  0
 36 38  1  0  0  0  0
 38 42  1  0  0  0  0
 41 39  1  1  0  0  0
 41 40  1  0  0  0  0
 42 40  2  0  0  0  0
 43 38  1  0  0  0  0
 43 41  1  0  0  0  0
M  END
>  <MODEL>
8

>  <REMARK>
 VINA RESULT:      -8.5      1.553      3.170
  Name = 
  10 active torsions:
  status: ('A' for Active; 'I' for Inactive)
    1  A    between atoms: N_1  and  C_34
    2  A    between atoms: N_1  and  C_35
    3  A    between atoms: C_2  and  N_6
    4  A    between atoms: C_2  and  C_7
    5  A    between atoms: C_2  and  C_13
    6  A    between atoms: C_3  and  N_4
    7  A    between atoms: C_3  and  C_12
    8  A    between atoms: N_6  and  C_12
    9  A    between atoms: N_11  and  C_14
   10  A    between atoms: C_14  and  C_22
                            x       y       z     vdW  Elec       q    Type
                         _______ _______ _______ _____ _____    ______ ____

>  <TORSDO>
F 10

$$$$
=
 OpenBabel10262422043D

 43 49  0  0  1  0  0  0  0  0999 V2000
  187.6030  177.8790  147.2570 C   0  0  0  0  0  0  0  0  0  0  0  0
  183.9950  178.6540  143.7840 C   0  0  0  0  0  0  0  0  0  0  0  0
  185.2190  178.3720  141.2660 C   0  0  0  0  0  0  0  0  0  0  0  0
  185.5050  178.3510  146.1380 C   0  0  0  0  0  0  0  0  0  0  0  0
  188.2400  177.7450  146.0200 C   0  0  0  0  0  3  0  0  0  0  0  0
  188.5170  177.6640  148.7360 Cl  0  0  0  0  0  0  0  0  0  0  0  0
  186.1400  178.2130  144.8790 C   0  0  0  0  0  0  0  0  0  0  0  0
  186.2390  178.1840  147.3150 C   0  0  0  0  0  3  0  0  0  0  0  0
  187.5140  177.9110  144.8380 C   0  0  0  0  0  3  0  0  0  0  0  0
  185.9790  178.2450  142.4340 C   0  0  0  0  0  3  0  0  0  0  0  0
  185.3840  178.3700  143.6980 C   0  0  0  0  0  0  0  0  0  0  0  0
  183.3930  178.7940  145.0410 C   0  0  0  0  0  3  0  0  0  0  0  0
  183.2280  178.7900  142.6100 C   0  0  0  0  0  0  0  0  0  0  0  0
  183.8520  178.6470  141.3620 C   0  0  0  0  0  3  0  0  0  0  0  0
  184.1430  178.6460  146.2090 C   0  0  0  0  0  3  0  0  0  0  0  0
  181.8260  179.0880  142.6910 N   0  0  0  0  0  2  0  0  0  0  0  0
  179.6230  180.3430  141.0360 C   0  0  0  0  0  2  0  0  0  0  0  0
  180.1620  179.9240  139.6680 C   0  0  1  0  0  0  0  0  0  0  0  0
  179.1800  179.9920  138.6660 O   0  0  0  0  0  0  0  0  0  0  0  0
  181.2820  177.9440  140.6170 C   0  0  0  0  0  3  0  0  0  0  0  0
  179.4830  179.1150  141.9400 C   0  0  0  0  0  2  0  0  0  0  0  0
  180.7970  178.3180  141.9980 C   0  0  2  0  0  3  0  0  0  0  0  0
  180.2290  180.9340  138.5980 C   0  0  0  0  0  2  0  0  0  0  0  0
  181.0110  178.6950  139.5390 C   0  0  0  0  0  3  0  0  0  0  0  0
  185.8450  178.2550  139.9010 C   0  0  1  0  0  3  0  0  0  0  0  0
  184.9360  178.8920  138.8540 C   0  0  0  0  0  2  0  0  0  0  0  0
  184.4110  177.8310  137.9040 C   0  0  0  0  0  1  0  0  0  0  0  0
  187.1630  178.8790  139.8640 N   0  0  0  0  0  2  0  0  0  0  0  0
  188.1090  177.8760  139.3970 C   0  0  0  0  0  2  0  0  0  0  0  0
  188.6190  178.2760  138.0240 C   0  0  0  0  0  2  0  0  0  0  0  0
  189.9820  177.7980  137.8400 N   0  0  0  0  0  0  0  0  0  0  0  0
  190.7000  175.5340  138.3590 C   0  0  0  0  0  2  0  0  0  0  0  0
  189.9820  176.9950  136.6240 C   0  0  0  0  0  2  0  0  0  0  0  0
  190.2680  176.8760  138.9400 C   0  0  1  0  0  3  0  0  0  0  0  0
  190.8360  175.7720  136.8790 C   0  0  0  0  0  2  0  0  0  0  0  0
  191.3330  177.4710  139.8660 C   0  0  2  0  0  3  0  0  0  0  0  0
  192.6210  177.1090  139.4510 O   0  0  0  0  0  1  0  0  0  0  0  0
  191.1010  177.0570  141.2470 N   0  0  0  0  0  0  0  0  0  0  0  0
  191.0610  177.5870  144.4990 F   0  0  0  0  0  0  0  0  0  0  0  0
  189.9910  176.1420  142.9800 C   0  0  0  0  0  3  0  0  0  0  0  0
  191.2960  176.6110  143.5470 C   0  0  1  0  0  3  0  0  0  0  0  0
  189.9230  176.4120  141.6910 C   0  0  0  0  0  3  0  0  0  0  0  0
  192.0230  177.2280  142.3530 C   0  0  0  0  0  2  0  0  0  0  0  0
  1  8  1  0  0  0  0
  1  6  1  0  0  0  0
  2 12  1  0  0  0  0
  3 14  2  0  0  0  0
  3 10  1  0  0  0  0
  4 15  1  0  0  0  0
  4  8  2  0  0  0  0
  5  1  2  0  0  0  0
  7  4  1  0  0  0  0
  9  7  2  0  0  0  0
  9  5  1  0  0  0  0
 10 11  2  0  0  0  0
 11  2  1  0  0  0  0
 11  7  1  0  0  0  0
 12 15  2  0  0  0  0
 13 16  1  0  0  0  0
 13  2  2  0  0  0  0
 14 13  1  0  0  0  0
 17 21  1  0  0  0  0
 18 23  1  6  0  0  0
 18 17  1  0  0  0  0
 19 18  1  0  0  0  0
 20 22  1  0  0  0  0
 21 22  1  0  0  0  0
 22 16  1  6  0  0  0
 23 19  1  0  0  0  0
 24 18  1  0  0  0  0
 24 20  2  0  0  0  0
 25 26  1  6  0  0  0
 25  3  1  0  0  0  0
 27 26  1  0  0  0  0
 28 25  1  0  0  0  0
 29 28  1  0  0  0  0
 30 29  1  0  0  0  0
 31 30  1  0  0  0  0
 31 34  1  0  0  0  0
 32 34  1  0  0  0  0
 33 35  1  0  0  0  0
 33 31  1  0  0  0  0
 34 36  1  1  0  0  0
 35 32  1  0  0  0  0
 36 37  1  6  0  0  0
 36 38  1  0  0  0  0
 38 42  1  0  0  0  0
 38 43  1  0  0  0  0
 40 41  1  0  0  0  0
 41 39  1  1  0  0  0
 42 40  2  0  0  0  0
 43 41  1  0  0  0  0
M  END
>  <MODEL>
9

>  <REMARK>
 VINA RESULT:      -8.5      2.470      4.050
  Name = 
  10 active torsions:
  status: ('A' for Active; 'I' for Inactive)
    1  A    between atoms: N_1  and  C_34
    2  A    between atoms: N_1  and  C_35
    3  A    between atoms: C_2  and  N_6
    4  A    between atoms: C_2  and  C_7
    5  A    between atoms: C_2  and  C_13
    6  A    between atoms: C_3  and  N_4
    7  A    between atoms: C_3  and  C_12
    8  A    between atoms: N_6  and  C_12
    9  A    between atoms: N_11  and  C_14
   10  A    between atoms: C_14  and  C_22
                            x       y       z     vdW  Elec       q    Type
                         _______ _______ _______ _____ _____    ______ ____

>  <TORSDO>
F 10

$$$$
