=
 OpenBabel10262419483D

 25 28  0  0  1  0  0  0  0  0999 V2000
  187.0670  177.8790  145.1760 C   0  0  0  0  0  0  0  0  0  0  0  0
  188.4070  177.6050  144.5550 C   0  0  0  0  0  0  0  0  0  0  0  0
  187.9700  177.5800  147.4480 N   0  0  0  0  0  0  0  0  0  0  0  0
  185.9000  178.2780  144.5130 C   0  0  0  0  0  0  0  0  0  0  0  0
  183.4200  179.1100  143.5410 C   0  0  0  0  0  3  0  0  0  0  0  0
  189.1330  177.2840  147.0080 N   0  0  0  0  0  0  0  0  0  0  0  0
  184.8430  178.5340  145.3820 C   0  0  0  0  0  0  0  0  0  0  0  0
  183.5960  178.9490  144.9230 C   0  0  0  0  0  3  0  0  0  0  0  0
  190.6510  176.7990  145.1910 C   0  0  2  0  0  3  0  0  0  0  0  0
  191.9240  176.4570  146.3520 Cl  0  0  0  0  0  0  0  0  0  0  0  0
  188.3090  176.2750  143.3190 S   0  0  0  0  0  0  0  0  0  0  0  0
  184.4830  178.8600  142.6530 C   0  0  0  0  0  3  0  0  0  0  0  0
  186.9010  177.8620  146.5480 C   0  0  0  0  0  0  0  0  0  0  0  0
  185.3290  178.3030  146.9790 S   0  0  0  0  0  0  0  0  0  0  0  0
  190.9500  176.6630  143.7910 N   0  0  0  0  0  0  0  0  0  0  0  0
  185.7340  178.4450  143.1350 C   0  0  0  0  0  3  0  0  0  0  0  0
  190.0400  176.5020  142.8750 C   0  0  0  0  0  0  0  0  0  0  0  0
  189.4390  177.2120  145.5990 C   0  0  0  0  0  0  0  0  0  0  0  0
  190.4240  176.5630  141.4370 C   0  0  0  0  0  2  0  0  0  0  0  0
  189.5300  177.4600  140.7180 N   0  0  0  0  0  2  0  0  0  0  0  0
  189.5800  177.6330  139.2990 C   0  0  0  0  0  0  0  0  0  0  0  0
  190.4790  177.0640  138.6220 O   0  0  0  0  0  0  0  0  0  0  0  0
  188.5850  178.4830  138.6330 C   0  0  0  0  0  0  0  0  0  0  0  0
  188.9830  179.3700  137.5940 N   0  0  0  0  0  2  0  0  0  0  0  0
  187.3450  178.4390  138.9910 N   0  0  0  0  0  1  0  0  0  0  0  0
  1 13  1  0  0  0  0
  2  1  2  0  0  0  0
  2 18  1  0  0  0  0
  4  1  1  0  0  0  0
  4  7  1  0  0  0  0
  5  8  1  0  0  0  0
  6  3  1  0  0  0  0
  7 14  1  0  0  0  0
  8  7  2  0  0  0  0
  9 18  1  0  0  0  0
  9 10  1  6  0  0  0
 11  2  1  0  0  0  0
 12 16  1  0  0  0  0
 12  5  2  0  0  0  0
 13 14  1  0  0  0  0
 13  3  2  0  0  0  0
 15  9  1  0  0  0  0
 16  4  2  0  0  0  0
 17 11  1  0  0  0  0
 17 15  2  0  0  0  0
 18  6  2  0  0  0  0
 19 17  1  0  0  0  0
 20 19  1  0  0  0  0
 21 20  1  0  0  0  0
 22 21  2  0  0  0  0
 23 25  1  0  0  0  0
 23 21  1  0  0  0  0
 24 23  2  0  0  0  0
M  END
>  <MODEL>
1

>  <REMARK>
 VINA RESULT:     -10.1      0.000      0.000
  Name = 
  3 active torsions:
  status: ('A' for Active; 'I' for Inactive)
    1  A    between atoms: C_2  and  C_21
    2  A    between atoms: C_6  and  N_15
    3  A    between atoms: C_6  and  C_23
                            x       y       z     vdW  Elec       q    Type
                         _______ _______ _______ _____ _____    ______ ____

>  <TORSDO>
F 3

$$$$
=
 OpenBabel10262419483D

 25 28  0  0  1  0  0  0  0  0999 V2000
  186.9020  178.1810  142.6690 C   0  0  0  0  0  0  0  0  0  0  0  0
  188.2270  177.5980  142.2680 C   0  0  0  0  0  0  0  0  0  0  0  0
  186.3580  178.7520  140.3350 N   0  0  0  0  0  0  0  0  0  0  0  0
  186.3310  178.1670  143.9470 C   0  0  0  0  0  0  0  0  0  0  0  0
  184.8820  178.2920  146.3290 C   0  0  0  0  0  3  0  0  0  0  0  0
  187.4840  178.3270  139.9100 N   0  0  0  0  0  0  0  0  0  0  0  0
  185.0520  178.7170  143.9760 C   0  0  0  0  0  0  0  0  0  0  0  0
  184.3080  178.7920  145.1510 C   0  0  0  0  0  3  0  0  0  0  0  0
  189.7030  177.4510  140.2960 C   0  0  2  0  0  3  0  0  0  0  0  0
  190.0320  177.5310  138.5730 Cl  0  0  0  0  0  0  0  0  0  0  0  0
  189.5950  178.3470  143.2030 S   0  0  0  0  0  0  0  0  0  0  0  0
  186.1710  177.7280  146.3120 C   0  0  0  0  0  3  0  0  0  0  0  0
  186.0440  178.7140  141.7260 C   0  0  0  0  0  0  0  0  0  0  0  0
  184.5890  179.2040  142.4300 S   0  0  0  0  0  0  0  0  0  0  0  0
  190.7450  176.9750  141.1670 N   0  0  0  0  0  0  0  0  0  0  0  0
  186.9040  177.6590  145.1160 C   0  0  0  0  0  3  0  0  0  0  0  0
  190.7840  177.2280  142.4430 C   0  0  0  0  0  0  0  0  0  0  0  0
  188.5000  177.7920  140.7850 C   0  0  0  0  0  0  0  0  0  0  0  0
  191.7890  176.5380  143.2990 C   0  0  0  0  0  2  0  0  0  0  0  0
  191.5370  176.8310  144.7030 N   0  0  0  0  0  2  0  0  0  0  0  0
  191.8800  175.9290  145.7590 C   0  0  0  0  0  0  0  0  0  0  0  0
  192.3440  174.7880  145.4920 O   0  0  0  0  0  0  0  0  0  0  0  0
  191.6820  176.3340  147.1570 C   0  0  0  0  0  0  0  0  0  0  0  0
  190.4800  176.9900  147.5480 N   0  0  0  0  0  2  0  0  0  0  0  0
  192.5980  176.1070  148.0380 N   0  0  0  0  0  1  0  0  0  0  0  0
  1  4  1  0  0  0  0
  2  1  1  0  0  0  0
  2 11  1  0  0  0  0
  3 13  1  0  0  0  0
  4  7  2  0  0  0  0
  4 16  1  0  0  0  0
  6  3  2  0  0  0  0
  6 18  1  0  0  0  0
  7  8  1  0  0  0  0
  8  5  2  0  0  0  0
  9 10  1  6  0  0  0
  9 18  1  0  0  0  0
  9 15  1  0  0  0  0
 12  5  1  0  0  0  0
 13 14  1  0  0  0  0
 13  1  2  0  0  0  0
 14  7  1  0  0  0  0
 15 17  2  0  0  0  0
 16 12  2  0  0  0  0
 17 11  1  0  0  0  0
 17 19  1  0  0  0  0
 18  2  2  0  0  0  0
 19 20  1  0  0  0  0
 20 21  1  0  0  0  0
 21 23  1  0  0  0  0
 22 21  2  0  0  0  0
 23 24  2  0  0  0  0
 23 25  1  0  0  0  0
M  END
>  <MODEL>
2

>  <REMARK>
 VINA RESULT:      -9.4      2.841      5.563
  Name = 
  3 active torsions:
  status: ('A' for Active; 'I' for Inactive)
    1  A    between atoms: C_2  and  C_21
    2  A    between atoms: C_6  and  N_15
    3  A    between atoms: C_6  and  C_23
                            x       y       z     vdW  Elec       q    Type
                         _______ _______ _______ _____ _____    ______ ____

>  <TORSDO>
F 3

$$$$
=
 OpenBabel10262419483D

 25 28  0  0  1  0  0  0  0  0999 V2000
  185.7680  178.2320  144.4670 C   0  0  0  0  0  0  0  0  0  0  0  0
  184.9920  178.2060  143.1820 C   0  0  0  0  0  0  0  0  0  0  0  0
  183.7790  178.9200  145.7470 N   0  0  0  0  0  0  0  0  0  0  0  0
  187.0970  177.8340  144.6530 C   0  0  0  0  0  0  0  0  0  0  0  0
  189.6850  177.0990  145.3990 C   0  0  0  0  0  3  0  0  0  0  0  0
  183.0530  178.9750  144.6970 N   0  0  0  0  0  0  0  0  0  0  0  0
  187.5020  177.9000  145.9840 C   0  0  0  0  0  0  0  0  0  0  0  0
  188.7870  177.5400  146.3820 C   0  0  0  0  0  3  0  0  0  0  0  0
  182.7850  178.8680  142.2970 C   0  0  2  0  0  3  0  0  0  0  0  0
  181.0940  179.3100  142.4700 Cl  0  0  0  0  0  0  0  0  0  0  0  0
  185.7820  179.2320  141.9050 S   0  0  0  0  0  0  0  0  0  0  0  0
  189.2850  177.0220  144.0510 C   0  0  0  0  0  3  0  0  0  0  0  0
  185.1590  178.5710  145.6610 C   0  0  0  0  0  0  0  0  0  0  0  0
  186.2290  178.4210  146.9580 S   0  0  0  0  0  0  0  0  0  0  0  0
  183.3020  178.6560  140.9720 N   0  0  0  0  0  0  0  0  0  0  0  0
  187.9840  177.3860  143.6700 C   0  0  0  0  0  3  0  0  0  0  0  0
  184.5690  178.7150  140.6780 C   0  0  0  0  0  0  0  0  0  0  0  0
  183.5670  178.6990  143.3760 C   0  0  0  0  0  0  0  0  0  0  0  0
  185.0300  178.2940  139.3260 C   0  0  0  0  0  2  0  0  0  0  0  0
  186.4430  178.6050  139.1600 N   0  0  0  0  0  2  0  0  0  0  0  0
  187.2690  177.9680  138.1800 C   0  0  0  0  0  0  0  0  0  0  0  0
  186.8060  177.0330  137.4710 O   0  0  0  0  0  0  0  0  0  0  0  0
  188.6620  178.4010  138.0090 C   0  0  0  0  0  0  0  0  0  0  0  0
  189.7260  177.6040  138.5160 N   0  0  0  0  0  1  0  0  0  0  0  0
  188.9300  179.5110  137.4040 N   0  0  0  0  0  2  0  0  0  0  0  0
  1  4  1  0  0  0  0
  1 13  2  0  0  0  0
  2 18  2  0  0  0  0
  2  1  1  0  0  0  0
  4  7  1  0  0  0  0
  5  8  1  0  0  0  0
  6  3  2  0  0  0  0
  7  8  2  0  0  0  0
  7 14  1  0  0  0  0
  9 10  1  1  0  0  0
  9 18  1  0  0  0  0
 11  2  1  0  0  0  0
 12  5  2  0  0  0  0
 13  3  1  0  0  0  0
 13 14  1  0  0  0  0
 15  9  1  0  0  0  0
 16 12  1  0  0  0  0
 16  4  2  0  0  0  0
 17 15  2  0  0  0  0
 17 11  1  0  0  0  0
 18  6  1  0  0  0  0
 19 17  1  0  0  0  0
 20 19  1  0  0  0  0
 21 20  1  0  0  0  0
 22 21  2  0  0  0  0
 23 21  1  0  0  0  0
 23 24  1  0  0  0  0
 25 23  2  0  0  0  0
M  END
>  <MODEL>
3

>  <REMARK>
 VINA RESULT:      -9.4      3.383      5.205
  Name = 
  3 active torsions:
  status: ('A' for Active; 'I' for Inactive)
    1  A    between atoms: C_2  and  C_21
    2  A    between atoms: C_6  and  N_15
    3  A    between atoms: C_6  and  C_23
                            x       y       z     vdW  Elec       q    Type
                         _______ _______ _______ _____ _____    ______ ____

>  <TORSDO>
F 3

$$$$
=
 OpenBabel10262419483D

 25 28  0  0  1  0  0  0  0  0999 V2000
  189.4610  177.5890  144.4340 C   0  0  0  0  0  0  0  0  0  0  0  0
  188.8150  178.0910  143.1750 C   0  0  0  0  0  0  0  0  0  0  0  0
  191.4720  176.8650  143.2080 N   0  0  0  0  0  0  0  0  0  0  0  0
  188.9710  177.7190  145.7390 C   0  0  0  0  0  0  0  0  0  0  0  0
  188.3280  177.8250  148.4530 C   0  0  0  0  0  3  0  0  0  0  0  0
  190.9800  177.2170  142.0820 N   0  0  0  0  0  0  0  0  0  0  0  0
  189.8470  177.2190  146.7000 C   0  0  0  0  0  0  0  0  0  0  0  0
  189.5500  177.2600  148.0600 C   0  0  0  0  0  3  0  0  0  0  0  0
  189.1520  178.0370  140.7310 C   0  0  2  0  0  3  0  0  0  0  0  0
  190.1270  177.8170  139.2860 Cl  0  0  0  0  0  0  0  0  0  0  0  0
  187.1650  177.3650  142.9370 S   0  0  0  0  0  0  0  0  0  0  0  0
  187.4370  178.3380  147.4910 C   0  0  0  0  0  3  0  0  0  0  0  0
  190.7200  177.0180  144.4100 C   0  0  0  0  0  0  0  0  0  0  0  0
  191.2480  176.6360  145.9670 S   0  0  0  0  0  0  0  0  0  0  0  0
  187.8130  178.5390  140.5800 N   0  0  0  0  0  0  0  0  0  0  0  0
  187.7560  178.2910  146.1250 C   0  0  0  0  0  3  0  0  0  0  0  0
  186.8830  178.3810  141.4760 C   0  0  0  0  0  0  0  0  0  0  0  0
  189.6570  177.7780  141.9490 C   0  0  0  0  0  0  0  0  0  0  0  0
  185.5850  179.0960  141.3230 C   0  0  0  0  0  2  0  0  0  0  0  0
  184.9070  179.1850  142.6100 N   0  0  0  0  0  2  0  0  0  0  0  0
  183.5310  178.8390  142.7890 C   0  0  0  0  0  0  0  0  0  0  0  0
  182.8230  178.5190  141.7950 O   0  0  0  0  0  0  0  0  0  0  0  0
  182.9420  178.8640  144.1340 C   0  0  0  0  0  0  0  0  0  0  0  0
  183.7720  179.0600  145.2740 N   0  0  0  0  0  1  0  0  0  0  0  0
  181.6710  178.7000  144.2930 N   0  0  0  0  0  2  0  0  0  0  0  0
  1  4  1  0  0  0  0
  2  1  1  0  0  0  0
  3 13  1  0  0  0  0
  4 16  2  0  0  0  0
  4  7  1  0  0  0  0
  6  3  2  0  0  0  0
  7  8  2  0  0  0  0
  8  5  1  0  0  0  0
  9 10  1  1  0  0  0
  9 18  1  0  0  0  0
 11  2  1  0  0  0  0
 12  5  2  0  0  0  0
 13  1  2  0  0  0  0
 13 14  1  0  0  0  0
 14  7  1  0  0  0  0
 15  9  1  0  0  0  0
 15 17  2  0  0  0  0
 16 12  1  0  0  0  0
 17 11  1  0  0  0  0
 18  6  1  0  0  0  0
 18  2  2  0  0  0  0
 19 17  1  0  0  0  0
 19 20  1  0  0  0  0
 20 21  1  0  0  0  0
 21 23  1  0  0  0  0
 22 21  2  0  0  0  0
 23 25  2  0  0  0  0
 23 24  1  0  0  0  0
M  END
>  <MODEL>
4

>  <REMARK>
 VINA RESULT:      -9.0      3.342      5.765
  Name = 
  3 active torsions:
  status: ('A' for Active; 'I' for Inactive)
    1  A    between atoms: C_2  and  C_21
    2  A    between atoms: C_6  and  N_15
    3  A    between atoms: C_6  and  C_23
                            x       y       z     vdW  Elec       q    Type
                         _______ _______ _______ _____ _____    ______ ____

>  <TORSDO>
F 3

$$$$
=
 OpenBabel10262419483D

 25 28  0  0  1  0  0  0  0  0999 V2000
  185.5300  178.4460  144.3640 C   0  0  0  0  0  0  0  0  0  0  0  0
  186.9760  178.2500  144.7180 C   0  0  0  0  0  0  0  0  0  0  0  0
  184.8940  178.6480  146.7350 N   0  0  0  0  0  0  0  0  0  0  0  0
  184.9900  178.5730  143.0780 C   0  0  0  0  0  0  0  0  0  0  0  0
  183.5810  178.9010  140.6910 C   0  0  0  0  0  3  0  0  0  0  0  0
  186.0900  178.4370  147.1320 N   0  0  0  0  0  0  0  0  0  0  0  0
  183.6210  178.8290  143.0880 C   0  0  0  0  0  0  0  0  0  0  0  0
  182.8950  178.9970  141.9110 C   0  0  0  0  0  3  0  0  0  0  0  0
  188.3970  177.8610  146.6980 C   0  0  2  0  0  3  0  0  0  0  0  0
  188.7230  177.8840  148.4240 Cl  0  0  0  0  0  0  0  0  0  0  0  0
  187.6450  176.7320  143.9730 S   0  0  0  0  0  0  0  0  0  0  0  0
  184.9650  178.6490  140.6690 C   0  0  0  0  0  3  0  0  0  0  0  0
  184.5750  178.6350  145.3450 C   0  0  0  0  0  0  0  0  0  0  0  0
  183.0550  178.9310  144.6720 S   0  0  0  0  0  0  0  0  0  0  0  0
  189.4750  177.5350  145.8040 N   0  0  0  0  0  0  0  0  0  0  0  0
  185.6810  178.4860  141.8660 C   0  0  0  0  0  3  0  0  0  0  0  0
  189.2950  177.1060  144.5890 C   0  0  0  0  0  0  0  0  0  0  0  0
  187.1800  178.1730  146.2230 C   0  0  0  0  0  0  0  0  0  0  0  0
  190.4640  176.9770  143.6730 C   0  0  0  0  0  2  0  0  0  0  0  0
  190.0120  176.9240  142.2900 N   0  0  0  0  0  2  0  0  0  0  0  0
  190.8840  177.1550  141.1790 C   0  0  0  0  0  0  0  0  0  0  0  0
  192.0800  177.5050  141.3730 O   0  0  0  0  0  0  0  0  0  0  0  0
  190.3780  176.9910  139.8100 C   0  0  0  0  0  0  0  0  0  0  0  0
  189.4440  177.9230  139.2760 N   0  0  0  0  0  1  0  0  0  0  0  0
  190.7700  175.9970  139.0850 N   0  0  0  0  0  2  0  0  0  0  0  0
  1  2  2  0  0  0  0
  1 13  1  0  0  0  0
  2 18  1  0  0  0  0
  3  6  1  0  0  0  0
  4  7  1  0  0  0  0
  4  1  1  0  0  0  0
  5  8  1  0  0  0  0
  7 14  1  0  0  0  0
  8  7  2  0  0  0  0
  9 10  1  6  0  0  0
 11 17  1  0  0  0  0
 11  2  1  0  0  0  0
 12  5  2  0  0  0  0
 12 16  1  0  0  0  0
 13  3  2  0  0  0  0
 14 13  1  0  0  0  0
 15  9  1  0  0  0  0
 16  4  2  0  0  0  0
 17 15  2  0  0  0  0
 18  9  1  0  0  0  0
 18  6  2  0  0  0  0
 19 17  1  0  0  0  0
 20 19  1  0  0  0  0
 21 22  2  0  0  0  0
 21 20  1  0  0  0  0
 23 21  1  0  0  0  0
 24 23  1  0  0  0  0
 25 23  2  0  0  0  0
M  END
>  <MODEL>
5

>  <REMARK>
 VINA RESULT:      -8.8      1.888      2.656
  Name = 
  3 active torsions:
  status: ('A' for Active; 'I' for Inactive)
    1  A    between atoms: C_2  and  C_21
    2  A    between atoms: C_6  and  N_15
    3  A    between atoms: C_6  and  C_23
                            x       y       z     vdW  Elec       q    Type
                         _______ _______ _______ _____ _____    ______ ____

>  <TORSDO>
F 3

$$$$
=
 OpenBabel10262419483D

 25 28  0  0  1  0  0  0  0  0999 V2000
  186.8800  178.0470  144.9550 C   0  0  0  0  0  0  0  0  0  0  0  0
  188.1340  177.8040  144.1650 C   0  0  0  0  0  0  0  0  0  0  0  0
  188.0910  177.8400  147.0900 N   0  0  0  0  0  0  0  0  0  0  0  0
  185.6200  178.3860  144.4480 C   0  0  0  0  0  0  0  0  0  0  0  0
  183.0010  179.1030  143.8030 C   0  0  0  0  0  3  0  0  0  0  0  0
  189.1940  177.5730  146.5030 N   0  0  0  0  0  0  0  0  0  0  0  0
  184.6800  178.6270  145.4470 C   0  0  0  0  0  0  0  0  0  0  0  0
  183.3670  178.9850  145.1520 C   0  0  0  0  0  3  0  0  0  0  0  0
  190.4720  177.0960  144.5080 C   0  0  2  0  0  3  0  0  0  0  0  0
  191.9020  176.8290  145.4930 Cl  0  0  0  0  0  0  0  0  0  0  0  0
  187.9220  176.4400  142.9820 S   0  0  0  0  0  0  0  0  0  0  0  0
  183.9440  178.8680  142.7850 C   0  0  0  0  0  3  0  0  0  0  0  0
  186.9000  178.0600  146.3370 C   0  0  0  0  0  0  0  0  0  0  0  0
  185.3850  178.4550  146.9680 S   0  0  0  0  0  0  0  0  0  0  0  0
  190.5860  176.9340  143.0840 N   0  0  0  0  0  0  0  0  0  0  0  0
  185.2640  178.5110  143.1020 C   0  0  0  0  0  3  0  0  0  0  0  0
  189.5670  176.7160  142.3030 C   0  0  0  0  0  0  0  0  0  0  0  0
  189.3110  177.4750  145.0680 C   0  0  0  0  0  0  0  0  0  0  0  0
  189.7520  176.7530  140.8250 C   0  0  0  0  0  2  0  0  0  0  0  0
  191.1670  176.6620  140.4950 N   0  0  0  0  0  2  0  0  0  0  0  0
  191.6620  176.7770  139.1580 C   0  0  0  0  0  0  0  0  0  0  0  0
  190.8580  176.8770  138.1910 O   0  0  0  0  0  0  0  0  0  0  0  0
  193.1100  176.7690  138.9130 C   0  0  0  0  0  0  0  0  0  0  0  0
  193.6200  176.3570  137.6500 N   0  0  0  0  0  2  0  0  0  0  0  0
  193.9310  177.1280  139.8440 N   0  0  0  0  0  1  0  0  0  0  0  0
  1 13  1  0  0  0  0
  2  1  2  0  0  0  0
  2 18  1  0  0  0  0
  4  1  1  0  0  0  0
  4  7  1  0  0  0  0
  5  8  1  0  0  0  0
  6  3  1  0  0  0  0
  7 14  1  0  0  0  0
  8  7  2  0  0  0  0
  9 18  1  0  0  0  0
  9 10  1  6  0  0  0
 11  2  1  0  0  0  0
 12 16  1  0  0  0  0
 12  5  2  0  0  0  0
 13 14  1  0  0  0  0
 13  3  2  0  0  0  0
 15  9  1  0  0  0  0
 16  4  2  0  0  0  0
 17 11  1  0  0  0  0
 17 15  2  0  0  0  0
 18  6  2  0  0  0  0
 19 17  1  0  0  0  0
 20 19  1  0  0  0  0
 21 20  1  0  0  0  0
 22 21  2  0  0  0  0
 23 21  1  0  0  0  0
 23 25  1  0  0  0  0
 24 23  2  0  0  0  0
M  END
>  <MODEL>
6

>  <REMARK>
 VINA RESULT:      -8.7      1.745      2.145
  Name = 
  3 active torsions:
  status: ('A' for Active; 'I' for Inactive)
    1  A    between atoms: C_2  and  C_21
    2  A    between atoms: C_6  and  N_15
    3  A    between atoms: C_6  and  C_23
                            x       y       z     vdW  Elec       q    Type
                         _______ _______ _______ _____ _____    ______ ____

>  <TORSDO>
F 3

$$$$
=
 OpenBabel10262419483D

 25 28  0  0  1  0  0  0  0  0999 V2000
  187.9350  178.0840  141.1710 C   0  0  0  0  0  0  0  0  0  0  0  0
  187.3430  178.2760  142.5380 C   0  0  0  0  0  0  0  0  0  0  0  0
  185.8270  178.7390  140.0780 N   0  0  0  0  0  0  0  0  0  0  0  0
  189.2670  177.7760  140.8690 C   0  0  0  0  0  0  0  0  0  0  0  0
  191.8220  177.2110  139.8980 C   0  0  0  0  0  3  0  0  0  0  0  0
  185.2250  178.8780  141.1970 N   0  0  0  0  0  0  0  0  0  0  0  0
  189.5200  177.7470  139.4990 C   0  0  0  0  0  0  0  0  0  0  0  0
  190.7850  177.4670  138.9890 C   0  0  0  0  0  3  0  0  0  0  0  0
  185.1560  178.6850  143.6050 C   0  0  2  0  0  3  0  0  0  0  0  0
  183.4770  179.2030  143.5950 Cl  0  0  0  0  0  0  0  0  0  0  0  0
  187.5350  176.7870  143.5630 S   0  0  0  0  0  0  0  0  0  0  0  0
  191.5800  177.2430  141.2850 C   0  0  0  0  0  3  0  0  0  0  0  0
  187.1880  178.3170  140.0310 C   0  0  0  0  0  0  0  0  0  0  0  0
  188.1210  178.1250  138.6380 S   0  0  0  0  0  0  0  0  0  0  0  0
  185.7640  178.3700  144.8700 N   0  0  0  0  0  0  0  0  0  0  0  0
  190.2980  177.5310  141.7790 C   0  0  0  0  0  3  0  0  0  0  0  0
  186.8240  177.6250  144.9900 C   0  0  0  0  0  0  0  0  0  0  0  0
  185.8640  178.6190  142.4650 C   0  0  0  0  0  0  0  0  0  0  0  0
  187.4960  177.5090  146.3140 C   0  0  0  0  0  2  0  0  0  0  0  0
  188.8910  177.1300  146.1370 N   0  0  0  0  0  2  0  0  0  0  0  0
  189.8720  177.2750  147.1680 C   0  0  0  0  0  0  0  0  0  0  0  0
  189.5690  177.8300  148.2590 O   0  0  0  0  0  0  0  0  0  0  0  0
  191.2380  176.7830  146.9480 C   0  0  0  0  0  0  0  0  0  0  0  0
  191.6650  176.4190  145.6400 N   0  0  0  0  0  2  0  0  0  0  0  0
  192.0590  176.6700  147.9390 N   0  0  0  0  0  1  0  0  0  0  0  0
  1  2  2  0  0  0  0
  2 11  1  0  0  0  0
  3  6  1  0  0  0  0
  4  1  1  0  0  0  0
  4 16  1  0  0  0  0
  5 12  1  0  0  0  0
  6 18  2  0  0  0  0
  7  4  2  0  0  0  0
  8  7  1  0  0  0  0
  8  5  2  0  0  0  0
  9 10  1  1  0  0  0
  9 15  1  0  0  0  0
 11 17  1  0  0  0  0
 12 16  2  0  0  0  0
 13  3  2  0  0  0  0
 13  1  1  0  0  0  0
 14  7  1  0  0  0  0
 14 13  1  0  0  0  0
 15 17  2  0  0  0  0
 17 19  1  0  0  0  0
 18  2  1  0  0  0  0
 18  9  1  0  0  0  0
 20 19  1  0  0  0  0
 20 21  1  0  0  0  0
 21 22  2  0  0  0  0
 23 21  1  0  0  0  0
 23 25  1  0  0  0  0
 24 23  2  0  0  0  0
M  END
>  <MODEL>
7

>  <REMARK>
 VINA RESULT:      -8.5      3.347      7.131
  Name = 
  3 active torsions:
  status: ('A' for Active; 'I' for Inactive)
    1  A    between atoms: C_2  and  C_21
    2  A    between atoms: C_6  and  N_15
    3  A    between atoms: C_6  and  C_23
                            x       y       z     vdW  Elec       q    Type
                         _______ _______ _______ _____ _____    ______ ____

>  <TORSDO>
F 3

$$$$
=
 OpenBabel10262419483D

 25 28  0  0  1  0  0  0  0  0999 V2000
  186.3280  178.0730  144.8890 C   0  0  0  0  0  0  0  0  0  0  0  0
  185.2810  178.1090  143.8130 C   0  0  0  0  0  0  0  0  0  0  0  0
  184.6950  178.7330  146.6110 N   0  0  0  0  0  0  0  0  0  0  0  0
  187.6570  177.6520  144.7540 C   0  0  0  0  0  0  0  0  0  0  0  0
  190.3300  176.8560  144.8670 C   0  0  0  0  0  3  0  0  0  0  0  0
  183.7520  178.8400  145.7550 N   0  0  0  0  0  0  0  0  0  0  0  0
  188.3530  177.6590  145.9600 C   0  0  0  0  0  0  0  0  0  0  0  0
  189.6870  177.2680  146.0440 C   0  0  0  0  0  3  0  0  0  0  0  0
  182.9460  178.8340  143.4770 C   0  0  2  0  0  3  0  0  0  0  0  0
  181.3480  179.2890  144.0450 Cl  0  0  0  0  0  0  0  0  0  0  0  0
  185.7840  179.1760  142.4290 S   0  0  0  0  0  0  0  0  0  0  0  0
  189.6340  176.8390  143.6430 C   0  0  0  0  0  3  0  0  0  0  0  0
  186.0120  178.3710  146.2010 C   0  0  0  0  0  0  0  0  0  0  0  0
  187.3440  178.1560  147.2160 S   0  0  0  0  0  0  0  0  0  0  0  0
  183.1460  178.6690  142.0620 N   0  0  0  0  0  0  0  0  0  0  0  0
  188.2890  177.2340  143.5800 C   0  0  0  0  0  3  0  0  0  0  0  0
  184.3140  178.7240  141.4910 C   0  0  0  0  0  0  0  0  0  0  0  0
  183.9480  178.6110  144.3440 C   0  0  0  0  0  0  0  0  0  0  0  0
  184.4490  178.3530  140.0550 C   0  0  0  0  0  2  0  0  0  0  0  0
  183.2140  178.6490  139.3430 N   0  0  0  0  0  2  0  0  0  0  0  0
  182.9530  179.9180  138.7350 C   0  0  0  0  0  0  0  0  0  0  0  0
  183.7700  180.8680  138.8750 O   0  0  0  0  0  0  0  0  0  0  0  0
  181.7260  180.1120  137.9520 C   0  0  0  0  0  0  0  0  0  0  0  0
  181.2780  181.4260  137.6390 N   0  0  0  0  0  1  0  0  0  0  0  0
  181.0400  179.0930  137.5510 N   0  0  0  0  0  2  0  0  0  0  0  0
  1 13  2  0  0  0  0
  2 18  2  0  0  0  0
  2  1  1  0  0  0  0
  4  1  1  0  0  0  0
  4  7  1  0  0  0  0
  5  8  1  0  0  0  0
  6  3  2  0  0  0  0
  7  8  2  0  0  0  0
  7 14  1  0  0  0  0
  9 10  1  1  0  0  0
  9 18  1  0  0  0  0
 11  2  1  0  0  0  0
 12  5  2  0  0  0  0
 13  3  1  0  0  0  0
 13 14  1  0  0  0  0
 15  9  1  0  0  0  0
 16 12  1  0  0  0  0
 16  4  2  0  0  0  0
 17 15  2  0  0  0  0
 17 11  1  0  0  0  0
 18  6  1  0  0  0  0
 19 17  1  0  0  0  0
 20 19  1  0  0  0  0
 21 22  2  0  0  0  0
 21 20  1  0  0  0  0
 23 21  1  0  0  0  0
 24 23  1  0  0  0  0
 25 23  2  0  0  0  0
M  END
>  <MODEL>
8

>  <REMARK>
 VINA RESULT:      -8.4      4.200      6.041
  Name = 
  3 active torsions:
  status: ('A' for Active; 'I' for Inactive)
    1  A    between atoms: C_2  and  C_21
    2  A    between atoms: C_6  and  N_15
    3  A    between atoms: C_6  and  C_23
                            x       y       z     vdW  Elec       q    Type
                         _______ _______ _______ _____ _____    ______ ____

>  <TORSDO>
F 3

$$$$
=
 OpenBabel10262419483D

 25 28  0  0  1  0  0  0  0  0999 V2000
  189.4070  177.6430  144.4830 C   0  0  0  0  0  0  0  0  0  0  0  0
  188.6730  178.1300  143.2660 C   0  0  0  0  0  0  0  0  0  0  0  0
  191.3770  177.0200  143.1420 N   0  0  0  0  0  0  0  0  0  0  0  0
  188.9830  177.7370  145.8140 C   0  0  0  0  0  0  0  0  0  0  0  0
  188.4830  177.7880  148.5590 C   0  0  0  0  0  3  0  0  0  0  0  0
  190.8110  177.3610  142.0480 N   0  0  0  0  0  0  0  0  0  0  0  0
  189.9300  177.2670  146.7200 C   0  0  0  0  0  0  0  0  0  0  0  0
  189.7050  177.2800  148.0940 C   0  0  0  0  0  3  0  0  0  0  0  0
  188.8790  178.1160  140.8080 C   0  0  2  0  0  3  0  0  0  0  0  0
  189.7820  177.9530  139.3100 Cl  0  0  0  0  0  0  0  0  0  0  0  0
  187.0450  177.3350  143.1080 S   0  0  0  0  0  0  0  0  0  0  0  0
  187.5200  178.2720  147.6530 C   0  0  0  0  0  3  0  0  0  0  0  0
  190.6860  177.1280  144.3840 C   0  0  0  0  0  0  0  0  0  0  0  0
  191.3140  176.7530  145.9060 S   0  0  0  0  0  0  0  0  0  0  0  0
  187.5130  178.5590  140.7350 N   0  0  0  0  0  0  0  0  0  0  0  0
  187.7670  178.2530  146.2710 C   0  0  0  0  0  3  0  0  0  0  0  0
  186.6400  178.3520  141.6780 C   0  0  0  0  0  0  0  0  0  0  0  0
  189.4590  177.8660  141.9930 C   0  0  0  0  0  0  0  0  0  0  0  0
  185.3060  179.0110  141.6040 C   0  0  0  0  0  2  0  0  0  0  0  0
  184.4780  178.3540  140.6020 N   0  0  0  0  0  2  0  0  0  0  0  0
  184.1610  178.9530  139.3420 C   0  0  0  0  0  0  0  0  0  0  0  0
  184.5270  180.1330  139.0900 O   0  0  0  0  0  0  0  0  0  0  0  0
  183.3980  178.1910  138.3440 C   0  0  0  0  0  0  0  0  0  0  0  0
  184.0780  177.4750  137.3190 N   0  0  0  0  0  2  0  0  0  0  0  0
  182.1070  178.1720  138.3850 N   0  0  0  0  0  1  0  0  0  0  0  0
  1  4  1  0  0  0  0
  2  1  1  0  0  0  0
  3 13  1  0  0  0  0
  4 16  2  0  0  0  0
  4  7  1  0  0  0  0
  6  3  2  0  0  0  0
  7  8  2  0  0  0  0
  8  5  1  0  0  0  0
  9 10  1  1  0  0  0
  9 18  1  0  0  0  0
 11  2  1  0  0  0  0
 12  5  2  0  0  0  0
 13  1  2  0  0  0  0
 13 14  1  0  0  0  0
 14  7  1  0  0  0  0
 15  9  1  0  0  0  0
 15 17  2  0  0  0  0
 16 12  1  0  0  0  0
 17 11  1  0  0  0  0
 18  6  1  0  0  0  0
 18  2  2  0  0  0  0
 19 17  1  0  0  0  0
 20 19  1  0  0  0  0
 21 20  1  0  0  0  0
 22 21  2  0  0  0  0
 23 25  1  0  0  0  0
 23 21  1  0  0  0  0
 24 23  2  0  0  0  0
M  END
>  <MODEL>
9

>  <REMARK>
 VINA RESULT:      -8.4      3.190      5.185
  Name = 
  3 active torsions:
  status: ('A' for Active; 'I' for Inactive)
    1  A    between atoms: C_2  and  C_21
    2  A    between atoms: C_6  and  N_15
    3  A    between atoms: C_6  and  C_23
                            x       y       z     vdW  Elec       q    Type
                         _______ _______ _______ _____ _____    ______ ____

>  <TORSDO>
F 3

$$$$
