=
 OpenBabel10262420073D

 27 29  0  0  1  0  0  0  0  0999 V2000
  188.6110  178.0730  143.6560 N   0  0  0  0  0  0  0  0  0  0  0  0
  191.7340  176.4820  146.1510 C   0  0  0  0  0  2  0  0  0  0  0  0
  189.5120  177.2950  144.5260 C   0  0  1  0  0  3  0  0  0  0  0  0
  190.8530  177.2550  143.9650 N   0  0  0  0  0  2  0  0  0  0  0  0
  191.6010  176.1930  144.6460 C   0  0  0  0  0  2  0  0  0  0  0  0
  190.3640  176.7970  146.7810 C   0  0  0  0  0  2  0  0  0  0  0  0
  189.6100  177.8300  145.9600 C   0  0  0  0  0  2  0  0  0  0  0  0
  187.3510  177.3310  143.3920 C   0  0  0  0  0  2  0  0  0  0  0  0
  183.9200  178.8670  144.0560 C   0  0  0  0  0  3  0  0  0  0  0  0
  183.9080  178.9150  145.4540 C   0  0  0  0  0  3  0  0  0  0  0  0
  186.1400  177.8890  144.0980 C   0  0  0  0  0  0  0  0  0  0  0  0
  184.9950  178.3290  141.8820 C   0  0  0  0  0  1  0  0  0  0  0  0
  185.0160  178.4580  146.1770 C   0  0  0  0  0  3  0  0  0  0  0  0
  186.1270  177.9520  145.4970 C   0  0  0  0  0  3  0  0  0  0  0  0
  185.0300  178.3620  143.3760 C   0  0  0  0  0  0  0  0  0  0  0  0
  189.2790  178.2700  142.4300 N   0  0  0  0  0  2  0  0  0  0  0  0
  188.4220  177.7760  141.3630 C   0  0  0  0  0  2  0  0  0  0  0  0
  191.1650  176.4320  139.1360 C   0  0  0  0  0  3  0  0  0  0  0  0
  191.4930  176.4770  136.7570 O   0  0  0  0  0  1  0  0  0  0  0  0
  189.5730  177.6030  137.7300 C   0  0  0  0  0  0  0  0  0  0  0  0
  189.1670  177.9780  136.4520 O   0  0  0  0  0  1  0  0  0  0  0  0
  188.8030  177.9330  138.8740 C   0  0  0  0  0  0  0  0  0  0  0  0
  190.7540  176.8560  137.8750 C   0  0  0  0  0  0  0  0  0  0  0  0
  189.2530  177.5220  140.1410 C   0  0  0  0  0  0  0  0  0  0  0  0
  190.4140  176.7560  140.2620 C   0  0  0  0  0  3  0  0  0  0  0  0
  186.3730  178.1050  138.2670 C   0  0  0  0  0  1  0  0  0  0  0  0
  187.5780  178.6250  138.8090 O   0  0  0  0  0  0  0  0  0  0  0  0
  2  6  1  0  0  0  0
  3  1  1  6  0  0  0
  3  7  1  0  0  0  0
  4  3  1  0  0  0  0
  4  5  1  0  0  0  0
  5  2  1  0  0  0  0
  7  6  1  0  0  0  0
  8  1  1  0  0  0  0
  8 11  1  0  0  0  0
  9 10  1  0  0  0  0
 10 13  2  0  0  0  0
 11 14  2  0  0  0  0
 12 15  1  0  0  0  0
 14 13  1  0  0  0  0
 15  9  2  0  0  0  0
 15 11  1  0  0  0  0
 16  1  1  0  0  0  0
 17 16  1  0  0  0  0
 18 25  1  0  0  0  0
 19 23  1  0  0  0  0
 20 23  1  0  0  0  0
 20 22  2  0  0  0  0
 21 20  1  0  0  0  0
 22 24  1  0  0  0  0
 23 18  2  0  0  0  0
 24 25  2  0  0  0  0
 24 17  1  0  0  0  0
 26 27  1  0  0  0  0
 27 22  1  0  0  0  0
M  END
>  <MODEL>
1

>  <REMARK>
 VINA RESULT:      -8.7      0.000      0.000
  Name = 
  7 active torsions:
  status: ('A' for Active; 'I' for Inactive)
    1  A    between atoms: C_1  and  N_15
    2  A    between atoms: C_1  and  C_18
    3  A    between atoms: N_2  and  C_6
    4  A    between atoms: N_2  and  N_15
    5  A    between atoms: C_6  and  C_17
    6  A    between atoms: C_9  and  N_15
    7  A    between atoms: C_14  and  O_19
                            x       y       z     vdW  Elec       q    Type
                         _______ _______ _______ _____ _____    ______ ____

>  <TORSDO>
F 7

$$$$
=
 OpenBabel10262420073D

 27 29  0  0  1  0  0  0  0  0999 V2000
  188.2940  177.9250  143.1140 N   0  0  0  0  0  0  0  0  0  0  0  0
  191.3020  177.1260  140.1440 C   0  0  0  0  0  2  0  0  0  0  0  0
  189.3300  177.9370  142.0650 C   0  0  1  0  0  3  0  0  0  0  0  0
  190.4920  177.1700  142.4870 N   0  0  0  0  0  2  0  0  0  0  0  0
  191.6100  177.5100  141.6010 C   0  0  0  0  0  2  0  0  0  0  0  0
  189.9420  177.6900  139.6940 C   0  0  0  0  0  2  0  0  0  0  0  0
  188.8590  177.3840  140.7150 C   0  0  0  0  0  2  0  0  0  0  0  0
  188.5680  176.8710  144.1230 C   0  0  0  0  0  2  0  0  0  0  0  0
  189.3230  177.7800  147.7530 C   0  0  0  0  0  3  0  0  0  0  0  0
  188.0580  178.1690  148.2060 C   0  0  0  0  0  3  0  0  0  0  0  0
  188.4060  177.3210  145.5540 C   0  0  0  0  0  0  0  0  0  0  0  0
  190.8720  176.9480  145.9980 C   0  0  0  0  0  1  0  0  0  0  0  0
  186.9620  178.1280  147.3360 C   0  0  0  0  0  3  0  0  0  0  0  0
  187.1410  177.7000  146.0170 C   0  0  0  0  0  3  0  0  0  0  0  0
  189.5010  177.3520  146.4360 C   0  0  0  0  0  0  0  0  0  0  0  0
  187.0650  177.6340  142.4860 N   0  0  0  0  0  2  0  0  0  0  0  0
  186.3960  178.8930  142.1960 C   0  0  0  0  0  2  0  0  0  0  0  0
  183.3390  179.0510  144.4150 C   0  0  0  0  0  3  0  0  0  0  0  0
  180.9880  178.9000  143.9520 O   0  0  0  0  0  1  0  0  0  0  0  0
  182.5910  178.6250  142.1470 C   0  0  0  0  0  0  0  0  0  0  0  0
  181.5330  178.4550  141.2570 O   0  0  0  0  0  1  0  0  0  0  0  0
  183.9370  178.6190  141.7020 C   0  0  0  0  0  0  0  0  0  0  0  0
  182.3060  178.8370  143.5070 C   0  0  0  0  0  0  0  0  0  0  0  0
  184.9670  178.8050  142.6410 C   0  0  0  0  0  0  0  0  0  0  0  0
  184.6620  179.0440  143.9820 C   0  0  0  0  0  3  0  0  0  0  0  0
  184.1410  179.4660  139.3470 C   0  0  0  0  0  1  0  0  0  0  0  0
  184.3050  178.4740  140.3500 O   0  0  0  0  0  0  0  0  0  0  0  0
  1  8  1  0  0  0  0
  2  5  1  0  0  0  0
  3  4  1  0  0  0  0
  3  1  1  1  0  0  0
  5  4  1  0  0  0  0
  6  2  1  0  0  0  0
  6  7  1  0  0  0  0
  7  3  1  0  0  0  0
  8 11  1  0  0  0  0
  9 10  1  0  0  0  0
 11 14  2  0  0  0  0
 11 15  1  0  0  0  0
 12 15  1  0  0  0  0
 13 10  2  0  0  0  0
 14 13  1  0  0  0  0
 15  9  2  0  0  0  0
 16  1  1  0  0  0  0
 17 16  1  0  0  0  0
 17 24  1  0  0  0  0
 20 23  1  0  0  0  0
 21 20  1  0  0  0  0
 22 20  2  0  0  0  0
 22 24  1  0  0  0  0
 23 19  1  0  0  0  0
 23 18  2  0  0  0  0
 24 25  2  0  0  0  0
 25 18  1  0  0  0  0
 26 27  1  0  0  0  0
 27 22  1  0  0  0  0
M  END
>  <MODEL>
2

>  <REMARK>
 VINA RESULT:      -8.5      2.596      5.997
  Name = 
  7 active torsions:
  status: ('A' for Active; 'I' for Inactive)
    1  A    between atoms: C_1  and  N_15
    2  A    between atoms: C_1  and  C_18
    3  A    between atoms: N_2  and  C_6
    4  A    between atoms: N_2  and  N_15
    5  A    between atoms: C_6  and  C_17
    6  A    between atoms: C_9  and  N_15
    7  A    between atoms: C_14  and  O_19
                            x       y       z     vdW  Elec       q    Type
                         _______ _______ _______ _____ _____    ______ ____

>  <TORSDO>
F 7

$$$$
=
 OpenBabel10262420073D

 27 29  0  0  1  0  0  0  0  0999 V2000
  187.9370  177.2760  144.0920 N   0  0  0  0  0  0  0  0  0  0  0  0
  184.0980  178.7450  145.3630 C   0  0  0  0  0  2  0  0  0  0  0  0
  186.7610  178.0280  144.5670 C   0  0  1  0  0  3  0  0  0  0  0  0
  185.6540  177.8860  143.6340 N   0  0  0  0  0  2  0  0  0  0  0  0
  184.6610  178.9200  143.9430 C   0  0  0  0  0  2  0  0  0  0  0  0
  185.2300  178.6230  146.4000 C   0  0  0  0  0  2  0  0  0  0  0  0
  186.2700  177.6070  145.9570 C   0  0  0  0  0  2  0  0  0  0  0  0
  189.1940  178.0120  144.3800 C   0  0  0  0  0  2  0  0  0  0  0  0
  191.9930  175.9770  145.9910 C   0  0  0  0  0  3  0  0  0  0  0  0
  191.7070  176.1460  147.3500 C   0  0  0  0  0  3  0  0  0  0  0  0
  190.0820  177.3520  145.4070 C   0  0  0  0  0  0  0  0  0  0  0  0
  191.5320  176.3620  143.5810 C   0  0  0  0  0  1  0  0  0  0  0  0
  190.6020  176.9120  147.7400 C   0  0  0  0  0  3  0  0  0  0  0  0
  189.7930  177.5070  146.7680 C   0  0  0  0  0  3  0  0  0  0  0  0
  191.1850  176.5700  145.0200 C   0  0  0  0  0  0  0  0  0  0  0  0
  187.8100  177.1370  142.6950 N   0  0  0  0  0  2  0  0  0  0  0  0
  188.6220  178.1650  142.0630 C   0  0  0  0  0  2  0  0  0  0  0  0
  190.0490  176.5710  138.9460 C   0  0  0  0  0  3  0  0  0  0  0  0
  189.3050  176.5170  136.6640 O   0  0  0  0  0  1  0  0  0  0  0  0
  188.0580  177.7980  138.3080 C   0  0  0  0  0  0  0  0  0  0  0  0
  187.1510  178.1580  137.3140 O   0  0  0  0  0  1  0  0  0  0  0  0
  187.8820  178.2160  139.6510 C   0  0  0  0  0  0  0  0  0  0  0  0
  189.1480  176.9800  137.9670 C   0  0  0  0  0  0  0  0  0  0  0  0
  188.8210  177.8170  140.6180 C   0  0  0  0  0  0  0  0  0  0  0  0
  189.8820  176.9800  140.2660 C   0  0  0  0  0  3  0  0  0  0  0  0
  185.4300  178.5590  140.0710 C   0  0  0  0  0  1  0  0  0  0  0  0
  186.7850  178.9850  140.0850 O   0  0  0  0  0  0  0  0  0  0  0  0
  1  8  1  0  0  0  0
  2  6  1  0  0  0  0
  3  1  1  6  0  0  0
  3  7  1  0  0  0  0
  4  5  1  0  0  0  0
  4  3  1  0  0  0  0
  5  2  1  0  0  0  0
  7  6  1  0  0  0  0
  8 11  1  0  0  0  0
  9 10  1  0  0  0  0
 10 13  2  0  0  0  0
 11 14  2  0  0  0  0
 12 15  1  0  0  0  0
 14 13  1  0  0  0  0
 15 11  1  0  0  0  0
 15  9  2  0  0  0  0
 16  1  1  0  0  0  0
 17 16  1  0  0  0  0
 18 25  1  0  0  0  0
 19 23  1  0  0  0  0
 20 22  2  0  0  0  0
 21 20  1  0  0  0  0
 22 27  1  0  0  0  0
 22 24  1  0  0  0  0
 23 20  1  0  0  0  0
 23 18  2  0  0  0  0
 24 17  1  0  0  0  0
 25 24  2  0  0  0  0
 26 27  1  0  0  0  0
M  END
>  <MODEL>
3

>  <REMARK>
 VINA RESULT:      -8.5      1.261      4.488
  Name = 
  7 active torsions:
  status: ('A' for Active; 'I' for Inactive)
    1  A    between atoms: C_1  and  N_15
    2  A    between atoms: C_1  and  C_18
    3  A    between atoms: N_2  and  C_6
    4  A    between atoms: N_2  and  N_15
    5  A    between atoms: C_6  and  C_17
    6  A    between atoms: C_9  and  N_15
    7  A    between atoms: C_14  and  O_19
                            x       y       z     vdW  Elec       q    Type
                         _______ _______ _______ _____ _____    ______ ____

>  <TORSDO>
F 7

$$$$
=
 OpenBabel10262420073D

 27 29  0  0  1  0  0  0  0  0999 V2000
  187.7890  177.9440  143.3260 N   0  0  0  0  0  0  0  0  0  0  0  0
  191.6270  177.4240  141.4530 C   0  0  0  0  0  2  0  0  0  0  0  0
  189.1210  177.5300  142.8480 C   0  0  1  0  0  3  0  0  0  0  0  0
  189.1480  177.4800  141.3950 N   0  0  0  0  0  2  0  0  0  0  0  0
  190.3390  176.7260  140.9860 C   0  0  0  0  0  2  0  0  0  0  0  0
  191.5700  177.7520  142.9560 C   0  0  0  0  0  2  0  0  0  0  0  0
  190.2630  178.4400  143.3160 C   0  0  0  0  0  2  0  0  0  0  0  0
  187.2880  177.0210  144.3760 C   0  0  0  0  0  2  0  0  0  0  0  0
  187.0930  178.5100  147.8860 C   0  0  0  0  0  3  0  0  0  0  0  0
  188.3460  178.1620  148.4010 C   0  0  0  0  0  3  0  0  0  0  0  0
  187.6430  177.4290  145.7850 C   0  0  0  0  0  0  0  0  0  0  0  0
  185.3880  178.5450  146.0790 C   0  0  0  0  0  1  0  0  0  0  0  0
  189.2550  177.4540  147.6060 C   0  0  0  0  0  3  0  0  0  0  0  0
  188.9010  177.0950  146.3020 C   0  0  0  0  0  3  0  0  0  0  0  0
  186.7390  178.1520  146.5840 C   0  0  0  0  0  0  0  0  0  0  0  0
  186.9120  177.8860  142.2240 N   0  0  0  0  0  2  0  0  0  0  0  0
  186.2360  179.1700  142.1160 C   0  0  0  0  0  2  0  0  0  0  0  0
  182.5260  178.6600  142.6350 C   0  0  0  0  0  3  0  0  0  0  0  0
  180.6670  178.6030  141.1150 O   0  0  0  0  0  1  0  0  0  0  0  0
  182.9230  178.8620  140.2510 C   0  0  0  0  0  0  0  0  0  0  0  0
  182.4020  178.9260  138.9600 O   0  0  0  0  0  1  0  0  0  0  0  0
  184.3120  179.0010  140.4910 C   0  0  0  0  0  0  0  0  0  0  0  0
  182.0400  178.6870  141.3300 C   0  0  0  0  0  0  0  0  0  0  0  0
  184.7850  178.9390  141.8140 C   0  0  0  0  0  0  0  0  0  0  0  0
  183.8900  178.7940  142.8760 C   0  0  0  0  0  3  0  0  0  0  0  0
  185.6860  178.2830  138.5160 C   0  0  0  0  0  1  0  0  0  0  0  0
  185.2550  179.2400  139.4720 O   0  0  0  0  0  0  0  0  0  0  0  0
  1  8  1  0  0  0  0
  2  6  1  0  0  0  0
  3  7  1  0  0  0  0
  3  1  1  6  0  0  0
  4  3  1  0  0  0  0
  5  4  1  0  0  0  0
  5  2  1  0  0  0  0
  6  7  1  0  0  0  0
  8 11  1  0  0  0  0
  9 10  1  0  0  0  0
 11 14  2  0  0  0  0
 11 15  1  0  0  0  0
 12 15  1  0  0  0  0
 13 10  2  0  0  0  0
 14 13  1  0  0  0  0
 15  9  2  0  0  0  0
 16  1  1  0  0  0  0
 17 16  1  0  0  0  0
 18 25  1  0  0  0  0
 19 23  1  0  0  0  0
 20 22  2  0  0  0  0
 20 23  1  0  0  0  0
 21 20  1  0  0  0  0
 22 24  1  0  0  0  0
 23 18  2  0  0  0  0
 24 17  1  0  0  0  0
 24 25  2  0  0  0  0
 26 27  1  0  0  0  0
 27 22  1  0  0  0  0
M  END
>  <MODEL>
4

>  <REMARK>
 VINA RESULT:      -8.5      2.510      5.266
  Name = 
  7 active torsions:
  status: ('A' for Active; 'I' for Inactive)
    1  A    between atoms: C_1  and  N_15
    2  A    between atoms: C_1  and  C_18
    3  A    between atoms: N_2  and  C_6
    4  A    between atoms: N_2  and  N_15
    5  A    between atoms: C_6  and  C_17
    6  A    between atoms: C_9  and  N_15
    7  A    between atoms: C_14  and  O_19
                            x       y       z     vdW  Elec       q    Type
                         _______ _______ _______ _____ _____    ______ ____

>  <TORSDO>
F 7

$$$$
=
 OpenBabel10262420073D

 27 29  0  0  1  0  0  0  0  0999 V2000
  187.8910  177.2470  144.4850 N   0  0  0  0  0  0  0  0  0  0  0  0
  183.8900  178.6760  145.1580 C   0  0  0  0  0  2  0  0  0  0  0  0
  186.6480  177.9910  144.7580 C   0  0  1  0  0  3  0  0  0  0  0  0
  185.6770  177.7680  143.6980 N   0  0  0  0  0  2  0  0  0  0  0  0
  184.6310  178.7890  143.8150 C   0  0  0  0  0  2  0  0  0  0  0  0
  184.8770  178.6420  146.3390 C   0  0  0  0  0  2  0  0  0  0  0  0
  185.9870  177.6320  146.0940 C   0  0  0  0  0  2  0  0  0  0  0  0
  189.0820  178.0150  144.9290 C   0  0  0  0  0  2  0  0  0  0  0  0
  191.0930  176.3530  147.7170 C   0  0  0  0  0  3  0  0  0  0  0  0
  192.0540  175.6520  146.9810 C   0  0  0  0  0  3  0  0  0  0  0  0
  190.1150  177.1940  145.6620 C   0  0  0  0  0  0  0  0  0  0  0  0
  189.1230  177.8560  147.8970 C   0  0  0  0  0  1  0  0  0  0  0  0
  192.0530  175.7270  145.5830 C   0  0  0  0  0  3  0  0  0  0  0  0
  191.0870  176.5000  144.9310 C   0  0  0  0  0  3  0  0  0  0  0  0
  190.1290  177.1260  147.0670 C   0  0  0  0  0  0  0  0  0  0  0  0
  187.9730  177.0640  143.0890 N   0  0  0  0  0  2  0  0  0  0  0  0
  188.7300  178.1730  142.5310 C   0  0  0  0  0  2  0  0  0  0  0  0
  190.3940  176.7380  139.4540 C   0  0  0  0  0  3  0  0  0  0  0  0
  189.8010  176.7630  137.1270 O   0  0  0  0  0  1  0  0  0  0  0  0
  188.4200  177.9500  138.7350 C   0  0  0  0  0  0  0  0  0  0  0  0
  187.5710  178.3310  137.6990 O   0  0  0  0  0  1  0  0  0  0  0  0
  188.1480  178.3080  140.0790 C   0  0  0  0  0  0  0  0  0  0  0  0
  189.5480  177.1690  138.4350 C   0  0  0  0  0  0  0  0  0  0  0  0
  189.0310  177.8890  141.0900 C   0  0  0  0  0  0  0  0  0  0  0  0
  190.1310  177.0890  140.7750 C   0  0  0  0  0  3  0  0  0  0  0  0
  185.6630  178.6240  140.2660 C   0  0  0  0  0  1  0  0  0  0  0  0
  187.0070  179.0360  140.4710 O   0  0  0  0  0  0  0  0  0  0  0  0
  1  8  1  0  0  0  0
  2  6  1  0  0  0  0
  3  1  1  6  0  0  0
  3  7  1  0  0  0  0
  4  5  1  0  0  0  0
  4  3  1  0  0  0  0
  5  2  1  0  0  0  0
  7  6  1  0  0  0  0
  8 11  1  0  0  0  0
 10  9  2  0  0  0  0
 11 15  2  0  0  0  0
 13 10  1  0  0  0  0
 14 13  2  0  0  0  0
 14 11  1  0  0  0  0
 15  9  1  0  0  0  0
 15 12  1  0  0  0  0
 16  1  1  0  0  0  0
 17 16  1  0  0  0  0
 18 25  1  0  0  0  0
 19 23  1  0  0  0  0
 20 22  2  0  0  0  0
 21 20  1  0  0  0  0
 22 27  1  0  0  0  0
 22 24  1  0  0  0  0
 23 20  1  0  0  0  0
 23 18  2  0  0  0  0
 24 17  1  0  0  0  0
 25 24  2  0  0  0  0
 26 27  1  0  0  0  0
M  END
>  <MODEL>
5

>  <REMARK>
 VINA RESULT:      -8.3      1.259      4.679
  Name = 
  7 active torsions:
  status: ('A' for Active; 'I' for Inactive)
    1  A    between atoms: C_1  and  N_15
    2  A    between atoms: C_1  and  C_18
    3  A    between atoms: N_2  and  C_6
    4  A    between atoms: N_2  and  N_15
    5  A    between atoms: C_6  and  C_17
    6  A    between atoms: C_9  and  N_15
    7  A    between atoms: C_14  and  O_19
                            x       y       z     vdW  Elec       q    Type
                         _______ _______ _______ _____ _____    ______ ____

>  <TORSDO>
F 7

$$$$
=
 OpenBabel10262420073D

 27 29  0  0  1  0  0  0  0  0999 V2000
  188.5490  177.7890  144.3350 N   0  0  0  0  0  0  0  0  0  0  0  0
  191.2370  176.3190  147.3540 C   0  0  0  0  0  2  0  0  0  0  0  0
  189.6050  177.5370  145.3320 C   0  0  1  0  0  3  0  0  0  0  0  0
  189.0210  177.1410  146.6040 N   0  0  0  0  0  2  0  0  0  0  0  0
  190.0560  177.2610  147.6380 C   0  0  0  0  0  2  0  0  0  0  0  0
  191.7570  176.4930  145.9150 C   0  0  0  0  0  2  0  0  0  0  0  0
  190.6130  176.4590  144.9140 C   0  0  0  0  0  2  0  0  0  0  0  0
  187.2810  177.1160  144.7180 C   0  0  0  0  0  2  0  0  0  0  0  0
  184.1460  179.2830  144.9410 C   0  0  0  0  0  3  0  0  0  0  0  0
  183.7210  179.2870  143.6080 C   0  0  0  0  0  3  0  0  0  0  0  0
  186.0340  177.8790  144.3460 C   0  0  0  0  0  0  0  0  0  0  0  0
  185.7080  178.6070  146.7510 C   0  0  0  0  0  1  0  0  0  0  0  0
  184.4470  178.5800  142.6420 C   0  0  0  0  0  3  0  0  0  0  0  0
  185.5960  177.8770  143.0160 C   0  0  0  0  0  3  0  0  0  0  0  0
  185.2930  178.5800  145.3150 C   0  0  0  0  0  0  0  0  0  0  0  0
  188.9900  177.2470  143.1100 N   0  0  0  0  0  2  0  0  0  0  0  0
  189.1850  178.3440  142.1740 C   0  0  0  0  0  2  0  0  0  0  0  0
  187.5490  177.8770  138.7980 C   0  0  0  0  0  3  0  0  0  0  0  0
  188.2770  176.8060  136.7760 O   0  0  0  0  0  1  0  0  0  0  0  0
  189.6900  176.7390  138.7510 C   0  0  0  0  0  0  0  0  0  0  0  0
  190.6370  176.0180  138.0280 O   0  0  0  0  0  1  0  0  0  0  0  0
  189.9230  177.1160  140.0970 C   0  0  0  0  0  0  0  0  0  0  0  0
  188.4980  177.1210  138.1140 C   0  0  0  0  0  0  0  0  0  0  0  0
  188.9380  177.8520  140.7790 C   0  0  0  0  0  0  0  0  0  0  0  0
  187.7720  178.2480  140.1210 C   0  0  0  0  0  3  0  0  0  0  0  0
  192.3540  177.4930  140.5980 C   0  0  0  0  0  1  0  0  0  0  0  0
  191.1150  176.8250  140.7880 O   0  0  0  0  0  0  0  0  0  0  0  0
  1  8  1  0  0  0  0
  2  5  1  0  0  0  0
  3  1  1  6  0  0  0
  3  4  1  0  0  0  0
  4  5  1  0  0  0  0
  6  2  1  0  0  0  0
  7  3  1  0  0  0  0
  7  6  1  0  0  0  0
  9 15  1  0  0  0  0
 10  9  2  0  0  0  0
 11  8  1  0  0  0  0
 11 15  2  0  0  0  0
 13 14  2  0  0  0  0
 13 10  1  0  0  0  0
 14 11  1  0  0  0  0
 15 12  1  0  0  0  0
 16  1  1  0  0  0  0
 17 16  1  0  0  0  0
 18 25  1  0  0  0  0
 19 23  1  0  0  0  0
 20 22  2  0  0  0  0
 21 20  1  0  0  0  0
 22 24  1  0  0  0  0
 22 27  1  0  0  0  0
 23 20  1  0  0  0  0
 23 18  2  0  0  0  0
 24 17  1  0  0  0  0
 25 24  2  0  0  0  0
 26 27  1  0  0  0  0
M  END
>  <MODEL>
6

>  <REMARK>
 VINA RESULT:      -8.3      1.449      2.758
  Name = 
  7 active torsions:
  status: ('A' for Active; 'I' for Inactive)
    1  A    between atoms: C_1  and  N_15
    2  A    between atoms: C_1  and  C_18
    3  A    between atoms: N_2  and  C_6
    4  A    between atoms: N_2  and  N_15
    5  A    between atoms: C_6  and  C_17
    6  A    between atoms: C_9  and  N_15
    7  A    between atoms: C_14  and  O_19
                            x       y       z     vdW  Elec       q    Type
                         _______ _______ _______ _____ _____    ______ ____

>  <TORSDO>
F 7

$$$$
=
 OpenBabel10262420073D

 27 29  0  0  1  0  0  0  0  0999 V2000
  187.8820  177.1970  144.4200 N   0  0  0  0  0  0  0  0  0  0  0  0
  183.9410  178.7760  145.1150 C   0  0  0  0  0  2  0  0  0  0  0  0
  186.6700  177.9830  144.7190 C   0  0  1  0  0  3  0  0  0  0  0  0
  185.7100  177.8710  143.6320 N   0  0  0  0  0  2  0  0  0  0  0  0
  184.7110  178.9330  143.7940 C   0  0  0  0  0  2  0  0  0  0  0  0
  184.9030  178.6240  146.3070 C   0  0  0  0  0  2  0  0  0  0  0  0
  185.9680  177.5780  146.0200 C   0  0  0  0  0  2  0  0  0  0  0  0
  189.1100  177.9500  144.7830 C   0  0  0  0  0  2  0  0  0  0  0  0
  191.0660  176.3710  147.6560 C   0  0  0  0  0  3  0  0  0  0  0  0
  192.0340  175.6410  146.9590 C   0  0  0  0  0  3  0  0  0  0  0  0
  190.1260  177.1490  145.5590 C   0  0  0  0  0  0  0  0  0  0  0  0
  189.1020  177.8890  147.7540 C   0  0  0  0  0  1  0  0  0  0  0  0
  192.0560  175.6700  145.5600 C   0  0  0  0  0  3  0  0  0  0  0  0
  191.1050  176.4260  144.8670 C   0  0  0  0  0  3  0  0  0  0  0  0
  190.1170  177.1270  146.9650 C   0  0  0  0  0  0  0  0  0  0  0  0
  187.8970  176.9610  143.0300 N   0  0  0  0  0  2  0  0  0  0  0  0
  188.6610  178.0250  142.3980 C   0  0  0  0  0  2  0  0  0  0  0  0
  187.8300  178.0980  138.7110 C   0  0  0  0  0  3  0  0  0  0  0  0
  189.0280  177.3680  136.7620 O   0  0  0  0  0  1  0  0  0  0  0  0
  189.9730  176.9920  138.9690 C   0  0  0  0  0  0  0  0  0  0  0  0
  191.0840  176.4010  138.3730 O   0  0  0  0  0  1  0  0  0  0  0  0
  189.8870  177.1490  140.3750 C   0  0  0  0  0  0  0  0  0  0  0  0
  188.9350  177.4660  138.1480 C   0  0  0  0  0  0  0  0  0  0  0  0
  188.7480  177.7620  140.9250 C   0  0  0  0  0  0  0  0  0  0  0  0
  187.7400  178.2530  140.0910 C   0  0  0  0  0  3  0  0  0  0  0  0
  192.0870  177.5030  141.5320 C   0  0  0  0  0  1  0  0  0  0  0  0
  190.9090  176.7580  141.2610 O   0  0  0  0  0  0  0  0  0  0  0  0
  1  8  1  0  0  0  0
  2  6  1  0  0  0  0
  3  1  1  6  0  0  0
  3  7  1  0  0  0  0
  4  5  1  0  0  0  0
  4  3  1  0  0  0  0
  5  2  1  0  0  0  0
  7  6  1  0  0  0  0
  8 11  1  0  0  0  0
 10  9  2  0  0  0  0
 11 15  2  0  0  0  0
 13 10  1  0  0  0  0
 14 11  1  0  0  0  0
 14 13  2  0  0  0  0
 15  9  1  0  0  0  0
 15 12  1  0  0  0  0
 16  1  1  0  0  0  0
 17 16  1  0  0  0  0
 18 25  1  0  0  0  0
 19 23  1  0  0  0  0
 20 22  2  0  0  0  0
 21 20  1  0  0  0  0
 22 24  1  0  0  0  0
 22 27  1  0  0  0  0
 23 18  2  0  0  0  0
 23 20  1  0  0  0  0
 24 17  1  0  0  0  0
 25 24  2  0  0  0  0
 27 26  1  0  0  0  0
M  END
>  <MODEL>
7

>  <REMARK>
 VINA RESULT:      -8.2      1.496      5.010
  Name = 
  7 active torsions:
  status: ('A' for Active; 'I' for Inactive)
    1  A    between atoms: C_1  and  N_15
    2  A    between atoms: C_1  and  C_18
    3  A    between atoms: N_2  and  C_6
    4  A    between atoms: N_2  and  N_15
    5  A    between atoms: C_6  and  C_17
    6  A    between atoms: C_9  and  N_15
    7  A    between atoms: C_14  and  O_19
                            x       y       z     vdW  Elec       q    Type
                         _______ _______ _______ _____ _____    ______ ____

>  <TORSDO>
F 7

$$$$
=
 OpenBabel10262420073D

 27 29  0  0  1  0  0  0  0  0999 V2000
  189.1920  177.7610  141.5510 N   0  0  0  0  0  0  0  0  0  0  0  0
  188.3490  177.5020  137.3400 C   0  0  0  0  0  2  0  0  0  0  0  0
  188.7590  177.4340  140.1800 C   0  0  1  0  0  3  0  0  0  0  0  0
  188.1180  178.5840  139.5600 N   0  0  0  0  0  2  0  0  0  0  0  0
  187.3920  178.1160  138.3740 C   0  0  0  0  0  2  0  0  0  0  0  0
  189.2600  176.4400  137.9850 C   0  0  0  0  0  2  0  0  0  0  0  0
  189.8940  176.9670  139.2620 C   0  0  0  0  0  2  0  0  0  0  0  0
  190.6580  177.5810  141.7050 C   0  0  0  0  0  2  0  0  0  0  0  0
  191.6860  177.4940  145.3810 C   0  0  0  0  0  3  0  0  0  0  0  0
  191.8770  176.1230  145.5790 C   0  0  0  0  0  3  0  0  0  0  0  0
  191.0850  177.0870  143.0660 C   0  0  0  0  0  0  0  0  0  0  0  0
  191.1040  179.4540  143.9690 C   0  0  0  0  0  1  0  0  0  0  0  0
  191.6800  175.2310  144.5190 C   0  0  0  0  0  3  0  0  0  0  0  0
  191.2900  175.7170  143.2670 C   0  0  0  0  0  3  0  0  0  0  0  0
  191.2970  177.9800  144.1310 C   0  0  0  0  0  0  0  0  0  0  0  0
  188.5370  176.8650  142.4230 N   0  0  0  0  0  2  0  0  0  0  0  0
  187.2580  177.4500  142.7950 C   0  0  0  0  0  2  0  0  0  0  0  0
  188.3030  177.4240  146.4280 C   0  0  0  0  0  3  0  0  0  0  0  0
  187.1840  178.0970  148.4440 O   0  0  0  0  0  1  0  0  0  0  0  0
  186.0140  178.2180  146.3180 C   0  0  0  0  0  0  0  0  0  0  0  0
  184.8990  178.7240  146.9810 O   0  0  0  0  0  1  0  0  0  0  0  0
  186.0240  178.0570  144.9100 C   0  0  0  0  0  0  0  0  0  0  0  0
  187.1580  177.8930  147.0670 C   0  0  0  0  0  0  0  0  0  0  0  0
  187.1790  177.5520  144.2890 C   0  0  0  0  0  0  0  0  0  0  0  0
  188.3160  177.2620  145.0460 C   0  0  0  0  0  3  0  0  0  0  0  0
  184.4990  179.7440  143.8460 C   0  0  0  0  0  1  0  0  0  0  0  0
  184.9420  178.4160  144.0820 O   0  0  0  0  0  0  0  0  0  0  0  0
  1  8  1  0  0  0  0
  1 16  1  0  0  0  0
  2  6  1  0  0  0  0
  2  5  1  0  0  0  0
  3  1  1  1  0  0  0
  4  3  1  0  0  0  0
  5  4  1  0  0  0  0
  6  7  1  0  0  0  0
  7  3  1  0  0  0  0
  8 11  1  0  0  0  0
  9 10  1  0  0  0  0
 11 14  2  0  0  0  0
 11 15  1  0  0  0  0
 12 15  1  0  0  0  0
 13 10  2  0  0  0  0
 14 13  1  0  0  0  0
 15  9  2  0  0  0  0
 16 17  1  0  0  0  0
 17 24  1  0  0  0  0
 18 23  1  0  0  0  0
 20 21  1  0  0  0  0
 20 23  2  0  0  0  0
 22 20  1  0  0  0  0
 23 19  1  0  0  0  0
 24 22  2  0  0  0  0
 24 25  1  0  0  0  0
 25 18  2  0  0  0  0
 26 27  1  0  0  0  0
 27 22  1  0  0  0  0
M  END
>  <MODEL>
8

>  <REMARK>
 VINA RESULT:      -8.2      3.107      7.168
  Name = 
  7 active torsions:
  status: ('A' for Active; 'I' for Inactive)
    1  A    between atoms: C_1  and  N_15
    2  A    between atoms: C_1  and  C_18
    3  A    between atoms: N_2  and  C_6
    4  A    between atoms: N_2  and  N_15
    5  A    between atoms: C_6  and  C_17
    6  A    between atoms: C_9  and  N_15
    7  A    between atoms: C_14  and  O_19
                            x       y       z     vdW  Elec       q    Type
                         _______ _______ _______ _____ _____    ______ ____

>  <TORSDO>
F 7

$$$$
=
 OpenBabel10262420073D

 27 29  0  0  1  0  0  0  0  0999 V2000
  187.1110  177.9700  141.4440 N   0  0  0  0  0  0  0  0  0  0  0  0
  188.4340  178.5690  137.3940 C   0  0  0  0  0  2  0  0  0  0  0  0
  187.5860  177.8880  140.0500 C   0  0  1  0  0  3  0  0  0  0  0  0
  186.6990  178.6280  139.1650 N   0  0  0  0  0  2  0  0  0  0  0  0
  186.9890  178.2210  137.7860 C   0  0  0  0  0  2  0  0  0  0  0  0
  189.4370  178.0380  138.4350 C   0  0  0  0  0  2  0  0  0  0  0  0
  189.0110  178.4140  139.8450 C   0  0  0  0  0  2  0  0  0  0  0  0
  186.3050  179.1980  141.6620 C   0  0  0  0  0  2  0  0  0  0  0  0
  182.7830  178.5360  142.9750 C   0  0  0  0  0  3  0  0  0  0  0  0
  182.9730  178.6820  144.3540 C   0  0  0  0  0  3  0  0  0  0  0  0
  185.1290  179.0160  142.5900 C   0  0  0  0  0  0  0  0  0  0  0  0
  183.5980  178.5380  140.6290 C   0  0  0  0  0  1  0  0  0  0  0  0
  184.2400  179.0030  144.8530 C   0  0  0  0  0  3  0  0  0  0  0  0
  185.3100  179.1730  143.9690 C   0  0  0  0  0  3  0  0  0  0  0  0
  183.8510  178.7060  142.0930 C   0  0  0  0  0  0  0  0  0  0  0  0
  188.2500  178.0300  142.2730 N   0  0  0  0  0  2  0  0  0  0  0  0
  188.2860  176.8200  143.0800 C   0  0  0  0  0  2  0  0  0  0  0  0
  187.9850  177.7320  146.7360 C   0  0  0  0  0  3  0  0  0  0  0  0
  189.5960  177.8800  148.5110 O   0  0  0  0  0  1  0  0  0  0  0  0
  190.3300  177.3400  146.2580 C   0  0  0  0  0  0  0  0  0  0  0  0
  191.6390  177.2480  146.7260 O   0  0  0  0  0  1  0  0  0  0  0  0
  190.0120  177.0780  144.9020 C   0  0  0  0  0  0  0  0  0  0  0  0
  189.3090  177.6710  147.1640 C   0  0  0  0  0  0  0  0  0  0  0  0
  188.6730  177.1760  144.4840 C   0  0  0  0  0  0  0  0  0  0  0  0
  187.6680  177.4780  145.4050 C   0  0  0  0  0  3  0  0  0  0  0  0
  191.6810  175.4530  143.9630 C   0  0  0  0  0  1  0  0  0  0  0  0
  190.9670  176.6810  143.9460 O   0  0  0  0  0  0  0  0  0  0  0  0
  1  8  1  0  0  0  0
  1 16  1  0  0  0  0
  2  5  1  0  0  0  0
  2  6  1  0  0  0  0
  3  1  1  1  0  0  0
  4  3  1  0  0  0  0
  5  4  1  0  0  0  0
  6  7  1  0  0  0  0
  7  3  1  0  0  0  0
  8 11  1  0  0  0  0
  9 10  1  0  0  0  0
 10 13  2  0  0  0  0
 11 14  2  0  0  0  0
 12 15  1  0  0  0  0
 14 13  1  0  0  0  0
 15 11  1  0  0  0  0
 15  9  2  0  0  0  0
 16 17  1  0  0  0  0
 17 24  1  0  0  0  0
 18 23  1  0  0  0  0
 20 21  1  0  0  0  0
 20 23  2  0  0  0  0
 22 20  1  0  0  0  0
 23 19  1  0  0  0  0
 24 22  2  0  0  0  0
 24 25  1  0  0  0  0
 25 18  2  0  0  0  0
 27 26  1  0  0  0  0
 27 22  1  0  0  0  0
M  END
>  <MODEL>
9

>  <REMARK>
 VINA RESULT:      -8.1      3.208      6.305
  Name = 
  7 active torsions:
  status: ('A' for Active; 'I' for Inactive)
    1  A    between atoms: C_1  and  N_15
    2  A    between atoms: C_1  and  C_18
    3  A    between atoms: N_2  and  C_6
    4  A    between atoms: N_2  and  N_15
    5  A    between atoms: C_6  and  C_17
    6  A    between atoms: C_9  and  N_15
    7  A    between atoms: C_14  and  O_19
                            x       y       z     vdW  Elec       q    Type
                         _______ _______ _______ _____ _____    ______ ____

>  <TORSDO>
F 7

$$$$
