=
 OpenBabel10262420173D

 55 61  0  0  1  0  0  0  0  0999 V2000
  185.1790  179.1030  139.7110 C   0  0  1  0  0  3  0  0  0  0  0  0
  182.0720  177.8770  143.0520 C   0  0  0  0  0  2  0  0  0  0  0  0
  179.3040  178.5000  140.7050 C   0  0  0  0  0  1  0  0  0  0  0  0
  179.8070  180.3950  138.2180 C   0  0  0  0  0  3  0  0  0  0  0  0
  178.9410  180.7850  137.1920 C   0  0  0  0  0  3  0  0  0  0  0  0
  181.1390  179.1350  136.6250 C   0  0  0  0  0  0  0  0  0  0  0  0
  180.2670  179.5270  135.6020 C   0  0  0  0  0  3  0  0  0  0  0  0
  181.4380  179.4320  140.4330 C   0  0  0  0  0  2  0  0  0  0  0  0
  179.1700  180.3460  135.8850 C   0  0  0  0  0  3  0  0  0  0  0  0
  186.9300  177.4100  139.1710 N   0  0  0  0  0  2  0  0  0  0  0  0
  180.9120  179.5570  137.9550 C   0  0  0  0  0  0  0  0  0  0  0  0
  186.0880  178.2360  141.9320 C   0  0  0  0  0  0  0  0  0  0  0  0
  184.0070  178.1080  139.7190 C   0  0  0  0  0  2  0  0  0  0  0  0
  185.6850  179.4440  141.1160 C   0  0  0  0  0  2  0  0  0  0  0  0
  183.1370  177.9420  137.3300 C   0  0  0  0  0  0  0  0  0  0  0  0
  183.1510  178.5870  142.5250 O   0  0  0  0  0  0  0  0  0  0  0  0
  182.2390  178.3210  136.3300 C   0  0  0  0  0  3  0  0  0  0  0  0
  180.7850  178.4730  142.4840 C   0  0  0  0  0  2  0  0  0  0  0  0
  180.7050  178.3160  141.0310 N   0  0  0  0  0  0  0  0  0  0  0  0
  187.8900  177.6960  140.2260 C   0  0  0  0  0  2  0  0  0  0  0  0
  186.3260  178.6820  138.7750 C   0  0  0  0  0  2  0  0  0  0  0  0
  181.7830  179.1460  138.9870 C   0  0  0  0  0  0  0  0  0  0  0  0
  182.9610  178.3990  138.6600 C   0  0  0  0  0  0  0  0  0  0  0  0
  184.1510  178.6110  143.5060 C   0  0  1  0  0  3  0  0  0  0  0  0
  185.3840  177.8920  143.0140 C   0  0  0  0  0  3  0  0  0  0  0  0
  187.2750  177.3710  141.5850 C   0  0  0  0  0  2  0  0  0  0  0  0
  184.2110  175.6960  137.5280 C   0  0  0  0  0  3  0  0  0  0  0  0
  186.2430  175.1450  136.3120 C   0  0  0  0  0  0  0  0  0  0  0  0
  185.2250  177.3470  136.0750 C   0  0  0  0  0  3  0  0  0  0  0  0
  186.2480  176.4350  135.7560 C   0  0  0  0  0  3  0  0  0  0  0  0
  185.2340  174.7910  137.2160 C   0  0  0  0  0  3  0  0  0  0  0  0
  184.2200  176.9880  136.9770 C   0  0  0  0  0  0  0  0  0  0  0  0
  187.3400  174.2000  136.0270 C   0  0  0  0  0  0  0  0  0  0  0  0
  188.6270  174.7170  135.8610 O   0  0  0  0  0  0  0  0  0  0  0  0
  187.2190  172.9720  136.2760 O   0  0  0  0  0  1  0  0  0  0  0  0
  184.4580  180.0480  143.9300 C   0  0  0  0  0  2  0  0  0  0  0  0
  185.4580  180.0290  145.0840 C   0  0  0  0  0  2  0  0  0  0  0  0
  185.3100  178.7190  145.8500 C   0  0  0  0  0  2  0  0  0  0  0  0
  186.3240  176.5400  145.9010 O   0  0  0  0  0  1  0  0  0  0  0  0
  186.6200  177.9060  145.8240 C   0  0  2  0  0  3  0  0  0  0  0  0
  187.5660  178.3590  146.9520 C   0  0  1  0  0  3  0  0  0  0  0  0
  186.8080  178.6380  148.2730 C   0  0  0  0  0  1  0  0  0  0  0  0
  188.5340  176.3810  148.0170 O   0  0  0  0  0  1  0  0  0  0  0  0
  189.9570  178.2190  147.9710 C   0  0  0  0  0  2  0  0  0  0  0  0
  188.8530  177.5080  147.2300 C   0  0  2  0  0  0  0  0  0  0  0  0
  191.1990  176.4830  146.4130 C   0  0  1  0  0  3  0  0  0  0  0  0
  189.8520  177.1540  146.0920 C   0  0  2  0  0  0  0  0  0  0  0  0
  190.9530  177.9180  146.8650 C   0  0  1  0  0  3  0  0  0  0  0  0
  191.1020  175.5240  147.5080 N   0  0  0  0  0  2  0  0  0  0  0  0
  192.4300  175.3680  148.0860 C   0  0  0  0  0  1  0  0  0  0  0  0
  189.6780  177.8110  144.6860 C   0  0  0  0  0  2  0  0  0  0  0  0
  190.5960  177.3060  143.5270 C   0  0  1  0  0  3  0  0  0  0  0  0
  190.1810  175.6280  142.9070 S   0  0  0  0  0  1  0  0  0  0  0  0
  190.7470  178.2480  142.4550 O   0  0  0  0  0  0  0  0  0  0  0  0
  191.4300  177.6170  141.4010 C   0  0  0  0  0  1  0  0  0  0  0  0
  1 21  1  6  0  0  0
  1 13  1  0  0  0  0
  1 14  1  0  0  0  0
  3 19  1  0  0  0  0
  5  4  2  0  0  0  0
  6 11  1  0  0  0  0
  7  9  2  0  0  0  0
  7  6  1  0  0  0  0
  8 19  1  0  0  0  0
  9  5  1  0  0  0  0
 10 20  1  0  0  0  0
 11  4  1  0  0  0  0
 11 22  2  0  0  0  0
 12 25  2  0  0  0  0
 14 12  1  0  0  0  0
 15 23  2  0  0  0  0
 16  2  1  0  0  0  0
 16 24  1  0  0  0  0
 17  6  2  0  0  0  0
 17 15  1  0  0  0  0
 18  2  1  0  0  0  0
 19 18  1  0  0  0  0
 20 26  1  0  0  0  0
 21 10  1  0  0  0  0
 22  8  1  0  0  0  0
 23 22  1  0  0  0  0
 23 13  1  0  0  0  0
 24 36  1  6  0  0  0
 25 24  1  0  0  0  0
 26 12  1  0  0  0  0
 28 31  2  0  0  0  0
 29 32  1  0  0  0  0
 30 29  2  0  0  0  0
 30 28  1  0  0  0  0
 31 27  1  0  0  0  0
 32 15  1  0  0  0  0
 32 27  2  0  0  0  0
 33 35  1  0  0  0  0
 33 28  1  0  0  0  0
 34 33  2  0  0  0  0
 36 37  1  0  0  0  0
 37 38  1  0  0  0  0
 40 38  1  0  0  0  0
 40 39  1  1  0  0  0
 40 41  1  0  0  0  0
 41 45  1  0  0  0  0
 41 42  1  1  0  0  0
 45 44  1  0  0  0  0
 45 43  1  1  0  0  0
 46 48  1  0  0  0  0
 46 49  1  1  0  0  0
 47 51  1  6  0  0  0
 47 46  1  0  0  0  0
 47 48  1  0  0  0  0
 47 45  1  0  0  0  0
 48 44  1  1  0  0  0
 49 50  1  0  0  0  0
 52 53  1  6  0  0  0
 52 51  1  0  0  0  0
 54 52  1  0  0  0  0
 55 54  1  0  0  0  0
M  END
>  <MODEL>
1

>  <REMARK>
 VINA RESULT:      -4.8      0.000      0.000
  Name = 
  12 active torsions:
  status: ('A' for Active; 'I' for Inactive)
    1  A    between atoms: C_1  and  O_30
    2  A    between atoms: C_1  and  C_53
    3  A    between atoms: C_6  and  C_14
    4  A    between atoms: C_6  and  C_20
    5  A    between atoms: C_8  and  C_22
    6  A    between atoms: C_8  and  C_43
    7  A    between atoms: C_10  and  C_32
    8  A    between atoms: N_11  and  C_29
    9  A    between atoms: C_20  and  C_22
   10  A    between atoms: C_33  and  C_52
   11  A    between atoms: C_38  and  C_53
   12  A    between atoms: C_43  and  C_51
                            x       y       z     vdW  Elec       q    Type
                         _______ _______ _______ _____ _____    ______ ____

>  <TORSDO>
F 12

$$$$
=
 OpenBabel10262420173D

 55 61  0  0  1  0  0  0  0  0999 V2000
  185.2010  177.1340  136.1370 C   0  0  1  0  0  3  0  0  0  0  0  0
  186.3370  177.8760  140.6620 C   0  0  0  0  0  2  0  0  0  0  0  0
  183.1780  179.7030  141.1540 C   0  0  0  0  0  1  0  0  0  0  0  0
  181.7100  180.9240  138.6270 C   0  0  0  0  0  3  0  0  0  0  0  0
  180.5160  181.6460  138.5400 C   0  0  0  0  0  3  0  0  0  0  0  0
  180.6850  179.0710  137.4390 C   0  0  0  0  0  0  0  0  0  0  0  0
  179.4910  179.7980  137.3570 C   0  0  0  0  0  3  0  0  0  0  0  0
  184.1490  179.3850  139.0440 C   0  0  0  0  0  2  0  0  0  0  0  0
  179.4060  181.0800  137.9090 C   0  0  0  0  0  3  0  0  0  0  0  0
  185.1750  174.7540  135.3910 N   0  0  0  0  0  2  0  0  0  0  0  0
  181.8120  179.6230  138.0900 C   0  0  0  0  0  0  0  0  0  0  0  0
  187.3310  176.0500  137.0300 C   0  0  0  0  0  0  0  0  0  0  0  0
  184.4390  176.8880  137.4480 C   0  0  0  0  0  2  0  0  0  0  0  0
  186.7160  177.2440  136.3360 C   0  0  0  0  0  2  0  0  0  0  0  0
  181.9510  177.0600  136.9230 C   0  0  0  0  0  0  0  0  0  0  0  0
  186.5480  177.8980  139.2830 O   0  0  0  0  0  0  0  0  0  0  0  0
  180.7620  177.7920  136.8770 C   0  0  0  0  0  3  0  0  0  0  0  0
  185.3850  179.0180  141.0170 C   0  0  0  0  0  2  0  0  0  0  0  0
  184.0690  178.8420  140.4000 N   0  0  0  0  0  0  0  0  0  0  0  0
  186.5900  174.5630  135.1100 C   0  0  0  0  0  2  0  0  0  0  0  0
  184.8400  176.1310  135.0270 C   0  0  0  0  0  2  0  0  0  0  0  0
  183.0080  178.8810  138.1850 C   0  0  0  0  0  0  0  0  0  0  0  0
  183.1100  177.6170  137.5200 C   0  0  0  0  0  0  0  0  0  0  0  0
  187.8590  177.4580  139.0570 C   0  0  1  0  0  3  0  0  0  0  0  0
  187.8520  176.1790  138.2540 C   0  0  0  0  0  3  0  0  0  0  0  0
  187.3930  174.6790  136.4020 C   0  0  0  0  0  2  0  0  0  0  0  0
  182.1930  174.6020  137.2880 C   0  0  0  0  0  3  0  0  0  0  0  0
  181.9030  173.0100  135.4730 C   0  0  0  0  0  0  0  0  0  0  0  0
  181.6420  175.4000  135.0690 C   0  0  0  0  0  3  0  0  0  0  0  0
  181.6410  174.0750  134.5950 C   0  0  0  0  0  3  0  0  0  0  0  0
  182.2010  173.2840  136.8140 C   0  0  0  0  0  3  0  0  0  0  0  0
  181.9390  175.6660  136.4080 C   0  0  0  0  0  0  0  0  0  0  0  0
  181.9590  171.6220  134.9760 C   0  0  0  0  0  0  0  0  0  0  0  0
  183.2060  170.9960  134.9150 O   0  0  0  0  0  0  0  0  0  0  0  0
  180.9270  170.9010  134.9500 O   0  0  0  0  0  1  0  0  0  0  0  0
  188.6880  178.5530  138.3830 C   0  0  0  0  0  2  0  0  0  0  0  0
  190.1720  178.2160  138.5210 C   0  0  0  0  0  2  0  0  0  0  0  0
  190.3330  177.0740  139.5170 C   0  0  0  0  0  2  0  0  0  0  0  0
  192.5420  177.5010  140.3620 O   0  0  0  0  0  1  0  0  0  0  0  0
  191.1900  177.5030  140.7250 C   0  0  2  0  0  3  0  0  0  0  0  0
  190.9150  176.5970  141.9400 C   0  0  1  0  0  3  0  0  0  0  0  0
  192.1810  176.3780  142.8040 C   0  0  0  0  0  1  0  0  0  0  0  0
  188.6450  175.9960  142.6260 O   0  0  0  0  0  1  0  0  0  0  0  0
  189.0610  178.2840  142.6380 C   0  0  0  0  0  2  0  0  0  0  0  0
  189.6830  176.9270  142.8500 C   0  0  2  0  0  0  0  0  0  0  0  0
  188.6620  177.7510  145.1960 C   0  0  1  0  0  3  0  0  0  0  0  0
  189.8530  177.2470  144.3620 C   0  0  2  0  0  0  0  0  0  0  0  0
  189.2400  178.6430  144.1030 C   0  0  1  0  0  3  0  0  0  0  0  0
  187.4010  177.1300  144.8070 N   0  0  0  0  0  2  0  0  0  0  0  0
  186.4210  177.4190  145.8450 C   0  0  0  0  0  1  0  0  0  0  0  0
  191.2890  177.4300  144.9500 C   0  0  0  0  0  2  0  0  0  0  0  0
  191.5480  176.9350  146.4090 C   0  0  1  0  0  3  0  0  0  0  0  0
  190.2000  177.3300  147.5930 S   0  0  0  0  0  1  0  0  0  0  0  0
  191.9460  175.5590  146.4930 O   0  0  0  0  0  0  0  0  0  0  0  0
  192.4330  175.3160  147.7890 C   0  0  0  0  0  1  0  0  0  0  0  0
  1 21  1  6  0  0  0
  1 14  1  0  0  0  0
  1 13  1  0  0  0  0
  2 18  1  0  0  0  0
  5  4  1  0  0  0  0
  6 11  1  0  0  0  0
  7  6  2  0  0  0  0
  7  9  1  0  0  0  0
  8 19  1  0  0  0  0
  9  5  2  0  0  0  0
 11 22  1  0  0  0  0
 11  4  2  0  0  0  0
 12 25  2  0  0  0  0
 13 23  1  0  0  0  0
 14 12  1  0  0  0  0
 15 23  1  0  0  0  0
 16  2  1  0  0  0  0
 17 15  2  0  0  0  0
 17  6  1  0  0  0  0
 19 18  1  0  0  0  0
 19  3  1  0  0  0  0
 20 10  1  0  0  0  0
 20 26  1  0  0  0  0
 21 10  1  0  0  0  0
 22  8  1  0  0  0  0
 23 22  2  0  0  0  0
 24 36  1  6  0  0  0
 24 16  1  0  0  0  0
 25 24  1  0  0  0  0
 26 12  1  0  0  0  0
 28 31  2  0  0  0  0
 29 32  1  0  0  0  0
 30 29  2  0  0  0  0
 30 28  1  0  0  0  0
 31 27  1  0  0  0  0
 32 15  1  0  0  0  0
 32 27  2  0  0  0  0
 33 28  1  0  0  0  0
 34 33  2  0  0  0  0
 35 33  1  0  0  0  0
 36 37  1  0  0  0  0
 37 38  1  0  0  0  0
 38 40  1  0  0  0  0
 40 39  1  6  0  0  0
 40 41  1  0  0  0  0
 41 42  1  1  0  0  0
 41 45  1  0  0  0  0
 44 45  1  0  0  0  0
 45 43  1  6  0  0  0
 45 47  1  0  0  0  0
 46 49  1  6  0  0  0
 47 51  1  1  0  0  0
 47 46  1  0  0  0  0
 48 44  1  6  0  0  0
 48 47  1  0  0  0  0
 48 46  1  0  0  0  0
 49 50  1  0  0  0  0
 51 52  1  0  0  0  0
 52 54  1  0  0  0  0
 52 53  1  1  0  0  0
 54 55  1  0  0  0  0
M  END
>  <MODEL>
2

>  <REMARK>
 VINA RESULT:      -4.8      2.602      4.887
  Name = 
  12 active torsions:
  status: ('A' for Active; 'I' for Inactive)
    1  A    between atoms: C_1  and  O_30
    2  A    between atoms: C_1  and  C_53
    3  A    between atoms: C_6  and  C_14
    4  A    between atoms: C_6  and  C_20
    5  A    between atoms: C_8  and  C_22
    6  A    between atoms: C_8  and  C_43
    7  A    between atoms: C_10  and  C_32
    8  A    between atoms: N_11  and  C_29
    9  A    between atoms: C_20  and  C_22
   10  A    between atoms: C_33  and  C_52
   11  A    between atoms: C_38  and  C_53
   12  A    between atoms: C_43  and  C_51
                            x       y       z     vdW  Elec       q    Type
                         _______ _______ _______ _____ _____    ______ ____

>  <TORSDO>
F 12

$$$$
=
 OpenBabel10262420173D

 55 61  0  0  1  0  0  0  0  0999 V2000
  185.0810  176.5050  135.6880 C   0  0  1  0  0  3  0  0  0  0  0  0
  186.0460  178.0570  140.0440 C   0  0  0  0  0  2  0  0  0  0  0  0
  182.7330  179.6520  140.2090 C   0  0  0  0  0  1  0  0  0  0  0  0
  181.2230  180.3200  137.5070 C   0  0  0  0  0  3  0  0  0  0  0  0
  179.9730  180.9110  137.2940 C   0  0  0  0  0  3  0  0  0  0  0  0
  180.3870  178.2180  136.6240 C   0  0  0  0  0  0  0  0  0  0  0  0
  179.1380  178.8140  136.4150 C   0  0  0  0  0  3  0  0  0  0  0  0
  183.7750  179.0890  138.1870 C   0  0  0  0  0  2  0  0  0  0  0  0
  178.9310  180.1550  136.7530 C   0  0  0  0  0  3  0  0  0  0  0  0
  185.2760  174.0440  135.3340 N   0  0  0  0  0  2  0  0  0  0  0  0
  181.4480  178.9640  137.1860 C   0  0  0  0  0  0  0  0  0  0  0  0
  187.2760  175.7690  136.7630 C   0  0  0  0  0  0  0  0  0  0  0  0
  184.3140  176.4050  137.0150 C   0  0  0  0  0  2  0  0  0  0  0  0
  186.5760  176.7790  135.8800 C   0  0  0  0  0  2  0  0  0  0  0  0
  181.8330  176.2710  136.4480 C   0  0  0  0  0  0  0  0  0  0  0  0
  186.2860  177.8760  138.6820 O   0  0  0  0  0  0  0  0  0  0  0  0
  180.5870  176.8770  136.2750 C   0  0  0  0  0  3  0  0  0  0  0  0
  184.9930  179.1510  140.2030 C   0  0  0  0  0  2  0  0  0  0  0  0
  183.7110  178.7640  139.6110 N   0  0  0  0  0  0  0  0  0  0  0  0
  186.7090  173.9360  135.0990 C   0  0  0  0  0  2  0  0  0  0  0  0
  184.8340  175.3100  134.7510 C   0  0  0  0  0  2  0  0  0  0  0  0
  182.7010  178.3550  137.4100 C   0  0  0  0  0  0  0  0  0  0  0  0
  182.9260  177.0150  136.9570 C   0  0  0  0  0  0  0  0  0  0  0  0
  187.6350  177.5240  138.5410 C   0  0  1  0  0  3  0  0  0  0  0  0
  187.7560  176.1380  137.9530 C   0  0  0  0  0  3  0  0  0  0  0  0
  187.4700  174.3270  136.3640 C   0  0  0  0  0  2  0  0  0  0  0  0
  182.2580  173.9310  137.2090 C   0  0  0  0  0  3  0  0  0  0  0  0
  182.1640  172.0530  135.6680 C   0  0  0  0  0  0  0  0  0  0  0  0
  181.7290  174.3170  134.8780 C   0  0  0  0  0  3  0  0  0  0  0  0
  181.8520  172.9400  134.6240 C   0  0  0  0  0  3  0  0  0  0  0  0
  182.3890  172.5600  136.9540 C   0  0  0  0  0  3  0  0  0  0  0  0
  181.9530  174.8170  136.1640 C   0  0  0  0  0  0  0  0  0  0  0  0
  182.3500  170.6140  135.4020 C   0  0  0  0  0  0  0  0  0  0  0  0
  183.5260  170.0080  135.8540 O   0  0  0  0  0  1  0  0  0  0  0  0
  181.3720  169.8750  135.1150 O   0  0  0  0  0  0  0  0  0  0  0  0
  188.3820  178.5660  137.7070 C   0  0  0  0  0  2  0  0  0  0  0  0
  189.6650  178.9660  138.4330 C   0  0  0  0  0  2  0  0  0  0  0  0
  190.2440  177.7410  139.1330 C   0  0  0  0  0  2  0  0  0  0  0  0
  191.9850  177.5900  140.7830 O   0  0  0  0  0  1  0  0  0  0  0  0
  190.6900  178.0780  140.5700 C   0  0  2  0  0  3  0  0  0  0  0  0
  189.6850  177.5240  141.5980 C   0  0  1  0  0  3  0  0  0  0  0  0
  189.0230  176.2100  141.1180 C   0  0  0  0  0  1  0  0  0  0  0  0
  191.2650  178.2160  143.3330 O   0  0  0  0  0  1  0  0  0  0  0  0
  190.5620  176.0080  143.5230 C   0  0  0  0  0  2  0  0  0  0  0  0
  190.1460  177.3910  143.0900 C   0  0  2  0  0  0  0  0  0  0  0  0
  189.5660  177.1260  145.7010 C   0  0  1  0  0  3  0  0  0  0  0  0
  189.1250  177.4450  144.2620 C   0  0  2  0  0  0  0  0  0  0  0  0
  189.5540  176.0130  144.6600 C   0  0  1  0  0  3  0  0  0  0  0  0
  190.9120  177.6070  145.9950 N   0  0  0  0  0  2  0  0  0  0  0  0
  191.4460  176.8010  147.0850 C   0  0  0  0  0  1  0  0  0  0  0  0
  187.5950  177.4420  143.9470 C   0  0  0  0  0  2  0  0  0  0  0  0
  186.6640  178.3230  144.8420 C   0  0  1  0  0  3  0  0  0  0  0  0
  185.2510  179.0820  143.9480 S   0  0  0  0  0  1  0  0  0  0  0  0
  186.2450  177.6780  146.0530 O   0  0  0  0  0  0  0  0  0  0  0  0
  185.8920  178.6690  146.9850 C   0  0  0  0  0  1  0  0  0  0  0  0
  1 21  1  1  0  0  0
  1 14  1  0  0  0  0
  1 13  1  0  0  0  0
  2 18  1  0  0  0  0
  5  4  1  0  0  0  0
  6 11  1  0  0  0  0
  7  6  2  0  0  0  0
  7  9  1  0  0  0  0
  8 19  1  0  0  0  0
  9  5  2  0  0  0  0
 11 22  1  0  0  0  0
 11  4  2  0  0  0  0
 12 25  2  0  0  0  0
 14 12  1  0  0  0  0
 15 23  1  0  0  0  0
 16  2  1  0  0  0  0
 17 15  2  0  0  0  0
 17  6  1  0  0  0  0
 19 18  1  0  0  0  0
 19  3  1  0  0  0  0
 20 10  1  0  0  0  0
 20 26  1  0  0  0  0
 21 10  1  0  0  0  0
 22  8  1  0  0  0  0
 23 13  1  0  0  0  0
 23 22  2  0  0  0  0
 24 36  1  6  0  0  0
 24 16  1  0  0  0  0
 25 24  1  0  0  0  0
 26 12  1  0  0  0  0
 28 31  2  0  0  0  0
 29 32  1  0  0  0  0
 30 29  2  0  0  0  0
 30 28  1  0  0  0  0
 31 27  1  0  0  0  0
 32 15  1  0  0  0  0
 32 27  2  0  0  0  0
 33 28  1  0  0  0  0
 33 34  1  0  0  0  0
 35 33  2  0  0  0  0
 36 37  1  0  0  0  0
 37 38  1  0  0  0  0
 38 40  1  0  0  0  0
 40 39  1  1  0  0  0
 40 41  1  0  0  0  0
 41 42  1  6  0  0  0
 41 45  1  0  0  0  0
 45 43  1  1  0  0  0
 45 44  1  0  0  0  0
 45 47  1  0  0  0  0
 46 49  1  6  0  0  0
 47 51  1  6  0  0  0
 47 48  1  0  0  0  0
 47 46  1  0  0  0  0
 48 44  1  6  0  0  0
 48 46  1  0  0  0  0
 49 50  1  0  0  0  0
 51 52  1  0  0  0  0
 52 53  1  6  0  0  0
 52 54  1  0  0  0  0
 54 55  1  0  0  0  0
M  END
>  <MODEL>
3

>  <REMARK>
 VINA RESULT:      -4.8      2.625      4.945
  Name = 
  12 active torsions:
  status: ('A' for Active; 'I' for Inactive)
    1  A    between atoms: C_1  and  O_30
    2  A    between atoms: C_1  and  C_53
    3  A    between atoms: C_6  and  C_14
    4  A    between atoms: C_6  and  C_20
    5  A    between atoms: C_8  and  C_22
    6  A    between atoms: C_8  and  C_43
    7  A    between atoms: C_10  and  C_32
    8  A    between atoms: N_11  and  C_29
    9  A    between atoms: C_20  and  C_22
   10  A    between atoms: C_33  and  C_52
   11  A    between atoms: C_38  and  C_53
   12  A    between atoms: C_43  and  C_51
                            x       y       z     vdW  Elec       q    Type
                         _______ _______ _______ _____ _____    ______ ____

>  <TORSDO>
F 12

$$$$
=
 OpenBabel10262420173D

 55 61  0  0  1  0  0  0  0  0999 V2000
  186.3390  175.8480  135.6990 C   0  0  1  0  0  3  0  0  0  0  0  0
  188.7510  176.9260  139.6150 C   0  0  0  0  0  2  0  0  0  0  0  0
  185.9320  178.9850  140.7830 C   0  0  0  0  0  1  0  0  0  0  0  0
  183.8430  180.0610  138.6600 C   0  0  0  0  0  3  0  0  0  0  0  0
  182.7000  180.8460  138.8380 C   0  0  0  0  0  3  0  0  0  0  0  0
  182.4570  178.1760  138.0120 C   0  0  0  0  0  0  0  0  0  0  0  0
  181.3160  178.9660  138.1940 C   0  0  0  0  0  3  0  0  0  0  0  0
  186.2450  178.4160  138.5310 C   0  0  0  0  0  2  0  0  0  0  0  0
  181.4370  180.2960  138.6090 C   0  0  0  0  0  3  0  0  0  0  0  0
  186.0180  173.4160  135.2460 N   0  0  0  0  0  2  0  0  0  0  0  0
  183.7420  178.7130  138.2560 C   0  0  0  0  0  0  0  0  0  0  0  0
  188.5980  174.7160  136.0640 C   0  0  0  0  0  0  0  0  0  0  0  0
  185.9780  175.7700  137.1910 C   0  0  0  0  0  2  0  0  0  0  0  0
  187.8500  175.8790  135.4500 C   0  0  0  0  0  2  0  0  0  0  0  0
  183.4520  176.0510  137.3740 C   0  0  0  0  0  0  0  0  0  0  0  0
  188.5580  176.8080  138.2390 O   0  0  0  0  0  0  0  0  0  0  0  0
  182.3250  176.8480  137.5890 C   0  0  0  0  0  3  0  0  0  0  0  0
  187.9820  178.1520  140.1020 C   0  0  0  0  0  2  0  0  0  0  0  0
  186.5390  178.0050  139.9030 N   0  0  0  0  0  0  0  0  0  0  0  0
  187.2850  173.1110  134.5990 C   0  0  0  0  0  2  0  0  0  0  0  0
  185.6410  174.7720  134.8490 C   0  0  0  0  0  2  0  0  0  0  0  0
  184.8890  177.9080  138.0880 C   0  0  0  0  0  0  0  0  0  0  0  0
  184.7510  176.5850  137.5570 C   0  0  0  0  0  0  0  0  0  0  0  0
  189.7330  176.2670  137.7000 C   0  0  1  0  0  3  0  0  0  0  0  0
  189.4520  174.9240  137.0700 C   0  0  0  0  0  3  0  0  0  0  0  0
  188.4290  173.2930  135.5920 C   0  0  0  0  0  2  0  0  0  0  0  0
  183.8460  173.6260  137.8230 C   0  0  0  0  0  3  0  0  0  0  0  0
  182.8550  171.8960  136.4320 C   0  0  0  0  0  0  0  0  0  0  0  0
  182.4290  174.2490  135.9610 C   0  0  0  0  0  3  0  0  0  0  0  0
  182.2470  172.8900  135.6470 C   0  0  0  0  0  3  0  0  0  0  0  0
  183.6730  172.2730  137.5040 C   0  0  0  0  0  3  0  0  0  0  0  0
  183.2440  174.6190  137.0340 C   0  0  0  0  0  0  0  0  0  0  0  0
  182.7170  170.4700  136.0790 C   0  0  0  0  0  0  0  0  0  0  0  0
  181.8400  170.1300  135.0450 O   0  0  0  0  0  0  0  0  0  0  0  0
  183.5910  169.6300  136.4200 O   0  0  0  0  0  1  0  0  0  0  0  0
  190.3710  177.2420  136.7070 C   0  0  0  0  0  2  0  0  0  0  0  0
  191.1690  176.4530  135.6700 C   0  0  0  0  0  2  0  0  0  0  0  0
  192.6140  176.3310  136.1420 C   0  0  0  0  0  2  0  0  0  0  0  0
  193.0810  174.6150  137.7580 O   0  0  0  0  0  1  0  0  0  0  0  0
  193.0000  174.8580  136.3820 C   0  0  2  0  0  3  0  0  0  0  0  0
  194.3120  174.5110  135.6530 C   0  0  1  0  0  3  0  0  0  0  0  0
  195.3870  175.6110  135.8320 C   0  0  0  0  0  1  0  0  0  0  0  0
  195.2390  172.4830  134.6460 O   0  0  0  0  0  1  0  0  0  0  0  0
  194.0650  172.1070  136.6170 C   0  0  0  0  0  2  0  0  0  0  0  0
  194.9380  173.0920  135.8830 C   0  0  2  0  0  0  0  0  0  0  0  0
  196.5370  171.4400  137.2750 C   0  0  1  0  0  3  0  0  0  0  0  0
  196.0670  172.8640  136.9280 C   0  0  2  0  0  0  0  0  0  0  0  0
  195.1330  171.8810  137.6740 C   0  0  1  0  0  3  0  0  0  0  0  0
  196.5400  170.5520  136.1170 N   0  0  0  0  0  2  0  0  0  0  0  0
  197.9280  170.2620  135.7810 C   0  0  0  0  0  1  0  0  0  0  0  0
  196.4580  174.0220  137.9010 C   0  0  0  0  0  2  0  0  0  0  0  0
  197.9720  174.2120  138.2370 C   0  0  1  0  0  3  0  0  0  0  0  0
  199.0750  174.2410  136.7690 S   0  0  0  0  0  1  0  0  0  0  0  0
  198.2350  175.3090  139.1240 O   0  0  0  0  0  0  0  0  0  0  0  0
  197.3450  175.2270  140.2080 C   0  0  0  0  0  1  0  0  0  0  0  0
  1 21  1  6  0  0  0
  1 13  1  0  0  0  0
  2 18  1  0  0  0  0
  4  5  1  0  0  0  0
  6  7  2  0  0  0  0
  6 11  1  0  0  0  0
  7  9  1  0  0  0  0
  8 19  1  0  0  0  0
  9  5  2  0  0  0  0
 11  4  2  0  0  0  0
 12 25  2  0  0  0  0
 13 23  1  0  0  0  0
 14  1  1  0  0  0  0
 14 12  1  0  0  0  0
 15 23  1  0  0  0  0
 15 17  2  0  0  0  0
 16  2  1  0  0  0  0
 17  6  1  0  0  0  0
 19 18  1  0  0  0  0
 19  3  1  0  0  0  0
 20 10  1  0  0  0  0
 20 26  1  0  0  0  0
 21 10  1  0  0  0  0
 22 11  1  0  0  0  0
 22  8  1  0  0  0  0
 23 22  2  0  0  0  0
 24 36  1  6  0  0  0
 24 16  1  0  0  0  0
 25 24  1  0  0  0  0
 26 12  1  0  0  0  0
 28 31  2  0  0  0  0
 29 32  1  0  0  0  0
 30 29  2  0  0  0  0
 30 28  1  0  0  0  0
 31 27  1  0  0  0  0
 32 15  1  0  0  0  0
 32 27  2  0  0  0  0
 33 35  1  0  0  0  0
 33 28  1  0  0  0  0
 34 33  2  0  0  0  0
 37 38  1  0  0  0  0
 37 36  1  0  0  0  0
 38 40  1  0  0  0  0
 40 39  1  1  0  0  0
 41 42  1  1  0  0  0
 41 45  1  0  0  0  0
 41 40  1  0  0  0  0
 45 43  1  6  0  0  0
 45 44  1  0  0  0  0
 45 47  1  0  0  0  0
 46 49  1  6  0  0  0
 46 48  1  0  0  0  0
 47 46  1  0  0  0  0
 47 48  1  0  0  0  0
 47 51  1  1  0  0  0
 48 44  1  6  0  0  0
 50 49  1  0  0  0  0
 51 52  1  0  0  0  0
 52 53  1  6  0  0  0
 52 54  1  0  0  0  0
 54 55  1  0  0  0  0
M  END
>  <MODEL>
4

>  <REMARK>
 VINA RESULT:      -4.7      5.141      8.469
  Name = 
  12 active torsions:
  status: ('A' for Active; 'I' for Inactive)
    1  A    between atoms: C_1  and  O_30
    2  A    between atoms: C_1  and  C_53
    3  A    between atoms: C_6  and  C_14
    4  A    between atoms: C_6  and  C_20
    5  A    between atoms: C_8  and  C_22
    6  A    between atoms: C_8  and  C_43
    7  A    between atoms: C_10  and  C_32
    8  A    between atoms: N_11  and  C_29
    9  A    between atoms: C_20  and  C_22
   10  A    between atoms: C_33  and  C_52
   11  A    between atoms: C_38  and  C_53
   12  A    between atoms: C_43  and  C_51
                            x       y       z     vdW  Elec       q    Type
                         _______ _______ _______ _____ _____    ______ ____

>  <TORSDO>
F 12

$$$$
=
 OpenBabel10262420173D

 55 61  0  0  1  0  0  0  0  0999 V2000
  189.9750  174.3910  137.8310 C   0  0  1  0  0  3  0  0  0  0  0  0
  186.6960  177.7030  137.0550 C   0  0  0  0  0  2  0  0  0  0  0  0
  187.7430  179.4550  140.1200 C   0  0  0  0  0  1  0  0  0  0  0  0
  189.2950  177.8320  142.3530 C   0  0  0  0  0  3  0  0  0  0  0  0
  189.7990  178.2530  143.5870 C   0  0  0  0  0  3  0  0  0  0  0  0
  191.5570  177.4900  141.5370 C   0  0  0  0  0  0  0  0  0  0  0  0
  192.0560  177.9140  142.7750 C   0  0  0  0  0  3  0  0  0  0  0  0
  188.1890  177.1860  139.7350 C   0  0  0  0  0  2  0  0  0  0  0  0
  191.1800  178.2980  143.7950 C   0  0  0  0  0  3  0  0  0  0  0  0
  191.6040  174.0090  135.9810 N   0  0  0  0  0  2  0  0  0  0  0  0
  190.1620  177.4540  141.3060 C   0  0  0  0  0  0  0  0  0  0  0  0
  188.6280  174.2600  135.6660 C   0  0  0  0  0  0  0  0  0  0  0  0
  190.0470  175.9250  137.7790 C   0  0  0  0  0  2  0  0  0  0  0  0
  188.7480  173.8240  137.1100 C   0  0  0  0  0  2  0  0  0  0  0  0
  191.9640  176.6460  139.2940 C   0  0  0  0  0  0  0  0  0  0  0  0
  187.1670  176.4000  137.2130 O   0  0  0  0  0  0  0  0  0  0  0  0
  192.4410  177.1000  140.5260 C   0  0  0  0  0  3  0  0  0  0  0  0
  186.6020  178.3480  138.4370 C   0  0  0  0  0  2  0  0  0  0  0  0
  187.9140  178.4620  139.0760 N   0  0  0  0  0  0  0  0  0  0  0  0
  190.8280  173.1040  135.1450 C   0  0  0  0  0  2  0  0  0  0  0  0
  191.2750  173.7070  137.3730 C   0  0  0  0  0  2  0  0  0  0  0  0
  189.6630  177.0420  140.0520 C   0  0  0  0  0  0  0  0  0  0  0  0
  190.5700  176.5490  139.0590 C   0  0  0  0  0  0  0  0  0  0  0  0
  186.5730  175.6200  136.2120 C   0  0  1  0  0  3  0  0  0  0  0  0
  187.6280  175.0600  135.2880 C   0  0  0  0  0  3  0  0  0  0  0  0
  189.6030  173.8310  134.5970 C   0  0  0  0  0  2  0  0  0  0  0  0
  193.9240  175.3620  138.4290 C   0  0  0  0  0  3  0  0  0  0  0  0
  194.8240  175.7560  136.2060 C   0  0  0  0  0  0  0  0  0  0  0  0
  192.9020  177.0270  136.9990 C   0  0  0  0  0  3  0  0  0  0  0  0
  193.8470  176.7440  135.9970 C   0  0  0  0  0  3  0  0  0  0  0  0
  194.8710  175.0860  137.4350 C   0  0  0  0  0  3  0  0  0  0  0  0
  192.9520  176.3540  138.2220 C   0  0  0  0  0  0  0  0  0  0  0  0
  195.8540  175.4900  135.1840 C   0  0  0  0  0  0  0  0  0  0  0  0
  196.7790  176.4990  134.9030 O   0  0  0  0  0  1  0  0  0  0  0  0
  196.1340  174.3130  134.8360 O   0  0  0  0  0  0  0  0  0  0  0  0
  185.7090  174.5170  136.8280 C   0  0  0  0  0  2  0  0  0  0  0  0
  184.3580  174.4810  136.1160 C   0  0  0  0  0  2  0  0  0  0  0  0
  183.5270  175.6770  136.5640 C   0  0  0  0  0  2  0  0  0  0  0  0
  181.8640  174.0480  137.1620 O   0  0  0  0  0  1  0  0  0  0  0  0
  182.4410  175.2550  137.5740 C   0  0  2  0  0  3  0  0  0  0  0  0
  181.3920  176.3700  137.7460 C   0  0  1  0  0  3  0  0  0  0  0  0
  179.9980  175.9460  137.2240 C   0  0  0  0  0  1  0  0  0  0  0  0
  182.4650  176.9200  139.8740 O   0  0  0  0  0  1  0  0  0  0  0  0
  180.1810  176.5170  140.0450 C   0  0  0  0  0  2  0  0  0  0  0  0
  181.2630  177.0610  139.1470 C   0  0  2  0  0  0  0  0  0  0  0  0
  180.3710  179.0740  140.6890 C   0  0  1  0  0  3  0  0  0  0  0  0
  180.6630  178.4880  139.2960 C   0  0  2  0  0  0  0  0  0  0  0  0
  179.5490  177.8910  140.1890 C   0  0  1  0  0  3  0  0  0  0  0  0
  181.3680  178.6870  141.6810 N   0  0  0  0  0  2  0  0  0  0  0  0
  180.6860  178.5170  142.9570 C   0  0  0  0  0  1  0  0  0  0  0  0
  180.0020  179.1750  138.0590 C   0  0  0  0  0  2  0  0  0  0  0  0
  180.9140  180.0390  137.1300 C   0  0  1  0  0  3  0  0  0  0  0  0
  180.7120  179.6960  135.3370 S   0  0  0  0  0  1  0  0  0  0  0  0
  180.8640  181.4450  137.4130 O   0  0  0  0  0  0  0  0  0  0  0  0
  181.8880  181.7520  138.3240 C   0  0  0  0  0  1  0  0  0  0  0  0
  1 14  1  6  0  0  0
  2 16  1  0  0  0  0
  2 18  1  0  0  0  0
  4  5  1  0  0  0  0
  5  9  2  0  0  0  0
  6  7  2  0  0  0  0
  7  9  1  0  0  0  0
  8 22  1  0  0  0  0
 10 21  1  0  0  0  0
 11  6  1  0  0  0  0
 11  4  2  0  0  0  0
 12 14  1  0  0  0  0
 13  1  1  0  0  0  0
 13 23  1  0  0  0  0
 15 17  2  0  0  0  0
 17  6  1  0  0  0  0
 18 19  1  0  0  0  0
 19  8  1  0  0  0  0
 19  3  1  0  0  0  0
 20 10  1  0  0  0  0
 21  1  1  0  0  0  0
 22 11  1  0  0  0  0
 23 15  1  0  0  0  0
 23 22  2  0  0  0  0
 24 36  1  1  0  0  0
 24 16  1  0  0  0  0
 25 12  2  0  0  0  0
 25 24  1  0  0  0  0
 26 20  1  0  0  0  0
 26 12  1  0  0  0  0
 28 31  1  0  0  0  0
 29 32  2  0  0  0  0
 30 28  2  0  0  0  0
 30 29  1  0  0  0  0
 31 27  2  0  0  0  0
 32 27  1  0  0  0  0
 32 15  1  0  0  0  0
 33 28  1  0  0  0  0
 34 33  1  0  0  0  0
 35 33  2  0  0  0  0
 37 38  1  0  0  0  0
 37 36  1  0  0  0  0
 38 40  1  0  0  0  0
 40 39  1  6  0  0  0
 40 41  1  0  0  0  0
 41 42  1  1  0  0  0
 41 45  1  0  0  0  0
 45 47  1  0  0  0  0
 45 43  1  1  0  0  0
 45 44  1  0  0  0  0
 46 49  1  1  0  0  0
 47 51  1  6  0  0  0
 47 48  1  0  0  0  0
 47 46  1  0  0  0  0
 48 44  1  1  0  0  0
 48 46  1  0  0  0  0
 49 50  1  0  0  0  0
 52 53  1  6  0  0  0
 52 54  1  0  0  0  0
 52 51  1  0  0  0  0
 54 55  1  0  0  0  0
M  END
>  <MODEL>
5

>  <REMARK>
 VINA RESULT:      -4.6      3.846     10.000
  Name = 
  12 active torsions:
  status: ('A' for Active; 'I' for Inactive)
    1  A    between atoms: C_1  and  O_30
    2  A    between atoms: C_1  and  C_53
    3  A    between atoms: C_6  and  C_14
    4  A    between atoms: C_6  and  C_20
    5  A    between atoms: C_8  and  C_22
    6  A    between atoms: C_8  and  C_43
    7  A    between atoms: C_10  and  C_32
    8  A    between atoms: N_11  and  C_29
    9  A    between atoms: C_20  and  C_22
   10  A    between atoms: C_33  and  C_52
   11  A    between atoms: C_38  and  C_53
   12  A    between atoms: C_43  and  C_51
                            x       y       z     vdW  Elec       q    Type
                         _______ _______ _______ _____ _____    ______ ____

>  <TORSDO>
F 12

$$$$
=
 OpenBabel10262420173D

 55 61  0  0  1  0  0  0  0  0999 V2000
  184.5380  176.4890  138.5130 C   0  0  1  0  0  3  0  0  0  0  0  0
  188.5410  176.0750  136.0390 C   0  0  0  0  0  2  0  0  0  0  0  0
  187.3230  172.9140  134.5990 C   0  0  0  0  0  1  0  0  0  0  0  0
  185.0540  171.3150  136.1220 C   0  0  0  0  0  3  0  0  0  0  0  0
  184.4220  170.1120  135.7930 C   0  0  0  0  0  3  0  0  0  0  0  0
  182.9740  172.5150  135.7550 C   0  0  0  0  0  0  0  0  0  0  0  0
  182.3480  171.3070  135.4250 C   0  0  0  0  0  3  0  0  0  0  0  0
  186.4800  173.8120  136.5930 C   0  0  0  0  0  2  0  0  0  0  0  0
  183.0710  170.1100  135.4400 C   0  0  0  0  0  3  0  0  0  0  0  0
  183.2550  178.6020  138.1750 N   0  0  0  0  0  2  0  0  0  0  0  0
  184.3460  172.5350  136.0990 C   0  0  0  0  0  0  0  0  0  0  0  0
  186.2180  178.4070  138.6240 C   0  0  0  0  0  0  0  0  0  0  0  0
  184.8110  176.2400  137.0210 C   0  0  0  0  0  2  0  0  0  0  0  0
  185.7290  177.1160  139.2440 C   0  0  0  0  0  2  0  0  0  0  0  0
  182.8380  174.9180  136.0990 C   0  0  0  0  0  0  0  0  0  0  0  0
  187.7780  176.2570  137.1930 O   0  0  0  0  0  0  0  0  0  0  0  0
  182.2400  173.7060  135.7450 C   0  0  0  0  0  3  0  0  0  0  0  0
  188.5030  174.5930  135.6700 C   0  0  0  0  0  2  0  0  0  0  0  0
  187.1480  174.1500  135.3370 N   0  0  0  0  0  0  0  0  0  0  0  0
  183.9640  179.4760  139.0980 C   0  0  0  0  0  2  0  0  0  0  0  0
  183.2340  177.2660  138.7700 C   0  0  0  0  0  2  0  0  0  0  0  0
  184.9770  173.7570  136.4150 C   0  0  0  0  0  0  0  0  0  0  0  0
  184.1960  174.9550  136.5010 C   0  0  0  0  0  0  0  0  0  0  0  0
  188.3730  177.2940  137.9250 C   0  0  1  0  0  3  0  0  0  0  0  0
  187.4220  178.4600  138.0480 C   0  0  0  0  0  3  0  0  0  0  0  0
  185.4000  179.6750  138.6200 C   0  0  0  0  0  2  0  0  0  0  0  0
  180.8730  176.3250  136.7270 C   0  0  0  0  0  3  0  0  0  0  0  0
  180.5100  178.5180  135.7420 C   0  0  0  0  0  0  0  0  0  0  0  0
  182.4500  177.1880  135.1060 C   0  0  0  0  0  3  0  0  0  0  0  0
  181.6790  178.3580  134.9810 C   0  0  0  0  0  3  0  0  0  0  0  0
  180.1000  177.4860  136.5960 C   0  0  0  0  0  3  0  0  0  0  0  0
  182.0380  176.1620  135.9610 C   0  0  0  0  0  0  0  0  0  0  0  0
  179.6640  179.7160  135.5780 C   0  0  0  0  0  0  0  0  0  0  0  0
  178.9820  180.1970  136.6980 O   0  0  0  0  0  1  0  0  0  0  0  0
  179.8180  180.4890  134.5970 O   0  0  0  0  0  0  0  0  0  0  0  0
  188.8410  176.7910  139.2920 C   0  0  0  0  0  2  0  0  0  0  0  0
  189.8540  177.7770  139.8700 C   0  0  0  0  0  2  0  0  0  0  0  0
  190.4230  177.2050  141.1640 C   0  0  0  0  0  2  0  0  0  0  0  0
  191.2750  178.4180  143.0560 O   0  0  0  0  0  1  0  0  0  0  0  0
  190.0960  178.1130  142.3660 C   0  0  2  0  0  3  0  0  0  0  0  0
  189.0450  177.4530  143.2800 C   0  0  1  0  0  3  0  0  0  0  0  0
  188.9450  175.9260  143.0450 C   0  0  0  0  0  1  0  0  0  0  0  0
  189.9820  178.8330  145.0690 O   0  0  0  0  0  1  0  0  0  0  0  0
  189.5470  176.6370  145.6990 C   0  0  0  0  0  2  0  0  0  0  0  0
  189.0900  177.7690  144.8140 C   0  0  2  0  0  0  0  0  0  0  0  0
  187.8530  178.0160  147.1880 C   0  0  1  0  0  3  0  0  0  0  0  0
  187.7870  177.8940  145.6550 C   0  0  2  0  0  0  0  0  0  0  0  0
  188.2740  176.7100  146.5240 C   0  0  1  0  0  3  0  0  0  0  0  0
  188.9910  178.8100  147.6390 N   0  0  0  0  0  2  0  0  0  0  0  0
  189.5100  178.1950  148.8540 C   0  0  0  0  0  1  0  0  0  0  0  0
  186.4170  177.5130  145.0080 C   0  0  0  0  0  2  0  0  0  0  0  0
  185.4230  178.6710  144.6720 C   0  0  1  0  0  3  0  0  0  0  0  0
  184.8320  178.6820  142.9330 S   0  0  0  0  0  1  0  0  0  0  0  0
  184.3390  178.7940  145.6050 O   0  0  0  0  0  0  0  0  0  0  0  0
  184.8340  178.5460  146.8960 C   0  0  0  0  0  1  0  0  0  0  0  0
  1 13  1  6  0  0  0
  1 21  1  0  0  0  0
  1 14  1  0  0  0  0
  2 16  1  0  0  0  0
  3 19  1  0  0  0  0
  5  4  2  0  0  0  0
  6 11  1  0  0  0  0
  7  9  2  0  0  0  0
  7  6  1  0  0  0  0
  9  5  1  0  0  0  0
 10 21  1  0  0  0  0
 10 20  1  0  0  0  0
 11  4  1  0  0  0  0
 11 22  2  0  0  0  0
 12 14  1  0  0  0  0
 15 23  2  0  0  0  0
 16 24  1  0  0  0  0
 17  6  2  0  0  0  0
 17 15  1  0  0  0  0
 18  2  1  0  0  0  0
 19 18  1  0  0  0  0
 19  8  1  0  0  0  0
 22 23  1  0  0  0  0
 22  8  1  0  0  0  0
 23 13  1  0  0  0  0
 24 25  1  0  0  0  0
 24 36  1  1  0  0  0
 25 12  2  0  0  0  0
 26 12  1  0  0  0  0
 26 20  1  0  0  0  0
 28 31  2  0  0  0  0
 29 32  1  0  0  0  0
 30 29  2  0  0  0  0
 30 28  1  0  0  0  0
 31 27  1  0  0  0  0
 32 15  1  0  0  0  0
 32 27  2  0  0  0  0
 33 28  1  0  0  0  0
 33 34  1  0  0  0  0
 35 33  2  0  0  0  0
 36 37  1  0  0  0  0
 37 38  1  0  0  0  0
 38 40  1  0  0  0  0
 40 39  1  1  0  0  0
 40 41  1  0  0  0  0
 41 42  1  1  0  0  0
 41 45  1  0  0  0  0
 45 43  1  1  0  0  0
 45 47  1  0  0  0  0
 45 44  1  0  0  0  0
 46 49  1  6  0  0  0
 47 51  1  6  0  0  0
 47 48  1  0  0  0  0
 47 46  1  0  0  0  0
 48 44  1  6  0  0  0
 48 46  1  0  0  0  0
 49 50  1  0  0  0  0
 52 53  1  6  0  0  0
 52 51  1  0  0  0  0
 52 54  1  0  0  0  0
 54 55  1  0  0  0  0
M  END
>  <MODEL>
6

>  <REMARK>
 VINA RESULT:      -4.4      2.873      6.654
  Name = 
  12 active torsions:
  status: ('A' for Active; 'I' for Inactive)
    1  A    between atoms: C_1  and  O_30
    2  A    between atoms: C_1  and  C_53
    3  A    between atoms: C_6  and  C_14
    4  A    between atoms: C_6  and  C_20
    5  A    between atoms: C_8  and  C_22
    6  A    between atoms: C_8  and  C_43
    7  A    between atoms: C_10  and  C_32
    8  A    between atoms: N_11  and  C_29
    9  A    between atoms: C_20  and  C_22
   10  A    between atoms: C_33  and  C_52
   11  A    between atoms: C_38  and  C_53
   12  A    between atoms: C_43  and  C_51
                            x       y       z     vdW  Elec       q    Type
                         _______ _______ _______ _____ _____    ______ ____

>  <TORSDO>
F 12

$$$$
=
 OpenBabel10262420173D

 55 61  0  0  1  0  0  0  0  0999 V2000
  185.4890  176.4860  135.7430 C   0  0  1  0  0  3  0  0  0  0  0  0
  187.5410  177.4640  139.8840 C   0  0  0  0  0  2  0  0  0  0  0  0
  184.5490  179.3440  140.9200 C   0  0  0  0  0  1  0  0  0  0  0  0
  182.5840  180.4380  138.6910 C   0  0  0  0  0  3  0  0  0  0  0  0
  181.3960  181.1650  138.8140 C   0  0  0  0  0  3  0  0  0  0  0  0
  181.3390  178.5320  137.8470 C   0  0  0  0  0  0  0  0  0  0  0  0
  180.1520  179.2640  137.9750 C   0  0  0  0  0  3  0  0  0  0  0  0
  185.0610  178.9020  138.6760 C   0  0  0  0  0  2  0  0  0  0  0  0
  180.1810  180.5750  138.4600 C   0  0  0  0  0  3  0  0  0  0  0  0
  185.3140  174.0690  135.1520 N   0  0  0  0  0  2  0  0  0  0  0  0
  182.5750  179.1090  138.2170 C   0  0  0  0  0  0  0  0  0  0  0  0
  187.7620  175.4320  136.2320 C   0  0  0  0  0  0  0  0  0  0  0  0
  185.0180  176.3190  137.1960 C   0  0  0  0  0  2  0  0  0  0  0  0
  187.0120  176.5930  135.6160 C   0  0  0  0  0  2  0  0  0  0  0  0
  182.4750  176.4850  137.1910 C   0  0  0  0  0  0  0  0  0  0  0  0
  187.4600  177.4080  138.4930 O   0  0  0  0  0  0  0  0  0  0  0  0
  181.3000  177.2230  137.3530 C   0  0  0  0  0  3  0  0  0  0  0  0
  186.6810  178.6320  140.3660 C   0  0  0  0  0  2  0  0  0  0  0  0
  185.2660  178.4350  140.0460 N   0  0  0  0  0  0  0  0  0  0  0  0
  186.6400  173.8500  134.5940 C   0  0  0  0  0  2  0  0  0  0  0  0
  184.9080  175.4260  134.7900 C   0  0  0  0  0  2  0  0  0  0  0  0
  183.7670  178.3620  138.1030 C   0  0  0  0  0  0  0  0  0  0  0  0
  183.7310  177.0620  137.5020 C   0  0  0  0  0  0  0  0  0  0  0  0
  188.6960  176.9440  138.0240 C   0  0  1  0  0  3  0  0  0  0  0  0
  188.5250  175.6240  137.3110 C   0  0  0  0  0  3  0  0  0  0  0  0
  187.6950  174.0290  135.6830 C   0  0  0  0  0  2  0  0  0  0  0  0
  182.8970  174.0550  137.5820 C   0  0  0  0  0  3  0  0  0  0  0  0
  182.1390  172.3620  136.0110 C   0  0  0  0  0  0  0  0  0  0  0  0
  181.6910  174.7200  135.5910 C   0  0  0  0  0  3  0  0  0  0  0  0
  181.5950  173.3720  135.2010 C   0  0  0  0  0  3  0  0  0  0  0  0
  182.8110  172.7130  137.1890 C   0  0  0  0  0  3  0  0  0  0  0  0
  182.3590  175.0650  136.7680 C   0  0  0  0  0  0  0  0  0  0  0  0
  182.0940  170.9500  135.5840 C   0  0  0  0  0  0  0  0  0  0  0  0
  183.2070  170.1470  135.8480 O   0  0  0  0  0  1  0  0  0  0  0  0
  180.9980  170.3840  135.3290 O   0  0  0  0  0  0  0  0  0  0  0  0
  189.3640  177.9930  137.1320 C   0  0  0  0  0  2  0  0  0  0  0  0
  190.3320  177.2970  136.1760 C   0  0  0  0  0  2  0  0  0  0  0  0
  191.4580  176.6620  136.9830 C   0  0  0  0  0  2  0  0  0  0  0  0
  191.4510  175.0090  135.2380 O   0  0  0  0  0  1  0  0  0  0  0  0
  192.2950  175.7020  136.1130 C   0  0  2  0  0  3  0  0  0  0  0  0
  193.1260  174.7500  136.9940 C   0  0  1  0  0  3  0  0  0  0  0  0
  192.8490  173.2620  136.6670 C   0  0  0  0  0  1  0  0  0  0  0  0
  194.9970  175.3840  138.4360 O   0  0  0  0  0  1  0  0  0  0  0  0
  195.2190  176.0950  136.2340 C   0  0  0  0  0  2  0  0  0  0  0  0
  194.6670  175.0050  137.1170 C   0  0  2  0  0  0  0  0  0  0  0  0
  197.2010  174.3650  136.4890 C   0  0  1  0  0  3  0  0  0  0  0  0
  195.7040  174.0080  136.5260 C   0  0  2  0  0  0  0  0  0  0  0  0
  196.2260  175.1420  135.6120 C   0  0  1  0  0  3  0  0  0  0  0  0
  197.6280  175.1190  137.6620 N   0  0  0  0  0  2  0  0  0  0  0  0
  198.0990  174.1670  138.6590 C   0  0  0  0  0  1  0  0  0  0  0  0
  195.2090  172.8280  135.6310 C   0  0  0  0  0  2  0  0  0  0  0  0
  195.9000  171.4370  135.8100 C   0  0  1  0  0  3  0  0  0  0  0  0
  197.3460  171.1620  134.7120 S   0  0  0  0  0  1  0  0  0  0  0  0
  196.1970  171.1090  137.1750 O   0  0  0  0  0  0  0  0  0  0  0  0
  197.5230  170.6490  137.2430 C   0  0  0  0  0  1  0  0  0  0  0  0
  1 21  1  6  0  0  0
  1 13  1  0  0  0  0
  2 18  1  0  0  0  0
  4  5  1  0  0  0  0
  6  7  2  0  0  0  0
  6 11  1  0  0  0  0
  7  9  1  0  0  0  0
  8 19  1  0  0  0  0
  9  5  2  0  0  0  0
 11  4  2  0  0  0  0
 12 25  2  0  0  0  0
 13 23  1  0  0  0  0
 14  1  1  0  0  0  0
 14 12  1  0  0  0  0
 15 17  2  0  0  0  0
 15 23  1  0  0  0  0
 16  2  1  0  0  0  0
 17  6  1  0  0  0  0
 19 18  1  0  0  0  0
 19  3  1  0  0  0  0
 20 10  1  0  0  0  0
 20 26  1  0  0  0  0
 21 10  1  0  0  0  0
 22 11  1  0  0  0  0
 22  8  1  0  0  0  0
 23 22  2  0  0  0  0
 24 36  1  6  0  0  0
 24 16  1  0  0  0  0
 25 24  1  0  0  0  0
 26 12  1  0  0  0  0
 28 31  2  0  0  0  0
 29 32  1  0  0  0  0
 30 29  2  0  0  0  0
 30 28  1  0  0  0  0
 31 27  1  0  0  0  0
 32 15  1  0  0  0  0
 32 27  2  0  0  0  0
 33 34  1  0  0  0  0
 33 28  1  0  0  0  0
 35 33  2  0  0  0  0
 37 38  1  0  0  0  0
 37 36  1  0  0  0  0
 40 39  1  1  0  0  0
 40 38  1  0  0  0  0
 40 41  1  0  0  0  0
 41 42  1  6  0  0  0
 41 45  1  0  0  0  0
 44 45  1  0  0  0  0
 45 43  1  1  0  0  0
 46 47  1  0  0  0  0
 46 49  1  1  0  0  0
 47 51  1  6  0  0  0
 47 45  1  0  0  0  0
 48 44  1  1  0  0  0
 48 46  1  0  0  0  0
 48 47  1  0  0  0  0
 49 50  1  0  0  0  0
 51 52  1  0  0  0  0
 52 53  1  6  0  0  0
 52 54  1  0  0  0  0
 54 55  1  0  0  0  0
M  END
>  <MODEL>
7

>  <REMARK>
 VINA RESULT:      -4.3      4.962      7.991
  Name = 
  12 active torsions:
  status: ('A' for Active; 'I' for Inactive)
    1  A    between atoms: C_1  and  O_30
    2  A    between atoms: C_1  and  C_53
    3  A    between atoms: C_6  and  C_14
    4  A    between atoms: C_6  and  C_20
    5  A    between atoms: C_8  and  C_22
    6  A    between atoms: C_8  and  C_43
    7  A    between atoms: C_10  and  C_32
    8  A    between atoms: N_11  and  C_29
    9  A    between atoms: C_20  and  C_22
   10  A    between atoms: C_33  and  C_52
   11  A    between atoms: C_38  and  C_53
   12  A    between atoms: C_43  and  C_51
                            x       y       z     vdW  Elec       q    Type
                         _______ _______ _______ _____ _____    ______ ____

>  <TORSDO>
F 12

$$$$
=
 OpenBabel10262420173D

 55 61  0  0  1  0  0  0  0  0999 V2000
  184.5910  177.3020  140.6020 C   0  0  1  0  0  3  0  0  0  0  0  0
  188.1570  178.7700  137.8720 C   0  0  0  0  0  2  0  0  0  0  0  0
  186.7330  176.9240  135.0220 C   0  0  0  0  0  1  0  0  0  0  0  0
  184.7350  174.5340  135.5940 C   0  0  0  0  0  3  0  0  0  0  0  0
  184.0620  173.6900  134.7070 C   0  0  0  0  0  3  0  0  0  0  0  0
  182.6220  175.5240  136.2650 C   0  0  0  0  0  0  0  0  0  0  0  0
  181.9540  174.6770  135.3730 C   0  0  0  0  0  3  0  0  0  0  0  0
  186.2130  176.4220  137.2520 C   0  0  0  0  0  2  0  0  0  0  0  0
  182.6720  173.7650  134.5940 C   0  0  0  0  0  3  0  0  0  0  0  0
  183.2680  179.0910  141.7290 N   0  0  0  0  0  2  0  0  0  0  0  0
  184.0300  175.4710  136.3790 C   0  0  0  0  0  0  0  0  0  0  0  0
  186.2650  178.9500  141.6000 C   0  0  0  0  0  0  0  0  0  0  0  0
  184.6270  177.9870  139.2260 C   0  0  0  0  0  2  0  0  0  0  0  0
  185.8820  177.5000  141.4030 C   0  0  0  0  0  2  0  0  0  0  0  0
  182.5360  177.2620  137.9640 C   0  0  0  0  0  0  0  0  0  0  0  0
  187.5840  178.1800  138.9990 O   0  0  0  0  0  0  0  0  0  0  0  0
  181.8920  176.4270  137.0470 C   0  0  0  0  0  3  0  0  0  0  0  0
  188.0630  177.7780  136.7130 C   0  0  0  0  0  2  0  0  0  0  0  0
  186.6740  177.4840  136.3590 N   0  0  0  0  0  0  0  0  0  0  0  0
  184.1110  179.3330  142.8900 C   0  0  0  0  0  2  0  0  0  0  0  0
  183.3430  177.6620  141.4270 C   0  0  0  0  0  2  0  0  0  0  0  0
  184.7010  176.3390  137.2680 C   0  0  0  0  0  0  0  0  0  0  0  0
  183.9400  177.1870  138.1360 C   0  0  0  0  0  0  0  0  0  0  0  0
  188.2840  178.6540  140.1160 C   0  0  1  0  0  3  0  0  0  0  0  0
  187.3620  179.4390  141.0180 C   0  0  0  0  0  3  0  0  0  0  0  0
  185.4540  179.9050  142.4420 C   0  0  0  0  0  2  0  0  0  0  0  0
  181.9110  179.6390  138.4050 C   0  0  0  0  0  3  0  0  0  0  0  0
  180.1810  180.2250  140.0090 C   0  0  0  0  0  0  0  0  0  0  0  0
  180.7450  177.8890  139.6040 C   0  0  0  0  0  3  0  0  0  0  0  0
  179.9860  178.8600  140.2810 C   0  0  0  0  0  3  0  0  0  0  0  0
  181.1630  180.6070  139.0860 C   0  0  0  0  0  3  0  0  0  0  0  0
  181.7220  178.2760  138.6830 C   0  0  0  0  0  0  0  0  0  0  0  0
  179.4300  181.2540  140.7530 C   0  0  0  0  0  0  0  0  0  0  0  0
  179.5200  181.2540  142.1470 O   0  0  0  0  0  1  0  0  0  0  0  0
  179.0250  182.3010  140.1820 O   0  0  0  0  0  0  0  0  0  0  0  0
  188.9630  177.5000  140.8580 C   0  0  0  0  0  2  0  0  0  0  0  0
  190.4690  177.5570  140.6050 C   0  0  0  0  0  2  0  0  0  0  0  0
  191.2020  177.4100  141.9340 C   0  0  0  0  0  2  0  0  0  0  0  0
  191.4430  179.1750  143.5470 O   0  0  0  0  0  1  0  0  0  0  0  0
  190.5270  178.2470  143.0390 C   0  0  2  0  0  3  0  0  0  0  0  0
  189.9540  177.3360  144.1410 C   0  0  1  0  0  3  0  0  0  0  0  0
  189.4690  175.9770  143.5810 C   0  0  0  0  0  1  0  0  0  0  0  0
  191.8410  178.0720  145.5130 O   0  0  0  0  0  1  0  0  0  0  0  0
  191.4720  175.7760  145.5670 C   0  0  0  0  0  2  0  0  0  0  0  0
  190.8000  177.1200  145.4430 C   0  0  2  0  0  0  0  0  0  0  0  0
  190.9580  176.5080  148.0550 C   0  0  1  0  0  3  0  0  0  0  0  0
  190.1220  176.9040  146.8250 C   0  0  2  0  0  0  0  0  0  0  0  0
  190.8030  175.5170  146.9060 C   0  0  1  0  0  3  0  0  0  0  0  0
  192.2680  177.1480  148.0730 N   0  0  0  0  0  2  0  0  0  0  0  0
  193.1990  176.2420  148.7320 C   0  0  0  0  0  1  0  0  0  0  0  0
  188.5730  176.7080  146.8970 C   0  0  0  0  0  2  0  0  0  0  0  0
  187.6670  177.9230  146.5180 C   0  0  1  0  0  3  0  0  0  0  0  0
  186.4780  177.5860  145.1580 S   0  0  0  0  0  1  0  0  0  0  0  0
  187.0280  178.5440  147.6430 O   0  0  0  0  0  0  0  0  0  0  0  0
  185.6740  178.7500  147.3270 C   0  0  0  0  0  1  0  0  0  0  0  0
  1 13  1  6  0  0  0
  1 14  1  0  0  0  0
  1 21  1  0  0  0  0
  2 16  1  0  0  0  0
  3 19  1  0  0  0  0
  4 11  1  0  0  0  0
  5  4  2  0  0  0  0
  6 11  2  0  0  0  0
  6 17  1  0  0  0  0
  7  6  1  0  0  0  0
  8 22  1  0  0  0  0
  9  5  1  0  0  0  0
  9  7  2  0  0  0  0
 10 20  1  0  0  0  0
 11 22  1  0  0  0  0
 12 26  1  0  0  0  0
 14 12  1  0  0  0  0
 15 23  1  0  0  0  0
 15 32  1  0  0  0  0
 16 24  1  0  0  0  0
 17 15  2  0  0  0  0
 18  2  1  0  0  0  0
 19 18  1  0  0  0  0
 19  8  1  0  0  0  0
 21 10  1  0  0  0  0
 22 23  2  0  0  0  0
 23 13  1  0  0  0  0
 24 36  1  1  0  0  0
 24 25  1  0  0  0  0
 25 12  2  0  0  0  0
 26 20  1  0  0  0  0
 27 32  2  0  0  0  0
 27 31  1  0  0  0  0
 28 30  1  0  0  0  0
 28 33  1  0  0  0  0
 29 30  2  0  0  0  0
 31 28  2  0  0  0  0
 32 29  1  0  0  0  0
 33 34  1  0  0  0  0
 35 33  2  0  0  0  0
 37 36  1  0  0  0  0
 37 38  1  0  0  0  0
 38 40  1  0  0  0  0
 40 39  1  1  0  0  0
 40 41  1  0  0  0  0
 41 42  1  6  0  0  0
 41 45  1  0  0  0  0
 45 43  1  1  0  0  0
 45 44  1  0  0  0  0
 45 47  1  0  0  0  0
 46 49  1  6  0  0  0
 47 51  1  1  0  0  0
 47 48  1  0  0  0  0
 47 46  1  0  0  0  0
 48 44  1  6  0  0  0
 48 46  1  0  0  0  0
 49 50  1  0  0  0  0
 52 53  1  6  0  0  0
 52 51  1  0  0  0  0
 52 54  1  0  0  0  0
 55 54  1  0  0  0  0
M  END
>  <MODEL>
8

>  <REMARK>
 VINA RESULT:      -4.0      2.164      6.026
  Name = 
  12 active torsions:
  status: ('A' for Active; 'I' for Inactive)
    1  A    between atoms: C_1  and  O_30
    2  A    between atoms: C_1  and  C_53
    3  A    between atoms: C_6  and  C_14
    4  A    between atoms: C_6  and  C_20
    5  A    between atoms: C_8  and  C_22
    6  A    between atoms: C_8  and  C_43
    7  A    between atoms: C_10  and  C_32
    8  A    between atoms: N_11  and  C_29
    9  A    between atoms: C_20  and  C_22
   10  A    between atoms: C_33  and  C_52
   11  A    between atoms: C_38  and  C_53
   12  A    between atoms: C_43  and  C_51
                            x       y       z     vdW  Elec       q    Type
                         _______ _______ _______ _____ _____    ______ ____

>  <TORSDO>
F 12

$$$$
=
 OpenBabel10262420173D

 55 61  0  0  1  0  0  0  0  0999 V2000
  186.7070  177.9330  137.9050 C   0  0  1  0  0  3  0  0  0  0  0  0
  185.4360  177.9410  142.4550 C   0  0  0  0  0  2  0  0  0  0  0  0
  182.0130  178.8980  141.4960 C   0  0  0  0  0  1  0  0  0  0  0  0
  181.5420  180.2740  138.6830 C   0  0  0  0  0  3  0  0  0  0  0  0
  180.3610  180.7220  138.0850 C   0  0  0  0  0  3  0  0  0  0  0  0
  181.7400  178.5320  137.0020 C   0  0  0  0  0  0  0  0  0  0  0  0
  180.5550  178.9850  136.4090 C   0  0  0  0  0  3  0  0  0  0  0  0
  183.8680  179.2450  140.1070 C   0  0  0  0  0  2  0  0  0  0  0  0
  179.8660  180.0740  136.9510 C   0  0  0  0  0  3  0  0  0  0  0  0
  187.7060  175.8130  137.0510 N   0  0  0  0  0  2  0  0  0  0  0  0
  182.2450  179.1670  138.1600 C   0  0  0  0  0  0  0  0  0  0  0  0
  188.4270  177.1720  139.6300 C   0  0  0  0  0  0  0  0  0  0  0  0
  185.5480  177.2600  138.6560 C   0  0  0  0  0  2  0  0  0  0  0  0
  187.8690  178.3230  138.8230 C   0  0  0  0  0  2  0  0  0  0  0  0
  183.6250  176.9960  137.0050 C   0  0  0  0  0  0  0  0  0  0  0  0
  186.2240  178.2940  141.3590 O   0  0  0  0  0  0  0  0  0  0  0  0
  182.4260  177.4460  136.4460 C   0  0  0  0  0  3  0  0  0  0  0  0
  184.1420  178.7500  142.3940 C   0  0  0  0  0  2  0  0  0  0  0  0
  183.3530  178.4270  141.2030 N   0  0  0  0  0  0  0  0  0  0  0  0
  189.0850  175.9950  137.4780 C   0  0  0  0  0  2  0  0  0  0  0  0
  187.1860  177.1300  136.6830 C   0  0  0  0  0  2  0  0  0  0  0  0
  183.4310  178.6970  138.7640 C   0  0  0  0  0  0  0  0  0  0  0  0
  184.1790  177.6520  138.1320 C   0  0  0  0  0  0  0  0  0  0  0  0
  187.5620  178.2050  141.7640 C   0  0  1  0  0  3  0  0  0  0  0  0
  188.2850  177.1520  140.9580 C   0  0  0  0  0  3  0  0  0  0  0  0
  189.1560  176.0090  139.0030 C   0  0  0  0  0  2  0  0  0  0  0  0
  184.3590  174.6200  137.2350 C   0  0  0  0  0  3  0  0  0  0  0  0
  185.4020  173.4260  135.3920 C   0  0  0  0  0  0  0  0  0  0  0  0
  184.6900  175.7400  135.1140 C   0  0  0  0  0  3  0  0  0  0  0  0
  185.2840  174.5750  134.5940 C   0  0  0  0  0  3  0  0  0  0  0  0
  184.9580  173.4640  136.7200 C   0  0  0  0  0  3  0  0  0  0  0  0
  184.2480  175.7720  136.4390 C   0  0  0  0  0  0  0  0  0  0  0  0
  186.0720  172.2170  134.8760 C   0  0  0  0  0  0  0  0  0  0  0  0
  187.4690  172.1970  134.8580 O   0  0  0  0  0  1  0  0  0  0  0  0
  185.4590  171.1200  134.7940 O   0  0  0  0  0  0  0  0  0  0  0  0
  188.2480  179.5690  141.6680 C   0  0  0  0  0  2  0  0  0  0  0  0
  189.7580  179.3660  141.5540 C   0  0  0  0  0  2  0  0  0  0  0  0
  190.3400  179.1610  142.9480 C   0  0  0  0  0  2  0  0  0  0  0  0
  191.4860  177.4700  141.6800 O   0  0  0  0  0  1  0  0  0  0  0  0
  191.2930  177.9490  142.9820 C   0  0  2  0  0  3  0  0  0  0  0  0
  190.7550  176.8570  143.9270 C   0  0  1  0  0  3  0  0  0  0  0  0
  190.7720  175.4560  143.2690 C   0  0  0  0  0  1  0  0  0  0  0  0
  192.4150  177.6770  145.5260 O   0  0  0  0  0  1  0  0  0  0  0  0
  191.8560  175.4380  145.8100 C   0  0  0  0  0  2  0  0  0  0  0  0
  191.3300  176.7850  145.3830 C   0  0  2  0  0  0  0  0  0  0  0  0
  190.9590  176.5480  148.0340 C   0  0  1  0  0  3  0  0  0  0  0  0
  190.3960  176.8090  146.6260 C   0  0  2  0  0  0  0  0  0  0  0  0
  190.9350  175.4120  147.0180 C   0  0  1  0  0  3  0  0  0  0  0  0
  192.2920  177.1110  148.2190 N   0  0  0  0  0  2  0  0  0  0  0  0
  193.1400  176.0730  148.7910 C   0  0  0  0  0  1  0  0  0  0  0  0
  188.8500  176.7120  146.4260 C   0  0  0  0  0  2  0  0  0  0  0  0
  188.0150  178.0270  146.5480 C   0  0  1  0  0  3  0  0  0  0  0  0
  186.2220  177.8210  146.2090 S   0  0  0  0  0  1  0  0  0  0  0  0
  188.2480  178.7510  147.7650 O   0  0  0  0  0  0  0  0  0  0  0  0
  187.9870  177.8940  148.8480 C   0  0  0  0  0  1  0  0  0  0  0  0
  1 21  1  6  0  0  0
  1 13  1  0  0  0  0
  1 14  1  0  0  0  0
  5  4  2  0  0  0  0
  6 11  1  0  0  0  0
  7  9  2  0  0  0  0
  7  6  1  0  0  0  0
  8 19  1  0  0  0  0
  9  5  1  0  0  0  0
 10 20  1  0  0  0  0
 11  4  1  0  0  0  0
 11 22  2  0  0  0  0
 12 25  2  0  0  0  0
 14 12  1  0  0  0  0
 15 23  2  0  0  0  0
 16 24  1  0  0  0  0
 16  2  1  0  0  0  0
 17  6  2  0  0  0  0
 17 15  1  0  0  0  0
 18  2  1  0  0  0  0
 19  3  1  0  0  0  0
 19 18  1  0  0  0  0
 20 26  1  0  0  0  0
 21 10  1  0  0  0  0
 22  8  1  0  0  0  0
 23 13  1  0  0  0  0
 23 22  1  0  0  0  0
 24 36  1  6  0  0  0
 25 24  1  0  0  0  0
 26 12  1  0  0  0  0
 28 31  2  0  0  0  0
 29 32  1  0  0  0  0
 30 29  2  0  0  0  0
 30 28  1  0  0  0  0
 31 27  1  0  0  0  0
 32 15  1  0  0  0  0
 32 27  2  0  0  0  0
 33 28  1  0  0  0  0
 34 33  1  0  0  0  0
 35 33  2  0  0  0  0
 37 36  1  0  0  0  0
 37 38  1  0  0  0  0
 38 40  1  0  0  0  0
 40 39  1  6  0  0  0
 40 41  1  0  0  0  0
 41 42  1  6  0  0  0
 41 45  1  0  0  0  0
 45 43  1  1  0  0  0
 45 44  1  0  0  0  0
 45 47  1  0  0  0  0
 46 49  1  6  0  0  0
 47 51  1  6  0  0  0
 47 48  1  0  0  0  0
 47 46  1  0  0  0  0
 48 44  1  6  0  0  0
 48 46  1  0  0  0  0
 49 50  1  0  0  0  0
 51 52  1  0  0  0  0
 52 53  1  1  0  0  0
 52 54  1  0  0  0  0
 54 55  1  0  0  0  0
M  END
>  <MODEL>
9

>  <REMARK>
 VINA RESULT:      -4.0      1.867      3.493
  Name = 
  12 active torsions:
  status: ('A' for Active; 'I' for Inactive)
    1  A    between atoms: C_1  and  O_30
    2  A    between atoms: C_1  and  C_53
    3  A    between atoms: C_6  and  C_14
    4  A    between atoms: C_6  and  C_20
    5  A    between atoms: C_8  and  C_22
    6  A    between atoms: C_8  and  C_43
    7  A    between atoms: C_10  and  C_32
    8  A    between atoms: N_11  and  C_29
    9  A    between atoms: C_20  and  C_22
   10  A    between atoms: C_33  and  C_52
   11  A    between atoms: C_38  and  C_53
   12  A    between atoms: C_43  and  C_51
                            x       y       z     vdW  Elec       q    Type
                         _______ _______ _______ _____ _____    ______ ____

>  <TORSDO>
F 12

$$$$
