=
 OpenBabel10262420043D

 27 31  0  0  1  0  0  0  0  0999 V2000
  185.3310  178.8740  145.0210 C   0  0  0  0  0  3  0  0  0  0  0  0
  186.5810  178.2440  142.9820 C   0  0  0  0  0  0  0  0  0  0  0  0
  187.8650  177.1830  144.8440 C   0  0  0  0  0  3  0  0  0  0  0  0
  189.6370  177.7570  140.4950 N   0  0  0  0  0  0  0  0  0  0  0  0
  191.8420  177.5750  141.3760 N   0  0  0  0  0  1  0  0  0  0  0  0
  186.5600  178.9110  141.6470 C   0  0  0  0  0  3  0  0  0  0  0  0
  189.9590  176.7810  142.6210 N   0  0  0  0  0  0  0  0  0  0  0  0
  188.5830  177.5660  148.0070 C   0  0  0  0  0  2  0  0  0  0  0  0
  189.2390  175.5100  142.5990 C   0  0  0  0  0  1  0  0  0  0  0  0
  188.2110  179.0340  148.2290 C   0  0  0  0  0  2  0  0  0  0  0  0
  189.0360  177.9300  142.7000 C   0  0  1  0  0  3  0  0  0  0  0  0
  185.2980  178.0780  143.7600 C   0  0  2  0  0  3  0  0  0  0  0  0
  190.5460  176.9260  141.2760 C   0  0  1  0  0  3  0  0  0  0  0  0
  188.8090  178.3110  141.3000 C   0  0  0  0  0  0  0  0  0  0  0  0
  186.1700  178.6120  146.0240 C   0  0  0  0  0  0  0  0  0  0  0  0
  187.7460  177.7610  143.4840 C   0  0  0  0  0  0  0  0  0  0  0  0
  187.5450  176.7830  147.2010 C   0  0  0  0  0  2  0  0  0  0  0  0
  187.6000  178.9260  140.8680 N   0  0  0  0  0  0  0  0  0  0  0  0
  186.7090  179.2080  148.4130 C   0  0  0  0  0  2  0  0  0  0  0  0
  186.0610  179.4310  147.1610 O   0  0  0  0  0  0  0  0  0  0  0  0
  187.1670  177.4990  145.9470 C   0  0  0  0  0  0  0  0  0  0  0  0
  181.6620  178.7610  141.5590 C   0  0  0  0  0  3  0  0  0  0  0  0
  184.0430  178.3230  142.9700 C   0  0  0  0  0  0  0  0  0  0  0  0
  183.9420  177.9520  141.6200 C   0  0  0  0  0  3  0  0  0  0  0  0
  182.7550  178.1730  140.9160 C   0  0  0  0  0  3  0  0  0  0  0  0
  181.7550  179.1260  142.9050 C   0  0  0  0  0  3  0  0  0  0  0  0
  182.9430  178.9060  143.6090 C   0  0  0  0  0  3  0  0  0  0  0  0
  1 15  2  0  0  0  0
  2 16  2  0  0  0  0
  2 12  1  0  0  0  0
  3 21  2  0  0  0  0
  4 13  1  0  0  0  0
  4 14  2  0  0  0  0
  6  2  1  0  0  0  0
  7 11  1  0  0  0  0
  8 10  1  0  0  0  0
  9  7  1  0  0  0  0
 10 19  1  0  0  0  0
 11 14  1  6  0  0  0
 11 16  1  0  0  0  0
 12 23  1  6  0  0  0
 12  1  1  0  0  0  0
 13  5  1  1  0  0  0
 13  7  1  0  0  0  0
 15 20  1  0  0  0  0
 16  3  1  0  0  0  0
 17  8  1  0  0  0  0
 18 14  1  0  0  0  0
 18  6  2  0  0  0  0
 20 19  1  0  0  0  0
 21 15  1  0  0  0  0
 21 17  1  0  0  0  0
 22 26  1  0  0  0  0
 23 27  1  0  0  0  0
 24 23  2  0  0  0  0
 25 22  2  0  0  0  0
 25 24  1  0  0  0  0
 26 27  2  0  0  0  0
M  END
>  <MODEL>
1

>  <REMARK>
 VINA RESULT:      -8.8      0.000      0.000
  Name = 
  1 active torsions:
  status: ('A' for Active; 'I' for Inactive)
    1  A    between atoms: C_9  and  C_15
                            x       y       z     vdW  Elec       q    Type
                         _______ _______ _______ _____ _____    ______ ____

>  <TORSDO>
F 1

$$$$
=
 OpenBabel10262420043D

 27 31  0  0  1  0  0  0  0  0999 V2000
  191.5400  176.9270  139.7810 C   0  0  0  0  0  3  0  0  0  0  0  0
  189.1080  177.1460  139.3870 C   0  0  0  0  0  0  0  0  0  0  0  0
  189.8780  175.5500  137.6240 C   0  0  0  0  0  3  0  0  0  0  0  0
  185.6940  177.7530  137.4550 N   0  0  0  0  0  0  0  0  0  0  0  0
  185.6000  177.3800  135.1040 N   0  0  0  0  0  1  0  0  0  0  0  0
  188.2010  178.2500  139.8190 C   0  0  0  0  0  3  0  0  0  0  0  0
  187.0660  176.0920  136.4880 N   0  0  0  0  0  0  0  0  0  0  0  0
  192.4870  174.7970  135.8100 C   0  0  0  0  0  2  0  0  0  0  0  0
  186.8510  174.8790  137.2760 C   0  0  0  0  0  1  0  0  0  0  0  0
  193.3340  176.0630  135.9540 C   0  0  0  0  0  2  0  0  0  0  0  0
  187.8740  177.0840  137.2240 C   0  0  1  0  0  3  0  0  0  0  0  0
  190.1800  176.6420  140.3230 C   0  0  2  0  0  3  0  0  0  0  0  0
  185.7470  176.7450  136.4020 C   0  0  1  0  0  3  0  0  0  0  0  0
  186.8830  177.9340  137.8960 C   0  0  0  0  0  0  0  0  0  0  0  0
  192.0120  176.3630  138.6690 C   0  0  0  0  0  0  0  0  0  0  0  0
  188.9530  176.5750  138.1650 C   0  0  0  0  0  0  0  0  0  0  0  0
  191.8830  174.3070  137.1280 C   0  0  0  0  0  2  0  0  0  0  0  0
  187.1620  178.6000  139.1230 N   0  0  0  0  0  0  0  0  0  0  0  0
  194.0930  176.0800  137.2750 C   0  0  0  0  0  2  0  0  0  0  0  0
  193.3240  176.7080  138.3010 O   0  0  0  0  0  0  0  0  0  0  0  0
  191.1920  175.4080  137.8600 C   0  0  0  0  0  0  0  0  0  0  0  0
  189.8410  177.9220  144.4190 C   0  0  0  0  0  3  0  0  0  0  0  0
  190.0350  177.0910  141.7500 C   0  0  0  0  0  0  0  0  0  0  0  0
  188.9740  176.6460  142.5540 C   0  0  0  0  0  3  0  0  0  0  0  0
  188.8760  177.0630  143.8850 C   0  0  0  0  0  3  0  0  0  0  0  0
  190.9030  178.3630  143.6240 C   0  0  0  0  0  3  0  0  0  0  0  0
  191.0000  177.9460  142.2930 C   0  0  0  0  0  3  0  0  0  0  0  0
  1 12  1  0  0  0  0
  2  6  1  0  0  0  0
  2 12  1  0  0  0  0
  3 21  2  0  0  0  0
  3 16  1  0  0  0  0
  4 14  2  0  0  0  0
  7 11  1  0  0  0  0
  7  9  1  0  0  0  0
  8 10  1  0  0  0  0
  8 17  1  0  0  0  0
 10 19  1  0  0  0  0
 11 14  1  1  0  0  0
 11 16  1  0  0  0  0
 12 23  1  1  0  0  0
 13  5  1  6  0  0  0
 13  7  1  0  0  0  0
 13  4  1  0  0  0  0
 14 18  1  0  0  0  0
 15  1  2  0  0  0  0
 16  2  2  0  0  0  0
 17 21  1  0  0  0  0
 18  6  2  0  0  0  0
 19 20  1  0  0  0  0
 20 15  1  0  0  0  0
 21 15  1  0  0  0  0
 23 27  2  0  0  0  0
 23 24  1  0  0  0  0
 24 25  2  0  0  0  0
 25 22  1  0  0  0  0
 26 22  2  0  0  0  0
 27 26  1  0  0  0  0
M  END
>  <MODEL>
2

>  <REMARK>
 VINA RESULT:      -8.5      4.543      8.252
  Name = 
  1 active torsions:
  status: ('A' for Active; 'I' for Inactive)
    1  A    between atoms: C_9  and  C_15
                            x       y       z     vdW  Elec       q    Type
                         _______ _______ _______ _____ _____    ______ ____

>  <TORSDO>
F 1

$$$$
=
 OpenBabel10262420043D

 27 31  0  0  1  0  0  0  0  0999 V2000
  187.1840  177.8110  142.6590 C   0  0  0  0  0  3  0  0  0  0  0  0
  188.8890  177.5030  140.8940 C   0  0  0  0  0  0  0  0  0  0  0  0
  186.9890  178.6280  139.7250 C   0  0  0  0  0  3  0  0  0  0  0  0
  190.4990  176.4470  137.4220 N   0  0  0  0  0  0  0  0  0  0  0  0
  189.1040  176.2430  135.5020 N   0  0  0  0  0  1  0  0  0  0  0  0
  190.0260  176.5350  140.8710 C   0  0  0  0  0  3  0  0  0  0  0  0
  188.5940  177.8280  137.2210 N   0  0  0  0  0  0  0  0  0  0  0  0
  183.7370  178.9240  139.8160 C   0  0  0  0  0  2  0  0  0  0  0  0
  189.0550  179.1940  137.4580 C   0  0  0  0  0  1  0  0  0  0  0  0
  183.3470  177.7300  140.6900 C   0  0  0  0  0  2  0  0  0  0  0  0
  188.5490  177.0420  138.4690 C   0  0  1  0  0  3  0  0  0  0  0  0
  188.5360  178.2170  142.1760 C   0  0  2  0  0  3  0  0  0  0  0  0
  189.6750  177.1730  136.4620 C   0  0  1  0  0  3  0  0  0  0  0  0
  189.8570  176.3780  138.5280 C   0  0  0  0  0  0  0  0  0  0  0  0
  186.0610  178.0910  141.9960 C   0  0  0  0  0  0  0  0  0  0  0  0
  188.1920  177.7630  139.7580 C   0  0  0  0  0  0  0  0  0  0  0  0
  184.9310  179.7160  140.3540 C   0  0  0  0  0  2  0  0  0  0  0  0
  190.4750  176.0270  139.7620 N   0  0  0  0  0  0  0  0  0  0  0  0
  183.5470  178.0320  142.1690 C   0  0  0  0  0  2  0  0  0  0  0  0
  184.8610  177.6680  142.5940 O   0  0  0  0  0  0  0  0  0  0  0  0
  186.0780  178.8230  140.6920 C   0  0  0  0  0  0  0  0  0  0  0  0
  191.4540  177.9470  145.3280 C   0  0  0  0  0  3  0  0  0  0  0  0
  189.5740  178.1250  143.2590 C   0  0  0  0  0  0  0  0  0  0  0  0
  190.7420  178.9030  143.2220 C   0  0  0  0  0  3  0  0  0  0  0  0
  191.6810  178.8120  144.2540 C   0  0  0  0  0  3  0  0  0  0  0  0
  190.2900  177.1750  145.3720 C   0  0  0  0  0  3  0  0  0  0  0  0
  189.3510  177.2660  144.3400 C   0  0  0  0  0  3  0  0  0  0  0  0
  2 12  1  0  0  0  0
  3 16  1  0  0  0  0
  3 21  2  0  0  0  0
  4 14  2  0  0  0  0
  6  2  1  0  0  0  0
  7  9  1  0  0  0  0
  7 11  1  0  0  0  0
  8 17  1  0  0  0  0
  8 10  1  0  0  0  0
 10 19  1  0  0  0  0
 11 14  1  1  0  0  0
 11 16  1  0  0  0  0
 12  1  1  0  0  0  0
 12 23  1  1  0  0  0
 13  5  1  6  0  0  0
 13  7  1  0  0  0  0
 13  4  1  0  0  0  0
 14 18  1  0  0  0  0
 15 20  1  0  0  0  0
 15  1  2  0  0  0  0
 16  2  2  0  0  0  0
 17 21  1  0  0  0  0
 18  6  2  0  0  0  0
 19 20  1  0  0  0  0
 21 15  1  0  0  0  0
 22 26  1  0  0  0  0
 23 27  1  0  0  0  0
 24 23  2  0  0  0  0
 24 25  1  0  0  0  0
 25 22  2  0  0  0  0
 27 26  2  0  0  0  0
M  END
>  <MODEL>
3

>  <REMARK>
 VINA RESULT:      -7.6      2.691      6.281
  Name = 
  1 active torsions:
  status: ('A' for Active; 'I' for Inactive)
    1  A    between atoms: C_9  and  C_15
                            x       y       z     vdW  Elec       q    Type
                         _______ _______ _______ _____ _____    ______ ____

>  <TORSDO>
F 1

$$$$
=
 OpenBabel10262420043D

 27 31  0  0  1  0  0  0  0  0999 V2000
  186.0240  177.9810  140.3810 C   0  0  0  0  0  3  0  0  0  0  0  0
  187.2170  177.8610  142.5440 C   0  0  0  0  0  0  0  0  0  0  0  0
  189.0120  178.3560  140.8770 C   0  0  0  0  0  3  0  0  0  0  0  0
  189.9180  176.7850  145.2470 N   0  0  0  0  0  0  0  0  0  0  0  0
  192.0550  176.0230  144.5230 N   0  0  0  0  0  1  0  0  0  0  0  0
  186.7760  177.1910  143.8030 C   0  0  0  0  0  3  0  0  0  0  0  0
  190.8420  177.6460  143.2520 N   0  0  0  0  0  0  0  0  0  0  0  0
  189.7960  177.8930  137.7410 C   0  0  0  0  0  2  0  0  0  0  0  0
  190.7510  179.1010  143.3570 C   0  0  0  0  0  1  0  0  0  0  0  0
  188.8430  176.7590  137.3530 C   0  0  0  0  0  2  0  0  0  0  0  0
  189.5220  177.0340  143.0040 C   0  0  1  0  0  3  0  0  0  0  0  0
  186.2190  178.6280  141.7110 C   0  0  2  0  0  3  0  0  0  0  0  0
  191.1700  177.1720  144.6080 C   0  0  1  0  0  3  0  0  0  0  0  0
  189.0150  176.7070  144.3420 C   0  0  0  0  0  0  0  0  0  0  0  0
  186.9870  177.9050  139.4620 C   0  0  0  0  0  0  0  0  0  0  0  0
  188.5190  177.8070  142.1640 C   0  0  0  0  0  0  0  0  0  0  0  0
  189.1310  179.0030  138.5570 C   0  0  0  0  0  2  0  0  0  0  0  0
  187.6230  176.6680  144.6380 N   0  0  0  0  0  0  0  0  0  0  0  0
  187.4430  177.2820  137.0620 C   0  0  0  0  0  2  0  0  0  0  0  0
  186.6430  177.2920  138.2440 O   0  0  0  0  0  0  0  0  0  0  0  0
  188.3570  178.4520  139.7090 C   0  0  0  0  0  0  0  0  0  0  0  0
  182.5070  179.4370  143.7350 C   0  0  0  0  0  3  0  0  0  0  0  0
  184.9120  178.9170  142.3950 C   0  0  0  0  0  0  0  0  0  0  0  0
  183.6840  178.5970  141.7950 C   0  0  0  0  0  3  0  0  0  0  0  0
  182.4850  178.8580  142.4630 C   0  0  0  0  0  3  0  0  0  0  0  0
  183.7270  179.7530  144.3390 C   0  0  0  0  0  3  0  0  0  0  0  0
  184.9270  179.4920  143.6710 C   0  0  0  0  0  3  0  0  0  0  0  0
  1 12  1  0  0  0  0
  2  6  1  0  0  0  0
  3 16  1  0  0  0  0
  6 18  2  0  0  0  0
  7  9  1  0  0  0  0
  7 13  1  0  0  0  0
  8 17  1  0  0  0  0
 10  8  1  0  0  0  0
 11 16  1  1  0  0  0
 11  7  1  0  0  0  0
 11 14  1  0  0  0  0
 12 23  1  1  0  0  0
 12  2  1  0  0  0  0
 13  5  1  6  0  0  0
 13  4  1  0  0  0  0
 14 18  1  0  0  0  0
 14  4  2  0  0  0  0
 15 21  1  0  0  0  0
 15  1  2  0  0  0  0
 16  2  2  0  0  0  0
 17 21  1  0  0  0  0
 19 10  1  0  0  0  0
 19 20  1  0  0  0  0
 20 15  1  0  0  0  0
 21  3  2  0  0  0  0
 22 26  1  0  0  0  0
 23 27  1  0  0  0  0
 24 23  2  0  0  0  0
 24 25  1  0  0  0  0
 25 22  2  0  0  0  0
 27 26  2  0  0  0  0
M  END
>  <MODEL>
4

>  <REMARK>
 VINA RESULT:      -7.4      2.877      5.417
  Name = 
  1 active torsions:
  status: ('A' for Active; 'I' for Inactive)
    1  A    between atoms: C_9  and  C_15
                            x       y       z     vdW  Elec       q    Type
                         _______ _______ _______ _____ _____    ______ ____

>  <TORSDO>
F 1

$$$$
=
 OpenBabel10262420043D

 27 31  0  0  1  0  0  0  0  0999 V2000
  188.8340  176.8880  139.1250 C   0  0  0  0  0  3  0  0  0  0  0  0
  188.8790  177.3040  141.5630 C   0  0  0  0  0  0  0  0  0  0  0  0
  191.2830  177.3680  140.8820 C   0  0  0  0  0  3  0  0  0  0  0  0
  189.8920  176.9240  145.3830 N   0  0  0  0  0  0  0  0  0  0  0  0
  192.0160  176.0010  145.9410 N   0  0  0  0  0  1  0  0  0  0  0  0
  187.8340  176.9670  142.5740 C   0  0  0  0  0  3  0  0  0  0  0  0
  191.7220  177.2630  143.9290 N   0  0  0  0  0  0  0  0  0  0  0  0
  193.3560  176.1420  138.6760 C   0  0  0  0  0  2  0  0  0  0  0  0
  191.7680  178.6990  143.6610 C   0  0  0  0  0  1  0  0  0  0  0  0
  192.5600  174.9500  138.1390 C   0  0  0  0  0  2  0  0  0  0  0  0
  190.6010  176.6120  143.2250 C   0  0  1  0  0  3  0  0  0  0  0  0
  188.4730  177.8430  140.2130 C   0  0  2  0  0  3  0  0  0  0  0  0
  191.3340  177.1380  145.3460 C   0  0  1  0  0  3  0  0  0  0  0  0
  189.5020  176.6260  144.1990 C   0  0  0  0  0  0  0  0  0  0  0  0
  190.0950  176.5860  138.8130 C   0  0  0  0  0  0  0  0  0  0  0  0
  190.1940  177.1550  141.8660 C   0  0  0  0  0  0  0  0  0  0  0  0
  192.5280  177.4210  138.8180 C   0  0  0  0  0  2  0  0  0  0  0  0
  188.1350  176.6640  143.8010 N   0  0  0  0  0  0  0  0  0  0  0  0
  191.5210  175.3880  137.1140 C   0  0  0  0  0  2  0  0  0  0  0  0
  190.2760  175.6910  137.7430 O   0  0  0  0  0  0  0  0  0  0  0  0
  191.2530  177.1730  139.5540 C   0  0  0  0  0  0  0  0  0  0  0  0
  184.3920  179.1680  139.8660 C   0  0  0  0  0  3  0  0  0  0  0  0
  187.0430  178.2960  140.1150 C   0  0  0  0  0  0  0  0  0  0  0  0
  186.3550  178.7970  141.2320 C   0  0  0  0  0  3  0  0  0  0  0  0
  185.0320  179.2300  141.1080 C   0  0  0  0  0  3  0  0  0  0  0  0
  185.0750  178.6750  138.7510 C   0  0  0  0  0  3  0  0  0  0  0  0
  186.3980  178.2420  138.8750 C   0  0  0  0  0  3  0  0  0  0  0  0
  1 12  1  0  0  0  0
  2 16  2  0  0  0  0
  2  6  1  0  0  0  0
  3 16  1  0  0  0  0
  6 18  2  0  0  0  0
  7 13  1  0  0  0  0
  8 17  1  0  0  0  0
  9  7  1  0  0  0  0
 10  8  1  0  0  0  0
 11 16  1  6  0  0  0
 11  7  1  0  0  0  0
 11 14  1  0  0  0  0
 12 23  1  1  0  0  0
 12  2  1  0  0  0  0
 13  4  1  0  0  0  0
 13  5  1  6  0  0  0
 14  4  2  0  0  0  0
 15  1  2  0  0  0  0
 15 21  1  0  0  0  0
 17 21  1  0  0  0  0
 18 14  1  0  0  0  0
 19 20  1  0  0  0  0
 19 10  1  0  0  0  0
 20 15  1  0  0  0  0
 21  3  2  0  0  0  0
 22 25  1  0  0  0  0
 23 24  1  0  0  0  0
 25 24  2  0  0  0  0
 26 27  1  0  0  0  0
 26 22  2  0  0  0  0
 27 23  2  0  0  0  0
M  END
>  <MODEL>
5

>  <REMARK>
 VINA RESULT:      -7.4      3.628      6.402
  Name = 
  1 active torsions:
  status: ('A' for Active; 'I' for Inactive)
    1  A    between atoms: C_9  and  C_15
                            x       y       z     vdW  Elec       q    Type
                         _______ _______ _______ _____ _____    ______ ____

>  <TORSDO>
F 1

$$$$
=
 OpenBabel10262420043D

 27 31  0  0  1  0  0  0  0  0999 V2000
  188.1850  178.5410  140.7390 C   0  0  0  0  0  3  0  0  0  0  0  0
  185.8850  178.4230  141.6400 C   0  0  0  0  0  0  0  0  0  0  0  0
  185.6480  177.7260  139.2520 C   0  0  0  0  0  3  0  0  0  0  0  0
  181.9710  179.0200  141.9350 N   0  0  0  0  0  0  0  0  0  0  0  0
  180.7100  179.4890  139.9690 N   0  0  0  0  0  1  0  0  0  0  0  0
  185.3310  179.1120  142.8430 C   0  0  0  0  0  3  0  0  0  0  0  0
  182.6520  178.0940  139.8720 N   0  0  0  0  0  0  0  0  0  0  0  0
  186.9910  178.1650  136.3080 C   0  0  0  0  0  2  0  0  0  0  0  0
  182.8420  176.6650  140.1100 C   0  0  0  0  0  1  0  0  0  0  0  0
  187.8150  179.4340  136.5350 C   0  0  0  0  0  2  0  0  0  0  0  0
  183.7340  178.8970  140.4750 C   0  0  1  0  0  3  0  0  0  0  0  0
  187.2730  177.8330  141.6840 C   0  0  2  0  0  3  0  0  0  0  0  0
  181.4770  178.4760  140.6750 C   0  0  1  0  0  3  0  0  0  0  0  0
  183.2240  179.2530  141.8050 C   0  0  0  0  0  0  0  0  0  0  0  0
  188.0300  178.5040  139.4150 C   0  0  0  0  0  0  0  0  0  0  0  0
  185.1310  178.3010  140.5180 C   0  0  0  0  0  0  0  0  0  0  0  0
  187.1190  177.1380  137.4340 C   0  0  0  0  0  2  0  0  0  0  0  0
  184.0880  179.4830  142.9130 N   0  0  0  0  0  0  0  0  0  0  0  0
  189.1320  179.1270  137.2350 C   0  0  0  0  0  2  0  0  0  0  0  0
  188.9880  179.1970  138.6540 O   0  0  0  0  0  0  0  0  0  0  0  0
  186.9020  177.7600  138.7740 C   0  0  0  0  0  0  0  0  0  0  0  0
  189.0410  177.4730  145.5920 C   0  0  0  0  0  3  0  0  0  0  0  0
  187.8680  177.7140  143.0590 C   0  0  0  0  0  0  0  0  0  0  0  0
  187.1360  177.1760  144.1300 C   0  0  0  0  0  3  0  0  0  0  0  0
  187.7210  177.0570  145.3940 C   0  0  0  0  0  3  0  0  0  0  0  0
  189.7760  178.0030  144.5280 C   0  0  0  0  0  3  0  0  0  0  0  0
  189.1900  178.1220  143.2640 C   0  0  0  0  0  3  0  0  0  0  0  0
  1 12  1  0  0  0  0
  2 12  1  0  0  0  0
  2  6  1  0  0  0  0
  3 16  1  0  0  0  0
  6 18  2  0  0  0  0
  7  9  1  0  0  0  0
  7 11  1  0  0  0  0
  7 13  1  0  0  0  0
  8 10  1  0  0  0  0
  8 17  1  0  0  0  0
 10 19  1  0  0  0  0
 11 16  1  1  0  0  0
 11 14  1  0  0  0  0
 12 23  1  1  0  0  0
 13  5  1  6  0  0  0
 13  4  1  0  0  0  0
 14  4  2  0  0  0  0
 14 18  1  0  0  0  0
 15  1  2  0  0  0  0
 16  2  2  0  0  0  0
 17 21  1  0  0  0  0
 19 20  1  0  0  0  0
 20 15  1  0  0  0  0
 21  3  2  0  0  0  0
 21 15  1  0  0  0  0
 23 27  2  0  0  0  0
 23 24  1  0  0  0  0
 24 25  2  0  0  0  0
 25 22  1  0  0  0  0
 26 22  2  0  0  0  0
 27 26  1  0  0  0  0
M  END
>  <MODEL>
6

>  <REMARK>
 VINA RESULT:      -6.7      3.550      7.467
  Name = 
  1 active torsions:
  status: ('A' for Active; 'I' for Inactive)
    1  A    between atoms: C_9  and  C_15
                            x       y       z     vdW  Elec       q    Type
                         _______ _______ _______ _____ _____    ______ ____

>  <TORSDO>
F 1

$$$$
=
 OpenBabel10262420043D

 27 31  0  0  1  0  0  0  0  0999 V2000
  185.1970  178.7000  139.6480 C   0  0  0  0  0  3  0  0  0  0  0  0
  182.7670  178.9300  139.2480 C   0  0  0  0  0  0  0  0  0  0  0  0
  183.5710  177.5020  137.3610 C   0  0  0  0  0  3  0  0  0  0  0  0
  179.3670  179.6720  137.3380 N   0  0  0  0  0  0  0  0  0  0  0  0
  179.3010  179.5050  134.9620 N   0  0  0  0  0  1  0  0  0  0  0  0
  181.8440  179.9830  139.7650 C   0  0  0  0  0  3  0  0  0  0  0  0
  180.7650  178.1140  136.2460 N   0  0  0  0  0  0  0  0  0  0  0  0
  186.2060  176.9340  135.5180 C   0  0  0  0  0  2  0  0  0  0  0  0
  180.5550  176.8350  136.9210 C   0  0  0  0  0  1  0  0  0  0  0  0
  187.0390  178.1900  135.7810 C   0  0  0  0  0  2  0  0  0  0  0  0
  181.5560  179.0460  137.0740 C   0  0  1  0  0  3  0  0  0  0  0  0
  183.8340  178.3570  140.1480 C   0  0  2  0  0  3  0  0  0  0  0  0
  179.4410  178.7600  136.2020 C   0  0  1  0  0  3  0  0  0  0  0  0
  180.5490  179.8250  137.8060 C   0  0  0  0  0  0  0  0  0  0  0  0
  185.6860  178.2400  138.4960 C   0  0  0  0  0  0  0  0  0  0  0  0
  182.6300  178.4670  137.9790 C   0  0  0  0  0  0  0  0  0  0  0  0
  185.5940  176.3250  136.7810 C   0  0  0  0  0  2  0  0  0  0  0  0
  180.8090  180.3830  139.0900 N   0  0  0  0  0  0  0  0  0  0  0  0
  187.7840  178.0990  137.1070 C   0  0  0  0  0  2  0  0  0  0  0  0
  186.9980  178.6280  138.1750 O   0  0  0  0  0  0  0  0  0  0  0  0
  184.8840  177.3520  137.5990 C   0  0  0  0  0  0  0  0  0  0  0  0
  183.4300  179.2400  144.3420 C   0  0  0  0  0  3  0  0  0  0  0  0
  183.6700  178.6770  141.6070 C   0  0  0  0  0  0  0  0  0  0  0  0
  182.4140  178.6280  142.2320 C   0  0  0  0  0  3  0  0  0  0  0  0
  182.2940  178.9100  143.5960 C   0  0  0  0  0  3  0  0  0  0  0  0
  184.6840  179.2840  143.7260 C   0  0  0  0  0  3  0  0  0  0  0  0
  184.8030  179.0020  142.3620 C   0  0  0  0  0  3  0  0  0  0  0  0
  1 12  1  0  0  0  0
  2  6  1  0  0  0  0
  2 12  1  0  0  0  0
  3 21  2  0  0  0  0
  3 16  1  0  0  0  0
  4 14  2  0  0  0  0
  7  9  1  0  0  0  0
  7 11  1  0  0  0  0
  8 10  1  0  0  0  0
  8 17  1  0  0  0  0
 10 19  1  0  0  0  0
 11 14  1  1  0  0  0
 11 16  1  0  0  0  0
 12 23  1  1  0  0  0
 13  5  1  6  0  0  0
 13  7  1  0  0  0  0
 13  4  1  0  0  0  0
 14 18  1  0  0  0  0
 15  1  2  0  0  0  0
 16  2  2  0  0  0  0
 17 21  1  0  0  0  0
 18  6  2  0  0  0  0
 19 20  1  0  0  0  0
 20 15  1  0  0  0  0
 21 15  1  0  0  0  0
 23 24  2  0  0  0  0
 23 27  1  0  0  0  0
 24 25  1  0  0  0  0
 25 22  2  0  0  0  0
 26 22  1  0  0  0  0
 27 26  2  0  0  0  0
M  END
>  <MODEL>
7

>  <REMARK>
 VINA RESULT:      -6.7      5.260      8.562
  Name = 
  1 active torsions:
  status: ('A' for Active; 'I' for Inactive)
    1  A    between atoms: C_9  and  C_15
                            x       y       z     vdW  Elec       q    Type
                         _______ _______ _______ _____ _____    ______ ____

>  <TORSDO>
F 1

$$$$
=
 OpenBabel10262420043D

 27 31  0  0  1  0  0  0  0  0999 V2000
  191.1910  176.2620  139.3920 C   0  0  0  0  0  3  0  0  0  0  0  0
  189.8980  175.5700  137.4000 C   0  0  0  0  0  0  0  0  0  0  0  0
  188.3830  177.1550  138.5980 C   0  0  0  0  0  3  0  0  0  0  0  0
  186.8740  174.2080  135.2180 N   0  0  0  0  0  0  0  0  0  0  0  0
  184.6520  174.3950  136.0570 N   0  0  0  0  0  1  0  0  0  0  0  0
  190.0830  174.3490  136.5610 C   0  0  0  0  0  3  0  0  0  0  0  0
  186.3110  176.0250  136.6180 N   0  0  0  0  0  0  0  0  0  0  0  0
  187.6680  178.2530  141.5900 C   0  0  0  0  0  2  0  0  0  0  0  0
  186.7720  177.2280  135.9280 C   0  0  0  0  0  1  0  0  0  0  0  0
  188.3110  177.1780  142.4700 C   0  0  0  0  0  2  0  0  0  0  0  0
  187.4370  175.2530  137.1790 C   0  0  1  0  0  3  0  0  0  0  0  0
  191.1030  176.3260  137.9040 C   0  0  2  0  0  3  0  0  0  0  0  0
  185.8000  175.1350  135.5610 C   0  0  1  0  0  3  0  0  0  0  0  0
  187.7710  174.2820  136.1300 C   0  0  0  0  0  0  0  0  0  0  0  0
  190.2900  176.8260  140.1980 C   0  0  0  0  0  0  0  0  0  0  0  0
  188.6480  176.0160  137.6870 C   0  0  0  0  0  0  0  0  0  0  0  0
  188.5560  178.7120  140.4320 C   0  0  0  0  0  2  0  0  0  0  0  0
  189.0870  173.7660  135.9650 N   0  0  0  0  0  0  0  0  0  0  0  0
  189.8130  177.3930  142.6070 C   0  0  0  0  0  2  0  0  0  0  0  0
  190.5250  176.7060  141.5790 O   0  0  0  0  0  0  0  0  0  0  0  0
  189.0990  177.5540  139.6620 C   0  0  0  0  0  0  0  0  0  0  0  0
  194.8610  175.2820  136.0830 C   0  0  0  0  0  3  0  0  0  0  0  0
  192.4030  175.9580  137.2450 C   0  0  0  0  0  0  0  0  0  0  0  0
  192.7030  176.3680  135.9360 C   0  0  0  0  0  3  0  0  0  0  0  0
  193.9280  176.0290  135.3560 C   0  0  0  0  0  3  0  0  0  0  0  0
  194.5690  174.8780  137.3880 C   0  0  0  0  0  3  0  0  0  0  0  0
  193.3440  175.2170  137.9690 C   0  0  0  0  0  3  0  0  0  0  0  0
  1 15  2  0  0  0  0
  2 16  2  0  0  0  0
  2 12  1  0  0  0  0
  3 21  2  0  0  0  0
  4 13  1  0  0  0  0
  4 14  2  0  0  0  0
  6  2  1  0  0  0  0
  7 11  1  0  0  0  0
  8 10  1  0  0  0  0
  9  7  1  0  0  0  0
 10 19  1  0  0  0  0
 11 14  1  6  0  0  0
 11 16  1  0  0  0  0
 12 23  1  6  0  0  0
 12  1  1  0  0  0  0
 13  5  1  1  0  0  0
 13  7  1  0  0  0  0
 15 20  1  0  0  0  0
 16  3  1  0  0  0  0
 17  8  1  0  0  0  0
 18 14  1  0  0  0  0
 18  6  2  0  0  0  0
 20 19  1  0  0  0  0
 21 15  1  0  0  0  0
 21 17  1  0  0  0  0
 22 26  1  0  0  0  0
 23 27  1  0  0  0  0
 24 23  2  0  0  0  0
 25 24  1  0  0  0  0
 25 22  2  0  0  0  0
 26 27  2  0  0  0  0
M  END
>  <MODEL>
8

>  <REMARK>
 VINA RESULT:      -6.6      5.016      8.737
  Name = 
  1 active torsions:
  status: ('A' for Active; 'I' for Inactive)
    1  A    between atoms: C_9  and  C_15
                            x       y       z     vdW  Elec       q    Type
                         _______ _______ _______ _____ _____    ______ ____

>  <TORSDO>
F 1

$$$$
=
 OpenBabel10262420043D

 27 31  0  0  1  0  0  0  0  0999 V2000
  184.9080  177.9070  143.1020 C   0  0  0  0  0  3  0  0  0  0  0  0
  187.3150  177.5650  142.6420 C   0  0  0  0  0  0  0  0  0  0  0  0
  186.4340  178.6290  140.5590 C   0  0  0  0  0  3  0  0  0  0  0  0
  190.6140  176.4210  140.7540 N   0  0  0  0  0  0  0  0  0  0  0  0
  190.5680  176.1410  138.3890 N   0  0  0  0  0  1  0  0  0  0  0  0
  188.2520  176.6120  143.3050 C   0  0  0  0  0  3  0  0  0  0  0  0
  189.1780  177.7720  139.4530 N   0  0  0  0  0  0  0  0  0  0  0  0
  183.7190  178.8870  138.7630 C   0  0  0  0  0  2  0  0  0  0  0  0
  189.4310  179.1500  139.8670 C   0  0  0  0  0  1  0  0  0  0  0  0
  182.8890  177.7160  139.2950 C   0  0  0  0  0  2  0  0  0  0  0  0
  188.4210  177.0250  140.4760 C   0  0  1  0  0  3  0  0  0  0  0  0
  186.2960  178.3150  143.4660 C   0  0  2  0  0  3  0  0  0  0  0  0
  190.4930  177.1070  139.4720 C   0  0  1  0  0  3  0  0  0  0  0  0
  189.4540  176.3790  141.2950 C   0  0  0  0  0  0  0  0  0  0  0  0
  184.3690  178.1520  141.9070 C   0  0  0  0  0  0  0  0  0  0  0  0
  187.3950  177.7810  141.3040 C   0  0  0  0  0  0  0  0  0  0  0  0
  184.3950  179.7110  139.8600 C   0  0  0  0  0  2  0  0  0  0  0  0
  189.2510  176.0750  142.6710 N   0  0  0  0  0  0  0  0  0  0  0  0
  182.2090  178.0670  140.6110 C   0  0  0  0  0  2  0  0  0  0  0  0
  183.0400  177.7330  141.7230 O   0  0  0  0  0  0  0  0  0  0  0  0
  185.1350  178.8430  140.8230 C   0  0  0  0  0  0  0  0  0  0  0  0
  186.9140  178.2490  147.7260 C   0  0  0  0  0  3  0  0  0  0  0  0
  186.5270  178.2700  144.9510 C   0  0  0  0  0  0  0  0  0  0  0  0
  187.7640  177.8830  145.4890 C   0  0  0  0  0  3  0  0  0  0  0  0
  187.9560  177.8710  146.8740 C   0  0  0  0  0  3  0  0  0  0  0  0
  185.6830  178.6400  147.1940 C   0  0  0  0  0  3  0  0  0  0  0  0
  185.4900  178.6530  145.8100 C   0  0  0  0  0  3  0  0  0  0  0  0
  1 12  1  0  0  0  0
  2  6  1  0  0  0  0
  2 12  1  0  0  0  0
  3 21  2  0  0  0  0
  3 16  1  0  0  0  0
  4 14  2  0  0  0  0
  7 13  1  0  0  0  0
  7  9  1  0  0  0  0
  7 11  1  0  0  0  0
  8 10  1  0  0  0  0
  8 17  1  0  0  0  0
 10 19  1  0  0  0  0
 11 14  1  1  0  0  0
 11 16  1  0  0  0  0
 12 23  1  1  0  0  0
 13  5  1  6  0  0  0
 13  4  1  0  0  0  0
 14 18  1  0  0  0  0
 15  1  2  0  0  0  0
 16  2  2  0  0  0  0
 17 21  1  0  0  0  0
 18  6  2  0  0  0  0
 19 20  1  0  0  0  0
 20 15  1  0  0  0  0
 21 15  1  0  0  0  0
 23 24  2  0  0  0  0
 23 27  1  0  0  0  0
 24 25  1  0  0  0  0
 25 22  2  0  0  0  0
 26 22  1  0  0  0  0
 27 26  2  0  0  0  0
M  END
>  <MODEL>
9

>  <REMARK>
 VINA RESULT:      -6.6      1.900      5.457
  Name = 
  1 active torsions:
  status: ('A' for Active; 'I' for Inactive)
    1  A    between atoms: C_9  and  C_15
                            x       y       z     vdW  Elec       q    Type
                         _______ _______ _______ _____ _____    ______ ____

>  <TORSDO>
F 1

$$$$
