=
 OpenBabel10262419443D

 25 29  0  0  1  0  0  0  0  0999 V2000
  187.8260  177.6140  144.8510 N   0  0  0  0  0  0  0  0  0  0  0  0
  186.4110  177.6090  144.4650 C   0  0  2  0  0  3  0  0  0  0  0  0
  187.3270  178.0150  147.1670 C   0  0  0  0  0  3  0  0  0  0  0  0
  188.8680  176.8280  144.2020 C   0  0  2  0  0  3  0  0  0  0  0  0
  191.4020  178.0820  143.4190 C   0  0  0  0  0  2  0  0  0  0  0  0
  185.9760  178.4550  146.7660 C   0  0  0  0  0  3  0  0  0  0  0  0
  190.0750  176.8290  145.1880 C   0  0  1  0  0  3  0  0  0  0  0  0
  191.0990  177.9350  144.8990 C   0  0  0  0  0  2  0  0  0  0  0  0
  184.2480  178.8440  145.0760 C   0  0  0  0  0  0  0  0  0  0  0  0
  183.2970  179.1610  145.9900 F   0  0  0  0  0  0  0  0  0  0  0  0
  186.1950  178.1770  143.0870 C   0  0  0  0  0  3  0  0  0  0  0  0
  190.1190  178.4440  142.6960 C   0  0  0  0  0  2  0  0  0  0  0  0
  188.1850  177.6370  146.2230 C   0  0  0  0  0  0  0  0  0  0  0  0
  189.4770  177.1230  146.4850 N   0  0  0  0  0  2  0  0  0  0  0  0
  184.0190  179.0620  143.7770 C   0  0  0  0  0  3  0  0  0  0  0  0
  189.1680  177.2620  142.7630 C   0  0  0  0  0  2  0  0  0  0  0  0
  185.0560  178.7940  142.7480 C   0  0  0  0  0  0  0  0  0  0  0  0
  185.5590  178.3260  145.4980 C   0  0  0  0  0  0  0  0  0  0  0  0
  184.9030  179.2450  141.3960 N   0  0  0  0  0  2  0  0  0  0  0  0
  184.1260  178.6150  140.3680 C   0  0  0  0  0  0  0  0  0  0  0  0
  183.5640  177.5030  140.5680 O   0  0  0  0  0  0  0  0  0  0  0  0
  182.6780  179.8970  138.6810 C   0  0  1  0  0  3  0  0  0  0  0  0
  183.0500  178.5410  138.1200 C   0  0  0  0  0  2  0  0  0  0  0  0
  181.5900  179.7140  139.7310 C   0  0  0  0  0  1  0  0  0  0  0  0
  184.0390  179.2640  139.0170 C   0  0  2  0  0  3  0  0  0  0  0  0
  1 13  1  0  0  0  0
  2 11  1  6  0  0  0
  2  1  1  0  0  0  0
  2 18  1  0  0  0  0
  4 16  1  6  0  0  0
  4  1  1  0  0  0  0
  4  7  1  0  0  0  0
  5  8  1  0  0  0  0
  6  3  1  0  0  0  0
  7  8  1  6  0  0  0
  7 14  1  0  0  0  0
  9 18  1  0  0  0  0
  9 10  1  0  0  0  0
 12 16  1  0  0  0  0
 12  5  1  0  0  0  0
 13 14  1  0  0  0  0
 13  3  2  0  0  0  0
 15  9  2  0  0  0  0
 17 11  2  0  0  0  0
 17 15  1  0  0  0  0
 18  6  2  0  0  0  0
 19 17  1  0  0  0  0
 20 21  2  0  0  0  0
 20 19  1  0  0  0  0
 22 25  1  0  0  0  0
 22 24  1  1  0  0  0
 23 22  1  0  0  0  0
 23 25  1  0  0  0  0
 25 20  1  1  0  0  0
M  END
>  <MODEL>
1

>  <REMARK>
 VINA RESULT:      -9.5      0.000      0.000
  Name = 
  2 active torsions:
  status: ('A' for Active; 'I' for Inactive)
    1  A    between atoms: N_6  and  C_23
    2  A    between atoms: C_15  and  C_21
                            x       y       z     vdW  Elec       q    Type
                         _______ _______ _______ _____ _____    ______ ____

>  <TORSDO>
F 2

$$$$
=
 OpenBabel10262419443D

 25 29  0  0  1  0  0  0  0  0999 V2000
  188.6580  177.0740  144.2500 N   0  0  0  0  0  0  0  0  0  0  0  0
  187.2100  177.1220  144.4800 C   0  0  2  0  0  3  0  0  0  0  0  0
  189.1710  177.4430  146.5680 C   0  0  0  0  0  3  0  0  0  0  0  0
  189.3110  176.2680  143.2250 C   0  0  2  0  0  3  0  0  0  0  0  0
  191.3430  177.4560  141.4750 C   0  0  0  0  0  2  0  0  0  0  0  0
  187.7920  177.9350  146.7600 C   0  0  0  0  0  3  0  0  0  0  0  0
  190.8150  176.2110  143.6260 C   0  0  1  0  0  3  0  0  0  0  0  0
  191.6700  177.2890  142.9480 C   0  0  0  0  0  2  0  0  0  0  0  0
  185.5370  178.4130  145.9330 C   0  0  0  0  0  0  0  0  0  0  0  0
  185.0590  178.7410  147.1590 F   0  0  0  0  0  0  0  0  0  0  0  0
  186.4680  177.7240  143.3160 C   0  0  0  0  0  2  0  0  0  0  0  0
  189.8910  177.8740  141.3460 C   0  0  0  0  0  2  0  0  0  0  0  0
  189.5500  177.0570  145.3510 C   0  0  0  0  0  0  0  0  0  0  0  0
  190.8150  176.4980  145.0560 N   0  0  0  0  0  2  0  0  0  0  0  0
  184.8030  178.6630  144.8450 C   0  0  0  0  0  3  0  0  0  0  0  0
  189.0080  176.7210  141.7920 C   0  0  0  0  0  2  0  0  0  0  0  0
  185.3140  178.3840  143.4790 C   0  0  0  0  0  0  0  0  0  0  0  0
  186.8850  177.8440  145.7760 C   0  0  0  0  0  0  0  0  0  0  0  0
  184.6360  178.8650  142.3120 N   0  0  0  0  0  0  0  0  0  0  0  0
  185.1670  178.9320  140.9820 C   0  0  0  0  0  0  0  0  0  0  0  0
  186.3710  178.6420  140.7480 O   0  0  0  0  0  0  0  0  0  0  0  0
  183.2100  178.4230  139.4010 C   0  0  1  0  0  3  0  0  0  0  0  0
  184.4870  178.5980  138.6060 C   0  0  0  0  0  2  0  0  0  0  0  0
  183.2360  177.0600  140.0810 C   0  0  0  0  0  1  0  0  0  0  0  0
  184.2850  179.4190  139.8670 C   0  0  2  0  0  3  0  0  0  0  0  0
  1  2  1  0  0  0  0
  1 13  1  0  0  0  0
  2 11  1  6  0  0  0
  2 18  1  0  0  0  0
  3  6  1  0  0  0  0
  4 16  1  6  0  0  0
  4  7  1  0  0  0  0
  4  1  1  0  0  0  0
  5  8  1  0  0  0  0
  7  8  1  6  0  0  0
  7 14  1  0  0  0  0
  9 10  1  0  0  0  0
 11 17  1  0  0  0  0
 12  5  1  0  0  0  0
 12 16  1  0  0  0  0
 13  3  2  0  0  0  0
 14 13  1  0  0  0  0
 15  9  2  0  0  0  0
 17 15  1  0  0  0  0
 18  9  1  0  0  0  0
 18  6  2  0  0  0  0
 19 17  2  0  0  0  0
 20 19  1  0  0  0  0
 21 20  2  0  0  0  0
 22 25  1  0  0  0  0
 22 24  1  1  0  0  0
 23 22  1  0  0  0  0
 23 25  1  0  0  0  0
 25 20  1  1  0  0  0
M  END
>  <MODEL>
2

>  <REMARK>
 VINA RESULT:      -9.1      1.383      1.723
  Name = 
  2 active torsions:
  status: ('A' for Active; 'I' for Inactive)
    1  A    between atoms: N_6  and  C_23
    2  A    between atoms: C_15  and  C_21
                            x       y       z     vdW  Elec       q    Type
                         _______ _______ _______ _____ _____    ______ ____

>  <TORSDO>
F 2

$$$$
=
 OpenBabel10262419443D

 25 29  0  0  1  0  0  0  0  0999 V2000
  185.7810  178.5850  144.1010 N   0  0  0  0  0  0  0  0  0  0  0  0
  187.2330  178.4460  143.9440 C   0  0  2  0  0  3  0  0  0  0  0  0
  185.8490  178.0310  146.4380 C   0  0  0  0  0  3  0  0  0  0  0  0
  184.9480  179.5120  143.3440 C   0  0  2  0  0  3  0  0  0  0  0  0
  182.4600  178.5880  142.0950 C   0  0  0  0  0  2  0  0  0  0  0  0
  187.1930  177.4580  146.2290 C   0  0  0  0  0  3  0  0  0  0  0  0
  183.6020  179.6050  144.1250 C   0  0  1  0  0  3  0  0  0  0  0  0
  182.5290  178.6360  143.6110 C   0  0  0  0  0  2  0  0  0  0  0  0
  189.1250  176.9480  144.8130 C   0  0  0  0  0  0  0  0  0  0  0  0
  189.8740  176.4860  145.8450 F   0  0  0  0  0  0  0  0  0  0  0  0
  187.6110  177.9170  142.5860 C   0  0  0  0  0  3  0  0  0  0  0  0
  183.7980  178.1140  141.5640 C   0  0  0  0  0  2  0  0  0  0  0  0
  185.2010  178.5440  145.3940 C   0  0  0  0  0  0  0  0  0  0  0  0
  183.9450  179.1890  145.4790 N   0  0  0  0  0  2  0  0  0  0  0  0
  189.5390  176.7620  143.5560 C   0  0  0  0  0  3  0  0  0  0  0  0
  184.8440  179.1770  141.8520 C   0  0  0  0  0  2  0  0  0  0  0  0
  188.7190  177.1900  142.3940 C   0  0  0  0  0  0  0  0  0  0  0  0
  187.8240  177.5940  145.0530 C   0  0  0  0  0  0  0  0  0  0  0  0
  189.0430  176.7840  141.0580 N   0  0  0  0  0  2  0  0  0  0  0  0
  190.2840  177.0080  140.3750 C   0  0  0  0  0  0  0  0  0  0  0  0
  191.1990  177.7000  140.8990 O   0  0  0  0  0  0  0  0  0  0  0  0
  189.9650  177.3710  137.8550 C   0  0  1  0  0  3  0  0  0  0  0  0
  189.1240  176.2010  138.3200 C   0  0  0  0  0  2  0  0  0  0  0  0
  189.2950  178.6660  138.2970 C   0  0  0  0  0  1  0  0  0  0  0  0
  190.4630  176.4590  138.9880 C   0  0  2  0  0  3  0  0  0  0  0  0
  1 13  1  0  0  0  0
  2 11  1  6  0  0  0
  2  1  1  0  0  0  0
  2 18  1  0  0  0  0
  4 16  1  6  0  0  0
  4  1  1  0  0  0  0
  4  7  1  0  0  0  0
  5  8  1  0  0  0  0
  6  3  1  0  0  0  0
  7  8  1  6  0  0  0
  7 14  1  0  0  0  0
  9 18  1  0  0  0  0
  9 10  1  0  0  0  0
 12 16  1  0  0  0  0
 12  5  1  0  0  0  0
 13 14  1  0  0  0  0
 13  3  2  0  0  0  0
 15  9  2  0  0  0  0
 17 11  2  0  0  0  0
 17 15  1  0  0  0  0
 18  6  2  0  0  0  0
 19 17  1  0  0  0  0
 20 21  2  0  0  0  0
 20 19  1  0  0  0  0
 22 24  1  1  0  0  0
 22 23  1  0  0  0  0
 22 25  1  0  0  0  0
 23 25  1  0  0  0  0
 25 20  1  1  0  0  0
M  END
>  <MODEL>
3

>  <REMARK>
 VINA RESULT:      -8.9      3.216      5.761
  Name = 
  2 active torsions:
  status: ('A' for Active; 'I' for Inactive)
    1  A    between atoms: N_6  and  C_23
    2  A    between atoms: C_15  and  C_21
                            x       y       z     vdW  Elec       q    Type
                         _______ _______ _______ _____ _____    ______ ____

>  <TORSDO>
F 2

$$$$
=
 OpenBabel10262419443D

 25 29  0  0  1  0  0  0  0  0999 V2000
  187.5090  177.6340  144.8500 N   0  0  0  0  0  0  0  0  0  0  0  0
  186.5680  177.6060  143.7250 C   0  0  2  0  0  3  0  0  0  0  0  0
  185.8250  178.3370  146.4130 C   0  0  0  0  0  3  0  0  0  0  0  0
  188.6620  176.7530  144.9920 C   0  0  2  0  0  3  0  0  0  0  0  0
  191.2920  177.8490  145.6860 C   0  0  0  0  0  2  0  0  0  0  0  0
  184.9840  178.7470  145.2710 C   0  0  0  0  0  3  0  0  0  0  0  0
  189.0930  176.8580  146.4850 C   0  0  1  0  0  3  0  0  0  0  0  0
  190.1930  177.8990  146.7320 C   0  0  0  0  0  2  0  0  0  0  0  0
  184.5580  178.9490  142.8680 C   0  0  0  0  0  0  0  0  0  0  0  0
  183.2900  179.3980  143.0380 F   0  0  0  0  0  0  0  0  0  0  0  0
  187.2200  177.9970  142.4260 C   0  0  0  0  0  3  0  0  0  0  0  0
  190.6820  178.1400  144.3290 C   0  0  0  0  0  2  0  0  0  0  0  0
  187.0300  177.8260  146.1700 C   0  0  0  0  0  0  0  0  0  0  0  0
  187.8950  177.3260  147.1720 N   0  0  0  0  0  2  0  0  0  0  0  0
  185.1240  179.0030  141.6590 C   0  0  0  0  0  3  0  0  0  0  0  0
  189.7600  176.9930  143.9500 C   0  0  0  0  0  2  0  0  0  0  0  0
  186.5330  178.5870  141.4390 C   0  0  0  0  0  0  0  0  0  0  0  0
  185.3480  178.4650  144.0110 C   0  0  0  0  0  0  0  0  0  0  0  0
  187.2130  178.8630  140.2080 N   0  0  0  0  0  2  0  0  0  0  0  0
  188.4230  178.2490  139.7440 C   0  0  0  0  0  0  0  0  0  0  0  0
  189.0630  177.4420  140.4710 O   0  0  0  0  0  0  0  0  0  0  0  0
  188.4360  177.7880  137.2190 C   0  0  1  0  0  3  0  0  0  0  0  0
  189.8050  177.5110  137.8030 C   0  0  0  0  0  2  0  0  0  0  0  0
  187.5010  176.6450  137.5930 C   0  0  0  0  0  1  0  0  0  0  0  0
  188.9630  178.6280  138.3940 C   0  0  2  0  0  3  0  0  0  0  0  0
  1  4  1  0  0  0  0
  1 13  1  0  0  0  0
  2 11  1  6  0  0  0
  2 18  1  0  0  0  0
  2  1  1  0  0  0  0
  4 16  1  6  0  0  0
  4  7  1  0  0  0  0
  5  8  1  0  0  0  0
  6  3  1  0  0  0  0
  7  8  1  6  0  0  0
  7 14  1  0  0  0  0
  9 10  1  0  0  0  0
  9 18  1  0  0  0  0
 12  5  1  0  0  0  0
 13  3  2  0  0  0  0
 13 14  1  0  0  0  0
 15  9  2  0  0  0  0
 16 12  1  0  0  0  0
 17 15  1  0  0  0  0
 17 11  2  0  0  0  0
 18  6  2  0  0  0  0
 19 17  1  0  0  0  0
 20 19  1  0  0  0  0
 20 21  2  0  0  0  0
 22 24  1  1  0  0  0
 22 23  1  0  0  0  0
 22 25  1  0  0  0  0
 23 25  1  0  0  0  0
 25 20  1  1  0  0  0
M  END
>  <MODEL>
4

>  <REMARK>
 VINA RESULT:      -8.5      2.592      3.303
  Name = 
  2 active torsions:
  status: ('A' for Active; 'I' for Inactive)
    1  A    between atoms: N_6  and  C_23
    2  A    between atoms: C_15  and  C_21
                            x       y       z     vdW  Elec       q    Type
                         _______ _______ _______ _____ _____    ______ ____

>  <TORSDO>
F 2

$$$$
=
 OpenBabel10262419443D

 25 29  0  0  1  0  0  0  0  0999 V2000
  186.6620  178.3250  142.7980 N   0  0  0  0  0  0  0  0  0  0  0  0
  188.0210  178.2550  142.2510 C   0  0  2  0  0  3  0  0  0  0  0  0
  187.3180  177.3660  144.9010 C   0  0  0  0  0  3  0  0  0  0  0  0
  185.6800  179.3480  142.4590 C   0  0  2  0  0  3  0  0  0  0  0  0
  182.9370  178.5930  141.7460 C   0  0  0  0  0  2  0  0  0  0  0  0
  188.5520  176.8760  144.2550 C   0  0  0  0  0  3  0  0  0  0  0  0
  184.5830  179.2640  143.5620 C   0  0  1  0  0  3  0  0  0  0  0  0
  183.3950  178.3720  143.1770 C   0  0  0  0  0  2  0  0  0  0  0  0
  190.0440  176.6800  142.3240 C   0  0  0  0  0  0  0  0  0  0  0  0
  191.0240  176.0630  143.0280 F   0  0  0  0  0  0  0  0  0  0  0  0
  188.0270  177.9870  140.7700 C   0  0  0  0  0  3  0  0  0  0  0  0
  184.0840  178.2580  140.8130 C   0  0  0  0  0  2  0  0  0  0  0  0
  186.4340  178.0390  144.1680 C   0  0  0  0  0  0  0  0  0  0  0  0
  185.2550  178.6240  144.6870 N   0  0  0  0  0  2  0  0  0  0  0  0
  190.1170  176.7320  140.9900 C   0  0  0  0  0  3  0  0  0  0  0  0
  185.1890  179.2810  141.0080 C   0  0  0  0  0  2  0  0  0  0  0  0
  189.0340  177.3360  140.1730 C   0  0  0  0  0  0  0  0  0  0  0  0
  188.8620  177.2360  143.0010 C   0  0  0  0  0  0  0  0  0  0  0  0
  188.9950  177.1830  138.7490 N   0  0  0  0  0  2  0  0  0  0  0  0
  189.0570  178.2340  137.7750 C   0  0  0  0  0  0  0  0  0  0  0  0
  189.0550  179.4450  138.1250 O   0  0  0  0  0  0  0  0  0  0  0  0
  187.6670  177.7230  135.6790 C   0  0  1  0  0  3  0  0  0  0  0  0
  188.4640  176.5000  136.0840 C   0  0  0  0  0  2  0  0  0  0  0  0
  186.4870  177.8780  136.6300 C   0  0  0  0  0  1  0  0  0  0  0  0
  189.0580  177.8780  136.3160 C   0  0  2  0  0  3  0  0  0  0  0  0
  1 13  1  0  0  0  0
  2 11  1  6  0  0  0
  2  1  1  0  0  0  0
  2 18  1  0  0  0  0
  4 16  1  6  0  0  0
  4  1  1  0  0  0  0
  4  7  1  0  0  0  0
  5  8  1  0  0  0  0
  6  3  1  0  0  0  0
  7  8  1  6  0  0  0
  7 14  1  0  0  0  0
  9 18  1  0  0  0  0
  9 10  1  0  0  0  0
 12 16  1  0  0  0  0
 12  5  1  0  0  0  0
 13 14  1  0  0  0  0
 13  3  2  0  0  0  0
 15  9  2  0  0  0  0
 17 11  2  0  0  0  0
 17 15  1  0  0  0  0
 18  6  2  0  0  0  0
 19 17  1  0  0  0  0
 20 21  2  0  0  0  0
 20 19  1  0  0  0  0
 22 23  1  0  0  0  0
 22 25  1  0  0  0  0
 22 24  1  1  0  0  0
 23 25  1  0  0  0  0
 25 20  1  1  0  0  0
M  END
>  <MODEL>
5

>  <REMARK>
 VINA RESULT:      -8.4      3.610      5.646
  Name = 
  2 active torsions:
  status: ('A' for Active; 'I' for Inactive)
    1  A    between atoms: N_6  and  C_23
    2  A    between atoms: C_15  and  C_21
                            x       y       z     vdW  Elec       q    Type
                         _______ _______ _______ _____ _____    ______ ____

>  <TORSDO>
F 2

$$$$
=
 OpenBabel10262419443D

 25 29  0  0  1  0  0  0  0  0999 V2000
  183.1840  178.7050  142.2530 N   0  0  0  0  0  0  0  0  0  0  0  0
  184.3810  179.0170  143.0410 C   0  0  2  0  0  3  0  0  0  0  0  0
  181.6980  179.1680  144.0850 C   0  0  0  0  0  3  0  0  0  0  0  0
  183.0540  178.9200  140.8170 C   0  0  2  0  0  3  0  0  0  0  0  0
  181.9970  176.7970  139.0900 C   0  0  0  0  0  2  0  0  0  0  0  0
  182.8490  179.0520  145.0030 C   0  0  0  0  0  3  0  0  0  0  0  0
  181.5270  178.8490  140.5150 C   0  0  1  0  0  3  0  0  0  0  0  0
  181.0540  177.4550  140.0820 C   0  0  0  0  0  2  0  0  0  0  0  0
  185.2340  178.7170  145.4410 C   0  0  0  0  0  0  0  0  0  0  0  0
  185.1210  178.9790  146.7670 F   0  0  0  0  0  0  0  0  0  0  0  0
  185.5580  178.1620  142.6530 C   0  0  0  0  0  3  0  0  0  0  0  0
  183.3540  176.6380  139.7460 C   0  0  0  0  0  2  0  0  0  0  0  0
  181.8970  178.9800  142.7820 C   0  0  0  0  0  0  0  0  0  0  0  0
  180.8950  179.1390  141.7960 N   0  0  0  0  0  2  0  0  0  0  0  0
  186.3720  178.2070  144.9610 C   0  0  0  0  0  3  0  0  0  0  0  0
  183.9560  178.0140  139.9700 C   0  0  0  0  0  2  0  0  0  0  0  0
  186.5180  177.8400  143.5290 C   0  0  0  0  0  0  0  0  0  0  0  0
  184.0970  178.9220  144.5300 C   0  0  0  0  0  0  0  0  0  0  0  0
  187.6390  177.0800  143.0610 N   0  0  0  0  0  2  0  0  0  0  0  0
  188.5870  177.4830  142.0630 C   0  0  0  0  0  0  0  0  0  0  0  0
  188.4390  178.5590  141.4220 O   0  0  0  0  0  0  0  0  0  0  0  0
  191.0390  176.8640  142.5000 C   0  0  1  0  0  3  0  0  0  0  0  0
  190.8700  177.3300  141.0700 C   0  0  0  0  0  2  0  0  0  0  0  0
  191.0050  178.0770  143.4210 C   0  0  0  0  0  1  0  0  0  0  0  0
  189.7360  176.5720  141.7370 C   0  0  2  0  0  3  0  0  0  0  0  0
  1 13  1  0  0  0  0
  1  2  1  0  0  0  0
  2 11  1  6  0  0  0
  2 18  1  0  0  0  0
  3  6  1  0  0  0  0
  4 16  1  6  0  0  0
  4  1  1  0  0  0  0
  5 12  1  0  0  0  0
  5  8  1  0  0  0  0
  7  8  1  1  0  0  0
  7  4  1  0  0  0  0
  7 14  1  0  0  0  0
  9 10  1  0  0  0  0
 11 17  2  0  0  0  0
 12 16  1  0  0  0  0
 13  3  2  0  0  0  0
 14 13  1  0  0  0  0
 15  9  2  0  0  0  0
 17 15  1  0  0  0  0
 18  6  2  0  0  0  0
 18  9  1  0  0  0  0
 19 17  1  0  0  0  0
 20 19  1  0  0  0  0
 21 20  2  0  0  0  0
 22 24  1  1  0  0  0
 23 25  1  0  0  0  0
 23 22  1  0  0  0  0
 25 20  1  1  0  0  0
 25 22  1  0  0  0  0
M  END
>  <MODEL>
6

>  <REMARK>
 VINA RESULT:      -7.9      1.982      6.703
  Name = 
  2 active torsions:
  status: ('A' for Active; 'I' for Inactive)
    1  A    between atoms: N_6  and  C_23
    2  A    between atoms: C_15  and  C_21
                            x       y       z     vdW  Elec       q    Type
                         _______ _______ _______ _____ _____    ______ ____

>  <TORSDO>
F 2

$$$$
=
 OpenBabel10262419443D

 25 29  0  0  1  0  0  0  0  0999 V2000
  186.2930  178.4690  143.7610 N   0  0  0  0  0  0  0  0  0  0  0  0
  187.6620  178.3190  143.2530 C   0  0  2  0  0  3  0  0  0  0  0  0
  186.8960  177.7590  145.9760 C   0  0  0  0  0  3  0  0  0  0  0  0
  185.3320  179.4550  143.2830 C   0  0  2  0  0  3  0  0  0  0  0  0
  182.5930  178.6540  142.6090 C   0  0  0  0  0  2  0  0  0  0  0  0
  188.1350  177.1810  145.4170 C   0  0  0  0  0  3  0  0  0  0  0  0
  184.2140  179.5160  144.3660 C   0  0  1  0  0  3  0  0  0  0  0  0
  183.0210  178.5990  144.0640 C   0  0  0  0  0  2  0  0  0  0  0  0
  189.6600  176.7390  143.5530 C   0  0  0  0  0  0  0  0  0  0  0  0
  190.6180  176.1990  144.3450 F   0  0  0  0  0  0  0  0  0  0  0  0
  187.6910  177.8770  141.8140 C   0  0  0  0  0  3  0  0  0  0  0  0
  183.7520  178.1970  141.7460 C   0  0  0  0  0  2  0  0  0  0  0  0
  186.0360  178.3500  145.1500 C   0  0  0  0  0  0  0  0  0  0  0  0
  184.8560  179.0060  145.5720 N   0  0  0  0  0  2  0  0  0  0  0  0
  189.7590  176.6310  142.2240 C   0  0  0  0  0  3  0  0  0  0  0  0
  184.8680  179.2230  141.8400 C   0  0  0  0  0  2  0  0  0  0  0  0
  188.7000  177.1480  141.3200 C   0  0  0  0  0  0  0  0  0  0  0  0
  188.4730  177.3860  144.1350 C   0  0  0  0  0  0  0  0  0  0  0  0
  188.6860  176.8270  139.9230 N   0  0  0  0  0  2  0  0  0  0  0  0
  188.9000  177.7370  138.8360 C   0  0  0  0  0  0  0  0  0  0  0  0
  189.0310  178.9740  139.0400 O   0  0  0  0  0  0  0  0  0  0  0  0
  190.2460  176.6350  136.9490 C   0  0  1  0  0  3  0  0  0  0  0  0
  189.8140  178.0260  136.5330 C   0  0  0  0  0  2  0  0  0  0  0  0
  191.4020  176.7520  137.9330 C   0  0  0  0  0  1  0  0  0  0  0  0
  188.9020  177.2070  137.4300 C   0  0  2  0  0  3  0  0  0  0  0  0
  1 13  1  0  0  0  0
  2 11  1  6  0  0  0
  2  1  1  0  0  0  0
  2 18  1  0  0  0  0
  4 16  1  6  0  0  0
  4  1  1  0  0  0  0
  4  7  1  0  0  0  0
  5  8  1  0  0  0  0
  6  3  1  0  0  0  0
  7  8  1  6  0  0  0
  7 14  1  0  0  0  0
  9 18  1  0  0  0  0
  9 10  1  0  0  0  0
 12 16  1  0  0  0  0
 12  5  1  0  0  0  0
 13 14  1  0  0  0  0
 13  3  2  0  0  0  0
 15  9  2  0  0  0  0
 17 11  2  0  0  0  0
 17 15  1  0  0  0  0
 18  6  2  0  0  0  0
 19 17  1  0  0  0  0
 20 21  2  0  0  0  0
 20 19  1  0  0  0  0
 22 25  1  0  0  0  0
 22 24  1  1  0  0  0
 23 22  1  0  0  0  0
 23 25  1  0  0  0  0
 25 20  1  1  0  0  0
M  END
>  <MODEL>
7

>  <REMARK>
 VINA RESULT:      -7.8      3.494      5.790
  Name = 
  2 active torsions:
  status: ('A' for Active; 'I' for Inactive)
    1  A    between atoms: N_6  and  C_23
    2  A    between atoms: C_15  and  C_21
                            x       y       z     vdW  Elec       q    Type
                         _______ _______ _______ _____ _____    ______ ____

>  <TORSDO>
F 2

$$$$
=
 OpenBabel10262419443D

 25 29  0  0  1  0  0  0  0  0999 V2000
  188.9750  177.1590  142.0990 N   0  0  0  0  0  0  0  0  0  0  0  0
  189.0350  176.8540  140.6660 C   0  0  2  0  0  3  0  0  0  0  0  0
  187.0270  178.5440  141.8570 C   0  0  0  0  0  3  0  0  0  0  0  0
  189.4000  176.2550  143.1610 C   0  0  2  0  0  3  0  0  0  0  0  0
  191.1360  177.2150  145.3210 C   0  0  0  0  0  2  0  0  0  0  0  0
  187.3090  178.6290  140.4100 C   0  0  0  0  0  3  0  0  0  0  0  0
  188.7740  176.8180  144.4720 C   0  0  1  0  0  3  0  0  0  0  0  0
  189.7160  177.7470  145.2490 C   0  0  0  0  0  2  0  0  0  0  0  0
  188.6210  178.0390  138.4300 C   0  0  0  0  0  0  0  0  0  0  0  0
  187.7750  178.6610  137.5710 F   0  0  0  0  0  0  0  0  0  0  0  0
  190.4490  176.6960  140.1750 C   0  0  0  0  0  3  0  0  0  0  0  0
  191.6780  177.0890  143.9110 C   0  0  0  0  0  2  0  0  0  0  0  0
  187.8550  177.8470  142.6310 C   0  0  0  0  0  0  0  0  0  0  0  0
  187.6510  177.6270  144.0140 N   0  0  0  0  0  2  0  0  0  0  0  0
  189.8090  177.6090  137.9950 C   0  0  0  0  0  3  0  0  0  0  0  0
  190.9110  175.9950  143.1880 C   0  0  0  0  0  2  0  0  0  0  0  0
  190.7960  176.9850  138.9140 C   0  0  0  0  0  0  0  0  0  0  0  0
  188.2790  177.8910  139.8530 C   0  0  0  0  0  0  0  0  0  0  0  0
  192.1480  176.7410  138.5080 N   0  0  0  0  0  2  0  0  0  0  0  0
  192.6730  175.5170  137.9740 C   0  0  0  0  0  0  0  0  0  0  0  0
  191.9600  174.4790  137.9090 O   0  0  0  0  0  0  0  0  0  0  0  0
  194.3690  175.7650  136.0650 C   0  0  1  0  0  3  0  0  0  0  0  0
  194.3560  174.3350  136.5640 C   0  0  0  0  0  2  0  0  0  0  0  0
  193.1260  176.0020  135.2170 C   0  0  0  0  0  1  0  0  0  0  0  0
  194.1130  175.4630  137.5510 C   0  0  2  0  0  3  0  0  0  0  0  0
  1 13  1  0  0  0  0
  1  4  1  0  0  0  0
  2 11  1  6  0  0  0
  2  1  1  0  0  0  0
  3 13  2  0  0  0  0
  4 16  1  1  0  0  0
  4  7  1  0  0  0  0
  6  3  1  0  0  0  0
  7  8  1  6  0  0  0
  8  5  1  0  0  0  0
  9 18  1  0  0  0  0
 10  9  1  0  0  0  0
 12  5  1  0  0  0  0
 13 14  1  0  0  0  0
 14  7  1  0  0  0  0
 15  9  2  0  0  0  0
 15 17  1  0  0  0  0
 16 12  1  0  0  0  0
 17 11  2  0  0  0  0
 18  6  2  0  0  0  0
 18  2  1  0  0  0  0
 19 17  1  0  0  0  0
 20 19  1  0  0  0  0
 21 20  2  0  0  0  0
 22 24  1  6  0  0  0
 22 23  1  0  0  0  0
 22 25  1  0  0  0  0
 23 25  1  0  0  0  0
 25 20  1  6  0  0  0
M  END
>  <MODEL>
8

>  <REMARK>
 VINA RESULT:      -7.7      5.086      7.280
  Name = 
  2 active torsions:
  status: ('A' for Active; 'I' for Inactive)
    1  A    between atoms: N_6  and  C_23
    2  A    between atoms: C_15  and  C_21
                            x       y       z     vdW  Elec       q    Type
                         _______ _______ _______ _____ _____    ______ ____

>  <TORSDO>
F 2

$$$$
=
 OpenBabel10262419443D

 25 29  0  0  1  0  0  0  0  0999 V2000
  189.7110  176.9210  144.4410 N   0  0  0  0  0  0  0  0  0  0  0  0
  188.8940  176.7540  145.6480 C   0  0  2  0  0  3  0  0  0  0  0  0
  191.6800  177.4930  145.6960 C   0  0  0  0  0  3  0  0  0  0  0  0
  189.5300  176.1730  143.2030 C   0  0  2  0  0  3  0  0  0  0  0  0
  189.4590  177.5680  140.6240 C   0  0  0  0  0  2  0  0  0  0  0  0
  190.8160  177.7710  146.8600 C   0  0  0  0  0  3  0  0  0  0  0  0
  190.8430  176.3750  142.3900 C   0  0  1  0  0  3  0  0  0  0  0  0
  190.7700  177.5350  141.3890 C   0  0  0  0  0  2  0  0  0  0  0  0
  188.6260  177.8430  147.9540 C   0  0  0  0  0  0  0  0  0  0  0  0
  189.1420  178.1590  149.1680 F   0  0  0  0  0  0  0  0  0  0  0  0
  187.4630  177.1670  145.4280 C   0  0  0  0  0  3  0  0  0  0  0  0
  188.3260  177.7450  141.6140 C   0  0  0  0  0  2  0  0  0  0  0  0
  191.1130  177.1050  144.5550 C   0  0  0  0  0  0  0  0  0  0  0  0
  191.8350  176.7350  143.3960 N   0  0  0  0  0  2  0  0  0  0  0  0
  187.3070  177.9160  147.7540 C   0  0  0  0  0  3  0  0  0  0  0  0
  188.2220  176.4940  142.4700 C   0  0  0  0  0  2  0  0  0  0  0  0
  186.7050  177.6460  146.4230 C   0  0  0  0  0  0  0  0  0  0  0  0
  189.5060  177.4850  146.8300 C   0  0  0  0  0  0  0  0  0  0  0  0
  185.3320  177.9500  146.1460 N   0  0  0  0  0  2  0  0  0  0  0  0
  184.8450  178.9090  145.1980 C   0  0  0  0  0  0  0  0  0  0  0  0
  185.6370  179.6630  144.5710 O   0  0  0  0  0  0  0  0  0  0  0  0
  182.8440  178.6620  143.6100 C   0  0  1  0  0  3  0  0  0  0  0  0
  183.0440  180.1200  143.9690 C   0  0  0  0  0  2  0  0  0  0  0  0
  183.9090  178.2520  142.6020 C   0  0  0  0  0  1  0  0  0  0  0  0
  183.3620  179.0550  145.0030 C   0  0  2  0  0  3  0  0  0  0  0  0
  1 13  1  0  0  0  0
  1  2  1  0  0  0  0
  2 11  1  6  0  0  0
  2 18  1  0  0  0  0
  3  6  1  0  0  0  0
  4 16  1  6  0  0  0
  4  1  1  0  0  0  0
  5  8  1  0  0  0  0
  5 12  1  0  0  0  0
  7  8  1  6  0  0  0
  7  4  1  0  0  0  0
  7 14  1  0  0  0  0
  9 10  1  0  0  0  0
 11 17  2  0  0  0  0
 12 16  1  0  0  0  0
 13  3  2  0  0  0  0
 14 13  1  0  0  0  0
 15  9  2  0  0  0  0
 17 15  1  0  0  0  0
 18  6  2  0  0  0  0
 18  9  1  0  0  0  0
 19 17  1  0  0  0  0
 20 19  1  0  0  0  0
 21 20  2  0  0  0  0
 22 24  1  6  0  0  0
 22 23  1  0  0  0  0
 22 25  1  0  0  0  0
 23 25  1  0  0  0  0
 25 20  1  6  0  0  0
M  END
>  <MODEL>
9

>  <REMARK>
 VINA RESULT:      -7.6      2.862      4.287
  Name = 
  2 active torsions:
  status: ('A' for Active; 'I' for Inactive)
    1  A    between atoms: N_6  and  C_23
    2  A    between atoms: C_15  and  C_21
                            x       y       z     vdW  Elec       q    Type
                         _______ _______ _______ _____ _____    ______ ____

>  <TORSDO>
F 2

$$$$
