=
 OpenBabel10262422233D

 43 47  0  0  1  0  0  0  0  0999 V2000
  193.8930  175.9800  135.7390 C   0  0  1  0  0  3  0  0  0  0  0  0
  189.6180  177.2630  138.1490 C   0  0  0  0  0  0  0  0  0  0  0  0
  190.1190  176.8130  140.8260 C   0  0  2  0  0  3  0  0  0  0  0  0
  191.5200  176.1930  136.2880 C   0  0  0  0  0  0  0  0  0  0  0  0
  194.1370  175.2370  137.0610 C   0  0  0  0  0  2  0  0  0  0  0  0
  194.6640  175.4250  134.7370 F   0  0  0  0  0  0  0  0  0  0  0  0
  191.9620  176.4720  137.7080 C   0  0  2  0  0  3  0  0  0  0  0  0
  192.4430  175.9330  135.3570 C   0  0  0  0  0  3  0  0  0  0  0  0
  193.0540  175.4790  138.1320 C   0  0  0  0  0  2  0  0  0  0  0  0
  191.2150  176.9170  139.9500 O   0  0  0  0  0  0  0  0  0  0  0  0
  190.7850  176.4450  138.6920 C   0  0  1  0  0  3  0  0  0  0  0  0
  189.2690  177.1780  136.6810 C   0  0  0  0  0  2  0  0  0  0  0  0
  188.8230  177.9350  139.0090 C   0  0  0  0  0  0  0  0  0  0  0  0
  189.0920  177.8920  140.4870 C   0  0  0  0  0  2  0  0  0  0  0  0
  190.0640  176.0990  135.9460 C   0  0  0  0  0  2  0  0  0  0  0  0
  190.5640  176.9680  142.2760 C   0  0  2  0  0  3  0  0  0  0  0  0
  190.5060  175.7400  142.9430 O   0  0  0  0  0  1  0  0  0  0  0  0
  189.7500  177.9290  142.9380 O   0  0  0  0  0  0  0  0  0  0  0  0
  190.2120  178.6690  144.0330 C   0  0  0  0  0  0  0  0  0  0  0  0
  190.9920  179.6440  143.8600 O   0  0  0  0  0  0  0  0  0  0  0  0
  189.8100  178.3460  145.3270 O   0  0  0  0  0  0  0  0  0  0  0  0
  189.1020  177.1490  145.6300 C   0  0  1  0  0  3  0  0  0  0  0  0
  189.9240  176.2810  146.3580 O   0  0  0  0  0  0  0  0  0  0  0  0
  192.0010  176.1060  146.8930 C   0  0  0  0  0  1  0  0  0  0  0  0
  190.9570  177.0150  146.7230 O   0  0  0  0  0  0  0  0  0  0  0  0
  187.8390  177.4680  146.4330 C   0  0  2  0  0  3  0  0  0  0  0  0
  186.7160  177.8870  145.5360 C   0  0  0  0  0  0  0  0  0  0  0  0
  184.5640  178.9730  145.2620 C   0  0  0  0  0  3  0  0  0  0  0  0
  185.6520  177.9540  143.3540 C   0  0  0  0  0  3  0  0  0  0  0  0
  184.5750  178.6570  143.9000 C   0  0  0  0  0  3  0  0  0  0  0  0
  186.7200  177.5670  144.1690 C   0  0  0  0  0  3  0  0  0  0  0  0
  185.6320  178.5860  146.0780 C   0  0  0  0  0  3  0  0  0  0  0  0
  188.0940  178.4420  147.4060 O   0  0  0  0  0  0  0  0  0  0  0  0
  187.9610  177.7760  148.6240 C   0  0  0  0  0  1  0  0  0  0  0  0
  187.6950  178.7000  138.5620 N   0  0  0  0  0  2  0  0  0  0  0  0
  184.1690  178.1690  139.7150 C   0  0  0  0  0  3  0  0  0  0  0  0
  183.6810  177.3390  138.6950 C   0  0  0  0  0  0  0  0  0  0  0  0
  185.8450  177.4280  137.6030 C   0  0  0  0  0  3  0  0  0  0  0  0
  185.4890  178.6260  139.6760 C   0  0  0  0  0  3  0  0  0  0  0  0
  186.3310  178.2670  138.6120 C   0  0  0  0  0  0  0  0  0  0  0  0
  184.5250  176.9700  137.6420 C   0  0  0  0  0  3  0  0  0  0  0  0
  182.3670  176.8740  138.7130 O   0  0  0  0  0  0  0  0  0  0  0  0
  182.0170  175.8150  139.4540 O   0  0  0  0  0  1  0  0  0  0  0  0
  1  6  1  6  0  0  0
  1  5  1  0  0  0  0
  2 13  2  0  0  0  0
  3 16  1  1  0  0  0
  4  7  1  0  0  0  0
  5  9  1  0  0  0  0
  7  9  1  1  0  0  0
  7 11  1  0  0  0  0
  8  1  1  0  0  0  0
  8  4  2  0  0  0  0
 10  3  1  0  0  0  0
 11  2  1  6  0  0  0
 11 10  1  0  0  0  0
 12  2  1  0  0  0  0
 13 14  1  0  0  0  0
 14  3  1  0  0  0  0
 15  4  1  0  0  0  0
 15 12  1  0  0  0  0
 16 18  1  0  0  0  0
 16 17  1  1  0  0  0
 18 19  1  0  0  0  0
 19 21  1  0  0  0  0
 20 19  2  0  0  0  0
 22 21  1  1  0  0  0
 22 23  1  0  0  0  0
 22 26  1  0  0  0  0
 23 25  1  0  0  0  0
 25 24  1  0  0  0  0
 26 33  1  1  0  0  0
 27 32  1  0  0  0  0
 27 26  1  0  0  0  0
 28 32  2  0  0  0  0
 29 30  2  0  0  0  0
 29 31  1  0  0  0  0
 30 28  1  0  0  0  0
 31 27  2  0  0  0  0
 33 34  1  0  0  0  0
 35 40  1  0  0  0  0
 35 13  1  0  0  0  0
 37 42  1  0  0  0  0
 37 36  2  0  0  0  0
 38 41  2  0  0  0  0
 38 40  1  0  0  0  0
 39 36  1  0  0  0  0
 40 39  2  0  0  0  0
 41 37  1  0  0  0  0
 42 43  1  0  0  0  0
M  END
>  <MODEL>
1

>  <REMARK>
 VINA RESULT:      -8.7      0.000      0.000
  Name = 
  13 active torsions:
  status: ('A' for Active; 'I' for Inactive)
    1  A    between atoms: N_1  and  C_34
    2  A    between atoms: N_1  and  C_35
    3  A    between atoms: C_2  and  O_6
    4  A    between atoms: C_2  and  C_13
    5  A    between atoms: O_3  and  C_4
    6  A    between atoms: O_3  and  C_12
    7  A    between atoms: C_4  and  O_15
    8  A    between atoms: C_4  and  C_22
    9  A    between atoms: O_6  and  C_12
   10  A    between atoms: C_11  and  C_22
   11  A    between atoms: O_14  and  C_22
   12  A    between atoms: O_15  and  O_42
   13  A    between atoms: C_19  and  O_25
                            x       y       z     vdW  Elec       q    Type
                         _______ _______ _______ _____ _____    ______ ____

>  <TORSDO>
F 13

$$$$
=
 OpenBabel10262422233D

 43 47  0  0  1  0  0  0  0  0999 V2000
  191.3010  175.6870  147.1360 C   0  0  1  0  0  3  0  0  0  0  0  0
  187.3560  177.8720  144.8130 C   0  0  0  0  0  0  0  0  0  0  0  0
  188.2130  178.3920  142.2410 C   0  0  2  0  0  3  0  0  0  0  0  0
  189.3710  177.1270  146.7140 C   0  0  0  0  0  0  0  0  0  0  0  0
  192.0500  176.3370  145.9640 C   0  0  0  0  0  2  0  0  0  0  0  0
  192.1770  175.4300  148.1720 F   0  0  0  0  0  0  0  0  0  0  0  0
  189.6350  176.9030  145.2400 C   0  0  2  0  0  3  0  0  0  0  0  0
  190.1830  176.5670  147.6140 C   0  0  0  0  0  3  0  0  0  0  0  0
  191.1350  177.0400  144.9400 C   0  0  0  0  0  2  0  0  0  0  0  0
  188.9330  177.4580  143.0090 O   0  0  0  0  0  0  0  0  0  0  0  0
  188.8110  177.8510  144.3590 C   0  0  1  0  0  3  0  0  0  0  0  0
  187.0390  177.8820  146.2900 C   0  0  0  0  0  2  0  0  0  0  0  0
  186.3780  178.0290  143.8960 C   0  0  0  0  0  0  0  0  0  0  0  0
  186.7150  178.1660  142.4380 C   0  0  0  0  0  2  0  0  0  0  0  0
  188.2820  178.0540  147.1610 C   0  0  0  0  0  2  0  0  0  0  0  0
  188.5600  178.2650  140.7630 C   0  0  2  0  0  3  0  0  0  0  0  0
  187.4190  178.4420  139.9720 O   0  0  0  0  0  1  0  0  0  0  0  0
  189.1480  176.9960  140.5040 O   0  0  0  0  0  0  0  0  0  0  0  0
  190.5160  176.8480  140.2430 C   0  0  0  0  0  0  0  0  0  0  0  0
  191.3680  177.4770  140.9270 O   0  0  0  0  0  0  0  0  0  0  0  0
  190.9560  175.9960  139.2310 O   0  0  0  0  0  0  0  0  0  0  0  0
  191.0190  176.4000  137.8680 C   0  0  1  0  0  3  0  0  0  0  0  0
  192.2930  176.1360  137.3510 O   0  0  0  0  0  0  0  0  0  0  0  0
  193.6640  174.4880  137.1750 C   0  0  0  0  0  1  0  0  0  0  0  0
  192.7160  175.0760  138.0110 O   0  0  0  0  0  0  0  0  0  0  0  0
  189.9590  175.6620  137.0470 C   0  0  2  0  0  3  0  0  0  0  0  0
  188.6950  176.4580  136.9510 C   0  0  0  0  0  0  0  0  0  0  0  0
  186.2760  176.5530  137.1160 C   0  0  0  0  0  3  0  0  0  0  0  0
  187.5190  178.5290  136.4730 C   0  0  0  0  0  3  0  0  0  0  0  0
  186.3010  177.9010  136.7460 C   0  0  0  0  0  3  0  0  0  0  0  0
  188.7140  177.8100  136.5730 C   0  0  0  0  0  3  0  0  0  0  0  0
  187.4710  175.8330  137.2160 C   0  0  0  0  0  3  0  0  0  0  0  0
  189.7120  174.3890  137.5740 O   0  0  0  0  0  0  0  0  0  0  0  0
  189.9320  173.5120  136.5110 C   0  0  0  0  0  1  0  0  0  0  0  0
  184.9920  178.0820  144.2640 N   0  0  0  0  0  2  0  0  0  0  0  0
  181.6450  179.1670  142.9730 C   0  0  0  0  0  3  0  0  0  0  0  0
  181.8100  178.9480  141.5980 C   0  0  0  0  0  0  0  0  0  0  0  0
  184.0710  178.1700  142.0050 C   0  0  0  0  0  3  0  0  0  0  0  0
  182.6910  178.8890  143.8580 C   0  0  0  0  0  3  0  0  0  0  0  0
  183.9140  178.3990  143.3760 C   0  0  0  0  0  0  0  0  0  0  0  0
  183.0260  178.4470  141.1200 C   0  0  0  0  0  3  0  0  0  0  0  0
  180.7820  179.2210  140.6980 O   0  0  0  0  0  0  0  0  0  0  0  0
  180.9810  179.1520  139.3750 O   0  0  0  0  0  1  0  0  0  0  0  0
  1  8  1  0  0  0  0
  1  6  1  1  0  0  0
  2 12  1  0  0  0  0
  3 16  1  6  0  0  0
  3 14  1  0  0  0  0
  3 10  1  0  0  0  0
  4 15  1  0  0  0  0
  4  8  2  0  0  0  0
  5  1  1  0  0  0  0
  7  9  1  1  0  0  0
  7  4  1  0  0  0  0
  9  5  1  0  0  0  0
 11 10  1  6  0  0  0
 11  2  1  0  0  0  0
 11  7  1  0  0  0  0
 12 15  1  0  0  0  0
 13 35  1  0  0  0  0
 13  2  2  0  0  0  0
 14 13  1  0  0  0  0
 16 17  1  6  0  0  0
 18 16  1  0  0  0  0
 19 18  1  0  0  0  0
 19 20  2  0  0  0  0
 21 19  1  0  0  0  0
 22 23  1  6  0  0  0
 22 21  1  0  0  0  0
 23 25  1  0  0  0  0
 24 25  1  0  0  0  0
 26 33  1  1  0  0  0
 26 22  1  0  0  0  0
 27 26  1  0  0  0  0
 27 32  1  0  0  0  0
 28 32  2  0  0  0  0
 29 31  1  0  0  0  0
 29 30  2  0  0  0  0
 30 28  1  0  0  0  0
 31 27  2  0  0  0  0
 34 33  1  0  0  0  0
 36 39  1  0  0  0  0
 37 36  2  0  0  0  0
 38 40  1  0  0  0  0
 40 39  2  0  0  0  0
 40 35  1  0  0  0  0
 41 37  1  0  0  0  0
 41 38  2  0  0  0  0
 42 37  1  0  0  0  0
 43 42  1  0  0  0  0
M  END
>  <MODEL>
2

>  <REMARK>
 VINA RESULT:      -8.4      3.047      7.785
  Name = 
  13 active torsions:
  status: ('A' for Active; 'I' for Inactive)
    1  A    between atoms: N_1  and  C_34
    2  A    between atoms: N_1  and  C_35
    3  A    between atoms: C_2  and  O_6
    4  A    between atoms: C_2  and  C_13
    5  A    between atoms: O_3  and  C_4
    6  A    between atoms: O_3  and  C_12
    7  A    between atoms: C_4  and  O_15
    8  A    between atoms: C_4  and  C_22
    9  A    between atoms: O_6  and  C_12
   10  A    between atoms: C_11  and  C_22
   11  A    between atoms: O_14  and  C_22
   12  A    between atoms: O_15  and  O_42
   13  A    between atoms: C_19  and  O_25
                            x       y       z     vdW  Elec       q    Type
                         _______ _______ _______ _____ _____    ______ ____

>  <TORSDO>
F 13

$$$$
=
 OpenBabel10262422233D

 43 47  0  0  1  0  0  0  0  0999 V2000
  188.0730  176.9480  147.3090 C   0  0  1  0  0  3  0  0  0  0  0  0
  185.5920  178.4760  143.1570 C   0  0  0  0  0  0  0  0  0  0  0  0
  187.5220  178.7280  141.1990 C   0  0  2  0  0  3  0  0  0  0  0  0
  186.5280  178.1560  145.8500 C   0  0  0  0  0  0  0  0  0  0  0  0
  189.2650  177.5010  146.5150 C   0  0  0  0  0  2  0  0  0  0  0  0
  188.3830  176.9020  148.6550 F   0  0  0  0  0  0  0  0  0  0  0  0
  187.4390  177.7650  144.7060 C   0  0  2  0  0  3  0  0  0  0  0  0
  186.8480  177.7870  147.0930 C   0  0  0  0  0  3  0  0  0  0  0  0
  188.9090  177.9860  145.0940 C   0  0  0  0  0  2  0  0  0  0  0  0
  187.8260  177.9650  142.3410 O   0  0  0  0  0  0  0  0  0  0  0  0
  187.0950  178.5180  143.4140 C   0  0  1  0  0  3  0  0  0  0  0  0
  184.6360  178.6520  144.3130 C   0  0  0  0  0  2  0  0  0  0  0  0
  185.1390  178.4310  141.8870 C   0  0  0  0  0  0  0  0  0  0  0  0
  186.1030  178.4060  140.7340 C   0  0  0  0  0  2  0  0  0  0  0  0
  185.3410  179.0390  145.6120 C   0  0  0  0  0  2  0  0  0  0  0  0
  188.5070  178.4390  140.0730 C   0  0  2  0  0  3  0  0  0  0  0  0
  187.9370  178.7350  138.8300 O   0  0  0  0  0  1  0  0  0  0  0  0
  188.9180  177.0780  140.1170 O   0  0  0  0  0  0  0  0  0  0  0  0
  190.2660  176.7070  140.1720 C   0  0  0  0  0  0  0  0  0  0  0  0
  190.9740  177.0200  141.1680 O   0  0  0  0  0  0  0  0  0  0  0  0
  190.8450  175.9790  139.1340 O   0  0  0  0  0  0  0  0  0  0  0  0
  190.8540  176.4430  137.7890 C   0  0  1  0  0  3  0  0  0  0  0  0
  192.1700  176.5080  137.3160 O   0  0  0  0  0  0  0  0  0  0  0  0
  193.9160  175.2540  137.2320 C   0  0  0  0  0  1  0  0  0  0  0  0
  192.8330  175.6190  138.0300 O   0  0  0  0  0  0  0  0  0  0  0  0
  190.0250  175.5140  136.9010 C   0  0  2  0  0  3  0  0  0  0  0  0
  188.6730  176.0940  136.6200 C   0  0  0  0  0  0  0  0  0  0  0  0
  187.3100  177.7320  135.4600 C   0  0  0  0  0  3  0  0  0  0  0  0
  186.2750  176.1720  136.9960 C   0  0  0  0  0  3  0  0  0  0  0  0
  186.1680  177.2350  136.0960 C   0  0  0  0  0  3  0  0  0  0  0  0
  187.5250  175.6030  137.2610 C   0  0  0  0  0  3  0  0  0  0  0  0
  188.5600  177.1630  135.7240 C   0  0  0  0  0  3  0  0  0  0  0  0
  189.9150  174.2390  137.4700 O   0  0  0  0  0  0  0  0  0  0  0  0
  190.4650  173.3750  136.5230 C   0  0  0  0  0  1  0  0  0  0  0  0
  183.7370  178.4160  141.5800 N   0  0  0  0  0  2  0  0  0  0  0  0
  182.4210  176.5950  138.5810 C   0  0  0  0  0  3  0  0  0  0  0  0
  182.1360  177.6680  137.7250 C   0  0  0  0  0  0  0  0  0  0  0  0
  182.9050  179.2150  139.4280 C   0  0  0  0  0  3  0  0  0  0  0  0
  182.9440  176.8330  139.8550 C   0  0  0  0  0  3  0  0  0  0  0  0
  183.1780  178.1460  140.2890 C   0  0  0  0  0  0  0  0  0  0  0  0
  182.3830  178.9770  138.1530 C   0  0  0  0  0  3  0  0  0  0  0  0
  181.6120  177.4530  136.4510 O   0  0  0  0  0  0  0  0  0  0  0  0
  181.6170  176.2340  135.8960 O   0  0  0  0  0  1  0  0  0  0  0  0
  1  6  1  1  0  0  0
  2 11  1  0  0  0  0
  2 12  1  0  0  0  0
  3 16  1  6  0  0  0
  3 10  1  0  0  0  0
  4  8  2  0  0  0  0
  5  1  1  0  0  0  0
  7  9  1  1  0  0  0
  7  4  1  0  0  0  0
  8  1  1  0  0  0  0
  9  5  1  0  0  0  0
 11 10  1  6  0  0  0
 11  7  1  0  0  0  0
 12 15  1  0  0  0  0
 13  2  2  0  0  0  0
 14  3  1  0  0  0  0
 14 13  1  0  0  0  0
 15  4  1  0  0  0  0
 16 17  1  6  0  0  0
 16 18  1  0  0  0  0
 18 19  1  0  0  0  0
 19 20  2  0  0  0  0
 21 19  1  0  0  0  0
 22 23  1  6  0  0  0
 22 21  1  0  0  0  0
 23 25  1  0  0  0  0
 24 25  1  0  0  0  0
 26 33  1  1  0  0  0
 26 22  1  0  0  0  0
 27 26  1  0  0  0  0
 27 31  1  0  0  0  0
 28 32  1  0  0  0  0
 28 30  2  0  0  0  0
 29 31  2  0  0  0  0
 30 29  1  0  0  0  0
 32 27  2  0  0  0  0
 34 33  1  0  0  0  0
 35 13  1  0  0  0  0
 36 39  1  0  0  0  0
 37 41  1  0  0  0  0
 37 36  2  0  0  0  0
 38 40  1  0  0  0  0
 39 40  2  0  0  0  0
 40 35  1  0  0  0  0
 41 38  2  0  0  0  0
 42 37  1  0  0  0  0
 43 42  1  0  0  0  0
M  END
>  <MODEL>
3

>  <REMARK>
 VINA RESULT:      -8.3      3.266      7.971
  Name = 
  13 active torsions:
  status: ('A' for Active; 'I' for Inactive)
    1  A    between atoms: N_1  and  C_34
    2  A    between atoms: N_1  and  C_35
    3  A    between atoms: C_2  and  O_6
    4  A    between atoms: C_2  and  C_13
    5  A    between atoms: O_3  and  C_4
    6  A    between atoms: O_3  and  C_12
    7  A    between atoms: C_4  and  O_15
    8  A    between atoms: C_4  and  C_22
    9  A    between atoms: O_6  and  C_12
   10  A    between atoms: C_11  and  C_22
   11  A    between atoms: O_14  and  C_22
   12  A    between atoms: O_15  and  O_42
   13  A    between atoms: C_19  and  O_25
                            x       y       z     vdW  Elec       q    Type
                         _______ _______ _______ _____ _____    ______ ____

>  <TORSDO>
F 13

$$$$
=
 OpenBabel10262422233D

 43 47  0  0  1  0  0  0  0  0999 V2000
  183.1260  178.6900  142.8660 C   0  0  1  0  0  3  0  0  0  0  0  0
  186.3010  178.0640  138.9600 C   0  0  0  0  0  0  0  0  0  0  0  0
  188.8310  178.0460  140.0650 C   0  0  2  0  0  3  0  0  0  0  0  0
  184.1610  178.9260  140.6630 C   0  0  0  0  0  0  0  0  0  0  0  0
  184.4170  179.1850  143.5320 C   0  0  0  0  0  2  0  0  0  0  0  0
  182.0260  179.1890  143.5370 F   0  0  0  0  0  0  0  0  0  0  0  0
  185.4230  178.3780  141.2930 C   0  0  2  0  0  3  0  0  0  0  0  0
  183.0750  179.0980  141.4220 C   0  0  0  0  0  3  0  0  0  0  0  0
  185.6770  179.0490  142.6520 C   0  0  0  0  0  2  0  0  0  0  0  0
  187.7310  177.8210  140.9120 O   0  0  0  0  0  0  0  0  0  0  0  0
  186.6400  178.5330  140.3710 C   0  0  1  0  0  3  0  0  0  0  0  0
  184.9570  178.4110  138.3630 C   0  0  0  0  0  2  0  0  0  0  0  0
  187.2570  177.4760  138.2110 C   0  0  0  0  0  0  0  0  0  0  0  0
  188.6390  177.2690  138.7640 C   0  0  0  0  0  2  0  0  0  0  0  0
  184.1550  179.3770  139.2340 C   0  0  0  0  0  2  0  0  0  0  0  0
  190.1310  177.6140  140.7330 C   0  0  2  0  0  3  0  0  0  0  0  0
  191.2020  177.7160  139.8390 O   0  0  0  0  0  1  0  0  0  0  0  0
  190.0150  176.2800  141.2150 O   0  0  0  0  0  0  0  0  0  0  0  0
  189.9200  175.9870  142.5800 C   0  0  0  0  0  0  0  0  0  0  0  0
  188.8740  175.4620  143.0490 O   0  0  0  0  0  0  0  0  0  0  0  0
  190.9820  176.2610  143.4400 O   0  0  0  0  0  0  0  0  0  0  0  0
  190.8150  176.3720  144.8490 C   0  0  1  0  0  3  0  0  0  0  0  0
  191.9940  175.9890  145.5000 O   0  0  0  0  0  0  0  0  0  0  0  0
  192.3630  175.7740  147.6090 C   0  0  0  0  0  1  0  0  0  0  0  0
  192.0080  176.6890  146.6180 O   0  0  0  0  0  0  0  0  0  0  0  0
  190.4510  177.8090  145.2290 C   0  0  2  0  0  3  0  0  0  0  0  0
  189.1530  177.8610  145.9730 C   0  0  0  0  0  0  0  0  0  0  0  0
  187.9690  177.9800  148.0880 C   0  0  0  0  0  3  0  0  0  0  0  0
  186.7250  177.8300  146.0150 C   0  0  0  0  0  3  0  0  0  0  0  0
  186.7470  177.9220  147.4090 C   0  0  0  0  0  3  0  0  0  0  0  0
  187.9250  177.7970  145.2970 C   0  0  0  0  0  3  0  0  0  0  0  0
  189.1690  177.9470  147.3700 C   0  0  0  0  0  3  0  0  0  0  0  0
  190.4160  178.6340  144.0990 O   0  0  0  0  0  0  0  0  0  0  0  0
  191.5800  179.3990  144.1760 C   0  0  0  0  0  1  0  0  0  0  0  0
  187.0080  177.0360  136.8670 N   0  0  0  0  0  2  0  0  0  0  0  0
  184.6390  174.4530  135.5420 C   0  0  0  0  0  3  0  0  0  0  0  0
  185.3260  173.2750  135.8680 C   0  0  0  0  0  0  0  0  0  0  0  0
  187.1110  174.5970  136.8390 C   0  0  0  0  0  3  0  0  0  0  0  0
  185.1890  175.6970  135.8640 C   0  0  0  0  0  3  0  0  0  0  0  0
  186.4350  175.7750  136.5040 C   0  0  0  0  0  0  0  0  0  0  0  0
  186.5610  173.3530  136.5190 C   0  0  0  0  0  3  0  0  0  0  0  0
  184.7960  172.0240  135.5550 O   0  0  0  0  0  0  0  0  0  0  0  0
  185.5630  171.0550  135.0380 O   0  0  0  0  0  1  0  0  0  0  0  0
  1  5  1  0  0  0  0
  1  6  1  1  0  0  0
  3 16  1  1  0  0  0
  3 10  1  0  0  0  0
  4  7  1  0  0  0  0
  4  8  2  0  0  0  0
  7  9  1  1  0  0  0
  8  1  1  0  0  0  0
  9  5  1  0  0  0  0
 11  2  1  6  0  0  0
 11 10  1  0  0  0  0
 11  7  1  0  0  0  0
 12  2  1  0  0  0  0
 12 15  1  0  0  0  0
 13 14  1  0  0  0  0
 13  2  2  0  0  0  0
 14  3  1  0  0  0  0
 15  4  1  0  0  0  0
 16 17  1  6  0  0  0
 16 18  1  0  0  0  0
 18 19  1  0  0  0  0
 19 20  2  0  0  0  0
 19 21  1  0  0  0  0
 22 21  1  6  0  0  0
 22 26  1  0  0  0  0
 22 23  1  0  0  0  0
 23 25  1  0  0  0  0
 25 24  1  0  0  0  0
 26 33  1  6  0  0  0
 26 27  1  0  0  0  0
 27 32  1  0  0  0  0
 29 30  2  0  0  0  0
 30 28  1  0  0  0  0
 31 27  2  0  0  0  0
 31 29  1  0  0  0  0
 32 28  2  0  0  0  0
 33 34  1  0  0  0  0
 35 13  1  0  0  0  0
 36 39  2  0  0  0  0
 36 37  1  0  0  0  0
 37 41  2  0  0  0  0
 39 40  1  0  0  0  0
 40 38  2  0  0  0  0
 40 35  1  0  0  0  0
 41 38  1  0  0  0  0
 42 37  1  0  0  0  0
 43 42  1  0  0  0  0
M  END
>  <MODEL>
4

>  <REMARK>
 VINA RESULT:      -8.2      3.609      5.920
  Name = 
  13 active torsions:
  status: ('A' for Active; 'I' for Inactive)
    1  A    between atoms: N_1  and  C_34
    2  A    between atoms: N_1  and  C_35
    3  A    between atoms: C_2  and  O_6
    4  A    between atoms: C_2  and  C_13
    5  A    between atoms: O_3  and  C_4
    6  A    between atoms: O_3  and  C_12
    7  A    between atoms: C_4  and  O_15
    8  A    between atoms: C_4  and  C_22
    9  A    between atoms: O_6  and  C_12
   10  A    between atoms: C_11  and  C_22
   11  A    between atoms: O_14  and  C_22
   12  A    between atoms: O_15  and  O_42
   13  A    between atoms: C_19  and  O_25
                            x       y       z     vdW  Elec       q    Type
                         _______ _______ _______ _____ _____    ______ ____

>  <TORSDO>
F 13

$$$$
=
 OpenBabel10262422233D

 43 47  0  0  1  0  0  0  0  0999 V2000
  189.9040  176.7040  135.9880 C   0  0  1  0  0  3  0  0  0  0  0  0
  189.1370  177.2320  140.9750 C   0  0  0  0  0  0  0  0  0  0  0  0
  186.8510  178.7610  141.2090 C   0  0  2  0  0  3  0  0  0  0  0  0
  190.3230  177.0840  138.3670 C   0  0  0  0  0  0  0  0  0  0  0  0
  188.9670  177.9190  135.9530 C   0  0  0  0  0  2  0  0  0  0  0  0
  190.6380  176.6400  134.8190 F   0  0  0  0  0  0  0  0  0  0  0  0
  188.8500  177.4140  138.4850 C   0  0  2  0  0  3  0  0  0  0  0  0
  190.8270  176.7710  137.1700 C   0  0  0  0  0  3  0  0  0  0  0  0
  188.4160  178.3330  137.3340 C   0  0  0  0  0  2  0  0  0  0  0  0
  187.1070  178.1270  139.9790 O   0  0  0  0  0  0  0  0  0  0  0  0
  188.5090  178.0390  139.8440 C   0  0  1  0  0  3  0  0  0  0  0  0
  190.5410  176.6970  140.8150 C   0  0  0  0  0  2  0  0  0  0  0  0
  188.4910  177.1320  142.1550 C   0  0  0  0  0  0  0  0  0  0  0  0
  187.1570  177.7960  142.3520 C   0  0  0  0  0  2  0  0  0  0  0  0
  191.2310  177.2120  139.5520 C   0  0  0  0  0  2  0  0  0  0  0  0
  185.3980  179.2130  141.2960 C   0  0  2  0  0  3  0  0  0  0  0  0
  184.8710  178.9380  142.5620 O   0  0  0  0  0  1  0  0  0  0  0  0
  184.6240  178.5740  140.2880 O   0  0  0  0  0  0  0  0  0  0  0  0
  184.1260  179.2670  139.1790 C   0  0  0  0  0  0  0  0  0  0  0  0
  184.2380  180.5210  139.1070 O   0  0  0  0  0  0  0  0  0  0  0  0
  183.5080  178.5830  138.1340 O   0  0  0  0  0  0  0  0  0  0  0  0
  183.0570  177.2390  138.2630 C   0  0  1  0  0  3  0  0  0  0  0  0
  181.7090  177.2240  138.6430 O   0  0  0  0  0  0  0  0  0  0  0  0
  181.0230  175.4910  139.7190 C   0  0  0  0  0  1  0  0  0  0  0  0
  181.7020  176.7020  139.8540 O   0  0  0  0  0  0  0  0  0  0  0  0
  183.2350  176.4890  136.9420 C   0  0  2  0  0  3  0  0  0  0  0  0
  184.3560  175.5000  137.0260 C   0  0  0  0  0  0  0  0  0  0  0  0
  185.1230  173.2640  137.5730 C   0  0  0  0  0  3  0  0  0  0  0  0
  186.7050  174.9270  136.8000 C   0  0  0  0  0  3  0  0  0  0  0  0
  186.4310  173.6290  137.2370 C   0  0  0  0  0  3  0  0  0  0  0  0
  185.6720  175.8630  136.6970 C   0  0  0  0  0  3  0  0  0  0  0  0
  184.0890  174.2000  137.4690 C   0  0  0  0  0  3  0  0  0  0  0  0
  183.4320  177.3810  135.8810 O   0  0  0  0  0  0  0  0  0  0  0  0
  182.5720  176.9380  134.8760 C   0  0  0  0  0  1  0  0  0  0  0  0
  189.0430  176.4090  143.2650 N   0  0  0  0  0  2  0  0  0  0  0  0
  187.8910  177.7250  146.5800 C   0  0  0  0  0  3  0  0  0  0  0  0
  189.1070  177.7900  147.2740 C   0  0  0  0  0  0  0  0  0  0  0  0
  190.2570  176.9370  145.3170 C   0  0  0  0  0  3  0  0  0  0  0  0
  187.8600  177.2660  145.2600 C   0  0  0  0  0  3  0  0  0  0  0  0
  189.0430  176.8590  144.6250 C   0  0  0  0  0  0  0  0  0  0  0  0
  190.2880  177.3970  146.6350 C   0  0  0  0  0  3  0  0  0  0  0  0
  189.1600  178.2430  148.5910 O   0  0  0  0  0  0  0  0  0  0  0  0
  188.0860  178.1850  149.3890 O   0  0  0  0  0  1  0  0  0  0  0  0
  1  6  1  6  0  0  0
  1  8  1  0  0  0  0
  2 13  2  0  0  0  0
  3 16  1  6  0  0  0
  3 14  1  0  0  0  0
  4  7  1  0  0  0  0
  4 15  1  0  0  0  0
  5  1  1  0  0  0  0
  5  9  1  0  0  0  0
  7  9  1  6  0  0  0
  7 11  1  0  0  0  0
  8  4  2  0  0  0  0
 10  3  1  0  0  0  0
 11 10  1  1  0  0  0
 11  2  1  0  0  0  0
 12  2  1  0  0  0  0
 13 14  1  0  0  0  0
 13 35  1  0  0  0  0
 15 12  1  0  0  0  0
 16 17  1  1  0  0  0
 18 16  1  0  0  0  0
 19 18  1  0  0  0  0
 20 19  2  0  0  0  0
 21 19  1  0  0  0  0
 22 21  1  6  0  0  0
 22 23  1  0  0  0  0
 23 25  1  0  0  0  0
 24 25  1  0  0  0  0
 26 33  1  6  0  0  0
 26 27  1  0  0  0  0
 26 22  1  0  0  0  0
 27 32  1  0  0  0  0
 29 30  2  0  0  0  0
 30 28  1  0  0  0  0
 31 29  1  0  0  0  0
 31 27  2  0  0  0  0
 32 28  2  0  0  0  0
 34 33  1  0  0  0  0
 35 40  1  0  0  0  0
 36 37  1  0  0  0  0
 37 42  1  0  0  0  0
 38 41  1  0  0  0  0
 39 36  2  0  0  0  0
 40 39  1  0  0  0  0
 40 38  2  0  0  0  0
 41 37  2  0  0  0  0
 42 43  1  0  0  0  0
M  END
>  <MODEL>
5

>  <REMARK>
 VINA RESULT:      -8.1      2.561      8.045
  Name = 
  13 active torsions:
  status: ('A' for Active; 'I' for Inactive)
    1  A    between atoms: N_1  and  C_34
    2  A    between atoms: N_1  and  C_35
    3  A    between atoms: C_2  and  O_6
    4  A    between atoms: C_2  and  C_13
    5  A    between atoms: O_3  and  C_4
    6  A    between atoms: O_3  and  C_12
    7  A    between atoms: C_4  and  O_15
    8  A    between atoms: C_4  and  C_22
    9  A    between atoms: O_6  and  C_12
   10  A    between atoms: C_11  and  C_22
   11  A    between atoms: O_14  and  C_22
   12  A    between atoms: O_15  and  O_42
   13  A    between atoms: C_19  and  O_25
                            x       y       z     vdW  Elec       q    Type
                         _______ _______ _______ _____ _____    ______ ____

>  <TORSDO>
F 13

$$$$
=
 OpenBabel10262422233D

 43 47  0  0  1  0  0  0  0  0999 V2000
  189.3970  177.7060  147.1440 C   0  0  1  0  0  3  0  0  0  0  0  0
  187.2790  178.0570  142.5480 C   0  0  0  0  0  0  0  0  0  0  0  0
  184.5790  178.3990  143.0070 C   0  0  2  0  0  3  0  0  0  0  0  0
  188.8750  177.2660  144.7960 C   0  0  0  0  0  0  0  0  0  0  0  0
  187.9440  177.3940  147.5310 C   0  0  0  0  0  2  0  0  0  0  0  0
  190.2570  177.2180  148.1080 F   0  0  0  0  0  0  0  0  0  0  0  0
  187.5640  177.9800  145.0440 C   0  0  2  0  0  3  0  0  0  0  0  0
  189.7350  177.1140  145.8070 C   0  0  0  0  0  3  0  0  0  0  0  0
  186.9400  177.5090  146.3650 C   0  0  0  0  0  2  0  0  0  0  0  0
  185.4730  178.6500  144.0640 O   0  0  0  0  0  0  0  0  0  0  0  0
  186.5820  177.7970  143.8790 C   0  0  1  0  0  3  0  0  0  0  0  0
  188.6820  177.5400  142.3310 C   0  0  0  0  0  2  0  0  0  0  0  0
  186.5850  178.6130  141.5330 C   0  0  0  0  0  0  0  0  0  0  0  0
  185.1410  178.9890  141.7150 C   0  0  0  0  0  2  0  0  0  0  0  0
  189.1630  176.6370  143.4670 C   0  0  0  0  0  2  0  0  0  0  0  0
  183.2110  179.0070  143.2940 C   0  0  2  0  0  3  0  0  0  0  0  0
  182.7640  178.6370  144.5670 O   0  0  0  0  0  1  0  0  0  0  0  0
  182.2750  178.5970  142.3030 O   0  0  0  0  0  0  0  0  0  0  0  0
  181.0260  179.2120  142.1590 C   0  0  0  0  0  0  0  0  0  0  0  0
  180.7050  180.1850  142.8930 O   0  0  0  0  0  0  0  0  0  0  0  0
  180.1230  178.7650  141.1950 O   0  0  0  0  0  0  0  0  0  0  0  0
  180.3700  177.6150  140.3940 C   0  0  1  0  0  3  0  0  0  0  0  0
  179.2000  176.8540  140.2800 O   0  0  0  0  0  0  0  0  0  0  0  0
  179.3170  174.7530  140.7310 C   0  0  0  0  0  1  0  0  0  0  0  0
  179.2340  176.0220  141.3040 O   0  0  0  0  0  0  0  0  0  0  0  0
  180.8590  178.0310  139.0050 C   0  0  2  0  0  3  0  0  0  0  0  0
  181.6070  176.9180  138.3380 C   0  0  0  0  0  0  0  0  0  0  0  0
  182.0310  175.5940  136.3500 C   0  0  0  0  0  3  0  0  0  0  0  0
  183.2030  175.0890  138.4080 C   0  0  0  0  0  3  0  0  0  0  0  0
  182.9540  174.8200  137.0600 C   0  0  0  0  0  3  0  0  0  0  0  0
  182.5300  176.1350  139.0480 C   0  0  0  0  0  3  0  0  0  0  0  0
  181.3570  176.6390  136.9900 C   0  0  0  0  0  3  0  0  0  0  0  0
  181.6410  179.1900  139.0740 O   0  0  0  0  0  0  0  0  0  0  0  0
  181.0700  180.0630  138.1480 C   0  0  0  0  0  1  0  0  0  0  0  0
  187.1780  178.8580  140.2500 N   0  0  0  0  0  2  0  0  0  0  0  0
  187.7040  176.4270  137.4470 C   0  0  0  0  0  3  0  0  0  0  0  0
  186.5070  176.5850  136.7330 C   0  0  0  0  0  0  0  0  0  0  0  0
  185.7720  178.2320  138.3540 C   0  0  0  0  0  3  0  0  0  0  0  0
  187.9300  177.1680  138.6090 C   0  0  0  0  0  3  0  0  0  0  0  0
  186.9590  178.0680  139.0750 C   0  0  0  0  0  0  0  0  0  0  0  0
  185.5450  177.4930  137.1910 C   0  0  0  0  0  3  0  0  0  0  0  0
  186.2600  175.8550  135.5720 O   0  0  0  0  0  0  0  0  0  0  0  0
  186.4360  174.5270  135.5370 O   0  0  0  0  0  1  0  0  0  0  0  0
  1  5  1  0  0  0  0
  1  6  1  1  0  0  0
  3 16  1  1  0  0  0
  3 10  1  0  0  0  0
  4  7  1  0  0  0  0
  4  8  2  0  0  0  0
  7  9  1  1  0  0  0
  8  1  1  0  0  0  0
  9  5  1  0  0  0  0
 11  2  1  6  0  0  0
 11 10  1  0  0  0  0
 11  7  1  0  0  0  0
 12  2  1  0  0  0  0
 12 15  1  0  0  0  0
 13 14  1  0  0  0  0
 13  2  2  0  0  0  0
 14  3  1  0  0  0  0
 15  4  1  0  0  0  0
 16 17  1  1  0  0  0
 18 16  1  0  0  0  0
 19 18  1  0  0  0  0
 19 20  2  0  0  0  0
 21 19  1  0  0  0  0
 22 23  1  6  0  0  0
 22 21  1  0  0  0  0
 23 25  1  0  0  0  0
 24 25  1  0  0  0  0
 26 33  1  1  0  0  0
 26 22  1  0  0  0  0
 27 26  1  0  0  0  0
 27 31  1  0  0  0  0
 28 32  1  0  0  0  0
 28 30  2  0  0  0  0
 29 31  2  0  0  0  0
 30 29  1  0  0  0  0
 32 27  2  0  0  0  0
 34 33  1  0  0  0  0
 35 13  1  0  0  0  0
 36 39  1  0  0  0  0
 37 41  1  0  0  0  0
 37 36  2  0  0  0  0
 38 40  1  0  0  0  0
 39 40  2  0  0  0  0
 40 35  1  0  0  0  0
 41 38  2  0  0  0  0
 42 37  1  0  0  0  0
 43 42  1  0  0  0  0
M  END
>  <MODEL>
6

>  <REMARK>
 VINA RESULT:      -8.1      4.061      8.641
  Name = 
  13 active torsions:
  status: ('A' for Active; 'I' for Inactive)
    1  A    between atoms: N_1  and  C_34
    2  A    between atoms: N_1  and  C_35
    3  A    between atoms: C_2  and  O_6
    4  A    between atoms: C_2  and  C_13
    5  A    between atoms: O_3  and  C_4
    6  A    between atoms: O_3  and  C_12
    7  A    between atoms: C_4  and  O_15
    8  A    between atoms: C_4  and  C_22
    9  A    between atoms: O_6  and  C_12
   10  A    between atoms: C_11  and  C_22
   11  A    between atoms: O_14  and  C_22
   12  A    between atoms: O_15  and  O_42
   13  A    between atoms: C_19  and  O_25
                            x       y       z     vdW  Elec       q    Type
                         _______ _______ _______ _____ _____    ______ ____

>  <TORSDO>
F 13

$$$$
=
 OpenBabel10262422233D

 43 47  0  0  1  0  0  0  0  0999 V2000
  188.6500  177.9860  147.6320 C   0  0  1  0  0  3  0  0  0  0  0  0
  188.4850  177.9750  142.5620 C   0  0  0  0  0  0  0  0  0  0  0  0
  185.8170  178.2570  141.9130 C   0  0  2  0  0  3  0  0  0  0  0  0
  189.0850  177.3810  145.3030 C   0  0  0  0  0  0  0  0  0  0  0  0
  187.1630  177.6520  147.4470 C   0  0  0  0  0  2  0  0  0  0  0  0
  189.0700  177.5890  148.8860 F   0  0  0  0  0  0  0  0  0  0  0  0
  187.7770  178.0660  144.9710 C   0  0  2  0  0  3  0  0  0  0  0  0
  189.4850  177.3220  146.5760 C   0  0  0  0  0  3  0  0  0  0  0  0
  186.6900  177.6590  145.9780 C   0  0  0  0  0  2  0  0  0  0  0  0
  186.2270  178.6030  143.2120 O   0  0  0  0  0  0  0  0  0  0  0  0
  187.3260  177.7780  143.5330 C   0  0  1  0  0  3  0  0  0  0  0  0
  189.8650  177.4920  142.9430 C   0  0  0  0  0  2  0  0  0  0  0  0
  188.2360  178.4420  141.3200 C   0  0  0  0  0  0  0  0  0  0  0  0
  186.8340  178.7810  140.9000 C   0  0  0  0  0  2  0  0  0  0  0  0
  189.8710  176.6800  144.2370 C   0  0  0  0  0  2  0  0  0  0  0  0
  184.4410  178.8350  141.6030 C   0  0  2  0  0  3  0  0  0  0  0  0
  183.5700  178.6400  142.6790 O   0  0  0  0  0  1  0  0  0  0  0  0
  183.9130  178.2390  140.4240 O   0  0  0  0  0  0  0  0  0  0  0  0
  183.8970  178.9060  139.1930 C   0  0  0  0  0  0  0  0  0  0  0  0
  184.1850  180.1320  139.1290 O   0  0  0  0  0  0  0  0  0  0  0  0
  183.5740  178.2250  138.0210 O   0  0  0  0  0  0  0  0  0  0  0  0
  183.1510  176.8660  138.0210 C   0  0  1  0  0  3  0  0  0  0  0  0
  181.7640  176.7990  138.1940 O   0  0  0  0  0  0  0  0  0  0  0  0
  180.3110  176.1790  139.6550 C   0  0  0  0  0  1  0  0  0  0  0  0
  181.5830  175.9090  139.1520 O   0  0  0  0  0  0  0  0  0  0  0  0
  183.5470  176.1880  136.7080 C   0  0  2  0  0  3  0  0  0  0  0  0
  184.5280  175.0810  136.9430 C   0  0  0  0  0  0  0  0  0  0  0  0
  184.9580  172.7840  137.5940 C   0  0  0  0  0  3  0  0  0  0  0  0
  186.8060  174.2440  137.0300 C   0  0  0  0  0  3  0  0  0  0  0  0
  186.3320  172.9930  137.4320 C   0  0  0  0  0  3  0  0  0  0  0  0
  185.9080  175.2880  136.7880 C   0  0  0  0  0  3  0  0  0  0  0  0
  184.0600  173.8270  137.3510 C   0  0  0  0  0  3  0  0  0  0  0  0
  184.0520  177.1190  135.7930 O   0  0  0  0  0  0  0  0  0  0  0  0
  183.1520  177.0980  134.7270 C   0  0  0  0  0  1  0  0  0  0  0  0
  189.2800  178.6250  140.3530 N   0  0  0  0  0  2  0  0  0  0  0  0
  189.9780  176.0090  137.7610 C   0  0  0  0  0  3  0  0  0  0  0  0
  189.5760  176.6790  136.5970 C   0  0  0  0  0  0  0  0  0  0  0  0
  188.9790  178.6150  137.9300 C   0  0  0  0  0  3  0  0  0  0  0  0
  189.8790  176.6420  139.0040 C   0  0  0  0  0  3  0  0  0  0  0  0
  189.3680  177.9450  139.0950 C   0  0  0  0  0  0  0  0  0  0  0  0
  189.0790  177.9840  136.6870 C   0  0  0  0  0  3  0  0  0  0  0  0
  189.6640  176.0660  135.3480 O   0  0  0  0  0  0  0  0  0  0  0  0
  189.9850  174.7710  135.2310 O   0  0  0  0  0  1  0  0  0  0  0  0
  1  6  1  1  0  0  0
  2 12  1  0  0  0  0
  3 16  1  6  0  0  0
  3 10  1  0  0  0  0
  4  8  2  0  0  0  0
  5  1  1  0  0  0  0
  7  4  1  0  0  0  0
  7  9  1  1  0  0  0
  8  1  1  0  0  0  0
  9  5  1  0  0  0  0
 10 11  1  0  0  0  0
 11  2  1  6  0  0  0
 11  7  1  0  0  0  0
 12 15  1  0  0  0  0
 13  2  2  0  0  0  0
 14 13  1  0  0  0  0
 14  3  1  0  0  0  0
 15  4  1  0  0  0  0
 16 17  1  1  0  0  0
 18 16  1  0  0  0  0
 19 18  1  0  0  0  0
 20 19  2  0  0  0  0
 21 19  1  0  0  0  0
 22 21  1  6  0  0  0
 22 23  1  0  0  0  0
 23 25  1  0  0  0  0
 25 24  1  0  0  0  0
 26 33  1  6  0  0  0
 26 27  1  0  0  0  0
 26 22  1  0  0  0  0
 27 32  1  0  0  0  0
 29 30  2  0  0  0  0
 30 28  1  0  0  0  0
 31 27  2  0  0  0  0
 31 29  1  0  0  0  0
 32 28  2  0  0  0  0
 34 33  1  0  0  0  0
 35 13  1  0  0  0  0
 36 39  1  0  0  0  0
 37 41  1  0  0  0  0
 37 36  2  0  0  0  0
 38 40  1  0  0  0  0
 39 40  2  0  0  0  0
 40 35  1  0  0  0  0
 41 38  2  0  0  0  0
 42 37  1  0  0  0  0
 43 42  1  0  0  0  0
M  END
>  <MODEL>
7

>  <REMARK>
 VINA RESULT:      -8.0      3.611      8.899
  Name = 
  13 active torsions:
  status: ('A' for Active; 'I' for Inactive)
    1  A    between atoms: N_1  and  C_34
    2  A    between atoms: N_1  and  C_35
    3  A    between atoms: C_2  and  O_6
    4  A    between atoms: C_2  and  C_13
    5  A    between atoms: O_3  and  C_4
    6  A    between atoms: O_3  and  C_12
    7  A    between atoms: C_4  and  O_15
    8  A    between atoms: C_4  and  C_22
    9  A    between atoms: O_6  and  C_12
   10  A    between atoms: C_11  and  C_22
   11  A    between atoms: O_14  and  C_22
   12  A    between atoms: O_15  and  O_42
   13  A    between atoms: C_19  and  O_25
                            x       y       z     vdW  Elec       q    Type
                         _______ _______ _______ _____ _____    ______ ____

>  <TORSDO>
F 13

$$$$
=
 OpenBabel10262422233D

 43 47  0  0  1  0  0  0  0  0999 V2000
  183.4070  178.6230  143.4150 C   0  0  1  0  0  3  0  0  0  0  0  0
  184.5750  177.8200  138.5450 C   0  0  0  0  0  0  0  0  0  0  0  0
  187.2530  178.4500  138.3180 C   0  0  2  0  0  3  0  0  0  0  0  0
  183.2710  178.6110  140.9740 C   0  0  0  0  0  0  0  0  0  0  0  0
  184.6970  179.4520  143.3450 C   0  0  0  0  0  2  0  0  0  0  0  0
  182.6330  179.0440  144.4800 F   0  0  0  0  0  0  0  0  0  0  0  0
  184.7720  178.4180  140.9780 C   0  0  2  0  0  3  0  0  0  0  0  0
  182.6270  178.7340  142.1380 C   0  0  0  0  0  3  0  0  0  0  0  0
  185.4300  179.3680  141.9890 C   0  0  0  0  0  2  0  0  0  0  0  0
  186.7320  178.2040  139.6010 O   0  0  0  0  0  0  0  0  0  0  0  0
  185.3780  178.6010  139.5800 C   0  0  1  0  0  3  0  0  0  0  0  0
  183.0670  177.8110  138.6270 C   0  0  0  0  0  2  0  0  0  0  0  0
  185.2120  177.2740  137.4880 C   0  0  0  0  0  0  0  0  0  0  0  0
  186.7000  177.4170  137.3380 C   0  0  0  0  0  2  0  0  0  0  0  0
  182.5250  178.7720  139.6850 C   0  0  0  0  0  2  0  0  0  0  0  0
  188.7760  178.3830  138.3270 C   0  0  2  0  0  3  0  0  0  0  0  0
  189.2690  178.2060  137.0300 O   0  0  0  0  0  1  0  0  0  0  0  0
  189.2160  177.3260  139.1720 O   0  0  0  0  0  0  0  0  0  0  0  0
  189.9360  177.5620  140.3490 C   0  0  0  0  0  0  0  0  0  0  0  0
  191.1900  177.6860  140.3150 O   0  0  0  0  0  0  0  0  0  0  0  0
  189.2780  177.6740  141.5720 O   0  0  0  0  0  0  0  0  0  0  0  0
  189.5310  176.7900  142.6580 C   0  0  1  0  0  3  0  0  0  0  0  0
  190.5270  175.8720  142.3030 O   0  0  0  0  0  0  0  0  0  0  0  0
  191.7230  175.1800  143.9520 C   0  0  0  0  0  1  0  0  0  0  0  0
  190.5240  174.9750  143.2700 O   0  0  0  0  0  0  0  0  0  0  0  0
  189.9650  177.5790  143.8950 C   0  0  2  0  0  3  0  0  0  0  0  0
  188.8920  177.5860  144.9390 C   0  0  0  0  0  0  0  0  0  0  0  0
  188.2670  177.6390  147.2820 C   0  0  0  0  0  3  0  0  0  0  0  0
  186.5510  177.4950  145.5800 C   0  0  0  0  0  3  0  0  0  0  0  0
  186.9170  177.5630  146.9260 C   0  0  0  0  0  3  0  0  0  0  0  0
  187.5360  177.5040  144.5870 C   0  0  0  0  0  3  0  0  0  0  0  0
  189.2520  177.6480  146.2890 C   0  0  0  0  0  3  0  0  0  0  0  0
  190.3410  178.8830  143.5530 O   0  0  0  0  0  0  0  0  0  0  0  0
  191.6690  178.9940  143.9650 C   0  0  0  0  0  1  0  0  0  0  0  0
  184.5090  176.5500  136.4670 N   0  0  0  0  0  2  0  0  0  0  0  0
  184.3910  173.1390  134.9220 C   0  0  0  0  0  3  0  0  0  0  0  0
  184.4730  172.3290  136.0640 C   0  0  0  0  0  0  0  0  0  0  0  0
  184.5840  174.3160  137.4500 C   0  0  0  0  0  3  0  0  0  0  0  0
  184.4080  174.5300  135.0460 C   0  0  0  0  0  3  0  0  0  0  0  0
  184.5160  175.1270  136.3110 C   0  0  0  0  0  0  0  0  0  0  0  0
  184.5660  172.9250  137.3270 C   0  0  0  0  0  3  0  0  0  0  0  0
  184.4600  170.9390  135.9630 O   0  0  0  0  0  0  0  0  0  0  0  0
  183.4310  170.2190  136.4300 O   0  0  0  0  0  1  0  0  0  0  0  0
  1  6  1  1  0  0  0
  2 12  1  0  0  0  0
  3 16  1  1  0  0  0
  3 10  1  0  0  0  0
  4  7  1  0  0  0  0
  4  8  2  0  0  0  0
  5  1  1  0  0  0  0
  7  9  1  1  0  0  0
  8  1  1  0  0  0  0
  9  5  1  0  0  0  0
 11  2  1  6  0  0  0
 11 10  1  0  0  0  0
 11  7  1  0  0  0  0
 12 15  1  0  0  0  0
 13  2  2  0  0  0  0
 14 13  1  0  0  0  0
 14  3  1  0  0  0  0
 15  4  1  0  0  0  0
 16 17  1  6  0  0  0
 16 18  1  0  0  0  0
 18 19  1  0  0  0  0
 19 21  1  0  0  0  0
 20 19  2  0  0  0  0
 22 21  1  6  0  0  0
 22 26  1  0  0  0  0
 23 22  1  0  0  0  0
 23 25  1  0  0  0  0
 25 24  1  0  0  0  0
 26 33  1  6  0  0  0
 26 27  1  0  0  0  0
 27 32  1  0  0  0  0
 29 30  2  0  0  0  0
 30 28  1  0  0  0  0
 31 27  2  0  0  0  0
 31 29  1  0  0  0  0
 32 28  2  0  0  0  0
 33 34  1  0  0  0  0
 35 13  1  0  0  0  0
 36 39  2  0  0  0  0
 36 37  1  0  0  0  0
 37 41  2  0  0  0  0
 39 40  1  0  0  0  0
 40 35  1  0  0  0  0
 40 38  2  0  0  0  0
 41 38  1  0  0  0  0
 42 37  1  0  0  0  0
 42 43  1  0  0  0  0
M  END
>  <MODEL>
8

>  <REMARK>
 VINA RESULT:      -8.0      3.674      6.485
  Name = 
  13 active torsions:
  status: ('A' for Active; 'I' for Inactive)
    1  A    between atoms: N_1  and  C_34
    2  A    between atoms: N_1  and  C_35
    3  A    between atoms: C_2  and  O_6
    4  A    between atoms: C_2  and  C_13
    5  A    between atoms: O_3  and  C_4
    6  A    between atoms: O_3  and  C_12
    7  A    between atoms: C_4  and  O_15
    8  A    between atoms: C_4  and  C_22
    9  A    between atoms: O_6  and  C_12
   10  A    between atoms: C_11  and  C_22
   11  A    between atoms: O_14  and  C_22
   12  A    between atoms: O_15  and  O_42
   13  A    between atoms: C_19  and  O_25
                            x       y       z     vdW  Elec       q    Type
                         _______ _______ _______ _____ _____    ______ ____

>  <TORSDO>
F 13

$$$$
=
 OpenBabel10262422233D

 43 47  0  0  1  0  0  0  0  0999 V2000
  188.6470  178.2140  147.6990 C   0  0  1  0  0  3  0  0  0  0  0  0
  188.3370  177.9230  142.6440 C   0  0  0  0  0  0  0  0  0  0  0  0
  185.6530  178.1850  142.0560 C   0  0  2  0  0  3  0  0  0  0  0  0
  189.0120  177.4780  145.3960 C   0  0  0  0  0  0  0  0  0  0  0  0
  187.1540  177.8800  147.5750 C   0  0  0  0  0  2  0  0  0  0  0  0
  189.1020  177.8850  148.9610 F   0  0  0  0  0  0  0  0  0  0  0  0
  187.6990  178.1520  145.0640 C   0  0  2  0  0  3  0  0  0  0  0  0
  189.4490  177.4870  146.6580 C   0  0  0  0  0  3  0  0  0  0  0  0
  186.6400  177.8090  146.1220 C   0  0  0  0  0  2  0  0  0  0  0  0
  186.1020  178.6010  143.3220 O   0  0  0  0  0  0  0  0  0  0  0  0
  187.2050  177.7870  143.6570 C   0  0  1  0  0  3  0  0  0  0  0  0
  189.7250  177.4530  143.0120 C   0  0  0  0  0  2  0  0  0  0  0  0
  188.0550  178.3220  141.3860 C   0  0  0  0  0  0  0  0  0  0  0  0
  186.6420  178.6460  140.9880 C   0  0  0  0  0  2  0  0  0  0  0  0
  189.7640  176.7130  144.3490 C   0  0  0  0  0  2  0  0  0  0  0  0
  184.2720  178.7550  141.7540 C   0  0  2  0  0  3  0  0  0  0  0  0
  183.3320  178.2870  142.6780 O   0  0  0  0  0  1  0  0  0  0  0  0
  183.8780  178.4090  140.4310 O   0  0  0  0  0  0  0  0  0  0  0  0
  183.3620  179.3540  139.5360 C   0  0  0  0  0  0  0  0  0  0  0  0
  184.1320  180.1550  138.9400 O   0  0  0  0  0  0  0  0  0  0  0  0
  181.9930  179.4180  139.2830 O   0  0  0  0  0  0  0  0  0  0  0  0
  181.4650  179.9560  138.0760 C   0  0  1  0  0  3  0  0  0  0  0  0
  180.8840  178.9360  137.3130 O   0  0  0  0  0  0  0  0  0  0  0  0
  182.1150  177.5860  136.1770 C   0  0  0  0  0  1  0  0  0  0  0  0
  181.6040  178.8830  136.2090 O   0  0  0  0  0  0  0  0  0  0  0  0
  180.4240  181.0340  138.3850 C   0  0  2  0  0  3  0  0  0  0  0  0
  180.6880  182.2840  137.6060 C   0  0  0  0  0  0  0  0  0  0  0  0
  180.2330  183.6600  135.6590 C   0  0  0  0  0  3  0  0  0  0  0  0
  181.8850  184.3720  137.2800 C   0  0  0  0  0  3  0  0  0  0  0  0
  181.1810  184.5920  136.0940 C   0  0  0  0  0  3  0  0  0  0  0  0
  181.6430  183.2200  138.0340 C   0  0  0  0  0  3  0  0  0  0  0  0
  179.9900  182.5070  136.4130 C   0  0  0  0  0  3  0  0  0  0  0  0
  180.3700  181.3010  139.7590 O   0  0  0  0  0  0  0  0  0  0  0  0
  179.0560  181.0140  140.1290 C   0  0  0  0  0  1  0  0  0  0  0  0
  189.0720  178.4430  140.3800 N   0  0  0  0  0  2  0  0  0  0  0  0
  190.8280  175.8100  138.3740 C   0  0  0  0  0  3  0  0  0  0  0  0
  189.9000  175.6020  137.3440 C   0  0  0  0  0  0  0  0  0  0  0  0
  188.4410  177.2650  138.3370 C   0  0  0  0  0  3  0  0  0  0  0  0
  190.5600  176.7410  139.3820 C   0  0  0  0  0  3  0  0  0  0  0  0
  189.3590  177.4660  139.3740 C   0  0  0  0  0  0  0  0  0  0  0  0
  188.7090  176.3350  137.3290 C   0  0  0  0  0  3  0  0  0  0  0  0
  190.1460  174.6770  136.3300 O   0  0  0  0  0  0  0  0  0  0  0  0
  191.1130  173.7580  136.4500 O   0  0  0  0  0  1  0  0  0  0  0  0
  1  6  1  1  0  0  0
  2 12  1  0  0  0  0
  3 16  1  6  0  0  0
  3 10  1  0  0  0  0
  4  8  2  0  0  0  0
  5  1  1  0  0  0  0
  7  4  1  0  0  0  0
  7  9  1  1  0  0  0
  8  1  1  0  0  0  0
  9  5  1  0  0  0  0
 10 11  1  0  0  0  0
 11  2  1  6  0  0  0
 11  7  1  0  0  0  0
 12 15  1  0  0  0  0
 13  2  2  0  0  0  0
 14 13  1  0  0  0  0
 14  3  1  0  0  0  0
 15  4  1  0  0  0  0
 16 17  1  1  0  0  0
 18 16  1  0  0  0  0
 19 18  1  0  0  0  0
 20 19  2  0  0  0  0
 21 19  1  0  0  0  0
 22 23  1  1  0  0  0
 22 26  1  0  0  0  0
 22 21  1  0  0  0  0
 24 25  1  0  0  0  0
 25 23  1  0  0  0  0
 26 33  1  1  0  0  0
 27 31  1  0  0  0  0
 27 26  1  0  0  0  0
 28 30  2  0  0  0  0
 28 32  1  0  0  0  0
 29 31  2  0  0  0  0
 30 29  1  0  0  0  0
 32 27  2  0  0  0  0
 33 34  1  0  0  0  0
 35 13  1  0  0  0  0
 36 39  1  0  0  0  0
 37 36  2  0  0  0  0
 38 40  1  0  0  0  0
 40 39  2  0  0  0  0
 40 35  1  0  0  0  0
 41 37  1  0  0  0  0
 41 38  2  0  0  0  0
 42 43  1  0  0  0  0
 42 37  1  0  0  0  0
M  END
>  <MODEL>
9

>  <REMARK>
 VINA RESULT:      -7.9      4.294      9.373
  Name = 
  13 active torsions:
  status: ('A' for Active; 'I' for Inactive)
    1  A    between atoms: N_1  and  C_34
    2  A    between atoms: N_1  and  C_35
    3  A    between atoms: C_2  and  O_6
    4  A    between atoms: C_2  and  C_13
    5  A    between atoms: O_3  and  C_4
    6  A    between atoms: O_3  and  C_12
    7  A    between atoms: C_4  and  O_15
    8  A    between atoms: C_4  and  C_22
    9  A    between atoms: O_6  and  C_12
   10  A    between atoms: C_11  and  C_22
   11  A    between atoms: O_14  and  C_22
   12  A    between atoms: O_15  and  O_42
   13  A    between atoms: C_19  and  O_25
                            x       y       z     vdW  Elec       q    Type
                         _______ _______ _______ _____ _____    ______ ____

>  <TORSDO>
F 13

$$$$
