=
 OpenBabel10262420133D

 27 31  0  0  1  0  0  0  0  0999 V2000
  187.2190  177.7390  142.5120 C   0  0  2  0  0  3  0  0  0  0  0  0
  187.2440  177.5090  143.9080 O   0  0  0  0  0  0  0  0  0  0  0  0
  189.4250  177.9410  143.1920 C   0  0  2  0  0  0  0  0  0  0  0  0
  190.3420  177.0990  140.6470 N   0  0  0  0  0  0  0  0  0  0  0  0
  190.5500  178.8960  143.5180 C   0  0  0  0  0  2  0  0  0  0  0  0
  190.7130  176.2170  139.6250 N   0  0  0  0  0  1  0  0  0  0  0  0
  188.5540  178.2720  142.0160 C   0  0  1  0  0  3  0  0  0  0  0  0
  188.5870  177.3010  144.2860 C   0  0  1  0  0  3  0  0  0  0  0  0
  191.3530  177.5940  141.5700 C   0  0  0  0  0  2  0  0  0  0  0  0
  188.1630  177.3220  139.8460 O   0  0  0  0  0  0  0  0  0  0  0  0
  188.9840  177.5300  140.7800 C   0  0  0  0  0  0  0  0  0  0  0  0
  190.8710  177.4850  143.0150 C   0  0  2  0  0  3  0  0  0  0  0  0
  187.7930  177.9420  147.9460 C   0  0  0  0  0  3  0  0  0  0  0  0
  189.1780  178.0030  148.5300 C   0  0  0  0  0  2  0  0  0  0  0  0
  189.9580  177.0810  146.3870 C   0  0  0  0  0  3  0  0  0  0  0  0
  188.8420  177.8500  145.7090 C   0  0  2  0  0  3  0  0  0  0  0  0
  190.1170  177.1540  147.7160 C   0  0  0  0  0  3  0  0  0  0  0  0
  187.6130  177.8720  146.6150 C   0  0  0  0  0  0  0  0  0  0  0  0
  185.1860  178.3840  146.7280 C   0  0  0  0  0  1  0  0  0  0  0  0
  186.3230  177.8410  146.0700 O   0  0  0  0  0  0  0  0  0  0  0  0
  186.0410  178.6310  142.0990 C   0  0  0  0  0  2  0  0  0  0  0  0
  181.8250  178.8690  142.0920 C   0  0  0  0  0  2  0  0  0  0  0  0
  184.6380  178.0540  142.3270 C   0  0  1  0  0  3  0  0  0  0  0  0
  183.8990  178.7450  143.4500 C   0  0  0  0  0  3  0  0  0  0  0  0
  182.6210  179.1350  143.3370 C   0  0  0  0  0  3  0  0  0  0  0  0
  182.7290  178.8880  140.8670 C   0  0  0  0  0  2  0  0  0  0  0  0
  183.8280  177.8410  141.0360 C   0  0  0  0  0  2  0  0  0  0  0  0
  1 21  1  1  0  0  0
  1  2  1  0  0  0  0
  3  5  1  1  0  0  0
  3  8  1  0  0  0  0
  4 11  1  0  0  0  0
  4  9  1  0  0  0  0
  6  4  1  0  0  0  0
  7 11  1  6  0  0  0
  7  1  1  0  0  0  0
  7  3  1  0  0  0  0
  8  2  1  6  0  0  0
  8 16  1  0  0  0  0
 10 11  2  0  0  0  0
 12  9  1  6  0  0  0
 12  3  1  0  0  0  0
 12  5  1  0  0  0  0
 13 14  1  0  0  0  0
 15 17  2  0  0  0  0
 16 15  1  1  0  0  0
 16 18  1  0  0  0  0
 17 14  1  0  0  0  0
 18 13  2  0  0  0  0
 20 18  1  0  0  0  0
 20 19  1  0  0  0  0
 22 25  1  0  0  0  0
 23 21  1  6  0  0  0
 23 24  1  0  0  0  0
 25 24  2  0  0  0  0
 26 27  1  0  0  0  0
 26 22  1  0  0  0  0
 27 23  1  0  0  0  0
M  END
>  <MODEL>
1

>  <REMARK>
 VINA RESULT:      -9.8      0.000      0.000
  Name = 
  4 active torsions:
  status: ('A' for Active; 'I' for Inactive)
    1  A    between atoms: C_1  and  C_15
    2  A    between atoms: C_9  and  C_15
    3  A    between atoms: C_14  and  C_19
    4  A    between atoms: C_17  and  O_21
                            x       y       z     vdW  Elec       q    Type
                         _______ _______ _______ _____ _____    ______ ____

>  <TORSDO>
F 4

$$$$
=
 OpenBabel10262420133D

 27 31  0  0  1  0  0  0  0  0999 V2000
  188.2560  177.7750  144.1800 C   0  0  2  0  0  3  0  0  0  0  0  0
  188.6630  178.0270  142.8480 O   0  0  0  0  0  0  0  0  0  0  0  0
  190.2610  176.6560  143.8610 C   0  0  2  0  0  0  0  0  0  0  0  0
  190.9000  176.9070  146.6090 N   0  0  0  0  0  0  0  0  0  0  0  0
  190.9200  175.3190  143.6100 C   0  0  0  0  0  2  0  0  0  0  0  0
  191.3880  177.4950  147.7830 N   0  0  0  0  0  1  0  0  0  0  0  0
  189.1100  176.6920  144.8220 C   0  0  1  0  0  3  0  0  0  0  0  0
  190.0150  177.6420  142.7310 C   0  0  1  0  0  3  0  0  0  0  0  0
  191.7750  176.0580  145.8140 C   0  0  0  0  0  2  0  0  0  0  0  0
  188.7160  177.6270  146.9970 O   0  0  0  0  0  0  0  0  0  0  0  0
  189.5460  177.1200  146.1970 C   0  0  0  0  0  0  0  0  0  0  0  0
  191.6930  176.4260  144.3350 C   0  0  2  0  0  3  0  0  0  0  0  0
  189.7420  177.5210  138.9430 C   0  0  0  0  0  3  0  0  0  0  0  0
  191.0810  176.9370  138.5810 C   0  0  0  0  0  2  0  0  0  0  0  0
  191.7350  177.3840  140.9100 C   0  0  0  0  0  3  0  0  0  0  0  0
  190.3030  177.0960  141.3130 C   0  0  2  0  0  3  0  0  0  0  0  0
  192.1020  177.3080  139.6230 C   0  0  0  0  0  3  0  0  0  0  0  0
  189.3560  177.6030  140.2290 C   0  0  0  0  0  0  0  0  0  0  0  0
  187.0640  178.3340  139.6130 C   0  0  0  0  0  1  0  0  0  0  0  0
  188.0990  178.1230  140.5640 O   0  0  0  0  0  0  0  0  0  0  0  0
  186.7560  177.4710  144.2730 C   0  0  0  0  0  2  0  0  0  0  0  0
  182.9250  179.1890  143.8150 C   0  0  0  0  0  2  0  0  0  0  0  0
  185.8060  178.6190  143.9070 C   0  0  1  0  0  3  0  0  0  0  0  0
  184.9580  178.3100  142.6940 C   0  0  0  0  0  3  0  0  0  0  0  0
  183.6400  178.5510  142.6580 C   0  0  0  0  0  3  0  0  0  0  0  0
  183.5830  178.7950  145.1300 C   0  0  0  0  0  2  0  0  0  0  0  0
  185.0500  179.2170  145.1060 C   0  0  0  0  0  2  0  0  0  0  0  0
  1 21  1  6  0  0  0
  1  7  1  0  0  0  0
  2  1  1  0  0  0  0
  3  5  1  6  0  0  0
  3 12  1  0  0  0  0
  3  7  1  0  0  0  0
  4  6  1  0  0  0  0
  7 11  1  1  0  0  0
  8  2  1  6  0  0  0
  8  3  1  0  0  0  0
  9  4  1  0  0  0  0
 11  4  1  0  0  0  0
 11 10  2  0  0  0  0
 12  5  1  6  0  0  0
 12  9  1  0  0  0  0
 13 18  2  0  0  0  0
 14 13  1  0  0  0  0
 14 17  1  0  0  0  0
 16 15  1  6  0  0  0
 16  8  1  0  0  0  0
 17 15  2  0  0  0  0
 18 20  1  0  0  0  0
 18 16  1  0  0  0  0
 19 20  1  0  0  0  0
 22 26  1  0  0  0  0
 23 21  1  1  0  0  0
 23 27  1  0  0  0  0
 24 23  1  0  0  0  0
 25 24  2  0  0  0  0
 25 22  1  0  0  0  0
 27 26  1  0  0  0  0
M  END
>  <MODEL>
2

>  <REMARK>
 VINA RESULT:      -9.0      2.410      5.274
  Name = 
  4 active torsions:
  status: ('A' for Active; 'I' for Inactive)
    1  A    between atoms: C_1  and  C_15
    2  A    between atoms: C_9  and  C_15
    3  A    between atoms: C_14  and  C_19
    4  A    between atoms: C_17  and  O_21
                            x       y       z     vdW  Elec       q    Type
                         _______ _______ _______ _____ _____    ______ ____

>  <TORSDO>
F 4

$$$$
=
 OpenBabel10262420133D

 27 31  0  0  1  0  0  0  0  0999 V2000
  189.5070  177.0850  142.9380 C   0  0  2  0  0  3  0  0  0  0  0  0
  188.1130  177.2390  143.1210 O   0  0  0  0  0  0  0  0  0  0  0  0
  189.1680  177.5530  145.1820 C   0  0  2  0  0  0  0  0  0  0  0  0
  191.4940  176.0990  145.8910 N   0  0  0  0  0  0  0  0  0  0  0  0
  189.2380  178.6060  146.2640 C   0  0  0  0  0  2  0  0  0  0  0  0
  192.2860  174.9910  146.2180 N   0  0  0  0  0  1  0  0  0  0  0  0
  190.2790  177.5200  144.1740 C   0  0  1  0  0  3  0  0  0  0  0  0
  187.8540  177.1950  144.5080 C   0  0  1  0  0  3  0  0  0  0  0  0
  190.8580  176.8640  146.9530 C   0  0  0  0  0  2  0  0  0  0  0  0
  192.0630  176.0080  143.6310 O   0  0  0  0  0  0  0  0  0  0  0  0
  191.3200  176.4920  144.5270 C   0  0  0  0  0  0  0  0  0  0  0  0
  189.3890  177.1270  146.6310 C   0  0  2  0  0  3  0  0  0  0  0  0
  184.3770  178.6770  144.1140 C   0  0  0  0  0  3  0  0  0  0  0  0
  184.0540  179.0240  145.5410 C   0  0  0  0  0  2  0  0  0  0  0  0
  186.0080  177.6630  146.1560 C   0  0  0  0  0  3  0  0  0  0  0  0
  186.6650  178.1150  144.8670 C   0  0  2  0  0  3  0  0  0  0  0  0
  184.7790  178.0920  146.4740 C   0  0  0  0  0  3  0  0  0  0  0  0
  185.6070  178.2480  143.7750 C   0  0  0  0  0  0  0  0  0  0  0  0
  185.5900  178.8080  141.3560 C   0  0  0  0  0  1  0  0  0  0  0  0
  185.9150  177.9490  142.4410 O   0  0  0  0  0  0  0  0  0  0  0  0
  189.9980  177.7840  141.6640 C   0  0  0  0  0  2  0  0  0  0  0  0
  189.8210  177.6000  137.4480 C   0  0  0  0  0  2  0  0  0  0  0  0
  189.4130  177.2750  140.3400 C   0  0  1  0  0  3  0  0  0  0  0  0
  188.7330  178.3660  139.5440 C   0  0  0  0  0  3  0  0  0  0  0  0
  188.9340  178.5280  138.2290 C   0  0  0  0  0  3  0  0  0  0  0  0
  190.9530  177.0830  138.3250 C   0  0  0  0  0  2  0  0  0  0  0  0
  190.3650  176.3690  139.5390 C   0  0  0  0  0  2  0  0  0  0  0  0
  1 21  1  6  0  0  0
  1  2  1  0  0  0  0
  1  7  1  0  0  0  0
  3  5  1  1  0  0  0
  3 12  1  0  0  0  0
  4  6  1  0  0  0  0
  4  9  1  0  0  0  0
  7 11  1  1  0  0  0
  7  3  1  0  0  0  0
  8  2  1  6  0  0  0
  8 16  1  0  0  0  0
  8  3  1  0  0  0  0
 10 11  2  0  0  0  0
 11  4  1  0  0  0  0
 12  5  1  1  0  0  0
 12  9  1  0  0  0  0
 13 14  1  0  0  0  0
 14 17  1  0  0  0  0
 15 17  2  0  0  0  0
 16 15  1  1  0  0  0
 18 13  2  0  0  0  0
 18 16  1  0  0  0  0
 19 20  1  0  0  0  0
 20 18  1  0  0  0  0
 22 25  1  0  0  0  0
 22 26  1  0  0  0  0
 23 21  1  1  0  0  0
 24 23  1  0  0  0  0
 25 24  2  0  0  0  0
 26 27  1  0  0  0  0
 27 23  1  0  0  0  0
M  END
>  <MODEL>
3

>  <REMARK>
 VINA RESULT:      -8.9      2.450      5.217
  Name = 
  4 active torsions:
  status: ('A' for Active; 'I' for Inactive)
    1  A    between atoms: C_1  and  C_15
    2  A    between atoms: C_9  and  C_15
    3  A    between atoms: C_14  and  C_19
    4  A    between atoms: C_17  and  O_21
                            x       y       z     vdW  Elec       q    Type
                         _______ _______ _______ _____ _____    ______ ____

>  <TORSDO>
F 4

$$$$
=
 OpenBabel10262420133D

 27 31  0  0  1  0  0  0  0  0999 V2000
  185.2230  178.7700  142.1530 C   0  0  2  0  0  3  0  0  0  0  0  0
  186.3330  178.7280  141.2760 O   0  0  0  0  0  0  0  0  0  0  0  0
  186.9460  177.7190  143.2920 C   0  0  2  0  0  0  0  0  0  0  0  0
  185.9360  178.6370  145.7750 N   0  0  0  0  0  0  0  0  0  0  0  0
  187.5080  176.3990  143.7670 C   0  0  0  0  0  2  0  0  0  0  0  0
  185.7240  179.5080  146.8510 N   0  0  0  0  0  1  0  0  0  0  0  0
  185.4620  177.9140  143.3870 C   0  0  1  0  0  3  0  0  0  0  0  0
  187.4720  178.4010  142.0400 C   0  0  1  0  0  3  0  0  0  0  0  0
  187.0270  177.6750  145.8340 C   0  0  0  0  0  2  0  0  0  0  0  0
  183.9910  179.3070  144.6760 O   0  0  0  0  0  0  0  0  0  0  0  0
  185.0790  178.6730  144.6290 C   0  0  0  0  0  0  0  0  0  0  0  0
  187.8310  177.6840  144.5360 C   0  0  2  0  0  3  0  0  0  0  0  0
  189.5410  177.5090  138.9800 C   0  0  0  0  0  3  0  0  0  0  0  0
  190.6970  176.7890  139.6200 C   0  0  0  0  0  2  0  0  0  0  0  0
  189.8680  177.6740  141.7600 C   0  0  0  0  0  3  0  0  0  0  0  0
  188.4620  177.5560  141.2050 C   0  0  2  0  0  3  0  0  0  0  0  0
  190.9200  177.3120  141.0130 C   0  0  0  0  0  3  0  0  0  0  0  0
  188.4740  177.8770  139.7120 C   0  0  0  0  0  0  0  0  0  0  0  0
  186.8780  178.1690  137.8320 C   0  0  0  0  0  1  0  0  0  0  0  0
  187.3860  178.5240  139.1120 O   0  0  0  0  0  0  0  0  0  0  0  0
  183.9130  178.4140  141.4380 C   0  0  0  0  0  2  0  0  0  0  0  0
  182.1850  178.5420  137.5860 C   0  0  0  0  0  2  0  0  0  0  0  0
  183.9760  178.3330  139.9070 C   0  0  1  0  0  3  0  0  0  0  0  0
  183.2230  177.1430  139.3550 C   0  0  0  0  0  3  0  0  0  0  0  0
  182.3900  177.2420  138.3090 C   0  0  0  0  0  3  0  0  0  0  0  0
  182.3270  179.7140  138.5480 C   0  0  0  0  0  2  0  0  0  0  0  0
  183.7100  179.6700  139.1940 C   0  0  0  0  0  2  0  0  0  0  0  0
  1 21  1  6  0  0  0
  1  7  1  0  0  0  0
  2  1  1  0  0  0  0
  3  7  1  0  0  0  0
  3  5  1  6  0  0  0
  3 12  1  0  0  0  0
  4  9  1  0  0  0  0
  4  6  1  0  0  0  0
  7 11  1  1  0  0  0
  8  2  1  6  0  0  0
  8  3  1  0  0  0  0
 11 10  2  0  0  0  0
 11  4  1  0  0  0  0
 12  5  1  6  0  0  0
 12  9  1  0  0  0  0
 13 14  1  0  0  0  0
 13 18  2  0  0  0  0
 14 17  1  0  0  0  0
 16 15  1  1  0  0  0
 16  8  1  0  0  0  0
 17 15  2  0  0  0  0
 18 16  1  0  0  0  0
 19 20  1  0  0  0  0
 20 18  1  0  0  0  0
 22 25  1  0  0  0  0
 22 26  1  0  0  0  0
 23 21  1  1  0  0  0
 24 23  1  0  0  0  0
 25 24  2  0  0  0  0
 26 27  1  0  0  0  0
 27 23  1  0  0  0  0
M  END
>  <MODEL>
4

>  <REMARK>
 VINA RESULT:      -8.7      2.815      5.593
  Name = 
  4 active torsions:
  status: ('A' for Active; 'I' for Inactive)
    1  A    between atoms: C_1  and  C_15
    2  A    between atoms: C_9  and  C_15
    3  A    between atoms: C_14  and  C_19
    4  A    between atoms: C_17  and  O_21
                            x       y       z     vdW  Elec       q    Type
                         _______ _______ _______ _____ _____    ______ ____

>  <TORSDO>
F 4

$$$$
=
 OpenBabel10262420133D

 27 31  0  0  1  0  0  0  0  0999 V2000
  186.6020  178.0800  143.1150 C   0  0  2  0  0  3  0  0  0  0  0  0
  187.2270  178.2770  141.8610 O   0  0  0  0  0  0  0  0  0  0  0  0
  188.7000  177.1030  143.2430 C   0  0  2  0  0  0  0  0  0  0  0  0
  188.8100  177.5800  146.0330 N   0  0  0  0  0  0  0  0  0  0  0  0
  189.4800  175.8080  143.2180 C   0  0  0  0  0  2  0  0  0  0  0  0
  189.0370  178.2800  147.2260 N   0  0  0  0  0  1  0  0  0  0  0  0
  187.3930  177.1110  143.9800 C   0  0  1  0  0  3  0  0  0  0  0  0
  188.6000  177.9920  142.0150 C   0  0  1  0  0  3  0  0  0  0  0  0
  189.8690  176.7530  145.4740 C   0  0  0  0  0  2  0  0  0  0  0  0
  186.5500  178.1520  145.9720 O   0  0  0  0  0  0  0  0  0  0  0  0
  187.5430  177.6600  145.3730 C   0  0  0  0  0  0  0  0  0  0  0  0
  190.0340  177.0160  143.9800 C   0  0  2  0  0  3  0  0  0  0  0  0
  189.2850  177.7960  138.2820 C   0  0  0  0  0  3  0  0  0  0  0  0
  190.5990  177.0640  138.2730 C   0  0  0  0  0  2  0  0  0  0  0  0
  190.6870  177.5030  140.6920 C   0  0  0  0  0  3  0  0  0  0  0  0
  189.1770  177.3800  140.7170 C   0  0  2  0  0  3  0  0  0  0  0  0
  191.3570  177.3530  139.5410 C   0  0  0  0  0  3  0  0  0  0  0  0
  188.5960  177.9530  139.4270 C   0  0  0  0  0  0  0  0  0  0  0  0
  186.2830  178.2530  138.5750 C   0  0  0  0  0  1  0  0  0  0  0  0
  187.3600  178.6120  139.4310 O   0  0  0  0  0  0  0  0  0  0  0  0
  185.1330  177.6670  142.9640 C   0  0  0  0  0  2  0  0  0  0  0  0
  181.2160  179.2390  142.8110 C   0  0  0  0  0  2  0  0  0  0  0  0
  184.1220  178.8060  142.7780 C   0  0  1  0  0  3  0  0  0  0  0  0
  183.2630  178.6280  141.5470 C   0  0  0  0  0  3  0  0  0  0  0  0
  181.9340  178.8050  141.5650 C   0  0  0  0  0  3  0  0  0  0  0  0
  181.9210  178.6990  144.0480 C   0  0  0  0  0  2  0  0  0  0  0  0
  183.3660  179.1930  144.0600 C   0  0  0  0  0  2  0  0  0  0  0  0
  1 21  1  6  0  0  0
  1  7  1  0  0  0  0
  2  1  1  0  0  0  0
  3  5  1  6  0  0  0
  3 12  1  0  0  0  0
  3  7  1  0  0  0  0
  4  6  1  0  0  0  0
  7 11  1  1  0  0  0
  8  2  1  6  0  0  0
  8  3  1  0  0  0  0
  9  4  1  0  0  0  0
 11 10  2  0  0  0  0
 11  4  1  0  0  0  0
 12  5  1  6  0  0  0
 12  9  1  0  0  0  0
 13 18  2  0  0  0  0
 14 13  1  0  0  0  0
 14 17  1  0  0  0  0
 16 15  1  6  0  0  0
 16  8  1  0  0  0  0
 17 15  2  0  0  0  0
 18 20  1  0  0  0  0
 18 16  1  0  0  0  0
 19 20  1  0  0  0  0
 22 26  1  0  0  0  0
 23 21  1  1  0  0  0
 23 27  1  0  0  0  0
 24 25  2  0  0  0  0
 24 23  1  0  0  0  0
 25 22  1  0  0  0  0
 26 27  1  0  0  0  0
M  END
>  <MODEL>
5

>  <REMARK>
 VINA RESULT:      -8.4      2.264      5.239
  Name = 
  4 active torsions:
  status: ('A' for Active; 'I' for Inactive)
    1  A    between atoms: C_1  and  C_15
    2  A    between atoms: C_9  and  C_15
    3  A    between atoms: C_14  and  C_19
    4  A    between atoms: C_17  and  O_21
                            x       y       z     vdW  Elec       q    Type
                         _______ _______ _______ _____ _____    ______ ____

>  <TORSDO>
F 4

$$$$
=
 OpenBabel10262420133D

 27 31  0  0  1  0  0  0  0  0999 V2000
  187.6260  178.3730  142.1600 C   0  0  2  0  0  3  0  0  0  0  0  0
  187.3890  178.6320  140.7900 O   0  0  0  0  0  0  0  0  0  0  0  0
  189.4470  177.5440  140.9890 C   0  0  2  0  0  0  0  0  0  0  0  0
  191.1460  177.9860  143.2120 N   0  0  0  0  0  0  0  0  0  0  0  0
  190.1260  176.3080  140.4450 C   0  0  0  0  0  2  0  0  0  0  0  0
  191.9930  178.6810  144.0840 N   0  0  0  0  0  1  0  0  0  0  0  0
  188.8200  177.4490  142.3480 C   0  0  1  0  0  3  0  0  0  0  0  0
  188.6040  178.4420  140.0990 C   0  0  1  0  0  3  0  0  0  0  0  0
  191.7160  177.2440  142.0970 C   0  0  0  0  0  2  0  0  0  0  0  0
  189.2530  178.3970  144.5110 O   0  0  0  0  0  0  0  0  0  0  0  0
  189.7300  177.9850  143.4190 C   0  0  0  0  0  0  0  0  0  0  0  0
  190.9620  177.5410  140.8030 C   0  0  2  0  0  3  0  0  0  0  0  0
  186.8000  178.1770  136.7650 C   0  0  0  0  0  3  0  0  0  0  0  0
  187.9270  177.7440  135.8670 C   0  0  0  0  0  2  0  0  0  0  0  0
  189.4310  178.3330  137.7220 C   0  0  0  0  0  3  0  0  0  0  0  0
  188.3410  177.8920  138.6780 C   0  0  2  0  0  3  0  0  0  0  0  0
  189.2360  178.2630  136.3980 C   0  0  0  0  0  3  0  0  0  0  0  0
  186.9750  178.2510  138.0970 C   0  0  0  0  0  0  0  0  0  0  0  0
  184.5530  178.3880  138.6240 C   0  0  0  0  0  1  0  0  0  0  0  0
  185.9190  178.6290  138.9350 O   0  0  0  0  0  0  0  0  0  0  0  0
  186.3690  177.8590  142.8730 C   0  0  0  0  0  2  0  0  0  0  0  0
  182.5920  179.0460  144.3440 C   0  0  0  0  0  2  0  0  0  0  0  0
  185.2590  178.8890  143.1180 C   0  0  1  0  0  3  0  0  0  0  0  0
  183.9940  178.5770  142.3500 C   0  0  0  0  0  3  0  0  0  0  0  0
  182.7790  178.6290  142.9130 C   0  0  0  0  0  3  0  0  0  0  0  0
  183.7930  178.6280  145.1810 C   0  0  0  0  0  2  0  0  0  0  0  0
  185.0570  179.2560  144.5980 C   0  0  0  0  0  2  0  0  0  0  0  0
  1  7  1  0  0  0  0
  1 21  1  6  0  0  0
  2  1  1  0  0  0  0
  3  5  1  6  0  0  0
  3  7  1  0  0  0  0
  4 11  1  0  0  0  0
  4  6  1  0  0  0  0
  7 11  1  1  0  0  0
  8  2  1  1  0  0  0
  8  3  1  0  0  0  0
  9  4  1  0  0  0  0
 11 10  2  0  0  0  0
 12  5  1  6  0  0  0
 12  3  1  0  0  0  0
 12  9  1  0  0  0  0
 13 18  2  0  0  0  0
 14 17  1  0  0  0  0
 14 13  1  0  0  0  0
 16 15  1  6  0  0  0
 16  8  1  0  0  0  0
 17 15  2  0  0  0  0
 18 16  1  0  0  0  0
 18 20  1  0  0  0  0
 19 20  1  0  0  0  0
 22 26  1  0  0  0  0
 23 21  1  1  0  0  0
 23 27  1  0  0  0  0
 24 25  2  0  0  0  0
 24 23  1  0  0  0  0
 25 22  1  0  0  0  0
 27 26  1  0  0  0  0
M  END
>  <MODEL>
6

>  <REMARK>
 VINA RESULT:      -8.3      2.452      5.798
  Name = 
  4 active torsions:
  status: ('A' for Active; 'I' for Inactive)
    1  A    between atoms: C_1  and  C_15
    2  A    between atoms: C_9  and  C_15
    3  A    between atoms: C_14  and  C_19
    4  A    between atoms: C_17  and  O_21
                            x       y       z     vdW  Elec       q    Type
                         _______ _______ _______ _____ _____    ______ ____

>  <TORSDO>
F 4

$$$$
=
 OpenBabel10262420133D

 27 31  0  0  1  0  0  0  0  0999 V2000
  187.7940  178.2360  142.3750 C   0  0  2  0  0  3  0  0  0  0  0  0
  188.9270  178.0600  143.2040 O   0  0  0  0  0  0  0  0  0  0  0  0
  187.0070  177.7960  144.5100 C   0  0  2  0  0  0  0  0  0  0  0  0
  184.6600  179.3020  144.0120 N   0  0  0  0  0  0  0  0  0  0  0  0
  186.4040  176.7610  145.4310 C   0  0  0  0  0  2  0  0  0  0  0  0
  183.8330  180.4290  143.9140 N   0  0  0  0  0  1  0  0  0  0  0  0
  186.5160  177.8340  143.0930 C   0  0  1  0  0  3  0  0  0  0  0  0
  188.4910  178.1200  144.5450 C   0  0  1  0  0  3  0  0  0  0  0  0
  184.6920  178.5420  145.2520 C   0  0  0  0  0  2  0  0  0  0  0  0
  185.2440  179.3690  141.7550 O   0  0  0  0  0  0  0  0  0  0  0  0
  185.4560  178.8850  142.8990 C   0  0  0  0  0  0  0  0  0  0  0  0
  186.1300  178.2480  145.6740 C   0  0  2  0  0  3  0  0  0  0  0  0
  191.6860  176.4790  145.7850 C   0  0  0  0  0  3  0  0  0  0  0  0
  191.3350  176.2290  147.2270 C   0  0  0  0  0  2  0  0  0  0  0  0
  189.4050  177.7080  146.8560 C   0  0  0  0  0  3  0  0  0  0  0  0
  189.3420  177.1850  145.4350 C   0  0  2  0  0  3  0  0  0  0  0  0
  190.3430  177.2570  147.7000 C   0  0  0  0  0  3  0  0  0  0  0  0
  190.7580  176.9290  144.9220 C   0  0  0  0  0  0  0  0  0  0  0  0
  192.0230  178.1060  143.1390 C   0  0  0  0  0  1  0  0  0  0  0  0
  191.0780  177.1370  143.5740 O   0  0  0  0  0  0  0  0  0  0  0  0
  187.9570  177.5260  141.0240 C   0  0  0  0  0  2  0  0  0  0  0  0
  190.5680  177.0740  137.7360 C   0  0  0  0  0  2  0  0  0  0  0  0
  189.2290  177.8550  140.2330 C   0  0  1  0  0  3  0  0  0  0  0  0
  190.1880  176.6880  140.1580 C   0  0  0  0  0  3  0  0  0  0  0  0
  190.7830  176.3180  139.0160 C   0  0  0  0  0  3  0  0  0  0  0  0
  189.1650  177.6660  137.6970 C   0  0  0  0  0  2  0  0  0  0  0  0
  188.9710  178.5830  138.9020 C   0  0  0  0  0  2  0  0  0  0  0  0
  1 21  1  6  0  0  0
  1  7  1  0  0  0  0
  1  2  1  0  0  0  0
  3  8  1  0  0  0  0
  3  5  1  1  0  0  0
  3 12  1  0  0  0  0
  4  9  1  0  0  0  0
  5 12  1  0  0  0  0
  6  4  1  0  0  0  0
  7 11  1  1  0  0  0
  7  3  1  0  0  0  0
  8  2  1  6  0  0  0
  8 16  1  0  0  0  0
 10 11  2  0  0  0  0
 11  4  1  0  0  0  0
 12  9  1  6  0  0  0
 13 14  1  0  0  0  0
 14 17  1  0  0  0  0
 15 17  2  0  0  0  0
 16 15  1  1  0  0  0
 18 16  1  0  0  0  0
 18 13  2  0  0  0  0
 19 20  1  0  0  0  0
 20 18  1  0  0  0  0
 22 25  1  0  0  0  0
 23 21  1  6  0  0  0
 24 23  1  0  0  0  0
 25 24  2  0  0  0  0
 26 22  1  0  0  0  0
 26 27  1  0  0  0  0
 27 23  1  0  0  0  0
M  END
>  <MODEL>
7

>  <REMARK>
 VINA RESULT:      -8.1      2.841      5.436
  Name = 
  4 active torsions:
  status: ('A' for Active; 'I' for Inactive)
    1  A    between atoms: C_1  and  C_15
    2  A    between atoms: C_9  and  C_15
    3  A    between atoms: C_14  and  C_19
    4  A    between atoms: C_17  and  O_21
                            x       y       z     vdW  Elec       q    Type
                         _______ _______ _______ _____ _____    ______ ____

>  <TORSDO>
F 4

$$$$
=
 OpenBabel10262420133D

 27 31  0  0  1  0  0  0  0  0999 V2000
  187.4830  177.4630  142.6630 C   0  0  2  0  0  3  0  0  0  0  0  0
  187.2520  176.8910  143.9360 O   0  0  0  0  0  0  0  0  0  0  0  0
  189.4140  177.7760  143.9050 C   0  0  2  0  0  0  0  0  0  0  0  0
  190.9960  177.7400  141.5550 N   0  0  0  0  0  0  0  0  0  0  0  0
  190.2420  178.7580  144.7030 C   0  0  0  0  0  2  0  0  0  0  0  0
  191.7370  177.2040  140.4940 N   0  0  0  0  0  1  0  0  0  0  0  0
  188.7680  178.2770  142.6480 C   0  0  1  0  0  3  0  0  0  0  0  0
  188.4980  176.7740  144.5870 C   0  0  1  0  0  3  0  0  0  0  0  0
  191.6740  178.1130  142.7880 C   0  0  0  0  0  2  0  0  0  0  0  0
  189.0360  177.8680  140.2970 O   0  0  0  0  0  0  0  0  0  0  0  0
  189.5840  177.9380  141.4300 C   0  0  0  0  0  0  0  0  0  0  0  0
  190.9240  177.5770  144.0050 C   0  0  2  0  0  3  0  0  0  0  0  0
  189.6690  177.4470  148.1390 C   0  0  0  0  0  3  0  0  0  0  0  0
  188.4450  178.0980  148.7220 C   0  0  0  0  0  2  0  0  0  0  0  0
  187.6230  178.2740  146.4110 C   0  0  0  0  0  3  0  0  0  0  0  0
  188.3350  176.9710  146.1120 C   0  0  2  0  0  3  0  0  0  0  0  0
  187.6740  178.8050  147.6400 C   0  0  0  0  0  3  0  0  0  0  0  0
  189.6370  176.9060  146.9070 C   0  0  0  0  0  0  0  0  0  0  0  0
  191.9280  175.9780  147.1420 C   0  0  0  0  0  1  0  0  0  0  0  0
  190.7690  176.2770  146.3740 O   0  0  0  0  0  0  0  0  0  0  0  0
  186.2740  178.2670  142.1680 C   0  0  0  0  0  2  0  0  0  0  0  0
  182.2770  179.0770  143.2670 C   0  0  0  0  0  2  0  0  0  0  0  0
  184.9120  177.8790  142.7580 C   0  0  1  0  0  3  0  0  0  0  0  0
  184.5950  178.6260  144.0340 C   0  0  0  0  0  3  0  0  0  0  0  0
  183.4000  179.1910  144.2580 C   0  0  0  0  0  3  0  0  0  0  0  0
  182.8250  179.0130  141.8480 C   0  0  0  0  0  2  0  0  0  0  0  0
  183.7730  177.8220  141.7260 C   0  0  0  0  0  2  0  0  0  0  0  0
  1 21  1  1  0  0  0
  1  2  1  0  0  0  0
  3 12  1  0  0  0  0
  3  8  1  0  0  0  0
  3  5  1  1  0  0  0
  4  9  1  0  0  0  0
  6  4  1  0  0  0  0
  7 11  1  6  0  0  0
  7  1  1  0  0  0  0
  7  3  1  0  0  0  0
  8  2  1  6  0  0  0
  8 16  1  0  0  0  0
 10 11  2  0  0  0  0
 11  4  1  0  0  0  0
 12  9  1  6  0  0  0
 12  5  1  0  0  0  0
 13 14  1  0  0  0  0
 15 17  2  0  0  0  0
 16 15  1  6  0  0  0
 16 18  1  0  0  0  0
 17 14  1  0  0  0  0
 18 13  2  0  0  0  0
 20 18  1  0  0  0  0
 20 19  1  0  0  0  0
 22 25  1  0  0  0  0
 23 21  1  6  0  0  0
 23 24  1  0  0  0  0
 24 25  2  0  0  0  0
 26 22  1  0  0  0  0
 27 26  1  0  0  0  0
 27 23  1  0  0  0  0
M  END
>  <MODEL>
8

>  <REMARK>
 VINA RESULT:      -8.0      1.278      2.098
  Name = 
  4 active torsions:
  status: ('A' for Active; 'I' for Inactive)
    1  A    between atoms: C_1  and  C_15
    2  A    between atoms: C_9  and  C_15
    3  A    between atoms: C_14  and  C_19
    4  A    between atoms: C_17  and  O_21
                            x       y       z     vdW  Elec       q    Type
                         _______ _______ _______ _____ _____    ______ ____

>  <TORSDO>
F 4

$$$$
=
 OpenBabel10262420133D

 27 31  0  0  1  0  0  0  0  0999 V2000
  190.7790  177.4990  139.9610 C   0  0  2  0  0  3  0  0  0  0  0  0
  189.4950  177.9480  139.5720 O   0  0  0  0  0  0  0  0  0  0  0  0
  190.2980  176.4970  137.9270 C   0  0  2  0  0  0  0  0  0  0  0  0
  193.0520  176.3790  137.2730 N   0  0  0  0  0  0  0  0  0  0  0  0
  189.8600  175.2290  137.2300 C   0  0  0  0  0  2  0  0  0  0  0  0
  194.2950  176.8120  136.7940 N   0  0  0  0  0  1  0  0  0  0  0  0
  191.2590  176.3630  139.0710 C   0  0  1  0  0  3  0  0  0  0  0  0
  189.3190  177.6240  138.2100 C   0  0  1  0  0  3  0  0  0  0  0  0
  192.1430  175.6770  136.3800 C   0  0  0  0  0  2  0  0  0  0  0  0
  193.5460  176.9720  139.4740 O   0  0  0  0  0  0  0  0  0  0  0  0
  192.6790  176.6070  138.6360 C   0  0  0  0  0  0  0  0  0  0  0  0
  190.7300  176.2460  136.4840 C   0  0  2  0  0  3  0  0  0  0  0  0
  185.5580  178.1470  138.3480 C   0  0  0  0  0  3  0  0  0  0  0  0
  185.1360  177.5070  137.0530 C   0  0  0  0  0  2  0  0  0  0  0  0
  187.5210  177.5060  136.4510 C   0  0  0  0  0  3  0  0  0  0  0  0
  187.8380  177.2920  137.9180 C   0  0  2  0  0  3  0  0  0  0  0  0
  186.2480  177.6060  136.0440 C   0  0  0  0  0  3  0  0  0  0  0  0
  186.8310  178.0540  138.7750 C   0  0  0  0  0  0  0  0  0  0  0  0
  186.2940  178.9990  141.0070 C   0  0  0  0  0  1  0  0  0  0  0  0
  187.2180  178.6270  139.9930 O   0  0  0  0  0  0  0  0  0  0  0  0
  190.8350  177.1400  141.4510 C   0  0  0  0  0  2  0  0  0  0  0  0
  188.7480  177.6010  145.0940 C   0  0  0  0  0  2  0  0  0  0  0  0
  189.7750  177.7940  142.3470 C   0  0  1  0  0  3  0  0  0  0  0  0
  188.6670  176.8390  142.7330 C   0  0  0  0  0  3  0  0  0  0  0  0
  188.2120  176.7350  143.9890 C   0  0  0  0  0  3  0  0  0  0  0  0
  190.2150  177.9290  144.8490 C   0  0  0  0  0  2  0  0  0  0  0  0
  190.3560  178.6300  143.5000 C   0  0  0  0  0  2  0  0  0  0  0  0
  1 21  1  1  0  0  0
  2  1  1  0  0  0  0
  3  5  1  1  0  0  0
  3  8  1  0  0  0  0
  3  7  1  0  0  0  0
  4 11  1  0  0  0  0
  6  4  1  0  0  0  0
  7 11  1  6  0  0  0
  7  1  1  0  0  0  0
  8  2  1  1  0  0  0
  9  4  1  0  0  0  0
 11 10  2  0  0  0  0
 12  9  1  1  0  0  0
 12  5  1  0  0  0  0
 12  3  1  0  0  0  0
 13 18  2  0  0  0  0
 14 13  1  0  0  0  0
 16 15  1  6  0  0  0
 16  8  1  0  0  0  0
 16 18  1  0  0  0  0
 17 15  2  0  0  0  0
 17 14  1  0  0  0  0
 18 20  1  0  0  0  0
 20 19  1  0  0  0  0
 23 21  1  1  0  0  0
 23 24  1  0  0  0  0
 23 27  1  0  0  0  0
 24 25  2  0  0  0  0
 25 22  1  0  0  0  0
 26 22  1  0  0  0  0
 27 26  1  0  0  0  0
M  END
>  <MODEL>
9

>  <REMARK>
 VINA RESULT:      -8.0      3.248      7.056
  Name = 
  4 active torsions:
  status: ('A' for Active; 'I' for Inactive)
    1  A    between atoms: C_1  and  C_15
    2  A    between atoms: C_9  and  C_15
    3  A    between atoms: C_14  and  C_19
    4  A    between atoms: C_17  and  O_21
                            x       y       z     vdW  Elec       q    Type
                         _______ _______ _______ _____ _____    ______ ____

>  <TORSDO>
F 4

$$$$
