=
 OpenBabel10262420303D

 55 59  0  0  1  0  0  0  0  0999 V2000
  190.1040  176.8660  138.3660 C   0  0  0  0  0  2  0  0  0  0  0  0
  188.7430  174.8750  136.9480 C   0  0  2  0  0  3  0  0  0  0  0  0
  188.0230  176.1630  137.3570 C   0  0  0  0  0  2  0  0  0  0  0  0
  190.6800  175.5220  137.9230 C   0  0  0  0  0  2  0  0  0  0  0  0
  188.6540  176.7420  138.5490 N   0  0  0  0  0  0  0  0  0  0  0  0
  190.1030  175.1450  136.6990 O   0  0  0  0  0  0  0  0  0  0  0  0
  188.0910  174.3460  135.6830 C   0  0  0  0  0  2  0  0  0  0  0  0
  186.8730  173.4990  135.9990 C   0  0  2  0  0  3  0  0  0  0  0  0
  187.2710  172.0390  135.8820 C   0  0  0  0  0  1  0  0  0  0  0  0
  185.7660  173.8200  135.0020 C   0  0  0  0  0  2  0  0  0  0  0  0
  184.6330  172.7970  135.0470 C   0  0  0  0  0  2  0  0  0  0  0  0
  183.7440  172.9450  136.2840 C   0  0  2  0  0  3  0  0  0  0  0  0
  182.1240  171.4630  137.2860 O   0  0  0  0  0  1  0  0  0  0  0  0
  183.4720  171.5890  136.9510 C   0  0  1  0  0  3  0  0  0  0  0  0
  183.8440  170.4440  136.0230 C   0  0  0  0  0  1  0  0  0  0  0  0
  182.4210  173.5860  135.8690 C   0  0  0  0  0  2  0  0  0  0  0  0
  181.5270  175.8040  135.2370 C   0  0  2  0  0  3  0  0  0  0  0  0
  183.2010  175.5570  138.2880 O   0  0  0  0  0  1  0  0  0  0  0  0
  182.4080  175.0320  136.1390 N   0  0  0  0  0  0  0  0  0  0  0  0
  181.1420  179.2740  136.1560 C   0  0  0  0  0  3  0  0  0  0  0  0
  181.2320  174.4180  138.1170 O   0  0  0  0  0  1  0  0  0  0  0  0
  182.0400  175.3970  137.5260 C   0  0  0  0  0  0  0  0  0  0  0  0
  181.7910  179.1180  137.4720 C   0  0  0  0  0  3  0  0  0  0  0  0
  181.8860  177.9180  138.0560 C   0  0  0  0  0  3  0  0  0  0  0  0
  180.9900  176.8950  136.0190 N   0  0  0  0  0  0  0  0  0  0  0  0
  181.2360  176.6990  137.4390 C   0  0  1  0  0  3  0  0  0  0  0  0
  180.7840  178.1960  135.4570 C   0  0  0  0  0  3  0  0  0  0  0  0
  180.3770  175.0060  134.5960 C   0  0  0  0  0  2  0  0  0  0  0  0
  179.2100  175.1150  135.3540 O   0  0  0  0  0  1  0  0  0  0  0  0
  188.0780  178.0630  138.8390 C   0  0  0  0  0  2  0  0  0  0  0  0
  188.0010  178.3960  140.3060 C   0  0  0  0  0  3  0  0  0  0  0  0
  189.0130  178.1850  141.0830 N   0  0  0  0  0  0  0  0  0  0  0  0
  188.9320  178.5120  142.4220 O   0  0  0  0  0  0  0  0  0  0  0  0
  188.9210  176.1610  142.8160 C   0  0  0  0  0  2  0  0  0  0  0  0
  190.8380  176.7920  144.2190 C   0  0  1  0  0  3  0  0  0  0  0  0
  188.6500  177.5250  143.4210 C   0  0  1  0  0  0  0  0  0  0  0  0
  189.6210  177.6190  144.5990 C   0  0  0  0  0  2  0  0  0  0  0  0
  190.3230  175.7490  143.2320 C   0  0  0  0  0  2  0  0  0  0  0  0
  191.8470  177.6390  143.5790 N   0  0  0  0  0  0  0  0  0  0  0  0
  191.4100  178.9200  143.6430 O   0  0  0  0  0  1  0  0  0  0  0  0
  191.8740  177.3140  142.2640 O   0  0  0  0  0  1  0  0  0  0  0  0
  187.2990  177.5650  143.8340 O   0  0  0  0  0  0  0  0  0  0  0  0
  187.1950  177.0500  145.1390 C   0  0  0  0  0  2  0  0  0  0  0  0
  186.0210  177.6850  145.8860 C   0  0  1  0  0  3  0  0  0  0  0  0
  187.8220  177.7090  147.6400 C   0  0  0  0  0  1  0  0  0  0  0  0
  186.4240  178.1880  147.2790 C   0  0  0  0  0  3  0  0  0  0  0  0
  186.4060  179.7060  147.3540 C   0  0  0  0  0  1  0  0  0  0  0  0
  185.4280  178.8230  145.0580 C   0  0  0  0  0  2  0  0  0  0  0  0
  183.9140  178.8630  145.2030 C   0  0  0  0  0  2  0  0  0  0  0  0
  183.2630  179.3410  143.9150 C   0  0  0  0  0  2  0  0  0  0  0  0
  183.8160  178.5880  142.7180 C   0  0  0  0  0  2  0  0  0  0  0  0
  182.8050  178.5710  141.5870 C   0  0  0  0  0  2  0  0  0  0  0  0
  180.5730  179.5470  141.2110 C   0  0  0  0  0  2  0  0  0  0  0  0
  181.4010  178.6820  142.1380 C   0  0  0  0  0  3  0  0  0  0  0  0
  180.4340  178.0420  141.1610 C   0  0  0  0  0  2  0  0  0  0  0  0
  1  5  1  0  0  0  0
  2  7  1  6  0  0  0
  2  3  1  0  0  0  0
  3  5  1  0  0  0  0
  4  1  1  0  0  0  0
  5 30  1  0  0  0  0
  6  2  1  0  0  0  0
  6  4  1  0  0  0  0
  7  8  1  0  0  0  0
  8  9  1  6  0  0  0
 10 11  1  0  0  0  0
 10  8  1  0  0  0  0
 12 11  1  6  0  0  0
 12 14  1  0  0  0  0
 14 15  1  6  0  0  0
 14 13  1  0  0  0  0
 16 19  1  0  0  0  0
 16 12  1  0  0  0  0
 17 28  1  1  0  0  0
 17 25  1  0  0  0  0
 17 19  1  0  0  0  0
 19 22  1  0  0  0  0
 20 23  1  0  0  0  0
 22 21  1  0  0  0  0
 22 18  1  0  0  0  0
 23 24  2  0  0  0  0
 25 26  1  0  0  0  0
 26 22  1  0  0  0  0
 26 24  1  6  0  0  0
 27 25  1  0  0  0  0
 27 20  2  0  0  0  0
 28 29  1  0  0  0  0
 30 31  1  0  0  0  0
 31 32  2  0  0  0  0
 32 33  1  0  0  0  0
 34 38  1  0  0  0  0
 34 36  1  0  0  0  0
 35 39  1  6  0  0  0
 35 37  1  0  0  0  0
 36 33  1  6  0  0  0
 36 42  1  0  0  0  0
 36 37  1  0  0  0  0
 38 35  1  0  0  0  0
 39 40  1  0  0  0  0
 41 39  1  0  0  0  0
 42 43  1  0  0  0  0
 43 44  1  0  0  0  0
 44 48  1  6  0  0  0
 44 46  1  0  0  0  0
 46 47  1  0  0  0  0
 46 45  1  0  0  0  0
 48 49  1  0  0  0  0
 50 49  1  0  0  0  0
 51 50  1  0  0  0  0
 52 54  1  0  0  0  0
 52 51  1  0  0  0  0
 53 54  1  0  0  0  0
 55 53  1  0  0  0  0
 55 54  1  0  0  0  0
M  END
>  <MODEL>
1

>  <REMARK>
 VINA RESULT:      -6.7      0.000      0.000
  Name = 
  24 active torsions:
  status: ('A' for Active; 'I' for Inactive)
    1  A    between atoms: C_1  and  C_21
    2  A    between atoms: C_2  and  C_28
    3  A    between atoms: C_2  and  N_44
    4  A    between atoms: C_4  and  C_19
    5  A    between atoms: C_4  and  C_37
    6  A    between atoms: N_6  and  C_46
    7  A    between atoms: C_8  and  C_22
    8  A    between atoms: C_8  and  C_35
    9  A    between atoms: N_10  and  C_32
   10  A    between atoms: C_15  and  C_17
   11  A    between atoms: C_16  and  C_17
   12  A    between atoms: C_16  and  C_26
   13  A    between atoms: C_17  and  C_36
   14  A    between atoms: C_20  and  C_22
   15  A    between atoms: C_22  and  C_46
   16  A    between atoms: C_26  and  C_45
   17  A    between atoms: C_27  and  C_54
   18  A    between atoms: N_33  and  O_49
   19  A    between atoms: C_34  and  O_49
   20  A    between atoms: C_34  and  O_52
   21  A    between atoms: C_35  and  C_43
   22  A    between atoms: C_36  and  O_52
   23  A    between atoms: C_37  and  C_45
   24  A    between atoms: C_43  and  C_54
                            x       y       z     vdW  Elec       q    Type
                         _______ _______ _______ _____ _____    ______ ____

>  <TORSDO>
F 24

$$$$
=
 OpenBabel10262420303D

 55 59  0  0  1  0  0  0  0  0999 V2000
  191.9780  176.0110  138.0790 C   0  0  0  0  0  2  0  0  0  0  0  0
  190.3610  173.9650  137.0660 C   0  0  2  0  0  3  0  0  0  0  0  0
  189.7330  175.2590  137.5940 C   0  0  0  0  0  2  0  0  0  0  0  0
  192.4590  174.6590  137.5530 C   0  0  0  0  0  2  0  0  0  0  0  0
  190.6110  175.8790  138.5930 N   0  0  0  0  0  0  0  0  0  0  0  0
  191.6230  174.2390  136.5050 O   0  0  0  0  0  0  0  0  0  0  0  0
  189.4450  173.3920  136.0000 C   0  0  0  0  0  2  0  0  0  0  0  0
  188.3600  172.5230  136.6070 C   0  0  2  0  0  3  0  0  0  0  0  0
  188.1460  171.3300  135.6940 C   0  0  0  0  0  1  0  0  0  0  0  0
  187.0740  173.3320  136.7200 C   0  0  0  0  0  2  0  0  0  0  0  0
  186.7770  174.1250  135.4490 C   0  0  0  0  0  2  0  0  0  0  0  0
  185.5920  175.0810  135.6060 C   0  0  2  0  0  3  0  0  0  0  0  0
  186.1560  176.8260  137.1740 O   0  0  0  0  0  1  0  0  0  0  0  0
  186.0570  176.5290  135.8150 C   0  0  1  0  0  3  0  0  0  0  0  0
  187.4170  176.7610  135.1750 C   0  0  0  0  0  1  0  0  0  0  0  0
  184.7510  174.6360  136.8010 C   0  0  0  0  0  2  0  0  0  0  0  0
  182.8330  173.1580  136.2950 C   0  0  2  0  0  3  0  0  0  0  0  0
  182.1430  176.5130  136.9580 O   0  0  0  0  0  1  0  0  0  0  0  0
  183.3230  174.5430  136.4570 N   0  0  0  0  0  0  0  0  0  0  0  0
  179.2560  172.8920  135.8870 C   0  0  0  0  0  3  0  0  0  0  0  0
  182.9750  175.2870  138.6920 O   0  0  0  0  0  1  0  0  0  0  0  0
  182.4150  175.2180  137.4110 C   0  0  0  0  0  0  0  0  0  0  0  0
  178.9940  174.2990  136.2440 C   0  0  0  0  0  3  0  0  0  0  0  0
  179.8850  175.0110  136.9420 C   0  0  0  0  0  3  0  0  0  0  0  0
  181.4640  173.1480  136.7590 N   0  0  0  0  0  0  0  0  0  0  0  0
  181.1430  174.3660  137.4830 C   0  0  1  0  0  3  0  0  0  0  0  0
  180.4560  172.3570  136.1180 C   0  0  0  0  0  3  0  0  0  0  0  0
  183.6440  172.0800  137.0360 C   0  0  0  0  0  2  0  0  0  0  0  0
  184.2050  171.1710  136.1370 O   0  0  0  0  0  1  0  0  0  0  0  0
  190.0950  177.2030  138.9700 C   0  0  0  0  0  2  0  0  0  0  0  0
  189.8350  177.3690  140.4450 C   0  0  0  0  0  3  0  0  0  0  0  0
  189.0260  178.2820  140.8730 N   0  0  0  0  0  0  0  0  0  0  0  0
  188.7850  178.4090  142.2250 O   0  0  0  0  0  0  0  0  0  0  0  0
  189.0510  176.0600  142.5360 C   0  0  0  0  0  2  0  0  0  0  0  0
  190.1390  176.8610  144.5900 C   0  0  1  0  0  3  0  0  0  0  0  0
  188.3270  177.3030  143.0150 C   0  0  1  0  0  0  0  0  0  0  0  0
  188.7410  177.4460  144.4800 C   0  0  0  0  0  2  0  0  0  0  0  0
  190.2380  175.8420  143.4590 C   0  0  0  0  0  2  0  0  0  0  0  0
  191.1440  177.9120  144.4130 N   0  0  0  0  0  0  0  0  0  0  0  0
  191.9580  177.5360  143.3970 O   0  0  0  0  0  1  0  0  0  0  0  0
  191.9140  177.9280  145.5280 O   0  0  0  0  0  1  0  0  0  0  0  0
  186.9370  177.0910  142.8660 O   0  0  0  0  0  0  0  0  0  0  0  0
  186.2580  178.3060  143.0610 C   0  0  0  0  0  2  0  0  0  0  0  0
  184.7720  178.1620  142.7240 C   0  0  1  0  0  3  0  0  0  0  0  0
  184.5860  179.2680  144.9740 C   0  0  0  0  0  1  0  0  0  0  0  0
  183.8750  178.4010  143.9460 C   0  0  0  0  0  3  0  0  0  0  0  0
  182.5740  179.0870  143.5620 C   0  0  0  0  0  1  0  0  0  0  0  0
  184.3960  179.1160  141.5920 C   0  0  0  0  0  2  0  0  0  0  0  0
  185.1610  178.7730  140.3220 C   0  0  0  0  0  2  0  0  0  0  0  0
  184.4570  179.3410  139.1000 C   0  0  0  0  0  2  0  0  0  0  0  0
  182.9510  179.1850  139.2230 C   0  0  0  0  0  2  0  0  0  0  0  0
  182.2440  180.4300  138.7220 C   0  0  0  0  0  2  0  0  0  0  0  0
  180.2260  181.0960  139.9710 C   0  0  0  0  0  2  0  0  0  0  0  0
  180.7440  180.2570  138.8220 C   0  0  0  0  0  3  0  0  0  0  0  0
  180.0740  181.5900  138.5510 C   0  0  0  0  0  2  0  0  0  0  0  0
  1  5  1  0  0  0  0
  2  7  1  6  0  0  0
  2  3  1  0  0  0  0
  3  5  1  0  0  0  0
  4  1  1  0  0  0  0
  5 30  1  0  0  0  0
  6  2  1  0  0  0  0
  6  4  1  0  0  0  0
  7  8  1  0  0  0  0
  8  9  1  6  0  0  0
  8 10  1  0  0  0  0
 11 10  1  0  0  0  0
 12 11  1  1  0  0  0
 12 14  1  0  0  0  0
 12 16  1  0  0  0  0
 14 15  1  6  0  0  0
 14 13  1  0  0  0  0
 17 19  1  0  0  0  0
 17 25  1  0  0  0  0
 17 28  1  1  0  0  0
 18 22  1  0  0  0  0
 19 16  1  0  0  0  0
 19 22  1  0  0  0  0
 20 27  2  0  0  0  0
 20 23  1  0  0  0  0
 22 26  1  0  0  0  0
 22 21  1  0  0  0  0
 23 24  2  0  0  0  0
 25 26  1  0  0  0  0
 26 24  1  6  0  0  0
 27 25  1  0  0  0  0
 29 28  1  0  0  0  0
 30 31  1  0  0  0  0
 31 32  2  0  0  0  0
 32 33  1  0  0  0  0
 34 36  1  0  0  0  0
 34 38  1  0  0  0  0
 35 39  1  6  0  0  0
 36 33  1  6  0  0  0
 36 37  1  0  0  0  0
 37 35  1  0  0  0  0
 38 35  1  0  0  0  0
 39 41  1  0  0  0  0
 40 39  1  0  0  0  0
 42 36  1  0  0  0  0
 42 43  1  0  0  0  0
 44 48  1  6  0  0  0
 44 43  1  0  0  0  0
 44 46  1  0  0  0  0
 46 45  1  0  0  0  0
 47 46  1  0  0  0  0
 49 48  1  0  0  0  0
 50 51  1  0  0  0  0
 50 49  1  0  0  0  0
 52 54  1  0  0  0  0
 52 51  1  0  0  0  0
 54 53  1  0  0  0  0
 55 54  1  0  0  0  0
 55 53  1  0  0  0  0
M  END
>  <MODEL>
2

>  <REMARK>
 VINA RESULT:      -6.0      1.856      3.461
  Name = 
  24 active torsions:
  status: ('A' for Active; 'I' for Inactive)
    1  A    between atoms: C_1  and  C_21
    2  A    between atoms: C_2  and  C_28
    3  A    between atoms: C_2  and  N_44
    4  A    between atoms: C_4  and  C_19
    5  A    between atoms: C_4  and  C_37
    6  A    between atoms: N_6  and  C_46
    7  A    between atoms: C_8  and  C_22
    8  A    between atoms: C_8  and  C_35
    9  A    between atoms: N_10  and  C_32
   10  A    between atoms: C_15  and  C_17
   11  A    between atoms: C_16  and  C_17
   12  A    between atoms: C_16  and  C_26
   13  A    between atoms: C_17  and  C_36
   14  A    between atoms: C_20  and  C_22
   15  A    between atoms: C_22  and  C_46
   16  A    between atoms: C_26  and  C_45
   17  A    between atoms: C_27  and  C_54
   18  A    between atoms: N_33  and  O_49
   19  A    between atoms: C_34  and  O_49
   20  A    between atoms: C_34  and  O_52
   21  A    between atoms: C_35  and  C_43
   22  A    between atoms: C_36  and  O_52
   23  A    between atoms: C_37  and  C_45
   24  A    between atoms: C_43  and  C_54
                            x       y       z     vdW  Elec       q    Type
                         _______ _______ _______ _____ _____    ______ ____

>  <TORSDO>
F 24

$$$$
=
 OpenBabel10262420303D

 55 59  0  0  1  0  0  0  0  0999 V2000
  189.7980  177.0800  140.3530 C   0  0  0  0  0  2  0  0  0  0  0  0
  190.7580  176.7930  137.7410 C   0  0  2  0  0  3  0  0  0  0  0  0
  191.7310  176.8350  138.9240 C   0  0  0  0  0  2  0  0  0  0  0  0
  188.9530  177.0570  139.0800 C   0  0  0  0  0  2  0  0  0  0  0  0
  191.1410  177.5810  140.0420 N   0  0  0  0  0  0  0  0  0  0  0  0
  189.5460  176.1980  138.1400 O   0  0  0  0  0  0  0  0  0  0  0  0
  191.3900  175.9680  136.6350 C   0  0  0  0  0  2  0  0  0  0  0  0
  190.8010  174.5710  136.5780 C   0  0  2  0  0  3  0  0  0  0  0  0
  191.9180  173.5790  136.8430 C   0  0  0  0  0  1  0  0  0  0  0  0
  190.2070  174.3320  135.1960 C   0  0  0  0  0  2  0  0  0  0  0  0
  189.5600  172.9540  135.0750 C   0  0  0  0  0  2  0  0  0  0  0  0
  188.2050  172.8670  135.7810 C   0  0  2  0  0  3  0  0  0  0  0  0
  186.4550  171.4670  134.8870 O   0  0  0  0  0  1  0  0  0  0  0  0
  187.6040  171.4580  135.6780 C   0  0  1  0  0  3  0  0  0  0  0  0
  188.5990  170.4860  135.0650 C   0  0  0  0  0  1  0  0  0  0  0  0
  187.2510  173.8790  135.1490 C   0  0  0  0  0  2  0  0  0  0  0  0
  186.8080  176.0070  136.3290 C   0  0  2  0  0  3  0  0  0  0  0  0
  184.4550  173.4550  136.6820 O   0  0  0  0  0  1  0  0  0  0  0  0
  186.4520  174.5810  136.1650 N   0  0  0  0  0  0  0  0  0  0  0  0
  184.5790  177.8510  138.4880 C   0  0  0  0  0  3  0  0  0  0  0  0
  184.6770  174.3490  134.5950 O   0  0  0  0  0  1  0  0  0  0  0  0
  184.9890  174.5200  135.9490 C   0  0  0  0  0  0  0  0  0  0  0  0
  183.5690  176.7770  138.5560 C   0  0  0  0  0  3  0  0  0  0  0  0
  183.5170  175.8190  137.6240 C   0  0  0  0  0  3  0  0  0  0  0  0
  185.5830  176.7040  136.6500 N   0  0  0  0  0  0  0  0  0  0  0  0
  184.4200  175.8660  136.4100 C   0  0  1  0  0  3  0  0  0  0  0  0
  185.5570  177.7910  137.5820 C   0  0  0  0  0  3  0  0  0  0  0  0
  187.4780  176.6640  135.1080 C   0  0  0  0  0  2  0  0  0  0  0  0
  187.8590  177.9770  135.3940 O   0  0  0  0  0  1  0  0  0  0  0  0
  191.9960  177.4730  141.2330 C   0  0  0  0  0  2  0  0  0  0  0  0
  191.3250  176.8320  142.4200 C   0  0  0  0  0  3  0  0  0  0  0  0
  191.5640  177.2540  143.6190 N   0  0  0  0  0  0  0  0  0  0  0  0
  190.9280  176.6690  144.6940 O   0  0  0  0  0  0  0  0  0  0  0  0
  189.3030  176.5160  146.4330 C   0  0  0  0  0  2  0  0  0  0  0  0
  191.3030  176.9590  147.7930 C   0  0  1  0  0  3  0  0  0  0  0  0
  190.2160  177.4500  145.6630 C   0  0  1  0  0  0  0  0  0  0  0  0
  191.1540  178.0280  146.7230 C   0  0  0  0  0  2  0  0  0  0  0  0
  190.0240  176.1310  147.7140 C   0  0  0  0  0  2  0  0  0  0  0  0
  192.4680  176.1170  147.5090 N   0  0  0  0  0  0  0  0  0  0  0  0
  192.0340  174.8370  147.3970 O   0  0  0  0  0  1  0  0  0  0  0  0
  193.2680  176.1510  148.6020 O   0  0  0  0  0  1  0  0  0  0  0  0
  189.4170  178.4440  145.0520 O   0  0  0  0  0  0  0  0  0  0  0  0
  188.1100  178.3700  145.5650 C   0  0  0  0  0  2  0  0  0  0  0  0
  187.0750  178.5200  144.4490 C   0  0  1  0  0  3  0  0  0  0  0  0
  187.3940  176.3010  143.3110 C   0  0  0  0  0  1  0  0  0  0  0  0
  187.5070  177.8100  143.1590 C   0  0  0  0  0  3  0  0  0  0  0  0
  186.6550  178.2350  141.9730 C   0  0  0  0  0  1  0  0  0  0  0  0
  185.7190  177.9950  144.9180 C   0  0  0  0  0  2  0  0  0  0  0  0
  184.6660  179.0910  144.8580 C   0  0  0  0  0  2  0  0  0  0  0  0
  183.2770  178.4960  144.7010 C   0  0  0  0  0  2  0  0  0  0  0  0
  182.4840  179.2460  143.6440 C   0  0  0  0  0  2  0  0  0  0  0  0
  183.0610  178.9880  142.2640 C   0  0  0  0  0  2  0  0  0  0  0  0
  180.6750  178.7240  141.7040 C   0  0  0  0  0  2  0  0  0  0  0  0
  182.0730  178.2140  141.4200 C   0  0  0  0  0  3  0  0  0  0  0  0
  181.3980  179.1660  140.4520 C   0  0  0  0  0  2  0  0  0  0  0  0
  2  7  1  6  0  0  0
  2  6  1  0  0  0  0
  2  3  1  0  0  0  0
  3  5  1  0  0  0  0
  4  1  1  0  0  0  0
  5  1  1  0  0  0  0
  5 30  1  0  0  0  0
  6  4  1  0  0  0  0
  8  7  1  0  0  0  0
  8  9  1  6  0  0  0
 10  8  1  0  0  0  0
 11 10  1  0  0  0  0
 12 11  1  6  0  0  0
 13 14  1  0  0  0  0
 14 15  1  6  0  0  0
 14 12  1  0  0  0  0
 16 12  1  0  0  0  0
 16 19  1  0  0  0  0
 17 28  1  6  0  0  0
 17 25  1  0  0  0  0
 19 17  1  0  0  0  0
 20 23  1  0  0  0  0
 21 22  1  0  0  0  0
 22 19  1  0  0  0  0
 22 26  1  0  0  0  0
 22 18  1  0  0  0  0
 24 23  2  0  0  0  0
 25 27  1  0  0  0  0
 26 25  1  0  0  0  0
 26 24  1  1  0  0  0
 27 20  2  0  0  0  0
 28 29  1  0  0  0  0
 30 31  1  0  0  0  0
 31 32  2  0  0  0  0
 32 33  1  0  0  0  0
 34 38  1  0  0  0  0
 35 39  1  6  0  0  0
 36 33  1  6  0  0  0
 36 34  1  0  0  0  0
 36 37  1  0  0  0  0
 37 35  1  0  0  0  0
 38 35  1  0  0  0  0
 39 41  1  0  0  0  0
 40 39  1  0  0  0  0
 42 43  1  0  0  0  0
 42 36  1  0  0  0  0
 44 48  1  1  0  0  0
 44 43  1  0  0  0  0
 46 45  1  0  0  0  0
 46 44  1  0  0  0  0
 47 46  1  0  0  0  0
 49 48  1  0  0  0  0
 50 49  1  0  0  0  0
 51 50  1  0  0  0  0
 52 51  1  0  0  0  0
 54 53  1  0  0  0  0
 54 52  1  0  0  0  0
 55 54  1  0  0  0  0
 55 53  1  0  0  0  0
M  END
>  <MODEL>
3

>  <REMARK>
 VINA RESULT:      -5.8      2.504      4.043
  Name = 
  24 active torsions:
  status: ('A' for Active; 'I' for Inactive)
    1  A    between atoms: C_1  and  C_21
    2  A    between atoms: C_2  and  C_28
    3  A    between atoms: C_2  and  N_44
    4  A    between atoms: C_4  and  C_19
    5  A    between atoms: C_4  and  C_37
    6  A    between atoms: N_6  and  C_46
    7  A    between atoms: C_8  and  C_22
    8  A    between atoms: C_8  and  C_35
    9  A    between atoms: N_10  and  C_32
   10  A    between atoms: C_15  and  C_17
   11  A    between atoms: C_16  and  C_17
   12  A    between atoms: C_16  and  C_26
   13  A    between atoms: C_17  and  C_36
   14  A    between atoms: C_20  and  C_22
   15  A    between atoms: C_22  and  C_46
   16  A    between atoms: C_26  and  C_45
   17  A    between atoms: C_27  and  C_54
   18  A    between atoms: N_33  and  O_49
   19  A    between atoms: C_34  and  O_49
   20  A    between atoms: C_34  and  O_52
   21  A    between atoms: C_35  and  C_43
   22  A    between atoms: C_36  and  O_52
   23  A    between atoms: C_37  and  C_45
   24  A    between atoms: C_43  and  C_54
                            x       y       z     vdW  Elec       q    Type
                         _______ _______ _______ _____ _____    ______ ____

>  <TORSDO>
F 24

$$$$
=
 OpenBabel10262420303D

 55 59  0  0  1  0  0  0  0  0999 V2000
  190.1020  177.4560  147.4380 C   0  0  0  0  0  2  0  0  0  0  0  0
  190.4080  176.3270  144.8970 C   0  0  2  0  0  3  0  0  0  0  0  0
  189.1330  177.0960  145.2530 C   0  0  0  0  0  2  0  0  0  0  0  0
  191.2970  176.6360  146.9540 C   0  0  0  0  0  2  0  0  0  0  0  0
  188.8990  177.0520  146.7010 N   0  0  0  0  0  0  0  0  0  0  0  0
  191.5070  176.8750  145.5860 O   0  0  0  0  0  0  0  0  0  0  0  0
  190.6350  176.4480  143.4000 C   0  0  0  0  0  2  0  0  0  0  0  0
  191.7180  177.4620  143.0830 C   0  0  2  0  0  3  0  0  0  0  0  0
  191.0940  178.8440  143.1210 C   0  0  0  0  0  1  0  0  0  0  0  0
  192.2790  177.1800  141.6950 C   0  0  0  0  0  2  0  0  0  0  0  0
  191.2750  177.5010  140.5900 C   0  0  0  0  0  2  0  0  0  0  0  0
  191.5070  176.6850  139.3160 C   0  0  2  0  0  3  0  0  0  0  0  0
  193.8150  177.2700  139.7100 O   0  0  0  0  0  1  0  0  0  0  0  0
  192.8910  176.9620  138.7120 C   0  0  1  0  0  3  0  0  0  0  0  0
  193.4010  175.7520  137.9460 C   0  0  0  0  0  1  0  0  0  0  0  0
  190.4240  177.0370  138.2980 C   0  0  0  0  0  2  0  0  0  0  0  0
  188.0540  176.4330  137.9320 C   0  0  2  0  0  3  0  0  0  0  0  0
  190.4200  173.8860  137.6530 O   0  0  0  0  0  1  0  0  0  0  0  0
  189.4340  175.9570  138.1620 N   0  0  0  0  0  0  0  0  0  0  0  0
  185.6930  173.8140  137.1600 C   0  0  0  0  0  3  0  0  0  0  0  0
  190.5200  175.5390  136.0840 O   0  0  0  0  0  1  0  0  0  0  0  0
  189.7380  174.9730  137.0980 C   0  0  0  0  0  0  0  0  0  0  0  0
  186.7260  172.7770  136.9780 C   0  0  0  0  0  3  0  0  0  0  0  0
  187.9960  173.1070  136.7180 C   0  0  0  0  0  3  0  0  0  0  0  0
  187.4200  175.4610  137.0720 N   0  0  0  0  0  0  0  0  0  0  0  0
  188.3940  174.5500  136.4950 C   0  0  1  0  0  3  0  0  0  0  0  0
  186.0420  175.1000  137.2280 C   0  0  0  0  0  3  0  0  0  0  0  0
  187.9350  177.8370  137.3110 C   0  0  0  0  0  2  0  0  0  0  0  0
  187.6290  178.7900  138.2860 O   0  0  0  0  0  1  0  0  0  0  0  0
  187.7790  177.9320  147.0630 C   0  0  0  0  0  2  0  0  0  0  0  0
  186.4490  177.5050  146.4980 C   0  0  0  0  0  3  0  0  0  0  0  0
  185.7570  178.3120  145.7620 N   0  0  0  0  0  0  0  0  0  0  0  0
  184.5490  177.8990  145.2370 O   0  0  0  0  0  0  0  0  0  0  0  0
  184.3520  180.0610  144.2500 C   0  0  0  0  0  2  0  0  0  0  0  0
  185.6570  178.9390  142.4950 C   0  0  1  0  0  3  0  0  0  0  0  0
  183.9110  178.6130  144.1700 C   0  0  1  0  0  0  0  0  0  0  0  0
  184.4010  178.1400  142.8010 C   0  0  0  0  0  2  0  0  0  0  0  0
  185.5060  180.2390  143.2780 C   0  0  0  0  0  2  0  0  0  0  0  0
  186.8440  178.2100  142.9480 N   0  0  0  0  0  0  0  0  0  0  0  0
  187.8110  178.3750  142.0120 O   0  0  0  0  0  1  0  0  0  0  0  0
  186.5360  176.8910  142.9450 O   0  0  0  0  0  1  0  0  0  0  0  0
  182.5020  178.5730  144.2800 O   0  0  0  0  0  0  0  0  0  0  0  0
  181.9320  179.3140  143.2290 C   0  0  0  0  0  2  0  0  0  0  0  0
  180.8150  178.5240  142.5460 C   0  0  1  0  0  3  0  0  0  0  0  0
  179.0860  179.0790  144.2840 C   0  0  0  0  0  1  0  0  0  0  0  0
  179.4310  179.1350  142.8040 C   0  0  0  0  0  3  0  0  0  0  0  0
  179.3660  180.5870  142.3540 C   0  0  0  0  0  1  0  0  0  0  0  0
  181.0840  178.4280  141.0450 C   0  0  0  0  0  2  0  0  0  0  0  0
  180.5800  177.1040  140.4910 C   0  0  0  0  0  2  0  0  0  0  0  0
  181.0200  176.9220  139.0470 C   0  0  0  0  0  2  0  0  0  0  0  0
  182.2770  176.0740  138.9680 C   0  0  0  0  0  2  0  0  0  0  0  0
  182.1220  174.9880  137.9200 C   0  0  0  0  0  2  0  0  0  0  0  0
  182.3250  174.4390  135.5260 C   0  0  0  0  0  2  0  0  0  0  0  0
  182.3040  175.5680  136.5350 C   0  0  0  0  0  3  0  0  0  0  0  0
  181.0710  175.2640  135.7060 C   0  0  0  0  0  2  0  0  0  0  0  0
  2  7  1  6  0  0  0
  2  3  1  0  0  0  0
  2  6  1  0  0  0  0
  3  5  1  0  0  0  0
  4  1  1  0  0  0  0
  5 30  1  0  0  0  0
  5  1  1  0  0  0  0
  6  4  1  0  0  0  0
  8  9  1  6  0  0  0
  8  7  1  0  0  0  0
 10  8  1  0  0  0  0
 11 10  1  0  0  0  0
 12 16  1  6  0  0  0
 12 11  1  0  0  0  0
 14 15  1  1  0  0  0
 14 12  1  0  0  0  0
 14 13  1  0  0  0  0
 17 28  1  6  0  0  0
 17 19  1  0  0  0  0
 19 16  1  0  0  0  0
 20 27  2  0  0  0  0
 21 22  1  0  0  0  0
 22 18  1  0  0  0  0
 22 19  1  0  0  0  0
 23 20  1  0  0  0  0
 24 23  2  0  0  0  0
 25 27  1  0  0  0  0
 25 17  1  0  0  0  0
 26 24  1  1  0  0  0
 26 25  1  0  0  0  0
 26 22  1  0  0  0  0
 28 29  1  0  0  0  0
 31 30  1  0  0  0  0
 32 31  2  0  0  0  0
 33 32  1  0  0  0  0
 35 37  1  0  0  0  0
 35 39  1  1  0  0  0
 35 38  1  0  0  0  0
 36 34  1  0  0  0  0
 36 42  1  1  0  0  0
 36 33  1  0  0  0  0
 37 36  1  0  0  0  0
 38 34  1  0  0  0  0
 40 39  1  0  0  0  0
 41 39  1  0  0  0  0
 43 42  1  0  0  0  0
 44 48  1  6  0  0  0
 44 46  1  0  0  0  0
 44 43  1  0  0  0  0
 46 45  1  0  0  0  0
 47 46  1  0  0  0  0
 49 48  1  0  0  0  0
 50 49  1  0  0  0  0
 51 50  1  0  0  0  0
 52 51  1  0  0  0  0
 53 55  1  0  0  0  0
 53 54  1  0  0  0  0
 54 52  1  0  0  0  0
 55 54  1  0  0  0  0
M  END
>  <MODEL>
4

>  <REMARK>
 VINA RESULT:      -5.7      3.034      7.795
  Name = 
  24 active torsions:
  status: ('A' for Active; 'I' for Inactive)
    1  A    between atoms: C_1  and  C_21
    2  A    between atoms: C_2  and  C_28
    3  A    between atoms: C_2  and  N_44
    4  A    between atoms: C_4  and  C_19
    5  A    between atoms: C_4  and  C_37
    6  A    between atoms: N_6  and  C_46
    7  A    between atoms: C_8  and  C_22
    8  A    between atoms: C_8  and  C_35
    9  A    between atoms: N_10  and  C_32
   10  A    between atoms: C_15  and  C_17
   11  A    between atoms: C_16  and  C_17
   12  A    between atoms: C_16  and  C_26
   13  A    between atoms: C_17  and  C_36
   14  A    between atoms: C_20  and  C_22
   15  A    between atoms: C_22  and  C_46
   16  A    between atoms: C_26  and  C_45
   17  A    between atoms: C_27  and  C_54
   18  A    between atoms: N_33  and  O_49
   19  A    between atoms: C_34  and  O_49
   20  A    between atoms: C_34  and  O_52
   21  A    between atoms: C_35  and  C_43
   22  A    between atoms: C_36  and  O_52
   23  A    between atoms: C_37  and  C_45
   24  A    between atoms: C_43  and  C_54
                            x       y       z     vdW  Elec       q    Type
                         _______ _______ _______ _____ _____    ______ ____

>  <TORSDO>
F 24

$$$$
=
 OpenBabel10262420303D

 55 59  0  0  1  0  0  0  0  0999 V2000
  183.5580  179.0140  145.0060 C   0  0  0  0  0  2  0  0  0  0  0  0
  183.8730  179.0060  142.2260 C   0  0  2  0  0  3  0  0  0  0  0  0
  184.9400  178.3780  143.1280 C   0  0  0  0  0  2  0  0  0  0  0  0
  182.5980  179.6300  143.9880 C   0  0  0  0  0  2  0  0  0  0  0  0
  184.9170  179.0050  144.4550 N   0  0  0  0  0  0  0  0  0  0  0  0
  182.6020  178.8580  142.8140 O   0  0  0  0  0  0  0  0  0  0  0  0
  183.8990  178.2890  140.8880 C   0  0  0  0  0  2  0  0  0  0  0  0
  182.5510  177.6770  140.5590 C   0  0  2  0  0  3  0  0  0  0  0  0
  182.7810  176.2460  140.1080 C   0  0  0  0  0  1  0  0  0  0  0  0
  181.8950  178.4770  139.4410 C   0  0  0  0  0  2  0  0  0  0  0  0
  182.6670  178.3750  138.1270 C   0  0  0  0  0  2  0  0  0  0  0  0
  181.7580  178.1520  136.9160 C   0  0  2  0  0  3  0  0  0  0  0  0
  181.1270  180.1400  135.7020 O   0  0  0  0  0  1  0  0  0  0  0  0
  180.7500  179.2980  136.7480 C   0  0  1  0  0  3  0  0  0  0  0  0
  179.3600  178.7590  136.4510 C   0  0  0  0  0  1  0  0  0  0  0  0
  181.0090  176.8330  137.0960 C   0  0  0  0  0  2  0  0  0  0  0  0
  181.5340  174.4490  137.4940 C   0  0  2  0  0  3  0  0  0  0  0  0
  182.8890  175.9370  134.6440 O   0  0  0  0  0  1  0  0  0  0  0  0
  181.8460  175.6790  136.7340 N   0  0  0  0  0  0  0  0  0  0  0  0
  183.2650  171.5060  136.3230 C   0  0  0  0  0  3  0  0  0  0  0  0
  180.6190  175.7220  134.6940 O   0  0  0  0  0  1  0  0  0  0  0  0
  181.8170  175.3220  135.2980 C   0  0  0  0  0  0  0  0  0  0  0  0
  183.7610  172.1470  135.0900 C   0  0  0  0  0  3  0  0  0  0  0  0
  183.1710  173.2410  134.5960 C   0  0  0  0  0  3  0  0  0  0  0  0
  181.7610  173.3400  136.5950 N   0  0  0  0  0  0  0  0  0  0  0  0
  181.9100  173.7940  135.2230 C   0  0  1  0  0  3  0  0  0  0  0  0
  182.3200  172.1030  137.0510 C   0  0  0  0  0  3  0  0  0  0  0  0
  180.1080  174.3730  138.0690 C   0  0  0  0  0  2  0  0  0  0  0  0
  179.2830  173.5920  137.2560 O   0  0  0  0  0  1  0  0  0  0  0  0
  185.8160  178.2890  145.3710 C   0  0  0  0  0  2  0  0  0  0  0  0
  186.6460  177.2170  144.7120 C   0  0  0  0  0  3  0  0  0  0  0  0
  187.9280  177.3480  144.6080 N   0  0  0  0  0  0  0  0  0  0  0  0
  188.6750  176.3490  144.0170 O   0  0  0  0  0  0  0  0  0  0  0  0
  190.1110  178.1290  143.3390 C   0  0  0  0  0  2  0  0  0  0  0  0
  191.6650  176.8910  144.7860 C   0  0  1  0  0  3  0  0  0  0  0  0
  189.8190  176.6470  143.2070 C   0  0  1  0  0  0  0  0  0  0  0  0
  191.0800  175.9620  143.7350 C   0  0  0  0  0  2  0  0  0  0  0  0
  191.1910  178.2870  144.3950 C   0  0  0  0  0  2  0  0  0  0  0  0
  191.1590  176.5370  146.1140 N   0  0  0  0  0  0  0  0  0  0  0  0
  190.5250  177.6250  146.6160 O   0  0  0  0  0  1  0  0  0  0  0  0
  192.2320  176.3230  146.9130 O   0  0  0  0  0  1  0  0  0  0  0  0
  189.5850  176.3630  141.8420 O   0  0  0  0  0  0  0  0  0  0  0  0
  190.4310  177.1580  141.0490 C   0  0  0  0  0  2  0  0  0  0  0  0
  189.9650  177.1700  139.5920 C   0  0  1  0  0  3  0  0  0  0  0  0
  187.9390  177.9690  138.3370 C   0  0  0  0  0  1  0  0  0  0  0  0
  189.0600  178.3710  139.2830 C   0  0  0  0  0  3  0  0  0  0  0  0
  188.4370  178.9440  140.5450 C   0  0  0  0  0  1  0  0  0  0  0  0
  191.1710  177.1550  138.6550 C   0  0  0  0  0  2  0  0  0  0  0  0
  190.8280  176.4620  137.3460 C   0  0  0  0  0  2  0  0  0  0  0  0
  189.9110  175.2740  137.5880 C   0  0  0  0  0  2  0  0  0  0  0  0
  189.1740  174.8920  136.3160 C   0  0  0  0  0  2  0  0  0  0  0  0
  189.0400  173.3840  136.2120 C   0  0  0  0  0  2  0  0  0  0  0  0
  187.4770  171.5060  135.8870 C   0  0  0  0  0  2  0  0  0  0  0  0
  187.6330  173.0100  135.8010 C   0  0  0  0  0  3  0  0  0  0  0  0
  186.9210  172.3850  136.9840 C   0  0  0  0  0  2  0  0  0  0  0  0
  2  7  1  6  0  0  0
  2  6  1  0  0  0  0
  2  3  1  0  0  0  0
  3  5  1  0  0  0  0
  4  1  1  0  0  0  0
  5  1  1  0  0  0  0
  5 30  1  0  0  0  0
  6  4  1  0  0  0  0
  8  9  1  6  0  0  0
  8  7  1  0  0  0  0
 10  8  1  0  0  0  0
 11 10  1  0  0  0  0
 12 16  1  1  0  0  0
 12 11  1  0  0  0  0
 13 14  1  0  0  0  0
 14 15  1  6  0  0  0
 14 12  1  0  0  0  0
 17 28  1  6  0  0  0
 18 22  1  0  0  0  0
 19 16  1  0  0  0  0
 19 17  1  0  0  0  0
 20 27  2  0  0  0  0
 21 22  1  0  0  0  0
 22 19  1  0  0  0  0
 23 20  1  0  0  0  0
 24 23  2  0  0  0  0
 25 27  1  0  0  0  0
 25 17  1  0  0  0  0
 26 24  1  1  0  0  0
 26 22  1  0  0  0  0
 26 25  1  0  0  0  0
 29 28  1  0  0  0  0
 31 30  1  0  0  0  0
 32 31  2  0  0  0  0
 33 32  1  0  0  0  0
 34 38  1  0  0  0  0
 35 39  1  1  0  0  0
 36 42  1  6  0  0  0
 36 34  1  0  0  0  0
 36 37  1  0  0  0  0
 36 33  1  0  0  0  0
 37 35  1  0  0  0  0
 38 35  1  0  0  0  0
 39 40  1  0  0  0  0
 39 41  1  0  0  0  0
 43 42  1  0  0  0  0
 44 48  1  6  0  0  0
 44 43  1  0  0  0  0
 45 46  1  0  0  0  0
 46 44  1  0  0  0  0
 46 47  1  0  0  0  0
 49 50  1  0  0  0  0
 49 48  1  0  0  0  0
 51 50  1  0  0  0  0
 52 51  1  0  0  0  0
 53 55  1  0  0  0  0
 54 53  1  0  0  0  0
 54 52  1  0  0  0  0
 54 55  1  0  0  0  0
M  END
>  <MODEL>
5

>  <REMARK>
 VINA RESULT:      -5.7      2.052      6.879
  Name = 
  24 active torsions:
  status: ('A' for Active; 'I' for Inactive)
    1  A    between atoms: C_1  and  C_21
    2  A    between atoms: C_2  and  C_28
    3  A    between atoms: C_2  and  N_44
    4  A    between atoms: C_4  and  C_19
    5  A    between atoms: C_4  and  C_37
    6  A    between atoms: N_6  and  C_46
    7  A    between atoms: C_8  and  C_22
    8  A    between atoms: C_8  and  C_35
    9  A    between atoms: N_10  and  C_32
   10  A    between atoms: C_15  and  C_17
   11  A    between atoms: C_16  and  C_17
   12  A    between atoms: C_16  and  C_26
   13  A    between atoms: C_17  and  C_36
   14  A    between atoms: C_20  and  C_22
   15  A    between atoms: C_22  and  C_46
   16  A    between atoms: C_26  and  C_45
   17  A    between atoms: C_27  and  C_54
   18  A    between atoms: N_33  and  O_49
   19  A    between atoms: C_34  and  O_49
   20  A    between atoms: C_34  and  O_52
   21  A    between atoms: C_35  and  C_43
   22  A    between atoms: C_36  and  O_52
   23  A    between atoms: C_37  and  C_45
   24  A    between atoms: C_43  and  C_54
                            x       y       z     vdW  Elec       q    Type
                         _______ _______ _______ _____ _____    ______ ____

>  <TORSDO>
F 24

$$$$
=
 OpenBabel10262420303D

 55 59  0  0  1  0  0  0  0  0999 V2000
  181.5820  179.3040  137.2590 C   0  0  0  0  0  2  0  0  0  0  0  0
  183.0160  178.7780  139.6030 C   0  0  2  0  0  3  0  0  0  0  0  0
  183.4590  178.1660  138.2710 C   0  0  0  0  0  2  0  0  0  0  0  0
  181.2390  179.8140  138.6580 C   0  0  0  0  0  2  0  0  0  0  0  0
  182.3120  178.0360  137.3640 N   0  0  0  0  0  0  0  0  0  0  0  0
  182.4240  180.0370  139.3790 O   0  0  0  0  0  0  0  0  0  0  0  0
  184.2420  178.9430  140.4830 C   0  0  0  0  0  2  0  0  0  0  0  0
  184.0550  178.2680  141.8280 C   0  0  2  0  0  3  0  0  0  0  0  0
  182.7960  178.8270  142.4650 C   0  0  0  0  0  1  0  0  0  0  0  0
  185.2610  178.5640  142.7100 C   0  0  0  0  0  2  0  0  0  0  0  0
  185.6560  177.3660  143.5710 C   0  0  0  0  0  2  0  0  0  0  0  0
  186.4190  177.7660  144.8370 C   0  0  2  0  0  3  0  0  0  0  0  0
  184.3510  178.8100  145.5120 O   0  0  0  0  0  1  0  0  0  0  0  0
  185.7390  178.9370  145.5610 C   0  0  1  0  0  3  0  0  0  0  0  0
  186.1630  178.9930  147.0190 C   0  0  0  0  0  1  0  0  0  0  0  0
  187.8440  178.1590  144.4520 C   0  0  0  0  0  2  0  0  0  0  0  0
  189.7250  176.6720  143.8480 C   0  0  2  0  0  3  0  0  0  0  0  0
  189.1230  177.2010  147.2430 O   0  0  0  0  0  1  0  0  0  0  0  0
  188.8250  177.1650  144.9120 N   0  0  0  0  0  0  0  0  0  0  0  0
  192.4130  174.5740  145.0340 C   0  0  0  0  0  3  0  0  0  0  0  0
  189.8190  179.0110  146.0430 O   0  0  0  0  0  1  0  0  0  0  0  0
  189.6830  177.6180  146.0320 C   0  0  0  0  0  0  0  0  0  0  0  0
  192.1760  174.8770  146.4590 C   0  0  0  0  0  3  0  0  0  0  0  0
  191.5070  175.9750  146.8280 C   0  0  0  0  0  3  0  0  0  0  0  0
  191.0030  176.4180  144.4730 N   0  0  0  0  0  0  0  0  0  0  0  0
  191.0660  176.9980  145.8040 C   0  0  1  0  0  3  0  0  0  0  0  0
  191.8230  175.3080  144.0890 C   0  0  0  0  0  3  0  0  0  0  0  0
  189.9080  177.6190  142.6480 C   0  0  0  0  0  2  0  0  0  0  0  0
  188.9450  177.3740  141.6670 O   0  0  0  0  0  1  0  0  0  0  0  0
  182.7640  177.6150  136.0300 C   0  0  0  0  0  2  0  0  0  0  0  0
  184.0180  176.7790  136.0370 C   0  0  0  0  0  3  0  0  0  0  0  0
  185.1430  177.2770  135.6430 N   0  0  0  0  0  0  0  0  0  0  0  0
  186.2860  176.5040  135.6720 O   0  0  0  0  0  0  0  0  0  0  0  0
  188.2010  175.4720  136.6490 C   0  0  0  0  0  2  0  0  0  0  0  0
  188.2680  177.6310  137.8230 C   0  0  1  0  0  3  0  0  0  0  0  0
  186.7780  175.9350  136.8920 C   0  0  1  0  0  0  0  0  0  0  0  0
  186.9020  176.9860  137.9950 C   0  0  0  0  0  2  0  0  0  0  0  0
  189.1270  176.5720  137.1380 C   0  0  0  0  0  2  0  0  0  0  0  0
  188.1630  178.8220  136.9770 N   0  0  0  0  0  0  0  0  0  0  0  0
  189.0500  179.7360  137.4400 O   0  0  0  0  0  1  0  0  0  0  0  0
  186.9330  179.3540  137.1760 O   0  0  0  0  0  1  0  0  0  0  0  0
  186.0130  174.8180  137.2980 O   0  0  0  0  0  0  0  0  0  0  0  0
  186.5220  173.6580  136.6850 C   0  0  0  0  0  2  0  0  0  0  0  0
  185.5630  173.1420  135.6110 C   0  0  1  0  0  3  0  0  0  0  0  0
  187.7700  172.2450  134.8100 C   0  0  0  0  0  1  0  0  0  0  0  0
  186.2640  172.2210  134.6030 C   0  0  0  0  0  3  0  0  0  0  0  0
  185.7880  170.7820  134.7330 C   0  0  0  0  0  1  0  0  0  0  0  0
  184.3840  172.4220  136.2620 C   0  0  0  0  0  2  0  0  0  0  0  0
  183.0650  173.0380  135.8220 C   0  0  0  0  0  2  0  0  0  0  0  0
  182.0530  173.0130  136.9560 C   0  0  0  0  0  2  0  0  0  0  0  0
  181.3660  174.3600  137.0970 C   0  0  0  0  0  2  0  0  0  0  0  0
  180.0190  174.2000  137.7780 C   0  0  0  0  0  2  0  0  0  0  0  0
  180.9610  175.5510  139.6120 C   0  0  0  0  0  2  0  0  0  0  0  0
  180.1780  174.2990  139.2800 C   0  0  0  0  0  3  0  0  0  0  0  0
  179.4580  175.5390  139.7720 C   0  0  0  0  0  2  0  0  0  0  0  0
  1  5  1  0  0  0  0
  1  4  1  0  0  0  0
  2  7  1  1  0  0  0
  3  2  1  0  0  0  0
  4  6  1  0  0  0  0
  5  3  1  0  0  0  0
  6  2  1  0  0  0  0
  7  8  1  0  0  0  0
  8  9  1  1  0  0  0
  8 10  1  0  0  0  0
 10 11  1  0  0  0  0
 12 11  1  6  0  0  0
 12 14  1  0  0  0  0
 13 14  1  0  0  0  0
 14 15  1  1  0  0  0
 16 12  1  0  0  0  0
 16 19  1  0  0  0  0
 17 28  1  6  0  0  0
 17 25  1  0  0  0  0
 17 19  1  0  0  0  0
 19 22  1  0  0  0  0
 20 23  1  0  0  0  0
 22 21  1  0  0  0  0
 22 18  1  0  0  0  0
 23 24  2  0  0  0  0
 25 26  1  0  0  0  0
 26 22  1  0  0  0  0
 26 24  1  1  0  0  0
 27 25  1  0  0  0  0
 27 20  2  0  0  0  0
 29 28  1  0  0  0  0
 30 31  1  0  0  0  0
 30  5  1  0  0  0  0
 32 33  1  0  0  0  0
 32 31  2  0  0  0  0
 34 36  1  0  0  0  0
 34 38  1  0  0  0  0
 35 39  1  6  0  0  0
 35 37  1  0  0  0  0
 36 33  1  6  0  0  0
 36 42  1  0  0  0  0
 36 37  1  0  0  0  0
 38 35  1  0  0  0  0
 39 41  1  0  0  0  0
 39 40  1  0  0  0  0
 43 42  1  0  0  0  0
 44 48  1  1  0  0  0
 44 43  1  0  0  0  0
 46 47  1  0  0  0  0
 46 45  1  0  0  0  0
 46 44  1  0  0  0  0
 49 48  1  0  0  0  0
 49 50  1  0  0  0  0
 50 51  1  0  0  0  0
 51 52  1  0  0  0  0
 52 54  1  0  0  0  0
 53 55  1  0  0  0  0
 54 53  1  0  0  0  0
 54 55  1  0  0  0  0
M  END
>  <MODEL>
6

>  <REMARK>
 VINA RESULT:      -5.5      2.346     10.059
  Name = 
  24 active torsions:
  status: ('A' for Active; 'I' for Inactive)
    1  A    between atoms: C_1  and  C_21
    2  A    between atoms: C_2  and  C_28
    3  A    between atoms: C_2  and  N_44
    4  A    between atoms: C_4  and  C_19
    5  A    between atoms: C_4  and  C_37
    6  A    between atoms: N_6  and  C_46
    7  A    between atoms: C_8  and  C_22
    8  A    between atoms: C_8  and  C_35
    9  A    between atoms: N_10  and  C_32
   10  A    between atoms: C_15  and  C_17
   11  A    between atoms: C_16  and  C_17
   12  A    between atoms: C_16  and  C_26
   13  A    between atoms: C_17  and  C_36
   14  A    between atoms: C_20  and  C_22
   15  A    between atoms: C_22  and  C_46
   16  A    between atoms: C_26  and  C_45
   17  A    between atoms: C_27  and  C_54
   18  A    between atoms: N_33  and  O_49
   19  A    between atoms: C_34  and  O_49
   20  A    between atoms: C_34  and  O_52
   21  A    between atoms: C_35  and  C_43
   22  A    between atoms: C_36  and  O_52
   23  A    between atoms: C_37  and  C_45
   24  A    between atoms: C_43  and  C_54
                            x       y       z     vdW  Elec       q    Type
                         _______ _______ _______ _____ _____    ______ ____

>  <TORSDO>
F 24

$$$$
=
 OpenBabel10262420303D

 55 59  0  0  1  0  0  0  0  0999 V2000
  190.7260  177.3280  139.7750 C   0  0  0  0  0  2  0  0  0  0  0  0
  188.7170  176.9730  137.8610 C   0  0  2  0  0  3  0  0  0  0  0  0
  188.3790  177.5440  139.2420 C   0  0  0  0  0  2  0  0  0  0  0  0
  190.9080  176.7390  138.3760 C   0  0  0  0  0  2  0  0  0  0  0  0
  189.3550  177.0830  140.2350 N   0  0  0  0  0  0  0  0  0  0  0  0
  190.0170  177.3630  137.4860 O   0  0  0  0  0  0  0  0  0  0  0  0
  187.7140  177.5200  136.8610 C   0  0  0  0  0  2  0  0  0  0  0  0
  187.1990  176.4320  135.9380 C   0  0  2  0  0  3  0  0  0  0  0  0
  188.2590  176.1680  134.8840 C   0  0  0  0  0  1  0  0  0  0  0  0
  185.9110  176.9040  135.2760 C   0  0  0  0  0  2  0  0  0  0  0  0
  184.7210  176.0140  135.6280 C   0  0  0  0  0  2  0  0  0  0  0  0
  184.8710  175.3260  136.9870 C   0  0  2  0  0  3  0  0  0  0  0  0
  186.1120  173.3620  137.6400 O   0  0  0  0  0  1  0  0  0  0  0  0
  185.0650  173.8110  136.8350 C   0  0  1  0  0  3  0  0  0  0  0  0
  183.8040  173.0590  137.2290 C   0  0  0  0  0  1  0  0  0  0  0  0
  183.6220  175.6010  137.8220 C   0  0  0  0  0  2  0  0  0  0  0  0
  181.8080  177.2230  137.3780 C   0  0  2  0  0  3  0  0  0  0  0  0
  184.6970  178.4280  138.9160 O   0  0  0  0  0  1  0  0  0  0  0  0
  183.2220  177.0150  137.7540 N   0  0  0  0  0  0  0  0  0  0  0  0
  180.6940  180.6470  137.6320 C   0  0  0  0  0  3  0  0  0  0  0  0
  183.4460  176.9530  140.1240 O   0  0  0  0  0  1  0  0  0  0  0  0
  183.4590  177.7830  138.9970 C   0  0  0  0  0  0  0  0  0  0  0  0
  181.9000  181.1080  138.3470 C   0  0  0  0  0  3  0  0  0  0  0  0
  182.6860  180.2450  139.0000 C   0  0  0  0  0  3  0  0  0  0  0  0
  181.3600  178.4000  138.0870 N   0  0  0  0  0  0  0  0  0  0  0  0
  182.3070  178.7860  139.1210 C   0  0  1  0  0  3  0  0  0  0  0  0
  180.4590  179.3410  137.4930 C   0  0  0  0  0  3  0  0  0  0  0  0
  180.8660  176.0420  137.6780 C   0  0  0  0  0  2  0  0  0  0  0  0
  179.9250  176.3890  138.6500 O   0  0  0  0  0  1  0  0  0  0  0  0
  189.1370  177.7670  141.5180 C   0  0  0  0  0  2  0  0  0  0  0  0
  188.0400  177.1670  142.3600 C   0  0  0  0  0  3  0  0  0  0  0  0
  187.0770  177.9030  142.8090 N   0  0  0  0  0  0  0  0  0  0  0  0
  186.0710  177.3350  143.5640 O   0  0  0  0  0  0  0  0  0  0  0  0
  185.9380  179.3800  144.7830 C   0  0  0  0  0  2  0  0  0  0  0  0
  183.5420  178.9930  144.3900 C   0  0  1  0  0  3  0  0  0  0  0  0
  185.6750  177.8880  144.8260 C   0  0  1  0  0  0  0  0  0  0  0  0
  184.1670  177.7720  145.0450 C   0  0  0  0  0  2  0  0  0  0  0  0
  184.6310  180.0610  144.4130 C   0  0  0  0  0  2  0  0  0  0  0  0
  183.1620  178.6890  143.0080 N   0  0  0  0  0  0  0  0  0  0  0  0
  183.9320  179.4500  142.1920 O   0  0  0  0  0  1  0  0  0  0  0  0
  181.8890  179.1180  142.8340 O   0  0  0  0  0  1  0  0  0  0  0  0
  186.4180  177.3380  145.8970 O   0  0  0  0  0  0  0  0  0  0  0  0
  187.0240  178.3790  146.6240 C   0  0  0  0  0  2  0  0  0  0  0  0
  188.4720  178.0310  146.9710 C   0  0  1  0  0  3  0  0  0  0  0  0
  189.8680  178.6520  148.9670 C   0  0  0  0  0  1  0  0  0  0  0  0
  188.6770  177.8410  148.4800 C   0  0  0  0  0  3  0  0  0  0  0  0
  187.4520  178.2710  149.2710 C   0  0  0  0  0  1  0  0  0  0  0  0
  188.9070  176.7790  146.2120 C   0  0  0  0  0  2  0  0  0  0  0  0
  189.9420  175.9980  147.0070 C   0  0  0  0  0  2  0  0  0  0  0  0
  191.3500  176.3930  146.5930 C   0  0  0  0  0  2  0  0  0  0  0  0
  191.6850  175.8390  145.2180 C   0  0  0  0  0  2  0  0  0  0  0  0
  191.4370  176.8860  144.1480 C   0  0  0  0  0  2  0  0  0  0  0  0
  191.8540  179.2410  143.5500 C   0  0  0  0  0  2  0  0  0  0  0  0
  191.6900  178.2710  144.7020 C   0  0  0  0  0  3  0  0  0  0  0  0
  190.5440  179.1790  144.3020 C   0  0  0  0  0  2  0  0  0  0  0  0
  1  5  1  0  0  0  0
  2  7  1  6  0  0  0
  2  3  1  0  0  0  0
  3  5  1  0  0  0  0
  4  1  1  0  0  0  0
  5 30  1  0  0  0  0
  6  2  1  0  0  0  0
  6  4  1  0  0  0  0
  8  9  1  6  0  0  0
  8  7  1  0  0  0  0
 10 11  1  0  0  0  0
 10  8  1  0  0  0  0
 12 11  1  6  0  0  0
 12 16  1  0  0  0  0
 14 12  1  0  0  0  0
 14 15  1  1  0  0  0
 14 13  1  0  0  0  0
 17 28  1  1  0  0  0
 17 19  1  0  0  0  0
 17 25  1  0  0  0  0
 18 22  1  0  0  0  0
 19 16  1  0  0  0  0
 19 22  1  0  0  0  0
 20 23  1  0  0  0  0
 22 26  1  0  0  0  0
 22 21  1  0  0  0  0
 23 24  2  0  0  0  0
 25 26  1  0  0  0  0
 26 24  1  6  0  0  0
 27 20  2  0  0  0  0
 27 25  1  0  0  0  0
 28 29  1  0  0  0  0
 30 31  1  0  0  0  0
 31 32  2  0  0  0  0
 32 33  1  0  0  0  0
 34 36  1  0  0  0  0
 35 39  1  6  0  0  0
 35 38  1  0  0  0  0
 35 37  1  0  0  0  0
 36 33  1  6  0  0  0
 36 37  1  0  0  0  0
 36 42  1  0  0  0  0
 38 34  1  0  0  0  0
 40 39  1  0  0  0  0
 41 39  1  0  0  0  0
 42 43  1  0  0  0  0
 43 44  1  0  0  0  0
 44 48  1  6  0  0  0
 44 46  1  0  0  0  0
 46 45  1  0  0  0  0
 46 47  1  0  0  0  0
 48 49  1  0  0  0  0
 50 49  1  0  0  0  0
 51 50  1  0  0  0  0
 52 54  1  0  0  0  0
 52 51  1  0  0  0  0
 53 55  1  0  0  0  0
 53 54  1  0  0  0  0
 55 54  1  0  0  0  0
M  END
>  <MODEL>
7

>  <REMARK>
 VINA RESULT:      -5.5      2.319      5.032
  Name = 
  24 active torsions:
  status: ('A' for Active; 'I' for Inactive)
    1  A    between atoms: C_1  and  C_21
    2  A    between atoms: C_2  and  C_28
    3  A    between atoms: C_2  and  N_44
    4  A    between atoms: C_4  and  C_19
    5  A    between atoms: C_4  and  C_37
    6  A    between atoms: N_6  and  C_46
    7  A    between atoms: C_8  and  C_22
    8  A    between atoms: C_8  and  C_35
    9  A    between atoms: N_10  and  C_32
   10  A    between atoms: C_15  and  C_17
   11  A    between atoms: C_16  and  C_17
   12  A    between atoms: C_16  and  C_26
   13  A    between atoms: C_17  and  C_36
   14  A    between atoms: C_20  and  C_22
   15  A    between atoms: C_22  and  C_46
   16  A    between atoms: C_26  and  C_45
   17  A    between atoms: C_27  and  C_54
   18  A    between atoms: N_33  and  O_49
   19  A    between atoms: C_34  and  O_49
   20  A    between atoms: C_34  and  O_52
   21  A    between atoms: C_35  and  C_43
   22  A    between atoms: C_36  and  O_52
   23  A    between atoms: C_37  and  C_45
   24  A    between atoms: C_43  and  C_54
                            x       y       z     vdW  Elec       q    Type
                         _______ _______ _______ _____ _____    ______ ____

>  <TORSDO>
F 24

$$$$
=
 OpenBabel10262420303D

 55 59  0  0  1  0  0  0  0  0999 V2000
  191.8770  176.5180  139.1730 C   0  0  0  0  0  2  0  0  0  0  0  0
  189.1110  176.8100  138.8710 C   0  0  2  0  0  3  0  0  0  0  0  0
  189.8620  177.6080  139.9430 C   0  0  0  0  0  2  0  0  0  0  0  0
  190.9950  175.7670  138.1770 C   0  0  0  0  0  2  0  0  0  0  0  0
  191.0810  176.8970  140.3450 N   0  0  0  0  0  0  0  0  0  0  0  0
  189.9460  176.6020  137.7560 O   0  0  0  0  0  0  0  0  0  0  0  0
  187.8920  177.6100  138.4490 C   0  0  0  0  0  2  0  0  0  0  0  0
  187.4010  177.1920  137.0760 C   0  0  2  0  0  3  0  0  0  0  0  0
  186.4060  178.2330  136.5960 C   0  0  0  0  0  1  0  0  0  0  0  0
  186.7250  175.8310  137.1780 C   0  0  0  0  0  2  0  0  0  0  0  0
  185.8310  175.5390  135.9750 C   0  0  0  0  0  2  0  0  0  0  0  0
  184.5260  174.8350  136.3570 C   0  0  2  0  0  3  0  0  0  0  0  0
  185.8130  172.9540  135.5640 O   0  0  0  0  0  1  0  0  0  0  0  0
  184.5270  173.3640  135.9170 C   0  0  1  0  0  3  0  0  0  0  0  0
  184.0280  172.4620  137.0350 C   0  0  0  0  0  1  0  0  0  0  0  0
  183.3580  175.5650  135.6980 C   0  0  0  0  0  2  0  0  0  0  0  0
  182.1270  177.7100  135.6500 C   0  0  2  0  0  3  0  0  0  0  0  0
  183.4370  176.6790  138.7140 O   0  0  0  0  0  1  0  0  0  0  0  0
  183.0280  176.8130  136.4040 N   0  0  0  0  0  0  0  0  0  0  0  0
  180.9590  180.5600  137.5330 C   0  0  0  0  0  3  0  0  0  0  0  0
  181.7670  175.3940  137.8420 O   0  0  0  0  0  1  0  0  0  0  0  0
  182.4310  176.6230  137.7450 C   0  0  0  0  0  0  0  0  0  0  0  0
  181.4630  180.0580  138.8260 C   0  0  0  0  0  3  0  0  0  0  0  0
  181.7210  178.7590  139.0080 C   0  0  0  0  0  3  0  0  0  0  0  0
  181.2960  178.3770  136.6260 N   0  0  0  0  0  0  0  0  0  0  0  0
  181.4030  177.7450  137.9310 C   0  0  1  0  0  3  0  0  0  0  0  0
  180.9070  179.7470  136.4760 C   0  0  0  0  0  3  0  0  0  0  0  0
  181.2440  177.0220  134.5940 C   0  0  0  0  0  2  0  0  0  0  0  0
  180.0050  176.6680  135.1330 O   0  0  0  0  0  1  0  0  0  0  0  0
  191.8880  177.7380  141.2400 C   0  0  0  0  0  2  0  0  0  0  0  0
  191.2620  177.9860  142.5880 C   0  0  0  0  0  3  0  0  0  0  0  0
  191.9430  177.8140  143.6730 N   0  0  0  0  0  0  0  0  0  0  0  0
  191.3600  178.0630  144.8990 O   0  0  0  0  0  0  0  0  0  0  0  0
  190.5320  175.8320  145.0480 C   0  0  0  0  0  2  0  0  0  0  0  0
  191.0700  176.2170  147.4150 C   0  0  1  0  0  3  0  0  0  0  0  0
  190.2550  177.2860  145.3770 C   0  0  1  0  0  0  0  0  0  0  0  0
  190.1580  177.3200  146.9020 C   0  0  0  0  0  2  0  0  0  0  0  0
  191.1320  175.1920  146.2870 C   0  0  0  0  0  2  0  0  0  0  0  0
  192.4070  176.7500  147.6880 N   0  0  0  0  0  0  0  0  0  0  0  0
  193.2180  175.7020  147.9730 O   0  0  0  0  0  1  0  0  0  0  0  0
  192.3260  177.4850  148.8240 O   0  0  0  0  0  1  0  0  0  0  0  0
  189.0420  177.6580  144.7530 O   0  0  0  0  0  0  0  0  0  0  0  0
  188.1930  178.2520  145.7040 C   0  0  0  0  0  2  0  0  0  0  0  0
  186.7610  177.7350  145.5580 C   0  0  1  0  0  3  0  0  0  0  0  0
  184.7230  177.7550  147.0290 C   0  0  0  0  0  1  0  0  0  0  0  0
  185.7480  178.6130  146.3050 C   0  0  0  0  0  3  0  0  0  0  0  0
  186.4290  179.5090  147.3280 C   0  0  0  0  0  1  0  0  0  0  0  0
  186.3900  177.6300  144.0800 C   0  0  0  0  0  2  0  0  0  0  0  0
  185.5630  178.8300  143.6450 C   0  0  0  0  0  2  0  0  0  0  0  0
  185.7780  179.1260  142.1700 C   0  0  0  0  0  2  0  0  0  0  0  0
  184.5480  178.7550  141.3590 C   0  0  0  0  0  2  0  0  0  0  0  0
  183.4450  178.2490  142.2690 C   0  0  0  0  0  2  0  0  0  0  0  0
  181.1920  179.0830  142.8210 C   0  0  0  0  0  2  0  0  0  0  0  0
  182.6700  179.4110  142.8500 C   0  0  0  0  0  3  0  0  0  0  0  0
  181.9670  178.9550  144.1130 C   0  0  0  0  0  2  0  0  0  0  0  0
  1  5  1  0  0  0  0
  2  7  1  6  0  0  0
  2  3  1  0  0  0  0
  3  5  1  0  0  0  0
  4  1  1  0  0  0  0
  5 30  1  0  0  0  0
  6  4  1  0  0  0  0
  6  2  1  0  0  0  0
  8  9  1  1  0  0  0
  8 10  1  0  0  0  0
  8  7  1  0  0  0  0
 11 12  1  0  0  0  0
 11 10  1  0  0  0  0
 12 16  1  6  0  0  0
 13 14  1  0  0  0  0
 14 12  1  0  0  0  0
 14 15  1  1  0  0  0
 16 19  1  0  0  0  0
 17 28  1  6  0  0  0
 17 19  1  0  0  0  0
 17 25  1  0  0  0  0
 19 22  1  0  0  0  0
 20 23  1  0  0  0  0
 22 21  1  0  0  0  0
 22 26  1  0  0  0  0
 22 18  1  0  0  0  0
 23 24  2  0  0  0  0
 25 26  1  0  0  0  0
 26 24  1  1  0  0  0
 27 25  1  0  0  0  0
 27 20  2  0  0  0  0
 28 29  1  0  0  0  0
 30 31  1  0  0  0  0
 31 32  2  0  0  0  0
 32 33  1  0  0  0  0
 33 36  1  0  0  0  0
 34 36  1  0  0  0  0
 34 38  1  0  0  0  0
 35 39  1  6  0  0  0
 36 42  1  6  0  0  0
 36 37  1  0  0  0  0
 37 35  1  0  0  0  0
 38 35  1  0  0  0  0
 39 40  1  0  0  0  0
 39 41  1  0  0  0  0
 42 43  1  0  0  0  0
 44 48  1  6  0  0  0
 44 43  1  0  0  0  0
 44 46  1  0  0  0  0
 46 45  1  0  0  0  0
 46 47  1  0  0  0  0
 49 48  1  0  0  0  0
 50 49  1  0  0  0  0
 51 50  1  0  0  0  0
 51 52  1  0  0  0  0
 52 54  1  0  0  0  0
 53 54  1  0  0  0  0
 53 55  1  0  0  0  0
 54 55  1  0  0  0  0
M  END
>  <MODEL>
8

>  <REMARK>
 VINA RESULT:      -5.4      2.078      2.889
  Name = 
  24 active torsions:
  status: ('A' for Active; 'I' for Inactive)
    1  A    between atoms: C_1  and  C_21
    2  A    between atoms: C_2  and  C_28
    3  A    between atoms: C_2  and  N_44
    4  A    between atoms: C_4  and  C_19
    5  A    between atoms: C_4  and  C_37
    6  A    between atoms: N_6  and  C_46
    7  A    between atoms: C_8  and  C_22
    8  A    between atoms: C_8  and  C_35
    9  A    between atoms: N_10  and  C_32
   10  A    between atoms: C_15  and  C_17
   11  A    between atoms: C_16  and  C_17
   12  A    between atoms: C_16  and  C_26
   13  A    between atoms: C_17  and  C_36
   14  A    between atoms: C_20  and  C_22
   15  A    between atoms: C_22  and  C_46
   16  A    between atoms: C_26  and  C_45
   17  A    between atoms: C_27  and  C_54
   18  A    between atoms: N_33  and  O_49
   19  A    between atoms: C_34  and  O_49
   20  A    between atoms: C_34  and  O_52
   21  A    between atoms: C_35  and  C_43
   22  A    between atoms: C_36  and  O_52
   23  A    between atoms: C_37  and  C_45
   24  A    between atoms: C_43  and  C_54
                            x       y       z     vdW  Elec       q    Type
                         _______ _______ _______ _____ _____    ______ ____

>  <TORSDO>
F 24

$$$$
=
 OpenBabel10262420303D

 55 59  0  0  1  0  0  0  0  0999 V2000
  187.9160  177.9110  138.5560 C   0  0  0  0  0  2  0  0  0  0  0  0
  185.6840  178.7560  140.0150 C   0  0  2  0  0  3  0  0  0  0  0  0
  185.5710  178.4930  138.5100 C   0  0  0  0  0  2  0  0  0  0  0  0
  187.8880  178.2440  140.0480 C   0  0  0  0  0  2  0  0  0  0  0  0
  186.8750  178.6770  137.8630 N   0  0  0  0  0  0  0  0  0  0  0  0
  186.6380  177.8900  140.5830 O   0  0  0  0  0  0  0  0  0  0  0  0
  184.3270  178.5010  140.6460 C   0  0  0  0  0  2  0  0  0  0  0  0
  184.4600  178.0590  142.0910 C   0  0  2  0  0  3  0  0  0  0  0  0
  183.2670  178.5960  142.8600 C   0  0  0  0  0  1  0  0  0  0  0  0
  185.7510  178.6220  142.6710 C   0  0  0  0  0  2  0  0  0  0  0  0
  185.6380  178.9040  144.1680 C   0  0  0  0  0  2  0  0  0  0  0  0
  186.4420  177.9210  145.0230 C   0  0  2  0  0  3  0  0  0  0  0  0
  186.5250  178.5390  147.3540 O   0  0  0  0  0  1  0  0  0  0  0  0
  185.8350  177.7620  146.4240 C   0  0  1  0  0  3  0  0  0  0  0  0
  184.3750  178.1860  146.4340 C   0  0  0  0  0  1  0  0  0  0  0  0
  187.8780  178.4300  145.1420 C   0  0  0  0  0  2  0  0  0  0  0  0
  189.6650  177.0320  144.1550 C   0  0  2  0  0  3  0  0  0  0  0  0
  189.2220  176.8670  147.6120 O   0  0  0  0  0  1  0  0  0  0  0  0
  188.8310  177.3270  145.3400 N   0  0  0  0  0  0  0  0  0  0  0  0
  192.2990  174.6380  144.7550 C   0  0  0  0  0  3  0  0  0  0  0  0
  189.9510  178.8610  146.7770 O   0  0  0  0  0  1  0  0  0  0  0  0
  189.7510  177.5060  146.4860 C   0  0  0  0  0  0  0  0  0  0  0  0
  192.1320  174.6480  146.2210 C   0  0  0  0  0  3  0  0  0  0  0  0
  191.5290  175.6690  146.8400 C   0  0  0  0  0  3  0  0  0  0  0  0
  190.9540  176.6090  144.6530 N   0  0  0  0  0  0  0  0  0  0  0  0
  191.0950  176.8970  146.0700 C   0  0  1  0  0  3  0  0  0  0  0  0
  191.7060  175.5730  144.0100 C   0  0  0  0  0  3  0  0  0  0  0  0
  189.8440  178.2010  143.1680 C   0  0  0  0  0  2  0  0  0  0  0  0
  190.8030  177.8940  142.2020 O   0  0  0  0  0  1  0  0  0  0  0  0
  186.8080  178.2560  136.4560 C   0  0  0  0  0  2  0  0  0  0  0  0
  186.4220  176.8130  136.2590 C   0  0  0  0  0  3  0  0  0  0  0  0
  185.2610  176.5010  135.7830 N   0  0  0  0  0  0  0  0  0  0  0  0
  184.9290  175.1750  135.5930 O   0  0  0  0  0  0  0  0  0  0  0  0
  183.3410  173.4180  135.8730 C   0  0  0  0  0  2  0  0  0  0  0  0
  185.3560  172.2700  136.6900 C   0  0  1  0  0  3  0  0  0  0  0  0
  184.2180  174.4280  136.5880 C   0  0  1  0  0  0  0  0  0  0  0  0
  185.1620  173.5780  137.4390 C   0  0  0  0  0  2  0  0  0  0  0  0
  184.0940  172.0990  135.8490 C   0  0  0  0  0  2  0  0  0  0  0  0
  186.5340  172.3510  135.8230 N   0  0  0  0  0  0  0  0  0  0  0  0
  186.3470  171.4900  134.7930 O   0  0  0  0  0  1  0  0  0  0  0  0
  187.5890  171.8750  136.5270 O   0  0  0  0  0  1  0  0  0  0  0  0
  183.3860  175.2580  137.3740 O   0  0  0  0  0  0  0  0  0  0  0  0
  182.0680  175.1890  136.8870 C   0  0  0  0  0  2  0  0  0  0  0  0
  181.2490  176.3930  137.3550 C   0  0  1  0  0  3  0  0  0  0  0  0
  180.1250  174.7730  138.9140 C   0  0  0  0  0  1  0  0  0  0  0  0
  180.6640  176.1870  138.7590 C   0  0  0  0  0  3  0  0  0  0  0  0
  181.7050  176.4210  139.8410 C   0  0  0  0  0  1  0  0  0  0  0  0
  182.1060  177.6570  137.3140 C   0  0  0  0  0  2  0  0  0  0  0  0
  181.3920  178.7690  136.5610 C   0  0  0  0  0  2  0  0  0  0  0  0
  180.5610  179.6160  137.5110 C   0  0  0  0  0  2  0  0  0  0  0  0
  181.4110  180.1290  138.6610 C   0  0  0  0  0  2  0  0  0  0  0  0
  181.8620  181.5530  138.3940 C   0  0  0  0  0  2  0  0  0  0  0  0
  180.0420  183.1770  138.0410 C   0  0  0  0  0  2  0  0  0  0  0  0
  180.9720  182.1980  137.3550 C   0  0  0  0  0  3  0  0  0  0  0  0
  181.2630  183.6850  137.3100 C   0  0  0  0  0  2  0  0  0  0  0  0
  1  4  1  0  0  0  0
  2  6  1  0  0  0  0
  2  7  1  1  0  0  0
  3  2  1  0  0  0  0
  4  6  1  0  0  0  0
  5  3  1  0  0  0  0
  5  1  1  0  0  0  0
  7  8  1  0  0  0  0
  8 10  1  0  0  0  0
  8  9  1  1  0  0  0
 10 11  1  0  0  0  0
 12 11  1  6  0  0  0
 12 16  1  0  0  0  0
 12 14  1  0  0  0  0
 14 15  1  6  0  0  0
 14 13  1  0  0  0  0
 16 19  1  0  0  0  0
 17 28  1  6  0  0  0
 17 25  1  0  0  0  0
 17 19  1  0  0  0  0
 19 22  1  0  0  0  0
 20 23  1  0  0  0  0
 22 21  1  0  0  0  0
 22 18  1  0  0  0  0
 23 24  2  0  0  0  0
 25 26  1  0  0  0  0
 26 22  1  0  0  0  0
 26 24  1  1  0  0  0
 27 25  1  0  0  0  0
 27 20  2  0  0  0  0
 29 28  1  0  0  0  0
 30  5  1  0  0  0  0
 31 30  1  0  0  0  0
 32 31  2  0  0  0  0
 33 32  1  0  0  0  0
 34 36  1  0  0  0  0
 35 39  1  6  0  0  0
 35 37  1  0  0  0  0
 36 33  1  6  0  0  0
 36 42  1  0  0  0  0
 36 37  1  0  0  0  0
 38 34  1  0  0  0  0
 38 35  1  0  0  0  0
 39 41  1  0  0  0  0
 40 39  1  0  0  0  0
 43 42  1  0  0  0  0
 44 43  1  1  0  0  0
 44 46  1  0  0  0  0
 46 45  1  0  0  0  0
 46 47  1  0  0  0  0
 48 44  1  0  0  0  0
 49 48  1  0  0  0  0
 49 50  1  0  0  0  0
 50 51  1  0  0  0  0
 52 51  1  0  0  0  0
 54 53  1  0  0  0  0
 54 52  1  0  0  0  0
 55 54  1  0  0  0  0
 55 53  1  0  0  0  0
M  END
>  <MODEL>
9

>  <REMARK>
 VINA RESULT:      -5.2      2.447      9.919
  Name = 
  24 active torsions:
  status: ('A' for Active; 'I' for Inactive)
    1  A    between atoms: C_1  and  C_21
    2  A    between atoms: C_2  and  C_28
    3  A    between atoms: C_2  and  N_44
    4  A    between atoms: C_4  and  C_19
    5  A    between atoms: C_4  and  C_37
    6  A    between atoms: N_6  and  C_46
    7  A    between atoms: C_8  and  C_22
    8  A    between atoms: C_8  and  C_35
    9  A    between atoms: N_10  and  C_32
   10  A    between atoms: C_15  and  C_17
   11  A    between atoms: C_16  and  C_17
   12  A    between atoms: C_16  and  C_26
   13  A    between atoms: C_17  and  C_36
   14  A    between atoms: C_20  and  C_22
   15  A    between atoms: C_22  and  C_46
   16  A    between atoms: C_26  and  C_45
   17  A    between atoms: C_27  and  C_54
   18  A    between atoms: N_33  and  O_49
   19  A    between atoms: C_34  and  O_49
   20  A    between atoms: C_34  and  O_52
   21  A    between atoms: C_35  and  C_43
   22  A    between atoms: C_36  and  O_52
   23  A    between atoms: C_37  and  C_45
   24  A    between atoms: C_43  and  C_54
                            x       y       z     vdW  Elec       q    Type
                         _______ _______ _______ _____ _____    ______ ____

>  <TORSDO>
F 24

$$$$
