=
 OpenBabel10262419523D

 25 29  0  0  1  0  0  0  0  0999 V2000
  187.1990  177.9720  145.4910 C   0  0  0  0  0  0  0  0  0  0  0  0
  188.4970  177.6000  145.1070 C   0  0  0  0  0  0  0  0  0  0  0  0
  187.8400  177.8770  147.7950 N   0  0  0  0  0  0  0  0  0  0  0  0
  186.0790  178.2530  144.6890 C   0  0  0  0  0  0  0  0  0  0  0  0
  183.6580  178.8810  143.4430 C   0  0  0  0  0  3  0  0  0  0  0  0
  189.0780  177.5150  147.4420 N   0  0  0  0  0  0  0  0  0  0  0  0
  184.9550  178.5930  145.4410 C   0  0  0  0  0  0  0  0  0  0  0  0
  183.7370  178.9110  144.8430 C   0  0  0  0  0  3  0  0  0  0  0  0
  190.8220  176.9770  145.7880 C   0  0  0  0  0  0  0  0  0  0  0  0
  191.6710  176.7770  146.6970 O   0  0  0  0  0  0  0  0  0  0  0  0
  188.8700  177.3830  143.6650 C   0  0  0  0  0  2  0  0  0  0  0  0
  184.7850  178.5400  142.6730 C   0  0  0  0  0  3  0  0  0  0  0  0
  186.9090  178.1050  146.8400 C   0  0  0  0  0  0  0  0  0  0  0  0
  185.3050  178.5580  147.0910 S   0  0  0  0  0  0  0  0  0  0  0  0
  190.3600  177.6410  143.4320 C   0  0  1  0  0  3  0  0  0  0  0  0
  186.0040  178.2250  143.2930 C   0  0  0  0  0  3  0  0  0  0  0  0
  191.2160  176.7730  144.3570 C   0  0  0  0  0  2  0  0  0  0  0  0
  189.4400  177.3610  146.1320 C   0  0  0  0  0  0  0  0  0  0  0  0
  192.3690  177.2910  140.2180 C   0  0  0  0  0  0  0  0  0  0  0  0
  190.7230  177.4210  141.9980 C   0  0  0  0  0  0  0  0  0  0  0  0
  192.0550  177.5030  141.5640 C   0  0  0  0  0  3  0  0  0  0  0  0
  193.6880  177.3710  139.7920 O   0  0  0  0  0  1  0  0  0  0  0  0
  189.7130  177.1280  141.0770 C   0  0  0  0  0  3  0  0  0  0  0  0
  191.3550  176.9980  139.3010 C   0  0  0  0  0  3  0  0  0  0  0  0
  190.0270  176.9170  139.7310 C   0  0  0  0  0  3  0  0  0  0  0  0
  1 13  1  0  0  0  0
  2  1  2  0  0  0  0
  2 18  1  0  0  0  0
  4  7  1  0  0  0  0
  4  1  1  0  0  0  0
  5  8  1  0  0  0  0
  6  3  1  0  0  0  0
  7 14  1  0  0  0  0
  8  7  2  0  0  0  0
  9 18  1  0  0  0  0
  9 10  2  0  0  0  0
 11  2  1  0  0  0  0
 12 16  1  0  0  0  0
 12  5  2  0  0  0  0
 13 14  1  0  0  0  0
 13  3  2  0  0  0  0
 15 20  1  6  0  0  0
 15 11  1  0  0  0  0
 15 17  1  0  0  0  0
 16  4  2  0  0  0  0
 17  9  1  0  0  0  0
 18  6  2  0  0  0  0
 19 21  1  0  0  0  0
 21 20  2  0  0  0  0
 22 19  1  0  0  0  0
 23 20  1  0  0  0  0
 24 25  1  0  0  0  0
 24 19  2  0  0  0  0
 25 23  2  0  0  0  0
M  END
>  <MODEL>
1

>  <REMARK>
 VINA RESULT:     -11.4      0.000      0.000
  Name = 
  1 active torsions:
  status: ('A' for Active; 'I' for Inactive)
    1  A    between atoms: C_6  and  C_20
                            x       y       z     vdW  Elec       q    Type
                         _______ _______ _______ _____ _____    ______ ____

>  <TORSDO>
F 1

$$$$
=
 OpenBabel10262419523D

 25 29  0  0  1  0  0  0  0  0999 V2000
  186.9770  177.8540  144.8140 C   0  0  0  0  0  0  0  0  0  0  0  0
  188.1390  177.4780  144.1230 C   0  0  0  0  0  0  0  0  0  0  0  0
  188.0970  177.5250  146.9040 N   0  0  0  0  0  0  0  0  0  0  0  0
  185.7260  178.2430  144.3050 C   0  0  0  0  0  0  0  0  0  0  0  0
  183.1280  179.0620  143.6810 C   0  0  0  0  0  3  0  0  0  0  0  0
  189.2080  177.1580  146.2570 N   0  0  0  0  0  0  0  0  0  0  0  0
  184.8100  178.5480  145.3120 C   0  0  0  0  0  0  0  0  0  0  0  0
  183.5100  178.9590  145.0270 C   0  0  0  0  0  3  0  0  0  0  0  0
  190.5220  176.7200  144.2200 C   0  0  0  0  0  0  0  0  0  0  0  0
  191.5370  176.4100  144.8990 O   0  0  0  0  0  0  0  0  0  0  0  0
  188.1790  177.3840  142.6210 C   0  0  0  0  0  2  0  0  0  0  0  0
  184.0420  178.7580  142.6560 C   0  0  0  0  0  3  0  0  0  0  0  0
  186.9940  177.8700  146.1990 C   0  0  0  0  0  0  0  0  0  0  0  0
  185.5080  178.3490  146.8350 S   0  0  0  0  0  0  0  0  0  0  0  0
  189.5950  177.6140  142.0880 C   0  0  1  0  0  3  0  0  0  0  0  0
  185.3480  178.3470  142.9620 C   0  0  0  0  0  3  0  0  0  0  0  0
  190.5850  176.6370  142.7250 C   0  0  0  0  0  2  0  0  0  0  0  0
  189.2690  177.1140  144.8910 C   0  0  0  0  0  0  0  0  0  0  0  0
  188.8050  178.1690  138.4060 C   0  0  0  0  0  0  0  0  0  0  0  0
  189.6260  177.5170  140.5960 C   0  0  0  0  0  0  0  0  0  0  0  0
  188.7550  178.2760  139.7990 C   0  0  0  0  0  3  0  0  0  0  0  0
  187.9430  178.9220  137.6200 O   0  0  0  0  0  1  0  0  0  0  0  0
  190.5420  176.6520  139.9880 C   0  0  0  0  0  3  0  0  0  0  0  0
  189.7230  177.3030  137.8040 C   0  0  0  0  0  3  0  0  0  0  0  0
  190.5910  176.5450  138.5950 C   0  0  0  0  0  3  0  0  0  0  0  0
  1 13  1  0  0  0  0
  2  1  2  0  0  0  0
  2 18  1  0  0  0  0
  4  1  1  0  0  0  0
  4  7  1  0  0  0  0
  5  8  1  0  0  0  0
  6  3  1  0  0  0  0
  7 14  1  0  0  0  0
  8  7  2  0  0  0  0
  9 18  1  0  0  0  0
  9 10  2  0  0  0  0
 11  2  1  0  0  0  0
 12 16  1  0  0  0  0
 12  5  2  0  0  0  0
 13 14  1  0  0  0  0
 13  3  2  0  0  0  0
 15 20  1  6  0  0  0
 15 11  1  0  0  0  0
 15 17  1  0  0  0  0
 16  4  2  0  0  0  0
 17  9  1  0  0  0  0
 18  6  2  0  0  0  0
 19 21  1  0  0  0  0
 21 20  2  0  0  0  0
 22 19  1  0  0  0  0
 23 20  1  0  0  0  0
 24 19  2  0  0  0  0
 24 25  1  0  0  0  0
 25 23  2  0  0  0  0
M  END
>  <MODEL>
2

>  <REMARK>
 VINA RESULT:     -11.1      1.667      2.048
  Name = 
  1 active torsions:
  status: ('A' for Active; 'I' for Inactive)
    1  A    between atoms: C_6  and  C_20
                            x       y       z     vdW  Elec       q    Type
                         _______ _______ _______ _____ _____    ______ ____

>  <TORSDO>
F 1

$$$$
=
 OpenBabel10262419523D

 25 29  0  0  1  0  0  0  0  0999 V2000
  186.0230  178.4630  141.8800 C   0  0  0  0  0  0  0  0  0  0  0  0
  187.3900  178.1920  142.0460 C   0  0  0  0  0  0  0  0  0  0  0  0
  186.3200  178.5680  139.5070 N   0  0  0  0  0  0  0  0  0  0  0  0
  185.0150  178.5880  142.8510 C   0  0  0  0  0  0  0  0  0  0  0  0
  182.7610  178.9020  144.4730 C   0  0  0  0  0  3  0  0  0  0  0  0
  187.6250  178.3180  139.6530 N   0  0  0  0  0  0  0  0  0  0  0  0
  183.7660  178.8600  142.2950 C   0  0  0  0  0  0  0  0  0  0  0  0
  182.6280  179.0200  143.0810 C   0  0  0  0  0  3  0  0  0  0  0  0
  189.6340  177.8420  140.9960 C   0  0  0  0  0  0  0  0  0  0  0  0
  190.3520  177.7740  139.9640 O   0  0  0  0  0  0  0  0  0  0  0  0
  188.0130  178.0430  143.4090 C   0  0  0  0  0  2  0  0  0  0  0  0
  184.0150  178.6270  145.0470 C   0  0  0  0  0  3  0  0  0  0  0  0
  185.5240  178.6400  140.5990 C   0  0  0  0  0  0  0  0  0  0  0  0
  183.8680  178.9520  140.6130 S   0  0  0  0  0  0  0  0  0  0  0  0
  189.2520  177.1450  143.3570 C   0  0  1  0  0  3  0  0  0  0  0  0
  185.1520  178.4670  144.2380 C   0  0  0  0  0  3  0  0  0  0  0  0
  190.2680  177.6740  142.3440 C   0  0  0  0  0  2  0  0  0  0  0  0
  188.1930  178.1340  140.8840 C   0  0  0  0  0  0  0  0  0  0  0  0
  189.7400  177.1810  147.1320 C   0  0  0  0  0  0  0  0  0  0  0  0
  189.8660  177.0040  144.7130 C   0  0  0  0  0  0  0  0  0  0  0  0
  189.1450  177.3240  145.8750 C   0  0  0  0  0  3  0  0  0  0  0  0
  189.0240  177.4960  148.2790 O   0  0  0  0  0  1  0  0  0  0  0  0
  191.1820  176.5440  144.8220 C   0  0  0  0  0  3  0  0  0  0  0  0
  191.0570  176.7210  147.2340 C   0  0  0  0  0  3  0  0  0  0  0  0
  191.7770  176.4020  146.0790 C   0  0  0  0  0  3  0  0  0  0  0  0
  1  2  1  0  0  0  0
  1  4  1  0  0  0  0
  2 11  1  0  0  0  0
  3  6  2  0  0  0  0
  3 13  1  0  0  0  0
  4 16  1  0  0  0  0
  5 12  1  0  0  0  0
  6 18  1  0  0  0  0
  7  4  2  0  0  0  0
  7  8  1  0  0  0  0
  8  5  2  0  0  0  0
  9 17  1  0  0  0  0
 10  9  2  0  0  0  0
 13 14  1  0  0  0  0
 13  1  2  0  0  0  0
 14  7  1  0  0  0  0
 15 11  1  0  0  0  0
 15 20  1  1  0  0  0
 16 12  2  0  0  0  0
 17 15  1  0  0  0  0
 18  9  1  0  0  0  0
 18  2  2  0  0  0  0
 19 24  1  0  0  0  0
 19 22  1  0  0  0  0
 20 23  2  0  0  0  0
 20 21  1  0  0  0  0
 21 19  2  0  0  0  0
 23 25  1  0  0  0  0
 25 24  2  0  0  0  0
M  END
>  <MODEL>
3

>  <REMARK>
 VINA RESULT:     -11.0      3.085      5.271
  Name = 
  1 active torsions:
  status: ('A' for Active; 'I' for Inactive)
    1  A    between atoms: C_6  and  C_20
                            x       y       z     vdW  Elec       q    Type
                         _______ _______ _______ _____ _____    ______ ____

>  <TORSDO>
F 1

$$$$
=
 OpenBabel10262419523D

 25 29  0  0  1  0  0  0  0  0999 V2000
  186.9860  177.8070  144.8150 C   0  0  0  0  0  0  0  0  0  0  0  0
  188.1510  177.4060  144.1430 C   0  0  0  0  0  0  0  0  0  0  0  0
  188.0840  177.5120  146.9210 N   0  0  0  0  0  0  0  0  0  0  0  0
  185.7430  178.1980  144.2870 C   0  0  0  0  0  0  0  0  0  0  0  0
  183.1590  179.0270  143.6220 C   0  0  0  0  0  3  0  0  0  0  0  0
  189.1970  177.1210  146.2920 N   0  0  0  0  0  0  0  0  0  0  0  0
  184.8220  178.5330  145.2790 C   0  0  0  0  0  0  0  0  0  0  0  0
  183.5280  178.9490  144.9730 C   0  0  0  0  0  3  0  0  0  0  0  0
  190.5250  176.6280  144.2770 C   0  0  0  0  0  0  0  0  0  0  0  0
  191.5310  176.3220  144.9710 O   0  0  0  0  0  0  0  0  0  0  0  0
  188.2030  177.2800  142.6440 C   0  0  0  0  0  2  0  0  0  0  0  0
  184.0790  178.6930  142.6120 C   0  0  0  0  0  3  0  0  0  0  0  0
  186.9910  177.8520  146.2000 C   0  0  0  0  0  0  0  0  0  0  0  0
  185.5040  178.3590  146.8120 S   0  0  0  0  0  0  0  0  0  0  0  0
  189.6260  177.4850  142.1190 C   0  0  1  0  0  3  0  0  0  0  0  0
  185.3790  178.2770  142.9390 C   0  0  0  0  0  3  0  0  0  0  0  0
  190.6000  176.5130  142.7850 C   0  0  0  0  0  2  0  0  0  0  0  0
  189.2700  177.0480  144.9290 C   0  0  0  0  0  0  0  0  0  0  0  0
  190.8070  176.7080  138.5850 C   0  0  0  0  0  0  0  0  0  0  0  0
  189.6690  177.3560  140.6290 C   0  0  0  0  0  0  0  0  0  0  0  0
  190.7910  176.8210  139.9780 C   0  0  0  0  0  3  0  0  0  0  0  0
  191.9170  176.1780  137.9430 O   0  0  0  0  0  1  0  0  0  0  0  0
  188.5680  177.7770  139.8760 C   0  0  0  0  0  3  0  0  0  0  0  0
  189.7030  177.1310  137.8360 C   0  0  0  0  0  3  0  0  0  0  0  0
  188.5840  177.6650  138.4830 C   0  0  0  0  0  3  0  0  0  0  0  0
  1 13  1  0  0  0  0
  2  1  2  0  0  0  0
  2 18  1  0  0  0  0
  4  1  1  0  0  0  0
  4  7  1  0  0  0  0
  5  8  1  0  0  0  0
  6  3  1  0  0  0  0
  7 14  1  0  0  0  0
  8  7  2  0  0  0  0
  9 18  1  0  0  0  0
  9 10  2  0  0  0  0
 11  2  1  0  0  0  0
 12 16  1  0  0  0  0
 12  5  2  0  0  0  0
 13 14  1  0  0  0  0
 13  3  2  0  0  0  0
 15 20  1  6  0  0  0
 15 11  1  0  0  0  0
 15 17  1  0  0  0  0
 16  4  2  0  0  0  0
 17  9  1  0  0  0  0
 18  6  2  0  0  0  0
 19 21  1  0  0  0  0
 21 20  2  0  0  0  0
 22 19  1  0  0  0  0
 23 20  1  0  0  0  0
 24 25  1  0  0  0  0
 24 19  2  0  0  0  0
 25 23  2  0  0  0  0
M  END
>  <MODEL>
4

>  <REMARK>
 VINA RESULT:     -10.8      1.192      1.465
  Name = 
  1 active torsions:
  status: ('A' for Active; 'I' for Inactive)
    1  A    between atoms: C_6  and  C_20
                            x       y       z     vdW  Elec       q    Type
                         _______ _______ _______ _____ _____    ______ ____

>  <TORSDO>
F 1

$$$$
=
 OpenBabel10262419523D

 25 29  0  0  1  0  0  0  0  0999 V2000
  188.9410  177.6760  143.8170 C   0  0  0  0  0  0  0  0  0  0  0  0
  187.9460  177.9140  142.8560 C   0  0  0  0  0  0  0  0  0  0  0  0
  190.6210  177.7380  142.1140 N   0  0  0  0  0  0  0  0  0  0  0  0
  188.8120  177.4950  145.2050 C   0  0  0  0  0  0  0  0  0  0  0  0
  188.9580  177.0970  147.9670 C   0  0  0  0  0  3  0  0  0  0  0  0
  189.6820  177.9580  141.1880 N   0  0  0  0  0  0  0  0  0  0  0  0
  190.0390  177.2820  145.8330 C   0  0  0  0  0  0  0  0  0  0  0  0
  190.1380  177.0810  147.2080 C   0  0  0  0  0  3  0  0  0  0  0  0
  187.3570  178.3070  140.4560 C   0  0  0  0  0  0  0  0  0  0  0  0
  187.7160  178.4390  139.2560 O   0  0  0  0  0  0  0  0  0  0  0  0
  186.4850  177.9560  143.2130 C   0  0  0  0  0  2  0  0  0  0  0  0
  187.7150  177.3120  147.3460 C   0  0  0  0  0  3  0  0  0  0  0  0
  190.2640  177.5980  143.4110 C   0  0  0  0  0  0  0  0  0  0  0  0
  191.2980  177.3100  144.7110 S   0  0  0  0  0  0  0  0  0  0  0  0
  185.7000  178.8370  142.2390 C   0  0  1  0  0  3  0  0  0  0  0  0
  187.6340  177.5130  145.9590 C   0  0  0  0  0  3  0  0  0  0  0  0
  185.8990  178.3680  140.7970 C   0  0  0  0  0  2  0  0  0  0  0  0
  188.3560  178.0450  141.5080 C   0  0  0  0  0  0  0  0  0  0  0  0
  181.9030  178.7700  141.9830 C   0  0  0  0  0  0  0  0  0  0  0  0
  184.2490  178.8710  142.6000 C   0  0  0  0  0  0  0  0  0  0  0  0
  183.2520  178.7380  141.6200 C   0  0  0  0  0  3  0  0  0  0  0  0
  180.9190  178.6370  141.0130 O   0  0  0  0  0  1  0  0  0  0  0  0
  183.8830  179.0380  143.9390 C   0  0  0  0  0  3  0  0  0  0  0  0
  181.5430  178.9380  143.3240 C   0  0  0  0  0  3  0  0  0  0  0  0
  182.5340  179.0720  144.3020 C   0  0  0  0  0  3  0  0  0  0  0  0
  1  4  1  0  0  0  0
  2 11  1  0  0  0  0
  2  1  1  0  0  0  0
  3 13  1  0  0  0  0
  4  7  2  0  0  0  0
  4 16  1  0  0  0  0
  6 18  1  0  0  0  0
  6  3  2  0  0  0  0
  7  8  1  0  0  0  0
  8  5  2  0  0  0  0
  9 17  1  0  0  0  0
  9 18  1  0  0  0  0
 10  9  2  0  0  0  0
 12  5  1  0  0  0  0
 13  1  2  0  0  0  0
 13 14  1  0  0  0  0
 14  7  1  0  0  0  0
 15 20  1  1  0  0  0
 15 11  1  0  0  0  0
 16 12  2  0  0  0  0
 17 15  1  0  0  0  0
 18  2  2  0  0  0  0
 19 24  1  0  0  0  0
 20 23  2  0  0  0  0
 21 19  2  0  0  0  0
 21 20  1  0  0  0  0
 22 19  1  0  0  0  0
 23 25  1  0  0  0  0
 24 25  2  0  0  0  0
M  END
>  <MODEL>
5

>  <REMARK>
 VINA RESULT:     -10.3      3.711      6.925
  Name = 
  1 active torsions:
  status: ('A' for Active; 'I' for Inactive)
    1  A    between atoms: C_6  and  C_20
                            x       y       z     vdW  Elec       q    Type
                         _______ _______ _______ _____ _____    ______ ____

>  <TORSDO>
F 1

$$$$
=
 OpenBabel10262419523D

 25 29  0  0  1  0  0  0  0  0999 V2000
  188.5360  177.6540  144.6660 C   0  0  0  0  0  0  0  0  0  0  0  0
  187.1800  178.0150  144.6750 C   0  0  0  0  0  0  0  0  0  0  0  0
  188.5090  177.4440  147.0500 N   0  0  0  0  0  0  0  0  0  0  0  0
  189.4140  177.5190  143.5770 C   0  0  0  0  0  0  0  0  0  0  0  0
  191.4380  177.1470  141.6870 C   0  0  0  0  0  3  0  0  0  0  0  0
  187.2190  177.7940  147.0720 N   0  0  0  0  0  0  0  0  0  0  0  0
  190.6970  177.1370  143.9680 C   0  0  0  0  0  0  0  0  0  0  0  0
  191.7220  176.9450  143.0450 C   0  0  0  0  0  3  0  0  0  0  0  0
  185.1020  178.4550  145.9990 C   0  0  0  0  0  0  0  0  0  0  0  0
  184.5140  178.5080  147.1120 O   0  0  0  0  0  0  0  0  0  0  0  0
  186.4460  178.3890  143.4150 C   0  0  0  0  0  2  0  0  0  0  0  0
  190.1480  177.5310  141.2790 C   0  0  0  0  0  3  0  0  0  0  0  0
  189.1640  177.3720  145.8690 C   0  0  0  0  0  0  0  0  0  0  0  0
  190.7830  176.9580  145.6440 S   0  0  0  0  0  0  0  0  0  0  0  0
  184.9480  178.1000  143.5390 C   0  0  1  0  0  3  0  0  0  0  0  0
  189.1260  177.7190  142.2230 C   0  0  0  0  0  3  0  0  0  0  0  0
  184.3520  178.8130  144.7530 C   0  0  0  0  0  2  0  0  0  0  0  0
  186.5300  178.0900  145.9290 C   0  0  0  0  0  0  0  0  0  0  0  0
  184.2230  179.2930  139.9980 C   0  0  0  0  0  0  0  0  0  0  0  0
  184.2260  178.4760  142.2840 C   0  0  0  0  0  0  0  0  0  0  0  0
  184.9200  178.9510  141.1600 C   0  0  0  0  0  3  0  0  0  0  0  0
  184.9120  179.7620  138.8870 O   0  0  0  0  0  1  0  0  0  0  0  0
  182.8340  178.3500  142.2340 C   0  0  0  0  0  3  0  0  0  0  0  0
  182.8310  179.1660  139.9540 C   0  0  0  0  0  3  0  0  0  0  0  0
  182.1370  178.6940  141.0720 C   0  0  0  0  0  3  0  0  0  0  0  0
  1  2  2  0  0  0  0
  1 13  1  0  0  0  0
  2 18  1  0  0  0  0
  3  6  1  0  0  0  0
  4  7  1  0  0  0  0
  4  1  1  0  0  0  0
  5  8  1  0  0  0  0
  7 14  1  0  0  0  0
  8  7  2  0  0  0  0
  9 10  2  0  0  0  0
 11 15  1  0  0  0  0
 11  2  1  0  0  0  0
 12  5  2  0  0  0  0
 12 16  1  0  0  0  0
 13  3  2  0  0  0  0
 14 13  1  0  0  0  0
 15 20  1  6  0  0  0
 15 17  1  0  0  0  0
 16  4  2  0  0  0  0
 17  9  1  0  0  0  0
 18  9  1  0  0  0  0
 18  6  2  0  0  0  0
 19 21  1  0  0  0  0
 21 20  2  0  0  0  0
 22 19  1  0  0  0  0
 23 20  1  0  0  0  0
 24 19  2  0  0  0  0
 24 25  1  0  0  0  0
 25 23  2  0  0  0  0
M  END
>  <MODEL>
6

>  <REMARK>
 VINA RESULT:     -10.3      2.942      6.044
  Name = 
  1 active torsions:
  status: ('A' for Active; 'I' for Inactive)
    1  A    between atoms: C_6  and  C_20
                            x       y       z     vdW  Elec       q    Type
                         _______ _______ _______ _____ _____    ______ ____

>  <TORSDO>
F 1

$$$$
=
 OpenBabel10262419523D

 25 29  0  0  1  0  0  0  0  0999 V2000
  188.3920  177.6170  144.2980 C   0  0  0  0  0  0  0  0  0  0  0  0
  188.3770  177.8020  142.9070 C   0  0  0  0  0  0  0  0  0  0  0  0
  186.0880  178.2530  144.4210 N   0  0  0  0  0  0  0  0  0  0  0  0
  189.4490  177.2090  145.1300 C   0  0  0  0  0  0  0  0  0  0  0  0
  191.2840  176.4300  147.0890 C   0  0  0  0  0  3  0  0  0  0  0  0
  186.0630  178.4410  143.0970 N   0  0  0  0  0  0  0  0  0  0  0  0
  189.0760  177.1360  146.4720 C   0  0  0  0  0  0  0  0  0  0  0  0
  189.9710  176.7510  147.4670 C   0  0  0  0  0  3  0  0  0  0  0  0
  187.0900  178.4390  140.8580 C   0  0  0  0  0  0  0  0  0  0  0  0
  186.0110  178.8120  140.3240 O   0  0  0  0  0  0  0  0  0  0  0  0
  189.6130  177.6260  142.0650 C   0  0  0  0  0  2  0  0  0  0  0  0
  191.6730  176.4990  145.7390 C   0  0  0  0  0  3  0  0  0  0  0  0
  187.2310  177.8470  145.0190 C   0  0  0  0  0  0  0  0  0  0  0  0
  187.4560  177.5670  146.6660 S   0  0  0  0  0  0  0  0  0  0  0  0
  189.2560  177.2300  140.6310 C   0  0  1  0  0  3  0  0  0  0  0  0
  190.7560  176.8880  144.7500 C   0  0  0  0  0  3  0  0  0  0  0  0
  188.3060  178.2520  140.0030 C   0  0  0  0  0  2  0  0  0  0  0  0
  187.1680  178.2370  142.3170 C   0  0  0  0  0  0  0  0  0  0  0  0
  192.9020  177.1280  139.5420 C   0  0  0  0  0  0  0  0  0  0  0  0
  190.4890  177.0590  139.8010 C   0  0  0  0  0  0  0  0  0  0  0  0
  191.7640  177.2970  140.3360 C   0  0  0  0  0  3  0  0  0  0  0  0
  194.1620  177.3630  140.0740 O   0  0  0  0  0  1  0  0  0  0  0  0
  190.3630  176.6530  138.4690 C   0  0  0  0  0  3  0  0  0  0  0  0
  192.7700  176.7220  138.2100 C   0  0  0  0  0  3  0  0  0  0  0  0
  191.5010  176.4850  137.6740 C   0  0  0  0  0  3  0  0  0  0  0  0
  1 13  2  0  0  0  0
  1  4  1  0  0  0  0
  2  1  1  0  0  0  0
  3 13  1  0  0  0  0
  4  7  1  0  0  0  0
  5  8  1  0  0  0  0
  6  3  2  0  0  0  0
  7 14  1  0  0  0  0
  7  8  2  0  0  0  0
  9 18  1  0  0  0  0
 10  9  2  0  0  0  0
 11  2  1  0  0  0  0
 12  5  2  0  0  0  0
 13 14  1  0  0  0  0
 15 20  1  6  0  0  0
 15 11  1  0  0  0  0
 16  4  2  0  0  0  0
 16 12  1  0  0  0  0
 17 15  1  0  0  0  0
 17  9  1  0  0  0  0
 18  2  2  0  0  0  0
 18  6  1  0  0  0  0
 19 22  1  0  0  0  0
 19 21  1  0  0  0  0
 20 21  2  0  0  0  0
 23 20  1  0  0  0  0
 24 19  2  0  0  0  0
 25 24  1  0  0  0  0
 25 23  2  0  0  0  0
M  END
>  <MODEL>
7

>  <REMARK>
 VINA RESULT:     -10.3      2.424      4.532
  Name = 
  1 active torsions:
  status: ('A' for Active; 'I' for Inactive)
    1  A    between atoms: C_6  and  C_20
                            x       y       z     vdW  Elec       q    Type
                         _______ _______ _______ _____ _____    ______ ____

>  <TORSDO>
F 1

$$$$
=
 OpenBabel10262419523D

 25 29  0  0  1  0  0  0  0  0999 V2000
  189.4670  177.5040  144.0860 C   0  0  0  0  0  0  0  0  0  0  0  0
  188.8650  177.6770  142.8290 C   0  0  0  0  0  0  0  0  0  0  0  0
  191.6180  177.3470  143.0480 N   0  0  0  0  0  0  0  0  0  0  0  0
  188.8740  177.4650  145.3590 C   0  0  0  0  0  0  0  0  0  0  0  0
  188.0710  177.3380  148.0330 C   0  0  0  0  0  3  0  0  0  0  0  0
  191.0560  177.5030  141.8450 N   0  0  0  0  0  0  0  0  0  0  0  0
  189.8070  177.2780  146.3790 C   0  0  0  0  0  0  0  0  0  0  0  0
  189.4320  177.2120  147.7180 C   0  0  0  0  0  3  0  0  0  0  0  0
  189.1310  177.8480  140.3470 C   0  0  0  0  0  0  0  0  0  0  0  0
  189.8760  177.8500  139.3320 O   0  0  0  0  0  0  0  0  0  0  0  0
  187.3730  177.7980  142.6700 C   0  0  0  0  0  2  0  0  0  0  0  0
  187.1190  177.5280  147.0140 C   0  0  0  0  0  3  0  0  0  0  0  0
  190.8420  177.3470  144.1560 C   0  0  0  0  0  0  0  0  0  0  0  0
  191.3670  177.1580  145.7470 S   0  0  0  0  0  0  0  0  0  0  0  0
  187.0120  178.6010  141.4190 C   0  0  1  0  0  3  0  0  0  0  0  0
  187.5160  177.5940  145.6690 C   0  0  0  0  0  3  0  0  0  0  0  0
  187.6490  177.9860  140.1720 C   0  0  0  0  0  2  0  0  0  0  0  0
  189.7060  177.6610  141.6930 C   0  0  0  0  0  0  0  0  0  0  0  0
  183.5550  179.1020  139.9060 C   0  0  0  0  0  0  0  0  0  0  0  0
  185.5290  178.7150  141.2670 C   0  0  0  0  0  0  0  0  0  0  0  0
  184.9450  179.0040  140.0230 C   0  0  0  0  0  3  0  0  0  0  0  0
  182.9800  179.3870  138.6750 O   0  0  0  0  0  1  0  0  0  0  0  0
  184.7120  178.5280  142.3870 C   0  0  0  0  0  3  0  0  0  0  0  0
  182.7440  178.9150  141.0300 C   0  0  0  0  0  3  0  0  0  0  0  0
  183.3230  178.6280  142.2700 C   0  0  0  0  0  3  0  0  0  0  0  0
  1 13  2  0  0  0  0
  1  4  1  0  0  0  0
  2  1  1  0  0  0  0
  3 13  1  0  0  0  0
  4 16  2  0  0  0  0
  4  7  1  0  0  0  0
  6  3  2  0  0  0  0
  7  8  2  0  0  0  0
  8  5  1  0  0  0  0
  9 18  1  0  0  0  0
 10  9  2  0  0  0  0
 11  2  1  0  0  0  0
 12  5  2  0  0  0  0
 13 14  1  0  0  0  0
 14  7  1  0  0  0  0
 15 20  1  6  0  0  0
 15 11  1  0  0  0  0
 16 12  1  0  0  0  0
 17  9  1  0  0  0  0
 17 15  1  0  0  0  0
 18  6  1  0  0  0  0
 18  2  2  0  0  0  0
 19 21  2  0  0  0  0
 19 24  1  0  0  0  0
 20 23  2  0  0  0  0
 21 20  1  0  0  0  0
 22 19  1  0  0  0  0
 24 25  2  0  0  0  0
 25 23  1  0  0  0  0
M  END
>  <MODEL>
8

>  <REMARK>
 VINA RESULT:     -10.2      3.394      6.054
  Name = 
  1 active torsions:
  status: ('A' for Active; 'I' for Inactive)
    1  A    between atoms: C_6  and  C_20
                            x       y       z     vdW  Elec       q    Type
                         _______ _______ _______ _____ _____    ______ ____

>  <TORSDO>
F 1

$$$$
=
 OpenBabel10262419523D

 25 29  0  0  1  0  0  0  0  0999 V2000
  189.2340  177.5820  143.5290 C   0  0  0  0  0  0  0  0  0  0  0  0
  188.0690  177.8550  144.2640 C   0  0  0  0  0  0  0  0  0  0  0  0
  190.4410  177.1970  145.5600 N   0  0  0  0  0  0  0  0  0  0  0  0
  189.4280  177.5840  142.1370 C   0  0  0  0  0  0  0  0  0  0  0  0
  190.1970  177.4820  139.4530 C   0  0  0  0  0  3  0  0  0  0  0  0
  189.3400  177.4620  146.2710 N   0  0  0  0  0  0  0  0  0  0  0  0
  190.7360  177.2580  141.7800 C   0  0  0  0  0  0  0  0  0  0  0  0
  191.1440  177.2000  140.4490 C   0  0  0  0  0  3  0  0  0  0  0  0
  186.9630  178.0620  146.4990 C   0  0  0  0  0  0  0  0  0  0  0  0
  187.0290  177.9960  147.7550 O   0  0  0  0  0  0  0  0  0  0  0  0
  186.7850  178.2720  143.5990 C   0  0  0  0  0  2  0  0  0  0  0  0
  188.8750  177.8120  139.8000 C   0  0  0  0  0  3  0  0  0  0  0  0
  190.3960  177.2540  144.2090 C   0  0  0  0  0  0  0  0  0  0  0  0
  191.6750  176.9620  143.1500 S   0  0  0  0  0  0  0  0  0  0  0  0
  185.5700  177.8800  144.4420 C   0  0  1  0  0  3  0  0  0  0  0  0
  188.4810  177.8640  141.1470 C   0  0  0  0  0  3  0  0  0  0  0  0
  185.6710  178.4630  145.8520 C   0  0  0  0  0  2  0  0  0  0  0  0
  188.1560  177.7960  145.6750 C   0  0  0  0  0  0  0  0  0  0  0  0
  182.9810  178.7040  141.7760 C   0  0  0  0  0  0  0  0  0  0  0  0
  184.2990  178.3000  143.7740 C   0  0  0  0  0  0  0  0  0  0  0  0
  184.1800  178.3090  142.3760 C   0  0  0  0  0  3  0  0  0  0  0  0
  182.8660  178.7110  140.3920 O   0  0  0  0  0  1  0  0  0  0  0  0
  183.2110  178.6890  144.5630 C   0  0  0  0  0  3  0  0  0  0  0  0
  181.8970  179.0930  142.5690 C   0  0  0  0  0  3  0  0  0  0  0  0
  182.0130  179.0850  143.9620 C   0  0  0  0  0  3  0  0  0  0  0  0
  1 13  1  0  0  0  0
  1  2  2  0  0  0  0
  2 18  1  0  0  0  0
  3  6  1  0  0  0  0
  4  1  1  0  0  0  0
  5 12  2  0  0  0  0
  5  8  1  0  0  0  0
  7  4  1  0  0  0  0
  7 14  1  0  0  0  0
  8  7  2  0  0  0  0
  9 10  2  0  0  0  0
 11  2  1  0  0  0  0
 11 15  1  0  0  0  0
 12 16  1  0  0  0  0
 13  3  2  0  0  0  0
 14 13  1  0  0  0  0
 15 20  1  6  0  0  0
 15 17  1  0  0  0  0
 16  4  2  0  0  0  0
 17  9  1  0  0  0  0
 18  6  2  0  0  0  0
 18  9  1  0  0  0  0
 19 21  2  0  0  0  0
 19 24  1  0  0  0  0
 20 23  2  0  0  0  0
 21 20  1  0  0  0  0
 22 19  1  0  0  0  0
 24 25  2  0  0  0  0
 25 23  1  0  0  0  0
M  END
>  <MODEL>
9

>  <REMARK>
 VINA RESULT:     -10.1      3.052      6.383
  Name = 
  1 active torsions:
  status: ('A' for Active; 'I' for Inactive)
    1  A    between atoms: C_6  and  C_20
                            x       y       z     vdW  Elec       q    Type
                         _______ _______ _______ _____ _____    ______ ____

>  <TORSDO>
F 1

$$$$
