=
 OpenBabel10262420443D

 28 31  0  0  1  0  0  0  0  0999 V2000
  188.7100  178.1540  140.8360 C   0  0  2  0  0  3  0  0  0  0  0  0
  190.7270  177.0380  140.3730 C   0  0  2  0  0  3  0  0  0  0  0  0
  189.9580  177.3330  139.1460 C   0  0  0  0  0  0  0  0  0  0  0  0
  190.3220  177.0430  137.9770 O   0  0  0  0  0  0  0  0  0  0  0  0
  188.7640  177.9280  139.4410 O   0  0  0  0  0  0  0  0  0  0  0  0
  189.8080  177.3720  141.4710 N   0  0  0  0  0  0  0  0  0  0  0  0
  193.1740  177.1860  139.9180 C   0  0  0  0  0  1  0  0  0  0  0  0
  191.9640  177.9190  140.4620 C   0  0  0  0  0  2  0  0  0  0  0  0
  187.3000  177.9170  141.3850 C   0  0  0  0  0  2  0  0  0  0  0  0
  186.3910  179.1070  141.1070 C   0  0  2  0  0  3  0  0  0  0  0  0
  184.1560  178.5290  140.5370 C   0  0  0  0  0  0  0  0  0  0  0  0
  185.6150  179.4570  142.3710 C   0  0  0  0  0  2  0  0  0  0  0  0
  185.6790  178.7720  138.6860 N   0  0  0  0  0  1  0  0  0  0  0  0
  185.3710  178.7680  140.0780 C   0  0  0  0  0  0  0  0  0  0  0  0
  182.9800  178.2800  139.6550 C   0  0  0  0  0  1  0  0  0  0  0  0
  183.9910  178.6250  142.3060 S   0  0  0  0  0  0  0  0  0  0  0  0
  189.3290  176.0980  142.0200 C   0  0  0  0  0  2  0  0  0  0  0  0
  187.4080  176.6130  144.2960 C   0  0  0  0  0  3  0  0  0  0  0  0
  189.3270  177.5010  145.4850 C   0  0  0  0  0  0  0  0  0  0  0  0
  189.7030  175.9370  143.5000 C   0  0  2  0  0  3  0  0  0  0  0  0
  187.0820  178.0950  146.1780 C   0  0  0  0  0  0  0  0  0  0  0  0
  188.7980  176.7300  144.4260 C   0  0  0  0  0  0  0  0  0  0  0  0
  191.5380  176.4050  145.1710 C   0  0  0  0  0  2  0  0  0  0  0  0
  188.4660  178.1930  146.3420 C   0  0  0  0  0  3  0  0  0  0  0  0
  190.8060  177.6350  145.6880 C   0  0  0  0  0  2  0  0  0  0  0  0
  186.0110  178.9620  147.2570 Cl  0  0  0  0  0  0  0  0  0  0  0  0
  186.5530  177.2970  145.1620 C   0  0  0  0  0  3  0  0  0  0  0  0
  191.1990  176.2100  143.7010 C   0  0  0  0  0  2  0  0  0  0  0  0
  1  9  1  1  0  0  0
  1  6  1  0  0  0  0
  2  8  1  1  0  0  0
  2  6  1  0  0  0  0
  3  5  1  0  0  0  0
  3  2  1  0  0  0  0
  4  3  2  0  0  0  0
  5  1  1  0  0  0  0
  6 17  1  0  0  0  0
  7  8  1  0  0  0  0
 10  9  1  1  0  0  0
 10 12  1  0  0  0  0
 11 16  1  0  0  0  0
 13 14  1  0  0  0  0
 14 11  2  0  0  0  0
 14 10  1  0  0  0  0
 15 11  1  0  0  0  0
 16 12  1  0  0  0  0
 18 22  2  0  0  0  0
 18 27  1  0  0  0  0
 19 25  1  0  0  0  0
 19 24  2  0  0  0  0
 20 17  1  6  0  0  0
 20 28  1  0  0  0  0
 20 22  1  0  0  0  0
 21 24  1  0  0  0  0
 21 26  1  0  0  0  0
 22 19  1  0  0  0  0
 23 25  1  0  0  0  0
 27 21  2  0  0  0  0
 28 23  1  0  0  0  0
M  END
>  <MODEL>
1

>  <REMARK>
 VINA RESULT:      -7.8      0.000      0.000
  Name = 
  5 active torsions:
  status: ('A' for Active; 'I' for Inactive)
    1  A    between atoms: C_1  and  C_2
    2  A    between atoms: C_2  and  C_3
    3  A    between atoms: C_10  and  C_17
    4  A    between atoms: C_16  and  C_20
    5  A    between atoms: C_17  and  N_27
                            x       y       z     vdW  Elec       q    Type
                         _______ _______ _______ _____ _____    ______ ____

>  <TORSDO>
F 5

$$$$
=
 OpenBabel10262420443D

 28 31  0  0  1  0  0  0  0  0999 V2000
  188.1280  178.0160  140.9790 C   0  0  2  0  0  3  0  0  0  0  0  0
  190.2860  177.1440  141.3130 C   0  0  2  0  0  3  0  0  0  0  0  0
  189.6850  176.6760  140.0480 C   0  0  0  0  0  0  0  0  0  0  0  0
  190.2430  175.9090  139.2210 O   0  0  0  0  0  0  0  0  0  0  0  0
  188.4100  177.1460  139.9010 O   0  0  0  0  0  0  0  0  0  0  0  0
  189.1870  177.8280  142.0110 N   0  0  0  0  0  0  0  0  0  0  0  0
  192.6930  177.4000  140.7160 C   0  0  0  0  0  1  0  0  0  0  0  0
  191.4080  178.1350  141.0450 C   0  0  0  0  0  2  0  0  0  0  0  0
  186.6800  177.8640  141.4550 C   0  0  0  0  0  2  0  0  0  0  0  0
  185.8950  179.1550  141.2580 C   0  0  2  0  0  3  0  0  0  0  0  0
  183.6530  178.8450  140.5280 C   0  0  0  0  0  0  0  0  0  0  0  0
  185.0840  179.4500  142.5130 C   0  0  0  0  0  2  0  0  0  0  0  0
  185.2920  179.1250  138.7840 N   0  0  0  0  0  1  0  0  0  0  0  0
  184.9080  179.0130  140.1530 C   0  0  0  0  0  0  0  0  0  0  0  0
  182.5100  178.7930  139.5720 C   0  0  0  0  0  1  0  0  0  0  0  0
  183.3990  178.7820  142.2880 S   0  0  0  0  0  0  0  0  0  0  0  0
  188.7510  176.9310  143.0890 C   0  0  0  0  0  2  0  0  0  0  0  0
  191.0370  177.0420  145.0640 C   0  0  0  0  0  3  0  0  0  0  0  0
  189.3320  176.8770  146.7810 C   0  0  0  0  0  0  0  0  0  0  0  0
  188.6730  177.6570  144.4390 C   0  0  2  0  0  3  0  0  0  0  0  0
  191.6320  176.3070  147.2890 C   0  0  0  0  0  0  0  0  0  0  0  0
  189.6910  177.1470  145.4420 C   0  0  0  0  0  0  0  0  0  0  0  0
  187.1630  178.0430  146.4260 C   0  0  0  0  0  2  0  0  0  0  0  0
  190.3000  176.4410  147.6900 C   0  0  0  0  0  3  0  0  0  0  0  0
  187.9120  177.0030  147.2470 C   0  0  0  0  0  2  0  0  0  0  0  0
  192.8390  175.7640  148.4340 Cl  0  0  0  0  0  0  0  0  0  0  0  0
  192.0010  176.6170  145.9790 C   0  0  0  0  0  3  0  0  0  0  0  0
  187.2290  177.6550  144.9580 C   0  0  0  0  0  2  0  0  0  0  0  0
  1  9  1  1  0  0  0
  1  6  1  0  0  0  0
  2  8  1  6  0  0  0
  2  6  1  0  0  0  0
  3  2  1  0  0  0  0
  4  3  2  0  0  0  0
  5  3  1  0  0  0  0
  5  1  1  0  0  0  0
  6 17  1  0  0  0  0
  7  8  1  0  0  0  0
 10  9  1  1  0  0  0
 10 12  1  0  0  0  0
 11 16  1  0  0  0  0
 13 14  1  0  0  0  0
 14 11  2  0  0  0  0
 14 10  1  0  0  0  0
 15 11  1  0  0  0  0
 16 12  1  0  0  0  0
 18 22  2  0  0  0  0
 18 27  1  0  0  0  0
 19 25  1  0  0  0  0
 19 24  2  0  0  0  0
 20 17  1  6  0  0  0
 20 28  1  0  0  0  0
 20 22  1  0  0  0  0
 21 24  1  0  0  0  0
 21 26  1  0  0  0  0
 22 19  1  0  0  0  0
 23 25  1  0  0  0  0
 27 21  2  0  0  0  0
 28 23  1  0  0  0  0
M  END
>  <MODEL>
2

>  <REMARK>
 VINA RESULT:      -7.7      1.794      2.761
  Name = 
  5 active torsions:
  status: ('A' for Active; 'I' for Inactive)
    1  A    between atoms: C_1  and  C_2
    2  A    between atoms: C_2  and  C_3
    3  A    between atoms: C_10  and  C_17
    4  A    between atoms: C_16  and  C_20
    5  A    between atoms: C_17  and  N_27
                            x       y       z     vdW  Elec       q    Type
                         _______ _______ _______ _____ _____    ______ ____

>  <TORSDO>
F 5

$$$$
=
 OpenBabel10262420443D

 28 31  0  0  1  0  0  0  0  0999 V2000
  188.6410  177.6440  141.0410 C   0  0  2  0  0  3  0  0  0  0  0  0
  187.2710  178.3390  139.2600 C   0  0  2  0  0  3  0  0  0  0  0  0
  188.6800  178.7340  139.0660 C   0  0  0  0  0  0  0  0  0  0  0  0
  189.1270  179.3590  138.0690 O   0  0  0  0  0  0  0  0  0  0  0  0
  189.4480  178.3730  140.1380 O   0  0  0  0  0  0  0  0  0  0  0  0
  187.2170  177.8340  140.6400 N   0  0  0  0  0  0  0  0  0  0  0  0
  185.8400  177.7180  137.3140 C   0  0  0  0  0  1  0  0  0  0  0  0
  186.8830  177.2250  138.2990 C   0  0  0  0  0  2  0  0  0  0  0  0
  188.9880  177.9780  142.4950 C   0  0  0  0  0  2  0  0  0  0  0  0
  189.1050  176.7150  143.3380 C   0  0  2  0  0  3  0  0  0  0  0  0
  190.4290  176.9590  145.3000 C   0  0  0  0  0  0  0  0  0  0  0  0
  188.0640  176.7510  144.4500 C   0  0  0  0  0  2  0  0  0  0  0  0
  191.6020  176.2140  143.3320 N   0  0  0  0  0  1  0  0  0  0  0  0
  190.4300  176.6500  144.0150 C   0  0  0  0  0  0  0  0  0  0  0  0
  191.6320  176.8470  146.1710 C   0  0  0  0  0  1  0  0  0  0  0  0
  188.8430  177.4300  145.9550 S   0  0  0  0  0  0  0  0  0  0  0  0
  186.5540  178.8700  141.4410 C   0  0  0  0  0  2  0  0  0  0  0  0
  183.8530  177.8900  140.5030 C   0  0  0  0  0  3  0  0  0  0  0  0
  182.9970  178.7820  142.5900 C   0  0  0  0  0  0  0  0  0  0  0  0
  185.4930  178.2760  142.3780 C   0  0  2  0  0  3  0  0  0  0  0  0
  181.4960  178.3770  140.7310 C   0  0  0  0  0  0  0  0  0  0  0  0
  184.0900  178.3530  141.8030 C   0  0  0  0  0  0  0  0  0  0  0  0
  184.4030  178.5930  144.6330 C   0  0  0  0  0  2  0  0  0  0  0  0
  181.7120  178.8090  142.0420 C   0  0  0  0  0  3  0  0  0  0  0  0
  183.1910  179.2580  143.9980 C   0  0  0  0  0  2  0  0  0  0  0  0
  179.8820  178.4110  140.0540 Cl  0  0  0  0  0  0  0  0  0  0  0  0
  182.5640  177.9080  139.9650 C   0  0  0  0  0  3  0  0  0  0  0  0
  185.6290  178.8810  143.7820 C   0  0  0  0  0  2  0  0  0  0  0  0
  1  9  1  1  0  0  0
  2  8  1  6  0  0  0
  2  6  1  0  0  0  0
  3  2  1  0  0  0  0
  3  5  1  0  0  0  0
  4  3  2  0  0  0  0
  5  1  1  0  0  0  0
  6  1  1  0  0  0  0
  6 17  1  0  0  0  0
  7  8  1  0  0  0  0
 10  9  1  1  0  0  0
 10 14  1  0  0  0  0
 10 12  1  0  0  0  0
 11 16  1  0  0  0  0
 11 15  1  0  0  0  0
 12 16  1  0  0  0  0
 13 14  1  0  0  0  0
 14 11  2  0  0  0  0
 18 22  1  0  0  0  0
 19 25  1  0  0  0  0
 20 17  1  6  0  0  0
 20 28  1  0  0  0  0
 21 24  2  0  0  0  0
 22 20  1  0  0  0  0
 22 19  2  0  0  0  0
 24 19  1  0  0  0  0
 25 23  1  0  0  0  0
 26 21  1  0  0  0  0
 27 18  2  0  0  0  0
 27 21  1  0  0  0  0
 28 23  1  0  0  0  0
M  END
>  <MODEL>
3

>  <REMARK>
 VINA RESULT:      -7.6      2.826      6.163
  Name = 
  5 active torsions:
  status: ('A' for Active; 'I' for Inactive)
    1  A    between atoms: C_1  and  C_2
    2  A    between atoms: C_2  and  C_3
    3  A    between atoms: C_10  and  C_17
    4  A    between atoms: C_16  and  C_20
    5  A    between atoms: C_17  and  N_27
                            x       y       z     vdW  Elec       q    Type
                         _______ _______ _______ _____ _____    ______ ____

>  <TORSDO>
F 5

$$$$
=
 OpenBabel10262420443D

 28 31  0  0  1  0  0  0  0  0999 V2000
  189.7230  176.8040  138.5680 C   0  0  2  0  0  3  0  0  0  0  0  0
  188.1180  178.3900  139.2320 C   0  0  2  0  0  3  0  0  0  0  0  0
  188.7600  178.7480  137.9510 C   0  0  0  0  0  0  0  0  0  0  0  0
  188.4910  179.7690  137.2660 O   0  0  0  0  0  0  0  0  0  0  0  0
  189.7290  177.8450  137.6120 O   0  0  0  0  0  0  0  0  0  0  0  0
  188.9050  177.2530  139.7310 N   0  0  0  0  0  0  0  0  0  0  0  0
  185.7460  178.7350  139.9170 C   0  0  0  0  0  1  0  0  0  0  0  0
  186.6780  177.9510  139.0130 C   0  0  0  0  0  2  0  0  0  0  0  0
  191.1430  176.3240  138.8800 C   0  0  0  0  0  2  0  0  0  0  0  0
  191.9780  176.2070  137.6110 C   0  0  2  0  0  3  0  0  0  0  0  0
  193.0900  174.1210  137.3520 C   0  0  0  0  0  0  0  0  0  0  0  0
  191.1580  175.5140  136.5290 C   0  0  0  0  0  2  0  0  0  0  0  0
  194.3450  175.8440  138.4750 N   0  0  0  0  0  1  0  0  0  0  0  0
  193.1710  175.3470  137.8380 C   0  0  0  0  0  0  0  0  0  0  0  0
  194.2210  173.1500  137.3830 C   0  0  0  0  0  1  0  0  0  0  0  0
  191.5490  173.7310  136.5540 S   0  0  0  0  0  0  0  0  0  0  0  0
  189.7400  177.7670  140.8240 C   0  0  0  0  0  2  0  0  0  0  0  0
  187.4920  177.4560  142.8210 C   0  0  0  0  0  3  0  0  0  0  0  0
  189.2380  177.1680  144.4800 C   0  0  0  0  0  0  0  0  0  0  0  0
  189.7870  176.7960  142.0120 C   0  0  2  0  0  3  0  0  0  0  0  0
  187.0010  177.8020  145.1640 C   0  0  0  0  0  0  0  0  0  0  0  0
  188.8320  177.1830  143.1270 C   0  0  0  0  0  0  0  0  0  0  0  0
  191.3000  175.9320  143.8400 C   0  0  0  0  0  2  0  0  0  0  0  0
  188.3250  177.4960  145.4870 C   0  0  0  0  0  3  0  0  0  0  0  0
  190.6520  176.8510  144.8650 C   0  0  0  0  0  2  0  0  0  0  0  0
  185.8640  178.2080  146.4300 Cl  0  0  0  0  0  0  0  0  0  0  0  0
  186.5820  177.7720  143.8320 C   0  0  0  0  0  3  0  0  0  0  0  0
  191.2360  176.5930  142.4720 C   0  0  0  0  0  2  0  0  0  0  0  0
  1  9  1  1  0  0  0
  1  6  1  0  0  0  0
  2  8  1  6  0  0  0
  2  6  1  0  0  0  0
  3  2  1  0  0  0  0
  4  3  2  0  0  0  0
  5  3  1  0  0  0  0
  5  1  1  0  0  0  0
  6 17  1  0  0  0  0
  8  7  1  0  0  0  0
 10 14  1  0  0  0  0
 10  9  1  1  0  0  0
 11 15  1  0  0  0  0
 11 14  2  0  0  0  0
 12 16  1  0  0  0  0
 12 10  1  0  0  0  0
 14 13  1  0  0  0  0
 16 11  1  0  0  0  0
 18 22  2  0  0  0  0
 18 27  1  0  0  0  0
 19 25  1  0  0  0  0
 19 24  2  0  0  0  0
 20 17  1  6  0  0  0
 20 28  1  0  0  0  0
 20 22  1  0  0  0  0
 21 24  1  0  0  0  0
 21 26  1  0  0  0  0
 22 19  1  0  0  0  0
 23 25  1  0  0  0  0
 27 21  2  0  0  0  0
 28 23  1  0  0  0  0
M  END
>  <MODEL>
4

>  <REMARK>
 VINA RESULT:      -7.6      3.016      5.517
  Name = 
  5 active torsions:
  status: ('A' for Active; 'I' for Inactive)
    1  A    between atoms: C_1  and  C_2
    2  A    between atoms: C_2  and  C_3
    3  A    between atoms: C_10  and  C_17
    4  A    between atoms: C_16  and  C_20
    5  A    between atoms: C_17  and  N_27
                            x       y       z     vdW  Elec       q    Type
                         _______ _______ _______ _____ _____    ______ ____

>  <TORSDO>
F 5

$$$$
=
 OpenBabel10262420443D

 28 31  0  0  1  0  0  0  0  0999 V2000
  186.3850  177.8820  138.8730 C   0  0  2  0  0  3  0  0  0  0  0  0
  185.1540  178.8960  140.6010 C   0  0  2  0  0  3  0  0  0  0  0  0
  184.9090  179.5350  139.2920 C   0  0  0  0  0  0  0  0  0  0  0  0
  184.1290  180.5030  139.0940 O   0  0  0  0  0  0  0  0  0  0  0  0
  185.6770  178.9700  138.3130 O   0  0  0  0  0  0  0  0  0  0  0  0
  186.2750  177.9770  140.3560 N   0  0  0  0  0  0  0  0  0  0  0  0
  183.4240  178.6280  142.3770 C   0  0  0  0  0  1  0  0  0  0  0  0
  183.9380  178.1000  141.0510 C   0  0  0  0  0  2  0  0  0  0  0  0
  187.8020  177.7850  138.3000 C   0  0  0  0  0  2  0  0  0  0  0  0
  187.7970  177.1440  136.9190 C   0  0  2  0  0  3  0  0  0  0  0  0
  188.7140  174.9500  136.8460 C   0  0  0  0  0  0  0  0  0  0  0  0
  186.5630  176.2620  136.7750 C   0  0  0  0  0  2  0  0  0  0  0  0
  190.2640  176.7470  136.4260 N   0  0  0  0  0  1  0  0  0  0  0  0
  188.9690  176.2430  136.7470 C   0  0  0  0  0  0  0  0  0  0  0  0
  189.7330  173.8910  136.5960 C   0  0  0  0  0  1  0  0  0  0  0  0
  187.0190  174.5470  137.2040 S   0  0  0  0  0  0  0  0  0  0  0  0
  187.4630  178.5960  140.9570 C   0  0  0  0  0  2  0  0  0  0  0  0
  186.8120  177.7280  143.7780 C   0  0  0  0  0  3  0  0  0  0  0  0
  189.2110  177.6800  144.1320 C   0  0  0  0  0  0  0  0  0  0  0  0
  188.2990  177.5790  141.7480 C   0  0  2  0  0  3  0  0  0  0  0  0
  187.7030  177.8210  146.0240 C   0  0  0  0  0  0  0  0  0  0  0  0
  188.1090  177.7010  143.2490 C   0  0  0  0  0  0  0  0  0  0  0  0
  190.6760  176.9110  142.2750 C   0  0  0  0  0  2  0  0  0  0  0  0
  189.0010  177.7590  145.5120 C   0  0  0  0  0  3  0  0  0  0  0  0
  190.6190  177.6200  143.6200 C   0  0  0  0  0  2  0  0  0  0  0  0
  187.4490  177.9170  147.7530 Cl  0  0  0  0  0  0  0  0  0  0  0  0
  186.6090  177.7950  145.1580 C   0  0  0  0  0  3  0  0  0  0  0  0
  189.7640  177.6330  141.2960 C   0  0  0  0  0  2  0  0  0  0  0  0
  1  9  1  1  0  0  0
  1  6  1  0  0  0  0
  2  8  1  6  0  0  0
  3  2  1  0  0  0  0
  4  3  2  0  0  0  0
  5  1  1  0  0  0  0
  5  3  1  0  0  0  0
  6  2  1  0  0  0  0
  6 17  1  0  0  0  0
  8  7  1  0  0  0  0
 10  9  1  1  0  0  0
 11 16  1  0  0  0  0
 12 10  1  0  0  0  0
 12 16  1  0  0  0  0
 13 14  1  0  0  0  0
 14 11  2  0  0  0  0
 14 10  1  0  0  0  0
 15 11  1  0  0  0  0
 18 27  1  0  0  0  0
 19 24  2  0  0  0  0
 20 17  1  6  0  0  0
 20 22  1  0  0  0  0
 21 26  1  0  0  0  0
 22 18  2  0  0  0  0
 22 19  1  0  0  0  0
 23 25  1  0  0  0  0
 24 21  1  0  0  0  0
 25 19  1  0  0  0  0
 27 21  2  0  0  0  0
 28 20  1  0  0  0  0
 28 23  1  0  0  0  0
M  END
>  <MODEL>
5

>  <REMARK>
 VINA RESULT:      -7.3      2.816      4.940
  Name = 
  5 active torsions:
  status: ('A' for Active; 'I' for Inactive)
    1  A    between atoms: C_1  and  C_2
    2  A    between atoms: C_2  and  C_3
    3  A    between atoms: C_10  and  C_17
    4  A    between atoms: C_16  and  C_20
    5  A    between atoms: C_17  and  N_27
                            x       y       z     vdW  Elec       q    Type
                         _______ _______ _______ _____ _____    ______ ____

>  <TORSDO>
F 5

$$$$
=
 OpenBabel10262420443D

 28 31  0  0  1  0  0  0  0  0999 V2000
  190.4390  177.5010  141.5700 C   0  0  2  0  0  3  0  0  0  0  0  0
  190.3640  176.8120  143.8170 C   0  0  2  0  0  3  0  0  0  0  0  0
  190.1840  175.6840  142.8820 C   0  0  0  0  0  0  0  0  0  0  0  0
  190.0200  174.4830  143.2180 O   0  0  0  0  0  0  0  0  0  0  0  0
  190.1720  176.1130  141.5840 O   0  0  0  0  0  0  0  0  0  0  0  0
  190.3040  178.0090  142.9650 N   0  0  0  0  0  0  0  0  0  0  0  0
  191.5660  176.3750  145.9580 C   0  0  0  0  0  1  0  0  0  0  0  0
  191.7240  176.7420  144.4950 C   0  0  0  0  0  2  0  0  0  0  0  0
  189.6090  178.2190  140.5010 C   0  0  0  0  0  2  0  0  0  0  0  0
  188.8450  177.2250  139.6360 C   0  0  2  0  0  3  0  0  0  0  0  0
  188.2010  178.0640  137.5060 C   0  0  0  0  0  0  0  0  0  0  0  0
  189.8140  176.5290  138.6880 C   0  0  0  0  0  2  0  0  0  0  0  0
  186.5890  178.3490  139.2740 N   0  0  0  0  0  1  0  0  0  0  0  0
  187.8540  177.9250  138.7730 C   0  0  0  0  0  0  0  0  0  0  0  0
  187.2990  178.6370  136.4670 C   0  0  0  0  0  1  0  0  0  0  0  0
  189.8060  177.4170  137.0930 S   0  0  0  0  0  0  0  0  0  0  0  0
  188.9930  178.6270  143.2010 C   0  0  0  0  0  2  0  0  0  0  0  0
  186.0310  178.1130  142.8930 C   0  0  0  0  0  3  0  0  0  0  0  0
  185.9130  178.3720  145.3020 C   0  0  0  0  0  0  0  0  0  0  0  0
  188.1600  177.8310  144.2140 C   0  0  2  0  0  3  0  0  0  0  0  0
  183.9170  178.6250  143.9500 C   0  0  0  0  0  0  0  0  0  0  0  0
  186.6780  178.1480  144.1360 C   0  0  0  0  0  0  0  0  0  0  0  0
  187.7850  177.5030  146.6890 C   0  0  0  0  0  2  0  0  0  0  0  0
  184.5420  178.6280  145.1990 C   0  0  0  0  0  3  0  0  0  0  0  0
  186.5490  178.3890  146.6590 C   0  0  0  0  0  2  0  0  0  0  0  0
  182.2000  178.9430  143.8300 Cl  0  0  0  0  0  0  0  0  0  0  0  0
  184.6590  178.3570  142.7980 C   0  0  0  0  0  3  0  0  0  0  0  0
  188.7580  177.9740  145.6200 C   0  0  0  0  0  2  0  0  0  0  0  0
  1  9  1  6  0  0  0
  1  5  1  0  0  0  0
  1  6  1  0  0  0  0
  2  8  1  6  0  0  0
  3  4  2  0  0  0  0
  3  2  1  0  0  0  0
  5  3  1  0  0  0  0
  6 17  1  0  0  0  0
  6  2  1  0  0  0  0
  8  7  1  0  0  0  0
 10  9  1  6  0  0  0
 11 14  2  0  0  0  0
 12 10  1  0  0  0  0
 14 13  1  0  0  0  0
 14 10  1  0  0  0  0
 15 11  1  0  0  0  0
 16 11  1  0  0  0  0
 16 12  1  0  0  0  0
 18 22  1  0  0  0  0
 19 25  1  0  0  0  0
 20 17  1  6  0  0  0
 20 28  1  0  0  0  0
 21 24  2  0  0  0  0
 22 20  1  0  0  0  0
 22 19  2  0  0  0  0
 24 19  1  0  0  0  0
 25 23  1  0  0  0  0
 26 21  1  0  0  0  0
 27 18  2  0  0  0  0
 27 21  1  0  0  0  0
 28 23  1  0  0  0  0
M  END
>  <MODEL>
6

>  <REMARK>
 VINA RESULT:      -7.3      2.636      4.141
  Name = 
  5 active torsions:
  status: ('A' for Active; 'I' for Inactive)
    1  A    between atoms: C_1  and  C_2
    2  A    between atoms: C_2  and  C_3
    3  A    between atoms: C_10  and  C_17
    4  A    between atoms: C_16  and  C_20
    5  A    between atoms: C_17  and  N_27
                            x       y       z     vdW  Elec       q    Type
                         _______ _______ _______ _____ _____    ______ ____

>  <TORSDO>
F 5

$$$$
=
 OpenBabel10262420443D

 28 31  0  0  1  0  0  0  0  0999 V2000
  189.4170  177.9930  138.3670 C   0  0  2  0  0  3  0  0  0  0  0  0
  190.5960  176.9090  140.0880 C   0  0  2  0  0  3  0  0  0  0  0  0
  190.7930  176.2540  138.7790 C   0  0  0  0  0  0  0  0  0  0  0  0
  191.5120  175.2420  138.5760 O   0  0  0  0  0  0  0  0  0  0  0  0
  190.0540  176.8640  137.8040 O   0  0  0  0  0  0  0  0  0  0  0  0
  189.5310  177.8930  139.8500 N   0  0  0  0  0  0  0  0  0  0  0  0
  192.0570  177.4820  142.0260 C   0  0  0  0  0  1  0  0  0  0  0  0
  191.8610  177.6300  140.5300 C   0  0  0  0  0  2  0  0  0  0  0  0
  188.0040  178.1750  137.8040 C   0  0  0  0  0  2  0  0  0  0  0  0
  187.7710  177.2780  136.5960 C   0  0  2  0  0  3  0  0  0  0  0  0
  185.7490  176.0270  136.6720 C   0  0  0  0  0  0  0  0  0  0  0  0
  186.8840  178.0020  135.5910 C   0  0  0  0  0  2  0  0  0  0  0  0
  187.6900  174.9350  137.5900 N   0  0  0  0  0  1  0  0  0  0  0  0
  187.0330  176.0450  136.9850 C   0  0  0  0  0  0  0  0  0  0  0  0
  184.8700  174.8420  136.8800 C   0  0  0  0  0  1  0  0  0  0  0  0
  185.1510  177.5030  135.8790 S   0  0  0  0  0  0  0  0  0  0  0  0
  188.3110  177.3470  140.4590 C   0  0  0  0  0  2  0  0  0  0  0  0
  189.0410  177.6390  143.3780 C   0  0  0  0  0  3  0  0  0  0  0  0
  186.6780  178.0420  143.7500 C   0  0  0  0  0  0  0  0  0  0  0  0
  187.6440  178.3560  141.4050 C   0  0  2  0  0  3  0  0  0  0  0  0
  188.1000  177.3500  145.5860 C   0  0  0  0  0  0  0  0  0  0  0  0
  187.7790  177.9700  142.8670 C   0  0  0  0  0  0  0  0  0  0  0  0
  185.4050  179.3310  142.0450 C   0  0  0  0  0  2  0  0  0  0  0  0
  186.8430  177.7130  145.0980 C   0  0  0  0  0  3  0  0  0  0  0  0
  185.3130  178.4210  143.2620 C   0  0  0  0  0  2  0  0  0  0  0  0
  188.2980  176.9440  147.2770 Cl  0  0  0  0  0  0  0  0  0  0  0  0
  189.2010  177.3240  144.7290 C   0  0  0  0  0  3  0  0  0  0  0  0
  186.2010  178.6250  140.9590 C   0  0  0  0  0  2  0  0  0  0  0  0
  1  9  1  1  0  0  0
  1  6  1  0  0  0  0
  2  8  1  6  0  0  0
  3  2  1  0  0  0  0
  4  3  2  0  0  0  0
  5  1  1  0  0  0  0
  5  3  1  0  0  0  0
  6  2  1  0  0  0  0
  6 17  1  0  0  0  0
  8  7  1  0  0  0  0
 10 14  1  0  0  0  0
 10  9  1  1  0  0  0
 11 15  1  0  0  0  0
 11 14  2  0  0  0  0
 12 16  1  0  0  0  0
 12 10  1  0  0  0  0
 14 13  1  0  0  0  0
 16 11  1  0  0  0  0
 18 27  1  0  0  0  0
 19 24  2  0  0  0  0
 20 17  1  6  0  0  0
 20 22  1  0  0  0  0
 21 26  1  0  0  0  0
 22 18  2  0  0  0  0
 22 19  1  0  0  0  0
 23 25  1  0  0  0  0
 24 21  1  0  0  0  0
 25 19  1  0  0  0  0
 27 21  2  0  0  0  0
 28 20  1  0  0  0  0
 28 23  1  0  0  0  0
M  END
>  <MODEL>
7

>  <REMARK>
 VINA RESULT:      -7.2      2.658      3.966
  Name = 
  5 active torsions:
  status: ('A' for Active; 'I' for Inactive)
    1  A    between atoms: C_1  and  C_2
    2  A    between atoms: C_2  and  C_3
    3  A    between atoms: C_10  and  C_17
    4  A    between atoms: C_16  and  C_20
    5  A    between atoms: C_17  and  N_27
                            x       y       z     vdW  Elec       q    Type
                         _______ _______ _______ _____ _____    ______ ____

>  <TORSDO>
F 5

$$$$
=
 OpenBabel10262420443D

 28 31  0  0  1  0  0  0  0  0999 V2000
  186.7510  178.8330  141.1340 C   0  0  2  0  0  3  0  0  0  0  0  0
  188.1400  177.9200  139.4700 C   0  0  2  0  0  3  0  0  0  0  0  0
  186.7620  178.1420  138.9870 C   0  0  0  0  0  0  0  0  0  0  0  0
  186.3540  177.8920  137.8230 O   0  0  0  0  0  0  0  0  0  0  0  0
  185.9580  178.6170  139.9850 O   0  0  0  0  0  0  0  0  0  0  0  0
  188.0640  178.1600  140.9190 N   0  0  0  0  0  0  0  0  0  0  0  0
  189.4750  178.4800  137.4400 C   0  0  0  0  0  1  0  0  0  0  0  0
  189.1020  178.9180  138.8430 C   0  0  0  0  0  2  0  0  0  0  0  0
  185.9950  178.4570  142.4120 C   0  0  0  0  0  2  0  0  0  0  0  0
  184.9930  179.5360  142.7990 C   0  0  2  0  0  3  0  0  0  0  0  0
  182.9990  178.7160  143.8030 C   0  0  0  0  0  0  0  0  0  0  0  0
  185.1780  179.8950  144.2690 C   0  0  0  0  0  2  0  0  0  0  0  0
  182.9350  178.9780  141.4080 N   0  0  0  0  0  1  0  0  0  0  0  0
  183.5970  179.0370  142.6690 C   0  0  0  0  0  0  0  0  0  0  0  0
  181.5690  178.3020  143.8870 C   0  0  0  0  0  1  0  0  0  0  0  0
  184.0000  178.9120  145.2600 S   0  0  0  0  0  0  0  0  0  0  0  0
  188.1200  176.8440  141.5660 C   0  0  0  0  0  2  0  0  0  0  0  0
  187.8510  176.6680  144.5720 C   0  0  0  0  0  3  0  0  0  0  0  0
  189.8650  178.0160  144.6570 C   0  0  0  0  0  0  0  0  0  0  0  0
  189.3160  176.7260  142.5210 C   0  0  2  0  0  3  0  0  0  0  0  0
  188.3950  177.8990  146.5800 C   0  0  0  0  0  0  0  0  0  0  0  0
  188.9890  177.1770  143.9330 C   0  0  0  0  0  0  0  0  0  0  0  0
  191.6360  177.6250  142.9540 C   0  0  0  0  0  2  0  0  0  0  0  0
  189.5530  178.3860  145.9680 C   0  0  0  0  0  3  0  0  0  0  0  0
  191.1130  178.5630  144.0320 C   0  0  0  0  0  2  0  0  0  0  0  0
  188.0130  178.3650  148.2230 Cl  0  0  0  0  0  0  0  0  0  0  0  0
  187.5500  177.0330  145.8860 C   0  0  0  0  0  3  0  0  0  0  0  0
  190.5470  177.4120  141.9140 C   0  0  0  0  0  2  0  0  0  0  0  0
  1  9  1  1  0  0  0
  2  8  1  6  0  0  0
  2  6  1  0  0  0  0
  3  2  1  0  0  0  0
  3  5  1  0  0  0  0
  4  3  2  0  0  0  0
  5  1  1  0  0  0  0
  6  1  1  0  0  0  0
  6 17  1  0  0  0  0
  7  8  1  0  0  0  0
 10  9  1  1  0  0  0
 10 12  1  0  0  0  0
 11 15  1  0  0  0  0
 11 16  1  0  0  0  0
 12 16  1  0  0  0  0
 13 14  1  0  0  0  0
 14 10  1  0  0  0  0
 14 11  2  0  0  0  0
 18 27  1  0  0  0  0
 19 24  2  0  0  0  0
 20 17  1  6  0  0  0
 20 22  1  0  0  0  0
 21 26  1  0  0  0  0
 22 18  2  0  0  0  0
 22 19  1  0  0  0  0
 23 25  1  0  0  0  0
 24 21  1  0  0  0  0
 25 19  1  0  0  0  0
 27 21  2  0  0  0  0
 28 20  1  0  0  0  0
 28 23  1  0  0  0  0
M  END
>  <MODEL>
8

>  <REMARK>
 VINA RESULT:      -7.1      2.049      2.639
  Name = 
  5 active torsions:
  status: ('A' for Active; 'I' for Inactive)
    1  A    between atoms: C_1  and  C_2
    2  A    between atoms: C_2  and  C_3
    3  A    between atoms: C_10  and  C_17
    4  A    between atoms: C_16  and  C_20
    5  A    between atoms: C_17  and  N_27
                            x       y       z     vdW  Elec       q    Type
                         _______ _______ _______ _____ _____    ______ ____

>  <TORSDO>
F 5

$$$$
=
 OpenBabel10262420443D

 28 31  0  0  1  0  0  0  0  0999 V2000
  185.6230  179.0420  139.5060 C   0  0  2  0  0  3  0  0  0  0  0  0
  187.6410  177.8350  139.5620 C   0  0  2  0  0  3  0  0  0  0  0  0
  186.8360  177.5210  138.3640 C   0  0  0  0  0  0  0  0  0  0  0  0
  187.1710  176.7160  137.4570 O   0  0  0  0  0  0  0  0  0  0  0  0
  185.6430  178.1880  138.3800 O   0  0  0  0  0  0  0  0  0  0  0  0
  186.7480  178.6480  140.4010 N   0  0  0  0  0  0  0  0  0  0  0  0
  190.1200  177.8030  139.2950 C   0  0  0  0  0  1  0  0  0  0  0  0
  188.8690  178.6530  139.1900 C   0  0  0  0  0  2  0  0  0  0  0  0
  184.2320  179.0930  140.1450 C   0  0  0  0  0  2  0  0  0  0  0  0
  183.1510  178.7040  139.1440 C   0  0  2  0  0  3  0  0  0  0  0  0
  181.1230  177.9450  140.1300 C   0  0  0  0  0  0  0  0  0  0  0  0
  182.2080  179.8830  138.9360 C   0  0  0  0  0  2  0  0  0  0  0  0
  182.7440  176.2370  139.6220 N   0  0  0  0  0  1  0  0  0  0  0  0
  182.3130  177.5940  139.6740 C   0  0  0  0  0  0  0  0  0  0  0  0
  180.1020  176.9660  140.5970 C   0  0  0  0  0  1  0  0  0  0  0  0
  180.7770  179.6890  140.0540 S   0  0  0  0  0  0  0  0  0  0  0  0
  186.3000  177.7820  141.4990 C   0  0  0  0  0  2  0  0  0  0  0  0
  188.9750  177.8940  142.9030 C   0  0  0  0  0  3  0  0  0  0  0  0
  187.7160  177.5790  144.9530 C   0  0  0  0  0  0  0  0  0  0  0  0
  186.5130  178.4390  142.8690 C   0  0  2  0  0  3  0  0  0  0  0  0
  190.0870  177.0810  144.8900 C   0  0  0  0  0  0  0  0  0  0  0  0
  187.7500  177.9260  143.5840 C   0  0  0  0  0  0  0  0  0  0  0  0
  185.4910  178.6690  145.1670 C   0  0  0  0  0  2  0  0  0  0  0  0
  188.8800  177.1410  145.5910 C   0  0  0  0  0  3  0  0  0  0  0  0
  186.4390  177.6240  145.7360 C   0  0  0  0  0  2  0  0  0  0  0  0
  191.5410  176.5350  145.6980 Cl  0  0  0  0  0  0  0  0  0  0  0  0
  190.1360  177.4680  143.5500 C   0  0  0  0  0  3  0  0  0  0  0  0
  185.2280  178.3540  143.7030 C   0  0  0  0  0  2  0  0  0  0  0  0
  1  9  1  1  0  0  0
  1  6  1  0  0  0  0
  2  8  1  6  0  0  0
  2  6  1  0  0  0  0
  3  5  1  0  0  0  0
  3  2  1  0  0  0  0
  4  3  2  0  0  0  0
  5  1  1  0  0  0  0
  6 17  1  0  0  0  0
  8  7  1  0  0  0  0
 10 14  1  0  0  0  0
 10  9  1  1  0  0  0
 11 15  1  0  0  0  0
 12 10  1  0  0  0  0
 12 16  1  0  0  0  0
 13 14  1  0  0  0  0
 14 11  2  0  0  0  0
 16 11  1  0  0  0  0
 18 27  2  0  0  0  0
 18 22  1  0  0  0  0
 19 24  1  0  0  0  0
 19 25  1  0  0  0  0
 20 17  1  6  0  0  0
 20 22  1  0  0  0  0
 20 28  1  0  0  0  0
 21 24  2  0  0  0  0
 21 26  1  0  0  0  0
 22 19  2  0  0  0  0
 23 25  1  0  0  0  0
 27 21  1  0  0  0  0
 28 23  1  0  0  0  0
M  END
>  <MODEL>
9

>  <REMARK>
 VINA RESULT:      -7.0      2.306      3.841
  Name = 
  5 active torsions:
  status: ('A' for Active; 'I' for Inactive)
    1  A    between atoms: C_1  and  C_2
    2  A    between atoms: C_2  and  C_3
    3  A    between atoms: C_10  and  C_17
    4  A    between atoms: C_16  and  C_20
    5  A    between atoms: C_17  and  N_27
                            x       y       z     vdW  Elec       q    Type
                         _______ _______ _______ _____ _____    ______ ____

>  <TORSDO>
F 5

$$$$
