=
 OpenBabel10262421303D

 32 38  0  0  1  0  0  0  0  0999 V2000
  185.9250  176.9910  137.5810 C   0  0  0  0  0  2  0  0  0  0  0  0
  188.5690  178.1910  141.7040 C   0  0  2  0  0  3  0  0  0  0  0  0
  186.9040  178.2050  139.8090 C   0  0  2  0  0  3  0  0  0  0  0  0
  188.8650  176.7260  139.6110 C   0  0  0  0  0  2  0  0  0  0  0  0
  187.4520  177.1800  137.5560 C   0  0  2  0  0  3  0  0  0  0  0  0
  190.0350  176.2920  141.6920 N   0  0  0  0  0  2  0  0  0  0  0  0
  189.5300  177.3650  140.8420 C   0  0  2  0  0  3  0  0  0  0  0  0
  189.1470  176.1900  142.8540 C   0  0  2  0  0  3  0  0  0  0  0  0
  187.9880  177.1720  142.6410 C   0  0  1  0  0  3  0  0  0  0  0  0
  185.1630  178.0680  138.3880 C   0  0  0  0  0  2  0  0  0  0  0  0
  188.0110  177.7400  138.8770 C   0  0  1  0  0  3  0  0  0  0  0  0
  185.9990  178.9770  139.0730 O   0  0  0  0  0  0  0  0  0  0  0  0
  187.5200  179.0140  140.9380 C   0  0  0  0  0  2  0  0  0  0  0  0
  186.1240  178.1420  144.0100 C   0  0  0  0  0  0  0  0  0  0  0  0
  185.9820  178.5540  145.3880 C   0  0  1  0  0  3  0  0  0  0  0  0
  187.0240  178.0780  147.3360 C   0  0  0  0  0  0  0  0  0  0  0  0
  185.7460  177.9950  147.5530 N   0  0  0  0  0  0  0  0  0  0  0  0
  185.0770  178.2170  146.2980 C   0  0  0  0  0  2  0  0  0  0  0  0
  188.1050  177.8410  145.1420 N   0  0  0  0  0  2  0  0  0  0  0  0
  184.8580  178.0080  142.8060 Cl  0  0  0  0  0  0  0  0  0  0  0  0
  188.0570  177.8150  148.3730 C   0  0  0  0  0  1  0  0  0  0  0  0
  187.4050  177.7760  143.8860 C   0  0  0  0  0  0  0  0  0  0  0  0
  187.2680  178.4040  145.9500 C   0  0  1  0  0  3  0  0  0  0  0  0
  189.0410  177.6780  135.4550 C   0  0  0  0  0  0  0  0  0  0  0  0
  188.8500  176.1540  135.3520 C   0  0  0  0  0  2  0  0  0  0  0  0
  190.1190  176.6700  135.8860 C   0  0  0  0  0  2  0  0  0  0  0  0
  189.2140  178.6010  136.6620 C   0  0  0  0  0  2  0  0  0  0  0  0
  187.8540  178.0970  136.3890 C   0  0  2  0  0  3  0  0  0  0  0  0
  189.9550  176.4620  144.1220 C   0  0  0  0  0  2  0  0  0  0  0  0
  191.3920  176.8070  143.7730 C   0  0  0  0  0  2  0  0  0  0  0  0
  191.0420  179.1700  143.8350 O   0  0  0  0  0  1  0  0  0  0  0  0
  191.7800  178.1330  144.4070 C   0  0  0  0  0  2  0  0  0  0  0  0
  1 10  1  0  0  0  0
  2 13  1  6  0  0  0
  2  9  1  0  0  0  0
  3 13  1  1  0  0  0
  5  1  1  1  0  0  0
  5 11  1  0  0  0  0
  6  8  1  0  0  0  0
  7  4  1  6  0  0  0
  7  6  1  0  0  0  0
  7  2  1  0  0  0  0
  8 29  1  1  0  0  0
  9  8  1  0  0  0  0
  9 22  1  1  0  0  0
 10 12  1  0  0  0  0
 11  4  1  1  0  0  0
 11  3  1  0  0  0  0
 12  3  1  0  0  0  0
 14 15  1  0  0  0  0
 15 23  1  0  0  0  0
 15 18  1  1  0  0  0
 16 17  2  0  0  0  0
 16 21  1  0  0  0  0
 18 17  1  0  0  0  0
 20 14  1  0  0  0  0
 22 14  2  0  0  0  0
 22 19  1  0  0  0  0
 23 19  1  6  0  0  0
 23 16  1  0  0  0  0
 24 26  1  0  0  0  0
 24 28  1  0  0  0  0
 24 27  1  0  0  0  0
 25 24  1  0  0  0  0
 25 26  1  0  0  0  0
 28 27  1  1  0  0  0
 28  5  1  0  0  0  0
 30 29  1  0  0  0  0
 30 32  1  0  0  0  0
 31 32  1  0  0  0  0
M  END
>  <MODEL>
1

>  <REMARK>
 VINA RESULT:      -8.1      0.000      0.000
  Name = 
  5 active torsions:
  status: ('A' for Active; 'I' for Inactive)
    1  A    between atoms: C_5  and  C_25
    2  A    between atoms: C_12  and  C_24
    3  A    between atoms: C_15  and  C_26
    4  A    between atoms: C_16  and  C_31
    5  A    between atoms: C_25  and  C_26
                            x       y       z     vdW  Elec       q    Type
                         _______ _______ _______ _____ _____    ______ ____

>  <TORSDO>
F 5

$$$$
=
 OpenBabel10262421303D

 32 38  0  0  1  0  0  0  0  0999 V2000
  188.9410  175.7710  143.1700 C   0  0  0  0  0  2  0  0  0  0  0  0
  185.2700  179.1390  142.3910 C   0  0  2  0  0  3  0  0  0  0  0  0
  187.3740  177.7640  142.1840 C   0  0  2  0  0  3  0  0  0  0  0  0
  186.1860  177.7390  144.3430 C   0  0  0  0  0  2  0  0  0  0  0  0
  188.5460  176.8200  144.2250 C   0  0  2  0  0  3  0  0  0  0  0  0
  183.8950  178.5330  144.2620 N   0  0  0  0  0  2  0  0  0  0  0  0
  185.2640  178.8880  143.9030 C   0  0  2  0  0  3  0  0  0  0  0  0
  183.1910  178.1700  143.0280 C   0  0  2  0  0  3  0  0  0  0  0  0
  184.2140  178.2000  141.8850 C   0  0  1  0  0  3  0  0  0  0  0  0
  189.0440  176.3250  141.7290 C   0  0  0  0  0  2  0  0  0  0  0  0
  187.5480  177.8640  143.6910 C   0  0  1  0  0  3  0  0  0  0  0  0
  188.6390  177.6710  141.5970 O   0  0  0  0  0  0  0  0  0  0  0  0
  186.6310  178.9950  141.6930 C   0  0  0  0  0  2  0  0  0  0  0  0
  183.0830  177.7300  139.6950 C   0  0  0  0  0  0  0  0  0  0  0  0
  182.6270  178.5420  138.5910 C   0  0  1  0  0  3  0  0  0  0  0  0
  182.0470  180.7080  138.3060 C   0  0  0  0  0  0  0  0  0  0  0  0
  181.1200  179.9850  137.7530 N   0  0  0  0  0  0  0  0  0  0  0  0
  181.4400  178.6050  138.0010 C   0  0  0  0  0  2  0  0  0  0  0  0
  183.5620  179.9470  140.0850 N   0  0  0  0  0  2  0  0  0  0  0  0
  182.7870  176.0210  139.9500 Cl  0  0  0  0  0  0  0  0  0  0  0  0
  182.0210  182.1940  138.3480 C   0  0  0  0  0  1  0  0  0  0  0  0
  183.6780  178.5840  140.5360 C   0  0  0  0  0  0  0  0  0  0  0  0
  183.0470  179.8540  138.9030 C   0  0  1  0  0  3  0  0  0  0  0  0
  189.9460  177.7570  146.3110 C   0  0  0  0  0  0  0  0  0  0  0  0
  189.3420  176.4650  146.8900 C   0  0  0  0  0  2  0  0  0  0  0  0
  188.7420  177.7530  147.2670 C   0  0  0  0  0  2  0  0  0  0  0  0
  189.3720  178.8080  145.3590 C   0  0  0  0  0  2  0  0  0  0  0  0
  189.8000  177.5260  144.7670 C   0  0  2  0  0  3  0  0  0  0  0  0
  182.0180  179.1270  142.8250 C   0  0  0  0  0  2  0  0  0  0  0  0
  180.7760  178.6010  143.5230 C   0  0  0  0  0  2  0  0  0  0  0  0
  180.0560  180.7740  142.8380 O   0  0  0  0  0  1  0  0  0  0  0  0
  179.5980  179.5250  143.2600 C   0  0  0  0  0  2  0  0  0  0  0  0
  2 13  1  6  0  0  0
  2  7  1  0  0  0  0
  3 13  1  6  0  0  0
  3 11  1  0  0  0  0
  5  1  1  6  0  0  0
  5 28  1  0  0  0  0
  7  6  1  0  0  0  0
  7  4  1  6  0  0  0
  8 29  1  6  0  0  0
  8  6  1  0  0  0  0
  9 22  1  6  0  0  0
  9  2  1  0  0  0  0
  9  8  1  0  0  0  0
 10  1  1  0  0  0  0
 11  5  1  0  0  0  0
 11  4  1  1  0  0  0
 12 10  1  0  0  0  0
 12  3  1  0  0  0  0
 14 20  1  0  0  0  0
 14 22  2  0  0  0  0
 15 18  1  1  0  0  0
 15 23  1  0  0  0  0
 15 14  1  0  0  0  0
 16 21  1  0  0  0  0
 17 18  1  0  0  0  0
 17 16  2  0  0  0  0
 19 22  1  0  0  0  0
 23 16  1  1  0  0  0
 23 19  1  0  0  0  0
 24 25  1  0  0  0  0
 24 26  1  0  0  0  0
 25 26  1  0  0  0  0
 27 24  1  0  0  0  0
 28 27  1  6  0  0  0
 28 24  1  0  0  0  0
 29 30  1  0  0  0  0
 31 32  1  0  0  0  0
 32 30  1  0  0  0  0
M  END
>  <MODEL>
2

>  <REMARK>
 VINA RESULT:      -7.7      3.864      8.022
  Name = 
  5 active torsions:
  status: ('A' for Active; 'I' for Inactive)
    1  A    between atoms: C_5  and  C_25
    2  A    between atoms: C_12  and  C_24
    3  A    between atoms: C_15  and  C_26
    4  A    between atoms: C_16  and  C_31
    5  A    between atoms: C_25  and  C_26
                            x       y       z     vdW  Elec       q    Type
                         _______ _______ _______ _____ _____    ______ ____

>  <TORSDO>
F 5

$$$$
=
 OpenBabel10262421303D

 32 38  0  0  1  0  0  0  0  0999 V2000
  189.2180  175.5980  137.4820 C   0  0  0  0  0  2  0  0  0  0  0  0
  189.1600  178.0190  141.9050 C   0  0  2  0  0  3  0  0  0  0  0  0
  188.8240  177.3970  139.4840 C   0  0  2  0  0  3  0  0  0  0  0  0
  190.5350  176.1690  140.7650 C   0  0  0  0  0  2  0  0  0  0  0  0
  190.5060  175.9670  138.2380 C   0  0  2  0  0  3  0  0  0  0  0  0
  190.3470  176.3660  143.1760 N   0  0  0  0  0  2  0  0  0  0  0  0
  190.4200  177.1480  141.9450 C   0  0  2  0  0  3  0  0  0  0  0  0
  188.9620  176.4180  143.6540 C   0  0  2  0  0  3  0  0  0  0  0  0
  188.1370  177.1730  142.6050 C   0  0  1  0  0  3  0  0  0  0  0  0
  188.1590  176.7260  137.4410 C   0  0  0  0  0  2  0  0  0  0  0  0
  190.2520  176.8760  139.4540 C   0  0  1  0  0  3  0  0  0  0  0  0
  188.4950  177.8620  138.2070 O   0  0  0  0  0  0  0  0  0  0  0  0
  188.7290  178.5100  140.5130 C   0  0  0  0  0  2  0  0  0  0  0  0
  185.9860  178.4430  142.3670 C   0  0  0  0  0  0  0  0  0  0  0  0
  185.0410  179.0250  143.2920 C   0  0  1  0  0  3  0  0  0  0  0  0
  184.4880  178.7000  145.4590 C   0  0  0  0  0  0  0  0  0  0  0  0
  183.3800  178.7450  144.7810 N   0  0  0  0  0  0  0  0  0  0  0  0
  183.7270  178.8700  143.3910 C   0  0  0  0  0  2  0  0  0  0  0  0
  186.6900  178.1210  144.5340 N   0  0  0  0  0  2  0  0  0  0  0  0
  185.8050  178.2690  140.6320 Cl  0  0  0  0  0  0  0  0  0  0  0  0
  184.5480  178.4800  146.9290 C   0  0  0  0  0  1  0  0  0  0  0  0
  186.9740  177.9650  143.1320 C   0  0  0  0  0  0  0  0  0  0  0  0
  185.6160  178.8400  144.5680 C   0  0  1  0  0  3  0  0  0  0  0  0
  192.7750  175.8460  136.8130 C   0  0  0  0  0  0  0  0  0  0  0  0
  192.2210  174.4200  136.6460 C   0  0  0  0  0  2  0  0  0  0  0  0
  193.3300  174.6380  137.5850 C   0  0  0  0  0  2  0  0  0  0  0  0
  192.7810  176.7990  138.0090 C   0  0  0  0  0  2  0  0  0  0  0  0
  191.5070  176.6400  137.2830 C   0  0  2  0  0  3  0  0  0  0  0  0
  188.9380  177.0680  145.0360 C   0  0  0  0  0  2  0  0  0  0  0  0
  190.3520  177.3030  145.5380 C   0  0  0  0  0  2  0  0  0  0  0  0
  191.8150  176.8810  147.3800 O   0  0  0  0  0  1  0  0  0  0  0  0
  190.4780  176.8470  146.9830 C   0  0  0  0  0  2  0  0  0  0  0  0
  2 13  1  6  0  0  0
  2  7  1  0  0  0  0
  2  9  1  0  0  0  0
  3 13  1  1  0  0  0
  5  1  1  6  0  0  0
  5 11  1  0  0  0  0
  6  8  1  0  0  0  0
  7  4  1  6  0  0  0
  7  6  1  0  0  0  0
  8 29  1  1  0  0  0
  9 22  1  1  0  0  0
  9  8  1  0  0  0  0
 10  1  1  0  0  0  0
 10 12  1  0  0  0  0
 11  3  1  0  0  0  0
 11  4  1  1  0  0  0
 12  3  1  0  0  0  0
 14 22  2  0  0  0  0
 14 15  1  0  0  0  0
 15 18  1  1  0  0  0
 15 23  1  0  0  0  0
 16 21  1  0  0  0  0
 17 16  2  0  0  0  0
 18 17  1  0  0  0  0
 20 14  1  0  0  0  0
 22 19  1  0  0  0  0
 23 19  1  6  0  0  0
 23 16  1  0  0  0  0
 24 28  1  0  0  0  0
 24 26  1  0  0  0  0
 24 27  1  0  0  0  0
 25 24  1  0  0  0  0
 25 26  1  0  0  0  0
 28 27  1  1  0  0  0
 28  5  1  0  0  0  0
 29 30  1  0  0  0  0
 30 32  1  0  0  0  0
 32 31  1  0  0  0  0
M  END
>  <MODEL>
3

>  <REMARK>
 VINA RESULT:      -7.4      2.178      2.849
  Name = 
  5 active torsions:
  status: ('A' for Active; 'I' for Inactive)
    1  A    between atoms: C_5  and  C_25
    2  A    between atoms: C_12  and  C_24
    3  A    between atoms: C_15  and  C_26
    4  A    between atoms: C_16  and  C_31
    5  A    between atoms: C_25  and  C_26
                            x       y       z     vdW  Elec       q    Type
                         _______ _______ _______ _____ _____    ______ ____

>  <TORSDO>
F 5

$$$$
=
 OpenBabel10262421303D

 32 38  0  0  1  0  0  0  0  0999 V2000
  186.7780  178.6940  145.1910 C   0  0  0  0  0  2  0  0  0  0  0  0
  190.0890  176.1880  142.3310 C   0  0  2  0  0  3  0  0  0  0  0  0
  187.9720  176.9790  143.4510 C   0  0  2  0  0  3  0  0  0  0  0  0
  190.1240  177.6580  144.4400 C   0  0  0  0  0  2  0  0  0  0  0  0
  187.9980  177.9680  145.7850 C   0  0  2  0  0  3  0  0  0  0  0  0
  192.0460  177.4160  142.9790 N   0  0  0  0  0  2  0  0  0  0  0  0
  190.9010  176.6960  143.5280 C   0  0  2  0  0  3  0  0  0  0  0  0
  191.7540  177.7100  141.5720 C   0  0  2  0  0  3  0  0  0  0  0  0
  190.3210  177.2430  141.2890 C   0  0  1  0  0  3  0  0  0  0  0  0
  186.0200  177.8870  144.1100 C   0  0  0  0  0  2  0  0  0  0  0  0
  188.7480  177.1070  144.7520 C   0  0  1  0  0  3  0  0  0  0  0  0
  186.6420  176.6700  143.7560 O   0  0  0  0  0  0  0  0  0  0  0  0
  188.6070  175.8870  142.6070 C   0  0  0  0  0  2  0  0  0  0  0  0
  189.4270  177.4870  138.9570 C   0  0  0  0  0  0  0  0  0  0  0  0
  189.4960  176.6920  137.7530 C   0  0  1  0  0  3  0  0  0  0  0  0
  190.8760  175.0950  136.9440 C   0  0  0  0  0  0  0  0  0  0  0  0
  190.6870  175.9590  135.9920 N   0  0  0  0  0  0  0  0  0  0  0  0
  189.8750  177.0210  136.5240 C   0  0  0  0  0  2  0  0  0  0  0  0
  190.6160  175.5550  139.3440 N   0  0  0  0  0  2  0  0  0  0  0  0
  188.7950  179.1140  139.1210 Cl  0  0  0  0  0  0  0  0  0  0  0  0
  191.7470  173.8970  136.8100 C   0  0  0  0  0  1  0  0  0  0  0  0
  190.0530  176.7620  139.8910 C   0  0  0  0  0  0  0  0  0  0  0  0
  190.1680  175.5090  138.1330 C   0  0  1  0  0  3  0  0  0  0  0  0
  188.1100  177.4330  148.4100 C   0  0  0  0  0  0  0  0  0  0  0  0
  188.1160  178.9730  148.4010 C   0  0  0  0  0  2  0  0  0  0  0  0
  189.3820  178.2650  148.6420 C   0  0  0  0  0  2  0  0  0  0  0  0
  188.7710  176.4100  147.4860 C   0  0  0  0  0  2  0  0  0  0  0  0
  187.5680  177.0970  146.9770 C   0  0  2  0  0  3  0  0  0  0  0  0
  192.8040  177.0310  140.6950 C   0  0  0  0  0  2  0  0  0  0  0  0
  193.2030  177.9380  139.5440 C   0  0  0  0  0  2  0  0  0  0  0  0
  194.2240  175.9530  138.6900 O   0  0  0  0  0  1  0  0  0  0  0  0
  193.5360  177.1070  138.3140 C   0  0  0  0  0  2  0  0  0  0  0  0
  2 13  1  1  0  0  0
  2  7  1  0  0  0  0
  3 13  1  6  0  0  0
  3 12  1  0  0  0  0
  3 11  1  0  0  0  0
  5  1  1  6  0  0  0
  5 28  1  0  0  0  0
  6  7  1  0  0  0  0
  7  4  1  1  0  0  0
  8 29  1  6  0  0  0
  8  6  1  0  0  0  0
  9 22  1  6  0  0  0
  9  8  1  0  0  0  0
  9  2  1  0  0  0  0
 10  1  1  0  0  0  0
 11  4  1  6  0  0  0
 11  5  1  0  0  0  0
 12 10  1  0  0  0  0
 14 20  1  0  0  0  0
 14 22  2  0  0  0  0
 15 18  1  6  0  0  0
 15 23  1  0  0  0  0
 15 14  1  0  0  0  0
 17 18  1  0  0  0  0
 17 16  2  0  0  0  0
 19 22  1  0  0  0  0
 21 16  1  0  0  0  0
 23 16  1  6  0  0  0
 23 19  1  0  0  0  0
 24 26  1  0  0  0  0
 25 24  1  0  0  0  0
 25 26  1  0  0  0  0
 27 24  1  0  0  0  0
 28 27  1  6  0  0  0
 28 24  1  0  0  0  0
 30 29  1  0  0  0  0
 32 31  1  0  0  0  0
 32 30  1  0  0  0  0
M  END
>  <MODEL>
4

>  <REMARK>
 VINA RESULT:      -6.6      2.861      8.039
  Name = 
  5 active torsions:
  status: ('A' for Active; 'I' for Inactive)
    1  A    between atoms: C_5  and  C_25
    2  A    between atoms: C_12  and  C_24
    3  A    between atoms: C_15  and  C_26
    4  A    between atoms: C_16  and  C_31
    5  A    between atoms: C_25  and  C_26
                            x       y       z     vdW  Elec       q    Type
                         _______ _______ _______ _____ _____    ______ ____

>  <TORSDO>
F 5

$$$$
=
 OpenBabel10262421303D

 32 38  0  0  1  0  0  0  0  0999 V2000
  180.6150  177.7800  142.5420 C   0  0  0  0  0  2  0  0  0  0  0  0
  185.4040  179.2930  142.9970 C   0  0  2  0  0  3  0  0  0  0  0  0
  182.9370  178.9290  143.3720 C   0  0  2  0  0  3  0  0  0  0  0  0
  183.8550  178.4060  141.1460 C   0  0  0  0  0  2  0  0  0  0  0  0
  181.3420  178.5650  141.4350 C   0  0  2  0  0  3  0  0  0  0  0  0
  186.2680  178.1640  141.0640 N   0  0  0  0  0  2  0  0  0  0  0  0
  185.2010  179.0620  141.4960 C   0  0  2  0  0  3  0  0  0  0  0  0
  186.8360  177.5390  142.2630 C   0  0  2  0  0  3  0  0  0  0  0  0
  186.0000  177.9970  143.4640 C   0  0  1  0  0  3  0  0  0  0  0  0
  180.8520  178.3260  143.9700 C   0  0  0  0  0  2  0  0  0  0  0  0
  182.7190  179.0930  141.8760 C   0  0  1  0  0  3  0  0  0  0  0  0
  181.7920  179.3770  144.0390 O   0  0  0  0  0  0  0  0  0  0  0  0
  184.1580  179.7340  143.7820 C   0  0  0  0  0  2  0  0  0  0  0  0
  186.1410  178.2330  145.9580 C   0  0  0  0  0  0  0  0  0  0  0  0
  187.2150  178.2040  146.9240 C   0  0  1  0  0  3  0  0  0  0  0  0
  189.3080  177.3540  146.9920 C   0  0  0  0  0  0  0  0  0  0  0  0
  188.7190  177.0170  148.0990 N   0  0  0  0  0  0  0  0  0  0  0  0
  187.3610  177.4840  148.0290 C   0  0  0  0  0  2  0  0  0  0  0  0
  188.1590  177.9280  144.8960 N   0  0  0  0  0  2  0  0  0  0  0  0
  184.4190  178.2570  146.2860 Cl  0  0  0  0  0  0  0  0  0  0  0  0
  190.7010  176.9660  146.6450 C   0  0  0  0  0  1  0  0  0  0  0  0
  186.7380  178.1200  144.7670 C   0  0  0  0  0  0  0  0  0  0  0  0
  188.3950  178.0990  146.1550 C   0  0  1  0  0  3  0  0  0  0  0  0
  179.8930  179.7110  139.4910 C   0  0  0  0  0  0  0  0  0  0  0  0
  179.5610  178.2200  139.2960 C   0  0  0  0  0  2  0  0  0  0  0  0
  180.5100  178.8570  138.3710 C   0  0  0  0  0  2  0  0  0  0  0  0
  181.1940  180.4210  139.8680 C   0  0  0  0  0  2  0  0  0  0  0  0
  180.4650  179.7320  140.9510 C   0  0  2  0  0  3  0  0  0  0  0  0
  188.3130  177.9150  142.3660 C   0  0  0  0  0  2  0  0  0  0  0  0
  189.0900  177.3440  141.1920 C   0  0  0  0  0  2  0  0  0  0  0  0
  190.1840  175.6480  142.4710 O   0  0  0  0  0  1  0  0  0  0  0  0
  190.4130  176.7680  141.6710 C   0  0  0  0  0  2  0  0  0  0  0  0
  1 10  1  0  0  0  0
  2  9  1  0  0  0  0
  2 13  1  1  0  0  0
  3 13  1  1  0  0  0
  3 12  1  0  0  0  0
  5 11  1  0  0  0  0
  5  1  1  1  0  0  0
  6  7  1  0  0  0  0
  6  8  1  0  0  0  0
  7  4  1  1  0  0  0
  7  2  1  0  0  0  0
  8 29  1  1  0  0  0
  8  9  1  0  0  0  0
  9 22  1  1  0  0  0
 10 12  1  0  0  0  0
 11  4  1  6  0  0  0
 11  3  1  0  0  0  0
 14 20  1  0  0  0  0
 14 15  1  0  0  0  0
 15 18  1  1  0  0  0
 16 17  2  0  0  0  0
 18 17  1  0  0  0  0
 21 16  1  0  0  0  0
 22 19  1  0  0  0  0
 22 14  2  0  0  0  0
 23 19  1  6  0  0  0
 23 15  1  0  0  0  0
 23 16  1  0  0  0  0
 24 27  1  0  0  0  0
 24 28  1  0  0  0  0
 25 24  1  0  0  0  0
 26 25  1  0  0  0  0
 26 24  1  0  0  0  0
 28 27  1  6  0  0  0
 28  5  1  0  0  0  0
 30 32  1  0  0  0  0
 30 29  1  0  0  0  0
 32 31  1  0  0  0  0
M  END
>  <MODEL>
5

>  <REMARK>
 VINA RESULT:      -6.4      3.495      5.472
  Name = 
  5 active torsions:
  status: ('A' for Active; 'I' for Inactive)
    1  A    between atoms: C_5  and  C_25
    2  A    between atoms: C_12  and  C_24
    3  A    between atoms: C_15  and  C_26
    4  A    between atoms: C_16  and  C_31
    5  A    between atoms: C_25  and  C_26
                            x       y       z     vdW  Elec       q    Type
                         _______ _______ _______ _____ _____    ______ ____

>  <TORSDO>
F 5

$$$$
=
 OpenBabel10262421303D

 32 38  0  0  1  0  0  0  0  0999 V2000
  190.4840  174.8220  135.9420 C   0  0  0  0  0  2  0  0  0  0  0  0
  189.7180  178.1370  139.6630 C   0  0  2  0  0  3  0  0  0  0  0  0
  189.7270  176.9710  137.4270 C   0  0  2  0  0  3  0  0  0  0  0  0
  191.3440  176.2180  139.1280 C   0  0  0  0  0  2  0  0  0  0  0  0
  191.6420  175.4650  136.7260 C   0  0  2  0  0  3  0  0  0  0  0  0
  190.8460  176.9200  141.3960 N   0  0  0  0  0  2  0  0  0  0  0  0
  191.0190  177.4160  140.0350 C   0  0  2  0  0  3  0  0  0  0  0  0
  189.4120  176.9470  141.7010 C   0  0  2  0  0  3  0  0  0  0  0  0
  188.6750  177.3740  140.4250 C   0  0  1  0  0  3  0  0  0  0  0  0
  189.3670  175.8100  135.5320 C   0  0  0  0  0  2  0  0  0  0  0  0
  191.1790  176.5910  137.6680 C   0  0  1  0  0  3  0  0  0  0  0  0
  189.5290  177.1130  136.0500 O   0  0  0  0  0  0  0  0  0  0  0  0
  189.4310  178.2690  138.1590 C   0  0  0  0  0  2  0  0  0  0  0  0
  186.4560  178.2950  139.7000 C   0  0  0  0  0  0  0  0  0  0  0  0
  185.3840  179.0020  140.3610 C   0  0  1  0  0  3  0  0  0  0  0  0
  184.6610  179.2240  142.4900 C   0  0  0  0  0  0  0  0  0  0  0  0
  183.6210  178.9650  141.7560 N   0  0  0  0  0  0  0  0  0  0  0  0
  184.0840  178.7420  140.4120 C   0  0  0  0  0  2  0  0  0  0  0  0
  186.9800  178.6530  141.9120 N   0  0  0  0  0  2  0  0  0  0  0  0
  186.4520  177.6350  138.0760 Cl  0  0  0  0  0  0  0  0  0  0  0  0
  184.6040  179.4210  143.9640 C   0  0  0  0  0  1  0  0  0  0  0  0
  187.4060  178.1510  140.6320 C   0  0  0  0  0  0  0  0  0  0  0  0
  185.8520  179.2350  141.6730 C   0  0  1  0  0  3  0  0  0  0  0  0
  194.1790  175.4750  135.8580 C   0  0  0  0  0  0  0  0  0  0  0  0
  193.9680  173.9890  136.1990 C   0  0  0  0  0  2  0  0  0  0  0  0
  194.7380  174.8230  137.1340 C   0  0  0  0  0  2  0  0  0  0  0  0
  193.6980  176.7540  136.5460 C   0  0  0  0  0  2  0  0  0  0  0  0
  192.7060  176.0020  135.7540 C   0  0  2  0  0  3  0  0  0  0  0  0
  189.1740  177.8790  142.8870 C   0  0  0  0  0  2  0  0  0  0  0  0
  189.2460  177.1060  144.1930 C   0  0  0  0  0  2  0  0  0  0  0  0
  191.4700  177.8560  144.6450 O   0  0  0  0  0  1  0  0  0  0  0  0
  190.1770  177.8120  145.1670 C   0  0  0  0  0  2  0  0  0  0  0  0
  2 13  1  6  0  0  0
  2  7  1  0  0  0  0
  2  9  1  0  0  0  0
  3 11  1  0  0  0  0
  3 13  1  1  0  0  0
  5  1  1  6  0  0  0
  5 11  1  0  0  0  0
  6  8  1  0  0  0  0
  7  4  1  6  0  0  0
  7  6  1  0  0  0  0
  8 29  1  1  0  0  0
  9 22  1  1  0  0  0
  9  8  1  0  0  0  0
 10  1  1  0  0  0  0
 10 12  1  0  0  0  0
 11  4  1  1  0  0  0
 12  3  1  0  0  0  0
 14 15  1  0  0  0  0
 14 22  2  0  0  0  0
 15 18  1  1  0  0  0
 15 23  1  0  0  0  0
 16 21  1  0  0  0  0
 17 16  2  0  0  0  0
 18 17  1  0  0  0  0
 20 14  1  0  0  0  0
 22 19  1  0  0  0  0
 23 19  1  1  0  0  0
 23 16  1  0  0  0  0
 24 25  1  0  0  0  0
 24 27  1  0  0  0  0
 24 26  1  0  0  0  0
 25 26  1  0  0  0  0
 28 24  1  0  0  0  0
 28 27  1  1  0  0  0
 28  5  1  0  0  0  0
 29 30  1  0  0  0  0
 30 32  1  0  0  0  0
 31 32  1  0  0  0  0
M  END
>  <MODEL>
6

>  <REMARK>
 VINA RESULT:      -6.3      2.770      4.249
  Name = 
  5 active torsions:
  status: ('A' for Active; 'I' for Inactive)
    1  A    between atoms: C_5  and  C_25
    2  A    between atoms: C_12  and  C_24
    3  A    between atoms: C_15  and  C_26
    4  A    between atoms: C_16  and  C_31
    5  A    between atoms: C_25  and  C_26
                            x       y       z     vdW  Elec       q    Type
                         _______ _______ _______ _____ _____    ______ ____

>  <TORSDO>
F 5

$$$$
=
 OpenBabel10262421303D

 32 38  0  0  1  0  0  0  0  0999 V2000
  186.2120  179.3900  146.0150 C   0  0  0  0  0  2  0  0  0  0  0  0
  188.6850  176.8160  142.4530 C   0  0  2  0  0  3  0  0  0  0  0  0
  186.8950  177.7070  143.9900 C   0  0  2  0  0  3  0  0  0  0  0  0
  189.2480  178.1190  144.5970 C   0  0  0  0  0  2  0  0  0  0  0  0
  187.4400  178.5170  146.3300 C   0  0  2  0  0  3  0  0  0  0  0  0
  190.8400  177.8150  142.7920 N   0  0  0  0  0  2  0  0  0  0  0  0
  189.7460  177.1600  143.5040 C   0  0  2  0  0  3  0  0  0  0  0  0
  190.3300  178.2350  141.4830 C   0  0  2  0  0  3  0  0  0  0  0  0
  188.8300  177.9200  141.4460 C   0  0  1  0  0  3  0  0  0  0  0  0
  185.1950  178.7340  145.0510 C   0  0  0  0  0  2  0  0  0  0  0  0
  187.9010  177.6710  145.1290 C   0  0  1  0  0  3  0  0  0  0  0  0
  185.6180  177.4970  144.5200 O   0  0  0  0  0  0  0  0  0  0  0  0
  187.2540  176.6280  142.9830 C   0  0  0  0  0  2  0  0  0  0  0  0
  187.0700  177.9700  139.6590 C   0  0  0  0  0  0  0  0  0  0  0  0
  186.9940  177.5080  138.2920 C   0  0  1  0  0  3  0  0  0  0  0  0
  188.4840  177.0210  136.6640 C   0  0  0  0  0  0  0  0  0  0  0  0
  187.5660  177.7730  136.1340 N   0  0  0  0  0  0  0  0  0  0  0  0
  186.6590  178.1540  137.1830 C   0  0  0  0  0  2  0  0  0  0  0  0
  189.0350  176.9350  139.0570 N   0  0  0  0  0  2  0  0  0  0  0  0
  185.9070  178.9700  140.5080 Cl  0  0  0  0  0  0  0  0  0  0  0  0
  189.6600  176.5010  135.9160 C   0  0  0  0  0  1  0  0  0  0  0  0
  188.2680  177.5680  140.0980 C   0  0  0  0  0  0  0  0  0  0  0  0
  188.2100  176.8250  138.0690 C   0  0  1  0  0  3  0  0  0  0  0  0
  188.2910  177.2860  148.5550 C   0  0  0  0  0  0  0  0  0  0  0  0
  189.0360  178.6310  148.6330 C   0  0  0  0  0  2  0  0  0  0  0  0
  189.7810  177.4380  148.2060 C   0  0  0  0  0  2  0  0  0  0  0  0
  187.9560  176.3790  147.3710 C   0  0  0  0  0  2  0  0  0  0  0  0
  187.1470  177.6030  147.5310 C   0  0  2  0  0  3  0  0  0  0  0  0
  191.1320  177.5320  140.3890 C   0  0  0  0  0  2  0  0  0  0  0  0
  192.5300  177.2020  140.8830 C   0  0  0  0  0  2  0  0  0  0  0  0
  193.6070  176.4600  138.8830 O   0  0  0  0  0  1  0  0  0  0  0  0
  193.5530  177.5090  139.8010 C   0  0  0  0  0  2  0  0  0  0  0  0
  2 13  1  1  0  0  0
  2  7  1  0  0  0  0
  3 13  1  6  0  0  0
  3 12  1  0  0  0  0
  3 11  1  0  0  0  0
  5  1  1  6  0  0  0
  5 28  1  0  0  0  0
  6  7  1  0  0  0  0
  7  4  1  1  0  0  0
  8 29  1  6  0  0  0
  8  6  1  0  0  0  0
  9 22  1  6  0  0  0
  9  8  1  0  0  0  0
  9  2  1  0  0  0  0
 10  1  1  0  0  0  0
 11  4  1  6  0  0  0
 11  5  1  0  0  0  0
 12 10  1  0  0  0  0
 14 22  2  0  0  0  0
 14 20  1  0  0  0  0
 15 18  1  6  0  0  0
 15 14  1  0  0  0  0
 17 16  2  0  0  0  0
 17 18  1  0  0  0  0
 19 22  1  0  0  0  0
 21 16  1  0  0  0  0
 23 16  1  6  0  0  0
 23 15  1  0  0  0  0
 23 19  1  0  0  0  0
 24 25  1  0  0  0  0
 26 24  1  0  0  0  0
 26 25  1  0  0  0  0
 27 24  1  0  0  0  0
 28 27  1  6  0  0  0
 28 24  1  0  0  0  0
 29 30  1  0  0  0  0
 31 32  1  0  0  0  0
 32 30  1  0  0  0  0
M  END
>  <MODEL>
7

>  <REMARK>
 VINA RESULT:      -6.0      2.411      7.681
  Name = 
  5 active torsions:
  status: ('A' for Active; 'I' for Inactive)
    1  A    between atoms: C_5  and  C_25
    2  A    between atoms: C_12  and  C_24
    3  A    between atoms: C_15  and  C_26
    4  A    between atoms: C_16  and  C_31
    5  A    between atoms: C_25  and  C_26
                            x       y       z     vdW  Elec       q    Type
                         _______ _______ _______ _____ _____    ______ ____

>  <TORSDO>
F 5

$$$$
=
 OpenBabel10262421303D

 32 38  0  0  1  0  0  0  0  0999 V2000
  188.4040  178.9410  147.7320 C   0  0  0  0  0  2  0  0  0  0  0  0
  187.0770  177.1470  143.2100 C   0  0  2  0  0  3  0  0  0  0  0  0
  187.1500  177.6800  145.6750 C   0  0  2  0  0  3  0  0  0  0  0  0
  189.1940  178.0590  144.3510 C   0  0  0  0  0  2  0  0  0  0  0  0
  189.3450  178.0700  146.8810 C   0  0  2  0  0  3  0  0  0  0  0  0
  188.8580  178.1460  141.9490 N   0  0  0  0  0  2  0  0  0  0  0  0
  188.5970  177.3340  143.1340 C   0  0  2  0  0  3  0  0  0  0  0  0
  187.5950  178.7780  141.5560 C   0  0  2  0  0  3  0  0  0  0  0  0
  186.5470  178.4200  142.6170 C   0  0  1  0  0  3  0  0  0  0  0  0
  186.9430  178.4350  147.7850 C   0  0  0  0  0  2  0  0  0  0  0  0
  188.6560  177.4730  145.6410 C   0  0  1  0  0  3  0  0  0  0  0  0
  186.6830  177.3300  146.9460 O   0  0  0  0  0  0  0  0  0  0  0  0
  186.5120  176.8150  144.6010 C   0  0  0  0  0  2  0  0  0  0  0  0
  184.0550  178.5820  142.8670 C   0  0  0  0  0  0  0  0  0  0  0  0
  182.9320  178.4420  141.9690 C   0  0  1  0  0  3  0  0  0  0  0  0
  182.6130  178.6010  139.7380 C   0  0  0  0  0  0  0  0  0  0  0  0
  181.6720  179.2890  140.3120 N   0  0  0  0  0  0  0  0  0  0  0  0
  181.9150  179.2590  141.7290 C   0  0  0  0  0  2  0  0  0  0  0  0
  184.7870  178.0610  140.7480 N   0  0  0  0  0  2  0  0  0  0  0  0
  184.0260  179.1480  144.5260 Cl  0  0  0  0  0  0  0  0  0  0  0  0
  182.7620  178.4740  138.2640 C   0  0  0  0  0  1  0  0  0  0  0  0
  185.1320  178.2980  142.1260 C   0  0  0  0  0  0  0  0  0  0  0  0
  183.4950  178.0440  140.7370 C   0  0  1  0  0  3  0  0  0  0  0  0
  191.2330  176.2000  147.2410 C   0  0  0  0  0  0  0  0  0  0  0  0
  192.0400  177.3430  146.6000 C   0  0  0  0  0  2  0  0  0  0  0  0
  191.6670  176.1920  145.7650 C   0  0  0  0  0  2  0  0  0  0  0  0
  189.8160  175.6850  146.9780 C   0  0  0  0  0  2  0  0  0  0  0  0
  189.9450  176.9440  147.7390 C   0  0  2  0  0  3  0  0  0  0  0  0
  187.2250  178.3140  140.1480 C   0  0  0  0  0  2  0  0  0  0  0  0
  188.4380  177.7290  139.4450 C   0  0  0  0  0  2  0  0  0  0  0  0
  188.9790  179.5720  138.0230 O   0  0  0  0  0  1  0  0  0  0  0  0
  188.5190  178.2550  138.0200 C   0  0  0  0  0  2  0  0  0  0  0  0
  1 10  1  0  0  0  0
  2 13  1  1  0  0  0
  3 13  1  6  0  0  0
  3 12  1  0  0  0  0
  5  1  1  1  0  0  0
  5 28  1  0  0  0  0
  6  7  1  0  0  0  0
  7  2  1  0  0  0  0
  7  4  1  1  0  0  0
  8 29  1  6  0  0  0
  8  6  1  0  0  0  0
  8  9  1  0  0  0  0
  9 22  1  6  0  0  0
  9  2  1  0  0  0  0
 11  4  1  6  0  0  0
 11  3  1  0  0  0  0
 11  5  1  0  0  0  0
 12 10  1  0  0  0  0
 14 20  1  0  0  0  0
 15 18  1  6  0  0  0
 15 14  1  0  0  0  0
 16 17  2  0  0  0  0
 17 18  1  0  0  0  0
 19 22  1  0  0  0  0
 21 16  1  0  0  0  0
 22 14  2  0  0  0  0
 23 16  1  6  0  0  0
 23 19  1  0  0  0  0
 23 15  1  0  0  0  0
 24 28  1  0  0  0  0
 25 24  1  0  0  0  0
 26 25  1  0  0  0  0
 26 24  1  0  0  0  0
 27 24  1  0  0  0  0
 28 27  1  6  0  0  0
 30 29  1  0  0  0  0
 32 31  1  0  0  0  0
 32 30  1  0  0  0  0
M  END
>  <MODEL>
8

>  <REMARK>
 VINA RESULT:      -5.9      2.938      7.328
  Name = 
  5 active torsions:
  status: ('A' for Active; 'I' for Inactive)
    1  A    between atoms: C_5  and  C_25
    2  A    between atoms: C_12  and  C_24
    3  A    between atoms: C_15  and  C_26
    4  A    between atoms: C_16  and  C_31
    5  A    between atoms: C_25  and  C_26
                            x       y       z     vdW  Elec       q    Type
                         _______ _______ _______ _____ _____    ______ ____

>  <TORSDO>
F 5

$$$$
=
 OpenBabel10262421303D

 32 38  0  0  1  0  0  0  0  0999 V2000
  192.1550  172.9520  135.8610 C   0  0  0  0  0  2  0  0  0  0  0  0
  190.0070  177.2000  137.5240 C   0  0  2  0  0  3  0  0  0  0  0  0
  190.7570  175.2750  136.0770 C   0  0  2  0  0  3  0  0  0  0  0  0
  191.9540  175.6610  138.1970 C   0  0  0  0  0  2  0  0  0  0  0  0
  192.9710  174.1040  136.4740 C   0  0  2  0  0  3  0  0  0  0  0  0
  190.7890  177.0730  139.7890 N   0  0  0  0  0  2  0  0  0  0  0  0
  191.2470  177.0100  138.4040 C   0  0  2  0  0  3  0  0  0  0  0  0
  189.3350  176.8850  139.7850 C   0  0  2  0  0  3  0  0  0  0  0  0
  188.9100  176.5840  138.3430 C   0  0  1  0  0  3  0  0  0  0  0  0
  191.0650  173.4050  134.8620 C   0  0  0  0  0  2  0  0  0  0  0  0
  192.1320  175.3710  136.7200 C   0  0  1  0  0  3  0  0  0  0  0  0
  190.9110  174.8050  134.7690 O   0  0  0  0  0  0  0  0  0  0  0  0
  190.1110  176.6490  136.0920 C   0  0  0  0  0  2  0  0  0  0  0  0
  186.7150  176.3850  137.1430 C   0  0  0  0  0  0  0  0  0  0  0  0
  185.4850  177.1430  137.1390 C   0  0  1  0  0  3  0  0  0  0  0  0
  184.4600  178.5720  138.5590 C   0  0  0  0  0  0  0  0  0  0  0  0
  183.5680  177.7130  138.1660 N   0  0  0  0  0  0  0  0  0  0  0  0
  184.2310  176.7520  137.3260 C   0  0  0  0  0  2  0  0  0  0  0  0
  186.8880  178.1910  138.5580 N   0  0  0  0  0  2  0  0  0  0  0  0
  187.0100  174.8360  136.3770 Cl  0  0  0  0  0  0  0  0  0  0  0  0
  184.1800  179.6710  139.5210 C   0  0  0  0  0  1  0  0  0  0  0  0
  187.5400  177.0600  137.9510 C   0  0  0  0  0  0  0  0  0  0  0  0
  185.7400  178.2580  137.9680 C   0  0  1  0  0  3  0  0  0  0  0  0
  195.6200  174.3990  136.1780 C   0  0  0  0  0  0  0  0  0  0  0  0
  195.5410  173.1900  137.1280 C   0  0  0  0  0  2  0  0  0  0  0  0
  195.8920  174.5040  137.6870 C   0  0  0  0  0  2  0  0  0  0  0  0
  194.7860  175.6790  136.0910 C   0  0  0  0  0  2  0  0  0  0  0  0
  194.1730  174.4400  135.5750 C   0  0  2  0  0  3  0  0  0  0  0  0
  188.6720  178.1300  140.3720 C   0  0  0  0  0  2  0  0  0  0  0  0
  188.9170  178.2080  141.8690 C   0  0  0  0  0  2  0  0  0  0  0  0
  188.5970  176.2480  143.1980 O   0  0  0  0  0  1  0  0  0  0  0  0
  187.9270  177.3200  142.6070 C   0  0  0  0  0  2  0  0  0  0  0  0
  2 13  1  6  0  0  0
  2  9  1  0  0  0  0
  2  7  1  0  0  0  0
  3 13  1  6  0  0  0
  3 11  1  0  0  0  0
  5  1  1  6  0  0  0
  5 11  1  0  0  0  0
  7  4  1  6  0  0  0
  7  6  1  0  0  0  0
  8  6  1  0  0  0  0
  8 29  1  6  0  0  0
  9 22  1  6  0  0  0
  9  8  1  0  0  0  0
 10  1  1  0  0  0  0
 11  4  1  1  0  0  0
 12 10  1  0  0  0  0
 12  3  1  0  0  0  0
 14 22  2  0  0  0  0
 15 14  1  0  0  0  0
 15 18  1  1  0  0  0
 15 23  1  0  0  0  0
 16 21  1  0  0  0  0
 17 16  2  0  0  0  0
 18 17  1  0  0  0  0
 20 14  1  0  0  0  0
 22 19  1  0  0  0  0
 23 19  1  1  0  0  0
 23 16  1  0  0  0  0
 24 25  1  0  0  0  0
 24 26  1  0  0  0  0
 25 26  1  0  0  0  0
 27 24  1  0  0  0  0
 28 27  1  1  0  0  0
 28 24  1  0  0  0  0
 28  5  1  0  0  0  0
 29 30  1  0  0  0  0
 30 32  1  0  0  0  0
 32 31  1  0  0  0  0
M  END
>  <MODEL>
9

>  <REMARK>
 VINA RESULT:      -5.9      3.826      6.605
  Name = 
  5 active torsions:
  status: ('A' for Active; 'I' for Inactive)
    1  A    between atoms: C_5  and  C_25
    2  A    between atoms: C_12  and  C_24
    3  A    between atoms: C_15  and  C_26
    4  A    between atoms: C_16  and  C_31
    5  A    between atoms: C_25  and  C_26
                            x       y       z     vdW  Elec       q    Type
                         _______ _______ _______ _____ _____    ______ ____

>  <TORSDO>
F 5

$$$$
