=
 OpenBabel10262419263D

 31 35  0  0  1  0  0  0  0  0999 V2000
  189.6740  176.9850  142.9150 C   0  0  0  0  0  3  0  0  0  0  0  0
  187.4680  177.9880  143.3810 C   0  0  0  0  0  0  0  0  0  0  0  0
  187.6050  177.7140  144.8790 C   0  0  1  0  0  3  0  0  0  0  0  0
  189.3520  177.4190  146.6110 C   0  0  0  0  0  2  0  0  0  0  0  0
  188.4940  177.6110  142.4750 C   0  0  0  0  0  0  0  0  0  0  0  0
  190.5120  176.8900  140.6490 C   0  0  0  0  0  3  0  0  0  0  0  0
  188.8900  178.3010  145.4580 C   0  0  0  0  0  2  0  0  0  0  0  0
  186.1180  178.7540  141.4750 C   0  0  0  0  0  0  0  0  0  0  0  0
  191.8070  176.0320  142.4540 F   0  0  0  0  0  0  0  0  0  0  0  0
  185.1060  177.9590  145.0050 C   0  0  0  0  0  2  0  0  0  0  0  0
  188.7980  177.8400  147.9780 C   0  0  0  0  0  2  0  0  0  0  0  0
  187.1640  178.4270  140.6100 C   0  0  0  0  0  3  0  0  0  0  0  0
  186.2520  178.5060  142.8540 C   0  0  0  0  0  0  0  0  0  0  0  0
  190.6760  176.6280  142.0100 C   0  0  0  0  0  0  0  0  0  0  0  0
  187.3510  178.3460  148.0040 C   0  0  0  0  0  2  0  0  0  0  0  0
  188.3350  177.8520  141.0910 C   0  0  0  0  0  0  0  0  0  0  0  0
  189.3430  177.4980  140.1890 C   0  0  0  0  0  3  0  0  0  0  0  0
  185.0930  178.8270  143.7600 C   0  0  0  0  0  2  0  0  0  0  0  0
  186.4180  178.2070  145.7170 C   0  0  1  0  0  3  0  0  0  0  0  0
  186.4090  177.5660  147.0970 C   0  0  0  0  0  2  0  0  0  0  0  0
  183.7660  177.3680  140.3710 O   0  0  0  0  0  0  0  0  0  0  0  0
  183.7600  178.6260  140.4440 C   0  0  0  0  0  0  0  0  0  0  0  0
  184.8960  179.3260  140.9750 N   0  0  0  0  0  2  0  0  0  0  0  0
  180.4010  180.8960  139.0270 C   0  0  0  0  0  0  0  0  0  0  0  0
  182.6940  180.1640  138.8120 C   0  0  0  0  0  3  0  0  0  0  0  0
  181.1770  178.6530  141.8400 O   0  0  0  0  0  1  0  0  0  0  0  0
  179.2990  181.6540  138.5440 N   0  0  0  0  0  1  0  0  0  0  0  0
  181.6130  180.9080  138.3360 C   0  0  0  0  0  3  0  0  0  0  0  0
  181.3490  179.3920  140.6760 C   0  0  0  0  0  0  0  0  0  0  0  0
  182.5830  179.3980  139.9820 C   0  0  0  0  0  0  0  0  0  0  0  0
  180.2710  180.1400  140.1930 C   0  0  0  0  0  3  0  0  0  0  0  0
  2  3  1  0  0  0  0
  3  7  1  1  0  0  0
  3 19  1  0  0  0  0
  4 11  1  0  0  0  0
  5  1  1  0  0  0  0
  5  2  2  0  0  0  0
  6 14  1  0  0  0  0
  7  4  1  0  0  0  0
  8 13  2  0  0  0  0
 11 15  1  0  0  0  0
 12 16  2  0  0  0  0
 12  8  1  0  0  0  0
 13  2  1  0  0  0  0
 13 18  1  0  0  0  0
 14  9  1  0  0  0  0
 14  1  2  0  0  0  0
 16  5  1  0  0  0  0
 17  6  2  0  0  0  0
 17 16  1  0  0  0  0
 18 10  1  0  0  0  0
 19 10  1  6  0  0  0
 19 20  1  0  0  0  0
 20 15  1  0  0  0  0
 21 22  2  0  0  0  0
 22 23  1  0  0  0  0
 23  8  1  0  0  0  0
 24 31  1  0  0  0  0
 25 30  2  0  0  0  0
 27 24  1  0  0  0  0
 28 25  1  0  0  0  0
 28 24  2  0  0  0  0
 29 26  1  0  0  0  0
 30 22  1  0  0  0  0
 30 29  1  0  0  0  0
 31 29  2  0  0  0  0
M  END
>  <MODEL>
1

>  <REMARK>
 VINA RESULT:     -10.0      0.000      0.000
  Name = 
  2 active torsions:
  status: ('A' for Active; 'I' for Inactive)
    1  A    between atoms: C_9  and  C_22
    2  A    between atoms: C_15  and  N_23
                            x       y       z     vdW  Elec       q    Type
                         _______ _______ _______ _____ _____    ______ ____

>  <TORSDO>
F 2

$$$$
=
 OpenBabel10262419263D

 31 35  0  0  1  0  0  0  0  0999 V2000
  185.2230  178.7960  144.3960 C   0  0  0  0  0  3  0  0  0  0  0  0
  187.4900  177.9540  143.9070 C   0  0  0  0  0  0  0  0  0  0  0  0
  187.8990  178.0580  145.3770 C   0  0  1  0  0  3  0  0  0  0  0  0
  186.8960  178.0110  147.6420 C   0  0  0  0  0  2  0  0  0  0  0  0
  186.1870  178.3280  143.4860 C   0  0  0  0  0  0  0  0  0  0  0  0
  183.6090  179.0500  142.6130 C   0  0  0  0  0  3  0  0  0  0  0  0
  186.9440  177.3000  146.2970 C   0  0  0  0  0  2  0  0  0  0  0  0
  188.0830  177.5150  141.5620 C   0  0  0  0  0  0  0  0  0  0  0  0
  183.0270  179.5950  144.8560 F   0  0  0  0  0  0  0  0  0  0  0  0
  190.2790  178.0280  144.5670 C   0  0  0  0  0  2  0  0  0  0  0  0
  187.9310  177.5020  148.6530 C   0  0  0  0  0  2  0  0  0  0  0  0
  186.7780  177.8350  141.1790 C   0  0  0  0  0  3  0  0  0  0  0  0
  188.4510  177.6060  142.9180 C   0  0  0  0  0  0  0  0  0  0  0  0
  183.9440  179.1530  143.9640 C   0  0  0  0  0  0  0  0  0  0  0  0
  189.3080  177.1290  148.0940 C   0  0  0  0  0  2  0  0  0  0  0  0
  185.8400  178.2480  142.1170 C   0  0  0  0  0  0  0  0  0  0  0  0
  184.5560  178.6010  141.6900 C   0  0  0  0  0  3  0  0  0  0  0  0
  189.8760  177.2980  143.2990 C   0  0  0  0  0  2  0  0  0  0  0  0
  189.3320  177.5900  145.6630 C   0  0  1  0  0  3  0  0  0  0  0  0
  189.8160  178.0820  147.0190 C   0  0  0  0  0  2  0  0  0  0  0  0
  189.0440  179.0030  139.2100 O   0  0  0  0  0  0  0  0  0  0  0  0
  189.5170  177.8600  139.4490 C   0  0  0  0  0  0  0  0  0  0  0  0
  189.0610  177.1120  140.5880 N   0  0  0  0  0  2  0  0  0  0  0  0
  192.4290  176.1460  136.7990 C   0  0  0  0  0  0  0  0  0  0  0  0
  190.1690  176.8590  137.2720 C   0  0  0  0  0  3  0  0  0  0  0  0
  192.3280  177.5030  140.2190 O   0  0  0  0  0  1  0  0  0  0  0  0
  193.3810  175.5760  135.9090 N   0  0  0  0  0  1  0  0  0  0  0  0
  191.1020  176.3000  136.3970 C   0  0  0  0  0  3  0  0  0  0  0  0
  191.8940  177.1120  138.9570 C   0  0  0  0  0  0  0  0  0  0  0  0
  190.5460  177.2720  138.5600 C   0  0  0  0  0  0  0  0  0  0  0  0
  192.8220  176.5510  138.0750 C   0  0  0  0  0  3  0  0  0  0  0  0
  2  3  1  0  0  0  0
  3 19  1  0  0  0  0
  3  7  1  1  0  0  0
  4 11  1  0  0  0  0
  5  2  1  0  0  0  0
  5  1  2  0  0  0  0
  6 14  2  0  0  0  0
  7  4  1  0  0  0  0
  8 13  1  0  0  0  0
 12  8  2  0  0  0  0
 12 16  1  0  0  0  0
 13 18  1  0  0  0  0
 13  2  2  0  0  0  0
 14  1  1  0  0  0  0
 14  9  1  0  0  0  0
 15 11  1  0  0  0  0
 16  5  1  0  0  0  0
 17 16  2  0  0  0  0
 17  6  1  0  0  0  0
 18 10  1  0  0  0  0
 19 10  1  6  0  0  0
 19 20  1  0  0  0  0
 20 15  1  0  0  0  0
 21 22  2  0  0  0  0
 22 23  1  0  0  0  0
 23  8  1  0  0  0  0
 24 31  1  0  0  0  0
 25 30  2  0  0  0  0
 27 24  1  0  0  0  0
 28 24  2  0  0  0  0
 28 25  1  0  0  0  0
 29 26  1  0  0  0  0
 30 29  1  0  0  0  0
 30 22  1  0  0  0  0
 31 29  2  0  0  0  0
M  END
>  <MODEL>
2

>  <REMARK>
 VINA RESULT:      -9.9      3.846      7.091
  Name = 
  2 active torsions:
  status: ('A' for Active; 'I' for Inactive)
    1  A    between atoms: C_9  and  C_22
    2  A    between atoms: C_15  and  N_23
                            x       y       z     vdW  Elec       q    Type
                         _______ _______ _______ _____ _____    ______ ____

>  <TORSDO>
F 2

$$$$
=
 OpenBabel10262419263D

 31 35  0  0  1  0  0  0  0  0999 V2000
  186.6270  178.1720  145.3940 C   0  0  0  0  0  3  0  0  0  0  0  0
  186.6660  178.1160  142.9280 C   0  0  0  0  0  0  0  0  0  0  0  0
  188.1640  177.8070  142.9100 C   0  0  1  0  0  3  0  0  0  0  0  0
  189.9100  176.7520  144.3160 C   0  0  0  0  0  2  0  0  0  0  0  0
  185.9730  178.2880  144.1550 C   0  0  0  0  0  0  0  0  0  0  0  0
  184.5620  178.6240  146.5690 C   0  0  0  0  0  3  0  0  0  0  0  0
  188.5090  176.5760  143.7440 C   0  0  0  0  0  2  0  0  0  0  0  0
  184.5930  178.6600  141.7240 C   0  0  0  0  0  0  0  0  0  0  0  0
  186.5740  178.2140  147.7750 F   0  0  0  0  0  0  0  0  0  0  0  0
  188.1560  178.6270  140.5330 C   0  0  0  0  0  2  0  0  0  0  0  0
  191.0230  176.1930  143.4210 C   0  0  0  0  0  2  0  0  0  0  0  0
  183.9200  178.7680  142.9440 C   0  0  0  0  0  3  0  0  0  0  0  0
  185.9700  178.3680  141.7130 C   0  0  0  0  0  0  0  0  0  0  0  0
  185.9280  178.3360  146.5920 C   0  0  0  0  0  0  0  0  0  0  0  0
  190.8420  176.3750  141.9090 C   0  0  0  0  0  2  0  0  0  0  0  0
  184.5930  178.5980  144.1470 C   0  0  0  0  0  0  0  0  0  0  0  0
  183.8960  178.7570  145.3490 C   0  0  0  0  0  3  0  0  0  0  0  0
  186.6810  178.3000  140.3870 C   0  0  0  0  0  2  0  0  0  0  0  0
  188.7490  177.6280  141.5020 C   0  0  1  0  0  3  0  0  0  0  0  0
  190.2670  177.7290  141.5160 C   0  0  0  0  0  2  0  0  0  0  0  0
  182.8920  176.7610  140.2500 O   0  0  0  0  0  0  0  0  0  0  0  0
  183.0730  177.9160  139.7810 C   0  0  0  0  0  0  0  0  0  0  0  0
  183.9020  178.8600  140.4780 N   0  0  0  0  0  2  0  0  0  0  0  0
  181.2760  179.0010  136.0340 C   0  0  0  0  0  0  0  0  0  0  0  0
  182.7770  177.6220  137.3330 C   0  0  0  0  0  3  0  0  0  0  0  0
  181.1150  180.0920  139.5460 O   0  0  0  0  0  1  0  0  0  0  0  0
  180.6900  179.3470  134.7850 N   0  0  0  0  0  1  0  0  0  0  0  0
  182.2030  177.9600  136.1060 C   0  0  0  0  0  3  0  0  0  0  0  0
  181.4930  179.3680  138.4210 C   0  0  0  0  0  0  0  0  0  0  0  0
  182.4350  178.3150  138.5050 C   0  0  0  0  0  0  0  0  0  0  0  0
  180.9230  179.7010  137.1890 C   0  0  0  0  0  3  0  0  0  0  0  0
  1 14  1  0  0  0  0
  2  5  1  0  0  0  0
  3  2  1  0  0  0  0
  3  7  1  1  0  0  0
  5  1  2  0  0  0  0
  6 14  2  0  0  0  0
  7  4  1  0  0  0  0
  8 12  2  0  0  0  0
 11  4  1  0  0  0  0
 12 16  1  0  0  0  0
 13  8  1  0  0  0  0
 13  2  2  0  0  0  0
 14  9  1  0  0  0  0
 15 11  1  0  0  0  0
 16  5  1  0  0  0  0
 16 17  2  0  0  0  0
 17  6  1  0  0  0  0
 18 10  1  0  0  0  0
 18 13  1  0  0  0  0
 19 10  1  6  0  0  0
 19 20  1  0  0  0  0
 19  3  1  0  0  0  0
 20 15  1  0  0  0  0
 22 21  2  0  0  0  0
 22 23  1  0  0  0  0
 23  8  1  0  0  0  0
 24 28  2  0  0  0  0
 24 31  1  0  0  0  0
 25 30  2  0  0  0  0
 27 24  1  0  0  0  0
 28 25  1  0  0  0  0
 29 30  1  0  0  0  0
 29 26  1  0  0  0  0
 30 22  1  0  0  0  0
 31 29  2  0  0  0  0
M  END
>  <MODEL>
3

>  <REMARK>
 VINA RESULT:      -9.7      2.240      4.427
  Name = 
  2 active torsions:
  status: ('A' for Active; 'I' for Inactive)
    1  A    between atoms: C_9  and  C_22
    2  A    between atoms: C_15  and  N_23
                            x       y       z     vdW  Elec       q    Type
                         _______ _______ _______ _____ _____    ______ ____

>  <TORSDO>
F 2

$$$$
=
 OpenBabel10262419263D

 31 35  0  0  1  0  0  0  0  0999 V2000
  186.6240  178.6120  142.4420 C   0  0  0  0  0  3  0  0  0  0  0  0
  188.9330  177.8100  142.1080 C   0  0  0  0  0  0  0  0  0  0  0  0
  189.2110  177.8330  143.6120 C   0  0  1  0  0  3  0  0  0  0  0  0
  188.0140  177.6530  145.7740 C   0  0  0  0  0  2  0  0  0  0  0  0
  187.6680  178.2010  141.5950 C   0  0  0  0  0  0  0  0  0  0  0  0
  185.1690  178.9570  140.5410 C   0  0  0  0  0  3  0  0  0  0  0  0
  188.1870  177.0190  144.4000 C   0  0  0  0  0  2  0  0  0  0  0  0
  189.7330  177.5090  139.8030 C   0  0  0  0  0  0  0  0  0  0  0  0
  184.3880  179.3710  142.7520 F   0  0  0  0  0  0  0  0  0  0  0  0
  191.6530  177.8620  143.0130 C   0  0  0  0  0  2  0  0  0  0  0  0
  188.9620  177.0930  146.8420 C   0  0  0  0  0  2  0  0  0  0  0  0
  188.4630  177.8430  139.3260 C   0  0  0  0  0  3  0  0  0  0  0  0
  189.9810  177.5250  141.1890 C   0  0  0  0  0  0  0  0  0  0  0  0
  185.3840  178.9850  141.9200 C   0  0  0  0  0  0  0  0  0  0  0  0
  190.3880  176.7600  146.3850 C   0  0  0  0  0  2  0  0  0  0  0  0
  187.4430  178.1970  140.1990 C   0  0  0  0  0  0  0  0  0  0  0  0
  186.1980  178.5670  139.6820 C   0  0  0  0  0  3  0  0  0  0  0  0
  191.3700  177.2030  141.6760 C   0  0  0  0  0  2  0  0  0  0  0  0
  190.6190  177.3570  143.9950 C   0  0  1  0  0  3  0  0  0  0  0  0
  190.9770  177.7740  145.4140 C   0  0  0  0  0  2  0  0  0  0  0  0
  190.0610  175.0540  138.2110 O   0  0  0  0  0  0  0  0  0  0  0  0
  190.9320  175.9610  138.1280 C   0  0  0  0  0  0  0  0  0  0  0  0
  190.7970  177.1660  138.8980 N   0  0  0  0  0  2  0  0  0  0  0  0
  194.3880  175.4590  135.6280 C   0  0  0  0  0  0  0  0  0  0  0  0
  193.3390  175.4440  137.8060 C   0  0  0  0  0  3  0  0  0  0  0  0
  190.8340  176.3260  135.2160 O   0  0  0  0  0  1  0  0  0  0  0  0
  195.5420  175.2890  134.8150 N   0  0  0  0  0  1  0  0  0  0  0  0
  194.4730  175.2760  137.0090 C   0  0  0  0  0  3  0  0  0  0  0  0
  192.0280  175.9770  135.8370 C   0  0  0  0  0  0  0  0  0  0  0  0
  192.1040  175.7950  137.2380 C   0  0  0  0  0  0  0  0  0  0  0  0
  193.1680  175.8080  135.0460 C   0  0  0  0  0  3  0  0  0  0  0  0
  2  3  1  0  0  0  0
  3 19  1  0  0  0  0
  3  7  1  1  0  0  0
  4 11  1  0  0  0  0
  5  2  1  0  0  0  0
  5  1  2  0  0  0  0
  6 14  2  0  0  0  0
  7  4  1  0  0  0  0
  8 13  1  0  0  0  0
 12  8  2  0  0  0  0
 12 16  1  0  0  0  0
 13 18  1  0  0  0  0
 13  2  2  0  0  0  0
 14  1  1  0  0  0  0
 14  9  1  0  0  0  0
 15 11  1  0  0  0  0
 16  5  1  0  0  0  0
 17 16  2  0  0  0  0
 17  6  1  0  0  0  0
 18 10  1  0  0  0  0
 19 10  1  6  0  0  0
 19 20  1  0  0  0  0
 20 15  1  0  0  0  0
 22 21  2  0  0  0  0
 22 23  1  0  0  0  0
 23  8  1  0  0  0  0
 24 28  1  0  0  0  0
 26 29  1  0  0  0  0
 27 24  1  0  0  0  0
 28 25  2  0  0  0  0
 29 30  2  0  0  0  0
 30 25  1  0  0  0  0
 30 22  1  0  0  0  0
 31 24  2  0  0  0  0
 31 29  1  0  0  0  0
M  END
>  <MODEL>
4

>  <REMARK>
 VINA RESULT:      -9.7      4.439      8.090
  Name = 
  2 active torsions:
  status: ('A' for Active; 'I' for Inactive)
    1  A    between atoms: C_9  and  C_22
    2  A    between atoms: C_15  and  N_23
                            x       y       z     vdW  Elec       q    Type
                         _______ _______ _______ _____ _____    ______ ____

>  <TORSDO>
F 2

$$$$
=
 OpenBabel10262419263D

 31 35  0  0  1  0  0  0  0  0999 V2000
  186.5920  178.4660  137.3440 C   0  0  0  0  0  3  0  0  0  0  0  0
  186.3480  178.3060  139.7940 C   0  0  0  0  0  0  0  0  0  0  0  0
  184.8400  178.5430  139.7080 C   0  0  1  0  0  3  0  0  0  0  0  0
  182.9490  178.2380  138.1360 C   0  0  0  0  0  2  0  0  0  0  0  0
  187.1490  178.2840  138.6220 C   0  0  0  0  0  0  0  0  0  0  0  0
  188.7690  178.2210  136.3200 C   0  0  0  0  0  3  0  0  0  0  0  0
  184.1530  177.5540  138.7690 C   0  0  0  0  0  2  0  0  0  0  0  0
  188.3820  178.0270  141.1460 C   0  0  0  0  0  0  0  0  0  0  0  0
  186.8390  178.6040  134.9790 F   0  0  0  0  0  0  0  0  0  0  0  0
  184.9500  179.1900  142.1360 C   0  0  0  0  0  2  0  0  0  0  0  0
  181.6460  178.0630  138.9260 C   0  0  0  0  0  2  0  0  0  0  0  0
  189.1420  177.9520  139.9750 C   0  0  0  0  0  3  0  0  0  0  0  0
  186.9930  178.2380  141.0600 C   0  0  0  0  0  0  0  0  0  0  0  0
  187.3950  178.4330  136.2020 C   0  0  0  0  0  0  0  0  0  0  0  0
  181.7620  178.0960  140.4540 C   0  0  0  0  0  2  0  0  0  0  0  0
  188.5460  178.0890  138.7280 C   0  0  0  0  0  0  0  0  0  0  0  0
  189.3440  178.0520  137.5810 C   0  0  0  0  0  3  0  0  0  0  0  0
  186.2030  178.3590  142.3370 C   0  0  0  0  0  2  0  0  0  0  0  0
  184.1230  178.5110  141.0650 C   0  0  1  0  0  3  0  0  0  0  0  0
  182.7400  179.1400  140.9760 C   0  0  0  0  0  2  0  0  0  0  0  0
  188.5630  175.6540  142.8790 O   0  0  0  0  0  0  0  0  0  0  0  0
  189.0810  176.7370  143.2630 C   0  0  0  0  0  0  0  0  0  0  0  0
  189.0020  177.9100  142.4380 N   0  0  0  0  0  2  0  0  0  0  0  0
  191.1780  176.9300  147.0060 C   0  0  0  0  0  0  0  0  0  0  0  0
  191.1330  176.4680  144.6350 C   0  0  0  0  0  3  0  0  0  0  0  0
  187.7770  177.5800  145.7560 O   0  0  0  0  0  1  0  0  0  0  0  0
  191.8870  176.9880  148.2380 N   0  0  0  0  0  1  0  0  0  0  0  0
  191.8320  176.5240  145.8420 C   0  0  0  0  0  3  0  0  0  0  0  0
  189.1210  177.2240  145.7560 C   0  0  0  0  0  0  0  0  0  0  0  0
  189.7750  176.8140  144.5700 C   0  0  0  0  0  0  0  0  0  0  0  0
  189.8270  177.2780  146.9620 C   0  0  0  0  0  3  0  0  0  0  0  0
  1  5  1  0  0  0  0
  2 13  1  0  0  0  0
  3  7  1  6  0  0  0
  3  2  1  0  0  0  0
  3 19  1  0  0  0  0
  4  7  1  0  0  0  0
  4 11  1  0  0  0  0
  5 16  1  0  0  0  0
  5  2  2  0  0  0  0
  6 17  2  0  0  0  0
  8 23  1  0  0  0  0
  9 14  1  0  0  0  0
 10 18  1  0  0  0  0
 11 15  1  0  0  0  0
 12  8  1  0  0  0  0
 13  8  2  0  0  0  0
 13 18  1  0  0  0  0
 14  6  1  0  0  0  0
 14  1  2  0  0  0  0
 15 20  1  0  0  0  0
 16 12  2  0  0  0  0
 17 16  1  0  0  0  0
 19 20  1  6  0  0  0
 19 10  1  0  0  0  0
 21 22  2  0  0  0  0
 22 30  1  0  0  0  0
 23 22  1  0  0  0  0
 24 27  1  0  0  0  0
 25 28  1  0  0  0  0
 26 29  1  0  0  0  0
 28 24  2  0  0  0  0
 29 31  2  0  0  0  0
 30 25  2  0  0  0  0
 30 29  1  0  0  0  0
 31 24  1  0  0  0  0
M  END
>  <MODEL>
5

>  <REMARK>
 VINA RESULT:      -9.5      3.659      8.089
  Name = 
  2 active torsions:
  status: ('A' for Active; 'I' for Inactive)
    1  A    between atoms: C_9  and  C_22
    2  A    between atoms: C_15  and  N_23
                            x       y       z     vdW  Elec       q    Type
                         _______ _______ _______ _____ _____    ______ ____

>  <TORSDO>
F 2

$$$$
=
 OpenBabel10262419263D

 31 35  0  0  1  0  0  0  0  0999 V2000
  190.1180  176.9410  140.2210 C   0  0  0  0  0  3  0  0  0  0  0  0
  188.1810  177.8590  141.4420 C   0  0  0  0  0  0  0  0  0  0  0  0
  188.7860  177.4720  142.7920 C   0  0  1  0  0  3  0  0  0  0  0  0
  190.9930  177.0810  143.8500 C   0  0  0  0  0  2  0  0  0  0  0  0
  188.8640  177.5750  140.2300 C   0  0  0  0  0  0  0  0  0  0  0  0
  190.1920  177.0390  137.8050 C   0  0  0  0  0  3  0  0  0  0  0  0
  190.1920  178.0390  142.9780 C   0  0  0  0  0  2  0  0  0  0  0  0
  186.2980  178.7420  140.1320 C   0  0  0  0  0  0  0  0  0  0  0  0
  191.9890  176.0710  139.0310 F   0  0  0  0  0  0  0  0  0  0  0  0
  186.4580  177.6550  143.7240 C   0  0  0  0  0  2  0  0  0  0  0  0
  190.9040  177.3830  145.3510 C   0  0  0  0  0  2  0  0  0  0  0  0
  187.0130  178.5040  138.9550 C   0  0  0  0  0  3  0  0  0  0  0  0
  186.8630  178.3900  141.3720 C   0  0  0  0  0  0  0  0  0  0  0  0
  190.7780  176.6770  139.0190 C   0  0  0  0  0  0  0  0  0  0  0  0
  189.5430  177.8550  145.8750 C   0  0  0  0  0  2  0  0  0  0  0  0
  188.2730  177.9190  138.9920 C   0  0  0  0  0  0  0  0  0  0  0  0
  188.9400  177.6570  137.7910 C   0  0  0  0  0  3  0  0  0  0  0  0
  186.0540  178.6160  142.6220 C   0  0  0  0  0  2  0  0  0  0  0  0
  187.9300  177.8740  144.0000 C   0  0  1  0  0  3  0  0  0  0  0  0
  188.3580  177.1280  145.2550 C   0  0  0  0  0  2  0  0  0  0  0  0
  183.7980  177.5520  139.1290 O   0  0  0  0  0  0  0  0  0  0  0  0
  183.7770  178.7200  139.6010 C   0  0  0  0  0  0  0  0  0  0  0  0
  184.9830  179.3250  140.0930 N   0  0  0  0  0  2  0  0  0  0  0  0
  180.1320  180.9910  139.6730 C   0  0  0  0  0  0  0  0  0  0  0  0
  182.2940  180.5020  138.7100 C   0  0  0  0  0  3  0  0  0  0  0  0
  181.6590  178.2350  141.5770 O   0  0  0  0  0  1  0  0  0  0  0  0
  178.9310  181.7520  139.6830 N   0  0  0  0  0  1  0  0  0  0  0  0
  181.1150  181.2510  138.7180 C   0  0  0  0  0  3  0  0  0  0  0  0
  181.5050  179.2290  140.6170 C   0  0  0  0  0  0  0  0  0  0  0  0
  182.5080  179.4850  139.6540 C   0  0  0  0  0  0  0  0  0  0  0  0
  180.3280  179.9830  140.6190 C   0  0  0  0  0  3  0  0  0  0  0  0
  1  5  1  0  0  0  0
  2  3  1  0  0  0  0
  3  7  1  1  0  0  0
  3 19  1  0  0  0  0
  4 11  1  0  0  0  0
  5  2  2  0  0  0  0
  6 14  1  0  0  0  0
  7  4  1  0  0  0  0
  8 13  2  0  0  0  0
 11 15  1  0  0  0  0
 12 16  2  0  0  0  0
 12  8  1  0  0  0  0
 13  2  1  0  0  0  0
 13 18  1  0  0  0  0
 14  9  1  0  0  0  0
 14  1  2  0  0  0  0
 16  5  1  0  0  0  0
 17  6  2  0  0  0  0
 17 16  1  0  0  0  0
 18 10  1  0  0  0  0
 19 10  1  6  0  0  0
 19 20  1  0  0  0  0
 20 15  1  0  0  0  0
 21 22  2  0  0  0  0
 22 30  1  0  0  0  0
 22 23  1  0  0  0  0
 23  8  1  0  0  0  0
 24 27  1  0  0  0  0
 24 31  1  0  0  0  0
 25 28  1  0  0  0  0
 25 30  2  0  0  0  0
 28 24  2  0  0  0  0
 29 31  2  0  0  0  0
 29 26  1  0  0  0  0
 30 29  1  0  0  0  0
M  END
>  <MODEL>
6

>  <REMARK>
 VINA RESULT:      -9.4      1.393      2.078
  Name = 
  2 active torsions:
  status: ('A' for Active; 'I' for Inactive)
    1  A    between atoms: C_9  and  C_22
    2  A    between atoms: C_15  and  N_23
                            x       y       z     vdW  Elec       q    Type
                         _______ _______ _______ _____ _____    ______ ____

>  <TORSDO>
F 2

$$$$
=
 OpenBabel10262419263D

 31 35  0  0  1  0  0  0  0  0999 V2000
  183.5660  178.8140  139.5700 C   0  0  0  0  0  3  0  0  0  0  0  0
  184.1440  178.5480  141.9540 C   0  0  0  0  0  0  0  0  0  0  0  0
  182.6950  178.7830  142.3820 C   0  0  1  0  0  3  0  0  0  0  0  0
  180.3870  178.5400  141.5120 C   0  0  0  0  0  2  0  0  0  0  0  0
  184.5120  178.5790  140.5830 C   0  0  0  0  0  0  0  0  0  0  0  0
  185.2790  178.6200  137.8740 C   0  0  0  0  0  3  0  0  0  0  0  0
  181.7250  177.8330  141.6820 C   0  0  0  0  0  2  0  0  0  0  0  0
  186.5070  178.2180  142.5430 C   0  0  0  0  0  0  0  0  0  0  0  0
  183.0190  179.0540  137.2640 F   0  0  0  0  0  0  0  0  0  0  0  0
  183.6080  179.3260  144.6610 C   0  0  0  0  0  2  0  0  0  0  0  0
  179.4170  178.3260  142.6810 C   0  0  0  0  0  2  0  0  0  0  0  0
  186.8360  178.1960  141.1860 C   0  0  0  0  0  3  0  0  0  0  0  0
  185.1700  178.4280  142.9310 C   0  0  0  0  0  0  0  0  0  0  0  0
  183.9450  178.8330  138.2260 C   0  0  0  0  0  0  0  0  0  0  0  0
  180.0320  178.2940  144.0850 C   0  0  0  0  0  2  0  0  0  0  0  0
  185.8630  178.3850  140.2120 C   0  0  0  0  0  0  0  0  0  0  0  0
  186.2370  178.3990  138.8650 C   0  0  0  0  0  3  0  0  0  0  0  0
  184.8490  178.4910  144.4020 C   0  0  0  0  0  2  0  0  0  0  0  0
  182.4670  178.6910  143.8970 C   0  0  1  0  0  3  0  0  0  0  0  0
  181.1390  179.3180  144.2960 C   0  0  0  0  0  2  0  0  0  0  0  0
  188.0610  175.8010  143.1870 O   0  0  0  0  0  0  0  0  0  0  0  0
  188.2660  176.8560  143.8430 C   0  0  0  0  0  0  0  0  0  0  0  0
  187.5190  178.0480  143.5520 N   0  0  0  0  0  2  0  0  0  0  0  0
  191.1300  176.9460  147.0430 C   0  0  0  0  0  0  0  0  0  0  0  0
  188.8540  177.0970  146.2440 C   0  0  0  0  0  3  0  0  0  0  0  0
  191.1430  176.4800  143.3910 O   0  0  0  0  0  1  0  0  0  0  0  0
  192.0650  176.9790  148.1140 N   0  0  0  0  0  1  0  0  0  0  0  0
  189.7700  177.1290  147.2970 C   0  0  0  0  0  3  0  0  0  0  0  0
  190.6610  176.6970  144.6770 C   0  0  0  0  0  0  0  0  0  0  0  0
  189.2800  176.8820  144.9240 C   0  0  0  0  0  0  0  0  0  0  0  0
  191.5720  176.7310  145.7360 C   0  0  0  0  0  3  0  0  0  0  0  0
  1  5  1  0  0  0  0
  2  3  1  0  0  0  0
  2 13  1  0  0  0  0
  3  7  1  6  0  0  0
  3 19  1  0  0  0  0
  4  7  1  0  0  0  0
  4 11  1  0  0  0  0
  5  2  2  0  0  0  0
  6 14  1  0  0  0  0
  6 17  2  0  0  0  0
  8 13  2  0  0  0  0
  8 23  1  0  0  0  0
  9 14  1  0  0  0  0
 11 15  1  0  0  0  0
 12  8  1  0  0  0  0
 13 18  1  0  0  0  0
 14  1  2  0  0  0  0
 15 20  1  0  0  0  0
 16  5  1  0  0  0  0
 16 12  2  0  0  0  0
 17 16  1  0  0  0  0
 18 10  1  0  0  0  0
 19 20  1  6  0  0  0
 19 10  1  0  0  0  0
 21 22  2  0  0  0  0
 22 30  1  0  0  0  0
 23 22  1  0  0  0  0
 24 28  1  0  0  0  0
 24 27  1  0  0  0  0
 25 28  2  0  0  0  0
 26 29  1  0  0  0  0
 29 30  2  0  0  0  0
 29 31  1  0  0  0  0
 30 25  1  0  0  0  0
 31 24  2  0  0  0  0
M  END
>  <MODEL>
7

>  <REMARK>
 VINA RESULT:      -9.3      3.729      8.138
  Name = 
  2 active torsions:
  status: ('A' for Active; 'I' for Inactive)
    1  A    between atoms: C_9  and  C_22
    2  A    between atoms: C_15  and  N_23
                            x       y       z     vdW  Elec       q    Type
                         _______ _______ _______ _____ _____    ______ ____

>  <TORSDO>
F 2

$$$$
=
 OpenBabel10262419263D

 31 35  0  0  1  0  0  0  0  0999 V2000
  186.6890  178.2860  137.0820 C   0  0  0  0  0  3  0  0  0  0  0  0
  185.7230  178.2220  139.3510 C   0  0  0  0  0  0  0  0  0  0  0  0
  184.2970  178.2630  138.7980 C   0  0  1  0  0  3  0  0  0  0  0  0
  183.0220  177.6450  136.7650 C   0  0  0  0  0  2  0  0  0  0  0  0
  186.8420  178.2400  138.4780 C   0  0  0  0  0  0  0  0  0  0  0  0
  189.0890  178.2620  136.7800 C   0  0  0  0  0  3  0  0  0  0  0  0
  184.0380  177.1500  137.7860 C   0  0  0  0  0  2  0  0  0  0  0  0
  187.2610  178.2680  141.2670 C   0  0  0  0  0  0  0  0  0  0  0  0
  187.6340  178.3330  134.8960 F   0  0  0  0  0  0  0  0  0  0  0  0
  183.5900  179.0410  141.0820 C   0  0  0  0  0  2  0  0  0  0  0  0
  181.5650  177.3490  137.1410 C   0  0  0  0  0  2  0  0  0  0  0  0
  188.3470  178.2290  140.3890 C   0  0  0  0  0  3  0  0  0  0  0  0
  185.9510  178.2990  140.7520 C   0  0  0  0  0  0  0  0  0  0  0  0
  187.8020  178.2950  136.2390 C   0  0  0  0  0  0  0  0  0  0  0  0
  181.2030  177.4740  138.6260 C   0  0  0  0  0  2  0  0  0  0  0  0
  188.1520  178.2270  139.0130 C   0  0  0  0  0  0  0  0  0  0  0  0
  189.2630  178.2310  138.1650 C   0  0  0  0  0  3  0  0  0  0  0  0
  184.7990  178.3850  141.7200 C   0  0  0  0  0  2  0  0  0  0  0  0
  183.2060  178.2120  139.8760 C   0  0  1  0  0  3  0  0  0  0  0  0
  181.8600  178.6570  139.3240 C   0  0  0  0  0  2  0  0  0  0  0  0
  187.8830  176.0240  143.0700 O   0  0  0  0  0  0  0  0  0  0  0  0
  187.7710  177.1840  143.5480 C   0  0  0  0  0  0  0  0  0  0  0  0
  187.4630  178.2950  142.6910 N   0  0  0  0  0  2  0  0  0  0  0  0
  188.1990  177.8830  147.7640 C   0  0  0  0  0  0  0  0  0  0  0  0
  186.8480  177.8300  145.7610 C   0  0  0  0  0  3  0  0  0  0  0  0
  190.3260  176.8300  144.9510 O   0  0  0  0  0  1  0  0  0  0  0  0
  188.3230  178.1190  149.1610 N   0  0  0  0  0  1  0  0  0  0  0  0
  186.9670  178.0620  147.1330 C   0  0  0  0  0  3  0  0  0  0  0  0
  189.1960  177.2370  145.6500 C   0  0  0  0  0  0  0  0  0  0  0  0
  187.9520  177.4160  145.0010 C   0  0  0  0  0  0  0  0  0  0  0  0
  189.3090  177.4720  147.0240 C   0  0  0  0  0  3  0  0  0  0  0  0
  1  5  1  0  0  0  0
  2 13  1  0  0  0  0
  3  7  1  6  0  0  0
  3  2  1  0  0  0  0
  3 19  1  0  0  0  0
  4 11  1  0  0  0  0
  4  7  1  0  0  0  0
  5 16  1  0  0  0  0
  5  2  2  0  0  0  0
  6 17  2  0  0  0  0
  8 23  1  0  0  0  0
  9 14  1  0  0  0  0
 10 18  1  0  0  0  0
 11 15  1  0  0  0  0
 12  8  1  0  0  0  0
 13  8  2  0  0  0  0
 13 18  1  0  0  0  0
 14  6  1  0  0  0  0
 14  1  2  0  0  0  0
 15 20  1  0  0  0  0
 16 12  2  0  0  0  0
 17 16  1  0  0  0  0
 19 20  1  6  0  0  0
 19 10  1  0  0  0  0
 21 22  2  0  0  0  0
 22 30  1  0  0  0  0
 23 22  1  0  0  0  0
 24 27  1  0  0  0  0
 25 28  2  0  0  0  0
 26 29  1  0  0  0  0
 28 24  1  0  0  0  0
 29 31  1  0  0  0  0
 30 29  2  0  0  0  0
 30 25  1  0  0  0  0
 31 24  2  0  0  0  0
M  END
>  <MODEL>
8

>  <REMARK>
 VINA RESULT:      -9.1      3.472      7.915
  Name = 
  2 active torsions:
  status: ('A' for Active; 'I' for Inactive)
    1  A    between atoms: C_9  and  C_22
    2  A    between atoms: C_15  and  N_23
                            x       y       z     vdW  Elec       q    Type
                         _______ _______ _______ _____ _____    ______ ____

>  <TORSDO>
F 2

$$$$
=
 OpenBabel10262419263D

 31 35  0  0  1  0  0  0  0  0999 V2000
  190.4630  176.2560  146.6770 C   0  0  0  0  0  3  0  0  0  0  0  0
  189.0350  177.0320  144.8210 C   0  0  0  0  0  0  0  0  0  0  0  0
  187.9470  177.4980  145.7890 C   0  0  1  0  0  3  0  0  0  0  0  0
  187.6820  178.2860  148.1240 C   0  0  0  0  0  2  0  0  0  0  0  0
  190.2290  176.4340  145.3020 C   0  0  0  0  0  0  0  0  0  0  0  0
  192.6160  175.2530  146.2170 C   0  0  0  0  0  3  0  0  0  0  0  0
  188.4860  178.4640  146.8420 C   0  0  0  0  0  2  0  0  0  0  0  0
  189.8050  176.6350  142.5210 C   0  0  0  0  0  0  0  0  0  0  0  0
  191.8580  175.5150  148.4600 F   0  0  0  0  0  0  0  0  0  0  0  0
  186.3710  177.4120  143.8320 C   0  0  0  0  0  2  0  0  0  0  0  0
  186.4560  179.2030  148.2220 C   0  0  0  0  0  2  0  0  0  0  0  0
  190.9960  176.1010  143.0190 C   0  0  0  0  0  3  0  0  0  0  0  0
  188.8100  177.0690  143.4170 C   0  0  0  0  0  0  0  0  0  0  0  0
  191.6480  175.6720  147.1310 C   0  0  0  0  0  0  0  0  0  0  0  0
  185.6810  179.4500  146.9220 C   0  0  0  0  0  2  0  0  0  0  0  0
  191.2100  175.9870  144.3870 C   0  0  0  0  0  0  0  0  0  0  0  0
  192.3960  175.4070  144.8470 C   0  0  0  0  0  3  0  0  0  0  0  0
  187.5170  177.6000  142.8550 C   0  0  0  0  0  2  0  0  0  0  0  0
  186.7340  178.1440  145.1050 C   0  0  1  0  0  3  0  0  0  0  0  0
  185.5390  178.2150  146.0440 C   0  0  0  0  0  2  0  0  0  0  0  0
  191.6720  177.5030  140.4160 O   0  0  0  0  0  0  0  0  0  0  0  0
  190.5050  177.1540  140.0960 C   0  0  0  0  0  0  0  0  0  0  0  0
  189.5730  176.7310  141.1050 N   0  0  0  0  0  2  0  0  0  0  0  0
  189.2290  177.3160  135.9980 C   0  0  0  0  0  0  0  0  0  0  0  0
  189.4310  178.3230  138.1860 C   0  0  0  0  0  3  0  0  0  0  0  0
  190.9310  174.9310  138.2270 O   0  0  0  0  0  1  0  0  0  0  0  0
  188.8000  177.3860  134.6440 N   0  0  0  0  0  1  0  0  0  0  0  0
  189.0090  178.3940  136.8570 C   0  0  0  0  0  3  0  0  0  0  0  0
  190.2960  176.0910  137.7990 C   0  0  0  0  0  0  0  0  0  0  0  0
  190.0770  177.1780  138.6780 C   0  0  0  0  0  0  0  0  0  0  0  0
  189.8710  176.1690  136.4690 C   0  0  0  0  0  3  0  0  0  0  0  0
  1 14  1  0  0  0  0
  2  5  1  0  0  0  0
  2  3  1  0  0  0  0
  3  7  1  1  0  0  0
  4 11  1  0  0  0  0
  5  1  2  0  0  0  0
  6 14  2  0  0  0  0
  7  4  1  0  0  0  0
  8 12  2  0  0  0  0
  8 13  1  0  0  0  0
 12 16  1  0  0  0  0
 13  2  2  0  0  0  0
 14  9  1  0  0  0  0
 15 11  1  0  0  0  0
 16 17  2  0  0  0  0
 16  5  1  0  0  0  0
 17  6  1  0  0  0  0
 18 13  1  0  0  0  0
 18 10  1  0  0  0  0
 19 10  1  6  0  0  0
 19  3  1  0  0  0  0
 19 20  1  0  0  0  0
 20 15  1  0  0  0  0
 22 21  2  0  0  0  0
 22 23  1  0  0  0  0
 23  8  1  0  0  0  0
 24 31  2  0  0  0  0
 24 28  1  0  0  0  0
 25 30  1  0  0  0  0
 27 24  1  0  0  0  0
 28 25  2  0  0  0  0
 29 26  1  0  0  0  0
 29 30  2  0  0  0  0
 30 22  1  0  0  0  0
 31 29  1  0  0  0  0
M  END
>  <MODEL>
9

>  <REMARK>
 VINA RESULT:      -8.9      4.852      6.128
  Name = 
  2 active torsions:
  status: ('A' for Active; 'I' for Inactive)
    1  A    between atoms: C_9  and  C_22
    2  A    between atoms: C_15  and  N_23
                            x       y       z     vdW  Elec       q    Type
                         _______ _______ _______ _____ _____    ______ ____

>  <TORSDO>
F 2

$$$$
