=
 OpenBabel10252414593D

 34 39  0  0  1  0  0  0  0  0999 V2000
  188.9350  177.1910  145.7830 C   0  0  0  0  0  0  0  0  0  0  0  0
  190.8490  176.7260  144.2100 C   0  0  2  0  0  3  0  0  0  0  0  0
  188.5930  177.6410  143.4020 C   0  0  0  0  0  0  0  0  0  0  0  0
  188.1450  178.1050  141.0170 C   0  0  0  0  0  0  0  0  0  0  0  0
  191.1320  176.7730  146.6600 C   0  0  0  0  0  3  0  0  0  0  0  0
  191.6930  176.7210  145.4520 C   0  0  0  0  0  3  0  0  0  0  0  0
  190.2770  177.3580  141.5220 N   0  0  0  0  0  0  0  0  0  0  0  0
  189.4430  177.2320  144.4630 C   0  0  0  0  0  0  0  0  0  0  0  0
  191.4480  176.8620  139.5260 N   0  0  0  0  0  2  0  0  0  0  0  0
  188.8290  177.9700  139.3790 S   0  0  0  0  0  0  0  0  0  0  0  0
  189.7150  176.9410  146.7940 N   0  0  0  0  0  0  0  0  0  0  0  0
  187.2240  177.9260  143.6620 C   0  0  0  0  0  0  0  0  0  0  0  0
  187.5940  177.4730  146.0250 C   0  0  0  0  0  3  0  0  0  0  0  0
  190.7750  175.0570  143.5780 Cl  0  0  0  0  0  0  0  0  0  0  0  0
  186.8880  178.2770  141.2740 N   0  0  0  0  0  0  0  0  0  0  0  0
  186.3890  178.2510  142.6280 C   0  0  0  0  0  0  0  0  0  0  0  0
  190.3160  177.3770  140.2280 C   0  0  0  0  0  0  0  0  0  0  0  0
  189.0510  177.7750  142.0430 N   0  0  0  0  0  0  0  0  0  0  0  0
  186.7470  177.8230  144.9780 C   0  0  0  0  0  3  0  0  0  0  0  0
  182.6590  178.5810  141.9520 C   0  0  0  0  0  0  0  0  0  0  0  0
  182.1930  178.9470  143.2190 C   0  0  0  0  0  3  0  0  0  0  0  0
  184.9370  178.5040  142.8070 C   0  0  0  0  0  0  0  0  0  0  0  0
  183.0900  179.0670  144.2830 C   0  0  0  0  0  3  0  0  0  0  0  0
  184.0240  178.3600  141.7460 C   0  0  0  0  0  3  0  0  0  0  0  0
  184.4540  178.8410  144.0790 C   0  0  0  0  0  3  0  0  0  0  0  0
  181.7860  178.4480  140.9230 F   0  0  0  0  0  0  0  0  0  0  0  0
  191.4760  176.7960  138.1240 N   0  0  0  0  0  2  0  0  0  0  0  0
  194.0960  176.0490  137.2130 O   0  0  0  0  0  1  0  0  0  0  0  0
  191.8240  175.4290  137.7480 C   0  0  2  0  0  3  0  0  0  0  0  0
  192.9500  175.4290  136.7050 C   0  0  1  0  0  3  0  0  0  0  0  0
  191.0290  176.0420  135.1140 C   0  0  0  0  0  2  0  0  0  0  0  0
  190.4020  174.7760  135.6890 C   0  0  0  0  0  2  0  0  0  0  0  0
  190.5770  174.6980  137.2190 C   0  0  0  0  0  2  0  0  0  0  0  0
  192.5400  176.0890  135.3780 C   0  0  0  0  0  2  0  0  0  0  0  0
  1 13  1  0  0  0  0
  1 11  2  0  0  0  0
  2 14  1  1  0  0  0
  2  8  1  0  0  0  0
  2  6  1  0  0  0  0
  3 12  1  0  0  0  0
  3  8  2  0  0  0  0
  4 15  2  0  0  0  0
  4 18  1  0  0  0  0
  5 11  1  0  0  0  0
  6  5  2  0  0  0  0
  7 18  1  0  0  0  0
  8  1  1  0  0  0  0
  9 17  1  0  0  0  0
 10 17  1  0  0  0  0
 10  4  1  0  0  0  0
 12 19  1  0  0  0  0
 15 16  1  0  0  0  0
 16 22  1  0  0  0  0
 16 12  2  0  0  0  0
 17  7  2  0  0  0  0
 18  3  1  0  0  0  0
 19 13  2  0  0  0  0
 20 21  1  0  0  0  0
 21 23  2  0  0  0  0
 22 25  2  0  0  0  0
 24 20  2  0  0  0  0
 24 22  1  0  0  0  0
 25 23  1  0  0  0  0
 26 20  1  0  0  0  0
 27  9  1  0  0  0  0
 29 27  1  6  0  0  0
 30 28  1  1  0  0  0
 30 29  1  0  0  0  0
 31 34  1  0  0  0  0
 31 32  1  0  0  0  0
 32 33  1  0  0  0  0
 33 29  1  0  0  0  0
 34 30  1  0  0  0  0
M  END
>  <MODEL>
1

>  <REMARK>
 VINA RESULT:     -11.2      0.000      0.000
  Name = 
  3 active torsions:
  status: ('A' for Active; 'I' for Inactive)
    1  A    between atoms: N_3  and  C_13
    2  A    between atoms: N_3  and  N_17
    3  A    between atoms: C_12  and  C_28
                            x       y       z     vdW  Elec       q    Type
                         _______ _______ _______ _____ _____    ______ ____

>  <TORSDO>
F 3

$$$$
=
 OpenBabel10252414593D

 34 39  0  0  1  0  0  0  0  0999 V2000
  188.9860  177.2270  145.5170 C   0  0  0  0  0  0  0  0  0  0  0  0
  190.7000  176.6670  143.7550 C   0  0  2  0  0  3  0  0  0  0  0  0
  188.3980  177.6390  143.1770 C   0  0  0  0  0  0  0  0  0  0  0  0
  187.7030  178.0680  140.8450 C   0  0  0  0  0  0  0  0  0  0  0  0
  191.2530  176.7550  146.1580 C   0  0  0  0  0  3  0  0  0  0  0  0
  191.6760  176.6600  144.8970 C   0  0  0  0  0  3  0  0  0  0  0  0
  189.8540  177.2620  141.1320 N   0  0  0  0  0  0  0  0  0  0  0  0
  189.3470  177.2240  144.1480 C   0  0  0  0  0  0  0  0  0  0  0  0
  190.7820  176.6870  139.0310 N   0  0  0  0  0  2  0  0  0  0  0  0
  188.1980  177.8770  139.1460 S   0  0  0  0  0  0  0  0  0  0  0  0
  189.8660  176.9720  146.4420 N   0  0  0  0  0  0  0  0  0  0  0  0
  187.0750  177.9740  143.5790 C   0  0  0  0  0  0  0  0  0  0  0  0
  187.6890  177.5580  145.8980 C   0  0  0  0  0  3  0  0  0  0  0  0
  190.5060  174.9890  143.1750 Cl  0  0  0  0  0  0  0  0  0  0  0  0
  186.4880  178.2870  141.2340 N   0  0  0  0  0  0  0  0  0  0  0  0
  186.1410  178.3040  142.6360 C   0  0  0  0  0  0  0  0  0  0  0  0
  189.7510  177.2530  139.8420 C   0  0  0  0  0  0  0  0  0  0  0  0
  188.7070  177.7300  141.7730 N   0  0  0  0  0  0  0  0  0  0  0  0
  186.7430  177.9140  144.9420 C   0  0  0  0  0  3  0  0  0  0  0  0
  182.3720  178.7530  142.3620 C   0  0  0  0  0  0  0  0  0  0  0  0
  182.0590  179.1500  143.6660 C   0  0  0  0  0  3  0  0  0  0  0  0
  184.7260  178.6090  142.9660 C   0  0  0  0  0  0  0  0  0  0  0  0
  183.0700  179.2530  144.6250 C   0  0  0  0  0  3  0  0  0  0  0  0
  183.6990  178.4830  142.0140 C   0  0  0  0  0  3  0  0  0  0  0  0
  184.3950  178.9780  144.2780 C   0  0  0  0  0  3  0  0  0  0  0  0
  181.3890  178.6360  141.4360 F   0  0  0  0  0  0  0  0  0  0  0  0
  190.6540  176.5910  137.6370 N   0  0  0  0  0  2  0  0  0  0  0  0
  191.1340  176.6010  134.8060 O   0  0  0  0  0  1  0  0  0  0  0  0
  191.9950  176.6220  137.0620 C   0  0  2  0  0  3  0  0  0  0  0  0
  192.0030  175.9460  135.6830 C   0  0  1  0  0  3  0  0  0  0  0  0
  191.9830  173.8030  137.1000 C   0  0  0  0  0  2  0  0  0  0  0  0
  193.2110  174.4430  137.7410 C   0  0  0  0  0  2  0  0  0  0  0  0
  192.9920  175.9430  138.0190 C   0  0  0  0  0  2  0  0  0  0  0  0
  191.6580  174.4490  135.7460 C   0  0  0  0  0  2  0  0  0  0  0  0
  1 13  1  0  0  0  0
  1 11  2  0  0  0  0
  2 14  1  1  0  0  0
  2  8  1  0  0  0  0
  2  6  1  0  0  0  0
  3 12  1  0  0  0  0
  3  8  2  0  0  0  0
  4 15  2  0  0  0  0
  4 18  1  0  0  0  0
  5 11  1  0  0  0  0
  6  5  2  0  0  0  0
  7 18  1  0  0  0  0
  8  1  1  0  0  0  0
  9 17  1  0  0  0  0
 10 17  1  0  0  0  0
 10  4  1  0  0  0  0
 12 19  1  0  0  0  0
 15 16  1  0  0  0  0
 16 22  1  0  0  0  0
 16 12  2  0  0  0  0
 17  7  2  0  0  0  0
 18  3  1  0  0  0  0
 19 13  2  0  0  0  0
 20 21  1  0  0  0  0
 21 23  2  0  0  0  0
 22 25  2  0  0  0  0
 24 20  2  0  0  0  0
 24 22  1  0  0  0  0
 25 23  1  0  0  0  0
 26 20  1  0  0  0  0
 27  9  1  0  0  0  0
 29 27  1  1  0  0  0
 29 33  1  0  0  0  0
 30 28  1  6  0  0  0
 30 34  1  0  0  0  0
 30 29  1  0  0  0  0
 31 32  1  0  0  0  0
 32 33  1  0  0  0  0
 34 31  1  0  0  0  0
M  END
>  <MODEL>
2

>  <REMARK>
 VINA RESULT:     -10.5      0.972      1.321
  Name = 
  3 active torsions:
  status: ('A' for Active; 'I' for Inactive)
    1  A    between atoms: N_3  and  C_13
    2  A    between atoms: N_3  and  N_17
    3  A    between atoms: C_12  and  C_28
                            x       y       z     vdW  Elec       q    Type
                         _______ _______ _______ _____ _____    ______ ____

>  <TORSDO>
F 3

$$$$
=
 OpenBabel10252414593D

 34 39  0  0  1  0  0  0  0  0999 V2000
  187.0750  177.8960  144.4450 C   0  0  0  0  0  0  0  0  0  0  0  0
  189.3740  177.2850  143.6100 C   0  0  2  0  0  3  0  0  0  0  0  0
  187.5120  178.0990  142.0450 C   0  0  0  0  0  0  0  0  0  0  0  0
  187.8490  178.3150  139.6070 C   0  0  0  0  0  0  0  0  0  0  0  0
  188.8730  177.5830  146.0070 C   0  0  0  0  0  3  0  0  0  0  0  0
  189.7840  177.4110  145.0490 C   0  0  0  0  0  3  0  0  0  0  0  0
  189.6930  177.6360  140.8310 N   0  0  0  0  0  0  0  0  0  0  0  0
  187.9730  177.8060  143.3550 C   0  0  0  0  0  0  0  0  0  0  0  0
  191.4190  176.9460  139.3650 N   0  0  0  0  0  2  0  0  0  0  0  0
  189.0100  178.0170  138.2910 S   0  0  0  0  0  0  0  0  0  0  0  0
  187.4910  177.7550  145.6700 N   0  0  0  0  0  0  0  0  0  0  0  0
  186.1380  178.4010  141.8300 C   0  0  0  0  0  0  0  0  0  0  0  0
  185.7340  178.1930  144.2220 C   0  0  0  0  0  3  0  0  0  0  0  0
  189.4580  175.5600  143.1540 Cl  0  0  0  0  0  0  0  0  0  0  0  0
  186.5800  178.5050  139.4360 N   0  0  0  0  0  0  0  0  0  0  0  0
  185.6800  178.6130  140.5590 C   0  0  0  0  0  0  0  0  0  0  0  0
  190.1370  177.5230  139.6200 C   0  0  0  0  0  0  0  0  0  0  0  0
  188.3770  178.0970  140.8940 N   0  0  0  0  0  0  0  0  0  0  0  0
  185.2690  178.4300  142.9320 C   0  0  0  0  0  3  0  0  0  0  0  0
  182.5170  179.9910  138.9530 C   0  0  0  0  0  0  0  0  0  0  0  0
  181.5350  179.2880  139.6600 C   0  0  0  0  0  3  0  0  0  0  0  0
  184.2520  178.8740  140.2440 C   0  0  0  0  0  0  0  0  0  0  0  0
  181.9090  178.3630  140.6380 C   0  0  0  0  0  3  0  0  0  0  0  0
  183.8690  179.7850  139.2430 C   0  0  0  0  0  3  0  0  0  0  0  0
  183.2600  178.1540  140.9250 C   0  0  0  0  0  3  0  0  0  0  0  0
  182.1550  180.8760  137.9920 F   0  0  0  0  0  0  0  0  0  0  0  0
  191.8850  176.7380  138.0580 N   0  0  0  0  0  2  0  0  0  0  0  0
  194.4700  175.5330  138.3960 O   0  0  0  0  0  1  0  0  0  0  0  0
  192.1200  175.3070  137.8890 C   0  0  2  0  0  3  0  0  0  0  0  0
  193.5670  175.0500  137.4450 C   0  0  1  0  0  3  0  0  0  0  0  0
  192.6520  175.8010  135.1660 C   0  0  0  0  0  2  0  0  0  0  0  0
  191.6320  174.6960  135.4240 C   0  0  0  0  0  2  0  0  0  0  0  0
  191.1160  174.7270  136.8770 C   0  0  0  0  0  2  0  0  0  0  0  0
  193.8860  175.6450  136.0640 C   0  0  0  0  0  2  0  0  0  0  0  0
  1 11  2  0  0  0  0
  2 14  1  1  0  0  0
  2  6  1  0  0  0  0
  3  8  2  0  0  0  0
  4 18  1  0  0  0  0
  6  5  2  0  0  0  0
  7 18  1  0  0  0  0
  8  2  1  0  0  0  0
  8  1  1  0  0  0  0
  9 17  1  0  0  0  0
 10  4  1  0  0  0  0
 10 17  1  0  0  0  0
 11  5  1  0  0  0  0
 12  3  1  0  0  0  0
 12 19  1  0  0  0  0
 13  1  1  0  0  0  0
 15  4  2  0  0  0  0
 15 16  1  0  0  0  0
 16 12  2  0  0  0  0
 17  7  2  0  0  0  0
 18  3  1  0  0  0  0
 19 13  2  0  0  0  0
 20 24  2  0  0  0  0
 20 21  1  0  0  0  0
 21 23  2  0  0  0  0
 22 16  1  0  0  0  0
 22 25  2  0  0  0  0
 23 25  1  0  0  0  0
 24 22  1  0  0  0  0
 26 20  1  0  0  0  0
 27  9  1  0  0  0  0
 29 27  1  6  0  0  0
 30 29  1  0  0  0  0
 30 28  1  1  0  0  0
 31 32  1  0  0  0  0
 31 34  1  0  0  0  0
 32 33  1  0  0  0  0
 33 29  1  0  0  0  0
 34 30  1  0  0  0  0
M  END
>  <MODEL>
3

>  <REMARK>
 VINA RESULT:     -10.3      1.567      2.173
  Name = 
  3 active torsions:
  status: ('A' for Active; 'I' for Inactive)
    1  A    between atoms: N_3  and  C_13
    2  A    between atoms: N_3  and  N_17
    3  A    between atoms: C_12  and  C_28
                            x       y       z     vdW  Elec       q    Type
                         _______ _______ _______ _____ _____    ______ ____

>  <TORSDO>
F 3

$$$$
=
 OpenBabel10252414593D

 34 39  0  0  1  0  0  0  0  0999 V2000
  187.6870  177.6380  145.1740 C   0  0  0  0  0  0  0  0  0  0  0  0
  189.7240  177.1970  143.7550 C   0  0  2  0  0  3  0  0  0  0  0  0
  187.4900  177.9640  142.7570 C   0  0  0  0  0  0  0  0  0  0  0  0
  187.1850  178.2990  140.3270 C   0  0  0  0  0  0  0  0  0  0  0  0
  189.8360  177.3670  146.2140 C   0  0  0  0  0  3  0  0  0  0  0  0
  190.4800  177.2880  145.0500 C   0  0  0  0  0  3  0  0  0  0  0  0
  189.3090  177.6790  141.0090 N   0  0  0  0  0  0  0  0  0  0  0  0
  188.2820  177.6450  143.8900 C   0  0  0  0  0  0  0  0  0  0  0  0
  190.6360  177.1520  139.1200 N   0  0  0  0  0  2  0  0  0  0  0  0
  187.9860  178.1240  138.7470 S   0  0  0  0  0  0  0  0  0  0  0  0
  188.4070  177.4710  146.2450 N   0  0  0  0  0  0  0  0  0  0  0  0
  186.0940  178.1930  142.9110 C   0  0  0  0  0  0  0  0  0  0  0  0
  186.3210  177.8650  145.3130 C   0  0  0  0  0  3  0  0  0  0  0  0
  189.7690  175.5000  143.2000 Cl  0  0  0  0  0  0  0  0  0  0  0  0
  185.9070  178.4210  140.4920 N   0  0  0  0  0  0  0  0  0  0  0  0
  185.3180  178.4300  141.8100 C   0  0  0  0  0  0  0  0  0  0  0  0
  189.4360  177.6420  139.7210 C   0  0  0  0  0  0  0  0  0  0  0  0
  188.0330  178.0600  141.4260 N   0  0  0  0  0  0  0  0  0  0  0  0
  185.5330  178.1270  144.1960 C   0  0  0  0  0  3  0  0  0  0  0  0
  181.7940  178.9740  143.1380 C   0  0  0  0  0  0  0  0  0  0  0  0
  181.0680  179.0270  141.9440 C   0  0  0  0  0  3  0  0  0  0  0  0
  183.8470  178.6200  141.8790 C   0  0  0  0  0  0  0  0  0  0  0  0
  181.7300  178.9030  140.7200 C   0  0  0  0  0  3  0  0  0  0  0  0
  183.1770  178.7720  143.1060 C   0  0  0  0  0  3  0  0  0  0  0  0
  183.1130  178.7060  140.6880 C   0  0  0  0  0  3  0  0  0  0  0  0
  181.1540  179.1110  144.3250 F   0  0  0  0  0  0  0  0  0  0  0  0
  190.7640  177.0250  137.7290 N   0  0  0  0  0  2  0  0  0  0  0  0
  192.8520  175.0540  137.7510 O   0  0  0  0  0  1  0  0  0  0  0  0
  190.5350  175.6250  137.3840 C   0  0  2  0  0  3  0  0  0  0  0  0
  191.8140  174.9960  136.8160 C   0  0  1  0  0  3  0  0  0  0  0  0
  191.1120  176.2780  134.7040 C   0  0  0  0  0  2  0  0  0  0  0  0
  189.8070  175.5150  134.9060 C   0  0  0  0  0  2  0  0  0  0  0  0
  189.3700  175.5150  136.3840 C   0  0  0  0  0  2  0  0  0  0  0  0
  192.2620  175.6370  135.4920 C   0  0  0  0  0  2  0  0  0  0  0  0
  1 13  1  0  0  0  0
  1 11  2  0  0  0  0
  2 14  1  1  0  0  0
  2  8  1  0  0  0  0
  2  6  1  0  0  0  0
  3 12  1  0  0  0  0
  3  8  2  0  0  0  0
  4 15  2  0  0  0  0
  4 18  1  0  0  0  0
  5 11  1  0  0  0  0
  6  5  2  0  0  0  0
  7 18  1  0  0  0  0
  8  1  1  0  0  0  0
  9 17  1  0  0  0  0
 10 17  1  0  0  0  0
 10  4  1  0  0  0  0
 12 19  1  0  0  0  0
 15 16  1  0  0  0  0
 16 22  1  0  0  0  0
 16 12  2  0  0  0  0
 17  7  2  0  0  0  0
 18  3  1  0  0  0  0
 19 13  2  0  0  0  0
 20 26  1  0  0  0  0
 21 20  2  0  0  0  0
 22 24  2  0  0  0  0
 23 21  1  0  0  0  0
 24 20  1  0  0  0  0
 25 23  2  0  0  0  0
 25 22  1  0  0  0  0
 27  9  1  0  0  0  0
 29 27  1  6  0  0  0
 30 29  1  0  0  0  0
 30 28  1  1  0  0  0
 31 32  1  0  0  0  0
 31 34  1  0  0  0  0
 32 33  1  0  0  0  0
 33 29  1  0  0  0  0
 34 30  1  0  0  0  0
M  END
>  <MODEL>
4

>  <REMARK>
 VINA RESULT:      -9.9      1.222      1.667
  Name = 
  3 active torsions:
  status: ('A' for Active; 'I' for Inactive)
    1  A    between atoms: N_3  and  C_13
    2  A    between atoms: N_3  and  N_17
    3  A    between atoms: C_12  and  C_28
                            x       y       z     vdW  Elec       q    Type
                         _______ _______ _______ _____ _____    ______ ____

>  <TORSDO>
F 3

$$$$
=
 OpenBabel10252414593D

 34 39  0  0  1  0  0  0  0  0999 V2000
  189.5230  177.4650  137.9950 C   0  0  0  0  0  0  0  0  0  0  0  0
  187.1420  178.0720  137.4320 C   0  0  2  0  0  3  0  0  0  0  0  0
  188.0260  178.0530  139.8400 C   0  0  0  0  0  0  0  0  0  0  0  0
  186.5880  178.6100  141.7700 C   0  0  0  0  0  0  0  0  0  0  0  0
  188.9030  177.8950  135.7140 C   0  0  0  0  0  3  0  0  0  0  0  0
  187.6590  178.2510  136.0340 C   0  0  0  0  0  3  0  0  0  0  0  0
  185.5950  178.7680  139.6840 N   0  0  0  0  0  0  0  0  0  0  0  0
  188.2540  177.8990  138.4470 C   0  0  0  0  0  0  0  0  0  0  0  0
  183.2630  179.0930  139.9280 N   0  0  0  0  0  2  0  0  0  0  0  0
  184.9170  179.0030  142.2430 S   0  0  0  0  0  0  0  0  0  0  0  0
  189.8060  177.4300  136.7250 N   0  0  0  0  0  0  0  0  0  0  0  0
  189.0440  177.6960  140.7670 C   0  0  0  0  0  0  0  0  0  0  0  0
  190.5120  177.1190  138.9110 C   0  0  0  0  0  3  0  0  0  0  0  0
  186.0850  176.6320  137.4570 Cl  0  0  0  0  0  0  0  0  0  0  0  0
  187.5040  178.1990  142.5870 N   0  0  0  0  0  0  0  0  0  0  0  0
  188.8000  177.7780  142.1100 C   0  0  0  0  0  0  0  0  0  0  0  0
  184.5830  178.9810  140.4630 C   0  0  0  0  0  0  0  0  0  0  0  0
  186.7870  178.5550  140.3770 N   0  0  0  0  0  0  0  0  0  0  0  0
  190.2720  177.2210  140.2790 C   0  0  0  0  0  3  0  0  0  0  0  0
  191.4090  175.7930  144.0420 C   0  0  0  0  0  0  0  0  0  0  0  0
  191.6800  176.6710  145.0960 C   0  0  0  0  0  3  0  0  0  0  0  0
  189.7860  177.3680  143.1420 C   0  0  0  0  0  0  0  0  0  0  0  0
  191.0270  177.9040  145.1620 C   0  0  0  0  0  3  0  0  0  0  0  0
  190.4670  176.1400  143.0690 C   0  0  0  0  0  3  0  0  0  0  0  0
  190.0890  178.2530  144.1870 C   0  0  0  0  0  3  0  0  0  0  0  0
  192.0560  174.6040  143.9690 F   0  0  0  0  0  0  0  0  0  0  0  0
  182.1420  179.2400  140.7600 N   0  0  0  0  0  2  0  0  0  0  0  0
  179.9420  180.8760  141.6140 O   0  0  0  0  0  1  0  0  0  0  0  0
  180.9890  179.5230  139.9110 C   0  0  2  0  0  3  0  0  0  0  0  0
  179.7420  179.7820  140.7680 C   0  0  1  0  0  3  0  0  0  0  0  0
  179.7520  177.2220  140.9690 C   0  0  0  0  0  2  0  0  0  0  0  0
  179.7660  177.2920  139.4450 C   0  0  0  0  0  2  0  0  0  0  0  0
  180.7580  178.3560  138.9340 C   0  0  0  0  0  2  0  0  0  0  0  0
  179.3100  178.5550  141.5870 C   0  0  0  0  0  2  0  0  0  0  0  0
  1  8  1  0  0  0  0
  1 13  1  0  0  0  0
  2 14  1  6  0  0  0
  2  8  1  0  0  0  0
  3 18  1  0  0  0  0
  3 12  1  0  0  0  0
  4 10  1  0  0  0  0
  4 15  2  0  0  0  0
  5  6  2  0  0  0  0
  5 11  1  0  0  0  0
  6  2  1  0  0  0  0
  7 18  1  0  0  0  0
  7 17  2  0  0  0  0
  8  3  2  0  0  0  0
  9 17  1  0  0  0  0
  9 27  1  0  0  0  0
 11  1  2  0  0  0  0
 12 16  2  0  0  0  0
 13 19  2  0  0  0  0
 16 15  1  0  0  0  0
 16 22  1  0  0  0  0
 17 10  1  0  0  0  0
 18  4  1  0  0  0  0
 19 12  1  0  0  0  0
 20 21  1  0  0  0  0
 21 23  2  0  0  0  0
 22 25  2  0  0  0  0
 24 22  1  0  0  0  0
 24 20  2  0  0  0  0
 25 23  1  0  0  0  0
 26 20  1  0  0  0  0
 29 27  1  1  0  0  0
 29 30  1  0  0  0  0
 30 34  1  0  0  0  0
 30 28  1  1  0  0  0
 31 34  1  0  0  0  0
 32 31  1  0  0  0  0
 33 32  1  0  0  0  0
 33 29  1  0  0  0  0
M  END
>  <MODEL>
5

>  <REMARK>
 VINA RESULT:      -9.9      4.431      8.852
  Name = 
  3 active torsions:
  status: ('A' for Active; 'I' for Inactive)
    1  A    between atoms: N_3  and  C_13
    2  A    between atoms: N_3  and  N_17
    3  A    between atoms: C_12  and  C_28
                            x       y       z     vdW  Elec       q    Type
                         _______ _______ _______ _____ _____    ______ ____

>  <TORSDO>
F 3

$$$$
=
 OpenBabel10252414593D

 34 39  0  0  1  0  0  0  0  0999 V2000
  186.1090  178.1420  145.8800 C   0  0  0  0  0  0  0  0  0  0  0  0
  187.9370  177.7810  144.1820 C   0  0  2  0  0  3  0  0  0  0  0  0
  185.5660  178.4980  143.5200 C   0  0  0  0  0  0  0  0  0  0  0  0
  184.9150  178.8610  141.1640 C   0  0  0  0  0  0  0  0  0  0  0  0
  188.3880  177.9160  146.6040 C   0  0  0  0  0  3  0  0  0  0  0  0
  188.8650  177.8730  145.3600 C   0  0  0  0  0  3  0  0  0  0  0  0
  187.1290  178.2920  141.5300 N   0  0  0  0  0  0  0  0  0  0  0  0
  186.5170  178.1850  144.5250 C   0  0  0  0  0  0  0  0  0  0  0  0
  188.1920  177.8310  139.4650 N   0  0  0  0  0  2  0  0  0  0  0  0
  185.4910  178.7330  139.4850 S   0  0  0  0  0  0  0  0  0  0  0  0
  186.9750  177.9800  146.8370 N   0  0  0  0  0  0  0  0  0  0  0  0
  184.2000  178.6860  143.8720 C   0  0  0  0  0  0  0  0  0  0  0  0
  184.7700  178.3280  146.2120 C   0  0  0  0  0  3  0  0  0  0  0  0
  187.9480  176.0940  143.5940 Cl  0  0  0  0  0  0  0  0  0  0  0  0
  183.6700  178.9450  141.5080 N   0  0  0  0  0  0  0  0  0  0  0  0
  183.2720  178.9180  142.8950 C   0  0  0  0  0  0  0  0  0  0  0  0
  187.0750  178.2780  140.2370 C   0  0  0  0  0  0  0  0  0  0  0  0
  185.9150  178.6300  142.1280 N   0  0  0  0  0  0  0  0  0  0  0  0
  183.8260  178.5840  145.2210 C   0  0  0  0  0  3  0  0  0  0  0  0
  179.6730  180.1500  142.8080 C   0  0  0  0  0  0  0  0  0  0  0  0
  179.0670  179.2610  143.7010 C   0  0  0  0  0  3  0  0  0  0  0  0
  181.8200  179.0650  143.1730 C   0  0  0  0  0  0  0  0  0  0  0  0
  179.8290  178.2600  144.3100 C   0  0  0  0  0  3  0  0  0  0  0  0
  181.0420  180.0530  142.5440 C   0  0  0  0  0  3  0  0  0  0  0  0
  181.1960  178.1590  144.0430 C   0  0  0  0  0  3  0  0  0  0  0  0
  178.9310  181.1110  142.2040 F   0  0  0  0  0  0  0  0  0  0  0  0
  188.1260  177.7290  138.0670 N   0  0  0  0  0  2  0  0  0  0  0  0
  190.7930  176.7850  137.5710 O   0  0  0  0  0  1  0  0  0  0  0  0
  188.4220  176.3460  137.7060 C   0  0  2  0  0  3  0  0  0  0  0  0
  189.7020  176.2740  136.8620 C   0  0  1  0  0  3  0  0  0  0  0  0
  188.1260  177.0790  135.0000 C   0  0  0  0  0  2  0  0  0  0  0  0
  187.3140  175.8580  135.4210 C   0  0  0  0  0  2  0  0  0  0  0  0
  187.2260  175.7330  136.9550 C   0  0  0  0  0  2  0  0  0  0  0  0
  189.5710  176.9930  135.5090 C   0  0  0  0  0  2  0  0  0  0  0  0
  1 13  1  0  0  0  0
  1 11  2  0  0  0  0
  2 14  1  1  0  0  0
  2  8  1  0  0  0  0
  2  6  1  0  0  0  0
  3 12  1  0  0  0  0
  3  8  2  0  0  0  0
  4 15  2  0  0  0  0
  4 18  1  0  0  0  0
  5 11  1  0  0  0  0
  6  5  2  0  0  0  0
  7 18  1  0  0  0  0
  8  1  1  0  0  0  0
  9 17  1  0  0  0  0
 10 17  1  0  0  0  0
 10  4  1  0  0  0  0
 12 19  1  0  0  0  0
 15 16  1  0  0  0  0
 16 22  1  0  0  0  0
 16 12  2  0  0  0  0
 17  7  2  0  0  0  0
 18  3  1  0  0  0  0
 19 13  2  0  0  0  0
 20 21  1  0  0  0  0
 21 23  2  0  0  0  0
 22 25  2  0  0  0  0
 24 20  2  0  0  0  0
 24 22  1  0  0  0  0
 25 23  1  0  0  0  0
 26 20  1  0  0  0  0
 27  9  1  0  0  0  0
 29 27  1  6  0  0  0
 30 28  1  1  0  0  0
 30 29  1  0  0  0  0
 31 32  1  0  0  0  0
 31 34  1  0  0  0  0
 32 33  1  0  0  0  0
 33 29  1  0  0  0  0
 34 30  1  0  0  0  0
M  END
>  <MODEL>
6

>  <REMARK>
 VINA RESULT:      -9.7      2.313      3.268
  Name = 
  3 active torsions:
  status: ('A' for Active; 'I' for Inactive)
    1  A    between atoms: N_3  and  C_13
    2  A    between atoms: N_3  and  N_17
    3  A    between atoms: C_12  and  C_28
                            x       y       z     vdW  Elec       q    Type
                         _______ _______ _______ _____ _____    ______ ____

>  <TORSDO>
F 3

$$$$
=
 OpenBabel10252414593D

 34 39  0  0  1  0  0  0  0  0999 V2000
  185.7210  178.2970  146.0770 C   0  0  0  0  0  0  0  0  0  0  0  0
  185.1440  178.7580  143.6660 C   0  0  2  0  0  3  0  0  0  0  0  0
  187.3790  177.7170  144.3730 C   0  0  0  0  0  0  0  0  0  0  0  0
  189.1250  177.1170  142.7290 C   0  0  0  0  0  0  0  0  0  0  0  0
  183.4620  178.8440  145.4680 C   0  0  0  0  0  3  0  0  0  0  0  0
  183.7300  178.8580  144.1630 C   0  0  0  0  0  3  0  0  0  0  0  0
  187.1580  177.9720  141.8560 N   0  0  0  0  0  0  0  0  0  0  0  0
  186.0930  178.2100  144.7140 C   0  0  0  0  0  0  0  0  0  0  0  0
  187.4310  178.4130  139.5460 N   0  0  0  0  0  2  0  0  0  0  0  0
  189.5530  177.1980  141.0040 S   0  0  0  0  0  0  0  0  0  0  0  0
  184.5100  178.6280  146.4210 N   0  0  0  0  0  0  0  0  0  0  0  0
  188.3080  177.3920  145.4000 C   0  0  0  0  0  0  0  0  0  0  0  0
  186.6380  177.9760  147.0730 C   0  0  0  0  0  3  0  0  0  0  0  0
  185.6800  180.3890  143.1740 Cl  0  0  0  0  0  0  0  0  0  0  0  0
  189.9710  176.9100  143.6860 N   0  0  0  0  0  0  0  0  0  0  0  0
  189.5710  176.9840  145.0710 C   0  0  0  0  0  0  0  0  0  0  0  0
  187.8920  177.8900  140.7930 C   0  0  0  0  0  0  0  0  0  0  0  0
  187.8090  177.5330  143.0100 N   0  0  0  0  0  0  0  0  0  0  0  0
  187.9170  177.5410  146.7410 C   0  0  0  0  0  3  0  0  0  0  0  0
  191.7350  177.1280  148.1980 C   0  0  0  0  0  0  0  0  0  0  0  0
  192.5810  176.0350  147.9840 C   0  0  0  0  0  3  0  0  0  0  0  0
  190.6160  176.6840  146.0820 C   0  0  0  0  0  0  0  0  0  0  0  0
  192.4300  175.2530  146.8360 C   0  0  0  0  0  3  0  0  0  0  0  0
  190.7570  177.4510  147.2520 C   0  0  0  0  0  3  0  0  0  0  0  0
  191.4500  175.5720  145.8930 C   0  0  0  0  0  3  0  0  0  0  0  0
  191.8700  177.8780  149.3200 F   0  0  0  0  0  0  0  0  0  0  0  0
  188.2430  178.4100  138.4020 N   0  0  0  0  0  2  0  0  0  0  0  0
  190.5400  177.1280  137.2510 O   0  0  0  0  0  1  0  0  0  0  0  0
  188.1950  177.0700  137.8240 C   0  0  2  0  0  3  0  0  0  0  0  0
  189.2610  176.9200  136.7290 C   0  0  1  0  0  3  0  0  0  0  0  0
  187.5540  178.2530  135.3470 C   0  0  0  0  0  2  0  0  0  0  0  0
  186.6140  177.1310  135.7790 C   0  0  0  0  0  2  0  0  0  0  0  0
  186.7870  176.7870  137.2710 C   0  0  0  0  0  2  0  0  0  0  0  0
  189.0240  177.8520  135.5290 C   0  0  0  0  0  2  0  0  0  0  0  0
  1 11  2  0  0  0  0
  1 13  1  0  0  0  0
  2 14  1  1  0  0  0
  2  6  1  0  0  0  0
  2  8  1  0  0  0  0
  3  8  2  0  0  0  0
  3 12  1  0  0  0  0
  4 18  1  0  0  0  0
  4 15  2  0  0  0  0
  5 11  1  0  0  0  0
  6  5  2  0  0  0  0
  7 18  1  0  0  0  0
  8  1  1  0  0  0  0
  9 17  1  0  0  0  0
 10  4  1  0  0  0  0
 12 19  1  0  0  0  0
 15 16  1  0  0  0  0
 16 12  2  0  0  0  0
 16 22  1  0  0  0  0
 17 10  1  0  0  0  0
 17  7  2  0  0  0  0
 18  3  1  0  0  0  0
 19 13  2  0  0  0  0
 20 26  1  0  0  0  0
 21 20  1  0  0  0  0
 22 24  1  0  0  0  0
 23 21  2  0  0  0  0
 24 20  2  0  0  0  0
 25 22  2  0  0  0  0
 25 23  1  0  0  0  0
 27  9  1  0  0  0  0
 29 27  1  6  0  0  0
 30 28  1  1  0  0  0
 30 29  1  0  0  0  0
 31 34  1  0  0  0  0
 31 32  1  0  0  0  0
 32 33  1  0  0  0  0
 33 29  1  0  0  0  0
 34 30  1  0  0  0  0
M  END
>  <MODEL>
7

>  <REMARK>
 VINA RESULT:      -9.6      3.431      6.023
  Name = 
  3 active torsions:
  status: ('A' for Active; 'I' for Inactive)
    1  A    between atoms: N_3  and  C_13
    2  A    between atoms: N_3  and  N_17
    3  A    between atoms: C_12  and  C_28
                            x       y       z     vdW  Elec       q    Type
                         _______ _______ _______ _____ _____    ______ ____

>  <TORSDO>
F 3

$$$$
=
 OpenBabel10252414593D

 34 39  0  0  1  0  0  0  0  0999 V2000
  190.3570  177.0250  139.5700 C   0  0  0  0  0  0  0  0  0  0  0  0
  188.4060  177.5820  138.0740 C   0  0  2  0  0  3  0  0  0  0  0  0
  188.3060  177.8440  140.6230 C   0  0  0  0  0  0  0  0  0  0  0  0
  186.2730  178.6410  141.7810 C   0  0  0  0  0  0  0  0  0  0  0  0
  190.6760  177.1840  137.1940 C   0  0  0  0  0  3  0  0  0  0  0  0
  189.4260  177.5870  136.9710 C   0  0  0  0  0  3  0  0  0  0  0  0
  186.1590  178.5570  139.4700 N   0  0  0  0  0  0  0  0  0  0  0  0
  189.0370  177.5210  139.4500 C   0  0  0  0  0  0  0  0  0  0  0  0
  183.9310  178.9310  138.7620 N   0  0  0  0  0  2  0  0  0  0  0  0
  184.5730  179.1040  141.5310 S   0  0  0  0  0  0  0  0  0  0  0  0
  191.0990  176.8350  138.5180 N   0  0  0  0  0  0  0  0  0  0  0  0
  188.8730  177.5910  141.9030 C   0  0  0  0  0  0  0  0  0  0  0  0
  190.9020  176.7820  140.8270 C   0  0  0  0  0  3  0  0  0  0  0  0
  187.3420  176.1650  137.8450 Cl  0  0  0  0  0  0  0  0  0  0  0  0
  186.7860  178.3230  142.9260 N   0  0  0  0  0  0  0  0  0  0  0  0
  188.1400  177.8360  143.0320 C   0  0  0  0  0  0  0  0  0  0  0  0
  184.9400  178.8710  139.7720 C   0  0  0  0  0  0  0  0  0  0  0  0
  186.9840  178.4170  140.5860 N   0  0  0  0  0  0  0  0  0  0  0  0
  190.1660  177.0500  141.9780 C   0  0  0  0  0  3  0  0  0  0  0  0
  190.4450  177.1280  145.9760 C   0  0  0  0  0  0  0  0  0  0  0  0
  189.5190  177.0430  147.0210 C   0  0  0  0  0  3  0  0  0  0  0  0
  188.6360  177.5440  144.4010 C   0  0  0  0  0  0  0  0  0  0  0  0
  188.1590  177.2310  146.7630 C   0  0  0  0  0  3  0  0  0  0  0  0
  190.0060  177.3780  144.6720 C   0  0  0  0  0  3  0  0  0  0  0  0
  187.7210  177.4860  145.4610 C   0  0  0  0  0  3  0  0  0  0  0  0
  191.7670  176.9620  146.2280 F   0  0  0  0  0  0  0  0  0  0  0  0
  182.5880  179.1860  139.0790 N   0  0  0  0  0  2  0  0  0  0  0  0
  182.5570  182.0320  138.6940 O   0  0  0  0  0  1  0  0  0  0  0  0
  181.9690  179.8220  137.9190 C   0  0  2  0  0  3  0  0  0  0  0  0
  181.4880  181.2360  138.2760 C   0  0  1  0  0  3  0  0  0  0  0  0
  179.5610  179.9440  139.3790 C   0  0  0  0  0  2  0  0  0  0  0  0
  179.4320  179.3270  137.9900 C   0  0  0  0  0  2  0  0  0  0  0  0
  180.8080  178.9540  137.4030 C   0  0  0  0  0  2  0  0  0  0  0  0
  180.3790  181.2420  139.3410 C   0  0  0  0  0  2  0  0  0  0  0  0
  1 13  1  0  0  0  0
  2 14  1  6  0  0  0
  2  8  1  0  0  0  0
  3 12  1  0  0  0  0
  4 15  2  0  0  0  0
  5 11  1  0  0  0  0
  6  5  2  0  0  0  0
  6  2  1  0  0  0  0
  7 17  2  0  0  0  0
  7 18  1  0  0  0  0
  8  1  1  0  0  0  0
  8  3  2  0  0  0  0
  9 27  1  0  0  0  0
  9 17  1  0  0  0  0
 10  4  1  0  0  0  0
 11  1  2  0  0  0  0
 12 19  1  0  0  0  0
 12 16  2  0  0  0  0
 13 19  2  0  0  0  0
 15 16  1  0  0  0  0
 16 22  1  0  0  0  0
 17 10  1  0  0  0  0
 18  3  1  0  0  0  0
 18  4  1  0  0  0  0
 20 26  1  0  0  0  0
 20 21  1  0  0  0  0
 22 24  1  0  0  0  0
 22 25  2  0  0  0  0
 23 21  2  0  0  0  0
 24 20  2  0  0  0  0
 25 23  1  0  0  0  0
 29 30  1  0  0  0  0
 29 27  1  1  0  0  0
 30 28  1  1  0  0  0
 30 34  1  0  0  0  0
 32 31  1  0  0  0  0
 33 29  1  0  0  0  0
 33 32  1  0  0  0  0
 34 31  1  0  0  0  0
M  END
>  <MODEL>
8

>  <REMARK>
 VINA RESULT:      -9.5      4.160      7.995
  Name = 
  3 active torsions:
  status: ('A' for Active; 'I' for Inactive)
    1  A    between atoms: N_3  and  C_13
    2  A    between atoms: N_3  and  N_17
    3  A    between atoms: C_12  and  C_28
                            x       y       z     vdW  Elec       q    Type
                         _______ _______ _______ _____ _____    ______ ____

>  <TORSDO>
F 3

$$$$
=
 OpenBabel10252414593D

 34 39  0  0  1  0  0  0  0  0999 V2000
  190.3410  177.0340  139.6910 C   0  0  0  0  0  0  0  0  0  0  0  0
  188.4130  177.5970  138.1670 C   0  0  2  0  0  3  0  0  0  0  0  0
  188.2750  177.8530  140.7150 C   0  0  0  0  0  0  0  0  0  0  0  0
  186.2260  178.6500  141.8440 C   0  0  0  0  0  0  0  0  0  0  0  0
  190.6950  177.1980  137.3200 C   0  0  0  0  0  3  0  0  0  0  0  0
  189.4490  177.6040  137.0790 C   0  0  0  0  0  3  0  0  0  0  0  0
  186.1460  178.5720  139.5320 N   0  0  0  0  0  0  0  0  0  0  0  0
  189.0230  177.5320  139.5530 C   0  0  0  0  0  0  0  0  0  0  0  0
  183.9290  178.9490  138.7920 N   0  0  0  0  0  2  0  0  0  0  0  0
  184.5300  179.1150  141.5700 S   0  0  0  0  0  0  0  0  0  0  0  0
  191.0990  176.8460  138.6490 N   0  0  0  0  0  0  0  0  0  0  0  0
  188.8230  177.5970  142.0030 C   0  0  0  0  0  0  0  0  0  0  0  0
  190.8670  176.7880  140.9560 C   0  0  0  0  0  3  0  0  0  0  0  0
  187.3510  176.1820  137.9190 Cl  0  0  0  0  0  0  0  0  0  0  0  0
  186.7210  178.3290  142.9960 N   0  0  0  0  0  0  0  0  0  0  0  0
  188.0730  177.8400  143.1210 C   0  0  0  0  0  0  0  0  0  0  0  0
  184.9230  178.8860  139.8170 C   0  0  0  0  0  0  0  0  0  0  0  0
  186.9550  178.4280  140.6600 N   0  0  0  0  0  0  0  0  0  0  0  0
  190.1140  177.0540  142.0960 C   0  0  0  0  0  3  0  0  0  0  0  0
  190.3330  177.1270  146.0990 C   0  0  0  0  0  0  0  0  0  0  0  0
  189.3920  177.0360  147.1280 C   0  0  0  0  0  3  0  0  0  0  0  0
  188.5490  177.5440  144.4970 C   0  0  0  0  0  0  0  0  0  0  0  0
  188.0360  177.2230  146.8500 C   0  0  0  0  0  3  0  0  0  0  0  0
  189.9150  177.3800  144.7890 C   0  0  0  0  0  3  0  0  0  0  0  0
  187.6170  177.4810  145.5430 C   0  0  0  0  0  3  0  0  0  0  0  0
  191.6510  176.9620  146.3710 F   0  0  0  0  0  0  0  0  0  0  0  0
  182.5820  179.2060  139.0890 N   0  0  0  0  0  2  0  0  0  0  0  0
  181.1310  178.7720  136.6490 O   0  0  0  0  0  1  0  0  0  0  0  0
  181.8260  177.9860  138.8230 C   0  0  2  0  0  3  0  0  0  0  0  0
  180.6600  178.2740  137.8670 C   0  0  1  0  0  3  0  0  0  0  0  0
  179.5810  179.2230  139.9960 C   0  0  0  0  0  2  0  0  0  0  0  0
  179.9050  177.8390  140.5490 C   0  0  0  0  0  2  0  0  0  0  0  0
  181.3220  177.3830  140.1470 C   0  0  0  0  0  2  0  0  0  0  0  0
  179.6190  179.2360  138.4620 C   0  0  0  0  0  2  0  0  0  0  0  0
  1 13  1  0  0  0  0
  2 14  1  6  0  0  0
  2  8  1  0  0  0  0
  3 12  1  0  0  0  0
  4 15  2  0  0  0  0
  5 11  1  0  0  0  0
  6  5  2  0  0  0  0
  6  2  1  0  0  0  0
  7 17  2  0  0  0  0
  7 18  1  0  0  0  0
  8  1  1  0  0  0  0
  8  3  2  0  0  0  0
  9 27  1  0  0  0  0
  9 17  1  0  0  0  0
 10  4  1  0  0  0  0
 11  1  2  0  0  0  0
 12 19  1  0  0  0  0
 12 16  2  0  0  0  0
 13 19  2  0  0  0  0
 15 16  1  0  0  0  0
 16 22  1  0  0  0  0
 17 10  1  0  0  0  0
 18  3  1  0  0  0  0
 18  4  1  0  0  0  0
 20 26  1  0  0  0  0
 20 21  1  0  0  0  0
 22 24  1  0  0  0  0
 22 25  2  0  0  0  0
 23 21  2  0  0  0  0
 24 20  2  0  0  0  0
 25 23  1  0  0  0  0
 29 27  1  1  0  0  0
 29 33  1  0  0  0  0
 30 28  1  6  0  0  0
 30 34  1  0  0  0  0
 30 29  1  0  0  0  0
 31 32  1  0  0  0  0
 33 32  1  0  0  0  0
 34 31  1  0  0  0  0
M  END
>  <MODEL>
9

>  <REMARK>
 VINA RESULT:      -9.4      4.013      7.906
  Name = 
  3 active torsions:
  status: ('A' for Active; 'I' for Inactive)
    1  A    between atoms: N_3  and  C_13
    2  A    between atoms: N_3  and  N_17
    3  A    between atoms: C_12  and  C_28
                            x       y       z     vdW  Elec       q    Type
                         _______ _______ _______ _____ _____    ______ ____

>  <TORSDO>
F 3

$$$$
