=
 OpenBabel10252414553D

 34 38  0  0  1  0  0  0  0  0999 V2000
  189.2500  176.1390  136.7600 C   0  0  0  0  0  0  0  0  0  0  0  0
  191.6550  176.1840  137.5720 C   0  0  1  0  0  3  0  0  0  0  0  0
  189.7570  177.1810  138.9000 C   0  0  0  0  0  0  0  0  0  0  0  0
  191.1690  178.1650  142.3630 C   0  0  0  0  0  1  0  0  0  0  0  0
  191.9310  174.6990  137.7790 C   0  0  0  0  0  1  0  0  0  0  0  0
  192.1020  176.9020  139.7210 C   0  0  0  0  0  2  0  0  0  0  0  0
  190.1870  176.5180  137.7350 C   0  0  0  0  0  0  0  0  0  0  0  0
  190.1830  177.5840  141.3500 C   0  0  1  0  0  0  0  0  0  0  0  0
  188.3950  177.4750  139.1010 C   0  0  0  0  0  0  0  0  0  0  0  0
  187.8920  176.4210  136.9670 C   0  0  0  0  0  3  0  0  0  0  0  0
  192.5040  176.9920  138.3710 O   0  0  0  0  0  0  0  0  0  0  0  0
  188.9730  178.5180  141.3350 C   0  0  0  0  0  2  0  0  0  0  0  0
  187.9720  178.1060  140.3380 N   0  0  0  0  0  0  0  0  0  0  0  0
  190.7670  177.6280  139.9170 C   0  0  2  0  0  3  0  0  0  0  0  0
  187.4700  177.0740  138.1260 C   0  0  0  0  0  3  0  0  0  0  0  0
  184.7570  178.6710  142.1950 C   0  0  0  0  0  0  0  0  0  0  0  0
  183.8940  178.9890  141.1450 C   0  0  0  0  0  3  0  0  0  0  0  0
  186.5940  178.4160  140.6220 C   0  0  0  0  0  0  0  0  0  0  0  0
  184.3710  179.0120  139.8320 C   0  0  0  0  0  3  0  0  0  0  0  0
  186.0990  178.3830  141.9350 C   0  0  0  0  0  3  0  0  0  0  0  0
  185.7140  178.7250  139.5720 C   0  0  0  0  0  3  0  0  0  0  0  0
  184.1600  178.6420  143.8410 Cl  0  0  0  0  0  0  0  0  0  0  0  0
  189.1990  174.1920  135.2280 C   0  0  0  0  0  1  0  0  0  0  0  0
  189.6820  175.4750  135.6060 O   0  0  0  0  0  0  0  0  0  0  0  0
  189.7140  176.2990  141.7360 O   0  0  0  0  0  0  0  0  0  0  0  0
  188.7870  176.3950  142.7860 C   0  0  0  0  0  2  0  0  0  0  0  0
  189.5290  176.5920  144.0920 C   0  0  0  0  0  2  0  0  0  0  0  0
  189.8090  176.4050  146.9720 C   0  0  0  0  0  1  0  0  0  0  0  0
  188.7740  177.5750  144.9790 C   0  0  2  0  0  3  0  0  0  0  0  0
  189.3440  177.7440  146.3840 C   0  0  1  0  0  3  0  0  0  0  0  0
  188.2160  178.1390  148.6510 C   0  0  0  0  0  1  0  0  0  0  0  0
  186.9190  177.6390  146.5500 C   0  0  0  0  0  2  0  0  0  0  0  0
  187.3210  177.1680  145.1590 C   0  0  0  0  0  2  0  0  0  0  0  0
  188.1470  178.3060  147.1410 C   0  0  2  0  0  3  0  0  0  0  0  0
  1 10  2  0  0  0  0
  1  7  1  0  0  0  0
  2  7  1  0  0  0  0
  2  5  1  1  0  0  0
  2 11  1  0  0  0  0
  3  9  1  0  0  0  0
  3 14  1  0  0  0  0
  7  3  2  0  0  0  0
  8 25  1  0  0  0  0
  8  4  1  1  0  0  0
  9 13  1  0  0  0  0
 10 15  1  0  0  0  0
 11  6  1  0  0  0  0
 12  8  1  0  0  0  0
 13 18  1  0  0  0  0
 13 12  1  0  0  0  0
 14  6  1  1  0  0  0
 14  8  1  0  0  0  0
 15  9  2  0  0  0  0
 16 22  1  0  0  0  0
 17 16  2  0  0  0  0
 18 20  2  0  0  0  0
 19 17  1  0  0  0  0
 20 16  1  0  0  0  0
 21 19  2  0  0  0  0
 21 18  1  0  0  0  0
 23 24  1  0  0  0  0
 24  1  1  0  0  0  0
 25 26  1  0  0  0  0
 26 27  1  0  0  0  0
 29 27  1  1  0  0  0
 29 33  1  0  0  0  0
 29 30  1  0  0  0  0
 30 28  1  1  0  0  0
 30 34  1  0  0  0  0
 32 34  1  0  0  0  0
 33 32  1  0  0  0  0
 34 31  1  1  0  0  0
M  END
>  <MODEL>
1

>  <REMARK>
 VINA RESULT:      -8.4      0.000      0.000
  Name = 
  6 active torsions:
  status: ('A' for Active; 'I' for Inactive)
    1  A    between atoms: C_1  and  O_19
    2  A    between atoms: C_3  and  C_13
    3  A    between atoms: C_3  and  C_17
    4  A    between atoms: C_12  and  N_28
    5  A    between atoms: C_17  and  O_29
    6  A    between atoms: C_18  and  O_29
                            x       y       z     vdW  Elec       q    Type
                         _______ _______ _______ _____ _____    ______ ____

>  <TORSDO>
F 6

$$$$
=
 OpenBabel10252414553D

 34 38  0  0  1  0  0  0  0  0999 V2000
  186.1080  174.5570  136.9830 C   0  0  0  0  0  0  0  0  0  0  0  0
  187.1610  176.8670  137.0360 C   0  0  1  0  0  3  0  0  0  0  0  0
  184.7390  176.4660  137.6150 C   0  0  0  0  0  0  0  0  0  0  0  0
  183.3280  179.7830  139.0170 C   0  0  0  0  0  1  0  0  0  0  0  0
  188.1700  176.7110  138.1670 C   0  0  0  0  0  1  0  0  0  0  0  0
  185.9550  178.6300  137.9150 C   0  0  0  0  0  2  0  0  0  0  0  0
  185.9750  175.9380  137.2000 C   0  0  0  0  0  0  0  0  0  0  0  0
  183.5770  178.2780  138.9250 C   0  0  1  0  0  0  0  0  0  0  0  0
  183.6260  175.6270  137.8130 C   0  0  0  0  0  0  0  0  0  0  0  0
  185.0020  173.7200  137.1920 C   0  0  0  0  0  3  0  0  0  0  0  0
  186.7860  178.2220  136.8490 O   0  0  0  0  0  0  0  0  0  0  0  0
  182.2540  177.6430  138.4950 C   0  0  0  0  0  2  0  0  0  0  0  0
  182.3790  176.1900  138.2980 N   0  0  0  0  0  0  0  0  0  0  0  0
  184.5870  177.9490  137.8000 C   0  0  2  0  0  3  0  0  0  0  0  0
  183.7800  174.2480  137.6080 C   0  0  0  0  0  3  0  0  0  0  0  0
  179.7000  174.2480  140.0740 C   0  0  0  0  0  0  0  0  0  0  0  0
  178.9380  173.7960  138.9960 C   0  0  0  0  0  3  0  0  0  0  0  0
  181.2080  175.3890  138.5440 C   0  0  0  0  0  0  0  0  0  0  0  0
  179.3090  174.1290  137.6900 C   0  0  0  0  0  3  0  0  0  0  0  0
  180.8310  175.0370  139.8500 C   0  0  0  0  0  3  0  0  0  0  0  0
  180.4390  174.9200  137.4670 C   0  0  0  0  0  3  0  0  0  0  0  0
  179.2360  173.8310  141.7100 Cl  0  0  0  0  0  0  0  0  0  0  0  0
  187.7520  172.7060  136.8690 C   0  0  0  0  0  1  0  0  0  0  0  0
  187.3420  174.0360  136.5740 O   0  0  0  0  0  0  0  0  0  0  0  0
  183.9210  177.7140  140.1830 O   0  0  0  0  0  0  0  0  0  0  0  0
  183.8440  178.6750  141.2040 C   0  0  0  0  0  2  0  0  0  0  0  0
  185.1660  178.7280  141.9420 C   0  0  0  0  0  2  0  0  0  0  0  0
  186.4600  177.4400  144.1940 C   0  0  0  0  0  1  0  0  0  0  0  0
  184.9610  179.2950  143.3420 C   0  0  2  0  0  3  0  0  0  0  0  0
  186.0300  178.9040  144.3580 C   0  0  1  0  0  3  0  0  0  0  0  0
  185.9010  178.3950  146.8670 C   0  0  0  0  0  1  0  0  0  0  0  0
  183.8560  178.7530  145.4400 C   0  0  0  0  0  2  0  0  0  0  0  0
  183.6340  178.8550  143.9370 C   0  0  0  0  0  2  0  0  0  0  0  0
  185.3050  179.1340  145.6780 C   0  0  2  0  0  3  0  0  0  0  0  0
  1 10  2  0  0  0  0
  1  7  1  0  0  0  0
  2  7  1  0  0  0  0
  2  5  1  1  0  0  0
  3 14  1  0  0  0  0
  3  9  1  0  0  0  0
  7  3  2  0  0  0  0
  8  4  1  1  0  0  0
  8 25  1  0  0  0  0
  9 13  1  0  0  0  0
 10 15  1  0  0  0  0
 11  2  1  0  0  0  0
 11  6  1  0  0  0  0
 12  8  1  0  0  0  0
 13 12  1  0  0  0  0
 13 18  1  0  0  0  0
 14  6  1  1  0  0  0
 14  8  1  0  0  0  0
 15  9  2  0  0  0  0
 16 22  1  0  0  0  0
 17 16  2  0  0  0  0
 18 20  2  0  0  0  0
 19 17  1  0  0  0  0
 20 16  1  0  0  0  0
 21 19  2  0  0  0  0
 21 18  1  0  0  0  0
 24 23  1  0  0  0  0
 24  1  1  0  0  0  0
 25 26  1  0  0  0  0
 26 27  1  0  0  0  0
 29 27  1  6  0  0  0
 29 33  1  0  0  0  0
 29 30  1  0  0  0  0
 30 28  1  6  0  0  0
 30 34  1  0  0  0  0
 32 34  1  0  0  0  0
 33 32  1  0  0  0  0
 34 31  1  1  0  0  0
M  END
>  <MODEL>
2

>  <REMARK>
 VINA RESULT:      -8.3      3.944      5.606
  Name = 
  6 active torsions:
  status: ('A' for Active; 'I' for Inactive)
    1  A    between atoms: C_1  and  O_19
    2  A    between atoms: C_3  and  C_13
    3  A    between atoms: C_3  and  C_17
    4  A    between atoms: C_12  and  N_28
    5  A    between atoms: C_17  and  O_29
    6  A    between atoms: C_18  and  O_29
                            x       y       z     vdW  Elec       q    Type
                         _______ _______ _______ _____ _____    ______ ____

>  <TORSDO>
F 6

$$$$
=
 OpenBabel10252414553D

 34 38  0  0  1  0  0  0  0  0999 V2000
  185.4370  173.6160  136.3960 C   0  0  0  0  0  0  0  0  0  0  0  0
  187.7810  174.0320  135.5130 C   0  0  1  0  0  3  0  0  0  0  0  0
  186.4430  175.8110  136.6990 C   0  0  0  0  0  0  0  0  0  0  0  0
  188.8010  178.8170  137.2970 C   0  0  0  0  0  1  0  0  0  0  0  0
  188.6030  173.0950  136.3900 C   0  0  0  0  0  1  0  0  0  0  0  0
  188.8510  176.0070  136.0540 C   0  0  0  0  0  2  0  0  0  0  0  0
  186.5160  174.4950  136.2060 C   0  0  0  0  0  0  0  0  0  0  0  0
  187.7330  177.7710  137.6160 C   0  0  1  0  0  0  0  0  0  0  0  0
  185.2970  176.2630  137.3800 C   0  0  0  0  0  0  0  0  0  0  0  0
  184.3000  174.0640  137.0850 C   0  0  0  0  0  3  0  0  0  0  0  0
  188.5650  175.1020  135.0090 O   0  0  0  0  0  0  0  0  0  0  0  0
  186.4020  178.5190  137.6980 C   0  0  0  0  0  2  0  0  0  0  0  0
  185.2710  177.6060  137.9300 N   0  0  0  0  0  0  0  0  0  0  0  0
  187.5790  176.7630  136.4520 C   0  0  2  0  0  3  0  0  0  0  0  0
  184.2350  175.3680  137.5750 C   0  0  0  0  0  3  0  0  0  0  0  0
  183.0360  178.6740  140.7530 C   0  0  0  0  0  0  0  0  0  0  0  0
  181.9140  179.1190  140.0520 C   0  0  0  0  0  3  0  0  0  0  0  0
  184.1420  178.1280  138.6570 C   0  0  0  0  0  0  0  0  0  0  0  0
  181.8960  179.0630  138.6560 C   0  0  0  0  0  3  0  0  0  0  0  0
  184.1440  178.1780  140.0600 C   0  0  0  0  0  3  0  0  0  0  0  0
  183.0040  178.5680  137.9620 C   0  0  0  0  0  3  0  0  0  0  0  0
  183.0610  178.7440  142.5020 Cl  0  0  0  0  0  0  0  0  0  0  0  0
  184.4240  171.3980  135.9580 C   0  0  0  0  0  1  0  0  0  0  0  0
  185.5170  172.3070  135.9070 O   0  0  0  0  0  0  0  0  0  0  0  0
  187.9450  177.1570  138.8790 O   0  0  0  0  0  0  0  0  0  0  0  0
  188.1940  178.1180  139.8720 C   0  0  0  0  0  2  0  0  0  0  0  0
  189.0350  177.4980  140.9700 C   0  0  0  0  0  2  0  0  0  0  0  0
  190.0780  176.2630  143.3760 C   0  0  0  0  0  1  0  0  0  0  0  0
  188.5930  178.0270  142.3290 C   0  0  2  0  0  3  0  0  0  0  0  0
  189.5300  177.6920  143.4860 C   0  0  1  0  0  3  0  0  0  0  0  0
  189.0780  177.1350  145.9460 C   0  0  0  0  0  1  0  0  0  0  0  0
  187.2390  177.3800  144.2420 C   0  0  0  0  0  2  0  0  0  0  0  0
  187.2280  177.4910  142.7240 C   0  0  0  0  0  2  0  0  0  0  0  0
  188.6100  177.8520  144.6890 C   0  0  2  0  0  3  0  0  0  0  0  0
  1 10  1  0  0  0  0
  2  7  1  0  0  0  0
  2  5  1  1  0  0  0
  3  9  2  0  0  0  0
  7  1  2  0  0  0  0
  7  3  1  0  0  0  0
  8  4  1  6  0  0  0
  8 12  1  0  0  0  0
  8 25  1  0  0  0  0
  9 15  1  0  0  0  0
  9 13  1  0  0  0  0
 10 15  2  0  0  0  0
 11  2  1  0  0  0  0
 11  6  1  0  0  0  0
 12 13  1  0  0  0  0
 13 18  1  0  0  0  0
 14  6  1  1  0  0  0
 14  3  1  0  0  0  0
 14  8  1  0  0  0  0
 16 22  1  0  0  0  0
 17 16  2  0  0  0  0
 18 20  2  0  0  0  0
 19 17  1  0  0  0  0
 20 16  1  0  0  0  0
 21 19  2  0  0  0  0
 21 18  1  0  0  0  0
 24 23  1  0  0  0  0
 24  1  1  0  0  0  0
 25 26  1  0  0  0  0
 26 27  1  0  0  0  0
 29 27  1  6  0  0  0
 29 33  1  0  0  0  0
 29 30  1  0  0  0  0
 30 28  1  6  0  0  0
 30 34  1  0  0  0  0
 32 34  1  0  0  0  0
 33 32  1  0  0  0  0
 34 31  1  1  0  0  0
M  END
>  <MODEL>
3

>  <REMARK>
 VINA RESULT:      -8.3      2.414      3.851
  Name = 
  6 active torsions:
  status: ('A' for Active; 'I' for Inactive)
    1  A    between atoms: C_1  and  O_19
    2  A    between atoms: C_3  and  C_13
    3  A    between atoms: C_3  and  C_17
    4  A    between atoms: C_12  and  N_28
    5  A    between atoms: C_17  and  O_29
    6  A    between atoms: C_18  and  O_29
                            x       y       z     vdW  Elec       q    Type
                         _______ _______ _______ _____ _____    ______ ____

>  <TORSDO>
F 6

$$$$
=
 OpenBabel10252414553D

 34 38  0  0  1  0  0  0  0  0999 V2000
  185.9690  177.5650  137.1250 C   0  0  0  0  0  0  0  0  0  0  0  0
  188.5060  177.6470  137.1250 C   0  0  1  0  0  3  0  0  0  0  0  0
  187.1310  178.2200  139.1600 C   0  0  0  0  0  0  0  0  0  0  0  0
  189.5810  178.6410  142.1220 C   0  0  0  0  0  1  0  0  0  0  0  0
  188.8550  176.1770  136.9260 C   0  0  0  0  0  1  0  0  0  0  0  0
  189.6190  177.9780  139.1220 C   0  0  0  0  0  2  0  0  0  0  0  0
  187.1680  177.8270  137.8100 C   0  0  0  0  0  0  0  0  0  0  0  0
  188.3270  178.1850  141.3770 C   0  0  1  0  0  0  0  0  0  0  0  0
  185.9060  178.3610  139.8370 C   0  0  0  0  0  0  0  0  0  0  0  0
  184.7480  177.6940  137.8040 C   0  0  0  0  0  3  0  0  0  0  0  0
  189.5590  178.3540  137.7620 O   0  0  0  0  0  0  0  0  0  0  0  0
  187.1650  179.0050  141.9370 C   0  0  0  0  0  2  0  0  0  0  0  0
  185.8990  178.7120  141.2460 N   0  0  0  0  0  0  0  0  0  0  0  0
  188.4120  178.5460  139.8750 C   0  0  2  0  0  3  0  0  0  0  0  0
  184.7190  178.0800  139.1440 C   0  0  0  0  0  3  0  0  0  0  0  0
  182.2660  178.6800  142.1970 C   0  0  0  0  0  0  0  0  0  0  0  0
  182.3280  179.1650  143.5040 C   0  0  0  0  0  3  0  0  0  0  0  0
  184.6850  178.8510  142.0080 C   0  0  0  0  0  0  0  0  0  0  0  0
  183.5620  179.5030  144.0660 C   0  0  0  0  0  3  0  0  0  0  0  0
  183.4380  178.5270  141.4510 C   0  0  0  0  0  3  0  0  0  0  0  0
  184.7340  179.3480  143.3200 C   0  0  0  0  0  3  0  0  0  0  0  0
  180.7210  178.2560  141.4920 Cl  0  0  0  0  0  0  0  0  0  0  0  0
  184.8630  176.7120  135.0790 C   0  0  0  0  0  1  0  0  0  0  0  0
  186.0110  177.1690  135.7830 O   0  0  0  0  0  0  0  0  0  0  0  0
  188.0270  176.8170  141.6190 O   0  0  0  0  0  0  0  0  0  0  0  0
  188.5110  176.4090  142.8730 C   0  0  0  0  0  2  0  0  0  0  0  0
  187.5800  176.9130  143.9570 C   0  0  0  0  0  2  0  0  0  0  0  0
  186.5760  178.4320  146.2130 C   0  0  0  0  0  1  0  0  0  0  0  0
  188.2220  176.7240  145.3270 C   0  0  2  0  0  3  0  0  0  0  0  0
  187.3520  177.1420  146.5080 C   0  0  1  0  0  3  0  0  0  0  0  0
  187.9300  178.2220  148.7590 C   0  0  0  0  0  1  0  0  0  0  0  0
  189.6230  177.9120  146.9190 C   0  0  0  0  0  2  0  0  0  0  0  0
  189.5140  177.5120  145.4550 C   0  0  0  0  0  2  0  0  0  0  0  0
  188.3910  177.3480  147.6030 C   0  0  2  0  0  3  0  0  0  0  0  0
  1 10  2  0  0  0  0
  1  7  1  0  0  0  0
  2  5  1  1  0  0  0
  2 11  1  0  0  0  0
  2  7  1  0  0  0  0
  3  9  1  0  0  0  0
  3 14  1  0  0  0  0
  7  3  2  0  0  0  0
  8 25  1  0  0  0  0
  8 12  1  0  0  0  0
  8  4  1  1  0  0  0
  9 13  1  0  0  0  0
 10 15  1  0  0  0  0
 11  6  1  0  0  0  0
 13 12  1  0  0  0  0
 13 18  1  0  0  0  0
 14  6  1  6  0  0  0
 14  8  1  0  0  0  0
 15  9  2  0  0  0  0
 16 17  1  0  0  0  0
 17 19  2  0  0  0  0
 18 21  2  0  0  0  0
 20 18  1  0  0  0  0
 20 16  2  0  0  0  0
 21 19  1  0  0  0  0
 22 16  1  0  0  0  0
 23 24  1  0  0  0  0
 24  1  1  0  0  0  0
 25 26  1  0  0  0  0
 26 27  1  0  0  0  0
 29 27  1  6  0  0  0
 29 33  1  0  0  0  0
 29 30  1  0  0  0  0
 30 28  1  6  0  0  0
 30 34  1  0  0  0  0
 32 34  1  0  0  0  0
 33 32  1  0  0  0  0
 34 31  1  1  0  0  0
M  END
>  <MODEL>
4

>  <REMARK>
 VINA RESULT:      -8.3      1.827      2.915
  Name = 
  6 active torsions:
  status: ('A' for Active; 'I' for Inactive)
    1  A    between atoms: C_1  and  O_19
    2  A    between atoms: C_3  and  C_13
    3  A    between atoms: C_3  and  C_17
    4  A    between atoms: C_12  and  N_28
    5  A    between atoms: C_17  and  O_29
    6  A    between atoms: C_18  and  O_29
                            x       y       z     vdW  Elec       q    Type
                         _______ _______ _______ _____ _____    ______ ____

>  <TORSDO>
F 6

$$$$
=
 OpenBabel10252414553D

 34 38  0  0  1  0  0  0  0  0999 V2000
  187.7260  173.3750  136.0810 C   0  0  0  0  0  0  0  0  0  0  0  0
  190.0230  174.4510  136.0000 C   0  0  1  0  0  3  0  0  0  0  0  0
  187.9350  175.7520  136.5550 C   0  0  0  0  0  0  0  0  0  0  0  0
  189.0450  179.2750  137.7000 C   0  0  0  0  0  1  0  0  0  0  0  0
  190.7240  173.7530  137.1590 C   0  0  0  0  0  1  0  0  0  0  0  0
  190.2710  176.6270  136.7330 C   0  0  0  0  0  2  0  0  0  0  0  0
  188.5240  174.5240  136.2020 C   0  0  0  0  0  0  0  0  0  0  0  0
  188.2590  177.9650  137.7160 C   0  0  1  0  0  0  0  0  0  0  0  0
  186.5500  175.8480  136.7860 C   0  0  0  0  0  0  0  0  0  0  0  0
  186.3470  173.4680  136.3230 C   0  0  0  0  0  3  0  0  0  0  0  0
  190.6100  175.7110  135.7140 O   0  0  0  0  0  0  0  0  0  0  0  0
  186.8280  178.3110  137.3020 C   0  0  0  0  0  2  0  0  0  0  0  0
  185.9770  177.1140  137.2060 N   0  0  0  0  0  0  0  0  0  0  0  0
  188.7850  176.9880  136.6360 C   0  0  2  0  0  3  0  0  0  0  0  0
  185.7690  174.6880  136.6770 C   0  0  0  0  0  3  0  0  0  0  0  0
  182.7470  177.6550  139.0430 C   0  0  0  0  0  0  0  0  0  0  0  0
  181.8270  177.5660  137.9980 C   0  0  0  0  0  3  0  0  0  0  0  0
  184.5730  177.2800  137.4810 C   0  0  0  0  0  0  0  0  0  0  0  0
  182.2710  177.3250  136.6940 C   0  0  0  0  0  3  0  0  0  0  0  0
  184.1130  177.5090  138.7880 C   0  0  0  0  0  3  0  0  0  0  0  0
  183.6380  177.1810  136.4390 C   0  0  0  0  0  3  0  0  0  0  0  0
  182.1910  177.9560  140.6760 Cl  0  0  0  0  0  0  0  0  0  0  0  0
  187.5640  171.0340  135.2860 C   0  0  0  0  0  1  0  0  0  0  0  0
  188.3170  172.1540  135.7340 O   0  0  0  0  0  0  0  0  0  0  0  0
  188.1910  177.3950  139.0160 O   0  0  0  0  0  0  0  0  0  0  0  0
  188.6750  178.2900  139.9840 C   0  0  0  0  0  2  0  0  0  0  0  0
  189.3530  177.5100  141.0920 C   0  0  0  0  0  2  0  0  0  0  0  0
  190.5110  176.3840  143.4990 C   0  0  0  0  0  1  0  0  0  0  0  0
  188.8790  178.0120  142.4510 C   0  0  2  0  0  3  0  0  0  0  0  0
  189.8480  177.7650  143.6020 C   0  0  1  0  0  3  0  0  0  0  0  0
  189.4610  177.1920  146.0700 C   0  0  0  0  0  1  0  0  0  0  0  0
  187.5960  177.2710  144.3780 C   0  0  0  0  0  2  0  0  0  0  0  0
  187.5650  177.3690  142.8600 C   0  0  0  0  0  2  0  0  0  0  0  0
  188.9270  177.8580  144.8120 C   0  0  2  0  0  3  0  0  0  0  0  0
  1  7  2  0  0  0  0
  1 10  1  0  0  0  0
  2  7  1  0  0  0  0
  2  5  1  1  0  0  0
  3 14  1  0  0  0  0
  3  9  2  0  0  0  0
  7  3  1  0  0  0  0
  8  4  1  1  0  0  0
  8 25  1  0  0  0  0
  9 13  1  0  0  0  0
 10 15  2  0  0  0  0
 11  2  1  0  0  0  0
 11  6  1  0  0  0  0
 12  8  1  0  0  0  0
 13 12  1  0  0  0  0
 13 18  1  0  0  0  0
 14  6  1  1  0  0  0
 14  8  1  0  0  0  0
 15  9  1  0  0  0  0
 16 22  1  0  0  0  0
 17 16  2  0  0  0  0
 18 20  2  0  0  0  0
 19 17  1  0  0  0  0
 20 16  1  0  0  0  0
 21 19  2  0  0  0  0
 21 18  1  0  0  0  0
 23 24  1  0  0  0  0
 24  1  1  0  0  0  0
 25 26  1  0  0  0  0
 26 27  1  0  0  0  0
 29 27  1  6  0  0  0
 29 33  1  0  0  0  0
 29 30  1  0  0  0  0
 30 28  1  6  0  0  0
 30 34  1  0  0  0  0
 32 34  1  0  0  0  0
 33 32  1  0  0  0  0
 34 31  1  1  0  0  0
M  END
>  <MODEL>
5

>  <REMARK>
 VINA RESULT:      -8.0      2.295      3.493
  Name = 
  6 active torsions:
  status: ('A' for Active; 'I' for Inactive)
    1  A    between atoms: C_1  and  O_19
    2  A    between atoms: C_3  and  C_13
    3  A    between atoms: C_3  and  C_17
    4  A    between atoms: C_12  and  N_28
    5  A    between atoms: C_17  and  O_29
    6  A    between atoms: C_18  and  O_29
                            x       y       z     vdW  Elec       q    Type
                         _______ _______ _______ _____ _____    ______ ____

>  <TORSDO>
F 6

$$$$
=
 OpenBabel10252414553D

 34 38  0  0  1  0  0  0  0  0999 V2000
  187.4920  176.4390  136.4580 C   0  0  0  0  0  0  0  0  0  0  0  0
  189.8670  176.7430  137.3010 C   0  0  1  0  0  3  0  0  0  0  0  0
  187.8650  177.6600  138.5300 C   0  0  0  0  0  0  0  0  0  0  0  0
  189.1160  178.9870  141.9400 C   0  0  0  0  0  1  0  0  0  0  0  0
  190.2620  175.3040  137.6120 C   0  0  0  0  0  1  0  0  0  0  0  0
  190.2070  177.6360  139.4040 C   0  0  0  0  0  2  0  0  0  0  0  0
  188.3730  176.9610  137.4200 C   0  0  0  0  0  0  0  0  0  0  0  0
  188.2040  178.2590  140.9540 C   0  0  1  0  0  0  0  0  0  0  0  0
  186.4790  177.8490  138.6900 C   0  0  0  0  0  0  0  0  0  0  0  0
  186.1110  176.6180  136.6250 C   0  0  0  0  0  3  0  0  0  0  0  0
  190.6290  177.6720  138.0570 O   0  0  0  0  0  0  0  0  0  0  0  0
  186.9200  179.0830  140.8570 C   0  0  0  0  0  2  0  0  0  0  0  0
  185.9780  178.5220  139.8740 N   0  0  0  0  0  0  0  0  0  0  0  0
  188.8120  178.2580  139.5300 C   0  0  2  0  0  3  0  0  0  0  0  0
  185.6120  177.3080  137.7300 C   0  0  0  0  0  3  0  0  0  0  0  0
  182.4090  179.6040  139.4310 C   0  0  0  0  0  0  0  0  0  0  0  0
  181.8440  179.1570  140.6260 C   0  0  0  0  0  3  0  0  0  0  0  0
  184.5730  178.7310  140.1160 C   0  0  0  0  0  0  0  0  0  0  0  0
  182.6380  178.5050  141.5730 C   0  0  0  0  0  3  0  0  0  0  0  0
  183.7670  179.3950  139.1780 C   0  0  0  0  0  3  0  0  0  0  0  0
  183.9970  178.2950  141.3190 C   0  0  0  0  0  3  0  0  0  0  0  0
  181.4150  180.4200  138.2430 Cl  0  0  0  0  0  0  0  0  0  0  0  0
  187.6330  174.4010  135.0570 C   0  0  0  0  0  1  0  0  0  0  0  0
  188.0030  175.7410  135.3580 O   0  0  0  0  0  0  0  0  0  0  0  0
  187.8370  176.9670  141.4180 O   0  0  0  0  0  0  0  0  0  0  0  0
  188.3870  176.7100  142.6840 C   0  0  0  0  0  2  0  0  0  0  0  0
  187.3240  176.9170  143.7430 C   0  0  0  0  0  2  0  0  0  0  0  0
  186.4290  178.6250  145.9080 C   0  0  0  0  0  1  0  0  0  0  0  0
  187.9280  176.7370  145.1310 C   0  0  2  0  0  3  0  0  0  0  0  0
  187.0830  177.2860  146.2770 C   0  0  1  0  0  3  0  0  0  0  0  0
  187.7250  178.4180  148.4850 C   0  0  0  0  0  1  0  0  0  0  0  0
  189.4080  177.8710  146.6920 C   0  0  0  0  0  2  0  0  0  0  0  0
  189.2840  177.4130  145.2460 C   0  0  0  0  0  2  0  0  0  0  0  0
  188.1220  177.4520  147.3790 C   0  0  2  0  0  3  0  0  0  0  0  0
  1 10  2  0  0  0  0
  1  7  1  0  0  0  0
  2  7  1  0  0  0  0
  2  5  1  1  0  0  0
  2 11  1  0  0  0  0
  3  9  1  0  0  0  0
  3 14  1  0  0  0  0
  7  3  2  0  0  0  0
  8 25  1  0  0  0  0
  8  4  1  1  0  0  0
  9 13  1  0  0  0  0
 10 15  1  0  0  0  0
 11  6  1  0  0  0  0
 12  8  1  0  0  0  0
 13 18  1  0  0  0  0
 13 12  1  0  0  0  0
 14  6  1  1  0  0  0
 14  8  1  0  0  0  0
 15  9  2  0  0  0  0
 16 17  1  0  0  0  0
 17 19  2  0  0  0  0
 18 21  2  0  0  0  0
 20 16  2  0  0  0  0
 20 18  1  0  0  0  0
 21 19  1  0  0  0  0
 22 16  1  0  0  0  0
 23 24  1  0  0  0  0
 24  1  1  0  0  0  0
 25 26  1  0  0  0  0
 26 27  1  0  0  0  0
 29 27  1  6  0  0  0
 29 33  1  0  0  0  0
 29 30  1  0  0  0  0
 30 28  1  6  0  0  0
 30 34  1  0  0  0  0
 32 34  1  0  0  0  0
 33 32  1  0  0  0  0
 34 31  1  1  0  0  0
M  END
>  <MODEL>
6

>  <REMARK>
 VINA RESULT:      -8.0      1.693      2.437
  Name = 
  6 active torsions:
  status: ('A' for Active; 'I' for Inactive)
    1  A    between atoms: C_1  and  O_19
    2  A    between atoms: C_3  and  C_13
    3  A    between atoms: C_3  and  C_17
    4  A    between atoms: C_12  and  N_28
    5  A    between atoms: C_17  and  O_29
    6  A    between atoms: C_18  and  O_29
                            x       y       z     vdW  Elec       q    Type
                         _______ _______ _______ _____ _____    ______ ____

>  <TORSDO>
F 6

$$$$
=
 OpenBabel10252414553D

 34 38  0  0  1  0  0  0  0  0999 V2000
  186.0130  178.3670  138.9690 C   0  0  0  0  0  0  0  0  0  0  0  0
  185.8900  177.0680  136.7910 C   0  0  1  0  0  3  0  0  0  0  0  0
  183.8350  177.7100  138.1040 C   0  0  0  0  0  0  0  0  0  0  0  0
  180.7600  176.8370  135.9280 C   0  0  0  0  0  1  0  0  0  0  0  0
  186.4170  178.0970  135.7970 C   0  0  0  0  0  1  0  0  0  0  0  0
  183.8280  176.7010  135.8170 C   0  0  0  0  0  2  0  0  0  0  0  0
  185.2380  177.7200  137.9920 C   0  0  0  0  0  0  0  0  0  0  0  0
  181.6420  177.6620  136.8650 C   0  0  1  0  0  0  0  0  0  0  0  0
  183.1940  178.3370  139.1890 C   0  0  0  0  0  0  0  0  0  0  0  0
  185.3730  179.0030  140.0430 C   0  0  0  0  0  3  0  0  0  0  0  0
  185.0620  176.1050  136.1590 O   0  0  0  0  0  0  0  0  0  0  0  0
  180.9520  177.6580  138.2290 C   0  0  0  0  0  2  0  0  0  0  0  0
  181.7440  178.3630  139.2500 N   0  0  0  0  0  0  0  0  0  0  0  0
  183.0120  176.9760  137.0840 C   0  0  2  0  0  3  0  0  0  0  0  0
  183.9820  178.9930  140.1470 C   0  0  0  0  0  3  0  0  0  0  0  0
  180.1790  179.0270  142.5990 C   0  0  0  0  0  0  0  0  0  0  0  0
  179.5740  180.2630  142.3710 C   0  0  0  0  0  3  0  0  0  0  0  0
  181.0200  179.0050  140.3170 C   0  0  0  0  0  0  0  0  0  0  0  0
  179.6800  180.8720  141.1170 C   0  0  0  0  0  3  0  0  0  0  0  0
  180.8960  178.3980  141.5770 C   0  0  0  0  0  3  0  0  0  0  0  0
  180.3980  180.2440  140.0950 C   0  0  0  0  0  3  0  0  0  0  0  0
  180.0470  178.2630  144.1690 Cl  0  0  0  0  0  0  0  0  0  0  0  0
  188.2760  178.1550  139.9530 C   0  0  0  0  0  1  0  0  0  0  0  0
  187.4080  178.3790  138.8500 O   0  0  0  0  0  0  0  0  0  0  0  0
  181.7420  179.0170  136.4520 O   0  0  0  0  0  0  0  0  0  0  0  0
  180.6510  179.3810  135.6470 C   0  0  0  0  0  2  0  0  0  0  0  0
  179.9270  180.5510  136.2830 C   0  0  0  0  0  2  0  0  0  0  0  0
  179.1240  182.9050  137.7720 C   0  0  0  0  0  1  0  0  0  0  0  0
  180.8060  181.7960  136.2370 C   0  0  2  0  0  3  0  0  0  0  0  0
  180.6050  182.7670  137.3970 C   0  0  1  0  0  3  0  0  0  0  0  0
  180.6840  185.3270  137.5160 C   0  0  0  0  0  1  0  0  0  0  0  0
  180.8050  184.0570  135.3430 C   0  0  0  0  0  2  0  0  0  0  0  0
  180.5750  182.6000  134.9690 C   0  0  0  0  0  2  0  0  0  0  0  0
  181.1620  184.0620  136.8180 C   0  0  2  0  0  3  0  0  0  0  0  0
  1 10  1  0  0  0  0
  2  5  1  6  0  0  0
  2  7  1  0  0  0  0
  3  9  2  0  0  0  0
  6 11  1  0  0  0  0
  7  3  1  0  0  0  0
  7  1  2  0  0  0  0
  8  4  1  6  0  0  0
  8 14  1  0  0  0  0
  8 12  1  0  0  0  0
  9 13  1  0  0  0  0
  9 15  1  0  0  0  0
 10 15  2  0  0  0  0
 11  2  1  0  0  0  0
 12 13  1  0  0  0  0
 13 18  1  0  0  0  0
 14  6  1  6  0  0  0
 14  3  1  0  0  0  0
 16 22  1  0  0  0  0
 17 16  1  0  0  0  0
 18 20  1  0  0  0  0
 19 17  2  0  0  0  0
 20 16  2  0  0  0  0
 21 18  2  0  0  0  0
 21 19  1  0  0  0  0
 24  1  1  0  0  0  0
 24 23  1  0  0  0  0
 25  8  1  0  0  0  0
 26 27  1  0  0  0  0
 26 25  1  0  0  0  0
 29 27  1  1  0  0  0
 29 30  1  0  0  0  0
 30 28  1  6  0  0  0
 32 34  1  0  0  0  0
 33 32  1  0  0  0  0
 33 29  1  0  0  0  0
 34 30  1  0  0  0  0
 34 31  1  1  0  0  0
M  END
>  <MODEL>
7

>  <REMARK>
 VINA RESULT:      -7.7      4.797      9.114
  Name = 
  6 active torsions:
  status: ('A' for Active; 'I' for Inactive)
    1  A    between atoms: C_1  and  O_19
    2  A    between atoms: C_3  and  C_13
    3  A    between atoms: C_3  and  C_17
    4  A    between atoms: C_12  and  N_28
    5  A    between atoms: C_17  and  O_29
    6  A    between atoms: C_18  and  O_29
                            x       y       z     vdW  Elec       q    Type
                         _______ _______ _______ _____ _____    ______ ____

>  <TORSDO>
F 6

$$$$
=
 OpenBabel10252414553D

 34 38  0  0  1  0  0  0  0  0999 V2000
  180.8000  180.3400  135.8530 C   0  0  0  0  0  0  0  0  0  0  0  0
  180.1010  181.7410  137.8520 C   0  0  1  0  0  3  0  0  0  0  0  0
  180.7390  179.3100  138.0570 C   0  0  0  0  0  0  0  0  0  0  0  0
  180.9370  178.4860  141.8300 C   0  0  0  0  0  1  0  0  0  0  0  0
  181.2370  182.7550  137.9200 C   0  0  0  0  0  1  0  0  0  0  0  0
  180.3250  180.8590  139.9750 C   0  0  0  0  0  2  0  0  0  0  0  0
  180.5440  180.4320  137.2310 C   0  0  0  0  0  0  0  0  0  0  0  0
  181.3540  178.4940  140.3600 C   0  0  1  0  0  0  0  0  0  0  0  0
  181.1850  178.0880  137.5190 C   0  0  0  0  0  0  0  0  0  0  0  0
  181.2560  179.1250  135.3200 C   0  0  0  0  0  3  0  0  0  0  0  0
  179.4690  181.5760  139.1110 O   0  0  0  0  0  0  0  0  0  0  0  0
  181.1370  177.0740  139.8380 C   0  0  0  0  0  2  0  0  0  0  0  0
  181.4350  176.9630  138.4010 N   0  0  0  0  0  0  0  0  0  0  0  0
  180.4190  179.3980  139.5210 C   0  0  2  0  0  3  0  0  0  0  0  0
  181.4520  178.0170  136.1430 C   0  0  0  0  0  3  0  0  0  0  0  0
  183.7290  174.1290  137.5010 C   0  0  0  0  0  0  0  0  0  0  0  0
  182.8250  173.2160  136.9550 C   0  0  0  0  0  3  0  0  0  0  0  0
  181.9130  175.6900  137.9240 C   0  0  0  0  0  0  0  0  0  0  0  0
  181.4670  173.5370  136.8830 C   0  0  0  0  0  3  0  0  0  0  0  0
  183.2770  175.3610  137.9800 C   0  0  0  0  0  3  0  0  0  0  0  0
  181.0140  174.7690  137.3630 C   0  0  0  0  0  3  0  0  0  0  0  0
  185.4310  173.7280  137.5930 Cl  0  0  0  0  0  0  0  0  0  0  0  0
  179.3190  181.9210  134.6510 C   0  0  0  0  0  1  0  0  0  0  0  0
  180.6080  181.4610  135.0370 O   0  0  0  0  0  0  0  0  0  0  0  0
  182.7330  178.7920  140.1960 O   0  0  0  0  0  0  0  0  0  0  0  0
  183.5310  177.9240  140.9580 C   0  0  0  0  0  2  0  0  0  0  0  0
  184.5450  178.7340  141.7410 C   0  0  0  0  0  2  0  0  0  0  0  0
  184.5510  180.1060  144.2950 C   0  0  0  0  0  1  0  0  0  0  0  0
  184.9660  177.9730  142.9940 C   0  0  2  0  0  3  0  0  0  0  0  0
  184.4730  178.5740  144.3070 C   0  0  1  0  0  3  0  0  0  0  0  0
  185.5460  178.7190  146.6300 C   0  0  0  0  0  1  0  0  0  0  0  0
  186.7840  177.8760  144.6050 C   0  0  0  0  0  2  0  0  0  0  0  0
  186.4770  177.8800  143.1140 C   0  0  0  0  0  2  0  0  0  0  0  0
  185.4450  177.9680  145.3120 C   0  0  2  0  0  3  0  0  0  0  0  0
  1  7  1  0  0  0  0
  2  5  1  1  0  0  0
  2 11  1  0  0  0  0
  3 14  1  0  0  0  0
  7  2  1  0  0  0  0
  7  3  2  0  0  0  0
  8  4  1  1  0  0  0
  9  3  1  0  0  0  0
  9 13  1  0  0  0  0
 10  1  2  0  0  0  0
 10 15  1  0  0  0  0
 11  6  1  0  0  0  0
 12  8  1  0  0  0  0
 13 12  1  0  0  0  0
 14  6  1  1  0  0  0
 14  8  1  0  0  0  0
 15  9  2  0  0  0  0
 16 22  1  0  0  0  0
 16 20  1  0  0  0  0
 17 16  2  0  0  0  0
 18 20  2  0  0  0  0
 18 13  1  0  0  0  0
 19 17  1  0  0  0  0
 19 21  2  0  0  0  0
 21 18  1  0  0  0  0
 23 24  1  0  0  0  0
 24  1  1  0  0  0  0
 25  8  1  0  0  0  0
 25 26  1  0  0  0  0
 26 27  1  0  0  0  0
 29 27  1  6  0  0  0
 29 33  1  0  0  0  0
 29 30  1  0  0  0  0
 30 28  1  6  0  0  0
 30 34  1  0  0  0  0
 32 34  1  0  0  0  0
 33 32  1  0  0  0  0
 34 31  1  1  0  0  0
M  END
>  <MODEL>
8

>  <REMARK>
 VINA RESULT:      -7.7      5.290      8.370
  Name = 
  6 active torsions:
  status: ('A' for Active; 'I' for Inactive)
    1  A    between atoms: C_1  and  O_19
    2  A    between atoms: C_3  and  C_13
    3  A    between atoms: C_3  and  C_17
    4  A    between atoms: C_12  and  N_28
    5  A    between atoms: C_17  and  O_29
    6  A    between atoms: C_18  and  O_29
                            x       y       z     vdW  Elec       q    Type
                         _______ _______ _______ _____ _____    ______ ____

>  <TORSDO>
F 6

$$$$
=
 OpenBabel10252414553D

 34 38  0  0  1  0  0  0  0  0999 V2000
  188.1500  177.9540  142.3670 C   0  0  0  0  0  0  0  0  0  0  0  0
  185.9800  178.8830  141.4340 C   0  0  1  0  0  3  0  0  0  0  0  0
  187.8050  177.9610  139.9590 C   0  0  0  0  0  0  0  0  0  0  0  0
  186.4000  177.7900  136.3610 C   0  0  0  0  0  1  0  0  0  0  0  0
  184.9660  177.8810  141.9770 C   0  0  0  0  0  1  0  0  0  0  0  0
  185.5220  178.6240  139.1850 C   0  0  0  0  0  2  0  0  0  0  0  0
  187.3500  178.2650  141.2550 C   0  0  0  0  0  0  0  0  0  0  0  0
  187.1480  177.3280  137.6110 C   0  0  1  0  0  0  0  0  0  0  0  0
  189.0590  177.3530  139.7580 C   0  0  0  0  0  0  0  0  0  0  0  0
  189.3940  177.3370  142.1680 C   0  0  0  0  0  3  0  0  0  0  0  0
  185.5030  179.5320  140.2660 O   0  0  0  0  0  0  0  0  0  0  0  0
  188.6360  177.3550  137.2620 C   0  0  0  0  0  2  0  0  0  0  0  0
  189.4790  176.9980  138.4150 N   0  0  0  0  0  0  0  0  0  0  0  0
  186.9690  178.3380  138.7700 C   0  0  2  0  0  3  0  0  0  0  0  0
  189.8390  177.0350  140.8800 C   0  0  0  0  0  3  0  0  0  0  0  0
  192.0150  174.5110  137.1960 C   0  0  0  0  0  0  0  0  0  0  0  0
  193.2010  175.1000  137.6380 C   0  0  0  0  0  3  0  0  0  0  0  0
  190.7370  176.3540  138.1370 C   0  0  0  0  0  0  0  0  0  0  0  0
  193.1610  176.3100  138.3370 C   0  0  0  0  0  3  0  0  0  0  0  0
  190.7890  175.1320  137.4470 C   0  0  0  0  0  3  0  0  0  0  0  0
  191.9350  176.9320  138.5860 C   0  0  0  0  0  3  0  0  0  0  0  0
  192.0630  172.9960  136.3200 Cl  0  0  0  0  0  0  0  0  0  0  0  0
  187.5570  177.2690  144.6730 C   0  0  0  0  0  1  0  0  0  0  0  0
  187.6910  178.2530  143.6560 O   0  0  0  0  0  0  0  0  0  0  0  0
  186.8260  175.9910  137.9650 O   0  0  0  0  0  0  0  0  0  0  0  0
  186.3640  175.2710  136.8510 C   0  0  0  0  0  2  0  0  0  0  0  0
  186.4250  173.7880  137.1530 C   0  0  0  0  0  2  0  0  0  0  0  0
  185.0710  171.9420  135.3730 C   0  0  0  0  0  1  0  0  0  0  0  0
  185.0400  173.2730  137.5280 C   0  0  2  0  0  3  0  0  0  0  0  0
  184.6290  171.9730  136.8430 C   0  0  1  0  0  3  0  0  0  0  0  0
  182.3640  171.1320  135.9880 C   0  0  0  0  0  1  0  0  0  0  0  0
  182.7160  173.4770  136.8410 C   0  0  0  0  0  2  0  0  0  0  0  0
  183.9560  174.2850  137.1960 C   0  0  0  0  0  2  0  0  0  0  0  0
  183.1120  172.0180  136.9730 C   0  0  2  0  0  3  0  0  0  0  0  0
  1 24  1  0  0  0  0
  2  5  1  6  0  0  0
  3  7  1  0  0  0  0
  6 11  1  0  0  0  0
  7  2  1  0  0  0  0
  7  1  2  0  0  0  0
  8  4  1  6  0  0  0
  8 25  1  0  0  0  0
  8 14  1  0  0  0  0
  9  3  2  0  0  0  0
  9 15  1  0  0  0  0
 10  1  1  0  0  0  0
 11  2  1  0  0  0  0
 12  8  1  0  0  0  0
 12 13  1  0  0  0  0
 13  9  1  0  0  0  0
 14  6  1  1  0  0  0
 14  3  1  0  0  0  0
 15 10  2  0  0  0  0
 16 20  2  0  0  0  0
 16 17  1  0  0  0  0
 17 19  2  0  0  0  0
 18 13  1  0  0  0  0
 18 21  2  0  0  0  0
 19 21  1  0  0  0  0
 20 18  1  0  0  0  0
 22 16  1  0  0  0  0
 24 23  1  0  0  0  0
 26 27  1  0  0  0  0
 26 25  1  0  0  0  0
 29 27  1  6  0  0  0
 30 28  1  6  0  0  0
 30 34  1  0  0  0  0
 30 29  1  0  0  0  0
 32 34  1  0  0  0  0
 32 33  1  0  0  0  0
 33 29  1  0  0  0  0
 34 31  1  6  0  0  0
M  END
>  <MODEL>
9

>  <REMARK>
 VINA RESULT:      -7.7      3.743      8.372
  Name = 
  6 active torsions:
  status: ('A' for Active; 'I' for Inactive)
    1  A    between atoms: C_1  and  O_19
    2  A    between atoms: C_3  and  C_13
    3  A    between atoms: C_3  and  C_17
    4  A    between atoms: C_12  and  N_28
    5  A    between atoms: C_17  and  O_29
    6  A    between atoms: C_18  and  O_29
                            x       y       z     vdW  Elec       q    Type
                         _______ _______ _______ _____ _____    ______ ____

>  <TORSDO>
F 6

$$$$
