=
 OpenBabel10262420053D

 27 31  0  0  0  0  0  0  0  0999 V2000
  187.4590  179.1690  141.2770 C   0  0  0  0  0  2  0  0  0  0  0  0
  187.7440  177.9460  143.4070 C   0  0  0  0  0  0  0  0  0  0  0  0
  189.9520  177.8880  142.1640 N   0  0  0  0  0  2  0  0  0  0  0  0
  189.6710  176.7690  147.2710 C   0  0  0  0  0  3  0  0  0  0  0  0
  192.0760  176.5630  147.0860 O   0  0  0  0  0  1  0  0  0  0  0  0
  187.3200  177.6760  144.6290 O   0  0  0  0  0  0  0  0  0  0  0  0
  190.7840  177.2050  145.1370 C   0  0  0  0  0  0  0  0  0  0  0  0
  190.0640  176.1300  139.1360 C   0  0  0  0  0  3  0  0  0  0  0  0
  191.9330  177.2800  144.3580 O   0  0  0  0  0  1  0  0  0  0  0  0
  188.9890  176.0990  138.3530 C   0  0  0  0  0  3  0  0  0  0  0  0
  189.5270  177.4860  144.6000 C   0  0  0  0  0  0  0  0  0  0  0  0
  186.8940  178.3410  142.3330 N   0  0  0  0  0  0  0  0  0  0  0  0
  190.8500  176.8460  146.4970 C   0  0  0  0  0  0  0  0  0  0  0  0
  188.3800  177.3990  145.3540 C   0  0  0  0  0  0  0  0  0  0  0  0
  188.3320  178.3600  140.3750 C   0  0  0  0  0  0  0  0  0  0  0  0
  189.1240  177.8380  143.3320 C   0  0  0  0  0  0  0  0  0  0  0  0
  190.5290  177.3810  139.7990 C   0  0  0  0  0  2  0  0  0  0  0  0
  188.4150  177.0460  146.7010 C   0  0  0  0  0  3  0  0  0  0  0  0
  188.1000  177.2510  138.1160 C   0  0  0  0  0  3  0  0  0  0  0  0
  187.8300  178.2310  138.9870 C   0  0  0  0  0  3  0  0  0  0  0  0
  189.5280  177.8800  140.7890 C   0  0  0  0  0  0  0  0  0  0  0  0
  182.6630  178.3510  142.6840 C   0  0  0  0  0  2  0  0  0  0  0  0
  185.4510  178.1530  142.4420 C   0  0  0  0  0  3  0  0  0  0  0  0
  184.7340  178.6790  141.1970 C   0  0  0  0  0  2  0  0  0  0  0  0
  183.2280  178.3930  141.2580 C   0  0  0  0  0  2  0  0  0  0  0  0
  183.4570  179.2540  143.6230 C   0  0  0  0  0  2  0  0  0  0  0  0
  184.9150  178.7910  143.7340 C   0  0  0  0  0  2  0  0  0  0  0  0
  1 12  1  0  0  0  0
  2  6  1  0  0  0  0
  3 16  1  0  0  0  0
  6 14  1  0  0  0  0
  7 13  1  0  0  0  0
  8 17  1  0  0  0  0
  9  7  1  0  0  0  0
 10  8  2  0  0  0  0
 11  7  2  0  0  0  0
 11 14  1  0  0  0  0
 12 23  1  0  0  0  0
 12  2  1  0  0  0  0
 13  5  1  0  0  0  0
 13  4  2  0  0  0  0
 14 18  2  0  0  0  0
 15 21  2  0  0  0  0
 15  1  1  0  0  0  0
 16  2  2  0  0  0  0
 16 11  1  0  0  0  0
 17 21  1  0  0  0  0
 18  4  1  0  0  0  0
 19 10  1  0  0  0  0
 19 20  2  0  0  0  0
 20 15  1  0  0  0  0
 21  3  1  0  0  0  0
 22 26  1  0  0  0  0
 23 27  1  0  0  0  0
 24 25  1  0  0  0  0
 24 23  1  0  0  0  0
 25 22  1  0  0  0  0
 26 27  1  0  0  0  0
M  END
>  <MODEL>
1

>  <REMARK>
 VINA RESULT:      -9.2      0.000      0.000
  Name = 
  1 active torsions:
  status: ('A' for Active; 'I' for Inactive)
    1  A    between atoms: C_9  and  N_15
                            x       y       z     vdW  Elec       q    Type
                         _______ _______ _______ _____ _____    ______ ____

>  <TORSDO>
F 1

$$$$
=
 OpenBabel10262420053D

 27 31  0  0  0  0  0  0  0  0999 V2000
  186.9450  179.2640  141.6620 C   0  0  0  0  0  2  0  0  0  0  0  0
  188.5070  177.6840  140.5770 C   0  0  0  0  0  0  0  0  0  0  0  0
  186.8210  178.4430  138.8420 N   0  0  0  0  0  2  0  0  0  0  0  0
  191.3090  176.1360  137.4500 C   0  0  0  0  0  3  0  0  0  0  0  0
  190.5180  176.5560  135.2010 O   0  0  0  0  0  1  0  0  0  0  0  0
  189.6640  177.0450  140.5790 O   0  0  0  0  0  0  0  0  0  0  0  0
  189.1930  177.3070  137.0880 C   0  0  0  0  0  0  0  0  0  0  0  0
  183.4770  177.5130  139.3160 C   0  0  0  0  0  3  0  0  0  0  0  0
  188.2230  177.8310  136.2410 O   0  0  0  0  0  1  0  0  0  0  0  0
  182.9910  177.4100  140.5500 C   0  0  0  0  0  3  0  0  0  0  0  0
  189.0670  177.3980  138.4750 C   0  0  0  0  0  0  0  0  0  0  0  0
  187.8210  178.1030  141.7530 N   0  0  0  0  0  0  0  0  0  0  0  0
  190.3380  176.6680  136.5740 C   0  0  0  0  0  0  0  0  0  0  0  0
  190.0100  176.8680  139.3250 C   0  0  0  0  0  0  0  0  0  0  0  0
  185.6720  178.9170  140.9650 C   0  0  0  0  0  0  0  0  0  0  0  0
  188.0850  177.9270  139.2790 C   0  0  0  0  0  0  0  0  0  0  0  0
  184.3440  178.6500  138.8950 C   0  0  0  0  0  2  0  0  0  0  0  0
  191.1520  176.2300  138.8450 C   0  0  0  0  0  3  0  0  0  0  0  0
  183.3080  178.3400  141.6490 C   0  0  0  0  0  3  0  0  0  0  0  0
  184.4620  178.9980  141.8160 C   0  0  0  0  0  3  0  0  0  0  0  0
  185.6390  178.6530  139.6370 C   0  0  0  0  0  0  0  0  0  0  0  0
  188.9770  177.0470  145.6990 C   0  0  0  0  0  2  0  0  0  0  0  0
  188.2040  177.5580  143.0510 C   0  0  0  0  0  3  0  0  0  0  0  0
  187.1210  177.8220  144.0990 C   0  0  0  0  0  2  0  0  0  0  0  0
  187.4690  177.1640  145.4400 C   0  0  0  0  0  2  0  0  0  0  0  0
  189.7480  178.1680  145.0070 C   0  0  0  0  0  2  0  0  0  0  0  0
  189.5760  178.0990  143.4850 C   0  0  0  0  0  2  0  0  0  0  0  0
  1 12  1  0  0  0  0
  2  6  1  0  0  0  0
  2 12  1  0  0  0  0
  3 16  1  0  0  0  0
  3 21  1  0  0  0  0
  4 18  1  0  0  0  0
  5 13  1  0  0  0  0
  7 11  2  0  0  0  0
  8 10  2  0  0  0  0
  9  7  1  0  0  0  0
 10 19  1  0  0  0  0
 11 16  1  0  0  0  0
 11 14  1  0  0  0  0
 12 23  1  0  0  0  0
 13  7  1  0  0  0  0
 13  4  2  0  0  0  0
 14  6  1  0  0  0  0
 15  1  1  0  0  0  0
 15 20  1  0  0  0  0
 16  2  2  0  0  0  0
 17  8  1  0  0  0  0
 17 21  1  0  0  0  0
 18 14  2  0  0  0  0
 19 20  2  0  0  0  0
 21 15  2  0  0  0  0
 23 27  1  0  0  0  0
 23 24  1  0  0  0  0
 24 25  1  0  0  0  0
 25 22  1  0  0  0  0
 26 22  1  0  0  0  0
 27 26  1  0  0  0  0
M  END
>  <MODEL>
2

>  <REMARK>
 VINA RESULT:      -9.1      2.900      6.363
  Name = 
  1 active torsions:
  status: ('A' for Active; 'I' for Inactive)
    1  A    between atoms: C_9  and  N_15
                            x       y       z     vdW  Elec       q    Type
                         _______ _______ _______ _____ _____    ______ ____

>  <TORSDO>
F 1

$$$$
=
 OpenBabel10262420053D

 27 31  0  0  0  0  0  0  0  0999 V2000
  187.7950  176.7010  143.2180 C   0  0  0  0  0  2  0  0  0  0  0  0
  187.5130  177.8630  141.0540 C   0  0  0  0  0  0  0  0  0  0  0  0
  189.8670  176.9280  141.1450 N   0  0  0  0  0  2  0  0  0  0  0  0
  187.7160  178.4520  136.6220 C   0  0  0  0  0  3  0  0  0  0  0  0
  189.7930  177.6520  135.6710 O   0  0  0  0  0  1  0  0  0  0  0  0
  186.7150  178.3740  140.1320 O   0  0  0  0  0  0  0  0  0  0  0  0
  189.4180  177.4410  138.0580 C   0  0  0  0  0  0  0  0  0  0  0  0
  192.0480  178.2530  143.5450 C   0  0  0  0  0  3  0  0  0  0  0  0
  190.6630  176.8480  138.2350 O   0  0  0  0  0  1  0  0  0  0  0  0
  191.5680  178.6560  144.7180 C   0  0  0  0  0  3  0  0  0  0  0  0
  188.5580  177.6520  139.1360 C   0  0  0  0  0  0  0  0  0  0  0  0
  187.1800  177.7650  142.4360 N   0  0  0  0  0  0  0  0  0  0  0  0
  188.9810  177.8450  136.7820 C   0  0  0  0  0  0  0  0  0  0  0  0
  187.3310  178.2530  138.9780 C   0  0  0  0  0  0  0  0  0  0  0  0
  189.2230  177.0160  143.5170 C   0  0  0  0  0  0  0  0  0  0  0  0
  188.6870  177.3980  140.4820 C   0  0  0  0  0  0  0  0  0  0  0  0
  191.6200  176.9760  142.9070 C   0  0  0  0  0  2  0  0  0  0  0  0
  186.8730  178.6640  137.7280 C   0  0  0  0  0  3  0  0  0  0  0  0
  190.5210  177.9480  145.4760 C   0  0  0  0  0  3  0  0  0  0  0  0
  189.5180  177.2310  144.9520 C   0  0  0  0  0  3  0  0  0  0  0  0
  190.1710  177.0020  142.5500 C   0  0  0  0  0  0  0  0  0  0  0  0
  183.6530  179.4930  144.0460 C   0  0  0  0  0  2  0  0  0  0  0  0
  186.0570  178.5270  142.9690 C   0  0  0  0  0  3  0  0  0  0  0  0
  185.8650  178.2530  144.4610 C   0  0  0  0  0  2  0  0  0  0  0  0
  184.7520  179.1270  145.0520 C   0  0  0  0  0  2  0  0  0  0  0  0
  183.4930  178.4130  142.9800 C   0  0  0  0  0  2  0  0  0  0  0  0
  184.7790  178.2530  142.1590 C   0  0  0  0  0  2  0  0  0  0  0  0
  1 15  1  0  0  0  0
  2 12  1  0  0  0  0
  3 21  1  0  0  0  0
  4 13  2  0  0  0  0
  4 18  1  0  0  0  0
  5 13  1  0  0  0  0
  6  2  1  0  0  0  0
  7  9  1  0  0  0  0
  7 11  2  0  0  0  0
  8 10  2  0  0  0  0
 10 19  1  0  0  0  0
 11 16  1  0  0  0  0
 12 23  1  0  0  0  0
 12  1  1  0  0  0  0
 13  7  1  0  0  0  0
 14 11  1  0  0  0  0
 14  6  1  0  0  0  0
 15 20  1  0  0  0  0
 16  2  2  0  0  0  0
 16  3  1  0  0  0  0
 17  8  1  0  0  0  0
 18 14  2  0  0  0  0
 20 19  2  0  0  0  0
 21 17  1  0  0  0  0
 21 15  2  0  0  0  0
 22 25  1  0  0  0  0
 23 24  1  0  0  0  0
 24 25  1  0  0  0  0
 26 22  1  0  0  0  0
 27 23  1  0  0  0  0
 27 26  1  0  0  0  0
M  END
>  <MODEL>
3

>  <REMARK>
 VINA RESULT:      -9.0      2.604      5.776
  Name = 
  1 active torsions:
  status: ('A' for Active; 'I' for Inactive)
    1  A    between atoms: C_9  and  N_15
                            x       y       z     vdW  Elec       q    Type
                         _______ _______ _______ _____ _____    ______ ____

>  <TORSDO>
F 1

$$$$
=
 OpenBabel10262420053D

 27 31  0  0  0  0  0  0  0  0999 V2000
  186.0550  179.3690  142.0930 C   0  0  0  0  0  2  0  0  0  0  0  0
  187.8830  177.9090  141.2920 C   0  0  0  0  0  0  0  0  0  0  0  0
  186.5110  178.6280  139.2850 N   0  0  0  0  0  2  0  0  0  0  0  0
  191.3080  176.6100  138.7210 C   0  0  0  0  0  3  0  0  0  0  0  0
  190.9290  177.0540  136.3720 O   0  0  0  0  0  1  0  0  0  0  0  0
  189.0540  177.3340  141.5010 O   0  0  0  0  0  0  0  0  0  0  0  0
  189.2320  177.6750  137.9890 C   0  0  0  0  0  0  0  0  0  0  0  0
  183.1970  177.5050  139.1010 C   0  0  0  0  0  3  0  0  0  0  0  0
  188.4090  178.1720  136.9850 O   0  0  0  0  0  1  0  0  0  0  0  0
  182.4950  177.3390  140.2190 C   0  0  0  0  0  3  0  0  0  0  0  0
  188.8430  177.7170  139.3290 C   0  0  0  0  0  0  0  0  0  0  0  0
  186.9650  178.2560  142.3260 N   0  0  0  0  0  0  0  0  0  0  0  0
  190.4880  177.1150  137.6890 C   0  0  0  0  0  0  0  0  0  0  0  0
  189.6390  177.2140  140.3310 C   0  0  0  0  0  0  0  0  0  0  0  0
  184.9580  178.9760  141.1610 C   0  0  0  0  0  0  0  0  0  0  0  0
  187.6980  178.1690  139.9430 C   0  0  0  0  0  0  0  0  0  0  0  0
  184.0590  178.6990  138.8730 C   0  0  0  0  0  2  0  0  0  0  0  0
  190.8870  176.6540  140.0630 C   0  0  0  0  0  3  0  0  0  0  0  0
  182.5460  178.2510  141.3750 C   0  0  0  0  0  3  0  0  0  0  0  0
  183.6070  178.9650  141.7700 C   0  0  0  0  0  3  0  0  0  0  0  0
  185.1900  178.7500  139.8470 C   0  0  0  0  0  0  0  0  0  0  0  0
  187.6140  177.1270  146.3660 C   0  0  0  0  0  2  0  0  0  0  0  0
  187.1290  177.6930  143.6610 C   0  0  0  0  0  3  0  0  0  0  0  0
  186.1050  178.2810  144.6340 C   0  0  0  0  0  2  0  0  0  0  0  0
  186.2040  177.6200  146.0160 C   0  0  0  0  0  2  0  0  0  0  0  0
  188.6850  177.9730  145.6830 C   0  0  0  0  0  2  0  0  0  0  0  0
  188.5730  177.8780  144.1560 C   0  0  0  0  0  2  0  0  0  0  0  0
  1 12  1  0  0  0  0
  2  6  1  0  0  0  0
  2 12  1  0  0  0  0
  3 21  1  0  0  0  0
  3 16  1  0  0  0  0
  4 18  1  0  0  0  0
  5 13  1  0  0  0  0
  7 11  2  0  0  0  0
  8 10  2  0  0  0  0
  9  7  1  0  0  0  0
 10 19  1  0  0  0  0
 11 16  1  0  0  0  0
 11 14  1  0  0  0  0
 12 23  1  0  0  0  0
 13  7  1  0  0  0  0
 13  4  2  0  0  0  0
 14  6  1  0  0  0  0
 15 20  1  0  0  0  0
 15  1  1  0  0  0  0
 16  2  2  0  0  0  0
 17  8  1  0  0  0  0
 17 21  1  0  0  0  0
 18 14  2  0  0  0  0
 19 20  2  0  0  0  0
 21 15  2  0  0  0  0
 23 27  1  0  0  0  0
 23 24  1  0  0  0  0
 24 25  1  0  0  0  0
 25 22  1  0  0  0  0
 26 22  1  0  0  0  0
 27 26  1  0  0  0  0
M  END
>  <MODEL>
4

>  <REMARK>
 VINA RESULT:      -8.8      2.641      5.872
  Name = 
  1 active torsions:
  status: ('A' for Active; 'I' for Inactive)
    1  A    between atoms: C_9  and  N_15
                            x       y       z     vdW  Elec       q    Type
                         _______ _______ _______ _____ _____    ______ ____

>  <TORSDO>
F 1

$$$$
=
 OpenBabel10262420053D

 27 31  0  0  0  0  0  0  0  0999 V2000
  185.2120  179.4270  141.1100 C   0  0  0  0  0  2  0  0  0  0  0  0
  187.2790  178.2270  141.7430 C   0  0  0  0  0  0  0  0  0  0  0  0
  187.1550  178.3030  139.2120 N   0  0  0  0  0  2  0  0  0  0  0  0
  191.6280  177.1760  141.6860 C   0  0  0  0  0  3  0  0  0  0  0  0
  192.5430  177.1180  139.4460 O   0  0  0  0  0  1  0  0  0  0  0  0
  188.1900  177.9330  142.6530 O   0  0  0  0  0  0  0  0  0  0  0  0
  190.2040  177.6760  139.7620 C   0  0  0  0  0  0  0  0  0  0  0  0
  184.5470  176.5500  137.6620 C   0  0  0  0  0  3  0  0  0  0  0  0
  190.0180  177.8210  138.3920 O   0  0  0  0  0  1  0  0  0  0  0  0
  183.3680  176.4530  138.2700 C   0  0  0  0  0  3  0  0  0  0  0  0
  189.1540  177.8790  140.6590 C   0  0  0  0  0  0  0  0  0  0  0  0
  185.9270  178.5670  142.0420 N   0  0  0  0  0  0  0  0  0  0  0  0
  191.4600  177.3240  140.2920 C   0  0  0  0  0  0  0  0  0  0  0  0
  189.3190  177.7230  142.0160 C   0  0  0  0  0  0  0  0  0  0  0  0
  184.8180  178.6720  139.8840 C   0  0  0  0  0  0  0  0  0  0  0  0
  187.8310  178.2040  140.4710 C   0  0  0  0  0  0  0  0  0  0  0  0
  185.3120  177.8290  137.6110 C   0  0  0  0  0  2  0  0  0  0  0  0
  190.5500  177.3740  142.5680 C   0  0  0  0  0  3  0  0  0  0  0  0
  182.7260  177.5470  139.0200 C   0  0  0  0  0  3  0  0  0  0  0  0
  183.3560  178.5100  139.7030 C   0  0  0  0  0  3  0  0  0  0  0  0
  185.7350  178.2660  138.9750 C   0  0  0  0  0  0  0  0  0  0  0  0
  184.6080  178.2330  146.0630 C   0  0  0  0  0  2  0  0  0  0  0  0
  185.3860  178.2920  143.3680 C   0  0  0  0  0  3  0  0  0  0  0  0
  184.3230  179.3220  143.7530 C   0  0  0  0  0  2  0  0  0  0  0  0
  183.6760  178.9810  145.1010 C   0  0  0  0  0  2  0  0  0  0  0  0
  186.0690  178.6030  145.8220 C   0  0  0  0  0  2  0  0  0  0  0  0
  186.5140  178.2040  144.4090 C   0  0  0  0  0  2  0  0  0  0  0  0
  1 12  1  0  0  0  0
  2 12  1  0  0  0  0
  2  6  1  0  0  0  0
  3 16  1  0  0  0  0
  4 18  1  0  0  0  0
  5 13  1  0  0  0  0
  7 13  1  0  0  0  0
  7 11  2  0  0  0  0
  8 10  2  0  0  0  0
  9  7  1  0  0  0  0
 10 19  1  0  0  0  0
 11 14  1  0  0  0  0
 12 23  1  0  0  0  0
 13  4  2  0  0  0  0
 14 18  2  0  0  0  0
 14  6  1  0  0  0  0
 15  1  1  0  0  0  0
 16 11  1  0  0  0  0
 16  2  2  0  0  0  0
 17  8  1  0  0  0  0
 17 21  1  0  0  0  0
 19 20  2  0  0  0  0
 20 15  1  0  0  0  0
 21  3  1  0  0  0  0
 21 15  2  0  0  0  0
 23 24  1  0  0  0  0
 23 27  1  0  0  0  0
 24 25  1  0  0  0  0
 25 22  1  0  0  0  0
 26 22  1  0  0  0  0
 27 26  1  0  0  0  0
M  END
>  <MODEL>
5

>  <REMARK>
 VINA RESULT:      -8.6      2.511      4.406
  Name = 
  1 active torsions:
  status: ('A' for Active; 'I' for Inactive)
    1  A    between atoms: C_9  and  N_15
                            x       y       z     vdW  Elec       q    Type
                         _______ _______ _______ _____ _____    ______ ____

>  <TORSDO>
F 1

$$$$
=
 OpenBabel10262420053D

 27 31  0  0  0  0  0  0  0  0999 V2000
  190.1210  178.6490  143.6810 C   0  0  0  0  0  2  0  0  0  0  0  0
  187.8240  178.0500  142.9900 C   0  0  0  0  0  0  0  0  0  0  0  0
  187.8170  178.4440  145.4940 N   0  0  0  0  0  2  0  0  0  0  0  0
  183.3680  178.3780  142.7350 C   0  0  0  0  0  3  0  0  0  0  0  0
  182.3510  178.9170  144.8650 O   0  0  0  0  0  1  0  0  0  0  0  0
  186.9220  177.9190  142.0340 O   0  0  0  0  0  0  0  0  0  0  0  0
  184.7620  178.6940  144.7200 C   0  0  0  0  0  0  0  0  0  0  0  0
  189.6520  176.2260  147.4900 C   0  0  0  0  0  3  0  0  0  0  0  0
  184.9030  178.9680  146.0750 O   0  0  0  0  0  1  0  0  0  0  0  0
  190.7760  175.6920  147.0190 C   0  0  0  0  0  3  0  0  0  0  0  0
  185.8740  178.4410  143.9140 C   0  0  0  0  0  0  0  0  0  0  0  0
  189.2290  177.9220  142.7890 N   0  0  0  0  0  0  0  0  0  0  0  0
  183.4920  178.6650  144.1120 C   0  0  0  0  0  0  0  0  0  0  0  0
  185.7480  178.1510  142.5760 C   0  0  0  0  0  0  0  0  0  0  0  0
  190.1870  177.9920  145.0200 C   0  0  0  0  0  0  0  0  0  0  0  0
  187.2180  178.3750  144.1940 C   0  0  0  0  0  0  0  0  0  0  0  0
  189.3230  177.6690  147.3150 C   0  0  0  0  0  2  0  0  0  0  0  0
  184.5050  178.1150  141.9480 C   0  0  0  0  0  3  0  0  0  0  0  0
  191.7700  176.4240  146.2140 C   0  0  0  0  0  3  0  0  0  0  0  0
  191.5120  177.4250  145.3630 C   0  0  0  0  0  3  0  0  0  0  0  0
  189.1370  178.0150  145.8740 C   0  0  0  0  0  0  0  0  0  0  0  0
  190.7890  176.6640  139.0460 C   0  0  0  0  0  2  0  0  0  0  0  0
  189.7350  177.3110  141.5650 C   0  0  0  0  0  3  0  0  0  0  0  0
  191.2420  177.5280  141.4240 C   0  0  0  0  0  2  0  0  0  0  0  0
  191.8000  176.8020  140.1930 C   0  0  0  0  0  2  0  0  0  0  0  0
  189.7850  177.8130  139.0490 C   0  0  0  0  0  2  0  0  0  0  0  0
  188.9570  177.8210  140.3400 C   0  0  0  0  0  2  0  0  0  0  0  0
  1 15  1  0  0  0  0
  2 16  2  0  0  0  0
  3 21  1  0  0  0  0
  4 13  1  0  0  0  0
  6 14  1  0  0  0  0
  6  2  1  0  0  0  0
  7  9  1  0  0  0  0
 10  8  2  0  0  0  0
 11 16  1  0  0  0  0
 11  7  1  0  0  0  0
 12  2  1  0  0  0  0
 12  1  1  0  0  0  0
 13  7  2  0  0  0  0
 13  5  1  0  0  0  0
 14 11  2  0  0  0  0
 15 20  1  0  0  0  0
 15 21  2  0  0  0  0
 16  3  1  0  0  0  0
 17  8  1  0  0  0  0
 18 14  1  0  0  0  0
 18  4  2  0  0  0  0
 19 10  1  0  0  0  0
 20 19  2  0  0  0  0
 21 17  1  0  0  0  0
 22 26  1  0  0  0  0
 22 25  1  0  0  0  0
 23 12  1  0  0  0  0
 24 23  1  0  0  0  0
 25 24  1  0  0  0  0
 26 27  1  0  0  0  0
 27 23  1  0  0  0  0
M  END
>  <MODEL>
6

>  <REMARK>
 VINA RESULT:      -8.6      2.198      6.519
  Name = 
  1 active torsions:
  status: ('A' for Active; 'I' for Inactive)
    1  A    between atoms: C_9  and  N_15
                            x       y       z     vdW  Elec       q    Type
                         _______ _______ _______ _____ _____    ______ ____

>  <TORSDO>
F 1

$$$$
=
 OpenBabel10262420053D

 27 31  0  0  0  0  0  0  0  0999 V2000
  186.7070  176.6990  145.1560 C   0  0  0  0  0  2  0  0  0  0  0  0
  187.6500  177.7120  143.1060 C   0  0  0  0  0  0  0  0  0  0  0  0
  189.5650  176.7670  144.4720 N   0  0  0  0  0  2  0  0  0  0  0  0
  190.1690  177.9910  139.4180 C   0  0  0  0  0  3  0  0  0  0  0  0
  192.4010  177.1120  139.7470 O   0  0  0  0  0  1  0  0  0  0  0  0
  187.4760  178.1630  141.8770 O   0  0  0  0  0  0  0  0  0  0  0  0
  190.8220  177.0690  141.5870 C   0  0  0  0  0  0  0  0  0  0  0  0
  190.2200  178.2390  147.5830 C   0  0  0  0  0  3  0  0  0  0  0  0
  191.7630  176.4800  142.4250 O   0  0  0  0  0  1  0  0  0  0  0  0
  189.2140  178.7260  148.3050 C   0  0  0  0  0  3  0  0  0  0  0  0
  189.5340  177.3610  142.0390 C   0  0  0  0  0  0  0  0  0  0  0  0
  186.6390  177.7120  144.1110 N   0  0  0  0  0  0  0  0  0  0  0  0
  191.1360  177.3870  140.2520 C   0  0  0  0  0  0  0  0  0  0  0  0
  188.5990  177.9580  141.2270 C   0  0  0  0  0  0  0  0  0  0  0  0
  187.7790  177.0240  146.1430 C   0  0  0  0  0  0  0  0  0  0  0  0
  188.9290  177.1990  143.2630 C   0  0  0  0  0  0  0  0  0  0  0  0
  190.1350  176.9230  146.8870 C   0  0  0  0  0  2  0  0  0  0  0  0
  188.8820  178.2850  139.9030 C   0  0  0  0  0  3  0  0  0  0  0  0
  187.8960  178.0790  148.4370 C   0  0  0  0  0  3  0  0  0  0  0  0
  187.2870  177.3350  147.5050 C   0  0  0  0  0  3  0  0  0  0  0  0
  189.0910  176.9360  145.8210 C   0  0  0  0  0  0  0  0  0  0  0  0
  182.8720  179.5750  143.5120 C   0  0  0  0  0  2  0  0  0  0  0  0
  185.4370  178.5180  143.9310 C   0  0  0  0  0  3  0  0  0  0  0  0
  184.4620  178.3170  145.0920 C   0  0  0  0  0  2  0  0  0  0  0  0
  183.2410  179.2370  144.9630 C   0  0  0  0  0  2  0  0  0  0  0  0
  183.2680  178.4490  142.5620 C   0  0  0  0  0  2  0  0  0  0  0  0
  184.7860  178.2280  142.5690 C   0  0  0  0  0  2  0  0  0  0  0  0
  1 15  1  0  0  0  0
  2 16  2  0  0  0  0
  2 12  1  0  0  0  0
  3 21  1  0  0  0  0
  4 18  2  0  0  0  0
  4 13  1  0  0  0  0
  5 13  1  0  0  0  0
  6  2  1  0  0  0  0
  7 11  1  0  0  0  0
  7  9  1  0  0  0  0
  8 10  2  0  0  0  0
 10 19  1  0  0  0  0
 11 16  1  0  0  0  0
 12  1  1  0  0  0  0
 13  7  2  0  0  0  0
 14  6  1  0  0  0  0
 14 11  2  0  0  0  0
 15 20  1  0  0  0  0
 16  3  1  0  0  0  0
 17  8  1  0  0  0  0
 18 14  1  0  0  0  0
 20 19  2  0  0  0  0
 21 15  2  0  0  0  0
 21 17  1  0  0  0  0
 22 25  1  0  0  0  0
 23 12  1  0  0  0  0
 23 24  1  0  0  0  0
 25 24  1  0  0  0  0
 26 27  1  0  0  0  0
 26 22  1  0  0  0  0
 27 23  1  0  0  0  0
M  END
>  <MODEL>
7

>  <REMARK>
 VINA RESULT:      -8.6      1.722      5.441
  Name = 
  1 active torsions:
  status: ('A' for Active; 'I' for Inactive)
    1  A    between atoms: C_9  and  N_15
                            x       y       z     vdW  Elec       q    Type
                         _______ _______ _______ _____ _____    ______ ____

>  <TORSDO>
F 1

$$$$
=
 OpenBabel10262420053D

 27 31  0  0  0  0  0  0  0  0999 V2000
  185.3080  179.6710  141.3250 C   0  0  0  0  0  2  0  0  0  0  0  0
  187.4360  178.4140  141.3730 C   0  0  0  0  0  0  0  0  0  0  0  0
  186.4770  178.2490  139.0330 N   0  0  0  0  0  2  0  0  0  0  0  0
  191.4900  177.0980  140.0080 C   0  0  0  0  0  3  0  0  0  0  0  0
  191.6020  176.7640  137.6130 O   0  0  0  0  0  1  0  0  0  0  0  0
  188.5920  178.1550  141.9600 O   0  0  0  0  0  0  0  0  0  0  0  0
  189.5180  177.4940  138.6160 C   0  0  0  0  0  0  0  0  0  0  0  0
  183.4580  176.5170  138.6350 C   0  0  0  0  0  3  0  0  0  0  0  0
  188.8900  177.5140  137.3760 O   0  0  0  0  0  1  0  0  0  0  0  0
  182.5470  176.5510  139.6040 C   0  0  0  0  0  3  0  0  0  0  0  0
  188.8340  177.8470  139.7800 C   0  0  0  0  0  0  0  0  0  0  0  0
  186.2720  178.8640  142.0610 N   0  0  0  0  0  0  0  0  0  0  0  0
  190.8700  177.1190  138.7400 C   0  0  0  0  0  0  0  0  0  0  0  0
  189.4380  177.8150  141.0150 C   0  0  0  0  0  0  0  0  0  0  0  0
  184.5080  178.8240  140.3900 C   0  0  0  0  0  0  0  0  0  0  0  0
  187.5320  178.2320  140.0020 C   0  0  0  0  0  0  0  0  0  0  0  0
  184.1940  177.7340  138.1920 C   0  0  0  0  0  2  0  0  0  0  0  0
  190.7730  177.4470  141.1670 C   0  0  0  0  0  3  0  0  0  0  0  0
  182.2200  177.7510  140.3950 C   0  0  0  0  0  3  0  0  0  0  0  0
  183.0670  178.7360  140.7200 C   0  0  0  0  0  3  0  0  0  0  0  0
  185.0590  178.2760  139.2820 C   0  0  0  0  0  0  0  0  0  0  0  0
  185.5880  178.2460  146.2050 C   0  0  0  0  0  2  0  0  0  0  0  0
  186.1970  178.7530  143.5130 C   0  0  0  0  0  3  0  0  0  0  0  0
  186.4460  177.3140  143.9680 C   0  0  0  0  0  2  0  0  0  0  0  0
  186.4710  177.2080  145.4980 C   0  0  0  0  0  2  0  0  0  0  0  0
  184.3970  178.6440  145.3380 C   0  0  0  0  0  2  0  0  0  0  0  0
  184.8580  179.3030  144.0330 C   0  0  0  0  0  2  0  0  0  0  0  0
  1 12  1  0  0  0  0
  2  6  1  0  0  0  0
  2 12  1  0  0  0  0
  3 21  1  0  0  0  0
  3 16  1  0  0  0  0
  4 18  1  0  0  0  0
  5 13  1  0  0  0  0
  7 13  1  0  0  0  0
  7 11  2  0  0  0  0
  8 10  2  0  0  0  0
  9  7  1  0  0  0  0
 10 19  1  0  0  0  0
 11 16  1  0  0  0  0
 11 14  1  0  0  0  0
 12 23  1  0  0  0  0
 13  4  2  0  0  0  0
 14 18  2  0  0  0  0
 14  6  1  0  0  0  0
 15 20  1  0  0  0  0
 15  1  1  0  0  0  0
 16  2  2  0  0  0  0
 17  8  1  0  0  0  0
 17 21  1  0  0  0  0
 19 20  2  0  0  0  0
 21 15  2  0  0  0  0
 23 24  1  0  0  0  0
 23 27  1  0  0  0  0
 24 25  1  0  0  0  0
 25 22  1  0  0  0  0
 26 22  1  0  0  0  0
 27 26  1  0  0  0  0
M  END
>  <MODEL>
8

>  <REMARK>
 VINA RESULT:      -8.4      2.613      5.260
  Name = 
  1 active torsions:
  status: ('A' for Active; 'I' for Inactive)
    1  A    between atoms: C_9  and  N_15
                            x       y       z     vdW  Elec       q    Type
                         _______ _______ _______ _____ _____    ______ ____

>  <TORSDO>
F 1

$$$$
=
 OpenBabel10262420053D

 27 31  0  0  0  0  0  0  0  0999 V2000
  188.7850  178.6280  138.7280 C   0  0  0  0  0  2  0  0  0  0  0  0
  188.3650  177.8060  141.0220 C   0  0  0  0  0  0  0  0  0  0  0  0
  190.8210  177.4610  140.4980 N   0  0  0  0  0  2  0  0  0  0  0  0
  189.0370  177.2990  145.4170 C   0  0  0  0  0  3  0  0  0  0  0  0
  191.3740  176.9960  145.9720 O   0  0  0  0  0  1  0  0  0  0  0  0
  187.5970  177.7750  142.0960 O   0  0  0  0  0  0  0  0  0  0  0  0
  190.7320  177.3080  143.6540 C   0  0  0  0  0  0  0  0  0  0  0  0
  191.6340  175.1780  137.9680 C   0  0  0  0  0  3  0  0  0  0  0  0
  192.0550  177.2080  143.2390 O   0  0  0  0  0  1  0  0  0  0  0  0
  190.8220  175.0350  136.9250 C   0  0  0  0  0  3  0  0  0  0  0  0
  189.7010  177.5220  142.7380 C   0  0  0  0  0  0  0  0  0  0  0  0
  187.8820  178.0220  139.6980 N   0  0  0  0  0  0  0  0  0  0  0  0
  190.3870  177.2010  145.0150 C   0  0  0  0  0  0  0  0  0  0  0  0
  188.3870  177.6060  143.1320 C   0  0  0  0  0  0  0  0  0  0  0  0
  189.8070  177.6440  138.2640 C   0  0  0  0  0  0  0  0  0  0  0  0
  189.6980  177.6480  141.3680 C   0  0  0  0  0  0  0  0  0  0  0  0
  191.9930  176.5150  138.5190 C   0  0  0  0  0  2  0  0  0  0  0  0
  188.0160  177.5030  144.4710 C   0  0  0  0  0  3  0  0  0  0  0  0
  190.1290  176.1480  136.2520 C   0  0  0  0  0  3  0  0  0  0  0  0
  189.7050  177.2780  136.8330 C   0  0  0  0  0  3  0  0  0  0  0  0
  190.7980  177.2130  139.0800 C   0  0  0  0  0  0  0  0  0  0  0  0
  183.7610  178.1880  138.6930 C   0  0  0  0  0  2  0  0  0  0  0  0
  186.4570  177.8980  139.4150 C   0  0  0  0  0  3  0  0  0  0  0  0
  186.1930  177.9110  137.9080 C   0  0  0  0  0  2  0  0  0  0  0  0
  184.7090  177.6780  137.5980 C   0  0  0  0  0  2  0  0  0  0  0  0
  184.3610  179.3780  139.4370 C   0  0  0  0  0  2  0  0  0  0  0  0
  185.6590  178.9840  140.1540 C   0  0  0  0  0  2  0  0  0  0  0  0
  1 12  1  0  0  0  0
  2 16  2  0  0  0  0
  2  6  1  0  0  0  0
  3 16  1  0  0  0  0
  6 14  1  0  0  0  0
  7 13  2  0  0  0  0
  8 17  1  0  0  0  0
  9  7  1  0  0  0  0
 10  8  2  0  0  0  0
 11 14  2  0  0  0  0
 11  7  1  0  0  0  0
 12  2  1  0  0  0  0
 13  4  1  0  0  0  0
 13  5  1  0  0  0  0
 14 18  1  0  0  0  0
 15  1  1  0  0  0  0
 15 21  2  0  0  0  0
 16 11  1  0  0  0  0
 17 21  1  0  0  0  0
 18  4  2  0  0  0  0
 19 20  2  0  0  0  0
 19 10  1  0  0  0  0
 20 15  1  0  0  0  0
 21  3  1  0  0  0  0
 22 26  1  0  0  0  0
 23 12  1  0  0  0  0
 23 27  1  0  0  0  0
 24 23  1  0  0  0  0
 25 24  1  0  0  0  0
 25 22  1  0  0  0  0
 26 27  1  0  0  0  0
M  END
>  <MODEL>
9

>  <REMARK>
 VINA RESULT:      -8.3      1.953      2.705
  Name = 
  1 active torsions:
  status: ('A' for Active; 'I' for Inactive)
    1  A    between atoms: C_9  and  N_15
                            x       y       z     vdW  Elec       q    Type
                         _______ _______ _______ _____ _____    ______ ____

>  <TORSDO>
F 1

$$$$
