=
 OpenBabel10262423323D

 34 39  0  0  1  0  0  0  0  0999 V2000
  179.3570  177.9880  139.3030 C   0  0  1  0  0  3  0  0  0  0  0  0
  181.2680  175.7440  136.7840 C   0  0  0  0  0  2  0  0  0  0  0  0
  179.4890  177.5970  136.4610 C   0  0  0  0  0  2  0  0  0  0  0  0
  180.7820  179.1360  140.9570 N   0  0  0  0  0  0  0  0  0  0  0  0
  179.5900  178.3020  140.7860 C   0  0  0  0  0  2  0  0  0  0  0  0
  180.4480  180.2660  138.8030 C   0  0  2  0  0  3  0  0  0  0  0  0
  181.7210  179.8260  138.2510 N   0  0  0  0  0  1  0  0  0  0  0  0
  180.5690  180.4360  140.3150 C   0  0  0  0  0  2  0  0  0  0  0  0
  179.2390  178.9860  136.9850 C   0  0  0  0  0  0  0  0  0  0  0  0
  179.3100  179.2830  138.4640 C   0  0  1  0  0  3  0  0  0  0  0  0
  178.9340  179.8730  136.2040 O   0  0  0  0  0  0  0  0  0  0  0  0
  182.7680  176.0260  136.9660 C   0  0  0  0  0  2  0  0  0  0  0  0
  183.1270  176.9370  138.1530 C   0  0  1  0  0  3  0  0  0  0  0  0
  182.6720  176.3540  139.5020 C   0  0  0  0  0  2  0  0  0  0  0  0
  180.3730  176.7970  137.3840 C   0  0  0  0  0  0  0  0  0  0  0  0
  181.1630  176.0970  139.6270 C   0  0  0  0  0  2  0  0  0  0  0  0
  180.3170  176.9660  138.7260 C   0  0  0  0  0  0  0  0  0  0  0  0
  184.6270  177.2530  138.1710 C   0  0  0  0  0  3  0  0  0  0  0  0
  185.2470  177.0270  136.8030 C   0  0  0  0  0  1  0  0  0  0  0  0
  184.8730  178.7000  138.5640 C   0  0  0  0  0  1  0  0  0  0  0  0
  181.0720  179.3190  142.3850 C   0  0  0  0  0  2  0  0  0  0  0  0
  184.6520  178.1790  142.1820 N   0  0  0  0  0  0  0  0  0  0  0  0
  182.8400  178.9500  144.0920 N   0  0  0  0  0  0  0  0  0  0  0  0
  186.6910  177.8370  145.2140 C   0  0  0  0  0  0  0  0  0  0  0  0
  186.3200  177.8260  143.8610 C   0  0  0  0  0  3  0  0  0  0  0  0
  185.0260  178.1950  143.4880 C   0  0  0  0  0  0  0  0  0  0  0  0
  184.4680  178.6210  145.8150 C   0  0  0  0  0  3  0  0  0  0  0  0
  184.0950  178.5930  144.4690 C   0  0  0  0  0  0  0  0  0  0  0  0
  185.7640  178.2490  146.1850 C   0  0  0  0  0  3  0  0  0  0  0  0
  182.4690  178.9280  142.7830 C   0  0  0  0  0  0  0  0  0  0  0  0
  183.3940  178.5370  141.8100 C   0  0  0  0  0  3  0  0  0  0  0  0
  188.0900  177.4850  145.6150 C   0  0  1  0  0  3  0  0  0  0  0  0
  188.7930  176.8230  144.5170 C   0  0  0  0  0  2  0  0  0  0  0  0
  189.0520  178.2400  144.7940 N   0  0  0  0  0  2  0  0  0  0  0  0
  1  5  1  1  0  0  0
  2 12  1  0  0  0  0
  2 15  1  0  0  0  0
  3  9  1  0  0  0  0
  3 15  1  0  0  0  0
  4 21  1  0  0  0  0
  5  4  1  0  0  0  0
  6  7  1  1  0  0  0
  6  8  1  0  0  0  0
  8  4  1  0  0  0  0
 10  9  1  6  0  0  0
 10  6  1  0  0  0  0
 10  1  1  0  0  0  0
 11  9  2  0  0  0  0
 12 13  1  0  0  0  0
 13 18  1  1  0  0  0
 13 14  1  0  0  0  0
 14 16  1  0  0  0  0
 15 17  2  0  0  0  0
 17  1  1  0  0  0  0
 17 16  1  0  0  0  0
 18 20  1  0  0  0  0
 19 18  1  0  0  0  0
 21 30  1  0  0  0  0
 22 26  1  0  0  0  0
 23 28  1  0  0  0  0
 24 29  1  0  0  0  0
 25 24  2  0  0  0  0
 26 25  1  0  0  0  0
 26 28  2  0  0  0  0
 27 29  2  0  0  0  0
 28 27  1  0  0  0  0
 30 23  2  0  0  0  0
 31 22  2  0  0  0  0
 31 30  1  0  0  0  0
 32 24  1  6  0  0  0
 33 34  1  0  0  0  0
 33 32  1  0  0  0  0
 34 32  1  0  0  0  0
M  END
>  <MODEL>
1

>  <REMARK>
 VINA RESULT:      -7.9      0.000      0.000
  Name = 
  4 active torsions:
  status: ('A' for Active; 'I' for Inactive)
    1  A    between atoms: C_3  and  C_25
    2  A    between atoms: C_7  and  C_11
    3  A    between atoms: N_8  and  C_18
    4  A    between atoms: C_18  and  C_30
                            x       y       z     vdW  Elec       q    Type
                         _______ _______ _______ _____ _____    ______ ____

>  <TORSDO>
F 4

$$$$
=
 OpenBabel10262423323D

 34 39  0  0  1  0  0  0  0  0999 V2000
  179.3700  179.4270  137.4140 C   0  0  1  0  0  3  0  0  0  0  0  0
  181.9170  177.8990  134.9230 C   0  0  0  0  0  2  0  0  0  0  0  0
  180.7350  180.2000  135.0090 C   0  0  0  0  0  2  0  0  0  0  0  0
  180.0150  179.2590  139.7890 N   0  0  0  0  0  0  0  0  0  0  0  0
  178.9370  179.0170  138.8270 C   0  0  0  0  0  2  0  0  0  0  0  0
  180.8490  181.2050  138.5450 C   0  0  2  0  0  3  0  0  0  0  0  0
  182.1650  180.6290  138.3140 N   0  0  0  0  0  1  0  0  0  0  0  0
  180.2860  180.6970  139.8700 C   0  0  0  0  0  2  0  0  0  0  0  0
  180.4520  181.2540  136.0460 C   0  0  0  0  0  0  0  0  0  0  0  0
  179.8770  180.8850  137.3930 C   0  0  1  0  0  3  0  0  0  0  0  0
  180.6540  182.4270  135.7760 O   0  0  0  0  0  0  0  0  0  0  0  0
  183.1910  177.5650  135.7170 C   0  0  0  0  0  2  0  0  0  0  0  0
  183.0800  177.7400  137.2420 C   0  0  1  0  0  3  0  0  0  0  0  0
  181.9880  176.8500  137.8600 C   0  0  0  0  0  2  0  0  0  0  0  0
  180.9900  178.8510  135.6310 C   0  0  0  0  0  0  0  0  0  0  0  0
  180.5700  177.0830  137.3180 C   0  0  0  0  0  2  0  0  0  0  0  0
  180.3480  178.4710  136.7610 C   0  0  0  0  0  0  0  0  0  0  0  0
  184.4320  177.5020  137.9230 C   0  0  0  0  0  3  0  0  0  0  0  0
  185.5050  177.1660  136.9010 C   0  0  0  0  0  1  0  0  0  0  0  0
  184.8820  178.7370  138.6850 C   0  0  0  0  0  1  0  0  0  0  0  0
  179.6400  178.7400  141.1110 C   0  0  0  0  0  2  0  0  0  0  0  0
  181.5000  178.9760  144.3730 N   0  0  0  0  0  0  0  0  0  0  0  0
  182.0460  178.5880  141.7130 N   0  0  0  0  0  0  0  0  0  0  0  0
  185.1560  178.6720  144.4790 C   0  0  0  0  0  0  0  0  0  0  0  0
  183.8290  178.8340  144.9050 C   0  0  0  0  0  3  0  0  0  0  0  0
  182.7880  178.8100  143.9750 C   0  0  0  0  0  0  0  0  0  0  0  0
  184.3870  178.4300  142.1840 C   0  0  0  0  0  3  0  0  0  0  0  0
  183.0680  178.6090  142.6080 C   0  0  0  0  0  0  0  0  0  0  0  0
  185.4270  178.4570  143.1190 C   0  0  0  0  0  3  0  0  0  0  0  0
  180.7580  178.7580  142.1170 C   0  0  0  0  0  0  0  0  0  0  0  0
  180.4800  178.9540  143.4740 C   0  0  0  0  0  3  0  0  0  0  0  0
  186.2710  178.6530  145.4790 C   0  0  1  0  0  3  0  0  0  0  0  0
  186.1100  177.5390  146.4130 C   0  0  0  0  0  2  0  0  0  0  0  0
  187.0730  177.4290  145.3110 N   0  0  0  0  0  2  0  0  0  0  0  0
  1  5  1  1  0  0  0
  2 15  1  0  0  0  0
  2 12  1  0  0  0  0
  3 15  1  0  0  0  0
  3  9  1  0  0  0  0
  4  8  1  0  0  0  0
  4 21  1  0  0  0  0
  5  4  1  0  0  0  0
  6  7  1  6  0  0  0
  6  8  1  0  0  0  0
 10  9  1  6  0  0  0
 10  1  1  0  0  0  0
 10  6  1  0  0  0  0
 11  9  2  0  0  0  0
 12 13  1  0  0  0  0
 13 14  1  0  0  0  0
 13 18  1  1  0  0  0
 15 17  2  0  0  0  0
 16 14  1  0  0  0  0
 17 16  1  0  0  0  0
 17  1  1  0  0  0  0
 18 20  1  0  0  0  0
 19 18  1  0  0  0  0
 21 30  1  0  0  0  0
 23 30  2  0  0  0  0
 23 28  1  0  0  0  0
 24 25  1  0  0  0  0
 26 22  1  0  0  0  0
 26 25  2  0  0  0  0
 27 28  2  0  0  0  0
 27 29  1  0  0  0  0
 28 26  1  0  0  0  0
 29 24  2  0  0  0  0
 30 31  1  0  0  0  0
 31 22  2  0  0  0  0
 32 24  1  6  0  0  0
 32 33  1  0  0  0  0
 34 32  1  0  0  0  0
 34 33  1  0  0  0  0
M  END
>  <MODEL>
2

>  <REMARK>
 VINA RESULT:      -7.4      1.460      2.369
  Name = 
  4 active torsions:
  status: ('A' for Active; 'I' for Inactive)
    1  A    between atoms: C_3  and  C_25
    2  A    between atoms: C_7  and  C_11
    3  A    between atoms: N_8  and  C_18
    4  A    between atoms: C_18  and  C_30
                            x       y       z     vdW  Elec       q    Type
                         _______ _______ _______ _____ _____    ______ ____

>  <TORSDO>
F 4

$$$$
=
 OpenBabel10262423323D

 34 39  0  0  1  0  0  0  0  0999 V2000
  182.1260  176.6390  139.6700 C   0  0  1  0  0  3  0  0  0  0  0  0
  179.6390  177.0680  136.7280 C   0  0  0  0  0  2  0  0  0  0  0  0
  179.4100  175.9440  139.0480 C   0  0  0  0  0  2  0  0  0  0  0  0
  183.2600  178.7110  140.3790 N   0  0  0  0  0  0  0  0  0  0  0  0
  183.4650  177.3130  139.9940 C   0  0  0  0  0  2  0  0  0  0  0  0
  181.0750  178.2380  141.3930 C   0  0  2  0  0  3  0  0  0  0  0  0
  180.3470  179.1320  140.5030 N   0  0  0  0  0  1  0  0  0  0  0  0
  182.4870  178.7710  141.6220 C   0  0  0  0  0  2  0  0  0  0  0  0
  179.7580  176.2820  140.4740 C   0  0  0  0  0  0  0  0  0  0  0  0
  181.1280  176.8010  140.8370 C   0  0  1  0  0  3  0  0  0  0  0  0
  178.9310  176.0930  141.3510 O   0  0  0  0  0  0  0  0  0  0  0  0
  179.4650  178.5770  136.4900 C   0  0  0  0  0  2  0  0  0  0  0  0
  180.4020  179.4830  137.3080 C   0  0  1  0  0  3  0  0  0  0  0  0
  181.8880  179.2090  137.0180 C   0  0  0  0  0  2  0  0  0  0  0  0
  180.2430  176.7260  138.0640 C   0  0  0  0  0  0  0  0  0  0  0  0
  182.3560  177.7750  137.3040 C   0  0  0  0  0  2  0  0  0  0  0  0
  181.5260  177.0550  138.3420 C   0  0  0  0  0  0  0  0  0  0  0  0
  180.0650  180.9630  137.0910 C   0  0  0  0  0  3  0  0  0  0  0  0
  180.7720  181.8370  138.1140 C   0  0  0  0  0  1  0  0  0  0  0  0
  180.4950  181.4210  135.7080 C   0  0  0  0  0  1  0  0  0  0  0  0
  184.5550  179.3820  140.5560 C   0  0  0  0  0  2  0  0  0  0  0  0
  187.2890  177.8120  142.6080 N   0  0  0  0  0  0  0  0  0  0  0  0
  184.8650  179.0350  142.9970 N   0  0  0  0  0  0  0  0  0  0  0  0
  187.0290  177.6330  146.2640 C   0  0  0  0  0  0  0  0  0  0  0  0
  187.5400  177.4880  144.9660 C   0  0  0  0  0  3  0  0  0  0  0  0
  186.8100  177.9550  143.8710 C   0  0  0  0  0  0  0  0  0  0  0  0
  185.0630  178.7460  145.3640 C   0  0  0  0  0  3  0  0  0  0  0  0
  185.5650  178.5850  144.0710 C   0  0  0  0  0  0  0  0  0  0  0  0
  185.7970  178.2750  146.4580 C   0  0  0  0  0  3  0  0  0  0  0  0
  185.3480  178.8860  141.7330 C   0  0  0  0  0  0  0  0  0  0  0  0
  186.5850  178.2640  141.5370 C   0  0  0  0  0  3  0  0  0  0  0  0
  187.8300  177.1740  147.4440 C   0  0  1  0  0  3  0  0  0  0  0  0
  189.2480  177.4800  147.2600 C   0  0  0  0  0  2  0  0  0  0  0  0
  188.4280  178.3340  148.1270 N   0  0  0  0  0  2  0  0  0  0  0  0
  1  5  1  1  0  0  0
  1 10  1  0  0  0  0
  2 15  1  0  0  0  0
  3  9  1  0  0  0  0
  4 21  1  0  0  0  0
  4  8  1  0  0  0  0
  5  4  1  0  0  0  0
  6  7  1  6  0  0  0
  6  8  1  0  0  0  0
  9 11  2  0  0  0  0
 10  9  1  6  0  0  0
 10  6  1  0  0  0  0
 12  2  1  0  0  0  0
 12 13  1  0  0  0  0
 13 18  1  6  0  0  0
 14 16  1  0  0  0  0
 14 13  1  0  0  0  0
 15 17  2  0  0  0  0
 15  3  1  0  0  0  0
 16 17  1  0  0  0  0
 17  1  1  0  0  0  0
 18 19  1  0  0  0  0
 20 18  1  0  0  0  0
 21 30  1  0  0  0  0
 22 26  1  0  0  0  0
 23 28  1  0  0  0  0
 24 29  1  0  0  0  0
 25 24  2  0  0  0  0
 26 28  2  0  0  0  0
 26 25  1  0  0  0  0
 27 29  2  0  0  0  0
 28 27  1  0  0  0  0
 30 23  2  0  0  0  0
 31 30  1  0  0  0  0
 31 22  2  0  0  0  0
 32 24  1  6  0  0  0
 32 34  1  0  0  0  0
 33 32  1  0  0  0  0
 33 34  1  0  0  0  0
M  END
>  <MODEL>
3

>  <REMARK>
 VINA RESULT:      -7.4      1.969      3.451
  Name = 
  4 active torsions:
  status: ('A' for Active; 'I' for Inactive)
    1  A    between atoms: C_3  and  C_25
    2  A    between atoms: C_7  and  C_11
    3  A    between atoms: N_8  and  C_18
    4  A    between atoms: C_18  and  C_30
                            x       y       z     vdW  Elec       q    Type
                         _______ _______ _______ _____ _____    ______ ____

>  <TORSDO>
F 4

$$$$
=
 OpenBabel10262423323D

 34 39  0  0  1  0  0  0  0  0999 V2000
  181.7230  177.5300  137.2530 C   0  0  1  0  0  3  0  0  0  0  0  0
  180.4330  178.9650  140.6150 C   0  0  0  0  0  2  0  0  0  0  0  0
  179.6650  176.9580  139.1720 C   0  0  0  0  0  2  0  0  0  0  0  0
  184.1560  177.1370  137.1590 N   0  0  0  0  0  0  0  0  0  0  0  0
  183.0220  177.7530  136.4680 C   0  0  0  0  0  2  0  0  0  0  0  0
  182.7710  175.3250  138.0690 C   0  0  2  0  0  3  0  0  0  0  0  0
  183.0430  175.6690  139.4580 N   0  0  0  0  0  1  0  0  0  0  0  0
  183.9750  175.6840  137.2020 C   0  0  0  0  0  2  0  0  0  0  0  0
  180.3160  175.8080  138.4510 C   0  0  0  0  0  0  0  0  0  0  0  0
  181.5050  176.0300  137.5460 C   0  0  1  0  0  3  0  0  0  0  0  0
  179.8490  174.6870  138.5690 O   0  0  0  0  0  0  0  0  0  0  0  0
  181.5960  178.8970  141.6190 C   0  0  0  0  0  2  0  0  0  0  0  0
  182.9520  178.4730  141.0270 C   0  0  1  0  0  3  0  0  0  0  0  0
  183.4390  179.4300  139.9250 C   0  0  0  0  0  2  0  0  0  0  0  0
  180.6260  178.0970  139.3990 C   0  0  0  0  0  0  0  0  0  0  0  0
  182.4960  179.5770  138.7210 C   0  0  0  0  0  2  0  0  0  0  0  0
  181.5960  178.3820  138.5000 C   0  0  0  0  0  0  0  0  0  0  0  0
  184.0090  178.3190  142.1250 C   0  0  0  0  0  3  0  0  0  0  0  0
  185.1750  179.2650  141.8950 C   0  0  0  0  0  1  0  0  0  0  0  0
  183.4210  178.6260  143.4930 C   0  0  0  0  0  1  0  0  0  0  0  0
  185.4110  177.4700  136.4710 C   0  0  0  0  0  2  0  0  0  0  0  0
  188.7890  176.3290  137.6710 N   0  0  0  0  0  0  0  0  0  0  0  0
  186.7420  177.9480  138.5140 N   0  0  0  0  0  0  0  0  0  0  0  0
  190.1210  177.4670  140.8960 C   0  0  0  0  0  0  0  0  0  0  0  0
  190.0300  176.8090  139.6600 C   0  0  0  0  0  3  0  0  0  0  0  0
  188.8940  176.9690  138.8650 C   0  0  0  0  0  0  0  0  0  0  0  0
  187.9380  178.4710  140.5190 C   0  0  0  0  0  3  0  0  0  0  0  0
  187.8420  177.8020  139.2970 C   0  0  0  0  0  0  0  0  0  0  0  0
  189.0780  178.3080  141.3130 C   0  0  0  0  0  3  0  0  0  0  0  0
  186.6400  177.3030  137.3200 C   0  0  0  0  0  0  0  0  0  0  0  0
  187.6860  176.4790  136.8910 C   0  0  0  0  0  3  0  0  0  0  0  0
  191.3580  177.3340  141.7310 C   0  0  1  0  0  3  0  0  0  0  0  0
  191.1170  177.8080  143.0930 C   0  0  0  0  0  2  0  0  0  0  0  0
  191.1280  176.3660  142.8170 N   0  0  0  0  0  2  0  0  0  0  0  0
  1  5  1  1  0  0  0
  1 10  1  0  0  0  0
  1 17  1  0  0  0  0
  2 12  1  0  0  0  0
  3 15  1  0  0  0  0
  4  8  1  0  0  0  0
  5  4  1  0  0  0  0
  6  7  1  1  0  0  0
  8  6  1  0  0  0  0
  9 11  2  0  0  0  0
  9  3  1  0  0  0  0
 10  6  1  0  0  0  0
 10  9  1  1  0  0  0
 13 12  1  0  0  0  0
 13 18  1  1  0  0  0
 14 13  1  0  0  0  0
 15  2  1  0  0  0  0
 16 14  1  0  0  0  0
 17 16  1  0  0  0  0
 17 15  2  0  0  0  0
 18 20  1  0  0  0  0
 19 18  1  0  0  0  0
 21  4  1  0  0  0  0
 21 30  1  0  0  0  0
 22 26  1  0  0  0  0
 23 28  1  0  0  0  0
 24 29  1  0  0  0  0
 25 24  2  0  0  0  0
 26 28  2  0  0  0  0
 26 25  1  0  0  0  0
 27 29  2  0  0  0  0
 28 27  1  0  0  0  0
 30 23  2  0  0  0  0
 31 30  1  0  0  0  0
 31 22  2  0  0  0  0
 32 24  1  6  0  0  0
 32 34  1  0  0  0  0
 32 33  1  0  0  0  0
 34 33  1  0  0  0  0
M  END
>  <MODEL>
4

>  <REMARK>
 VINA RESULT:      -7.3      2.946      5.195
  Name = 
  4 active torsions:
  status: ('A' for Active; 'I' for Inactive)
    1  A    between atoms: C_3  and  C_25
    2  A    between atoms: C_7  and  C_11
    3  A    between atoms: N_8  and  C_18
    4  A    between atoms: C_18  and  C_30
                            x       y       z     vdW  Elec       q    Type
                         _______ _______ _______ _____ _____    ______ ____

>  <TORSDO>
F 4

$$$$
=
 OpenBabel10262423323D

 34 39  0  0  1  0  0  0  0  0999 V2000
  189.3810  178.2820  137.2370 C   0  0  1  0  0  3  0  0  0  0  0  0
  187.0640  176.6430  134.5960 C   0  0  0  0  0  2  0  0  0  0  0  0
  189.6260  176.5570  134.9540 C   0  0  0  0  0  2  0  0  0  0  0  0
  188.6750  177.9600  139.5780 N   0  0  0  0  0  0  0  0  0  0  0  0
  189.0940  178.9530  138.5860 C   0  0  0  0  0  2  0  0  0  0  0  0
  190.0760  176.2040  138.5880 C   0  0  2  0  0  3  0  0  0  0  0  0
  188.9540  175.3220  138.2980 N   0  0  0  0  0  1  0  0  0  0  0  0
  189.7760  177.0290  139.8360 C   0  0  0  0  0  2  0  0  0  0  0  0
  190.5700  176.3590  136.1110 C   0  0  0  0  0  0  0  0  0  0  0  0
  190.3950  177.1290  137.3980 C   0  0  1  0  0  3  0  0  0  0  0  0
  191.5130  175.5940  135.9880 O   0  0  0  0  0  0  0  0  0  0  0  0
  186.0670  175.7490  135.3530 C   0  0  0  0  0  2  0  0  0  0  0  0
  186.1160  175.8620  136.8870 C   0  0  1  0  0  3  0  0  0  0  0  0
  185.8200  177.2880  137.3830 C   0  0  0  0  0  2  0  0  0  0  0  0
  188.2700  177.0340  135.4090 C   0  0  0  0  0  0  0  0  0  0  0  0
  186.7740  178.3730  136.8640 C   0  0  0  0  0  2  0  0  0  0  0  0
  188.1410  177.8530  136.4790 C   0  0  0  0  0  0  0  0  0  0  0  0
  185.1750  174.8460  137.5440 C   0  0  0  0  0  3  0  0  0  0  0  0
  183.7570  175.0040  137.0240 C   0  0  0  0  0  1  0  0  0  0  0  0
  185.6240  173.4230  137.2550 C   0  0  0  0  0  1  0  0  0  0  0  0
  188.2740  178.6270  140.8240 C   0  0  0  0  0  2  0  0  0  0  0  0
  184.9410  178.2270  142.5230 N   0  0  0  0  0  0  0  0  0  0  0  0
  185.9310  179.0050  140.0860 N   0  0  0  0  0  0  0  0  0  0  0  0
  181.8210  178.9720  140.7410 C   0  0  0  0  0  0  0  0  0  0  0  0
  182.7010  178.5940  141.7650 C   0  0  0  0  0  3  0  0  0  0  0  0
  184.0790  178.6010  141.5420 C   0  0  0  0  0  0  0  0  0  0  0  0
  183.7150  179.3960  139.2740 C   0  0  0  0  0  3  0  0  0  0  0  0
  184.5880  179.0020  140.2900 C   0  0  0  0  0  0  0  0  0  0  0  0
  182.3350  179.3860  139.5020 C   0  0  0  0  0  3  0  0  0  0  0  0
  186.7910  178.6260  141.0710 C   0  0  0  0  0  0  0  0  0  0  0  0
  186.2840  178.2310  142.3140 C   0  0  0  0  0  3  0  0  0  0  0  0
  180.3440  179.0080  140.9900 C   0  0  1  0  0  3  0  0  0  0  0  0
  180.0630  179.0660  142.4240 C   0  0  0  0  0  2  0  0  0  0  0  0
  179.9730  180.2890  141.6170 N   0  0  0  0  0  2  0  0  0  0  0  0
  1 10  1  0  0  0  0
  1  5  1  1  0  0  0
  2 12  1  0  0  0  0
  2 15  1  0  0  0  0
  3 15  1  0  0  0  0
  3  9  1  0  0  0  0
  4  8  1  0  0  0  0
  4 21  1  0  0  0  0
  5  4  1  0  0  0  0
  6  7  1  6  0  0  0
  6  8  1  0  0  0  0
 10  9  1  6  0  0  0
 10  6  1  0  0  0  0
 11  9  2  0  0  0  0
 12 13  1  0  0  0  0
 13 14  1  0  0  0  0
 13 18  1  1  0  0  0
 15 17  2  0  0  0  0
 16 14  1  0  0  0  0
 17 16  1  0  0  0  0
 17  1  1  0  0  0  0
 19 18  1  0  0  0  0
 20 18  1  0  0  0  0
 21 30  1  0  0  0  0
 23 28  2  0  0  0  0
 23 30  1  0  0  0  0
 24 25  2  0  0  0  0
 26 25  1  0  0  0  0
 26 22  2  0  0  0  0
 27 29  2  0  0  0  0
 27 28  1  0  0  0  0
 28 26  1  0  0  0  0
 29 24  1  0  0  0  0
 30 31  2  0  0  0  0
 31 22  1  0  0  0  0
 32 24  1  1  0  0  0
 32 34  1  0  0  0  0
 32 33  1  0  0  0  0
 34 33  1  0  0  0  0
M  END
>  <MODEL>
5

>  <REMARK>
 VINA RESULT:      -7.3      3.907      7.586
  Name = 
  4 active torsions:
  status: ('A' for Active; 'I' for Inactive)
    1  A    between atoms: C_3  and  C_25
    2  A    between atoms: C_7  and  C_11
    3  A    between atoms: N_8  and  C_18
    4  A    between atoms: C_18  and  C_30
                            x       y       z     vdW  Elec       q    Type
                         _______ _______ _______ _____ _____    ______ ____

>  <TORSDO>
F 4

$$$$
=
 OpenBabel10262423323D

 34 39  0  0  1  0  0  0  0  0999 V2000
  187.0570  177.3850  135.9670 C   0  0  1  0  0  3  0  0  0  0  0  0
  183.1840  177.3550  135.7960 C   0  0  0  0  0  2  0  0  0  0  0  0
  184.9880  175.9250  134.6110 C   0  0  0  0  0  2  0  0  0  0  0  0
  187.9950  177.3380  138.2470 N   0  0  0  0  0  0  0  0  0  0  0  0
  188.0400  178.0240  136.9540 C   0  0  0  0  0  2  0  0  0  0  0  0
  187.4760  175.1720  137.2140 C   0  0  2  0  0  3  0  0  0  0  0  0
  186.2050  175.0230  137.9070 N   0  0  0  0  0  1  0  0  0  0  0  0
  188.4530  175.9560  138.0860 C   0  0  0  0  0  2  0  0  0  0  0  0
  186.2450  175.1960  135.0020 C   0  0  0  0  0  0  0  0  0  0  0  0
  187.3020  175.8650  135.8480 C   0  0  1  0  0  3  0  0  0  0  0  0
  186.4280  174.0600  134.5940 O   0  0  0  0  0  0  0  0  0  0  0  0
  182.6650  177.0680  137.2150 C   0  0  0  0  0  2  0  0  0  0  0  0
  183.7400  177.0460  138.3160 C   0  0  1  0  0  3  0  0  0  0  0  0
  184.4890  178.3850  138.4360 C   0  0  0  0  0  2  0  0  0  0  0  0
  184.6370  177.0110  135.5980 C   0  0  0  0  0  0  0  0  0  0  0  0
  185.2180  178.8430  137.1640 C   0  0  0  0  0  2  0  0  0  0  0  0
  185.6020  177.7110  136.2380 C   0  0  0  0  0  0  0  0  0  0  0  0
  183.1390  176.6320  139.6640 C   0  0  0  0  0  3  0  0  0  0  0  0
  182.5610  177.8330  140.3930 C   0  0  0  0  0  1  0  0  0  0  0  0
  182.0230  175.6180  139.4740 C   0  0  0  0  0  1  0  0  0  0  0  0
  188.8380  178.0400  139.2240 C   0  0  0  0  0  2  0  0  0  0  0  0
  188.6100  177.3760  142.9200 N   0  0  0  0  0  0  0  0  0  0  0  0
  187.0870  178.4890  140.9280 N   0  0  0  0  0  0  0  0  0  0  0  0
  185.6150  178.3220  144.8180 C   0  0  0  0  0  0  0  0  0  0  0  0
  186.8910  177.8170  144.5250 C   0  0  0  0  0  3  0  0  0  0  0  0
  187.3810  177.8700  143.2190 C   0  0  0  0  0  0  0  0  0  0  0  0
  185.3360  178.9620  142.4880 C   0  0  0  0  0  3  0  0  0  0  0  0
  186.5990  178.4430  142.1950 C   0  0  0  0  0  0  0  0  0  0  0  0
  184.8480  178.9060  143.7980 C   0  0  0  0  0  3  0  0  0  0  0  0
  188.3180  177.9890  140.6330 C   0  0  0  0  0  0  0  0  0  0  0  0
  189.0940  177.4230  141.6510 C   0  0  0  0  0  3  0  0  0  0  0  0
  185.1050  178.3080  146.2270 C   0  0  1  0  0  3  0  0  0  0  0  0
  186.1940  178.0630  147.1700 C   0  0  0  0  0  2  0  0  0  0  0  0
  185.6890  179.4280  146.9830 N   0  0  0  0  0  2  0  0  0  0  0  0
  1 17  1  0  0  0  0
  1  5  1  1  0  0  0
  2 12  1  0  0  0  0
  3  9  1  0  0  0  0
  3 15  1  0  0  0  0
  4 21  1  0  0  0  0
  5  4  1  0  0  0  0
  6  7  1  1  0  0  0
  6  8  1  0  0  0  0
  8  4  1  0  0  0  0
 10  9  1  1  0  0  0
 10  1  1  0  0  0  0
 10  6  1  0  0  0  0
 11  9  2  0  0  0  0
 12 13  1  0  0  0  0
 13 14  1  0  0  0  0
 13 18  1  1  0  0  0
 15  2  1  0  0  0  0
 15 17  2  0  0  0  0
 16 14  1  0  0  0  0
 17 16  1  0  0  0  0
 18 19  1  0  0  0  0
 20 18  1  0  0  0  0
 21 30  1  0  0  0  0
 22 26  1  0  0  0  0
 23 28  1  0  0  0  0
 25 24  1  0  0  0  0
 26 25  2  0  0  0  0
 27 29  1  0  0  0  0
 28 27  2  0  0  0  0
 28 26  1  0  0  0  0
 29 24  2  0  0  0  0
 30 23  2  0  0  0  0
 30 31  1  0  0  0  0
 31 22  2  0  0  0  0
 32 24  1  6  0  0  0
 32 34  1  0  0  0  0
 32 33  1  0  0  0  0
 34 33  1  0  0  0  0
M  END
>  <MODEL>
6

>  <REMARK>
 VINA RESULT:      -7.2      3.142      5.755
  Name = 
  4 active torsions:
  status: ('A' for Active; 'I' for Inactive)
    1  A    between atoms: C_3  and  C_25
    2  A    between atoms: C_7  and  C_11
    3  A    between atoms: N_8  and  C_18
    4  A    between atoms: C_18  and  C_30
                            x       y       z     vdW  Elec       q    Type
                         _______ _______ _______ _____ _____    ______ ____

>  <TORSDO>
F 4

$$$$
=
 OpenBabel10262423323D

 34 39  0  0  1  0  0  0  0  0999 V2000
  185.0830  174.9350  134.6340 C   0  0  1  0  0  3  0  0  0  0  0  0
  181.4050  174.9460  135.8590 C   0  0  0  0  0  2  0  0  0  0  0  0
  182.9140  173.0720  134.9050 C   0  0  0  0  0  2  0  0  0  0  0  0
  186.7000  175.9430  136.2000 N   0  0  0  0  0  0  0  0  0  0  0  0
  186.2310  175.9350  134.8120 C   0  0  0  0  0  2  0  0  0  0  0  0
  186.1850  173.5630  136.5130 C   0  0  2  0  0  3  0  0  0  0  0  0
  185.2380  173.7990  137.5930 N   0  0  0  0  0  1  0  0  0  0  0  0
  187.2710  174.6350  136.5330 C   0  0  0  0  0  2  0  0  0  0  0  0
  184.3190  172.5760  135.1170 C   0  0  0  0  0  0  0  0  0  0  0  0
  185.4870  173.5330  135.1400 C   0  0  1  0  0  3  0  0  0  0  0  0
  184.5180  171.3770  135.2320 O   0  0  0  0  0  0  0  0  0  0  0  0
  181.4140  175.3800  137.3340 C   0  0  0  0  0  2  0  0  0  0  0  0
  182.7780  175.8490  137.8730 C   0  0  1  0  0  3  0  0  0  0  0  0
  183.3300  177.0620  137.1040 C   0  0  0  0  0  2  0  0  0  0  0  0
  182.7500  174.5050  135.3450 C   0  0  0  0  0  0  0  0  0  0  0  0
  183.5400  176.8410  135.5990 C   0  0  0  0  0  2  0  0  0  0  0  0
  183.7610  175.3950  135.2170 C   0  0  0  0  0  0  0  0  0  0  0  0
  182.7050  176.1400  139.3760 C   0  0  0  0  0  3  0  0  0  0  0  0
  183.4010  177.4480  139.7110 C   0  0  0  0  0  1  0  0  0  0  0  0
  181.2630  176.2440  139.8410 C   0  0  0  0  0  1  0  0  0  0  0  0
  187.7050  176.9970  136.3890 C   0  0  0  0  0  2  0  0  0  0  0  0
  187.3020  178.4180  139.8490 N   0  0  0  0  0  0  0  0  0  0  0  0
  189.1090  176.9130  138.4380 N   0  0  0  0  0  0  0  0  0  0  0  0
  189.8750  177.8890  142.4110 C   0  0  0  0  0  0  0  0  0  0  0  0
  188.6920  178.3220  141.7940 C   0  0  0  0  0  3  0  0  0  0  0  0
  188.4390  177.9970  140.4600 C   0  0  0  0  0  0  0  0  0  0  0  0
  190.5380  176.7760  140.3520 C   0  0  0  0  0  3  0  0  0  0  0  0
  189.3670  177.2220  139.7350 C   0  0  0  0  0  0  0  0  0  0  0  0
  190.7880  177.1050  141.6880 C   0  0  0  0  0  3  0  0  0  0  0  0
  187.9700  177.3410  137.8280 C   0  0  0  0  0  0  0  0  0  0  0  0
  187.0480  178.1070  138.5500 C   0  0  0  0  0  3  0  0  0  0  0  0
  190.1290  178.1970  143.8550 C   0  0  1  0  0  3  0  0  0  0  0  0
  191.5450  178.0320  144.1790 C   0  0  0  0  0  2  0  0  0  0  0  0
  191.0010  179.3790  143.9700 N   0  0  0  0  0  2  0  0  0  0  0  0
  1  5  1  1  0  0  0
  1 10  1  0  0  0  0
  1 17  1  0  0  0  0
  2 12  1  0  0  0  0
  3  9  1  0  0  0  0
  3 15  1  0  0  0  0
  4 21  1  0  0  0  0
  4  8  1  0  0  0  0
  5  4  1  0  0  0  0
  6  8  1  0  0  0  0
  6  7  1  1  0  0  0
  9 11  2  0  0  0  0
 10  9  1  1  0  0  0
 10  6  1  0  0  0  0
 12 13  1  0  0  0  0
 13 18  1  1  0  0  0
 14 13  1  0  0  0  0
 15  2  1  0  0  0  0
 16 14  1  0  0  0  0
 17 15  2  0  0  0  0
 17 16  1  0  0  0  0
 18 19  1  0  0  0  0
 18 20  1  0  0  0  0
 21 30  1  0  0  0  0
 22 26  1  0  0  0  0
 23 28  1  0  0  0  0
 25 24  1  0  0  0  0
 26 25  2  0  0  0  0
 27 29  1  0  0  0  0
 28 27  2  0  0  0  0
 28 26  1  0  0  0  0
 29 24  2  0  0  0  0
 30 23  2  0  0  0  0
 30 31  1  0  0  0  0
 31 22  2  0  0  0  0
 32 24  1  6  0  0  0
 32 34  1  0  0  0  0
 32 33  1  0  0  0  0
 34 33  1  0  0  0  0
M  END
>  <MODEL>
7

>  <REMARK>
 VINA RESULT:      -7.2      3.918      6.288
  Name = 
  4 active torsions:
  status: ('A' for Active; 'I' for Inactive)
    1  A    between atoms: C_3  and  C_25
    2  A    between atoms: C_7  and  C_11
    3  A    between atoms: N_8  and  C_18
    4  A    between atoms: C_18  and  C_30
                            x       y       z     vdW  Elec       q    Type
                         _______ _______ _______ _____ _____    ______ ____

>  <TORSDO>
F 4

$$$$
=
 OpenBabel10262423323D

 34 39  0  0  1  0  0  0  0  0999 V2000
  182.0730  177.0990  139.9790 C   0  0  1  0  0  3  0  0  0  0  0  0
  181.7940  178.5260  136.3860 C   0  0  0  0  0  2  0  0  0  0  0  0
  180.9120  176.3450  137.4630 C   0  0  0  0  0  2  0  0  0  0  0  0
  181.4420  178.6720  141.7710 N   0  0  0  0  0  0  0  0  0  0  0  0
  182.4740  177.7390  141.3140 C   0  0  0  0  0  2  0  0  0  0  0  0
  179.6330  177.3540  140.7620 C   0  0  2  0  0  3  0  0  0  0  0  0
  179.1930  178.4280  139.8840 N   0  0  0  0  0  1  0  0  0  0  0  0
  180.2050  177.9380  142.0500 C   0  0  0  0  0  2  0  0  0  0  0  0
  180.2000  175.9530  138.7310 C   0  0  0  0  0  0  0  0  0  0  0  0
  180.6760  176.4490  140.0750 C   0  0  1  0  0  3  0  0  0  0  0  0
  179.2480  175.1910  138.6700 O   0  0  0  0  0  0  0  0  0  0  0  0
  181.0700  179.8800  136.4840 C   0  0  0  0  0  2  0  0  0  0  0  0
  180.8140  180.3850  137.9150 C   0  0  1  0  0  3  0  0  0  0  0  0
  182.1150  180.5770  138.7140 C   0  0  0  0  0  2  0  0  0  0  0  0
  181.6360  177.6600  137.6070 C   0  0  0  0  0  0  0  0  0  0  0  0
  182.9760  179.3150  138.8750 C   0  0  0  0  0  2  0  0  0  0  0  0
  182.1930  178.0250  138.7850 C   0  0  0  0  0  0  0  0  0  0  0  0
  179.9830  181.6730  137.9040 C   0  0  0  0  0  3  0  0  0  0  0  0
  179.4900  182.0140  139.3000 C   0  0  0  0  0  1  0  0  0  0  0  0
  180.8060  182.8460  137.3990 C   0  0  0  0  0  1  0  0  0  0  0  0
  181.8950  179.3780  142.9770 C   0  0  0  0  0  2  0  0  0  0  0  0
  185.4870  178.2620  142.9310 N   0  0  0  0  0  0  0  0  0  0  0  0
  183.5770  178.9820  144.7630 N   0  0  0  0  0  0  0  0  0  0  0  0
  187.3740  177.8660  146.0540 C   0  0  0  0  0  0  0  0  0  0  0  0
  187.0710  177.8820  144.6840 C   0  0  0  0  0  3  0  0  0  0  0  0
  185.7960  178.2530  144.2530 C   0  0  0  0  0  0  0  0  0  0  0  0
  185.1190  178.6260  146.5580 C   0  0  0  0  0  3  0  0  0  0  0  0
  184.8140  178.6240  145.1950 C   0  0  0  0  0  0  0  0  0  0  0  0
  186.3970  178.2530  146.9850 C   0  0  0  0  0  3  0  0  0  0  0  0
  183.2720  178.9870  143.4360 C   0  0  0  0  0  0  0  0  0  0  0  0
  184.2480  178.6210  142.5030 C   0  0  0  0  0  3  0  0  0  0  0  0
  188.7540  177.5130  146.5170 C   0  0  1  0  0  3  0  0  0  0  0  0
  188.9470  177.9000  147.9140 C   0  0  0  0  0  2  0  0  0  0  0  0
  188.6820  176.4960  147.5790 N   0  0  0  0  0  2  0  0  0  0  0  0
  1 10  1  0  0  0  0
  1  5  1  1  0  0  0
  2 12  1  0  0  0  0
  2 15  1  0  0  0  0
  3 15  1  0  0  0  0
  3  9  1  0  0  0  0
  4  8  1  0  0  0  0
  4 21  1  0  0  0  0
  5  4  1  0  0  0  0
  6  7  1  6  0  0  0
  6  8  1  0  0  0  0
 10  9  1  6  0  0  0
 10  6  1  0  0  0  0
 11  9  2  0  0  0  0
 12 13  1  0  0  0  0
 13 18  1  6  0  0  0
 13 14  1  0  0  0  0
 14 16  1  0  0  0  0
 15 17  2  0  0  0  0
 17 16  1  0  0  0  0
 17  1  1  0  0  0  0
 18 19  1  0  0  0  0
 20 18  1  0  0  0  0
 21 30  1  0  0  0  0
 22 26  1  0  0  0  0
 23 28  1  0  0  0  0
 24 29  1  0  0  0  0
 25 24  2  0  0  0  0
 26 25  1  0  0  0  0
 26 28  2  0  0  0  0
 27 29  2  0  0  0  0
 28 27  1  0  0  0  0
 30 23  2  0  0  0  0
 31 22  2  0  0  0  0
 31 30  1  0  0  0  0
 32 24  1  1  0  0  0
 32 34  1  0  0  0  0
 32 33  1  0  0  0  0
 34 33  1  0  0  0  0
M  END
>  <MODEL>
8

>  <REMARK>
 VINA RESULT:      -7.2      1.904      3.306
  Name = 
  4 active torsions:
  status: ('A' for Active; 'I' for Inactive)
    1  A    between atoms: C_3  and  C_25
    2  A    between atoms: C_7  and  C_11
    3  A    between atoms: N_8  and  C_18
    4  A    between atoms: C_18  and  C_30
                            x       y       z     vdW  Elec       q    Type
                         _______ _______ _______ _____ _____    ______ ____

>  <TORSDO>
F 4

$$$$
=
 OpenBabel10262423323D

 34 39  0  0  1  0  0  0  0  0999 V2000
  180.9740  177.6450  137.7860 C   0  0  1  0  0  3  0  0  0  0  0  0
  180.6960  179.1210  141.3600 C   0  0  0  0  0  2  0  0  0  0  0  0
  179.4090  177.2250  140.1570 C   0  0  0  0  0  2  0  0  0  0  0  0
  183.2590  177.0300  137.0930 N   0  0  0  0  0  0  0  0  0  0  0  0
  182.0530  177.7630  136.7030 C   0  0  0  0  0  2  0  0  0  0  0  0
  181.9770  175.3350  138.3230 C   0  0  2  0  0  3  0  0  0  0  0  0
  182.6150  175.6230  139.5990 N   0  0  0  0  0  1  0  0  0  0  0  0
  182.9570  175.5990  137.1830 C   0  0  0  0  0  2  0  0  0  0  0  0
  179.7500  176.0350  139.2990 C   0  0  0  0  0  0  0  0  0  0  0  0
  180.6930  176.1660  138.1280 C   0  0  1  0  0  3  0  0  0  0  0  0
  179.2220  174.9600  139.5330 O   0  0  0  0  0  0  0  0  0  0  0  0
  182.0590  178.9250  142.0440 C   0  0  0  0  0  2  0  0  0  0  0  0
  183.1800  178.3900  141.1350 C   0  0  1  0  0  3  0  0  0  0  0  0
  183.4690  179.3210  139.9440 C   0  0  0  0  0  2  0  0  0  0  0  0
  180.5000  178.2650  140.1360 C   0  0  0  0  0  0  0  0  0  0  0  0
  182.2760  179.5790  139.0120 C   0  0  0  0  0  2  0  0  0  0  0  0
  181.2400  178.4780  139.0230 C   0  0  0  0  0  0  0  0  0  0  0  0
  184.4560  178.1160  141.9380 C   0  0  0  0  0  3  0  0  0  0  0  0
  185.6260  178.9160  141.3900 C   0  0  0  0  0  1  0  0  0  0  0  0
  184.2730  178.4940  143.3980 C   0  0  0  0  0  1  0  0  0  0  0  0
  184.3310  177.2600  136.1140 C   0  0  0  0  0  2  0  0  0  0  0  0
  187.4150  178.2040  138.0510 N   0  0  0  0  0  0  0  0  0  0  0  0
  186.5470  176.1790  136.4170 N   0  0  0  0  0  0  0  0  0  0  0  0
  190.3970  176.0660  137.9970 C   0  0  0  0  0  0  0  0  0  0  0  0
  189.5400  177.1330  138.3040 C   0  0  0  0  0  3  0  0  0  0  0  0
  188.2510  177.1710  137.7700 C   0  0  0  0  0  0  0  0  0  0  0  0
  188.6490  175.0580  136.6380 C   0  0  0  0  0  3  0  0  0  0  0  0
  187.8040  176.1300  136.9310 C   0  0  0  0  0  0  0  0  0  0  0  0
  189.9410  175.0240  137.1750 C   0  0  0  0  0  3  0  0  0  0  0  0
  185.7150  177.2190  136.6990 C   0  0  0  0  0  0  0  0  0  0  0  0
  186.1580  178.2500  137.5340 C   0  0  0  0  0  3  0  0  0  0  0  0
  191.7640  175.9980  138.6050 C   0  0  1  0  0  3  0  0  0  0  0  0
  192.6450  175.1460  137.8070 C   0  0  0  0  0  2  0  0  0  0  0  0
  192.7490  176.6060  137.6930 N   0  0  0  0  0  2  0  0  0  0  0  0
  1  5  1  6  0  0  0
  1 10  1  0  0  0  0
  1 17  1  0  0  0  0
  2 12  1  0  0  0  0
  4  8  1  0  0  0  0
  5  4  1  0  0  0  0
  6  7  1  1  0  0  0
  8  6  1  0  0  0  0
  9 11  2  0  0  0  0
  9  3  1  0  0  0  0
 10  6  1  0  0  0  0
 10  9  1  1  0  0  0
 13 18  1  1  0  0  0
 13 12  1  0  0  0  0
 14 13  1  0  0  0  0
 15  3  1  0  0  0  0
 15  2  1  0  0  0  0
 16 17  1  0  0  0  0
 16 14  1  0  0  0  0
 17 15  2  0  0  0  0
 18 20  1  0  0  0  0
 19 18  1  0  0  0  0
 21 30  1  0  0  0  0
 21  4  1  0  0  0  0
 23 30  2  0  0  0  0
 23 28  1  0  0  0  0
 24 25  1  0  0  0  0
 26 22  1  0  0  0  0
 26 25  2  0  0  0  0
 27 28  2  0  0  0  0
 27 29  1  0  0  0  0
 28 26  1  0  0  0  0
 29 24  2  0  0  0  0
 30 31  1  0  0  0  0
 31 22  2  0  0  0  0
 32 24  1  6  0  0  0
 33 32  1  0  0  0  0
 34 33  1  0  0  0  0
 34 32  1  0  0  0  0
M  END
>  <MODEL>
9

>  <REMARK>
 VINA RESULT:      -7.1      3.624      6.131
  Name = 
  4 active torsions:
  status: ('A' for Active; 'I' for Inactive)
    1  A    between atoms: C_3  and  C_25
    2  A    between atoms: C_7  and  C_11
    3  A    between atoms: N_8  and  C_18
    4  A    between atoms: C_18  and  C_30
                            x       y       z     vdW  Elec       q    Type
                         _______ _______ _______ _____ _____    ______ ____

>  <TORSDO>
F 4

$$$$
