=
 OpenBabel10262422233D

 43 47  0  0  1  0  0  0  0  0999 V2000
  191.2240  176.5630  146.9730 C   0  0  0  0  0  0  0  0  0  0  0  0
  187.1030  177.7180  144.2710 C   0  0  0  0  0  0  0  0  0  0  0  0
  187.8830  178.3650  141.6440 C   0  0  2  0  0  3  0  0  0  0  0  0
  188.9630  177.0890  146.2770 C   0  0  0  0  0  0  0  0  0  0  0  0
  191.6520  176.6410  145.6500 C   0  0  0  0  0  3  0  0  0  0  0  0
  192.2000  176.2490  148.0520 C   0  0  0  0  0  1  0  0  0  0  0  0
  189.3890  177.1820  144.9330 C   0  0  0  0  0  0  0  0  0  0  0  0
  189.8820  176.7870  147.2860 C   0  0  0  0  0  3  0  0  0  0  0  0
  190.7420  176.9500  144.6350 C   0  0  0  0  0  3  0  0  0  0  0  0
  188.8750  177.5570  142.4830 C   0  0  0  0  0  2  0  0  0  0  0  0
  188.4570  177.5080  143.9260 C   0  0  0  0  0  0  0  0  0  0  0  0
  186.7010  177.6120  145.6050 C   0  0  0  0  0  3  0  0  0  0  0  0
  186.0810  178.0970  143.2300 C   0  0  2  0  0  3  0  0  0  0  0  0
  186.5280  177.8480  141.8540 N   0  0  0  0  0  2  0  0  0  0  0  0
  187.6240  177.3000  146.6020 C   0  0  0  0  0  3  0  0  0  0  0  0
  188.2450  178.3330  140.1540 C   0  0  2  0  0  3  0  0  0  0  0  0
  187.0180  178.0510  139.2900 C   0  0  0  0  0  1  0  0  0  0  0  0
  189.2600  177.3130  139.9120 N   0  0  0  0  0  2  0  0  0  0  0  0
  189.9400  177.1630  138.6650 C   0  0  0  0  0  0  0  0  0  0  0  0
  189.8910  178.0750  137.7960 O   0  0  0  0  0  0  0  0  0  0  0  0
  190.6420  175.8720  138.3520 C   0  0  0  0  0  2  0  0  0  0  0  0
  190.3370  175.3410  137.0180 N   0  0  0  0  0  0  0  0  0  0  0  0
  191.4930  174.6150  136.5000 C   0  0  0  0  0  2  0  0  0  0  0  0
  193.8570  174.5650  137.2770 C   0  0  0  0  0  1  0  0  0  0  0  0
  192.7580  175.4300  136.6910 C   0  0  0  0  0  2  0  0  0  0  0  0
  189.2010  174.4280  137.0820 C   0  0  0  0  0  2  0  0  0  0  0  0
  187.9900  175.0770  136.4950 C   0  0  0  0  0  0  0  0  0  0  0  0
  188.1450  175.9900  135.6370 O   0  0  0  0  0  0  0  0  0  0  0  0
  186.6290  174.6530  136.8900 C   0  0  0  0  0  0  0  0  0  0  0  0
  185.1080  172.9230  137.6720 C   0  0  0  0  0  3  0  0  0  0  0  0
  184.2770  175.1550  137.2450 C   0  0  0  0  0  3  0  0  0  0  0  0
  184.0520  173.8360  137.6500 C   0  0  0  0  0  3  0  0  0  0  0  0
  185.5590  175.5600  136.8650 C   0  0  0  0  0  3  0  0  0  0  0  0
  186.3940  173.3280  137.2910 C   0  0  0  0  0  3  0  0  0  0  0  0
  185.6210  179.5380  143.4080 C   0  0  0  0  0  2  0  0  0  0  0  0
  182.1190  178.7380  142.0410 C   0  0  0  0  0  3  0  0  0  0  0  0
  181.4390  178.6330  143.2020 C   0  0  0  0  0  0  0  0  0  0  0  0
  183.4400  179.1550  144.5220 C   0  0  0  0  0  3  0  0  0  0  0  0
  183.6230  178.8320  142.0460 C   0  0  0  0  0  2  0  0  0  0  0  0
  184.1100  179.6490  143.2630 C   0  0  2  0  0  3  0  0  0  0  0  0
  182.1750  178.7070  144.4860 C   0  0  0  0  0  3  0  0  0  0  0  0
  180.0500  178.4640  143.2290 O   0  0  0  0  0  0  0  0  0  0  0  0
  179.2380  178.9020  144.3150 C   0  0  0  0  0  1  0  0  0  0  0  0
  1  8  1  0  0  0  0
  1  6  1  0  0  0  0
  2 12  1  0  0  0  0
  3 16  1  6  0  0  0
  3 14  1  0  0  0  0
  3 10  1  0  0  0  0
  4 15  1  0  0  0  0
  4  8  2  0  0  0  0
  5  1  2  0  0  0  0
  7  4  1  0  0  0  0
  9  7  2  0  0  0  0
  9  5  1  0  0  0  0
 10 11  1  0  0  0  0
 11  2  2  0  0  0  0
 11  7  1  0  0  0  0
 12 15  2  0  0  0  0
 13 35  1  6  0  0  0
 13  2  1  0  0  0  0
 14 13  1  0  0  0  0
 16 17  1  6  0  0  0
 18 16  1  0  0  0  0
 19 18  1  0  0  0  0
 20 19  2  0  0  0  0
 21 19  1  0  0  0  0
 22 26  1  0  0  0  0
 22 21  1  0  0  0  0
 23 25  1  0  0  0  0
 23 22  1  0  0  0  0
 25 24  1  0  0  0  0
 27 29  1  0  0  0  0
 27 26  1  0  0  0  0
 28 27  2  0  0  0  0
 29 34  1  0  0  0  0
 31 32  2  0  0  0  0
 32 30  1  0  0  0  0
 33 29  2  0  0  0  0
 33 31  1  0  0  0  0
 34 30  2  0  0  0  0
 36 39  1  0  0  0  0
 36 37  2  0  0  0  0
 37 42  1  0  0  0  0
 37 41  1  0  0  0  0
 39 40  1  0  0  0  0
 40 35  1  1  0  0  0
 40 38  1  0  0  0  0
 41 38  2  0  0  0  0
 42 43  1  0  0  0  0
M  END
>  <MODEL>
1

>  <REMARK>
 VINA RESULT:      -9.0      0.000      0.000
  Name = 
  12 active torsions:
  status: ('A' for Active; 'I' for Inactive)
    1  A    between atoms: C_1  and  C_34
    2  A    between atoms: C_1  and  C_35
    3  A    between atoms: C_2  and  N_6
    4  A    between atoms: C_2  and  C_13
    5  A    between atoms: C_3  and  N_4
    6  A    between atoms: C_3  and  C_12
    7  A    between atoms: N_4  and  C_15
    8  A    between atoms: N_4  and  C_22
    9  A    between atoms: C_11  and  C_14
   10  A    between atoms: C_14  and  C_22
   11  A    between atoms: C_15  and  C_42
   12  A    between atoms: C_19  and  O_25
                            x       y       z     vdW  Elec       q    Type
                         _______ _______ _______ _____ _____    ______ ____

>  <TORSDO>
F 12

$$$$
=
 OpenBabel10262422233D

 43 47  0  0  1  0  0  0  0  0999 V2000
  191.4420  176.5060  147.1060 C   0  0  0  0  0  0  0  0  0  0  0  0
  187.4580  177.5780  144.1750 C   0  0  0  0  0  0  0  0  0  0  0  0
  188.3230  177.8140  141.5060 C   0  0  2  0  0  3  0  0  0  0  0  0
  189.2360  177.0930  146.2910 C   0  0  0  0  0  0  0  0  0  0  0  0
  191.8950  176.3770  145.7940 C   0  0  0  0  0  3  0  0  0  0  0  0
  192.3760  176.2700  148.2410 C   0  0  0  0  0  1  0  0  0  0  0  0
  189.6890  176.9760  144.9570 C   0  0  0  0  0  0  0  0  0  0  0  0
  190.1150  176.8640  147.3530 C   0  0  0  0  0  3  0  0  0  0  0  0
  191.0250  176.6110  144.7260 C   0  0  0  0  0  3  0  0  0  0  0  0
  189.2400  177.0570  142.4680 C   0  0  0  0  0  2  0  0  0  0  0  0
  188.7980  177.2300  143.8940 C   0  0  0  0  0  0  0  0  0  0  0  0
  187.0290  177.6790  145.5000 C   0  0  0  0  0  3  0  0  0  0  0  0
  186.4810  177.8870  143.0680 C   0  0  2  0  0  3  0  0  0  0  0  0
  186.9300  177.4260  141.7480 N   0  0  0  0  0  2  0  0  0  0  0  0
  187.9120  177.4380  146.5520 C   0  0  0  0  0  3  0  0  0  0  0  0
  188.7040  177.5590  140.0420 C   0  0  2  0  0  3  0  0  0  0  0  0
  190.0310  178.2270  139.6880 C   0  0  0  0  0  1  0  0  0  0  0  0
  187.6530  178.0600  139.1610 N   0  0  0  0  0  2  0  0  0  0  0  0
  187.2190  177.3730  137.9870 C   0  0  0  0  0  0  0  0  0  0  0  0
  187.5350  176.1680  137.7980 O   0  0  0  0  0  0  0  0  0  0  0  0
  186.4600  178.1200  136.9270 C   0  0  0  0  0  2  0  0  0  0  0  0
  185.0060  177.9330  136.9980 N   0  0  0  0  0  0  0  0  0  0  0  0
  184.6370  176.6810  136.3420 C   0  0  0  0  0  2  0  0  0  0  0  0
  184.5460  174.3300  137.1520 C   0  0  0  0  0  1  0  0  0  0  0  0
  184.0000  175.7310  137.3390 C   0  0  0  0  0  2  0  0  0  0  0  0
  184.5680  177.8780  138.3890 C   0  0  0  0  0  2  0  0  0  0  0  0
  183.8650  179.1460  138.7530 C   0  0  0  0  0  0  0  0  0  0  0  0
  184.5540  180.1420  139.1110 O   0  0  0  0  0  0  0  0  0  0  0  0
  182.3910  179.2490  138.6810 C   0  0  0  0  0  0  0  0  0  0  0  0
  180.3910  180.5830  138.3100 C   0  0  0  0  0  3  0  0  0  0  0  0
  180.1900  178.2290  138.8350 C   0  0  0  0  0  3  0  0  0  0  0  0
  179.5940  179.4570  138.5340 C   0  0  0  0  0  3  0  0  0  0  0  0
  181.5810  178.1260  138.9110 C   0  0  0  0  0  3  0  0  0  0  0  0
  181.7860  180.4810  138.3860 C   0  0  0  0  0  3  0  0  0  0  0  0
  186.1250  179.3680  143.0440 C   0  0  0  0  0  2  0  0  0  0  0  0
  182.3930  178.6330  142.4910 C   0  0  0  0  0  3  0  0  0  0  0  0
  181.9470  178.7550  143.7580 C   0  0  0  0  0  0  0  0  0  0  0  0
  184.1860  179.3210  144.5860 C   0  0  0  0  0  3  0  0  0  0  0  0
  183.8730  178.6150  142.2040 C   0  0  0  0  0  2  0  0  0  0  0  0
  184.6220  179.5680  143.1620 C   0  0  2  0  0  3  0  0  0  0  0  0
  182.9190  178.9680  144.8560 C   0  0  0  0  0  3  0  0  0  0  0  0
  180.5820  178.6960  144.0670 O   0  0  0  0  0  0  0  0  0  0  0  0
  179.6120  179.5360  143.4490 C   0  0  0  0  0  1  0  0  0  0  0  0
  1  8  1  0  0  0  0
  1  6  1  0  0  0  0
  2 12  1  0  0  0  0
  3 16  1  6  0  0  0
  3 14  1  0  0  0  0
  3 10  1  0  0  0  0
  4 15  1  0  0  0  0
  4  8  2  0  0  0  0
  5  1  2  0  0  0  0
  7  4  1  0  0  0  0
  9  7  2  0  0  0  0
  9  5  1  0  0  0  0
 10 11  1  0  0  0  0
 11  2  2  0  0  0  0
 11  7  1  0  0  0  0
 12 15  2  0  0  0  0
 13 35  1  6  0  0  0
 13  2  1  0  0  0  0
 14 13  1  0  0  0  0
 16 17  1  6  0  0  0
 18 16  1  0  0  0  0
 19 18  1  0  0  0  0
 20 19  2  0  0  0  0
 21 22  1  0  0  0  0
 21 19  1  0  0  0  0
 22 26  1  0  0  0  0
 23 22  1  0  0  0  0
 23 25  1  0  0  0  0
 24 25  1  0  0  0  0
 26 27  1  0  0  0  0
 27 28  2  0  0  0  0
 29 27  1  0  0  0  0
 29 33  1  0  0  0  0
 30 34  1  0  0  0  0
 30 32  2  0  0  0  0
 31 33  2  0  0  0  0
 32 31  1  0  0  0  0
 34 29  2  0  0  0  0
 36 37  2  0  0  0  0
 37 42  1  0  0  0  0
 37 41  1  0  0  0  0
 38 41  2  0  0  0  0
 39 36  1  0  0  0  0
 39 40  1  0  0  0  0
 40 35  1  1  0  0  0
 40 38  1  0  0  0  0
 43 42  1  0  0  0  0
M  END
>  <MODEL>
2

>  <REMARK>
 VINA RESULT:      -8.9      2.167      4.134
  Name = 
  12 active torsions:
  status: ('A' for Active; 'I' for Inactive)
    1  A    between atoms: C_1  and  C_34
    2  A    between atoms: C_1  and  C_35
    3  A    between atoms: C_2  and  N_6
    4  A    between atoms: C_2  and  C_13
    5  A    between atoms: C_3  and  N_4
    6  A    between atoms: C_3  and  C_12
    7  A    between atoms: N_4  and  C_15
    8  A    between atoms: N_4  and  C_22
    9  A    between atoms: C_11  and  C_14
   10  A    between atoms: C_14  and  C_22
   11  A    between atoms: C_15  and  C_42
   12  A    between atoms: C_19  and  O_25
                            x       y       z     vdW  Elec       q    Type
                         _______ _______ _______ _____ _____    ______ ____

>  <TORSDO>
F 12

$$$$
=
 OpenBabel10262422233D

 43 47  0  0  1  0  0  0  0  0999 V2000
  191.2350  176.4000  146.5470 C   0  0  0  0  0  0  0  0  0  0  0  0
  189.6010  177.8580  141.9830 C   0  0  0  0  0  0  0  0  0  0  0  0
  186.8160  178.2570  142.0930 C   0  0  2  0  0  3  0  0  0  0  0  0
  191.0740  176.9380  144.1890 C   0  0  0  0  0  0  0  0  0  0  0  0
  189.9130  176.8000  146.7310 C   0  0  0  0  0  3  0  0  0  0  0  0
  192.0250  175.8920  147.7010 C   0  0  0  0  0  1  0  0  0  0  0  0
  189.7280  177.3360  144.3630 C   0  0  0  0  0  0  0  0  0  0  0  0
  191.8130  176.4690  145.2780 C   0  0  0  0  0  3  0  0  0  0  0  0
  189.1630  177.2640  145.6460 C   0  0  0  0  0  3  0  0  0  0  0  0
  187.5720  178.2690  143.4240 C   0  0  0  0  0  2  0  0  0  0  0  0
  188.9860  177.7880  143.2530 C   0  0  0  0  0  0  0  0  0  0  0  0
  190.9350  177.4690  141.8360 C   0  0  0  0  0  3  0  0  0  0  0  0
  188.8340  178.3070  140.7660 C   0  0  2  0  0  3  0  0  0  0  0  0
  187.5810  179.0020  141.0880 N   0  0  0  0  0  2  0  0  0  0  0  0
  191.6670  177.0120  142.9300 C   0  0  0  0  0  3  0  0  0  0  0  0
  185.4060  178.8450  142.2380 C   0  0  2  0  0  3  0  0  0  0  0  0
  184.8860  178.6960  143.6660 C   0  0  0  0  0  1  0  0  0  0  0  0
  184.4950  178.1790  141.3130 N   0  0  0  0  0  2  0  0  0  0  0  0
  184.0330  178.7770  140.1000 C   0  0  0  0  0  0  0  0  0  0  0  0
  184.6000  179.8020  139.6360 O   0  0  0  0  0  0  0  0  0  0  0  0
  182.8050  178.2330  139.4250 C   0  0  0  0  0  2  0  0  0  0  0  0
  182.9260  176.8280  139.0200 N   0  0  0  0  0  0  0  0  0  0  0  0
  181.8030  176.0620  139.5540 C   0  0  0  0  0  2  0  0  0  0  0  0
  180.2200  174.3190  138.7490 C   0  0  0  0  0  1  0  0  0  0  0  0
  180.8610  175.6560  138.4350 C   0  0  0  0  0  2  0  0  0  0  0  0
  182.9170  176.7170  137.5650 C   0  0  0  0  0  2  0  0  0  0  0  0
  184.3100  176.5240  137.0590 C   0  0  0  0  0  0  0  0  0  0  0  0
  184.9130  177.5090  136.5480 O   0  0  0  0  0  0  0  0  0  0  0  0
  184.9870  175.2130  137.1670 C   0  0  0  0  0  0  0  0  0  0  0  0
  184.9000  172.8350  137.6700 C   0  0  0  0  0  3  0  0  0  0  0  0
  186.9860  173.8430  136.9720 C   0  0  0  0  0  3  0  0  0  0  0  0
  186.2590  172.7170  137.3680 C   0  0  0  0  0  3  0  0  0  0  0  0
  186.3530  175.0850  136.8740 C   0  0  0  0  0  3  0  0  0  0  0  0
  184.2650  174.0790  137.5720 C   0  0  0  0  0  3  0  0  0  0  0  0
  188.5920  177.1480  139.8070 C   0  0  0  0  0  2  0  0  0  0  0  0
  190.9960  175.8620  137.0990 C   0  0  0  0  0  3  0  0  0  0  0  0
  190.4790  176.4850  136.0200 C   0  0  0  0  0  0  0  0  0  0  0  0
  188.7560  177.5880  137.3740 C   0  0  0  0  0  3  0  0  0  0  0  0
  190.2550  175.8720  138.4110 C   0  0  0  0  0  2  0  0  0  0  0  0
  189.5340  177.2220  138.6150 C   0  0  2  0  0  3  0  0  0  0  0  0
  189.2250  177.2620  136.1590 C   0  0  0  0  0  3  0  0  0  0  0  0
  191.1020  176.4280  134.7670 O   0  0  0  0  0  0  0  0  0  0  0  0
  192.4560  176.0190  134.5940 C   0  0  0  0  0  1  0  0  0  0  0  0
  1  5  1  0  0  0  0
  1  6  1  0  0  0  0
  2 11  1  0  0  0  0
  3 16  1  1  0  0  0
  3 10  1  0  0  0  0
  4  7  1  0  0  0  0
  4  8  1  0  0  0  0
  7  9  1  0  0  0  0
  8  1  2  0  0  0  0
  9  5  2  0  0  0  0
 11 10  1  0  0  0  0
 11  7  2  0  0  0  0
 12  2  2  0  0  0  0
 12 15  1  0  0  0  0
 13 35  1  6  0  0  0
 13 14  1  0  0  0  0
 13  2  1  0  0  0  0
 14  3  1  0  0  0  0
 15  4  2  0  0  0  0
 16 17  1  1  0  0  0
 18 16  1  0  0  0  0
 19 18  1  0  0  0  0
 20 19  2  0  0  0  0
 21 19  1  0  0  0  0
 22 21  1  0  0  0  0
 22 23  1  0  0  0  0
 25 24  1  0  0  0  0
 25 23  1  0  0  0  0
 26 22  1  0  0  0  0
 27 29  1  0  0  0  0
 27 26  1  0  0  0  0
 28 27  2  0  0  0  0
 29 34  1  0  0  0  0
 31 32  2  0  0  0  0
 32 30  1  0  0  0  0
 33 31  1  0  0  0  0
 33 29  2  0  0  0  0
 34 30  2  0  0  0  0
 36 39  1  0  0  0  0
 37 41  1  0  0  0  0
 37 36  2  0  0  0  0
 38 40  1  0  0  0  0
 39 40  1  0  0  0  0
 40 35  1  1  0  0  0
 41 38  2  0  0  0  0
 42 37  1  0  0  0  0
 43 42  1  0  0  0  0
M  END
>  <MODEL>
3

>  <REMARK>
 VINA RESULT:      -8.9      2.274      6.823
  Name = 
  12 active torsions:
  status: ('A' for Active; 'I' for Inactive)
    1  A    between atoms: C_1  and  C_34
    2  A    between atoms: C_1  and  C_35
    3  A    between atoms: C_2  and  N_6
    4  A    between atoms: C_2  and  C_13
    5  A    between atoms: C_3  and  N_4
    6  A    between atoms: C_3  and  C_12
    7  A    between atoms: N_4  and  C_15
    8  A    between atoms: N_4  and  C_22
    9  A    between atoms: C_11  and  C_14
   10  A    between atoms: C_14  and  C_22
   11  A    between atoms: C_15  and  C_42
   12  A    between atoms: C_19  and  O_25
                            x       y       z     vdW  Elec       q    Type
                         _______ _______ _______ _____ _____    ______ ____

>  <TORSDO>
F 12

$$$$
=
 OpenBabel10262422233D

 43 47  0  0  1  0  0  0  0  0999 V2000
  185.5820  178.4570  145.8600 C   0  0  0  0  0  0  0  0  0  0  0  0
  182.5350  178.6280  141.8220 C   0  0  0  0  0  0  0  0  0  0  0  0
  184.1100  178.7210  139.4900 C   0  0  2  0  0  3  0  0  0  0  0  0
  183.6590  178.6260  144.3940 C   0  0  0  0  0  0  0  0  0  0  0  0
  186.4100  178.2670  144.7560 C   0  0  0  0  0  3  0  0  0  0  0  0
  186.1630  178.4780  147.2300 C   0  0  0  0  0  1  0  0  0  0  0  0
  184.4920  178.4440  143.2660 C   0  0  0  0  0  0  0  0  0  0  0  0
  184.2090  178.6370  145.6790 C   0  0  0  0  0  3  0  0  0  0  0  0
  185.8700  178.2610  143.4670 C   0  0  0  0  0  3  0  0  0  0  0  0
  184.7860  178.2080  140.7640 C   0  0  0  0  0  2  0  0  0  0  0  0
  183.9290  178.4560  141.9740 C   0  0  0  0  0  0  0  0  0  0  0  0
  181.7290  178.7960  142.9500 C   0  0  0  0  0  3  0  0  0  0  0  0
  181.8970  178.6760  140.4570 C   0  0  2  0  0  3  0  0  0  0  0  0
  182.7610  178.1570  139.3890 N   0  0  0  0  0  2  0  0  0  0  0  0
  182.2860  178.7960  144.2280 C   0  0  0  0  0  3  0  0  0  0  0  0
  184.9290  178.3800  138.2390 C   0  0  2  0  0  3  0  0  0  0  0  0
  184.6990  176.9360  137.8000 C   0  0  0  0  0  1  0  0  0  0  0  0
  186.3490  178.5920  138.5020 N   0  0  0  0  0  2  0  0  0  0  0  0
  187.3500  178.5600  137.4840 C   0  0  0  0  0  0  0  0  0  0  0  0
  187.0250  178.6150  136.2670 O   0  0  0  0  0  0  0  0  0  0  0  0
  188.7900  178.3680  137.8640 C   0  0  0  0  0  2  0  0  0  0  0  0
  189.0280  177.1930  138.7110 N   0  0  0  0  0  0  0  0  0  0  0  0
  189.5540  176.0980  137.9010 C   0  0  0  0  0  2  0  0  0  0  0  0
  191.6030  174.7830  137.3880 C   0  0  0  0  0  1  0  0  0  0  0  0
  190.9250  175.6830  138.4020 C   0  0  0  0  0  2  0  0  0  0  0  0
  189.9960  177.5090  139.7560 C   0  0  0  0  0  2  0  0  0  0  0  0
  189.2910  177.7320  141.0550 C   0  0  0  0  0  0  0  0  0  0  0  0
  188.0990  178.1460  141.0370 O   0  0  0  0  0  0  0  0  0  0  0  0
  189.9620  177.4570  142.3450 C   0  0  0  0  0  0  0  0  0  0  0  0
  190.5180  178.1340  144.6140 C   0  0  0  0  0  3  0  0  0  0  0  0
  191.3070  176.0110  143.7620 C   0  0  0  0  0  3  0  0  0  0  0  0
  191.2250  176.9440  144.8000 C   0  0  0  0  0  3  0  0  0  0  0  0
  190.6810  176.2670  142.5400 C   0  0  0  0  0  3  0  0  0  0  0  0
  189.8890  178.3920  143.3890 C   0  0  0  0  0  3  0  0  0  0  0  0
  181.3980  180.0780  140.1300 C   0  0  0  0  0  2  0  0  0  0  0  0
  179.3850  180.1810  136.8580 C   0  0  0  0  0  3  0  0  0  0  0  0
  179.8620  181.3280  136.3320 C   0  0  0  0  0  0  0  0  0  0  0  0
  181.3770  181.6700  138.2310 C   0  0  0  0  0  3  0  0  0  0  0  0
  179.7120  179.8010  138.2790 C   0  0  0  0  0  2  0  0  0  0  0  0
  181.1510  180.2340  138.6370 C   0  0  2  0  0  3  0  0  0  0  0  0
  180.7900  182.1640  137.1300 C   0  0  0  0  0  3  0  0  0  0  0  0
  179.5130  181.7490  135.0440 O   0  0  0  0  0  0  0  0  0  0  0  0
  179.3760  183.1230  134.6890 C   0  0  0  0  0  1  0  0  0  0  0  0
  1  6  1  0  0  0  0
  2 11  2  0  0  0  0
  2 12  1  0  0  0  0
  3 16  1  6  0  0  0
  3 10  1  0  0  0  0
  4  8  2  0  0  0  0
  5  1  2  0  0  0  0
  7  9  2  0  0  0  0
  7  4  1  0  0  0  0
  8  1  1  0  0  0  0
  9  5  1  0  0  0  0
 10 11  1  0  0  0  0
 11  7  1  0  0  0  0
 12 15  2  0  0  0  0
 13 35  1  6  0  0  0
 13  2  1  0  0  0  0
 14  3  1  0  0  0  0
 14 13  1  0  0  0  0
 15  4  1  0  0  0  0
 16 17  1  1  0  0  0
 16 18  1  0  0  0  0
 19 21  1  0  0  0  0
 19 18  1  0  0  0  0
 20 19  2  0  0  0  0
 21 22  1  0  0  0  0
 22 26  1  0  0  0  0
 23 25  1  0  0  0  0
 23 22  1  0  0  0  0
 24 25  1  0  0  0  0
 26 27  1  0  0  0  0
 27 29  1  0  0  0  0
 28 27  2  0  0  0  0
 29 33  2  0  0  0  0
 29 34  1  0  0  0  0
 30 32  1  0  0  0  0
 31 32  2  0  0  0  0
 33 31  1  0  0  0  0
 34 30  2  0  0  0  0
 36 39  1  0  0  0  0
 37 36  2  0  0  0  0
 37 41  1  0  0  0  0
 38 40  1  0  0  0  0
 39 40  1  0  0  0  0
 40 35  1  1  0  0  0
 41 38  2  0  0  0  0
 42 37  1  0  0  0  0
 43 42  1  0  0  0  0
M  END
>  <MODEL>
4

>  <REMARK>
 VINA RESULT:      -8.9      3.262      6.102
  Name = 
  12 active torsions:
  status: ('A' for Active; 'I' for Inactive)
    1  A    between atoms: C_1  and  C_34
    2  A    between atoms: C_1  and  C_35
    3  A    between atoms: C_2  and  N_6
    4  A    between atoms: C_2  and  C_13
    5  A    between atoms: C_3  and  N_4
    6  A    between atoms: C_3  and  C_12
    7  A    between atoms: N_4  and  C_15
    8  A    between atoms: N_4  and  C_22
    9  A    between atoms: C_11  and  C_14
   10  A    between atoms: C_14  and  C_22
   11  A    between atoms: C_15  and  C_42
   12  A    between atoms: C_19  and  O_25
                            x       y       z     vdW  Elec       q    Type
                         _______ _______ _______ _____ _____    ______ ____

>  <TORSDO>
F 12

$$$$
=
 OpenBabel10262422233D

 43 47  0  0  1  0  0  0  0  0999 V2000
  180.7820  178.6970  143.6290 C   0  0  0  0  0  0  0  0  0  0  0  0
  185.7840  178.7680  142.8610 C   0  0  0  0  0  0  0  0  0  0  0  0
  186.3020  178.2140  140.1500 C   0  0  2  0  0  3  0  0  0  0  0  0
  183.1870  178.7650  143.9250 C   0  0  0  0  0  0  0  0  0  0  0  0
  180.9510  178.6500  142.2470 C   0  0  0  0  0  3  0  0  0  0  0  0
  179.4120  178.6770  144.2120 C   0  0  0  0  0  1  0  0  0  0  0  0
  183.3690  178.7070  142.5240 C   0  0  0  0  0  0  0  0  0  0  0  0
  181.8980  178.7530  144.4660 C   0  0  0  0  0  3  0  0  0  0  0  0
  182.2360  178.6540  141.6970 C   0  0  0  0  0  3  0  0  0  0  0  0
  184.8920  178.6930  140.5030 C   0  0  0  0  0  2  0  0  0  0  0  0
  184.6740  178.6980  141.9910 C   0  0  0  0  0  0  0  0  0  0  0  0
  185.5810  178.8350  144.2410 C   0  0  0  0  0  3  0  0  0  0  0  0
  187.1960  178.7310  142.3330 C   0  0  2  0  0  3  0  0  0  0  0  0
  187.2880  179.0030  140.8930 N   0  0  0  0  0  2  0  0  0  0  0  0
  184.2920  178.8330  144.7710 C   0  0  0  0  0  3  0  0  0  0  0  0
  186.5680  178.3050  138.6410 C   0  0  2  0  0  3  0  0  0  0  0  0
  185.3950  177.7530  137.8350 C   0  0  0  0  0  1  0  0  0  0  0  0
  187.7830  177.5680  138.3070 N   0  0  0  0  0  2  0  0  0  0  0  0
  188.9110  178.1640  137.6670 C   0  0  0  0  0  0  0  0  0  0  0  0
  189.0210  179.4180  137.6010 O   0  0  0  0  0  0  0  0  0  0  0  0
  189.9270  177.2900  136.9880 C   0  0  0  0  0  2  0  0  0  0  0  0
  189.3390  176.2550  136.1290 N   0  0  0  0  0  0  0  0  0  0  0  0
  188.6670  176.8800  134.9930 C   0  0  0  0  0  2  0  0  0  0  0  0
  187.0030  175.1990  135.7670 C   0  0  0  0  0  1  0  0  0  0  0  0
  187.4240  176.0950  134.6180 C   0  0  0  0  0  2  0  0  0  0  0  0
  190.3780  175.3640  135.6240 C   0  0  0  0  0  2  0  0  0  0  0  0
  190.8030  174.4150  136.6980 C   0  0  0  0  0  0  0  0  0  0  0  0
  189.9160  173.8490  137.3960 O   0  0  0  0  0  0  0  0  0  0  0  0
  192.2340  174.1220  136.9360 C   0  0  0  0  0  0  0  0  0  0  0  0
  194.1670  172.6800  136.6180 C   0  0  0  0  0  3  0  0  0  0  0  0
  194.3790  174.7120  137.9140 C   0  0  0  0  0  3  0  0  0  0  0  0
  194.9490  173.5570  137.3730 C   0  0  0  0  0  3  0  0  0  0  0  0
  193.0270  174.9920  137.6980 C   0  0  0  0  0  3  0  0  0  0  0  0
  192.8110  172.9590  136.4010 C   0  0  0  0  0  3  0  0  0  0  0  0
  187.8850  177.4220  142.6930 C   0  0  0  0  0  2  0  0  0  0  0  0
  189.7440  177.4640  146.0570 C   0  0  0  0  0  3  0  0  0  0  0  0
  190.9120  176.9040  145.6800 C   0  0  0  0  0  0  0  0  0  0  0  0
  190.1650  176.7070  143.3510 C   0  0  0  0  0  3  0  0  0  0  0  0
  188.5660  177.4710  145.1180 C   0  0  0  0  0  2  0  0  0  0  0  0
  189.0360  177.6600  143.6600 C   0  0  2  0  0  3  0  0  0  0  0  0
  191.0570  176.3820  144.3000 C   0  0  0  0  0  3  0  0  0  0  0  0
  192.0010  176.8090  146.5550 O   0  0  0  0  0  0  0  0  0  0  0  0
  192.3290  175.6130  147.2560 C   0  0  0  0  0  1  0  0  0  0  0  0
  1  6  1  0  0  0  0
  1  8  1  0  0  0  0
  2 12  1  0  0  0  0
  3 16  1  6  0  0  0
  3 10  1  0  0  0  0
  3 14  1  0  0  0  0
  4  8  2  0  0  0  0
  4 15  1  0  0  0  0
  5  1  2  0  0  0  0
  7  4  1  0  0  0  0
  9  5  1  0  0  0  0
  9  7  2  0  0  0  0
 10 11  1  0  0  0  0
 11  7  1  0  0  0  0
 11  2  2  0  0  0  0
 12 15  2  0  0  0  0
 13 35  1  6  0  0  0
 13  2  1  0  0  0  0
 14 13  1  0  0  0  0
 16 17  1  6  0  0  0
 18 16  1  0  0  0  0
 19 18  1  0  0  0  0
 20 19  2  0  0  0  0
 21 19  1  0  0  0  0
 22 21  1  0  0  0  0
 23 22  1  0  0  0  0
 25 23  1  0  0  0  0
 25 24  1  0  0  0  0
 26 22  1  0  0  0  0
 26 27  1  0  0  0  0
 27 29  1  0  0  0  0
 27 28  2  0  0  0  0
 29 33  1  0  0  0  0
 30 32  2  0  0  0  0
 32 31  1  0  0  0  0
 33 31  2  0  0  0  0
 34 30  1  0  0  0  0
 34 29  2  0  0  0  0
 37 36  2  0  0  0  0
 37 42  1  0  0  0  0
 38 40  1  0  0  0  0
 38 41  2  0  0  0  0
 39 36  1  0  0  0  0
 40 35  1  6  0  0  0
 40 39  1  0  0  0  0
 41 37  1  0  0  0  0
 42 43  1  0  0  0  0
M  END
>  <MODEL>
5

>  <REMARK>
 VINA RESULT:      -8.9      2.297      6.954
  Name = 
  12 active torsions:
  status: ('A' for Active; 'I' for Inactive)
    1  A    between atoms: C_1  and  C_34
    2  A    between atoms: C_1  and  C_35
    3  A    between atoms: C_2  and  N_6
    4  A    between atoms: C_2  and  C_13
    5  A    between atoms: C_3  and  N_4
    6  A    between atoms: C_3  and  C_12
    7  A    between atoms: N_4  and  C_15
    8  A    between atoms: N_4  and  C_22
    9  A    between atoms: C_11  and  C_14
   10  A    between atoms: C_14  and  C_22
   11  A    between atoms: C_15  and  C_42
   12  A    between atoms: C_19  and  O_25
                            x       y       z     vdW  Elec       q    Type
                         _______ _______ _______ _____ _____    ______ ____

>  <TORSDO>
F 12

$$$$
=
 OpenBabel10262422233D

 43 47  0  0  1  0  0  0  0  0999 V2000
  193.4650  175.3070  136.3150 C   0  0  0  0  0  0  0  0  0  0  0  0
  188.9820  177.4840  137.1990 C   0  0  0  0  0  0  0  0  0  0  0  0
  188.5920  177.6780  139.9810 C   0  0  2  0  0  3  0  0  0  0  0  0
  191.2500  176.2640  136.0830 C   0  0  0  0  0  0  0  0  0  0  0  0
  193.4430  175.5810  137.6810 C   0  0  0  0  0  3  0  0  0  0  0  0
  194.6510  174.6440  135.7090 C   0  0  0  0  0  1  0  0  0  0  0  0
  191.2140  176.5360  137.4700 C   0  0  0  0  0  0  0  0  0  0  0  0
  192.3700  175.6480  135.5180 C   0  0  0  0  0  3  0  0  0  0  0  0
  192.3250  176.1910  138.2560 C   0  0  0  0  0  3  0  0  0  0  0  0
  190.0300  177.4900  139.4930 C   0  0  0  0  0  2  0  0  0  0  0  0
  190.0690  177.1390  138.0320 C   0  0  0  0  0  0  0  0  0  0  0  0
  189.0430  177.2150  135.8300 C   0  0  0  0  0  3  0  0  0  0  0  0
  187.7290  178.1030  137.7650 C   0  0  2  0  0  3  0  0  0  0  0  0
  187.9050  178.6440  139.1190 N   0  0  0  0  0  2  0  0  0  0  0  0
  190.1690  176.6090  135.2740 C   0  0  0  0  0  3  0  0  0  0  0  0
  188.5460  178.1380  141.4440 C   0  0  2  0  0  3  0  0  0  0  0  0
  189.7880  177.6840  142.2080 C   0  0  0  0  0  1  0  0  0  0  0  0
  187.3520  177.6080  142.0930 N   0  0  0  0  0  2  0  0  0  0  0  0
  186.1650  178.3740  142.2990 C   0  0  0  0  0  0  0  0  0  0  0  0
  185.9940  179.4650  141.6900 O   0  0  0  0  0  0  0  0  0  0  0  0
  185.1560  177.9240  143.3170 C   0  0  0  0  0  2  0  0  0  0  0  0
  184.9780  178.8630  144.4300 N   0  0  0  0  0  0  0  0  0  0  0  0
  183.6980  179.5520  144.2950 C   0  0  0  0  0  2  0  0  0  0  0  0
  181.2840  179.0720  143.9280 C   0  0  0  0  0  1  0  0  0  0  0  0
  182.7000  178.6730  143.5640 C   0  0  0  0  0  2  0  0  0  0  0  0
  184.9930  178.1500  145.7030 C   0  0  0  0  0  2  0  0  0  0  0  0
  186.0090  178.7560  146.6160 C   0  0  0  0  0  0  0  0  0  0  0  0
  185.6920  179.7790  147.2850 O   0  0  0  0  0  0  0  0  0  0  0  0
  187.3590  178.1670  146.7570 C   0  0  0  0  0  0  0  0  0  0  0  0
  189.3380  177.1780  145.7470 C   0  0  0  0  0  3  0  0  0  0  0  0
  189.2310  177.4770  148.1460 C   0  0  0  0  0  3  0  0  0  0  0  0
  189.9240  177.0530  147.0090 C   0  0  0  0  0  3  0  0  0  0  0  0
  187.9530  178.0290  148.0200 C   0  0  0  0  0  3  0  0  0  0  0  0
  188.0580  177.7320  145.6200 C   0  0  0  0  0  3  0  0  0  0  0  0
  186.5580  177.1300  137.7070 C   0  0  0  0  0  2  0  0  0  0  0  0
  182.9150  177.6090  136.5810 C   0  0  0  0  0  3  0  0  0  0  0  0
  182.4260  178.2570  137.6590 C   0  0  0  0  0  0  0  0  0  0  0  0
  184.6110  178.2310  138.7740 C   0  0  0  0  0  3  0  0  0  0  0  0
  184.2880  176.9910  136.6230 C   0  0  0  0  0  2  0  0  0  0  0  0
  185.2510  177.8660  137.4560 C   0  0  2  0  0  3  0  0  0  0  0  0
  183.2880  178.4410  138.8510 C   0  0  0  0  0  3  0  0  0  0  0  0
  181.1250  178.7730  137.6810 O   0  0  0  0  0  0  0  0  0  0  0  0
  180.0410  178.1110  138.3270 C   0  0  0  0  0  1  0  0  0  0  0  0
  1  5  1  0  0  0  0
  2 13  1  0  0  0  0
  2 11  1  0  0  0  0
  3 16  1  1  0  0  0
  4  7  1  0  0  0  0
  5  9  2  0  0  0  0
  6  1  1  0  0  0  0
  7 11  2  0  0  0  0
  7  9  1  0  0  0  0
  8  4  1  0  0  0  0
  8  1  2  0  0  0  0
 10  3  1  0  0  0  0
 11 10  1  0  0  0  0
 12  2  2  0  0  0  0
 13 35  1  1  0  0  0
 13 14  1  0  0  0  0
 14  3  1  0  0  0  0
 15 12  1  0  0  0  0
 15  4  2  0  0  0  0
 16 18  1  0  0  0  0
 16 17  1  1  0  0  0
 18 19  1  0  0  0  0
 19 21  1  0  0  0  0
 20 19  2  0  0  0  0
 21 22  1  0  0  0  0
 22 26  1  0  0  0  0
 23 22  1  0  0  0  0
 25 24  1  0  0  0  0
 25 23  1  0  0  0  0
 26 27  1  0  0  0  0
 27 29  1  0  0  0  0
 27 28  2  0  0  0  0
 29 33  1  0  0  0  0
 30 32  2  0  0  0  0
 32 31  1  0  0  0  0
 33 31  2  0  0  0  0
 34 30  1  0  0  0  0
 34 29  2  0  0  0  0
 36 39  1  0  0  0  0
 36 37  2  0  0  0  0
 37 42  1  0  0  0  0
 37 41  1  0  0  0  0
 38 41  2  0  0  0  0
 39 40  1  0  0  0  0
 40 35  1  1  0  0  0
 40 38  1  0  0  0  0
 42 43  1  0  0  0  0
M  END
>  <MODEL>
6

>  <REMARK>
 VINA RESULT:      -8.7      2.519      8.729
  Name = 
  12 active torsions:
  status: ('A' for Active; 'I' for Inactive)
    1  A    between atoms: C_1  and  C_34
    2  A    between atoms: C_1  and  C_35
    3  A    between atoms: C_2  and  N_6
    4  A    between atoms: C_2  and  C_13
    5  A    between atoms: C_3  and  N_4
    6  A    between atoms: C_3  and  C_12
    7  A    between atoms: N_4  and  C_15
    8  A    between atoms: N_4  and  C_22
    9  A    between atoms: C_11  and  C_14
   10  A    between atoms: C_14  and  C_22
   11  A    between atoms: C_15  and  C_42
   12  A    between atoms: C_19  and  O_25
                            x       y       z     vdW  Elec       q    Type
                         _______ _______ _______ _____ _____    ______ ____

>  <TORSDO>
F 12

$$$$
=
 OpenBabel10262422233D

 43 47  0  0  1  0  0  0  0  0999 V2000
  188.8640  177.3290  144.7900 C   0  0  0  0  0  0  0  0  0  0  0  0
  190.7170  177.3490  140.0800 C   0  0  0  0  0  0  0  0  0  0  0  0
  188.5780  177.2160  138.2550 C   0  0  2  0  0  3  0  0  0  0  0  0
  190.3280  177.2660  142.8580 C   0  0  0  0  0  0  0  0  0  0  0  0
  187.7630  177.4970  143.9530 C   0  0  0  0  0  3  0  0  0  0  0  0
  188.6740  177.2640  146.2650 C   0  0  0  0  0  1  0  0  0  0  0  0
  189.2150  177.4250  142.0010 C   0  0  0  0  0  0  0  0  0  0  0  0
  190.1440  177.2130  144.2430 C   0  0  0  0  0  3  0  0  0  0  0  0
  187.9360  177.5440  142.5670 C   0  0  0  0  0  3  0  0  0  0  0  0
  188.2500  177.6810  139.6750 C   0  0  0  0  0  2  0  0  0  0  0  0
  189.4100  177.4560  140.6040 C   0  0  0  0  0  0  0  0  0  0  0  0
  191.8030  177.2020  140.9460 C   0  0  0  0  0  3  0  0  0  0  0  0
  190.9670  177.3470  138.5930 C   0  0  2  0  0  3  0  0  0  0  0  0
  189.8270  177.8420  137.8100 N   0  0  0  0  0  2  0  0  0  0  0  0
  191.6110  177.1600  142.3260 C   0  0  0  0  0  3  0  0  0  0  0  0
  187.4400  177.5370  137.2770 C   0  0  2  0  0  3  0  0  0  0  0  0
  187.5360  178.9720  136.7630 C   0  0  0  0  0  1  0  0  0  0  0  0
  186.1520  177.3380  137.9340 N   0  0  0  0  0  2  0  0  0  0  0  0
  184.9640  176.9650  137.2340 C   0  0  0  0  0  0  0  0  0  0  0  0
  185.0270  176.5280  136.0540 O   0  0  0  0  0  0  0  0  0  0  0  0
  183.6230  177.1830  137.8780 C   0  0  0  0  0  2  0  0  0  0  0  0
  183.4960  178.4780  138.5560 N   0  0  0  0  0  0  0  0  0  0  0  0
  182.4900  179.2930  137.8800 C   0  0  0  0  0  2  0  0  0  0  0  0
  181.3760  181.5020  138.1410 C   0  0  0  0  0  1  0  0  0  0  0  0
  181.8420  180.2530  138.8610 C   0  0  0  0  0  2  0  0  0  0  0  0
  183.0870  178.2860  139.9430 C   0  0  0  0  0  2  0  0  0  0  0  0
  184.1020  178.8840  140.8620 C   0  0  0  0  0  0  0  0  0  0  0  0
  185.1580  179.3710  140.3690 O   0  0  0  0  0  0  0  0  0  0  0  0
  183.8770  178.9280  142.3240 C   0  0  0  0  0  0  0  0  0  0  0  0
  182.4010  178.6350  144.2360 C   0  0  0  0  0  3  0  0  0  0  0  0
  184.6930  179.3320  144.5780 C   0  0  0  0  0  3  0  0  0  0  0  0
  183.4390  178.9990  145.0970 C   0  0  0  0  0  3  0  0  0  0  0  0
  184.9100  179.2990  143.1990 C   0  0  0  0  0  3  0  0  0  0  0  0
  182.6180  178.6010  142.8520 C   0  0  0  0  0  3  0  0  0  0  0  0
  191.4140  175.9740  138.1100 C   0  0  0  0  0  2  0  0  0  0  0  0
  194.9430  174.8020  137.1370 C   0  0  0  0  0  3  0  0  0  0  0  0
  194.9250  175.0930  135.8200 C   0  0  0  0  0  0  0  0  0  0  0  0
  192.6510  176.0030  135.9630 C   0  0  0  0  0  3  0  0  0  0  0  0
  193.6770  174.8780  137.9500 C   0  0  0  0  0  2  0  0  0  0  0  0
  192.7900  176.0460  137.4650 C   0  0  2  0  0  3  0  0  0  0  0  0
  193.6710  175.5810  135.1990 C   0  0  0  0  0  3  0  0  0  0  0  0
  196.0660  174.9570  135.0200 O   0  0  0  0  0  0  0  0  0  0  0  0
  197.0130  176.0060  134.8360 C   0  0  0  0  0  1  0  0  0  0  0  0
  1  6  1  0  0  0  0
  2 11  2  0  0  0  0
  2 12  1  0  0  0  0
  3 16  1  6  0  0  0
  3 10  1  0  0  0  0
  4  8  2  0  0  0  0
  5  1  2  0  0  0  0
  7  9  2  0  0  0  0
  7  4  1  0  0  0  0
  8  1  1  0  0  0  0
  9  5  1  0  0  0  0
 10 11  1  0  0  0  0
 11  7  1  0  0  0  0
 12 15  2  0  0  0  0
 13 35  1  6  0  0  0
 13  2  1  0  0  0  0
 14  3  1  0  0  0  0
 14 13  1  0  0  0  0
 15  4  1  0  0  0  0
 16 17  1  1  0  0  0
 16 18  1  0  0  0  0
 19 21  1  0  0  0  0
 19 18  1  0  0  0  0
 20 19  2  0  0  0  0
 21 22  1  0  0  0  0
 22 26  1  0  0  0  0
 23 22  1  0  0  0  0
 23 25  1  0  0  0  0
 24 25  1  0  0  0  0
 26 27  1  0  0  0  0
 27 29  1  0  0  0  0
 28 27  2  0  0  0  0
 29 34  2  0  0  0  0
 29 33  1  0  0  0  0
 30 32  2  0  0  0  0
 31 32  1  0  0  0  0
 33 31  2  0  0  0  0
 34 30  1  0  0  0  0
 36 39  1  0  0  0  0
 37 36  2  0  0  0  0
 38 40  1  0  0  0  0
 40 39  1  0  0  0  0
 40 35  1  1  0  0  0
 41 37  1  0  0  0  0
 41 38  2  0  0  0  0
 42 37  1  0  0  0  0
 43 42  1  0  0  0  0
M  END
>  <MODEL>
7

>  <REMARK>
 VINA RESULT:      -8.6      2.536      8.976
  Name = 
  12 active torsions:
  status: ('A' for Active; 'I' for Inactive)
    1  A    between atoms: C_1  and  C_34
    2  A    between atoms: C_1  and  C_35
    3  A    between atoms: C_2  and  N_6
    4  A    between atoms: C_2  and  C_13
    5  A    between atoms: C_3  and  N_4
    6  A    between atoms: C_3  and  C_12
    7  A    between atoms: N_4  and  C_15
    8  A    between atoms: N_4  and  C_22
    9  A    between atoms: C_11  and  C_14
   10  A    between atoms: C_14  and  C_22
   11  A    between atoms: C_15  and  C_42
   12  A    between atoms: C_19  and  O_25
                            x       y       z     vdW  Elec       q    Type
                         _______ _______ _______ _____ _____    ______ ____

>  <TORSDO>
F 12

$$$$
=
 OpenBabel10262422233D

 43 47  0  0  1  0  0  0  0  0999 V2000
  189.8410  177.0250  135.9720 C   0  0  0  0  0  0  0  0  0  0  0  0
  189.2700  177.4530  140.9830 C   0  0  0  0  0  0  0  0  0  0  0  0
  186.9080  178.8900  141.5150 C   0  0  2  0  0  3  0  0  0  0  0  0
  190.1840  176.9810  138.3710 C   0  0  0  0  0  0  0  0  0  0  0  0
  188.5570  177.5300  136.1620 C   0  0  0  0  0  3  0  0  0  0  0  0
  190.3490  176.7850  134.5940 C   0  0  0  0  0  1  0  0  0  0  0  0
  188.8860  177.5040  138.5740 C   0  0  0  0  0  0  0  0  0  0  0  0
  190.6530  176.7510  137.0750 C   0  0  0  0  0  3  0  0  0  0  0  0
  188.0820  177.7690  137.4540 C   0  0  0  0  0  3  0  0  0  0  0  0
  187.0350  178.2530  140.1290 C   0  0  0  0  0  2  0  0  0  0  0  0
  188.4310  177.7510  139.8860 C   0  0  0  0  0  0  0  0  0  0  0  0
  190.5450  176.9280  140.7600 C   0  0  0  0  0  3  0  0  0  0  0  0
  188.8340  177.7300  142.3990 C   0  0  2  0  0  3  0  0  0  0  0  0
  187.3880  177.9500  142.5320 N   0  0  0  0  0  2  0  0  0  0  0  0
  191.0000  176.6930  139.4630 C   0  0  0  0  0  3  0  0  0  0  0  0
  185.4630  179.3110  141.8130 C   0  0  2  0  0  3  0  0  0  0  0  0
  185.1270  179.1350  143.2920 C   0  0  0  0  0  1  0  0  0  0  0  0
  184.5400  178.5230  141.0030 N   0  0  0  0  0  2  0  0  0  0  0  0
  183.8580  179.0430  139.8610 C   0  0  0  0  0  0  0  0  0  0  0  0
  184.2250  180.1280  139.3360 O   0  0  0  0  0  0  0  0  0  0  0  0
  182.6390  178.3370  139.3390 C   0  0  0  0  0  2  0  0  0  0  0  0
  182.8260  176.8940  139.1480 N   0  0  0  0  0  0  0  0  0  0  0  0
  181.7790  176.1630  139.8570 C   0  0  0  0  0  2  0  0  0  0  0  0
  179.3310  176.0440  140.2890 C   0  0  0  0  0  1  0  0  0  0  0  0
  180.4090  176.6160  139.3890 C   0  0  0  0  0  2  0  0  0  0  0  0
  182.7540  176.5560  137.7310 C   0  0  0  0  0  2  0  0  0  0  0  0
  184.1320  176.4110  137.1700 C   0  0  0  0  0  0  0  0  0  0  0  0
  184.7010  177.4280  136.6850 O   0  0  0  0  0  0  0  0  0  0  0  0
  184.8330  175.1080  137.1940 C   0  0  0  0  0  0  0  0  0  0  0  0
  184.8000  172.7080  137.5890 C   0  0  0  0  0  3  0  0  0  0  0  0
  186.8450  173.7830  136.8690 C   0  0  0  0  0  3  0  0  0  0  0  0
  186.1500  172.6280  137.2370 C   0  0  0  0  0  3  0  0  0  0  0  0
  186.1900  175.0170  136.8500 C   0  0  0  0  0  3  0  0  0  0  0  0
  184.1430  173.9440  137.5700 C   0  0  0  0  0  3  0  0  0  0  0  0
  189.6260  178.8820  143.0050 C   0  0  0  0  0  2  0  0  0  0  0  0
  189.5130  177.3050  146.5080 C   0  0  0  0  0  3  0  0  0  0  0  0
  190.7420  176.7510  146.5490 C   0  0  0  0  0  0  0  0  0  0  0  0
  191.2950  177.6010  144.3150 C   0  0  0  0  0  3  0  0  0  0  0  0
  188.9760  177.8710  145.2190 C   0  0  0  0  0  2  0  0  0  0  0  0
  190.1100  178.5320  144.4040 C   0  0  2  0  0  3  0  0  0  0  0  0
  191.5990  176.7900  145.3400 C   0  0  0  0  0  3  0  0  0  0  0  0
  191.2400  176.1450  147.7090 O   0  0  0  0  0  0  0  0  0  0  0  0
  192.4350  175.3690  147.7260 C   0  0  0  0  0  1  0  0  0  0  0  0
  1  5  2  0  0  0  0
  1  8  1  0  0  0  0
  2 13  1  0  0  0  0
  3 16  1  1  0  0  0
  3 14  1  0  0  0  0
  4  7  1  0  0  0  0
  4 15  1  0  0  0  0
  5  9  1  0  0  0  0
  6  1  1  0  0  0  0
  7 11  1  0  0  0  0
  8  4  2  0  0  0  0
  9  7  2  0  0  0  0
 10  3  1  0  0  0  0
 11 10  1  0  0  0  0
 11  2  2  0  0  0  0
 12  2  1  0  0  0  0
 13 14  1  0  0  0  0
 13 35  1  6  0  0  0
 15 12  2  0  0  0  0
 16 17  1  1  0  0  0
 18 16  1  0  0  0  0
 19 18  1  0  0  0  0
 20 19  2  0  0  0  0
 21 19  1  0  0  0  0
 22 21  1  0  0  0  0
 22 23  1  0  0  0  0
 25 23  1  0  0  0  0
 25 24  1  0  0  0  0
 26 22  1  0  0  0  0
 27 29  1  0  0  0  0
 27 26  1  0  0  0  0
 28 27  2  0  0  0  0
 29 34  1  0  0  0  0
 31 32  2  0  0  0  0
 32 30  1  0  0  0  0
 33 31  1  0  0  0  0
 33 29  2  0  0  0  0
 34 30  2  0  0  0  0
 36 37  2  0  0  0  0
 37 42  1  0  0  0  0
 38 40  1  0  0  0  0
 38 41  2  0  0  0  0
 39 36  1  0  0  0  0
 40 35  1  6  0  0  0
 40 39  1  0  0  0  0
 41 37  1  0  0  0  0
 42 43  1  0  0  0  0
M  END
>  <MODEL>
8

>  <REMARK>
 VINA RESULT:      -8.6      2.652      7.590
  Name = 
  12 active torsions:
  status: ('A' for Active; 'I' for Inactive)
    1  A    between atoms: C_1  and  C_34
    2  A    between atoms: C_1  and  C_35
    3  A    between atoms: C_2  and  N_6
    4  A    between atoms: C_2  and  C_13
    5  A    between atoms: C_3  and  N_4
    6  A    between atoms: C_3  and  C_12
    7  A    between atoms: N_4  and  C_15
    8  A    between atoms: N_4  and  C_22
    9  A    between atoms: C_11  and  C_14
   10  A    between atoms: C_14  and  C_22
   11  A    between atoms: C_15  and  C_42
   12  A    between atoms: C_19  and  O_25
                            x       y       z     vdW  Elec       q    Type
                         _______ _______ _______ _____ _____    ______ ____

>  <TORSDO>
F 12

$$$$
=
 OpenBabel10262422233D

 43 47  0  0  1  0  0  0  0  0999 V2000
  180.7420  178.6980  143.5020 C   0  0  0  0  0  0  0  0  0  0  0  0
  185.7500  178.7530  142.7730 C   0  0  0  0  0  0  0  0  0  0  0  0
  186.2880  178.1630  140.0730 C   0  0  2  0  0  3  0  0  0  0  0  0
  183.1440  178.7670  143.8160 C   0  0  0  0  0  0  0  0  0  0  0  0
  180.9210  178.6330  142.1220 C   0  0  0  0  0  3  0  0  0  0  0  0
  179.3670  178.6880  144.0740 C   0  0  0  0  0  1  0  0  0  0  0  0
  183.3370  178.6910  142.4180 C   0  0  0  0  0  0  0  0  0  0  0  0
  181.8510  178.7640  144.3470 C   0  0  0  0  0  3  0  0  0  0  0  0
  182.2100  178.6280  141.5820 C   0  0  0  0  0  3  0  0  0  0  0  0
  184.8760  178.6490  140.4090 C   0  0  0  0  0  2  0  0  0  0  0  0
  184.6470  178.6730  141.8950 C   0  0  0  0  0  0  0  0  0  0  0  0
  185.5360  178.8380  144.1510 C   0  0  0  0  0  3  0  0  0  0  0  0
  187.1660  178.7070  142.2570 C   0  0  2  0  0  3  0  0  0  0  0  0
  187.2700  178.9600  140.8140 N   0  0  0  0  0  2  0  0  0  0  0  0
  184.2420  178.8450  144.6700 C   0  0  0  0  0  3  0  0  0  0  0  0
  186.5670  178.2340  138.5660 C   0  0  2  0  0  3  0  0  0  0  0  0
  185.2840  178.4840  137.7750 C   0  0  0  0  0  1  0  0  0  0  0  0
  187.1850  176.9910  138.1170 N   0  0  0  0  0  2  0  0  0  0  0  0
  187.8490  176.8540  136.8600 C   0  0  0  0  0  0  0  0  0  0  0  0
  188.1690  177.8740  136.1910 O   0  0  0  0  0  0  0  0  0  0  0  0
  188.0860  175.4840  136.2900 C   0  0  0  0  0  2  0  0  0  0  0  0
  189.3680  174.8910  136.6860 N   0  0  0  0  0  0  0  0  0  0  0  0
  189.3970  173.4810  136.3100 C   0  0  0  0  0  2  0  0  0  0  0  0
  187.9140  171.5050  136.0100 C   0  0  0  0  0  1  0  0  0  0  0  0
  188.1440  172.7780  136.8000 C   0  0  0  0  0  2  0  0  0  0  0  0
  190.4710  175.5750  136.0190 C   0  0  0  0  0  2  0  0  0  0  0  0
  191.7170  175.4520  136.8350 C   0  0  0  0  0  0  0  0  0  0  0  0
  192.6650  174.7440  136.3950 O   0  0  0  0  0  0  0  0  0  0  0  0
  191.8560  176.1580  138.1290 C   0  0  0  0  0  0  0  0  0  0  0  0
  193.2680  177.0990  139.8710 C   0  0  0  0  0  3  0  0  0  0  0  0
  190.8600  177.2320  140.0690 C   0  0  0  0  0  3  0  0  0  0  0  0
  192.1330  177.5030  140.5780 C   0  0  0  0  0  3  0  0  0  0  0  0
  190.7220  176.5610  138.8510 C   0  0  0  0  0  3  0  0  0  0  0  0
  193.1310  176.4260  138.6500 C   0  0  0  0  0  3  0  0  0  0  0  0
  187.8500  177.4010  142.6390 C   0  0  0  0  0  2  0  0  0  0  0  0
  189.6490  177.5410  146.0330 C   0  0  0  0  0  3  0  0  0  0  0  0
  190.8070  176.9320  145.7030 C   0  0  0  0  0  0  0  0  0  0  0  0
  190.0960  176.6530  143.3710 C   0  0  0  0  0  3  0  0  0  0  0  0
  188.4880  177.5400  145.0720 C   0  0  0  0  0  2  0  0  0  0  0  0
  188.9900  177.6500  143.6160 C   0  0  2  0  0  3  0  0  0  0  0  0
  190.9610  176.3450  144.3510 C   0  0  0  0  0  3  0  0  0  0  0  0
  191.8760  176.8460  146.6020 O   0  0  0  0  0  0  0  0  0  0  0  0
  192.3440  175.6090  147.1320 C   0  0  0  0  0  1  0  0  0  0  0  0
  1  6  1  0  0  0  0
  1  8  1  0  0  0  0
  2 12  1  0  0  0  0
  3 16  1  6  0  0  0
  3 10  1  0  0  0  0
  3 14  1  0  0  0  0
  4  8  2  0  0  0  0
  4 15  1  0  0  0  0
  5  1  2  0  0  0  0
  7  4  1  0  0  0  0
  9  5  1  0  0  0  0
  9  7  2  0  0  0  0
 10 11  1  0  0  0  0
 11  7  1  0  0  0  0
 11  2  2  0  0  0  0
 12 15  2  0  0  0  0
 13 35  1  6  0  0  0
 13  2  1  0  0  0  0
 14 13  1  0  0  0  0
 16 17  1  6  0  0  0
 18 16  1  0  0  0  0
 19 18  1  0  0  0  0
 20 19  2  0  0  0  0
 21 22  1  0  0  0  0
 21 19  1  0  0  0  0
 23 22  1  0  0  0  0
 23 25  1  0  0  0  0
 24 25  1  0  0  0  0
 26 22  1  0  0  0  0
 26 27  1  0  0  0  0
 27 29  1  0  0  0  0
 28 27  2  0  0  0  0
 29 34  2  0  0  0  0
 29 33  1  0  0  0  0
 30 32  2  0  0  0  0
 31 32  1  0  0  0  0
 33 31  2  0  0  0  0
 34 30  1  0  0  0  0
 37 36  2  0  0  0  0
 37 42  1  0  0  0  0
 38 40  1  0  0  0  0
 38 41  2  0  0  0  0
 39 36  1  0  0  0  0
 40 35  1  6  0  0  0
 40 39  1  0  0  0  0
 41 37  1  0  0  0  0
 42 43  1  0  0  0  0
M  END
>  <MODEL>
9

>  <REMARK>
 VINA RESULT:      -8.6      2.327      6.842
  Name = 
  12 active torsions:
  status: ('A' for Active; 'I' for Inactive)
    1  A    between atoms: C_1  and  C_34
    2  A    between atoms: C_1  and  C_35
    3  A    between atoms: C_2  and  N_6
    4  A    between atoms: C_2  and  C_13
    5  A    between atoms: C_3  and  N_4
    6  A    between atoms: C_3  and  C_12
    7  A    between atoms: N_4  and  C_15
    8  A    between atoms: N_4  and  C_22
    9  A    between atoms: C_11  and  C_14
   10  A    between atoms: C_14  and  C_22
   11  A    between atoms: C_15  and  C_42
   12  A    between atoms: C_19  and  O_25
                            x       y       z     vdW  Elec       q    Type
                         _______ _______ _______ _____ _____    ______ ____

>  <TORSDO>
F 12

$$$$
