=
 OpenBabel10262420053D

 27 30  0  0  0  0  0  0  0  0999 V2000
  186.9420  178.2150  142.4700 C   0  0  0  0  0  0  0  0  0  0  0  0
  185.4420  178.4470  140.5430 O   0  0  0  0  0  0  0  0  0  0  0  0
  183.3840  178.7200  145.2770 C   0  0  0  0  0  3  0  0  0  0  0  0
  181.3100  179.0430  144.1290 F   0  0  0  0  0  0  0  0  0  0  0  0
  186.7930  178.2310  143.7640 N   0  0  0  0  0  0  0  0  0  0  0  0
  183.3060  178.7600  142.8350 C   0  0  0  0  0  0  0  0  0  0  0  0
  182.6020  178.8790  141.6430 O   0  0  0  0  0  1  0  0  0  0  0  0
  184.6840  178.5540  142.8410 C   0  0  0  0  0  0  0  0  0  0  0  0
  188.2260  178.0810  141.8240 N   0  0  0  0  0  0  0  0  0  0  0  0
  182.6510  178.8420  144.0780 C   0  0  0  0  0  0  0  0  0  0  0  0
  185.4000  178.4320  144.0070 C   0  0  0  0  0  0  0  0  0  0  0  0
  185.6580  178.4200  141.7830 C   0  0  0  0  0  0  0  0  0  0  0  0
  184.7750  178.5120  145.2510 C   0  0  0  0  0  3  0  0  0  0  0  0
  191.5760  176.2270  143.6970 C   0  0  0  0  0  3  0  0  0  0  0  0
  189.3530  177.4480  142.4740 C   0  0  0  0  0  0  0  0  0  0  0  0
  190.4270  178.2220  142.9510 C   0  0  0  0  0  3  0  0  0  0  0  0
  191.5280  177.6160  143.5620 C   0  0  0  0  0  3  0  0  0  0  0  0
  190.5230  175.4440  143.2200 C   0  0  0  0  0  3  0  0  0  0  0  0
  189.4220  176.0500  142.6100 C   0  0  0  0  0  3  0  0  0  0  0  0
  188.3880  178.5990  140.4650 C   0  0  0  0  0  2  0  0  0  0  0  0
  190.4010  175.4020  138.1460 C   0  0  0  0  0  2  0  0  0  0  0  0
  189.5200  175.8930  137.0060 C   0  0  0  0  0  2  0  0  0  0  0  0
  188.8700  177.5040  139.5230 C   0  0  0  0  0  3  0  0  0  0  0  0
  191.1330  176.5340  138.8740 C   0  0  0  0  0  2  0  0  0  0  0  0
  188.1100  176.1510  137.5250 C   0  0  0  0  0  2  0  0  0  0  0  0
  188.0020  177.4780  138.2690 C   0  0  0  0  0  2  0  0  0  0  0  0
  190.3070  177.8010  139.1230 C   0  0  0  0  0  2  0  0  0  0  0  0
  1  5  2  0  0  0  0
  2 12  2  0  0  0  0
  5 11  1  0  0  0  0
  6  8  2  0  0  0  0
  6 10  1  0  0  0  0
  7  6  1  0  0  0  0
  8 11  1  0  0  0  0
  9  1  1  0  0  0  0
  9 15  1  0  0  0  0
 10  4  1  0  0  0  0
 10  3  2  0  0  0  0
 11 13  2  0  0  0  0
 12  1  1  0  0  0  0
 12  8  1  0  0  0  0
 13  3  1  0  0  0  0
 15 19  2  0  0  0  0
 15 16  1  0  0  0  0
 16 17  2  0  0  0  0
 17 14  1  0  0  0  0
 18 14  2  0  0  0  0
 19 18  1  0  0  0  0
 20  9  1  0  0  0  0
 21 24  1  0  0  0  0
 22 25  1  0  0  0  0
 22 21  1  0  0  0  0
 23 20  1  0  0  0  0
 24 27  1  0  0  0  0
 25 26  1  0  0  0  0
 26 23  1  0  0  0  0
 27 23  1  0  0  0  0
M  END
>  <MODEL>
1

>  <REMARK>
 VINA RESULT:      -8.3      0.000      0.000
  Name = 
  3 active torsions:
  status: ('A' for Active; 'I' for Inactive)
    1  A    between atoms: C_1  and  N_15
    2  A    between atoms: C_1  and  C_18
    3  A    between atoms: C_9  and  N_15
                            x       y       z     vdW  Elec       q    Type
                         _______ _______ _______ _____ _____    ______ ____

>  <TORSDO>
F 3

$$$$
=
 OpenBabel10262420053D

 27 30  0  0  0  0  0  0  0  0999 V2000
  188.6650  177.6380  140.8700 C   0  0  0  0  0  0  0  0  0  0  0  0
  186.5950  178.6400  140.0140 O   0  0  0  0  0  0  0  0  0  0  0  0
  190.2360  177.2860  136.6040 C   0  0  0  0  0  3  0  0  0  0  0  0
  188.7020  178.1000  134.9590 F   0  0  0  0  0  0  0  0  0  0  0  0
  189.7630  177.1870  140.3340 N   0  0  0  0  0  0  0  0  0  0  0  0
  188.0670  178.1920  137.2670 C   0  0  0  0  0  0  0  0  0  0  0  0
  186.8390  178.7610  136.9510 O   0  0  0  0  0  1  0  0  0  0  0  0
  188.4190  177.9280  138.5880 C   0  0  0  0  0  0  0  0  0  0  0  0
  188.3980  177.5860  142.2880 N   0  0  0  0  0  0  0  0  0  0  0  0
  188.9960  177.8640  136.2620 C   0  0  0  0  0  0  0  0  0  0  0  0
  189.6280  177.3670  138.9240 C   0  0  0  0  0  0  0  0  0  0  0  0
  187.7330  178.1290  139.8430 C   0  0  0  0  0  0  0  0  0  0  0  0
  190.5650  177.0310  137.9480 C   0  0  0  0  0  3  0  0  0  0  0  0
  191.5550  177.4440  145.1480 C   0  0  0  0  0  3  0  0  0  0  0  0
  189.4580  177.5320  143.2700 C   0  0  0  0  0  0  0  0  0  0  0  0
  189.9650  178.7140  143.8390 C   0  0  0  0  0  3  0  0  0  0  0  0
  191.0030  178.6710  144.7730 C   0  0  0  0  0  3  0  0  0  0  0  0
  191.0690  176.2610  144.5860 C   0  0  0  0  0  3  0  0  0  0  0  0
  190.0320  176.3050  143.6520 C   0  0  0  0  0  3  0  0  0  0  0  0
  187.0070  177.5940  142.7420 C   0  0  0  0  0  2  0  0  0  0  0  0
  187.3550  178.3440  147.0980 C   0  0  0  0  0  2  0  0  0  0  0  0
  185.8600  178.6170  147.0090 C   0  0  0  0  0  2  0  0  0  0  0  0
  186.9200  177.9970  144.2080 C   0  0  0  0  0  3  0  0  0  0  0  0
  187.7730  177.0410  146.4080 C   0  0  0  0  0  2  0  0  0  0  0  0
  185.5660  179.4550  145.7710 C   0  0  0  0  0  2  0  0  0  0  0  0
  185.5570  178.6190  144.4960 C   0  0  0  0  0  2  0  0  0  0  0  0
  187.0870  176.7540  145.0690 C   0  0  0  0  0  2  0  0  0  0  0  0
  1  9  1  0  0  0  0
  3 13  1  0  0  0  0
  4 10  1  0  0  0  0
  5  1  2  0  0  0  0
  6  8  2  0  0  0  0
  7  6  1  0  0  0  0
  8 11  1  0  0  0  0
  8 12  1  0  0  0  0
  9 20  1  0  0  0  0
  9 15  1  0  0  0  0
 10  3  2  0  0  0  0
 10  6  1  0  0  0  0
 11  5  1  0  0  0  0
 12  2  2  0  0  0  0
 12  1  1  0  0  0  0
 13 11  2  0  0  0  0
 15 19  2  0  0  0  0
 15 16  1  0  0  0  0
 16 17  2  0  0  0  0
 17 14  1  0  0  0  0
 18 14  2  0  0  0  0
 19 18  1  0  0  0  0
 20 23  1  0  0  0  0
 22 21  1  0  0  0  0
 23 26  1  0  0  0  0
 23 27  1  0  0  0  0
 24 21  1  0  0  0  0
 25 22  1  0  0  0  0
 26 25  1  0  0  0  0
 27 24  1  0  0  0  0
M  END
>  <MODEL>
2

>  <REMARK>
 VINA RESULT:      -8.0      2.880      6.601
  Name = 
  3 active torsions:
  status: ('A' for Active; 'I' for Inactive)
    1  A    between atoms: C_1  and  N_15
    2  A    between atoms: C_1  and  C_18
    3  A    between atoms: C_9  and  N_15
                            x       y       z     vdW  Elec       q    Type
                         _______ _______ _______ _____ _____    ______ ____

>  <TORSDO>
F 3

$$$$
=
 OpenBabel10262420053D

 27 30  0  0  0  0  0  0  0  0999 V2000
  189.9800  177.3560  141.4010 C   0  0  0  0  0  0  0  0  0  0  0  0
  187.7170  178.1520  141.9170 O   0  0  0  0  0  0  0  0  0  0  0  0
  190.7570  176.7330  145.8500 C   0  0  0  0  0  3  0  0  0  0  0  0
  188.8950  177.3280  147.2300 F   0  0  0  0  0  0  0  0  0  0  0  0
  190.9920  176.9320  142.1010 N   0  0  0  0  0  0  0  0  0  0  0  0
  188.6940  177.5840  144.8570 C   0  0  0  0  0  0  0  0  0  0  0  0
  187.3940  178.0630  144.9750 O   0  0  0  0  0  1  0  0  0  0  0  0
  189.3010  177.4500  143.6100 C   0  0  0  0  0  0  0  0  0  0  0  0
  190.0180  177.5030  139.9650 N   0  0  0  0  0  0  0  0  0  0  0  0
  189.4390  177.2170  145.9920 C   0  0  0  0  0  0  0  0  0  0  0  0
  190.5840  176.9770  143.4690 C   0  0  0  0  0  0  0  0  0  0  0  0
  188.8480  177.7220  142.2660 C   0  0  0  0  0  0  0  0  0  0  0  0
  191.3440  176.6080  144.5780 C   0  0  0  0  0  3  0  0  0  0  0  0
  192.6940  175.2950  137.4890 C   0  0  0  0  0  3  0  0  0  0  0  0
  190.9260  176.7410  139.1360 C   0  0  0  0  0  0  0  0  0  0  0  0
  192.2690  177.1360  139.0000 C   0  0  0  0  0  3  0  0  0  0  0  0
  193.1480  176.4170  138.1860 C   0  0  0  0  0  3  0  0  0  0  0  0
  191.3620  174.8940  137.6050 C   0  0  0  0  0  3  0  0  0  0  0  0
  190.4840  175.6140  138.4200 C   0  0  0  0  0  3  0  0  0  0  0  0
  189.1030  178.4520  139.3300 C   0  0  0  0  0  2  0  0  0  0  0  0
  187.9540  176.7050  135.4210 C   0  0  0  0  0  2  0  0  0  0  0  0
  186.5800  177.2690  135.7520 C   0  0  0  0  0  2  0  0  0  0  0  0
  188.4730  177.8450  138.0840 C   0  0  0  0  0  3  0  0  0  0  0  0
  189.0860  177.7190  135.6160 C   0  0  0  0  0  2  0  0  0  0  0  0
  186.2540  176.9950  137.2160 C   0  0  0  0  0  2  0  0  0  0  0  0
  186.9550  177.9690  138.1560 C   0  0  0  0  0  2  0  0  0  0  0  0
  188.9730  178.6020  136.8630 C   0  0  0  0  0  2  0  0  0  0  0  0
  1  5  2  0  0  0  0
  1 12  1  0  0  0  0
  2 12  2  0  0  0  0
  3 10  1  0  0  0  0
  5 11  1  0  0  0  0
  6  7  1  0  0  0  0
  6 10  2  0  0  0  0
  8  6  1  0  0  0  0
  9  1  1  0  0  0  0
 10  4  1  0  0  0  0
 11  8  2  0  0  0  0
 11 13  1  0  0  0  0
 12  8  1  0  0  0  0
 13  3  2  0  0  0  0
 14 18  2  0  0  0  0
 14 17  1  0  0  0  0
 15  9  1  0  0  0  0
 16 15  1  0  0  0  0
 17 16  2  0  0  0  0
 18 19  1  0  0  0  0
 19 15  2  0  0  0  0
 20  9  1  0  0  0  0
 21 24  1  0  0  0  0
 21 22  1  0  0  0  0
 22 25  1  0  0  0  0
 23 26  1  0  0  0  0
 23 20  1  0  0  0  0
 24 27  1  0  0  0  0
 25 26  1  0  0  0  0
 27 23  1  0  0  0  0
M  END
>  <MODEL>
3

>  <REMARK>
 VINA RESULT:      -7.7      3.424      4.824
  Name = 
  3 active torsions:
  status: ('A' for Active; 'I' for Inactive)
    1  A    between atoms: C_1  and  N_15
    2  A    between atoms: C_1  and  C_18
    3  A    between atoms: C_9  and  N_15
                            x       y       z     vdW  Elec       q    Type
                         _______ _______ _______ _____ _____    ______ ____

>  <TORSDO>
F 3

$$$$
=
 OpenBabel10262420053D

 27 30  0  0  0  0  0  0  0  0999 V2000
  186.8060  177.9790  142.6250 C   0  0  0  0  0  0  0  0  0  0  0  0
  184.7720  178.0770  143.9920 O   0  0  0  0  0  0  0  0  0  0  0  0
  184.3840  179.2150  138.9650 C   0  0  0  0  0  3  0  0  0  0  0  0
  182.0620  179.5460  139.4330 F   0  0  0  0  0  0  0  0  0  0  0  0
  187.0870  178.1890  141.3710 N   0  0  0  0  0  0  0  0  0  0  0  0
  183.5110  178.8890  141.2230 C   0  0  0  0  0  0  0  0  0  0  0  0
  182.4600  178.8880  142.1330 O   0  0  0  0  0  1  0  0  0  0  0  0
  184.8070  178.5630  141.6190 C   0  0  0  0  0  0  0  0  0  0  0  0
  187.7840  177.5370  143.5910 N   0  0  0  0  0  0  0  0  0  0  0  0
  183.3030  179.2210  139.8720 C   0  0  0  0  0  0  0  0  0  0  0  0
  185.8610  178.5580  140.7390 C   0  0  0  0  0  0  0  0  0  0  0  0
  185.3740  178.1830  142.8920 C   0  0  0  0  0  0  0  0  0  0  0  0
  185.6820  178.8810  139.3940 C   0  0  0  0  0  3  0  0  0  0  0  0
  191.9660  178.2140  143.1210 C   0  0  0  0  0  3  0  0  0  0  0  0
  189.2000  177.7800  143.4200 C   0  0  0  0  0  0  0  0  0  0  0  0
  189.9950  176.8800  142.6880 C   0  0  0  0  0  3  0  0  0  0  0  0
  191.3670  177.0970  142.5360 C   0  0  0  0  0  3  0  0  0  0  0  0
  191.1930  179.1130  143.8590 C   0  0  0  0  0  3  0  0  0  0  0  0
  189.8220  178.8960  144.0100 C   0  0  0  0  0  3  0  0  0  0  0  0
  187.3240  176.8240  144.7830 C   0  0  0  0  0  2  0  0  0  0  0  0
  189.6320  178.4300  148.2100 C   0  0  0  0  0  2  0  0  0  0  0  0
  188.3080  178.3120  148.9520 C   0  0  0  0  0  2  0  0  0  0  0  0
  187.8910  177.4590  146.0450 C   0  0  0  0  0  3  0  0  0  0  0  0
  190.0040  177.1620  147.4340 C   0  0  0  0  0  2  0  0  0  0  0  0
  187.1770  178.8100  148.0610 C   0  0  0  0  0  2  0  0  0  0  0  0
  186.7620  177.7750  147.0200 C   0  0  0  0  0  2  0  0  0  0  0  0
  188.8490  176.4750  146.7000 C   0  0  0  0  0  2  0  0  0  0  0  0
  1 12  1  0  0  0  0
  1  9  1  0  0  0  0
  3 13  2  0  0  0  0
  3 10  1  0  0  0  0
  4 10  1  0  0  0  0
  5  1  2  0  0  0  0
  6  8  1  0  0  0  0
  6  7  1  0  0  0  0
  8 12  1  0  0  0  0
  9 20  1  0  0  0  0
 10  6  2  0  0  0  0
 11  5  1  0  0  0  0
 11  8  2  0  0  0  0
 12  2  2  0  0  0  0
 13 11  1  0  0  0  0
 14 18  1  0  0  0  0
 15  9  1  0  0  0  0
 15 19  1  0  0  0  0
 16 15  2  0  0  0  0
 17 16  1  0  0  0  0
 17 14  2  0  0  0  0
 18 19  2  0  0  0  0
 20 23  1  0  0  0  0
 21 22  1  0  0  0  0
 23 27  1  0  0  0  0
 23 26  1  0  0  0  0
 24 21  1  0  0  0  0
 25 22  1  0  0  0  0
 26 25  1  0  0  0  0
 27 24  1  0  0  0  0
M  END
>  <MODEL>
4

>  <REMARK>
 VINA RESULT:      -7.5      2.724      5.612
  Name = 
  3 active torsions:
  status: ('A' for Active; 'I' for Inactive)
    1  A    between atoms: C_1  and  N_15
    2  A    between atoms: C_1  and  C_18
    3  A    between atoms: C_9  and  N_15
                            x       y       z     vdW  Elec       q    Type
                         _______ _______ _______ _____ _____    ______ ____

>  <TORSDO>
F 3

$$$$
=
 OpenBabel10262420053D

 27 30  0  0  0  0  0  0  0  0999 V2000
  189.6840  177.3490  141.1530 C   0  0  0  0  0  0  0  0  0  0  0  0
  191.8510  177.5100  142.2920 O   0  0  0  0  0  0  0  0  0  0  0  0
  187.5690  177.5000  145.1890 C   0  0  0  0  0  3  0  0  0  0  0  0
  189.0740  177.6640  147.0410 F   0  0  0  0  0  0  0  0  0  0  0  0
  188.4400  177.3170  141.5340 N   0  0  0  0  0  0  0  0  0  0  0  0
  189.9850  177.5690  144.8280 C   0  0  0  0  0  0  0  0  0  0  0  0
  191.2850  177.6450  145.3120 O   0  0  0  0  0  1  0  0  0  0  0  0
  189.7290  177.4800  143.4610 C   0  0  0  0  0  0  0  0  0  0  0  0
  190.0900  177.2350  139.7720 N   0  0  0  0  0  0  0  0  0  0  0  0
  188.8820  177.5800  145.7020 C   0  0  0  0  0  0  0  0  0  0  0  0
  188.4520  177.4050  142.9600 C   0  0  0  0  0  0  0  0  0  0  0  0
  190.5940  177.4450  142.3050 C   0  0  0  0  0  0  0  0  0  0  0  0
  187.3430  177.4120  143.8030 C   0  0  0  0  0  3  0  0  0  0  0  0
  187.5260  178.2470  136.5210 C   0  0  0  0  0  3  0  0  0  0  0  0
  189.2130  177.5910  138.6780 C   0  0  0  0  0  0  0  0  0  0  0  0
  188.1410  176.7530  138.3220 C   0  0  0  0  0  3  0  0  0  0  0  0
  187.3020  177.0800  137.2540 C   0  0  0  0  0  3  0  0  0  0  0  0
  188.5920  179.0860  136.8550 C   0  0  0  0  0  3  0  0  0  0  0  0
  189.4300  178.7580  137.9230 C   0  0  0  0  0  3  0  0  0  0  0  0
  191.4370  176.7450  139.4730 C   0  0  0  0  0  2  0  0  0  0  0  0
  191.0340  175.0650  135.3900 C   0  0  0  0  0  2  0  0  0  0  0  0
  192.5560  175.0690  135.4100 C   0  0  0  0  0  2  0  0  0  0  0  0
  191.5300  176.2670  138.0300 C   0  0  0  0  0  3  0  0  0  0  0  0
  190.4150  174.4430  136.6470 C   0  0  0  0  0  2  0  0  0  0  0  0
  193.0560  176.3750  136.0150 C   0  0  0  0  0  2  0  0  0  0  0  0
  192.9690  176.3780  137.5380 C   0  0  0  0  0  2  0  0  0  0  0  0
  191.0970  174.8100  137.9680 C   0  0  0  0  0  2  0  0  0  0  0  0
  1  5  2  0  0  0  0
  1 12  1  0  0  0  0
  2 12  2  0  0  0  0
  3 10  1  0  0  0  0
  5 11  1  0  0  0  0
  6  7  1  0  0  0  0
  6 10  2  0  0  0  0
  8  6  1  0  0  0  0
  9  1  1  0  0  0  0
 10  4  1  0  0  0  0
 11  8  2  0  0  0  0
 11 13  1  0  0  0  0
 12  8  1  0  0  0  0
 13  3  2  0  0  0  0
 14 18  2  0  0  0  0
 14 17  1  0  0  0  0
 15  9  1  0  0  0  0
 16 15  1  0  0  0  0
 17 16  2  0  0  0  0
 18 19  1  0  0  0  0
 19 15  2  0  0  0  0
 20  9  1  0  0  0  0
 21 22  1  0  0  0  0
 21 24  1  0  0  0  0
 22 25  1  0  0  0  0
 23 20  1  0  0  0  0
 24 27  1  0  0  0  0
 25 26  1  0  0  0  0
 26 23  1  0  0  0  0
 27 23  1  0  0  0  0
M  END
>  <MODEL>
5

>  <REMARK>
 VINA RESULT:      -7.3      3.533      5.437
  Name = 
  3 active torsions:
  status: ('A' for Active; 'I' for Inactive)
    1  A    between atoms: C_1  and  N_15
    2  A    between atoms: C_1  and  C_18
    3  A    between atoms: C_9  and  N_15
                            x       y       z     vdW  Elec       q    Type
                         _______ _______ _______ _____ _____    ______ ____

>  <TORSDO>
F 3

$$$$
=
 OpenBabel10262420053D

 27 30  0  0  0  0  0  0  0  0999 V2000
  189.7930  177.5750  140.8660 C   0  0  0  0  0  0  0  0  0  0  0  0
  192.1470  177.1180  141.3850 O   0  0  0  0  0  0  0  0  0  0  0  0
  190.5330  176.3640  136.5320 C   0  0  0  0  0  3  0  0  0  0  0  0
  192.7950  175.7160  136.1030 F   0  0  0  0  0  0  0  0  0  0  0  0
  189.0530  177.5060  139.7970 N   0  0  0  0  0  0  0  0  0  0  0  0
  192.1970  176.3930  138.3210 C   0  0  0  0  0  0  0  0  0  0  0  0
  193.4930  176.1910  138.7800 O   0  0  0  0  0  1  0  0  0  0  0  0
  191.1920  176.8390  139.1770 C   0  0  0  0  0  0  0  0  0  0  0  0
  189.3020  178.0500  142.1380 N   0  0  0  0  0  0  0  0  0  0  0  0
  191.8550  176.1520  136.9780 C   0  0  0  0  0  0  0  0  0  0  0  0
  189.9030  177.0450  138.7460 C   0  0  0  0  0  0  0  0  0  0  0  0
  191.1810  177.1780  140.5810 C   0  0  0  0  0  0  0  0  0  0  0  0
  189.5390  176.8150  137.4200 C   0  0  0  0  0  3  0  0  0  0  0  0
  185.1770  177.9350  143.2030 C   0  0  0  0  0  3  0  0  0  0  0  0
  187.9010  177.9950  142.4920 C   0  0  0  0  0  0  0  0  0  0  0  0
  186.9640  178.8030  141.8220 C   0  0  0  0  0  3  0  0  0  0  0  0
  185.6120  178.7710  142.1730 C   0  0  0  0  0  3  0  0  0  0  0  0
  186.0950  177.1330  143.8840 C   0  0  0  0  0  3  0  0  0  0  0  0
  187.4470  177.1660  143.5340 C   0  0  0  0  0  3  0  0  0  0  0  0
  190.2580  178.6010  143.1000 C   0  0  0  0  0  2  0  0  0  0  0  0
  189.6130  176.5030  146.9520 C   0  0  0  0  0  2  0  0  0  0  0  0
  191.1340  176.4730  147.0080 C   0  0  0  0  0  2  0  0  0  0  0  0
  190.2670  177.7800  144.3820 C   0  0  0  0  0  3  0  0  0  0  0  0
  189.0490  177.8870  146.6150 C   0  0  0  0  0  2  0  0  0  0  0  0
  191.6890  176.1050  145.6370 C   0  0  0  0  0  2  0  0  0  0  0  0
  191.6810  177.2870  144.6740 C   0  0  0  0  0  2  0  0  0  0  0  0
  189.8050  178.6620  145.5310 C   0  0  0  0  0  2  0  0  0  0  0  0
  1  9  1  0  0  0  0
  3 10  2  0  0  0  0
  3 13  1  0  0  0  0
  4 10  1  0  0  0  0
  5  1  2  0  0  0  0
  6  7  1  0  0  0  0
  6  8  2  0  0  0  0
  8 12  1  0  0  0  0
  9 15  1  0  0  0  0
  9 20  1  0  0  0  0
 10  6  1  0  0  0  0
 11  8  1  0  0  0  0
 11  5  1  0  0  0  0
 12  1  1  0  0  0  0
 12  2  2  0  0  0  0
 13 11  2  0  0  0  0
 14 18  1  0  0  0  0
 15 19  1  0  0  0  0
 16 17  1  0  0  0  0
 16 15  2  0  0  0  0
 17 14  2  0  0  0  0
 19 18  2  0  0  0  0
 20 23  1  0  0  0  0
 21 22  1  0  0  0  0
 23 26  1  0  0  0  0
 23 27  1  0  0  0  0
 24 21  1  0  0  0  0
 25 22  1  0  0  0  0
 26 25  1  0  0  0  0
 27 24  1  0  0  0  0
M  END
>  <MODEL>
6

>  <REMARK>
 VINA RESULT:      -7.2      3.954      7.744
  Name = 
  3 active torsions:
  status: ('A' for Active; 'I' for Inactive)
    1  A    between atoms: C_1  and  N_15
    2  A    between atoms: C_1  and  C_18
    3  A    between atoms: C_9  and  N_15
                            x       y       z     vdW  Elec       q    Type
                         _______ _______ _______ _____ _____    ______ ____

>  <TORSDO>
F 3

$$$$
=
 OpenBabel10262420053D

 27 30  0  0  0  0  0  0  0  0999 V2000
  189.3330  177.4010  140.3230 C   0  0  0  0  0  0  0  0  0  0  0  0
  187.1280  178.4590  140.1320 O   0  0  0  0  0  0  0  0  0  0  0  0
  188.7490  177.0390  144.8310 C   0  0  0  0  0  3  0  0  0  0  0  0
  186.6590  177.9220  145.5890 F   0  0  0  0  0  0  0  0  0  0  0  0
  190.0500  176.9300  141.3030 N   0  0  0  0  0  0  0  0  0  0  0  0
  187.1640  178.0180  143.2500 C   0  0  0  0  0  0  0  0  0  0  0  0
  185.9510  178.6340  142.9680 O   0  0  0  0  0  1  0  0  0  0  0  0
  188.0770  177.7290  142.2380 C   0  0  0  0  0  0  0  0  0  0  0  0
  189.7910  177.4350  138.9540 N   0  0  0  0  0  0  0  0  0  0  0  0
  187.5110  177.6630  144.5660 C   0  0  0  0  0  0  0  0  0  0  0  0
  189.2820  177.1200  142.4920 C   0  0  0  0  0  0  0  0  0  0  0  0
  188.0560  177.9440  140.8090 C   0  0  0  0  0  0  0  0  0  0  0  0
  189.6510  176.7600  143.7880 C   0  0  0  0  0  3  0  0  0  0  0  0
  192.7500  174.7200  137.5260 C   0  0  0  0  0  3  0  0  0  0  0  0
  190.7990  176.5240  138.4560 C   0  0  0  0  0  0  0  0  0  0  0  0
  190.4270  175.2950  137.8830 C   0  0  0  0  0  3  0  0  0  0  0  0
  191.3960  174.4010  137.4170 C   0  0  0  0  0  3  0  0  0  0  0  0
  193.1370  175.9330  138.1010 C   0  0  0  0  0  3  0  0  0  0  0  0
  192.1680  176.8260  138.5660 C   0  0  0  0  0  3  0  0  0  0  0  0
  189.2110  178.4220  138.0430 C   0  0  0  0  0  2  0  0  0  0  0  0
  187.6120  176.1410  134.5940 C   0  0  0  0  0  2  0  0  0  0  0  0
  186.5130  177.1930  134.6110 C   0  0  0  0  0  2  0  0  0  0  0  0
  188.4370  177.7360  136.9260 C   0  0  0  0  0  3  0  0  0  0  0  0
  189.0220  176.7390  134.6570 C   0  0  0  0  0  2  0  0  0  0  0  0
  186.0800  177.4570  136.0480 C   0  0  0  0  0  2  0  0  0  0  0  0
  187.0550  178.3670  136.7880 C   0  0  0  0  0  2  0  0  0  0  0  0
  189.1950  177.9180  135.6200 C   0  0  0  0  0  2  0  0  0  0  0  0
  1 12  1  0  0  0  0
  1  5  2  0  0  0  0
  2 12  2  0  0  0  0
  5 11  1  0  0  0  0
  6 10  2  0  0  0  0
  7  6  1  0  0  0  0
  8 11  2  0  0  0  0
  8  6  1  0  0  0  0
  9  1  1  0  0  0  0
 10  3  1  0  0  0  0
 10  4  1  0  0  0  0
 11 13  1  0  0  0  0
 12  8  1  0  0  0  0
 13  3  2  0  0  0  0
 14 18  1  0  0  0  0
 15 19  1  0  0  0  0
 15  9  1  0  0  0  0
 16 15  2  0  0  0  0
 17 14  2  0  0  0  0
 17 16  1  0  0  0  0
 18 19  2  0  0  0  0
 20  9  1  0  0  0  0
 21 22  1  0  0  0  0
 21 24  1  0  0  0  0
 22 25  1  0  0  0  0
 23 20  1  0  0  0  0
 24 27  1  0  0  0  0
 25 26  1  0  0  0  0
 26 23  1  0  0  0  0
 27 23  1  0  0  0  0
M  END
>  <MODEL>
7

>  <REMARK>
 VINA RESULT:      -7.2      2.568      4.423
  Name = 
  3 active torsions:
  status: ('A' for Active; 'I' for Inactive)
    1  A    between atoms: C_1  and  N_15
    2  A    between atoms: C_1  and  C_18
    3  A    between atoms: C_9  and  N_15
                            x       y       z     vdW  Elec       q    Type
                         _______ _______ _______ _____ _____    ______ ____

>  <TORSDO>
F 3

$$$$
=
 OpenBabel10262420053D

 27 30  0  0  0  0  0  0  0  0999 V2000
  185.5180  178.4170  143.9070 C   0  0  0  0  0  0  0  0  0  0  0  0
  185.7590  177.9540  141.5100 O   0  0  0  0  0  0  0  0  0  0  0  0
  181.0340  178.9990  143.3260 C   0  0  0  0  0  3  0  0  0  0  0  0
  180.3280  178.7170  141.0580 F   0  0  0  0  0  0  0  0  0  0  0  0
  184.5250  178.7110  144.6960 N   0  0  0  0  0  0  0  0  0  0  0  0
  182.6510  178.4550  141.5780 C   0  0  0  0  0  0  0  0  0  0  0  0
  182.9620  178.1810  140.2510 O   0  0  0  0  0  1  0  0  0  0  0  0
  183.6390  178.4750  142.5600 C   0  0  0  0  0  0  0  0  0  0  0  0
  186.8880  178.3380  144.3570 N   0  0  0  0  0  0  0  0  0  0  0  0
  181.3280  178.7220  141.9740 C   0  0  0  0  0  0  0  0  0  0  0  0
  183.3550  178.7420  143.8770 C   0  0  0  0  0  0  0  0  0  0  0  0
  185.0660  178.2520  142.5170 C   0  0  0  0  0  0  0  0  0  0  0  0
  182.0530  179.0110  144.2960 C   0  0  0  0  0  3  0  0  0  0  0  0
  187.9300  177.5590  148.4160 C   0  0  0  0  0  3  0  0  0  0  0  0
  187.2320  178.0590  145.7340 C   0  0  0  0  0  0  0  0  0  0  0  0
  186.6900  178.8330  146.7750 C   0  0  0  0  0  3  0  0  0  0  0  0
  187.0330  178.5830  148.1070 C   0  0  0  0  0  3  0  0  0  0  0  0
  188.4850  176.7870  147.3930 C   0  0  0  0  0  3  0  0  0  0  0  0
  188.1420  177.0370  146.0630 C   0  0  0  0  0  3  0  0  0  0  0  0
  187.9610  178.5430  143.3830 C   0  0  0  0  0  2  0  0  0  0  0  0
  191.6790  176.6620  144.8980 C   0  0  0  0  0  2  0  0  0  0  0  0
  191.6810  175.9540  143.5510 C   0  0  0  0  0  2  0  0  0  0  0  0
  189.1830  177.7080  143.7420 C   0  0  0  0  0  3  0  0  0  0  0  0
  191.4590  178.1750  144.7850 C   0  0  0  0  0  2  0  0  0  0  0  0
  190.2700  175.4840  143.2190 C   0  0  0  0  0  2  0  0  0  0  0  0
  189.3910  176.6170  142.6980 C   0  0  0  0  0  2  0  0  0  0  0  0
  190.4060  178.6130  143.7620 C   0  0  0  0  0  2  0  0  0  0  0  0
  1  9  1  0  0  0  0
  1  5  2  0  0  0  0
  2 12  2  0  0  0  0
  3 13  1  0  0  0  0
  4 10  1  0  0  0  0
  6 10  1  0  0  0  0
  6  8  2  0  0  0  0
  7  6  1  0  0  0  0
  8 11  1  0  0  0  0
  9 15  1  0  0  0  0
 10  3  2  0  0  0  0
 11 13  2  0  0  0  0
 11  5  1  0  0  0  0
 12  8  1  0  0  0  0
 12  1  1  0  0  0  0
 15 19  2  0  0  0  0
 15 16  1  0  0  0  0
 16 17  2  0  0  0  0
 17 14  1  0  0  0  0
 18 14  2  0  0  0  0
 19 18  1  0  0  0  0
 20 23  1  0  0  0  0
 20  9  1  0  0  0  0
 22 21  1  0  0  0  0
 23 27  1  0  0  0  0
 24 21  1  0  0  0  0
 25 22  1  0  0  0  0
 26 25  1  0  0  0  0
 26 23  1  0  0  0  0
 27 24  1  0  0  0  0
M  END
>  <MODEL>
8

>  <REMARK>
 VINA RESULT:      -7.0      2.685      4.171
  Name = 
  3 active torsions:
  status: ('A' for Active; 'I' for Inactive)
    1  A    between atoms: C_1  and  N_15
    2  A    between atoms: C_1  and  C_18
    3  A    between atoms: C_9  and  N_15
                            x       y       z     vdW  Elec       q    Type
                         _______ _______ _______ _____ _____    ______ ____

>  <TORSDO>
F 3

$$$$
=
 OpenBabel10262420053D

 27 30  0  0  0  0  0  0  0  0999 V2000
  188.1800  177.9920  142.0150 C   0  0  0  0  0  0  0  0  0  0  0  0
  186.1470  177.9690  143.3890 O   0  0  0  0  0  0  0  0  0  0  0  0
  190.6770  177.1030  145.7250 C   0  0  0  0  0  3  0  0  0  0  0  0
  189.3720  176.9110  147.7210 F   0  0  0  0  0  0  0  0  0  0  0  0
  189.4510  177.8240  142.2420 N   0  0  0  0  0  0  0  0  0  0  0  0
  188.2500  177.3800  145.6570 C   0  0  0  0  0  0  0  0  0  0  0  0
  187.0120  177.4100  146.2870 O   0  0  0  0  0  1  0  0  0  0  0  0
  188.3660  177.5960  144.2850 C   0  0  0  0  0  0  0  0  0  0  0  0
  187.6470  178.3190  140.7130 N   0  0  0  0  0  0  0  0  0  0  0  0
  189.4290  177.1280  146.3830 C   0  0  0  0  0  0  0  0  0  0  0  0
  189.5800  177.5700  143.6420 C   0  0  0  0  0  0  0  0  0  0  0  0
  187.3960  177.8760  143.2530 C   0  0  0  0  0  0  0  0  0  0  0  0
  190.7630  177.3250  144.3380 C   0  0  0  0  0  3  0  0  0  0  0  0
  189.6580  177.3550  137.0810 C   0  0  0  0  0  3  0  0  0  0  0  0
  188.3430  177.9870  139.4890 C   0  0  0  0  0  0  0  0  0  0  0  0
  188.7710  179.0030  138.6150 C   0  0  0  0  0  3  0  0  0  0  0  0
  189.4270  178.6890  137.4210 C   0  0  0  0  0  3  0  0  0  0  0  0
  189.2310  176.3350  137.9330 C   0  0  0  0  0  3  0  0  0  0  0  0
  188.5760  176.6480  139.1260 C   0  0  0  0  0  3  0  0  0  0  0  0
  186.3560  179.0040  140.6330 C   0  0  0  0  0  2  0  0  0  0  0  0
  183.8840  176.4670  137.9680 C   0  0  0  0  0  2  0  0  0  0  0  0
  182.7170  177.0860  138.7250 C   0  0  0  0  0  2  0  0  0  0  0  0
  185.3330  178.1460  139.9030 C   0  0  0  0  0  3  0  0  0  0  0  0
  184.9020  177.5010  137.4780 C   0  0  0  0  0  2  0  0  0  0  0  0
  183.0370  177.1280  140.2140 C   0  0  0  0  0  2  0  0  0  0  0  0
  183.9690  178.2800  140.5730 C   0  0  0  0  0  2  0  0  0  0  0  0
  185.2260  178.6280  138.4640 C   0  0  0  0  0  2  0  0  0  0  0  0
  1  5  2  0  0  0  0
  1 12  1  0  0  0  0
  3 10  1  0  0  0  0
  5 11  1  0  0  0  0
  6  7  1  0  0  0  0
  6 10  2  0  0  0  0
  8  6  1  0  0  0  0
  9  1  1  0  0  0  0
 10  4  1  0  0  0  0
 11  8  2  0  0  0  0
 11 13  1  0  0  0  0
 12  2  2  0  0  0  0
 12  8  1  0  0  0  0
 13  3  2  0  0  0  0
 14 17  2  0  0  0  0
 14 18  1  0  0  0  0
 15  9  1  0  0  0  0
 16 15  2  0  0  0  0
 17 16  1  0  0  0  0
 18 19  2  0  0  0  0
 19 15  1  0  0  0  0
 20  9  1  0  0  0  0
 21 22  1  0  0  0  0
 22 25  1  0  0  0  0
 23 26  1  0  0  0  0
 23 20  1  0  0  0  0
 24 21  1  0  0  0  0
 24 27  1  0  0  0  0
 25 26  1  0  0  0  0
 27 23  1  0  0  0  0
M  END
>  <MODEL>
9

>  <REMARK>
 VINA RESULT:      -7.0      3.100      5.357
  Name = 
  3 active torsions:
  status: ('A' for Active; 'I' for Inactive)
    1  A    between atoms: C_1  and  N_15
    2  A    between atoms: C_1  and  C_18
    3  A    between atoms: C_9  and  N_15
                            x       y       z     vdW  Elec       q    Type
                         _______ _______ _______ _____ _____    ______ ____

>  <TORSDO>
F 3

$$$$
