=
 OpenBabel10262423353D

 34 38  0  0  1  0  0  0  0  0999 V2000
  184.4590  178.5930  139.8270 C   0  0  1  0  0  0  0  0  0  0  0  0
  185.6650  177.1570  136.6970 O   0  0  0  0  0  0  0  0  0  0  0  0
  183.4920  177.8780  137.6450 C   0  0  1  0  0  3  0  0  0  0  0  0
  184.7310  179.9650  139.8830 O   0  0  0  0  0  1  0  0  0  0  0  0
  183.1390  178.3150  139.0740 C   0  0  2  0  0  3  0  0  0  0  0  0
  187.7620  177.4550  135.6080 C   0  0  0  0  0  1  0  0  0  0  0  0
  187.0800  177.1580  136.9300 C   0  0  1  0  0  0  0  0  0  0  0  0
  187.5880  178.2320  137.9470 C   0  0  0  0  0  2  0  0  0  0  0  0
  185.0040  178.0610  137.5550 C   0  0  1  0  0  3  0  0  0  0  0  0
  186.8200  178.3850  139.1390 O   0  0  0  0  0  0  0  0  0  0  0  0
  185.5040  177.8980  138.9710 C   0  0  1  0  0  3  0  0  0  0  0  0
  187.5820  175.7760  137.3930 C   0  0  1  0  0  3  0  0  0  0  0  0
  186.6420  174.6640  137.1060 C   0  0  0  0  0  2  0  0  0  0  0  0
  187.7600  174.9190  136.2890 O   0  0  0  0  0  0  0  0  0  0  0  0
  181.5660  179.7060  137.8760 O   0  0  0  0  0  1  0  0  0  0  0  0
  182.1060  179.4450  139.1370 C   0  0  1  0  0  3  0  0  0  0  0  0
  180.9950  179.0870  140.1040 C   0  0  0  0  0  1  0  0  0  0  0  0
  183.0910  176.4740  137.4630 C   0  0  0  0  0  0  0  0  0  0  0  0
  182.7630  175.3230  137.3120 C   0  0  0  0  0  3  0  0  0  0  0  0
  184.4380  178.0250  141.2490 C   0  0  0  0  0  2  0  0  0  0  0  0
  185.5330  178.6050  142.1410 C   0  0  2  0  0  3  0  0  0  0  0  0
  186.2700  177.4800  142.8480 C   0  0  0  0  0  2  0  0  0  0  0  0
  189.4500  177.8150  145.7950 C   0  0  2  0  0  3  0  0  0  0  0  0
  189.6110  176.8740  146.9750 C   0  0  0  0  0  2  0  0  0  0  0  0
  188.0070  178.1010  146.2370 C   0  0  1  0  0  3  0  0  0  0  0  0
  188.1760  177.9280  148.7060 C   0  0  0  0  0  1  0  0  0  0  0  0
  186.9600  177.5560  145.2610 C   0  0  0  0  0  2  0  0  0  0  0  0
  188.1780  177.1490  147.4050 C   0  0  2  0  0  3  0  0  0  0  0  0
  188.6980  177.6880  143.3920 C   0  0  0  0  0  2  0  0  0  0  0  0
  187.2710  178.0390  143.8440 C   0  0  1  0  0  3  0  0  0  0  0  0
  189.5360  177.0240  144.4860 C   0  0  0  0  0  2  0  0  0  0  0  0
  184.9400  179.4970  143.1240 N   0  0  0  0  0  2  0  0  0  0  0  0
  183.5070  178.9810  145.0080 C   0  0  0  0  0  1  0  0  0  0  0  0
  183.6630  178.9190  143.5030 C   0  0  0  0  0  2  0  0  0  0  0  0
  1  4  1  1  0  0  0
  1 20  1  0  0  0  0
  2  7  1  0  0  0  0
  3 18  1  1  0  0  0
  3  5  1  0  0  0  0
  5 16  1  6  0  0  0
  5  1  1  0  0  0  0
  7  6  1  6  0  0  0
  7 12  1  0  0  0  0
  7  8  1  0  0  0  0
  8 10  1  0  0  0  0
  9  2  1  6  0  0  0
  9  3  1  0  0  0  0
  9 11  1  0  0  0  0
 11 10  1  6  0  0  0
 11  1  1  0  0  0  0
 12 13  1  1  0  0  0
 14 13  1  0  0  0  0
 14 12  1  0  0  0  0
 15 16  1  0  0  0  0
 16 17  1  1  0  0  0
 19 18  3  0  0  0  0
 21 20  1  6  0  0  0
 21 22  1  0  0  0  0
 21 32  1  0  0  0  0
 23 31  1  6  0  0  0
 23 25  1  0  0  0  0
 23 24  1  0  0  0  0
 24 28  1  0  0  0  0
 25 27  1  6  0  0  0
 25 28  1  0  0  0  0
 28 26  1  1  0  0  0
 29 30  1  0  0  0  0
 29 31  1  0  0  0  0
 30 22  1  6  0  0  0
 30 27  1  0  0  0  0
 32 34  1  0  0  0  0
 34 33  1  0  0  0  0
M  END
>  <MODEL>
1

>  <REMARK>
 VINA RESULT:      -7.8      0.000      0.000
  Name = 
  9 active torsions:
  status: ('A' for Active; 'I' for Inactive)
    1  A    between atoms: C_1  and  C_8
    2  A    between atoms: C_3  and  C_25
    3  A    between atoms: C_5  and  C_19
    4  A    between atoms: C_6  and  C_18
    5  A    between atoms: C_6  and  C_28
    6  A    between atoms: C_8  and  C_18
    7  A    between atoms: C_12  and  C_20
    8  A    between atoms: C_18  and  N_30
    9  A    between atoms: N_30  and  C_31
                            x       y       z     vdW  Elec       q    Type
                         _______ _______ _______ _____ _____    ______ ____

>  <TORSDO>
F 9

$$$$
=
 OpenBabel10262423353D

 34 38  0  0  1  0  0  0  0  0999 V2000
  183.9480  178.4460  139.8100 C   0  0  1  0  0  0  0  0  0  0  0  0
  184.8880  176.9830  136.6030 O   0  0  0  0  0  0  0  0  0  0  0  0
  182.7900  177.5450  137.7970 C   0  0  1  0  0  3  0  0  0  0  0  0
  184.0910  179.8380  139.7840 O   0  0  0  0  0  1  0  0  0  0  0  0
  182.5780  178.0140  139.2430 C   0  0  2  0  0  3  0  0  0  0  0  0
  186.7940  177.4210  135.2440 C   0  0  0  0  0  1  0  0  0  0  0  0
  186.3140  177.1240  136.6510 C   0  0  1  0  0  0  0  0  0  0  0  0
  186.8380  178.2860  137.5580 C   0  0  0  0  0  2  0  0  0  0  0  0
  184.2540  177.8620  137.5070 C   0  0  1  0  0  3  0  0  0  0  0  0
  186.2140  178.4240  138.8320 O   0  0  0  0  0  0  0  0  0  0  0  0
  184.9400  177.8110  138.8520 C   0  0  1  0  0  3  0  0  0  0  0  0
  187.0010  175.8170  137.0940 C   0  0  1  0  0  3  0  0  0  0  0  0
  186.1260  174.6210  137.0230 C   0  0  0  0  0  2  0  0  0  0  0  0
  187.0720  174.9080  136.0200 O   0  0  0  0  0  0  0  0  0  0  0  0
  181.1600  179.6590  138.1800 O   0  0  0  0  0  1  0  0  0  0  0  0
  181.4560  179.0460  139.4000 C   0  0  1  0  0  3  0  0  0  0  0  0
  180.2100  178.3860  139.9550 C   0  0  0  0  0  1  0  0  0  0  0  0
  182.5070  176.1030  137.7160 C   0  0  0  0  0  0  0  0  0  0  0  0
  182.2730  174.9220  137.6510 C   0  0  0  0  0  3  0  0  0  0  0  0
  184.1590  177.9460  141.2420 C   0  0  0  0  0  2  0  0  0  0  0  0
  183.7390  178.9640  142.2990 C   0  0  2  0  0  3  0  0  0  0  0  0
  184.9500  179.3950  143.1090 C   0  0  0  0  0  2  0  0  0  0  0  0
  187.8910  176.8650  145.0710 C   0  0  2  0  0  3  0  0  0  0  0  0
  189.3910  177.0790  144.9720 C   0  0  0  0  0  2  0  0  0  0  0  0
  187.8070  176.8380  143.5380 C   0  0  1  0  0  3  0  0  0  0  0  0
  189.9810  175.8180  142.9160 C   0  0  0  0  0  1  0  0  0  0  0  0
  187.0590  178.0400  142.9560 C   0  0  0  0  0  2  0  0  0  0  0  0
  189.3040  177.0640  143.4540 C   0  0  2  0  0  3  0  0  0  0  0  0
  185.8040  178.2760  145.1710 C   0  0  0  0  0  2  0  0  0  0  0  0
  185.6980  178.1850  143.6400 C   0  0  1  0  0  3  0  0  0  0  0  0
  187.2320  178.1010  145.6920 C   0  0  0  0  0  2  0  0  0  0  0  0
  182.7470  178.3700  143.1810 N   0  0  0  0  0  2  0  0  0  0  0  0
  180.4190  178.5750  143.8160 C   0  0  0  0  0  1  0  0  0  0  0  0
  181.6170  179.2820  143.2210 C   0  0  0  0  0  2  0  0  0  0  0  0
  1  4  1  6  0  0  0
  1 20  1  0  0  0  0
  2  7  1  0  0  0  0
  3 18  1  1  0  0  0
  3  5  1  0  0  0  0
  5 16  1  6  0  0  0
  5  1  1  0  0  0  0
  7  6  1  6  0  0  0
  7 12  1  0  0  0  0
  7  8  1  0  0  0  0
  8 10  1  0  0  0  0
  9  2  1  6  0  0  0
  9  3  1  0  0  0  0
  9 11  1  0  0  0  0
 11 10  1  6  0  0  0
 11  1  1  0  0  0  0
 12 13  1  1  0  0  0
 14 13  1  0  0  0  0
 14 12  1  0  0  0  0
 15 16  1  0  0  0  0
 16 17  1  6  0  0  0
 19 18  3  0  0  0  0
 21 20  1  6  0  0  0
 21 22  1  0  0  0  0
 21 32  1  0  0  0  0
 23 24  1  6  0  0  0
 23 31  1  0  0  0  0
 25 27  1  6  0  0  0
 25 23  1  0  0  0  0
 27 30  1  0  0  0  0
 28 26  1  1  0  0  0
 28 25  1  0  0  0  0
 28 24  1  0  0  0  0
 29 31  1  0  0  0  0
 30 22  1  6  0  0  0
 30 29  1  0  0  0  0
 32 34  1  0  0  0  0
 34 33  1  0  0  0  0
M  END
>  <MODEL>
2

>  <REMARK>
 VINA RESULT:      -7.2      1.211      2.058
  Name = 
  9 active torsions:
  status: ('A' for Active; 'I' for Inactive)
    1  A    between atoms: C_1  and  C_8
    2  A    between atoms: C_3  and  C_25
    3  A    between atoms: C_5  and  C_19
    4  A    between atoms: C_6  and  C_18
    5  A    between atoms: C_6  and  C_28
    6  A    between atoms: C_8  and  C_18
    7  A    between atoms: C_12  and  C_20
    8  A    between atoms: C_18  and  N_30
    9  A    between atoms: N_30  and  C_31
                            x       y       z     vdW  Elec       q    Type
                         _______ _______ _______ _____ _____    ______ ____

>  <TORSDO>
F 9

$$$$
=
 OpenBabel10262423353D

 34 38  0  0  1  0  0  0  0  0999 V2000
  189.0960  177.4210  138.5520 C   0  0  1  0  0  0  0  0  0  0  0  0
  191.1250  175.6410  136.0970 O   0  0  0  0  0  0  0  0  0  0  0  0
  188.8460  176.6100  136.2090 C   0  0  1  0  0  3  0  0  0  0  0  0
  189.4740  178.7670  138.6280 O   0  0  0  0  0  1  0  0  0  0  0  0
  188.0830  177.1900  137.4080 C   0  0  2  0  0  3  0  0  0  0  0  0
  193.4840  175.6790  135.7760 C   0  0  0  0  0  1  0  0  0  0  0  0
  192.3730  175.5460  136.7980 C   0  0  1  0  0  0  0  0  0  0  0  0
  192.6180  176.6560  137.8720 C   0  0  0  0  0  2  0  0  0  0  0  0
  190.3120  176.6630  136.6320 C   0  0  1  0  0  3  0  0  0  0  0  0
  191.5160  176.9680  138.7210 O   0  0  0  0  0  0  0  0  0  0  0  0
  190.2890  176.5760  138.1400 C   0  0  1  0  0  3  0  0  0  0  0  0
  192.5430  174.1710  137.4730 C   0  0  1  0  0  3  0  0  0  0  0  0
  193.0150  173.1030  136.5590 C   0  0  0  0  0  2  0  0  0  0  0  0
  193.8930  173.7670  137.4370 O   0  0  0  0  0  0  0  0  0  0  0  0
  187.0610  178.5310  135.6770 O   0  0  0  0  0  1  0  0  0  0  0  0
  187.2110  178.4010  137.0590 C   0  0  1  0  0  3  0  0  0  0  0  0
  185.8490  178.2720  137.7110 C   0  0  0  0  0  1  0  0  0  0  0  0
  188.3860  175.2320  135.9720 C   0  0  0  0  0  0  0  0  0  0  0  0
  188.0070  174.1040  135.7760 C   0  0  0  0  0  3  0  0  0  0  0  0
  188.5410  176.9760  139.9080 C   0  0  0  0  0  2  0  0  0  0  0  0
  189.2470  177.6370  141.0890 C   0  0  2  0  0  3  0  0  0  0  0  0
  189.5080  176.6070  142.1750 C   0  0  0  0  0  2  0  0  0  0  0  0
  191.1600  177.2730  146.1410 C   0  0  2  0  0  3  0  0  0  0  0  0
  190.7110  176.5200  147.3810 C   0  0  0  0  0  2  0  0  0  0  0  0
  189.7020  177.6780  145.8760 C   0  0  1  0  0  3  0  0  0  0  0  0
  188.7930  177.8830  148.1750 C   0  0  0  0  0  1  0  0  0  0  0  0
  189.1170  177.0290  144.6190 C   0  0  0  0  0  2  0  0  0  0  0  0
  189.2670  176.9120  147.1100 C   0  0  2  0  0  3  0  0  0  0  0  0
  191.4860  176.8050  143.6860 C   0  0  0  0  0  2  0  0  0  0  0  0
  190.0450  177.2750  143.4280 C   0  0  1  0  0  3  0  0  0  0  0  0
  191.7110  176.2860  145.1080 C   0  0  0  0  0  2  0  0  0  0  0  0
  188.4150  178.7060  141.6180 N   0  0  0  0  0  2  0  0  0  0  0  0
  186.2230  178.3180  142.5720 C   0  0  0  0  0  1  0  0  0  0  0  0
  187.0390  178.3690  141.2980 C   0  0  0  0  0  2  0  0  0  0  0  0
  1  4  1  1  0  0  0
  1 20  1  0  0  0  0
  2  7  1  0  0  0  0
  3 18  1  1  0  0  0
  3  9  1  0  0  0  0
  3  5  1  0  0  0  0
  5 16  1  6  0  0  0
  5  1  1  0  0  0  0
  7  6  1  6  0  0  0
  7 12  1  0  0  0  0
  7  8  1  0  0  0  0
  8 10  1  0  0  0  0
  9  2  1  6  0  0  0
  9 11  1  0  0  0  0
 11  1  1  0  0  0  0
 11 10  1  1  0  0  0
 12 13  1  6  0  0  0
 13 14  1  0  0  0  0
 14 12  1  0  0  0  0
 15 16  1  0  0  0  0
 16 17  1  1  0  0  0
 19 18  3  0  0  0  0
 21 20  1  6  0  0  0
 21 32  1  0  0  0  0
 21 22  1  0  0  0  0
 23 31  1  6  0  0  0
 23 24  1  0  0  0  0
 25 27  1  6  0  0  0
 25 23  1  0  0  0  0
 25 28  1  0  0  0  0
 28 24  1  0  0  0  0
 28 26  1  1  0  0  0
 29 31  1  0  0  0  0
 30 22  1  6  0  0  0
 30 29  1  0  0  0  0
 30 27  1  0  0  0  0
 34 32  1  0  0  0  0
 34 33  1  0  0  0  0
M  END
>  <MODEL>
3

>  <REMARK>
 VINA RESULT:      -7.1      3.080      4.604
  Name = 
  9 active torsions:
  status: ('A' for Active; 'I' for Inactive)
    1  A    between atoms: C_1  and  C_8
    2  A    between atoms: C_3  and  C_25
    3  A    between atoms: C_5  and  C_19
    4  A    between atoms: C_6  and  C_18
    5  A    between atoms: C_6  and  C_28
    6  A    between atoms: C_8  and  C_18
    7  A    between atoms: C_12  and  C_20
    8  A    between atoms: C_18  and  N_30
    9  A    between atoms: N_30  and  C_31
                            x       y       z     vdW  Elec       q    Type
                         _______ _______ _______ _____ _____    ______ ____

>  <TORSDO>
F 9

$$$$
=
 OpenBabel10262423353D

 34 38  0  0  1  0  0  0  0  0999 V2000
  184.1080  178.5540  139.5600 C   0  0  1  0  0  0  0  0  0  0  0  0
  184.9490  177.0510  136.3440 O   0  0  0  0  0  0  0  0  0  0  0  0
  182.8910  177.7170  137.5540 C   0  0  1  0  0  3  0  0  0  0  0  0
  184.3210  179.9370  139.5350 O   0  0  0  0  0  1  0  0  0  0  0  0
  182.7130  178.1940  139.0020 C   0  0  2  0  0  3  0  0  0  0  0  0
  186.8650  177.3930  134.9730 C   0  0  0  0  0  1  0  0  0  0  0  0
  186.3810  177.1190  136.3830 C   0  0  1  0  0  0  0  0  0  0  0  0
  186.9700  178.2510  137.2870 C   0  0  0  0  0  2  0  0  0  0  0  0
  184.3670  177.9590  137.2540 C   0  0  1  0  0  3  0  0  0  0  0  0
  186.3620  178.4180  138.5660 O   0  0  0  0  0  0  0  0  0  0  0  0
  185.0600  177.8700  138.5940 C   0  0  1  0  0  3  0  0  0  0  0  0
  187.0030  175.7770  136.8190 C   0  0  1  0  0  3  0  0  0  0  0  0
  186.0290  174.6630  136.9180 C   0  0  0  0  0  2  0  0  0  0  0  0
  186.8690  174.8150  135.7980 O   0  0  0  0  0  0  0  0  0  0  0  0
  180.9000  179.4380  137.9990 O   0  0  0  0  0  1  0  0  0  0  0  0
  181.6470  179.2810  139.1690 C   0  0  1  0  0  3  0  0  0  0  0  0
  180.7240  178.9400  140.3220 C   0  0  0  0  0  1  0  0  0  0  0  0
  182.5350  176.2920  137.4740 C   0  0  0  0  0  0  0  0  0  0  0  0
  182.2440  175.1230  137.4050 C   0  0  0  0  0  3  0  0  0  0  0  0
  184.3040  178.0410  140.9900 C   0  0  0  0  0  2  0  0  0  0  0  0
  184.2830  179.1560  142.0330 C   0  0  2  0  0  3  0  0  0  0  0  0
  185.6840  179.3750  142.5790 C   0  0  0  0  0  2  0  0  0  0  0  0
  188.8730  176.4380  142.9120 C   0  0  2  0  0  3  0  0  0  0  0  0
  190.3490  176.7910  142.9120 C   0  0  0  0  0  2  0  0  0  0  0  0
  188.7070  177.1930  141.5850 C   0  0  1  0  0  3  0  0  0  0  0  0
  190.9000  176.8100  140.4910 C   0  0  0  0  0  1  0  0  0  0  0  0
  187.8580  178.4600  141.7170 C   0  0  0  0  0  2  0  0  0  0  0  0
  190.1810  177.5480  141.6040 C   0  0  2  0  0  3  0  0  0  0  0  0
  186.7150  177.4300  143.7580 C   0  0  0  0  0  2  0  0  0  0  0  0
  186.5300  178.1270  142.4000 C   0  0  1  0  0  3  0  0  0  0  0  0
  188.1770  177.1260  144.0910 C   0  0  0  0  0  2  0  0  0  0  0  0
  183.3860  178.7920  143.1180 N   0  0  0  0  0  2  0  0  0  0  0  0
  183.8110  178.8220  145.5020 C   0  0  0  0  0  1  0  0  0  0  0  0
  183.7110  179.6540  144.2410 C   0  0  0  0  0  2  0  0  0  0  0  0
  1  4  1  6  0  0  0
  1 20  1  0  0  0  0
  2  7  1  0  0  0  0
  3 18  1  1  0  0  0
  3  5  1  0  0  0  0
  5 16  1  6  0  0  0
  5  1  1  0  0  0  0
  7  6  1  6  0  0  0
  7 12  1  0  0  0  0
  7  8  1  0  0  0  0
  8 10  1  0  0  0  0
  9  2  1  6  0  0  0
  9  3  1  0  0  0  0
  9 11  1  0  0  0  0
 11 10  1  6  0  0  0
 11  1  1  0  0  0  0
 12 13  1  1  0  0  0
 14 12  1  0  0  0  0
 14 13  1  0  0  0  0
 15 16  1  0  0  0  0
 16 17  1  1  0  0  0
 19 18  3  0  0  0  0
 21 20  1  6  0  0  0
 21 22  1  0  0  0  0
 21 32  1  0  0  0  0
 23 24  1  1  0  0  0
 23 31  1  0  0  0  0
 25 28  1  0  0  0  0
 25 27  1  1  0  0  0
 25 23  1  0  0  0  0
 27 30  1  0  0  0  0
 28 26  1  6  0  0  0
 28 24  1  0  0  0  0
 29 31  1  0  0  0  0
 30 22  1  1  0  0  0
 30 29  1  0  0  0  0
 32 34  1  0  0  0  0
 34 33  1  0  0  0  0
M  END
>  <MODEL>
4

>  <REMARK>
 VINA RESULT:      -7.1      1.491      2.470
  Name = 
  9 active torsions:
  status: ('A' for Active; 'I' for Inactive)
    1  A    between atoms: C_1  and  C_8
    2  A    between atoms: C_3  and  C_25
    3  A    between atoms: C_5  and  C_19
    4  A    between atoms: C_6  and  C_18
    5  A    between atoms: C_6  and  C_28
    6  A    between atoms: C_8  and  C_18
    7  A    between atoms: C_12  and  C_20
    8  A    between atoms: C_18  and  N_30
    9  A    between atoms: N_30  and  C_31
                            x       y       z     vdW  Elec       q    Type
                         _______ _______ _______ _____ _____    ______ ____

>  <TORSDO>
F 9

$$$$
=
 OpenBabel10262423353D

 34 38  0  0  1  0  0  0  0  0999 V2000
  184.4390  178.4000  139.3360 C   0  0  1  0  0  0  0  0  0  0  0  0
  186.3510  177.1080  136.5110 O   0  0  0  0  0  0  0  0  0  0  0  0
  183.9630  177.4300  137.0910 C   0  0  1  0  0  3  0  0  0  0  0  0
  184.4400  179.8000  139.3390 O   0  0  0  0  0  1  0  0  0  0  0  0
  183.3230  177.8450  138.4240 C   0  0  2  0  0  3  0  0  0  0  0  0
  188.4960  177.7640  135.7130 C   0  0  0  0  0  1  0  0  0  0  0  0
  187.6900  177.3910  136.9410 C   0  0  1  0  0  0  0  0  0  0  0  0
  187.8280  178.5800  137.9470 C   0  0  0  0  0  2  0  0  0  0  0  0
  185.4110  177.8990  137.2050 C   0  0  1  0  0  3  0  0  0  0  0  0
  186.8740  178.6270  139.0040 O   0  0  0  0  0  0  0  0  0  0  0  0
  185.7120  177.8890  138.6850 C   0  0  1  0  0  3  0  0  0  0  0  0
  188.3620  176.1500  137.5610 C   0  0  1  0  0  3  0  0  0  0  0  0
  187.9770  174.8700  136.9200 C   0  0  0  0  0  2  0  0  0  0  0  0
  189.1920  175.5140  136.6170 O   0  0  0  0  0  0  0  0  0  0  0  0
  181.8620  179.0500  136.9210 O   0  0  0  0  0  1  0  0  0  0  0  0
  182.1000  178.7550  138.2650 C   0  0  1  0  0  3  0  0  0  0  0  0
  180.8750  178.0980  138.8690 C   0  0  0  0  0  1  0  0  0  0  0  0
  183.8620  175.9690  136.9470 C   0  0  0  0  0  0  0  0  0  0  0  0
  183.7770  174.7720  136.8310 C   0  0  0  0  0  3  0  0  0  0  0  0
  184.3080  177.8940  140.7750 C   0  0  0  0  0  2  0  0  0  0  0  0
  184.0370  179.0110  141.7800 C   0  0  2  0  0  3  0  0  0  0  0  0
  185.3240  179.3790  142.5000 C   0  0  0  0  0  2  0  0  0  0  0  0
  187.9540  176.7520  144.7550 C   0  0  2  0  0  3  0  0  0  0  0  0
  189.4610  176.9180  144.8210 C   0  0  0  0  0  2  0  0  0  0  0  0
  188.0360  176.7310  143.2220 C   0  0  1  0  0  3  0  0  0  0  0  0
  190.2320  175.6440  142.8330 C   0  0  0  0  0  1  0  0  0  0  0  0
  187.3940  177.9580  142.5690 C   0  0  0  0  0  2  0  0  0  0  0  0
  189.5400  176.9100  143.3020 C   0  0  2  0  0  3  0  0  0  0  0  0
  185.9130  178.2270  144.6360 C   0  0  0  0  0  2  0  0  0  0  0  0
  185.9720  178.1440  143.1020 C   0  0  1  0  0  3  0  0  0  0  0  0
  187.2700  178.0060  145.3080 C   0  0  0  0  0  2  0  0  0  0  0  0
  183.0450  178.5690  142.7460 N   0  0  0  0  0  2  0  0  0  0  0  0
  180.6640  178.5390  143.1920 C   0  0  0  0  0  1  0  0  0  0  0  0
  181.7580  179.0620  142.2850 C   0  0  0  0  0  2  0  0  0  0  0  0
  1  4  1  6  0  0  0
  1 20  1  0  0  0  0
  2  7  1  0  0  0  0
  3 18  1  1  0  0  0
  3  9  1  0  0  0  0
  3  5  1  0  0  0  0
  5 16  1  6  0  0  0
  5  1  1  0  0  0  0
  7  6  1  6  0  0  0
  7 12  1  0  0  0  0
  7  8  1  0  0  0  0
  8 10  1  0  0  0  0
  9  2  1  6  0  0  0
  9 11  1  0  0  0  0
 11 10  1  6  0  0  0
 11  1  1  0  0  0  0
 12 13  1  6  0  0  0
 14 13  1  0  0  0  0
 14 12  1  0  0  0  0
 15 16  1  0  0  0  0
 16 17  1  6  0  0  0
 19 18  3  0  0  0  0
 21 20  1  6  0  0  0
 21 22  1  0  0  0  0
 21 32  1  0  0  0  0
 23 24  1  1  0  0  0
 23 31  1  0  0  0  0
 25 27  1  6  0  0  0
 25 28  1  0  0  0  0
 25 23  1  0  0  0  0
 27 30  1  0  0  0  0
 28 26  1  1  0  0  0
 28 24  1  0  0  0  0
 29 31  1  0  0  0  0
 30 22  1  6  0  0  0
 30 29  1  0  0  0  0
 34 32  1  0  0  0  0
 34 33  1  0  0  0  0
M  END
>  <MODEL>
5

>  <REMARK>
 VINA RESULT:      -6.9      1.358      2.136
  Name = 
  9 active torsions:
  status: ('A' for Active; 'I' for Inactive)
    1  A    between atoms: C_1  and  C_8
    2  A    between atoms: C_3  and  C_25
    3  A    between atoms: C_5  and  C_19
    4  A    between atoms: C_6  and  C_18
    5  A    between atoms: C_6  and  C_28
    6  A    between atoms: C_8  and  C_18
    7  A    between atoms: C_12  and  C_20
    8  A    between atoms: C_18  and  N_30
    9  A    between atoms: N_30  and  C_31
                            x       y       z     vdW  Elec       q    Type
                         _______ _______ _______ _____ _____    ______ ____

>  <TORSDO>
F 9

$$$$
=
 OpenBabel10262423353D

 34 38  0  0  1  0  0  0  0  0999 V2000
  183.3170  178.3360  140.1710 C   0  0  1  0  0  0  0  0  0  0  0  0
  182.2110  176.5440  137.1910 O   0  0  0  0  0  0  0  0  0  0  0  0
  181.1620  177.5530  139.1970 C   0  0  1  0  0  3  0  0  0  0  0  0
  183.6000  179.6730  139.8710 O   0  0  0  0  0  1  0  0  0  0  0  0
  181.8130  178.1350  140.4590 C   0  0  2  0  0  3  0  0  0  0  0  0
  183.1410  176.5420  134.9990 C   0  0  0  0  0  1  0  0  0  0  0  0
  183.4500  176.4190  136.4780 C   0  0  1  0  0  0  0  0  0  0  0  0
  184.5190  177.5130  136.8040 C   0  0  0  0  0  2  0  0  0  0  0  0
  182.2740  177.5750  138.1530 C   0  0  1  0  0  3  0  0  0  0  0  0
  184.6910  177.8370  138.1820 O   0  0  0  0  0  0  0  0  0  0  0  0
  183.5570  177.4730  138.9440 C   0  0  1  0  0  3  0  0  0  0  0  0
  184.0930  175.0350  136.6910 C   0  0  1  0  0  3  0  0  0  0  0  0
  183.7280  174.3900  137.9760 C   0  0  0  0  0  2  0  0  0  0  0  0
  183.1020  174.0360  136.7660 O   0  0  0  0  0  0  0  0  0  0  0  0
  180.1930  179.8900  140.0830 O   0  0  0  0  0  1  0  0  0  0  0  0
  181.0890  179.3650  141.0180 C   0  0  1  0  0  3  0  0  0  0  0  0
  180.3470  179.0050  142.2890 C   0  0  0  0  0  1  0  0  0  0  0  0
  180.6980  176.1860  139.4860 C   0  0  0  0  0  0  0  0  0  0  0  0
  180.3200  175.0650  139.7210 C   0  0  0  0  0  3  0  0  0  0  0  0
  184.1910  177.8870  141.3450 C   0  0  0  0  0  2  0  0  0  0  0  0
  184.2560  178.9170  142.4700 C   0  0  2  0  0  3  0  0  0  0  0  0
  185.7060  179.2200  142.8080 C   0  0  0  0  0  2  0  0  0  0  0  0
  189.0220  176.4100  142.8830 C   0  0  2  0  0  3  0  0  0  0  0  0
  190.4770  176.8150  142.7240 C   0  0  0  0  0  2  0  0  0  0  0  0
  188.6940  177.1220  141.5620 C   0  0  1  0  0  3  0  0  0  0  0  0
  190.7780  176.7880  140.2600 C   0  0  0  0  0  1  0  0  0  0  0  0
  187.8150  178.3610  141.7500 C   0  0  0  0  0  2  0  0  0  0  0  0
  190.1480  177.5300  141.4230 C   0  0  2  0  0  3  0  0  0  0  0  0
  186.9240  177.3460  143.9210 C   0  0  0  0  0  2  0  0  0  0  0  0
  186.5770  177.9990  142.5730 C   0  0  1  0  0  3  0  0  0  0  0  0
  188.4230  177.1040  144.1100 C   0  0  0  0  0  2  0  0  0  0  0  0
  183.5770  178.3980  143.6460 N   0  0  0  0  0  2  0  0  0  0  0  0
  184.2710  178.6660  145.9510 C   0  0  0  0  0  1  0  0  0  0  0  0
  183.7700  179.3700  144.7090 C   0  0  0  0  0  2  0  0  0  0  0  0
  1  4  1  6  0  0  0
  1  5  1  0  0  0  0
  1 20  1  0  0  0  0
  3 18  1  1  0  0  0
  3  5  1  0  0  0  0
  5 16  1  6  0  0  0
  7  6  1  6  0  0  0
  7 12  1  0  0  0  0
  7  8  1  0  0  0  0
  7  2  1  0  0  0  0
  8 10  1  0  0  0  0
  9  2  1  6  0  0  0
  9 11  1  0  0  0  0
  9  3  1  0  0  0  0
 11 10  1  6  0  0  0
 11  1  1  0  0  0  0
 12 14  1  0  0  0  0
 12 13  1  1  0  0  0
 14 13  1  0  0  0  0
 15 16  1  0  0  0  0
 16 17  1  1  0  0  0
 18 19  3  0  0  0  0
 21 20  1  6  0  0  0
 21 22  1  0  0  0  0
 21 32  1  0  0  0  0
 23 24  1  1  0  0  0
 23 31  1  0  0  0  0
 25 27  1  1  0  0  0
 25 23  1  0  0  0  0
 27 30  1  0  0  0  0
 28 26  1  6  0  0  0
 28 25  1  0  0  0  0
 28 24  1  0  0  0  0
 29 31  1  0  0  0  0
 30 22  1  1  0  0  0
 30 29  1  0  0  0  0
 32 34  1  0  0  0  0
 34 33  1  0  0  0  0
M  END
>  <MODEL>
6

>  <REMARK>
 VINA RESULT:      -6.4      2.232      3.346
  Name = 
  9 active torsions:
  status: ('A' for Active; 'I' for Inactive)
    1  A    between atoms: C_1  and  C_8
    2  A    between atoms: C_3  and  C_25
    3  A    between atoms: C_5  and  C_19
    4  A    between atoms: C_6  and  C_18
    5  A    between atoms: C_6  and  C_28
    6  A    between atoms: C_8  and  C_18
    7  A    between atoms: C_12  and  C_20
    8  A    between atoms: C_18  and  N_30
    9  A    between atoms: N_30  and  C_31
                            x       y       z     vdW  Elec       q    Type
                         _______ _______ _______ _____ _____    ______ ____

>  <TORSDO>
F 9

$$$$
=
 OpenBabel10262423353D

 34 38  0  0  1  0  0  0  0  0999 V2000
  181.3970  179.4740  139.5460 C   0  0  1  0  0  0  0  0  0  0  0  0
  179.8070  177.1030  137.2750 O   0  0  0  0  0  0  0  0  0  0  0  0
  179.9680  177.4400  139.7250 C   0  0  1  0  0  3  0  0  0  0  0  0
  180.6650  180.6650  139.6150 O   0  0  0  0  0  1  0  0  0  0  0  0
  180.8380  178.4180  140.5270 C   0  0  2  0  0  3  0  0  0  0  0  0
  178.9310  177.4610  135.0890 C   0  0  0  0  0  1  0  0  0  0  0  0
  180.1140  177.6990  136.0070 C   0  0  1  0  0  0  0  0  0  0  0  0
  180.3530  179.2440  136.0380 C   0  0  0  0  0  2  0  0  0  0  0  0
  179.9170  178.0410  138.3230 C   0  0  1  0  0  3  0  0  0  0  0  0
  181.1610  179.7370  137.1040 O   0  0  0  0  0  0  0  0  0  0  0  0
  181.1990  178.8280  138.1860 C   0  0  1  0  0  3  0  0  0  0  0  0
  181.3370  177.0320  135.3460 C   0  0  1  0  0  3  0  0  0  0  0  0
  181.8440  175.8440  136.0740 C   0  0  0  0  0  2  0  0  0  0  0  0
  181.0240  175.7210  134.9360 O   0  0  0  0  0  0  0  0  0  0  0  0
  178.9880  178.2670  142.0750 O   0  0  0  0  0  1  0  0  0  0  0  0
  180.1430  178.9890  141.7680 C   0  0  1  0  0  3  0  0  0  0  0  0
  181.0870  178.9690  142.9530 C   0  0  0  0  0  1  0  0  0  0  0  0
  180.6060  176.1140  139.7370 C   0  0  0  0  0  0  0  0  0  0  0  0
  181.1280  175.0260  139.7450 C   0  0  0  0  0  3  0  0  0  0  0  0
  182.8750  179.7750  139.8090 C   0  0  0  0  0  2  0  0  0  0  0  0
  183.5830  178.6650  140.5810 C   0  0  2  0  0  3  0  0  0  0  0  0
  184.5380  179.2710  141.5960 C   0  0  0  0  0  2  0  0  0  0  0  0
  186.7240  177.2240  144.7480 C   0  0  2  0  0  3  0  0  0  0  0  0
  188.1090  177.6300  145.2160 C   0  0  0  0  0  2  0  0  0  0  0  0
  187.2520  177.1300  143.3090 C   0  0  1  0  0  3  0  0  0  0  0  0
  189.5910  176.3830  143.6620 C   0  0  0  0  0  1  0  0  0  0  0  0
  186.6690  178.2010  142.3840 C   0  0  0  0  0  2  0  0  0  0  0  0
  188.6280  177.5480  143.7890 C   0  0  2  0  0  3  0  0  0  0  0  0
  184.6270  178.3510  143.9150 C   0  0  0  0  0  2  0  0  0  0  0  0
  185.1420  178.1900  142.4750 C   0  0  1  0  0  3  0  0  0  0  0  0
  185.7460  178.3840  144.9590 C   0  0  0  0  0  2  0  0  0  0  0  0
  184.3240  177.8230  139.6550 N   0  0  0  0  0  2  0  0  0  0  0  0
  186.1410  178.0060  138.0640 C   0  0  0  0  0  1  0  0  0  0  0  0
  184.9560  178.7080  138.6920 C   0  0  0  0  0  2  0  0  0  0  0  0
  1  4  1  1  0  0  0
  1 20  1  0  0  0  0
  1  5  1  0  0  0  0
  3 18  1  6  0  0  0
  3  5  1  0  0  0  0
  5 16  1  1  0  0  0
  7  6  1  6  0  0  0
  7  8  1  0  0  0  0
  7  2  1  0  0  0  0
  8 10  1  0  0  0  0
  9  2  1  6  0  0  0
  9  3  1  0  0  0  0
 11 10  1  6  0  0  0
 11  9  1  0  0  0  0
 11  1  1  0  0  0  0
 12  7  1  0  0  0  0
 12 13  1  1  0  0  0
 14 12  1  0  0  0  0
 14 13  1  0  0  0  0
 16 15  1  0  0  0  0
 16 17  1  1  0  0  0
 18 19  3  0  0  0  0
 21 20  1  6  0  0  0
 21 22  1  0  0  0  0
 23 31  1  6  0  0  0
 23 24  1  0  0  0  0
 25 27  1  6  0  0  0
 25 28  1  0  0  0  0
 25 23  1  0  0  0  0
 27 30  1  0  0  0  0
 28 26  1  1  0  0  0
 28 24  1  0  0  0  0
 29 31  1  0  0  0  0
 30 22  1  6  0  0  0
 30 29  1  0  0  0  0
 32 21  1  0  0  0  0
 33 34  1  0  0  0  0
 34 32  1  0  0  0  0
M  END
>  <MODEL>
7

>  <REMARK>
 VINA RESULT:      -6.1      2.626      4.772
  Name = 
  9 active torsions:
  status: ('A' for Active; 'I' for Inactive)
    1  A    between atoms: C_1  and  C_8
    2  A    between atoms: C_3  and  C_25
    3  A    between atoms: C_5  and  C_19
    4  A    between atoms: C_6  and  C_18
    5  A    between atoms: C_6  and  C_28
    6  A    between atoms: C_8  and  C_18
    7  A    between atoms: C_12  and  C_20
    8  A    between atoms: C_18  and  N_30
    9  A    between atoms: N_30  and  C_31
                            x       y       z     vdW  Elec       q    Type
                         _______ _______ _______ _____ _____    ______ ____

>  <TORSDO>
F 9

$$$$
=
 OpenBabel10262423353D

 34 38  0  0  1  0  0  0  0  0999 V2000
  183.7790  177.9700  138.5160 C   0  0  1  0  0  0  0  0  0  0  0  0
  180.2280  178.5300  139.1430 O   0  0  0  0  0  0  0  0  0  0  0  0
  181.6720  178.0490  137.1870 C   0  0  1  0  0  3  0  0  0  0  0  0
  184.1490  176.6700  138.8790 O   0  0  0  0  0  1  0  0  0  0  0  0
  183.2040  178.0070  137.0830 C   0  0  2  0  0  3  0  0  0  0  0  0
  178.9320  177.9910  141.0660 C   0  0  0  0  0  1  0  0  0  0  0  0
  180.2200  178.6210  140.5750 C   0  0  1  0  0  0  0  0  0  0  0  0
  181.3880  177.8730  141.2960 C   0  0  0  0  0  2  0  0  0  0  0  0
  181.3900  177.8790  138.6770 C   0  0  1  0  0  3  0  0  0  0  0  0
  182.6860  178.0320  140.7280 O   0  0  0  0  0  0  0  0  0  0  0  0
  182.6120  178.4290  139.3740 C   0  0  1  0  0  3  0  0  0  0  0  0
  180.2150  180.0870  141.0520 C   0  0  1  0  0  3  0  0  0  0  0  0
  179.9330  181.0710  139.9780 C   0  0  0  0  0  2  0  0  0  0  0  0
  178.9380  180.6570  140.8840 O   0  0  0  0  0  0  0  0  0  0  0  0
  182.7180  176.4420  135.3050 O   0  0  0  0  0  1  0  0  0  0  0  0
  183.7290  176.9160  136.1440 C   0  0  1  0  0  3  0  0  0  0  0  0
  184.8770  177.4490  135.3100 C   0  0  0  0  0  1  0  0  0  0  0  0
  181.1940  179.3430  136.6760 C   0  0  0  0  0  0  0  0  0  0  0  0
  180.8020  180.4030  136.2540 C   0  0  0  0  0  3  0  0  0  0  0  0
  184.9850  178.9000  138.6740 C   0  0  0  0  0  2  0  0  0  0  0  0
  186.0240  178.3710  139.6590 C   0  0  2  0  0  3  0  0  0  0  0  0
  185.8660  179.0700  140.9990 C   0  0  0  0  0  2  0  0  0  0  0  0
  186.4980  177.3820  144.9550 C   0  0  2  0  0  3  0  0  0  0  0  0
  187.4720  177.9510  145.9710 C   0  0  0  0  0  2  0  0  0  0  0  0
  187.6390  177.2950  143.9300 C   0  0  1  0  0  3  0  0  0  0  0  0
  189.5990  176.8170  145.3730 C   0  0  0  0  0  1  0  0  0  0  0  0
  187.4670  178.2640  142.7570 C   0  0  0  0  0  2  0  0  0  0  0  0
  188.5980  177.8760  144.9510 C   0  0  2  0  0  3  0  0  0  0  0  0
  184.9440  178.2460  143.1680 C   0  0  0  0  0  2  0  0  0  0  0  0
  186.0780  178.0920  142.1410 C   0  0  1  0  0  3  0  0  0  0  0  0
  185.4450  178.4370  144.6010 C   0  0  0  0  0  2  0  0  0  0  0  0
  187.3590  178.6100  139.1350 N   0  0  0  0  0  2  0  0  0  0  0  0
  188.9330  176.9630  138.3140 C   0  0  0  0  0  1  0  0  0  0  0  0
  187.5880  177.6230  138.0950 C   0  0  0  0  0  2  0  0  0  0  0  0
  1 20  1  0  0  0  0
  1  4  1  1  0  0  0
  1 11  1  0  0  0  0
  2  7  1  0  0  0  0
  3 18  1  1  0  0  0
  3  9  1  0  0  0  0
  5 16  1  6  0  0  0
  5  3  1  0  0  0  0
  5  1  1  0  0  0  0
  7 12  1  0  0  0  0
  7  6  1  1  0  0  0
  7  8  1  0  0  0  0
  9  2  1  1  0  0  0
  9 11  1  0  0  0  0
 10  8  1  0  0  0  0
 11 10  1  1  0  0  0
 12 13  1  6  0  0  0
 13 14  1  0  0  0  0
 14 12  1  0  0  0  0
 15 16  1  0  0  0  0
 16 17  1  6  0  0  0
 19 18  3  0  0  0  0
 21 20  1  6  0  0  0
 21 22  1  0  0  0  0
 23 31  1  6  0  0  0
 23 24  1  0  0  0  0
 25 27  1  6  0  0  0
 25 28  1  0  0  0  0
 25 23  1  0  0  0  0
 28 26  1  1  0  0  0
 28 24  1  0  0  0  0
 29 31  1  0  0  0  0
 30 22  1  6  0  0  0
 30 27  1  0  0  0  0
 30 29  1  0  0  0  0
 32 21  1  0  0  0  0
 34 33  1  0  0  0  0
 34 32  1  0  0  0  0
M  END
>  <MODEL>
8

>  <REMARK>
 VINA RESULT:      -6.1      2.058      5.454
  Name = 
  9 active torsions:
  status: ('A' for Active; 'I' for Inactive)
    1  A    between atoms: C_1  and  C_8
    2  A    between atoms: C_3  and  C_25
    3  A    between atoms: C_5  and  C_19
    4  A    between atoms: C_6  and  C_18
    5  A    between atoms: C_6  and  C_28
    6  A    between atoms: C_8  and  C_18
    7  A    between atoms: C_12  and  C_20
    8  A    between atoms: C_18  and  N_30
    9  A    between atoms: N_30  and  C_31
                            x       y       z     vdW  Elec       q    Type
                         _______ _______ _______ _____ _____    ______ ____

>  <TORSDO>
F 9

$$$$
=
 OpenBabel10262423353D

 34 38  0  0  1  0  0  0  0  0999 V2000
  183.5080  178.5650  139.6970 C   0  0  1  0  0  0  0  0  0  0  0  0
  183.4080  176.8250  136.4920 O   0  0  0  0  0  0  0  0  0  0  0  0
  181.8810  178.2380  137.8390 C   0  0  1  0  0  3  0  0  0  0  0  0
  184.2270  179.7610  139.5910 O   0  0  0  0  0  1  0  0  0  0  0  0
  182.0350  178.7590  139.2740 C   0  0  2  0  0  3  0  0  0  0  0  0
  185.1720  176.3970  134.9500 C   0  0  0  0  0  1  0  0  0  0  0  0
  184.7550  176.3410  136.4070 C   0  0  1  0  0  0  0  0  0  0  0  0
  185.8120  177.1700  137.2070 C   0  0  0  0  0  2  0  0  0  0  0  0
  183.3030  177.8940  137.4060 C   0  0  1  0  0  3  0  0  0  0  0  0
  185.4370  177.5680  138.5240 O   0  0  0  0  0  0  0  0  0  0  0  0
  184.0330  177.5610  138.6860 C   0  0  1  0  0  3  0  0  0  0  0  0
  184.8600  174.8670  136.8490 C   0  0  1  0  0  3  0  0  0  0  0  0
  184.2330  173.9080  135.9070 C   0  0  0  0  0  2  0  0  0  0  0  0
  185.6230  174.1270  135.9240 O   0  0  0  0  0  0  0  0  0  0  0  0
  181.6700  180.9600  138.3420 O   0  0  0  0  0  1  0  0  0  0  0  0
  181.4820  180.1740  139.4810 C   0  0  1  0  0  3  0  0  0  0  0  0
  180.0070  180.1150  139.8220 C   0  0  0  0  0  1  0  0  0  0  0  0
  181.0040  177.0560  137.8520 C   0  0  0  0  0  0  0  0  0  0  0  0
  180.2870  176.0860  137.8650 C   0  0  0  0  0  3  0  0  0  0  0  0
  183.6290  178.0290  141.1260 C   0  0  0  0  0  2  0  0  0  0  0  0
  183.3860  179.0990  142.1880 C   0  0  2  0  0  3  0  0  0  0  0  0
  184.7080  179.5140  142.8120 C   0  0  0  0  0  2  0  0  0  0  0  0
  187.4590  177.0340  145.0890 C   0  0  2  0  0  3  0  0  0  0  0  0
  188.9620  177.2460  145.1180 C   0  0  0  0  0  2  0  0  0  0  0  0
  187.5110  176.9690  143.5550 C   0  0  1  0  0  3  0  0  0  0  0  0
  189.7300  175.9350  143.1540 C   0  0  0  0  0  1  0  0  0  0  0  0
  186.8200  178.1570  142.8800 C   0  0  0  0  0  2  0  0  0  0  0  0
  189.0100  177.1940  143.5980 C   0  0  2  0  0  3  0  0  0  0  0  0
  185.3740  178.4460  144.9690 C   0  0  0  0  0  2  0  0  0  0  0  0
  185.4040  178.3170  143.4370 C   0  0  1  0  0  3  0  0  0  0  0  0
  186.7500  178.2840  145.6190 C   0  0  0  0  0  2  0  0  0  0  0  0
  182.5020  178.5750  143.2160 N   0  0  0  0  0  2  0  0  0  0  0  0
  180.1650  178.6940  143.8390 C   0  0  0  0  0  1  0  0  0  0  0  0
  181.1500  178.6520  142.6910 C   0  0  0  0  0  2  0  0  0  0  0  0
  1  4  1  6  0  0  0
  1 20  1  0  0  0  0
  3 18  1  1  0  0  0
  3  5  1  0  0  0  0
  5 16  1  6  0  0  0
  5  1  1  0  0  0  0
  7  6  1  6  0  0  0
  7  2  1  0  0  0  0
  7 12  1  0  0  0  0
  7  8  1  0  0  0  0
  8 10  1  0  0  0  0
  9  2  1  6  0  0  0
  9  3  1  0  0  0  0
  9 11  1  0  0  0  0
 11 10  1  6  0  0  0
 11  1  1  0  0  0  0
 12 13  1  6  0  0  0
 13 14  1  0  0  0  0
 14 12  1  0  0  0  0
 15 16  1  0  0  0  0
 16 17  1  6  0  0  0
 18 19  3  0  0  0  0
 21 20  1  6  0  0  0
 21 22  1  0  0  0  0
 21 32  1  0  0  0  0
 23 24  1  1  0  0  0
 23 31  1  0  0  0  0
 25 27  1  6  0  0  0
 25 28  1  0  0  0  0
 25 23  1  0  0  0  0
 27 30  1  0  0  0  0
 28 26  1  1  0  0  0
 28 24  1  0  0  0  0
 29 31  1  0  0  0  0
 30 22  1  6  0  0  0
 30 29  1  0  0  0  0
 34 32  1  0  0  0  0
 34 33  1  0  0  0  0
M  END
>  <MODEL>
9

>  <REMARK>
 VINA RESULT:      -6.0      1.735      2.545
  Name = 
  9 active torsions:
  status: ('A' for Active; 'I' for Inactive)
    1  A    between atoms: C_1  and  C_8
    2  A    between atoms: C_3  and  C_25
    3  A    between atoms: C_5  and  C_19
    4  A    between atoms: C_6  and  C_18
    5  A    between atoms: C_6  and  C_28
    6  A    between atoms: C_8  and  C_18
    7  A    between atoms: C_12  and  C_20
    8  A    between atoms: C_18  and  N_30
    9  A    between atoms: N_30  and  C_31
                            x       y       z     vdW  Elec       q    Type
                         _______ _______ _______ _____ _____    ______ ____

>  <TORSDO>
F 9

$$$$
