=
 OpenBabel10262423263D

 34 38  0  0  1  0  0  0  0  0999 V2000
  182.5190  178.8640  141.4450 C   0  0  2  0  0  3  0  0  0  0  0  0
  181.0190  178.6410  137.8550 C   0  0  0  0  0  2  0  0  0  0  0  0
  180.0960  179.3690  140.1310 C   0  0  0  0  0  2  0  0  0  0  0  0
  184.9620  179.0760  141.4160 N   0  0  0  0  0  1  0  0  0  0  0  0
  183.8390  178.5210  142.1560 C   0  0  1  0  0  3  0  0  0  0  0  0
  181.3510  178.6450  143.6670 C   0  0  0  0  0  0  0  0  0  0  0  0
  180.3090  178.6040  144.3730 O   0  0  0  0  0  0  0  0  0  0  0  0
  182.6120  178.8560  144.3020 N   0  0  0  0  0  2  0  0  0  0  0  0
  183.8400  179.1380  143.5630 C   0  0  1  0  0  3  0  0  0  0  0  0
  180.0220  178.7480  141.5020 C   0  0  0  0  0  0  0  0  0  0  0  0
  181.2980  178.3100  142.1990 C   0  0  1  0  0  3  0  0  0  0  0  0
  178.9310  178.5460  142.0080 O   0  0  0  0  0  0  0  0  0  0  0  0
  181.6440  177.3780  137.2780 C   0  0  0  0  0  2  0  0  0  0  0  0
  183.0300  177.6240  136.8580 N   0  0  0  0  0  0  0  0  0  0  0  0
  183.8610  178.2150  137.9200 C   0  0  0  0  0  2  0  0  0  0  0  0
  181.2390  178.7760  139.3420 C   0  0  2  0  0  3  0  0  0  0  0  0
  183.5170  177.6900  139.3140 C   0  0  0  0  0  2  0  0  0  0  0  0
  182.4140  178.4890  139.9730 C   0  0  2  0  0  3  0  0  0  0  0  0
  186.1670  178.4320  146.5030 C   0  0  0  0  0  3  0  0  0  0  0  0
  186.1350  178.1510  143.6980 C   0  0  0  0  0  3  0  0  0  0  0  0
  189.3300  176.9180  145.2070 C   0  0  1  0  0  3  0  0  0  0  0  0
  188.5170  177.4100  146.4160 C   0  0  0  0  0  2  0  0  0  0  0  0
  187.2510  177.8830  145.8190 C   0  0  0  0  0  0  0  0  0  0  0  0
  188.4910  177.1530  143.9390 C   0  0  2  0  0  3  0  0  0  0  0  0
  187.2360  177.7440  144.4550 C   0  0  0  0  0  0  0  0  0  0  0  0
  188.2210  175.9290  143.3290 O   0  0  0  0  0  1  0  0  0  0  0  0
  185.0280  178.7040  144.3620 C   0  0  0  0  0  0  0  0  0  0  0  0
  185.0480  178.8430  145.7650 C   0  0  0  0  0  3  0  0  0  0  0  0
  190.6360  177.6400  145.1190 C   0  0  0  0  0  0  0  0  0  0  0  0
  190.7720  178.6330  144.3570 O   0  0  0  0  0  0  0  0  0  0  0  0
  191.7090  177.2080  145.8860 O   0  0  0  0  0  1  0  0  0  0  0  0
  183.6140  176.3360  136.5050 C   0  0  0  0  0  2  0  0  0  0  0  0
  183.2770  174.2620  137.6370 O   0  0  0  0  0  1  0  0  0  0  0  0
  182.6470  175.2120  136.8330 C   0  0  0  0  0  2  0  0  0  0  0  0
  1  5  1  0  0  0  0
  1 11  1  0  0  0  0
  2 16  1  0  0  0  0
  3 10  1  0  0  0  0
  4  5  1  0  0  0  0
  5  9  1  0  0  0  0
  6  8  1  0  0  0  0
  6  7  2  0  0  0  0
  9  8  1  0  0  0  0
  9 27  1  0  0  0  0
 10 12  2  0  0  0  0
 10 11  1  0  0  0  0
 11  6  1  0  0  0  0
 13  2  1  0  0  0  0
 14 13  1  0  0  0  0
 14 15  1  0  0  0  0
 15 17  1  0  0  0  0
 16 18  1  0  0  0  0
 16  3  1  0  0  0  0
 17 18  1  0  0  0  0
 18  1  1  0  0  0  0
 20 27  2  0  0  0  0
 20 25  1  0  0  0  0
 21 22  1  0  0  0  0
 23 22  1  0  0  0  0
 23 19  1  0  0  0  0
 24 25  1  0  0  0  0
 24 21  1  0  0  0  0
 25 23  2  0  0  0  0
 26 24  1  0  0  0  0
 27 28  1  0  0  0  0
 28 19  2  0  0  0  0
 29 21  1  0  0  0  0
 29 31  1  0  0  0  0
 30 29  2  0  0  0  0
 32 34  1  0  0  0  0
 32 14  1  0  0  0  0
 34 33  1  0  0  0  0
M  END
>  <MODEL>
1

>  <REMARK>
 VINA RESULT:      -9.7      0.000      0.000
  Name = 
  4 active torsions:
  status: ('A' for Active; 'I' for Inactive)
    1  A    between atoms: C_3  and  C_24
    2  A    between atoms: C_3  and  N_25
    3  A    between atoms: C_7  and  C_11
    4  A    between atoms: C_18  and  C_30
                            x       y       z     vdW  Elec       q    Type
                         _______ _______ _______ _____ _____    ______ ____

>  <TORSDO>
F 4

$$$$
=
 OpenBabel10262423263D

 34 38  0  0  1  0  0  0  0  0999 V2000
  186.4910  178.3760  142.9610 C   0  0  2  0  0  3  0  0  0  0  0  0
  182.8860  179.1780  144.2040 C   0  0  0  0  0  2  0  0  0  0  0  0
  185.1580  178.9400  145.3610 C   0  0  0  0  0  2  0  0  0  0  0  0
  186.8010  178.9400  140.5940 N   0  0  0  0  0  1  0  0  0  0  0  0
  187.1900  178.0070  141.6410 C   0  0  1  0  0  3  0  0  0  0  0  0
  188.3750  177.2410  144.1900 C   0  0  0  0  0  0  0  0  0  0  0  0
  188.9090  176.8090  145.2450 O   0  0  0  0  0  0  0  0  0  0  0  0
  189.1780  177.4040  143.0220 N   0  0  0  0  0  2  0  0  0  0  0  0
  188.7120  178.0970  141.8240 C   0  0  1  0  0  3  0  0  0  0  0  0
  186.2320  177.8840  145.3980 C   0  0  0  0  0  0  0  0  0  0  0  0
  186.8810  177.4250  144.1050 C   0  0  1  0  0  3  0  0  0  0  0  0
  186.5210  177.3640  146.4640 O   0  0  0  0  0  0  0  0  0  0  0  0
  181.9970  178.2950  143.3380 C   0  0  0  0  0  2  0  0  0  0  0  0
  181.8360  178.8690  141.9960 N   0  0  0  0  0  0  0  0  0  0  0  0
  183.1170  179.1760  141.3390 C   0  0  0  0  0  2  0  0  0  0  0  0
  184.3480  178.8270  144.0910 C   0  0  2  0  0  3  0  0  0  0  0  0
  184.2150  178.1610  141.6610 C   0  0  0  0  0  2  0  0  0  0  0  0
  184.9740  178.5160  142.9200 C   0  0  2  0  0  3  0  0  0  0  0  0
  189.4580  176.7660  138.3270 C   0  0  0  0  0  3  0  0  0  0  0  0
  190.8480  177.4860  140.6720 C   0  0  0  0  0  3  0  0  0  0  0  0
  193.1510  176.2960  137.9720 C   0  0  1  0  0  3  0  0  0  0  0  0
  191.7520  176.1870  137.3400 C   0  0  0  0  0  2  0  0  0  0  0  0
  190.8470  176.6700  138.4030 C   0  0  0  0  0  0  0  0  0  0  0  0
  192.9850  176.8270  139.4070 C   0  0  2  0  0  3  0  0  0  0  0  0
  191.5250  177.0210  139.5420 C   0  0  0  0  0  0  0  0  0  0  0  0
  193.6380  178.0540  139.5240 O   0  0  0  0  0  1  0  0  0  0  0  0
  189.4490  177.5950  140.6230 C   0  0  0  0  0  0  0  0  0  0  0  0
  188.7570  177.2350  139.4470 C   0  0  0  0  0  3  0  0  0  0  0  0
  193.8350  174.9680  137.9740 C   0  0  0  0  0  0  0  0  0  0  0  0
  193.2520  173.9430  137.5330 O   0  0  0  0  0  0  0  0  0  0  0  0
  195.1280  174.8660  138.4690 O   0  0  0  0  0  1  0  0  0  0  0  0
  181.1460  177.8810  141.1780 C   0  0  0  0  0  2  0  0  0  0  0  0
  179.3300  176.3870  141.5840 O   0  0  0  0  0  1  0  0  0  0  0  0
  179.7070  177.7290  141.6380 C   0  0  0  0  0  2  0  0  0  0  0  0
  1 11  1  0  0  0  0
  3 10  1  0  0  0  0
  4  5  1  0  0  0  0
  5  9  1  0  0  0  0
  5  1  1  0  0  0  0
  6  7  2  0  0  0  0
  8  6  1  0  0  0  0
  9  8  1  0  0  0  0
 10 12  2  0  0  0  0
 11  6  1  0  0  0  0
 11 10  1  0  0  0  0
 13  2  1  0  0  0  0
 14 13  1  0  0  0  0
 15 17  1  0  0  0  0
 15 14  1  0  0  0  0
 16  2  1  0  0  0  0
 16  3  1  0  0  0  0
 17 18  1  0  0  0  0
 18  1  1  0  0  0  0
 18 16  1  0  0  0  0
 19 23  2  0  0  0  0
 19 28  1  0  0  0  0
 21 29  1  0  0  0  0
 21 24  1  0  0  0  0
 22 21  1  0  0  0  0
 22 23  1  0  0  0  0
 23 25  1  0  0  0  0
 24 26  1  0  0  0  0
 24 25  1  0  0  0  0
 25 20  2  0  0  0  0
 27 20  1  0  0  0  0
 27  9  1  0  0  0  0
 28 27  2  0  0  0  0
 29 31  1  0  0  0  0
 30 29  2  0  0  0  0
 32 34  1  0  0  0  0
 32 14  1  0  0  0  0
 33 34  1  0  0  0  0
M  END
>  <MODEL>
2

>  <REMARK>
 VINA RESULT:      -9.3      4.230      6.696
  Name = 
  4 active torsions:
  status: ('A' for Active; 'I' for Inactive)
    1  A    between atoms: C_3  and  C_24
    2  A    between atoms: C_3  and  N_25
    3  A    between atoms: C_7  and  C_11
    4  A    between atoms: C_18  and  C_30
                            x       y       z     vdW  Elec       q    Type
                         _______ _______ _______ _____ _____    ______ ____

>  <TORSDO>
F 4

$$$$
=
 OpenBabel10262423263D

 34 38  0  0  1  0  0  0  0  0999 V2000
  187.4210  177.5780  145.3890 C   0  0  2  0  0  3  0  0  0  0  0  0
  191.2130  176.7530  145.7490 C   0  0  0  0  0  2  0  0  0  0  0  0
  189.3100  177.1540  147.4160 C   0  0  0  0  0  2  0  0  0  0  0  0
  186.5150  176.8460  143.2310 N   0  0  0  0  0  1  0  0  0  0  0  0
  186.4160  177.8690  144.2620 C   0  0  1  0  0  3  0  0  0  0  0  0
  185.9250  178.8650  146.9550 C   0  0  0  0  0  0  0  0  0  0  0  0
  185.6810  179.3940  148.0710 O   0  0  0  0  0  0  0  0  0  0  0  0
  184.8500  178.6410  146.0430 N   0  0  0  0  0  2  0  0  0  0  0  0
  184.9880  177.8430  144.8280 C   0  0  1  0  0  3  0  0  0  0  0  0
  188.2950  178.2460  147.6350 C   0  0  0  0  0  0  0  0  0  0  0  0
  187.3460  178.6260  146.5130 C   0  0  1  0  0  3  0  0  0  0  0  0
  188.2910  178.8550  148.6920 O   0  0  0  0  0  0  0  0  0  0  0  0
  191.8650  177.5370  144.6180 C   0  0  0  0  0  2  0  0  0  0  0  0
  191.6740  176.8570  143.3300 N   0  0  0  0  0  0  0  0  0  0  0  0
  190.2640  176.5440  143.0440 C   0  0  0  0  0  2  0  0  0  0  0  0
  189.7740  177.1440  145.9780 C   0  0  2  0  0  3  0  0  0  0  0  0
  189.2970  177.6170  143.5460 C   0  0  0  0  0  2  0  0  0  0  0  0
  188.8760  177.3850  144.9800 C   0  0  2  0  0  3  0  0  0  0  0  0
  181.7390  179.0600  143.2420 C   0  0  0  0  0  3  0  0  0  0  0  0
  184.3390  178.3070  142.4560 C   0  0  0  0  0  3  0  0  0  0  0  0
  182.2130  179.3010  139.5410 C   0  0  1  0  0  3  0  0  0  0  0  0
  181.2790  179.4640  140.7520 C   0  0  0  0  0  2  0  0  0  0  0  0
  182.1250  179.0840  141.9020 C   0  0  0  0  0  0  0  0  0  0  0  0
  183.5760  178.8050  140.0530 C   0  0  2  0  0  3  0  0  0  0  0  0
  183.3900  178.7190  141.5180 C   0  0  0  0  0  0  0  0  0  0  0  0
  184.5550  179.7530  139.7560 O   0  0  0  0  0  1  0  0  0  0  0  0
  183.9780  178.2770  143.8130 C   0  0  0  0  0  0  0  0  0  0  0  0
  182.6770  178.6550  144.2020 C   0  0  0  0  0  3  0  0  0  0  0  0
  181.6360  178.3400  138.5530 C   0  0  0  0  0  0  0  0  0  0  0  0
  181.7680  178.5340  137.3160 O   0  0  0  0  0  0  0  0  0  0  0  0
  180.9480  177.2240  139.0060 O   0  0  0  0  0  1  0  0  0  0  0  0
  192.1470  177.7570  142.2870 C   0  0  0  0  0  2  0  0  0  0  0  0
  192.7180  177.3680  140.0030 O   0  0  0  0  0  1  0  0  0  0  0  0
  191.6750  177.2790  140.9250 C   0  0  0  0  0  2  0  0  0  0  0  0
  1 11  1  0  0  0  0
  2 16  1  0  0  0  0
  3 10  1  0  0  0  0
  4  5  1  0  0  0  0
  5  9  1  0  0  0  0
  5  1  1  0  0  0  0
  6  7  2  0  0  0  0
  8  6  1  0  0  0  0
  9  8  1  0  0  0  0
 10 12  2  0  0  0  0
 11  6  1  0  0  0  0
 11 10  1  0  0  0  0
 13  2  1  0  0  0  0
 14 13  1  0  0  0  0
 15 14  1  0  0  0  0
 15 17  1  0  0  0  0
 16  3  1  0  0  0  0
 17 18  1  0  0  0  0
 18  1  1  0  0  0  0
 18 16  1  0  0  0  0
 19 28  1  0  0  0  0
 20 27  1  0  0  0  0
 21 24  1  0  0  0  0
 21 22  1  0  0  0  0
 22 23  1  0  0  0  0
 23 19  2  0  0  0  0
 24 25  1  0  0  0  0
 25 23  1  0  0  0  0
 25 20  2  0  0  0  0
 26 24  1  0  0  0  0
 27 28  2  0  0  0  0
 27  9  1  0  0  0  0
 29 31  1  0  0  0  0
 29 21  1  0  0  0  0
 30 29  2  0  0  0  0
 32 14  1  0  0  0  0
 33 34  1  0  0  0  0
 34 32  1  0  0  0  0
M  END
>  <MODEL>
3

>  <REMARK>
 VINA RESULT:      -9.1      2.906      8.486
  Name = 
  4 active torsions:
  status: ('A' for Active; 'I' for Inactive)
    1  A    between atoms: C_3  and  C_24
    2  A    between atoms: C_3  and  N_25
    3  A    between atoms: C_7  and  C_11
    4  A    between atoms: C_18  and  C_30
                            x       y       z     vdW  Elec       q    Type
                         _______ _______ _______ _____ _____    ______ ____

>  <TORSDO>
F 4

$$$$
=
 OpenBabel10262423263D

 34 38  0  0  1  0  0  0  0  0999 V2000
  189.3190  177.8540  139.5460 C   0  0  2  0  0  3  0  0  0  0  0  0
  190.5150  177.0570  135.9240 C   0  0  0  0  0  2  0  0  0  0  0  0
  188.6920  178.5630  136.9080 C   0  0  0  0  0  2  0  0  0  0  0  0
  191.0760  177.4530  141.2100 N   0  0  0  0  0  1  0  0  0  0  0  0
  189.6400  177.4030  140.9810 C   0  0  1  0  0  3  0  0  0  0  0  0
  187.0250  178.5210  140.3470 C   0  0  0  0  0  0  0  0  0  0  0  0
  185.8510  178.9220  140.1360 O   0  0  0  0  0  0  0  0  0  0  0  0
  187.5530  178.5820  141.6720 N   0  0  0  0  0  2  0  0  0  0  0  0
  188.9610  178.3510  141.9810 C   0  0  1  0  0  3  0  0  0  0  0  0
  187.5430  178.3640  137.8630 C   0  0  0  0  0  0  0  0  0  0  0  0
  187.8080  177.8320  139.2590 C   0  0  1  0  0  3  0  0  0  0  0  0
  186.4040  178.5750  137.4780 O   0  0  0  0  0  0  0  0  0  0  0  0
  190.8580  175.5740  135.9720 C   0  0  0  0  0  2  0  0  0  0  0  0
  192.1570  175.3570  136.6210 N   0  0  0  0  0  0  0  0  0  0  0  0
  192.2550  175.9890  137.9470 C   0  0  0  0  0  2  0  0  0  0  0  0
  189.7620  177.5240  137.1450 C   0  0  2  0  0  3  0  0  0  0  0  0
  190.9410  175.9520  138.7280 C   0  0  0  0  0  2  0  0  0  0  0  0
  190.0550  177.1390  138.4200 C   0  0  2  0  0  3  0  0  0  0  0  0
  188.1540  177.4390  145.5960 C   0  0  0  0  0  3  0  0  0  0  0  0
  190.3490  177.3910  143.8280 C   0  0  0  0  0  3  0  0  0  0  0  0
  191.2360  176.0850  147.2210 C   0  0  1  0  0  3  0  0  0  0  0  0
  189.7500  176.4620  147.3480 C   0  0  0  0  0  2  0  0  0  0  0  0
  189.4000  176.9650  146.0040 C   0  0  0  0  0  0  0  0  0  0  0  0
  191.6910  176.4120  145.7890 C   0  0  2  0  0  3  0  0  0  0  0  0
  190.4680  176.9390  145.1450 C   0  0  0  0  0  0  0  0  0  0  0  0
  192.0930  175.2380  145.1510 O   0  0  0  0  0  1  0  0  0  0  0  0
  189.1040  177.8710  143.3900 C   0  0  0  0  0  0  0  0  0  0  0  0
  188.0080  177.8930  144.2780 C   0  0  0  0  0  3  0  0  0  0  0  0
  192.0590  176.8300  148.2220 C   0  0  0  0  0  0  0  0  0  0  0  0
  191.6650  177.9340  148.6840 O   0  0  0  0  0  1  0  0  0  0  0  0
  193.2690  176.3000  148.6440 O   0  0  0  0  0  0  0  0  0  0  0  0
  192.3180  173.9200  136.8030 C   0  0  0  0  0  2  0  0  0  0  0  0
  191.7300  172.1230  135.3470 O   0  0  0  0  0  1  0  0  0  0  0  0
  191.2000  173.1710  136.1010 C   0  0  0  0  0  2  0  0  0  0  0  0
  1  5  1  0  0  0  0
  2 13  1  0  0  0  0
  2 16  1  0  0  0  0
  3 16  1  0  0  0  0
  3 10  1  0  0  0  0
  5  4  1  0  0  0  0
  5  9  1  0  0  0  0
  6  8  1  0  0  0  0
  7  6  2  0  0  0  0
  8  9  1  0  0  0  0
  9 27  1  0  0  0  0
 10 11  1  0  0  0  0
 11  1  1  0  0  0  0
 11  6  1  0  0  0  0
 12 10  2  0  0  0  0
 13 14  1  0  0  0  0
 14 32  1  0  0  0  0
 14 15  1  0  0  0  0
 15 17  1  0  0  0  0
 16 18  1  0  0  0  0
 18 17  1  0  0  0  0
 18  1  1  0  0  0  0
 19 23  1  0  0  0  0
 20 25  1  0  0  0  0
 21 22  1  0  0  0  0
 21 29  1  0  0  0  0
 23 22  1  0  0  0  0
 24 21  1  0  0  0  0
 25 24  1  0  0  0  0
 25 23  2  0  0  0  0
 26 24  1  0  0  0  0
 27 20  2  0  0  0  0
 27 28  1  0  0  0  0
 28 19  2  0  0  0  0
 29 31  2  0  0  0  0
 29 30  1  0  0  0  0
 33 34  1  0  0  0  0
 34 32  1  0  0  0  0
M  END
>  <MODEL>
4

>  <REMARK>
 VINA RESULT:      -9.0      4.940      6.670
  Name = 
  4 active torsions:
  status: ('A' for Active; 'I' for Inactive)
    1  A    between atoms: C_3  and  C_24
    2  A    between atoms: C_3  and  N_25
    3  A    between atoms: C_7  and  C_11
    4  A    between atoms: C_18  and  C_30
                            x       y       z     vdW  Elec       q    Type
                         _______ _______ _______ _____ _____    ______ ____

>  <TORSDO>
F 4

$$$$
=
 OpenBabel10262423263D

 34 38  0  0  1  0  0  0  0  0999 V2000
  188.7090  177.9340  144.1650 C   0  0  2  0  0  3  0  0  0  0  0  0
  186.1780  178.8540  146.9820 C   0  0  0  0  0  2  0  0  0  0  0  0
  188.6490  178.1780  146.9560 C   0  0  0  0  0  2  0  0  0  0  0  0
  188.0710  178.8900  141.9980 N   0  0  0  0  0  1  0  0  0  0  0  0
  188.7020  177.7450  142.6380 C   0  0  1  0  0  3  0  0  0  0  0  0
  190.7110  176.4080  144.2710 C   0  0  0  0  0  0  0  0  0  0  0  0
  191.5620  175.7370  144.9130 O   0  0  0  0  0  0  0  0  0  0  0  0
  190.9540  176.7010  142.8950 N   0  0  0  0  0  2  0  0  0  0  0  0
  190.1480  177.6460  142.1270 C   0  0  1  0  0  3  0  0  0  0  0  0
  189.4360  177.0300  146.3800 C   0  0  0  0  0  0  0  0  0  0  0  0
  189.3810  176.7540  144.8890 C   0  0  1  0  0  3  0  0  0  0  0  0
  190.0580  176.2960  147.1300 O   0  0  0  0  0  0  0  0  0  0  0  0
  184.8670  178.2400  146.5080 C   0  0  0  0  0  2  0  0  0  0  0  0
  184.2500  179.0650  145.4620 N   0  0  0  0  0  0  0  0  0  0  0  0
  185.1600  179.3560  144.3410 C   0  0  0  0  0  2  0  0  0  0  0  0
  187.3680  178.3830  146.1830 C   0  0  2  0  0  3  0  0  0  0  0  0
  186.0970  178.1940  144.0110 C   0  0  0  0  0  2  0  0  0  0  0  0
  187.3700  178.2310  144.8270 C   0  0  2  0  0  3  0  0  0  0  0  0
  189.1170  177.0830  138.4970 C   0  0  0  0  0  3  0  0  0  0  0  0
  191.4160  176.8700  140.1150 C   0  0  0  0  0  3  0  0  0  0  0  0
  192.0880  175.8930  136.5650 C   0  0  1  0  0  3  0  0  0  0  0  0
  190.5950  176.2620  136.5700 C   0  0  0  0  0  2  0  0  0  0  0  0
  190.3360  176.6600  137.9690 C   0  0  0  0  0  0  0  0  0  0  0  0
  192.6300  176.0780  137.9930 C   0  0  2  0  0  3  0  0  0  0  0  0
  191.4560  176.5580  138.7540 C   0  0  0  0  0  0  0  0  0  0  0  0
  193.6230  177.0580  137.9880 O   0  0  0  0  0  1  0  0  0  0  0  0
  190.2020  177.3020  140.6720 C   0  0  0  0  0  0  0  0  0  0  0  0
  189.0540  177.4080  139.8600 C   0  0  0  0  0  3  0  0  0  0  0  0
  192.2840  174.4860  136.1020 C   0  0  0  0  0  0  0  0  0  0  0  0
  193.1900  174.2020  135.2740 O   0  0  0  0  0  0  0  0  0  0  0  0
  191.4580  173.4840  136.5900 O   0  0  0  0  0  1  0  0  0  0  0  0
  183.1180  178.3180  144.9290 C   0  0  0  0  0  2  0  0  0  0  0  0
  181.1290  178.7370  143.6790 O   0  0  0  0  0  1  0  0  0  0  0  0
  182.4770  179.0810  143.7830 C   0  0  0  0  0  2  0  0  0  0  0  0
  1 18  1  0  0  0  0
  1 11  1  0  0  0  0
  4  5  1  0  0  0  0
  5  1  1  0  0  0  0
  6 11  1  0  0  0  0
  6  7  2  0  0  0  0
  8  6  1  0  0  0  0
  9  5  1  0  0  0  0
  9  8  1  0  0  0  0
 10  3  1  0  0  0  0
 10 12  2  0  0  0  0
 11 10  1  0  0  0  0
 13  2  1  0  0  0  0
 14 13  1  0  0  0  0
 15 14  1  0  0  0  0
 16  3  1  0  0  0  0
 16  2  1  0  0  0  0
 17 15  1  0  0  0  0
 17 18  1  0  0  0  0
 18 16  1  0  0  0  0
 19 28  1  0  0  0  0
 20 27  1  0  0  0  0
 21 22  1  0  0  0  0
 21 24  1  0  0  0  0
 22 23  1  0  0  0  0
 23 19  2  0  0  0  0
 23 25  1  0  0  0  0
 24 25  1  0  0  0  0
 25 20  2  0  0  0  0
 26 24  1  0  0  0  0
 27  9  1  0  0  0  0
 28 27  2  0  0  0  0
 29 21  1  0  0  0  0
 29 31  1  0  0  0  0
 30 29  2  0  0  0  0
 32 14  1  0  0  0  0
 33 34  1  0  0  0  0
 34 32  1  0  0  0  0
M  END
>  <MODEL>
5

>  <REMARK>
 VINA RESULT:      -9.0      4.544      8.614
  Name = 
  4 active torsions:
  status: ('A' for Active; 'I' for Inactive)
    1  A    between atoms: C_3  and  C_24
    2  A    between atoms: C_3  and  N_25
    3  A    between atoms: C_7  and  C_11
    4  A    between atoms: C_18  and  C_30
                            x       y       z     vdW  Elec       q    Type
                         _______ _______ _______ _____ _____    ______ ____

>  <TORSDO>
F 4

$$$$
=
 OpenBabel10262423263D

 34 38  0  0  1  0  0  0  0  0999 V2000
  186.7260  178.2030  138.4040 C   0  0  2  0  0  3  0  0  0  0  0  0
  189.4130  177.3780  135.7050 C   0  0  0  0  0  2  0  0  0  0  0  0
  186.9620  178.1170  135.6130 C   0  0  0  0  0  2  0  0  0  0  0  0
  187.7330  178.8730  140.5380 N   0  0  0  0  0  1  0  0  0  0  0  0
  186.6020  178.1820  139.9370 C   0  0  1  0  0  3  0  0  0  0  0  0
  184.2210  177.9640  138.2710 C   0  0  0  0  0  0  0  0  0  0  0  0
  183.1570  177.7880  137.6220 O   0  0  0  0  0  0  0  0  0  0  0  0
  184.1460  178.4680  139.6050 N   0  0  0  0  0  2  0  0  0  0  0  0
  185.3160  178.9110  140.3570 C   0  0  1  0  0  3  0  0  0  0  0  0
  185.6730  177.6180  136.2130 C   0  0  0  0  0  0  0  0  0  0  0  0
  185.5430  177.4950  137.7200 C   0  0  1  0  0  3  0  0  0  0  0  0
  184.7710  177.2580  135.4750 O   0  0  0  0  0  0  0  0  0  0  0  0
  190.1860  176.2110  136.3050 C   0  0  0  0  0  2  0  0  0  0  0  0
  191.1270  176.6780  137.3310 N   0  0  0  0  0  0  0  0  0  0  0  0
  190.4900  177.5090  138.3660 C   0  0  0  0  0  2  0  0  0  0  0  0
  188.1400  177.6840  136.4540 C   0  0  2  0  0  3  0  0  0  0  0  0
  189.0720  177.0550  138.7130 C   0  0  0  0  0  2  0  0  0  0  0  0
  188.0310  177.6840  137.8140 C   0  0  2  0  0  3  0  0  0  0  0  0
  183.5450  178.9010  143.7370 C   0  0  0  0  0  3  0  0  0  0  0  0
  186.1140  178.4220  142.6780 C   0  0  0  0  0  3  0  0  0  0  0  0
  186.0080  177.9730  146.3920 C   0  0  1  0  0  3  0  0  0  0  0  0
  184.5680  178.3730  146.0270 C   0  0  0  0  0  2  0  0  0  0  0  0
  184.6100  178.5370  144.5600 C   0  0  0  0  0  0  0  0  0  0  0  0
  186.8370  177.9420  145.0970 C   0  0  2  0  0  3  0  0  0  0  0  0
  185.8590  178.3010  144.0460 C   0  0  0  0  0  0  0  0  0  0  0  0
  187.3100  176.6480  144.8800 O   0  0  0  0  0  1  0  0  0  0  0  0
  185.0580  178.7850  141.8260 C   0  0  0  0  0  0  0  0  0  0  0  0
  183.7740  179.0230  142.3590 C   0  0  0  0  0  3  0  0  0  0  0  0
  186.5920  178.9360  147.3730 C   0  0  0  0  0  0  0  0  0  0  0  0
  186.0570  180.0590  147.5690 O   0  0  0  0  0  0  0  0  0  0  0  0
  187.7370  178.5870  148.0750 O   0  0  0  0  0  1  0  0  0  0  0  0
  191.6770  175.4990  137.9870 C   0  0  0  0  0  2  0  0  0  0  0  0
  193.9230  176.2010  138.3810 O   0  0  0  0  0  1  0  0  0  0  0  0
  193.1410  175.3290  137.6230 C   0  0  0  0  0  2  0  0  0  0  0  0
  1  5  1  0  0  0  0
  2 13  1  0  0  0  0
  2 16  1  0  0  0  0
  3 10  1  0  0  0  0
  3 16  1  0  0  0  0
  5  9  1  0  0  0  0
  5  4  1  0  0  0  0
  6  8  1  0  0  0  0
  7  6  2  0  0  0  0
  8  9  1  0  0  0  0
  9 27  1  0  0  0  0
 10 11  1  0  0  0  0
 11  6  1  0  0  0  0
 11  1  1  0  0  0  0
 12 10  2  0  0  0  0
 13 14  1  0  0  0  0
 14 32  1  0  0  0  0
 14 15  1  0  0  0  0
 15 17  1  0  0  0  0
 16 18  1  0  0  0  0
 18  1  1  0  0  0  0
 18 17  1  0  0  0  0
 19 23  1  0  0  0  0
 20 25  1  0  0  0  0
 21 29  1  0  0  0  0
 22 21  1  0  0  0  0
 23 22  1  0  0  0  0
 24 21  1  0  0  0  0
 25 23  2  0  0  0  0
 25 24  1  0  0  0  0
 26 24  1  0  0  0  0
 27 28  1  0  0  0  0
 27 20  2  0  0  0  0
 28 19  2  0  0  0  0
 29 30  2  0  0  0  0
 29 31  1  0  0  0  0
 34 32  1  0  0  0  0
 34 33  1  0  0  0  0
M  END
>  <MODEL>
6

>  <REMARK>
 VINA RESULT:      -8.8      4.066      6.127
  Name = 
  4 active torsions:
  status: ('A' for Active; 'I' for Inactive)
    1  A    between atoms: C_3  and  C_24
    2  A    between atoms: C_3  and  N_25
    3  A    between atoms: C_7  and  C_11
    4  A    between atoms: C_18  and  C_30
                            x       y       z     vdW  Elec       q    Type
                         _______ _______ _______ _____ _____    ______ ____

>  <TORSDO>
F 4

$$$$
=
 OpenBabel10262423263D

 34 38  0  0  1  0  0  0  0  0999 V2000
  189.2270  177.5960  138.7990 C   0  0  2  0  0  3  0  0  0  0  0  0
  190.8360  176.4890  135.4260 C   0  0  0  0  0  2  0  0  0  0  0  0
  189.0000  178.1590  136.0630 C   0  0  0  0  0  2  0  0  0  0  0  0
  190.7190  177.2100  140.7070 N   0  0  0  0  0  1  0  0  0  0  0  0
  189.3250  177.2250  140.2880 C   0  0  1  0  0  3  0  0  0  0  0  0
  186.8960  178.4440  139.2390 C   0  0  0  0  0  0  0  0  0  0  0  0
  185.7880  178.8950  138.8470 O   0  0  0  0  0  0  0  0  0  0  0  0
  187.2460  178.5640  140.6180 N   0  0  0  0  0  2  0  0  0  0  0  0
  188.5840  178.2760  141.1290 C   0  0  1  0  0  3  0  0  0  0  0  0
  187.7250  178.0900  136.8620 C   0  0  0  0  0  0  0  0  0  0  0  0
  187.7690  177.6390  138.3110 C   0  0  1  0  0  3  0  0  0  0  0  0
  186.6630  178.3380  136.3150 O   0  0  0  0  0  0  0  0  0  0  0  0
  191.0720  174.9950  135.6080 C   0  0  0  0  0  2  0  0  0  0  0  0
  192.2570  174.7500  136.4400 N   0  0  0  0  0  0  0  0  0  0  0  0
  192.2200  175.4640  137.7270 C   0  0  0  0  0  2  0  0  0  0  0  0
  189.9600  177.0790  136.5040 C   0  0  2  0  0  3  0  0  0  0  0  0
  190.8150  175.5540  138.3230 C   0  0  0  0  0  2  0  0  0  0  0  0
  190.0570  176.7650  137.8280 C   0  0  2  0  0  3  0  0  0  0  0  0
  187.2040  177.3010  144.5490 C   0  0  0  0  0  3  0  0  0  0  0  0
  189.6960  177.7300  143.3020 C   0  0  0  0  0  3  0  0  0  0  0  0
  190.0620  176.7740  146.9020 C   0  0  1  0  0  3  0  0  0  0  0  0
  188.5400  176.7870  146.6760 C   0  0  0  0  0  2  0  0  0  0  0  0
  188.4000  177.1520  145.2520 C   0  0  0  0  0  0  0  0  0  0  0  0
  190.7440  177.1590  145.5780 C   0  0  2  0  0  3  0  0  0  0  0  0
  189.6120  177.3590  144.6460 C   0  0  0  0  0  0  0  0  0  0  0  0
  191.5360  176.0990  145.1400 O   0  0  0  0  0  1  0  0  0  0  0  0
  188.5080  177.8840  142.5700 C   0  0  0  0  0  0  0  0  0  0  0  0
  187.2630  177.6680  143.1970 C   0  0  0  0  0  3  0  0  0  0  0  0
  190.4430  177.7240  147.9910 C   0  0  0  0  0  0  0  0  0  0  0  0
  189.5940  178.5150  148.4810 O   0  0  0  0  0  1  0  0  0  0  0  0
  191.7470  177.7340  148.4640 O   0  0  0  0  0  0  0  0  0  0  0  0
  192.3000  173.3220  136.7280 C   0  0  0  0  0  2  0  0  0  0  0  0
  194.3690  173.6820  135.5950 O   0  0  0  0  0  1  0  0  0  0  0  0
  193.6510  172.7470  136.3420 C   0  0  0  0  0  2  0  0  0  0  0  0
  1  5  1  0  0  0  0
  2 13  1  0  0  0  0
  2 16  1  0  0  0  0
  3 16  1  0  0  0  0
  3 10  1  0  0  0  0
  5  4  1  0  0  0  0
  5  9  1  0  0  0  0
  6  8  1  0  0  0  0
  7  6  2  0  0  0  0
  8  9  1  0  0  0  0
  9 27  1  0  0  0  0
 10 11  1  0  0  0  0
 11  1  1  0  0  0  0
 11  6  1  0  0  0  0
 12 10  2  0  0  0  0
 13 14  1  0  0  0  0
 14 32  1  0  0  0  0
 14 15  1  0  0  0  0
 15 17  1  0  0  0  0
 16 18  1  0  0  0  0
 18 17  1  0  0  0  0
 18  1  1  0  0  0  0
 19 23  1  0  0  0  0
 20 25  1  0  0  0  0
 21 29  1  0  0  0  0
 22 21  1  0  0  0  0
 23 22  1  0  0  0  0
 24 21  1  0  0  0  0
 25 23  2  0  0  0  0
 25 24  1  0  0  0  0
 26 24  1  0  0  0  0
 27 28  1  0  0  0  0
 27 20  2  0  0  0  0
 28 19  2  0  0  0  0
 29 31  2  0  0  0  0
 29 30  1  0  0  0  0
 33 34  1  0  0  0  0
 34 32  1  0  0  0  0
M  END
>  <MODEL>
7

>  <REMARK>
 VINA RESULT:      -8.7      5.239      7.012
  Name = 
  4 active torsions:
  status: ('A' for Active; 'I' for Inactive)
    1  A    between atoms: C_3  and  C_24
    2  A    between atoms: C_3  and  N_25
    3  A    between atoms: C_7  and  C_11
    4  A    between atoms: C_18  and  C_30
                            x       y       z     vdW  Elec       q    Type
                         _______ _______ _______ _____ _____    ______ ____

>  <TORSDO>
F 4

$$$$
=
 OpenBabel10262423263D

 34 38  0  0  1  0  0  0  0  0999 V2000
  188.2950  178.0380  143.5420 C   0  0  2  0  0  3  0  0  0  0  0  0
  185.7600  178.8670  146.3840 C   0  0  0  0  0  2  0  0  0  0  0  0
  188.2420  178.2360  146.3370 C   0  0  0  0  0  2  0  0  0  0  0  0
  187.6300  179.0160  141.3940 N   0  0  0  0  0  1  0  0  0  0  0  0
  188.2850  177.8730  142.0130 C   0  0  1  0  0  3  0  0  0  0  0  0
  190.3250  176.5470  143.6150 C   0  0  0  0  0  0  0  0  0  0  0  0
  191.1900  175.8820  144.2430 O   0  0  0  0  0  0  0  0  0  0  0  0
  190.5560  176.8660  142.2430 N   0  0  0  0  0  2  0  0  0  0  0  0
  189.7290  177.8090  141.4940 C   0  0  1  0  0  3  0  0  0  0  0  0
  189.0480  177.1120  145.7390 C   0  0  0  0  0  0  0  0  0  0  0  0
  188.9910  176.8590  144.2440 C   0  0  1  0  0  3  0  0  0  0  0  0
  189.6860  176.3780  146.4760 O   0  0  0  0  0  0  0  0  0  0  0  0
  184.4580  178.2360  145.9060 C   0  0  0  0  0  2  0  0  0  0  0  0
  183.8220  179.0660  144.8750 N   0  0  0  0  0  0  0  0  0  0  0  0
  184.7210  179.3920  143.7560 C   0  0  0  0  0  2  0  0  0  0  0  0
  186.9540  178.4300  145.5720 C   0  0  2  0  0  3  0  0  0  0  0  0
  185.6770  178.2520  143.4030 C   0  0  0  0  0  2  0  0  0  0  0  0
  186.9530  178.3000  144.2140 C   0  0  2  0  0  3  0  0  0  0  0  0
  189.1610  177.9790  137.7250 C   0  0  0  0  0  3  0  0  0  0  0  0
  190.5260  176.3780  139.6020 C   0  0  0  0  0  3  0  0  0  0  0  0
  190.9830  175.1490  136.0970 C   0  0  1  0  0  3  0  0  0  0  0  0
  190.0750  176.3810  135.9410 C   0  0  0  0  0  2  0  0  0  0  0  0
  189.9080  176.8720  137.3240 C   0  0  0  0  0  0  0  0  0  0  0  0
  191.2880  174.9680  137.5940 C   0  0  2  0  0  3  0  0  0  0  0  0
  190.5740  176.0930  138.2360 C   0  0  0  0  0  0  0  0  0  0  0  0
  192.6600  175.0960  137.8060 O   0  0  0  0  0  1  0  0  0  0  0  0
  189.7830  177.4890  140.0340 C   0  0  0  0  0  0  0  0  0  0  0  0
  189.1020  178.2880  139.0920 C   0  0  0  0  0  3  0  0  0  0  0  0
  190.3220  173.9310  135.5390 C   0  0  0  0  0  0  0  0  0  0  0  0
  190.8620  172.7980  135.6500 O   0  0  0  0  0  1  0  0  0  0  0  0
  189.1010  174.0510  134.8910 O   0  0  0  0  0  0  0  0  0  0  0  0
  182.7010  178.3080  144.3350 C   0  0  0  0  0  2  0  0  0  0  0  0
  181.6770  178.6540  142.2070 O   0  0  0  0  0  1  0  0  0  0  0  0
  181.8220  179.2040  143.4810 C   0  0  0  0  0  2  0  0  0  0  0  0
  1 18  1  0  0  0  0
  1 11  1  0  0  0  0
  4  5  1  0  0  0  0
  5  1  1  0  0  0  0
  6  7  2  0  0  0  0
  6 11  1  0  0  0  0
  8  6  1  0  0  0  0
  9  5  1  0  0  0  0
  9  8  1  0  0  0  0
 10  3  1  0  0  0  0
 10 12  2  0  0  0  0
 11 10  1  0  0  0  0
 13  2  1  0  0  0  0
 14 13  1  0  0  0  0
 15 14  1  0  0  0  0
 16  3  1  0  0  0  0
 16  2  1  0  0  0  0
 17 15  1  0  0  0  0
 17 18  1  0  0  0  0
 18 16  1  0  0  0  0
 19 28  1  0  0  0  0
 20 27  1  0  0  0  0
 21 24  1  0  0  0  0
 22 21  1  0  0  0  0
 22 23  1  0  0  0  0
 23 19  2  0  0  0  0
 23 25  1  0  0  0  0
 24 26  1  0  0  0  0
 24 25  1  0  0  0  0
 25 20  2  0  0  0  0
 27  9  1  0  0  0  0
 28 27  2  0  0  0  0
 29 30  1  0  0  0  0
 29 21  1  0  0  0  0
 31 29  2  0  0  0  0
 32 14  1  0  0  0  0
 33 34  1  0  0  0  0
 34 32  1  0  0  0  0
M  END
>  <MODEL>
8

>  <REMARK>
 VINA RESULT:      -8.5      4.256      8.414
  Name = 
  4 active torsions:
  status: ('A' for Active; 'I' for Inactive)
    1  A    between atoms: C_3  and  C_24
    2  A    between atoms: C_3  and  N_25
    3  A    between atoms: C_7  and  C_11
    4  A    between atoms: C_18  and  C_30
                            x       y       z     vdW  Elec       q    Type
                         _______ _______ _______ _____ _____    ______ ____

>  <TORSDO>
F 4

$$$$
=
 OpenBabel10262423263D

 34 38  0  0  1  0  0  0  0  0999 V2000
  187.2660  177.5830  145.0860 C   0  0  2  0  0  3  0  0  0  0  0  0
  190.9970  176.7110  145.7980 C   0  0  0  0  0  2  0  0  0  0  0  0
  188.9510  177.1330  147.2800 C   0  0  0  0  0  2  0  0  0  0  0  0
  186.5580  176.8650  142.8500 N   0  0  0  0  0  1  0  0  0  0  0  0
  186.3750  177.8870  143.8700 C   0  0  1  0  0  3  0  0  0  0  0  0
  185.6450  178.8850  146.5080 C   0  0  0  0  0  0  0  0  0  0  0  0
  185.3030  179.4160  147.5980 O   0  0  0  0  0  0  0  0  0  0  0  0
  184.6570  178.6750  145.4990 N   0  0  0  0  0  2  0  0  0  0  0  0
  184.9000  177.8780  144.3000 C   0  0  1  0  0  3  0  0  0  0  0  0
  187.9330  178.2370  147.4060 C   0  0  0  0  0  0  0  0  0  0  0  0
  187.0980  178.6300  146.2010 C   0  0  1  0  0  3  0  0  0  0  0  0
  187.8370  178.8440  148.4600 O   0  0  0  0  0  0  0  0  0  0  0  0
  191.7620  177.4890  144.7350 C   0  0  0  0  0  2  0  0  0  0  0  0
  191.6850  176.8140  143.4340 N   0  0  0  0  0  0  0  0  0  0  0  0
  190.3040  176.5180  143.0150 C   0  0  0  0  0  2  0  0  0  0  0  0
  189.5480  177.1190  145.8930 C   0  0  2  0  0  3  0  0  0  0  0  0
  189.3070  177.6010  143.4280 C   0  0  0  0  0  2  0  0  0  0  0  0
  188.7510  177.3720  144.8150 C   0  0  2  0  0  3  0  0  0  0  0  0
  183.6350  178.9570  140.8660 C   0  0  0  0  0  3  0  0  0  0  0  0
  182.6330  178.5310  143.4670 C   0  0  0  0  0  3  0  0  0  0  0  0
  179.9650  179.6390  141.0870 C   0  0  1  0  0  3  0  0  0  0  0  0
  181.2380  179.6010  140.2230 C   0  0  0  0  0  2  0  0  0  0  0  0
  182.2860  179.1510  141.1620 C   0  0  0  0  0  0  0  0  0  0  0  0
  180.3470  179.2210  142.5170 C   0  0  2  0  0  3  0  0  0  0  0  0
  181.7970  178.9430  142.4260 C   0  0  0  0  0  0  0  0  0  0  0  0
  179.6620  178.0540  142.8570 O   0  0  0  0  0  1  0  0  0  0  0  0
  183.9950  178.3250  143.1960 C   0  0  0  0  0  0  0  0  0  0  0  0
  184.4930  178.5380  141.8930 C   0  0  0  0  0  3  0  0  0  0  0  0
  179.3600  181.0050  141.0770 C   0  0  0  0  0  0  0  0  0  0  0  0
  178.9340  181.5270  142.1410 O   0  0  0  0  0  1  0  0  0  0  0  0
  179.2670  181.7040  139.8820 O   0  0  0  0  0  0  0  0  0  0  0  0
  192.2650  177.7090  142.4420 C   0  0  0  0  0  2  0  0  0  0  0  0
  192.9220  177.5030  140.1570 O   0  0  0  0  0  1  0  0  0  0  0  0
  191.8690  177.2720  141.0430 C   0  0  0  0  0  2  0  0  0  0  0  0
  1 11  1  0  0  0  0
  2 16  1  0  0  0  0
  3 10  1  0  0  0  0
  4  5  1  0  0  0  0
  5  9  1  0  0  0  0
  5  1  1  0  0  0  0
  6  7  2  0  0  0  0
  8  6  1  0  0  0  0
  9  8  1  0  0  0  0
 10 12  2  0  0  0  0
 11  6  1  0  0  0  0
 11 10  1  0  0  0  0
 13  2  1  0  0  0  0
 14 13  1  0  0  0  0
 15 17  1  0  0  0  0
 15 14  1  0  0  0  0
 16  3  1  0  0  0  0
 17 18  1  0  0  0  0
 18  1  1  0  0  0  0
 18 16  1  0  0  0  0
 19 23  2  0  0  0  0
 19 28  1  0  0  0  0
 21 24  1  0  0  0  0
 22 21  1  0  0  0  0
 22 23  1  0  0  0  0
 23 25  1  0  0  0  0
 24 26  1  0  0  0  0
 25 24  1  0  0  0  0
 25 20  2  0  0  0  0
 27 20  1  0  0  0  0
 27  9  1  0  0  0  0
 28 27  2  0  0  0  0
 29 21  1  0  0  0  0
 29 30  1  0  0  0  0
 31 29  2  0  0  0  0
 32 14  1  0  0  0  0
 33 34  1  0  0  0  0
 34 32  1  0  0  0  0
M  END
>  <MODEL>
9

>  <REMARK>
 VINA RESULT:      -8.4      3.034      8.801
  Name = 
  4 active torsions:
  status: ('A' for Active; 'I' for Inactive)
    1  A    between atoms: C_3  and  C_24
    2  A    between atoms: C_3  and  N_25
    3  A    between atoms: C_7  and  C_11
    4  A    between atoms: C_18  and  C_30
                            x       y       z     vdW  Elec       q    Type
                         _______ _______ _______ _____ _____    ______ ____

>  <TORSDO>
F 4

$$$$
