=
 OpenBabel10262420003D

 27 30  0  0  1  0  0  0  0  0999 V2000
  189.6160  176.7050  143.6530 N   0  0  0  0  0  0  0  0  0  0  0  0
  190.3610  176.9320  142.4350 C   0  0  0  0  0  0  0  0  0  0  0  0
  191.6460  177.5060  142.4870 C   0  0  0  0  0  3  0  0  0  0  0  0
  190.5530  176.8130  140.0070 C   0  0  0  0  0  0  0  0  0  0  0  0
  191.8330  177.3820  140.0830 C   0  0  0  0  0  3  0  0  0  0  0  0
  189.8300  176.5870  141.1800 C   0  0  0  0  0  3  0  0  0  0  0  0
  192.3750  177.7340  141.3190 C   0  0  0  0  0  3  0  0  0  0  0  0
  189.9990  176.3240  138.7030 C   0  0  2  0  0  3  0  0  0  0  0  0
  190.7660  175.1740  138.2560 N   0  0  0  0  0  1  0  0  0  0  0  0
  189.3190  176.9690  136.5070 O   0  0  0  0  0  0  0  0  0  0  0  0
  188.6640  177.8910  137.3420 C   0  0  0  0  0  2  0  0  0  0  0  0
  190.0340  177.4100  137.6350 C   0  0  1  0  0  3  0  0  0  0  0  0
  191.4180  176.6170  147.5010 C   0  0  0  0  0  3  0  0  0  0  0  0
  190.2350  176.7080  144.9570 C   0  0  0  0  0  0  0  0  0  0  0  0
  189.5960  177.3010  146.0590 C   0  0  0  0  0  3  0  0  0  0  0  0
  190.1880  177.2560  147.3250 C   0  0  0  0  0  3  0  0  0  0  0  0
  192.0540  176.0120  146.4130 C   0  0  0  0  0  3  0  0  0  0  0  0
  191.4630  176.0560  145.1470 C   0  0  0  0  0  3  0  0  0  0  0  0
  188.1880  176.3860  143.5760 C   0  0  0  0  0  2  0  0  0  0  0  0
  187.2900  178.8120  141.3390 Cl  0  0  0  0  0  0  0  0  0  0  0  0
  184.7970  178.9670  144.1930 C   0  0  0  0  0  3  0  0  0  0  0  0
  185.6740  178.6360  145.3640 C   0  0  1  0  0  3  0  0  0  0  0  0
  187.3270  177.6220  143.8060 C   0  0  2  0  0  3  0  0  0  0  0  0
  185.1480  178.6540  142.9360 C   0  0  0  0  0  3  0  0  0  0  0  0
  184.6730  178.3650  146.8060 Cl  0  0  0  0  0  0  0  0  0  0  0  0
  186.5160  177.4010  145.0810 C   0  0  0  0  0  2  0  0  0  0  0  0
  186.4100  177.8990  142.5950 C   0  0  1  0  0  3  0  0  0  0  0  0
  1 14  1  0  0  0  0
  2  3  1  0  0  0  0
  2  1  1  0  0  0  0
  4  5  2  0  0  0  0
  4  6  1  0  0  0  0
  5  7  1  0  0  0  0
  6  2  2  0  0  0  0
  7  3  2  0  0  0  0
  8  9  1  6  0  0  0
  8  4  1  0  0  0  0
 10 11  1  0  0  0  0
 10 12  1  0  0  0  0
 11 12  1  0  0  0  0
 12  8  1  1  0  0  0
 14 18  2  0  0  0  0
 14 15  1  0  0  0  0
 15 16  2  0  0  0  0
 16 13  1  0  0  0  0
 17 13  2  0  0  0  0
 18 17  1  0  0  0  0
 19  1  1  0  0  0  0
 21 22  1  0  0  0  0
 22 25  1  1  0  0  0
 23 19  1  6  0  0  0
 23 26  1  0  0  0  0
 24 21  2  0  0  0  0
 26 22  1  0  0  0  0
 27 20  1  6  0  0  0
 27 24  1  0  0  0  0
 27 23  1  0  0  0  0
M  END
>  <MODEL>
1

>  <REMARK>
 VINA RESULT:      -8.7      0.000      0.000
  Name = 
  6 active torsions:
  status: ('A' for Active; 'I' for Inactive)
    1  A    between atoms: C_1  and  N_15
    2  A    between atoms: C_1  and  C_18
    3  A    between atoms: C_2  and  N_15
    4  A    between atoms: C_8  and  C_14
    5  A    between atoms: C_8  and  C_16
    6  A    between atoms: C_9  and  N_15
                            x       y       z     vdW  Elec       q    Type
                         _______ _______ _______ _____ _____    ______ ____

>  <TORSDO>
F 6

$$$$
=
 OpenBabel10262420003D

 27 30  0  0  1  0  0  0  0  0999 V2000
  186.7110  177.4380  143.9200 N   0  0  0  0  0  0  0  0  0  0  0  0
  185.4650  178.0190  143.4710 C   0  0  0  0  0  0  0  0  0  0  0  0
  184.5570  178.5550  144.4050 C   0  0  0  0  0  3  0  0  0  0  0  0
  183.9220  178.6200  141.6810 C   0  0  0  0  0  0  0  0  0  0  0  0
  183.0360  179.1540  142.6270 C   0  0  0  0  0  3  0  0  0  0  0  0
  185.1300  178.0640  142.1070 C   0  0  0  0  0  3  0  0  0  0  0  0
  183.3490  179.1150  143.9870 C   0  0  0  0  0  3  0  0  0  0  0  0
  183.6590  178.7530  140.2120 C   0  0  2  0  0  3  0  0  0  0  0  0
  184.5220  179.7830  139.6590 N   0  0  0  0  0  1  0  0  0  0  0  0
  182.0100  179.1930  138.5410 O   0  0  0  0  0  0  0  0  0  0  0  0
  181.5510  178.0170  139.1610 C   0  0  0  0  0  2  0  0  0  0  0  0
  182.2020  179.1020  139.9310 C   0  0  1  0  0  3  0  0  0  0  0  0
  190.1610  177.0700  141.4650 C   0  0  0  0  0  3  0  0  0  0  0  0
  187.8630  177.3070  143.0590 C   0  0  0  0  0  0  0  0  0  0  0  0
  188.2100  178.3280  142.1580 C   0  0  0  0  0  3  0  0  0  0  0  0
  189.3540  178.2070  141.3630 C   0  0  0  0  0  3  0  0  0  0  0  0
  189.8300  176.0560  142.3680 C   0  0  0  0  0  3  0  0  0  0  0  0
  188.6860  176.1760  143.1640 C   0  0  0  0  0  3  0  0  0  0  0  0
  186.8040  176.8870  145.2740 C   0  0  0  0  0  2  0  0  0  0  0  0
  186.0490  179.5650  147.2620 Cl  0  0  0  0  0  0  0  0  0  0  0  0
  189.3390  178.1540  148.5150 C   0  0  0  0  0  3  0  0  0  0  0  0
  189.9770  177.7150  147.2300 C   0  0  1  0  0  3  0  0  0  0  0  0
  187.7360  177.7150  146.1490 C   0  0  2  0  0  3  0  0  0  0  0  0
  188.0160  178.3560  148.6160 C   0  0  0  0  0  3  0  0  0  0  0  0
  191.4280  176.7520  147.5780 Cl  0  0  0  0  0  0  0  0  0  0  0  0
  189.0040  176.9000  146.3920 C   0  0  0  0  0  2  0  0  0  0  0  0
  187.0540  178.1070  147.4790 C   0  0  1  0  0  3  0  0  0  0  0  0
  1 19  1  0  0  0  0
  2  1  1  0  0  0  0
  2  3  1  0  0  0  0
  4  6  1  0  0  0  0
  4  5  2  0  0  0  0
  5  7  1  0  0  0  0
  6  2  2  0  0  0  0
  7  3  2  0  0  0  0
  8  9  1  1  0  0  0
  8  4  1  0  0  0  0
 10 11  1  0  0  0  0
 10 12  1  0  0  0  0
 11 12  1  0  0  0  0
 12  8  1  6  0  0  0
 13 17  1  0  0  0  0
 14 18  1  0  0  0  0
 14  1  1  0  0  0  0
 15 14  2  0  0  0  0
 16 13  2  0  0  0  0
 16 15  1  0  0  0  0
 17 18  2  0  0  0  0
 21 24  2  0  0  0  0
 22 25  1  1  0  0  0
 22 21  1  0  0  0  0
 23 19  1  6  0  0  0
 23 26  1  0  0  0  0
 23 27  1  0  0  0  0
 26 22  1  0  0  0  0
 27 20  1  6  0  0  0
 27 24  1  0  0  0  0
M  END
>  <MODEL>
2

>  <REMARK>
 VINA RESULT:      -8.6      3.180      6.110
  Name = 
  6 active torsions:
  status: ('A' for Active; 'I' for Inactive)
    1  A    between atoms: C_1  and  N_15
    2  A    between atoms: C_1  and  C_18
    3  A    between atoms: C_2  and  N_15
    4  A    between atoms: C_8  and  C_14
    5  A    between atoms: C_8  and  C_16
    6  A    between atoms: C_9  and  N_15
                            x       y       z     vdW  Elec       q    Type
                         _______ _______ _______ _____ _____    ______ ____

>  <TORSDO>
F 6

$$$$
=
 OpenBabel10262420003D

 27 30  0  0  1  0  0  0  0  0999 V2000
  188.8840  177.2990  141.9990 N   0  0  0  0  0  0  0  0  0  0  0  0
  189.1110  177.4730  140.5810 C   0  0  0  0  0  0  0  0  0  0  0  0
  188.4280  178.4800  139.8730 C   0  0  0  0  0  3  0  0  0  0  0  0
  190.2220  176.8200  138.5100 C   0  0  0  0  0  0  0  0  0  0  0  0
  189.5350  177.8340  137.8260 C   0  0  0  0  0  3  0  0  0  0  0  0
  190.0110  176.6510  139.8800 C   0  0  0  0  0  3  0  0  0  0  0  0
  188.6350  178.6570  138.5040 C   0  0  0  0  0  3  0  0  0  0  0  0
  191.2740  176.0010  137.8270 C   0  0  2  0  0  3  0  0  0  0  0  0
  191.0320  174.5920  138.0890 N   0  0  0  0  0  1  0  0  0  0  0  0
  193.5660  175.3450  137.9560 O   0  0  0  0  0  0  0  0  0  0  0  0
  193.5940  176.4930  137.1440 C   0  0  0  0  0  2  0  0  0  0  0  0
  192.6730  176.3760  138.2990 C   0  0  1  0  0  3  0  0  0  0  0  0
  191.8840  177.8130  144.9650 C   0  0  0  0  0  3  0  0  0  0  0  0
  189.9260  177.4770  142.9820 C   0  0  0  0  0  0  0  0  0  0  0  0
  190.4780  178.7460  143.2260 C   0  0  0  0  0  3  0  0  0  0  0  0
  191.4550  178.9110  144.2130 C   0  0  0  0  0  3  0  0  0  0  0  0
  191.3310  176.5500  144.7370 C   0  0  0  0  0  3  0  0  0  0  0  0
  190.3540  176.3840  143.7510 C   0  0  0  0  0  3  0  0  0  0  0  0
  187.5710  176.8510  142.4690 C   0  0  0  0  0  2  0  0  0  0  0  0
  185.3830  179.1850  141.2600 Cl  0  0  0  0  0  0  0  0  0  0  0  0
  184.7830  178.9440  144.9970 C   0  0  0  0  0  3  0  0  0  0  0  0
  186.1760  178.7060  145.5010 C   0  0  1  0  0  3  0  0  0  0  0  0
  186.8440  177.9560  143.2250 C   0  0  2  0  0  3  0  0  0  0  0  0
  184.4440  178.7080  143.7200 C   0  0  0  0  0  3  0  0  0  0  0  0
  186.1260  178.2720  147.2230 Cl  0  0  0  0  0  0  0  0  0  0  0  0
  186.8590  177.6010  144.7100 C   0  0  0  0  0  2  0  0  0  0  0  0
  185.4010  178.1360  142.7030 C   0  0  1  0  0  3  0  0  0  0  0  0
  1 19  1  0  0  0  0
  1 14  1  0  0  0  0
  2  1  1  0  0  0  0
  3  2  2  0  0  0  0
  4  6  2  0  0  0  0
  5  7  2  0  0  0  0
  5  4  1  0  0  0  0
  6  2  1  0  0  0  0
  7  3  1  0  0  0  0
  8  9  1  1  0  0  0
  8  4  1  0  0  0  0
 10 12  1  0  0  0  0
 11 10  1  0  0  0  0
 11 12  1  0  0  0  0
 12  8  1  6  0  0  0
 14 15  2  0  0  0  0
 14 18  1  0  0  0  0
 15 16  1  0  0  0  0
 16 13  2  0  0  0  0
 17 13  1  0  0  0  0
 18 17  2  0  0  0  0
 21 22  1  0  0  0  0
 22 25  1  1  0  0  0
 23 19  1  6  0  0  0
 23 26  1  0  0  0  0
 24 21  2  0  0  0  0
 26 22  1  0  0  0  0
 27 20  1  6  0  0  0
 27 23  1  0  0  0  0
 27 24  1  0  0  0  0
M  END
>  <MODEL>
3

>  <REMARK>
 VINA RESULT:      -8.5      1.765      2.592
  Name = 
  6 active torsions:
  status: ('A' for Active; 'I' for Inactive)
    1  A    between atoms: C_1  and  N_15
    2  A    between atoms: C_1  and  C_18
    3  A    between atoms: C_2  and  N_15
    4  A    between atoms: C_8  and  C_14
    5  A    between atoms: C_8  and  C_16
    6  A    between atoms: C_9  and  N_15
                            x       y       z     vdW  Elec       q    Type
                         _______ _______ _______ _____ _____    ______ ____

>  <TORSDO>
F 6

$$$$
=
 OpenBabel10262420003D

 27 30  0  0  1  0  0  0  0  0999 V2000
  189.5410  177.9530  142.3480 N   0  0  0  0  0  0  0  0  0  0  0  0
  190.3150  177.4990  141.2140 C   0  0  0  0  0  0  0  0  0  0  0  0
  191.7150  177.6540  141.2040 C   0  0  0  0  0  3  0  0  0  0  0  0
  190.4500  176.4670  139.0080 C   0  0  0  0  0  0  0  0  0  0  0  0
  191.8440  176.6260  139.0220 C   0  0  0  0  0  3  0  0  0  0  0  0
  189.6980  176.8980  140.1030 C   0  0  0  0  0  3  0  0  0  0  0  0
  192.4740  177.2240  140.1150 C   0  0  0  0  0  3  0  0  0  0  0  0
  189.7670  175.7270  137.8990 C   0  0  2  0  0  3  0  0  0  0  0  0
  190.4310  174.4510  137.6910 N   0  0  0  0  0  1  0  0  0  0  0  0
  188.9730  175.8680  135.6520 O   0  0  0  0  0  0  0  0  0  0  0  0
  188.4080  176.9950  136.2760 C   0  0  0  0  0  2  0  0  0  0  0  0
  189.7750  176.5260  136.6020 C   0  0  1  0  0  3  0  0  0  0  0  0
  185.3020  178.2520  142.3230 C   0  0  0  0  0  3  0  0  0  0  0  0
  188.0990  178.0230  142.3280 C   0  0  0  0  0  0  0  0  0  0  0  0
  187.3320  177.3700  143.3070 C   0  0  0  0  0  3  0  0  0  0  0  0
  185.9380  177.4830  143.3020 C   0  0  0  0  0  3  0  0  0  0  0  0
  186.0580  178.9160  141.3540 C   0  0  0  0  0  3  0  0  0  0  0  0
  187.4520  178.8030  141.3580 C   0  0  0  0  0  3  0  0  0  0  0  0
  190.2320  178.4350  143.5460 C   0  0  0  0  0  2  0  0  0  0  0  0
  191.8890  175.4620  143.8860 Cl  0  0  0  0  0  0  0  0  0  0  0  0
  190.7450  176.4880  147.3520 C   0  0  0  0  0  3  0  0  0  0  0  0
  189.4260  177.1360  147.0450 C   0  0  1  0  0  3  0  0  0  0  0  0
  190.1490  177.4230  144.6820 C   0  0  2  0  0  3  0  0  0  0  0  0
  191.6870  176.3220  146.4120 C   0  0  0  0  0  3  0  0  0  0  0  0
  188.8100  177.9610  148.4920 Cl  0  0  0  0  0  0  0  0  0  0  0  0
  189.5630  178.1290  145.9020 C   0  0  0  0  0  2  0  0  0  0  0  0
  191.5350  176.8150  144.9930 C   0  0  1  0  0  3  0  0  0  0  0  0
  1 19  1  0  0  0  0
  2  1  1  0  0  0  0
  3  2  1  0  0  0  0
  4  5  2  0  0  0  0
  4  6  1  0  0  0  0
  5  7  1  0  0  0  0
  6  2  2  0  0  0  0
  7  3  2  0  0  0  0
  8  9  1  6  0  0  0
  8  4  1  0  0  0  0
 10 11  1  0  0  0  0
 10 12  1  0  0  0  0
 11 12  1  0  0  0  0
 12  8  1  1  0  0  0
 13 16  1  0  0  0  0
 14  1  1  0  0  0  0
 14 15  1  0  0  0  0
 16 15  2  0  0  0  0
 17 18  1  0  0  0  0
 17 13  2  0  0  0  0
 18 14  2  0  0  0  0
 22 21  1  0  0  0  0
 22 25  1  1  0  0  0
 23 19  1  6  0  0  0
 23 27  1  0  0  0  0
 23 26  1  0  0  0  0
 24 21  2  0  0  0  0
 26 22  1  0  0  0  0
 27 20  1  6  0  0  0
 27 24  1  0  0  0  0
M  END
>  <MODEL>
4

>  <REMARK>
 VINA RESULT:      -8.5      1.885      4.331
  Name = 
  6 active torsions:
  status: ('A' for Active; 'I' for Inactive)
    1  A    between atoms: C_1  and  N_15
    2  A    between atoms: C_1  and  C_18
    3  A    between atoms: C_2  and  N_15
    4  A    between atoms: C_8  and  C_14
    5  A    between atoms: C_8  and  C_16
    6  A    between atoms: C_9  and  N_15
                            x       y       z     vdW  Elec       q    Type
                         _______ _______ _______ _____ _____    ______ ____

>  <TORSDO>
F 6

$$$$
=
 OpenBabel10262420003D

 27 30  0  0  1  0  0  0  0  0999 V2000
  187.8880  177.2890  144.2170 N   0  0  0  0  0  0  0  0  0  0  0  0
  186.8410  177.9450  143.4670 C   0  0  0  0  0  0  0  0  0  0  0  0
  186.9990  178.1830  142.0880 C   0  0  0  0  0  3  0  0  0  0  0  0
  184.6430  178.9970  143.3580 C   0  0  0  0  0  0  0  0  0  0  0  0
  184.8200  179.2190  141.9840 C   0  0  0  0  0  3  0  0  0  0  0  0
  185.6490  178.3580  144.0860 C   0  0  0  0  0  3  0  0  0  0  0  0
  185.9990  178.8190  141.3520 C   0  0  0  0  0  3  0  0  0  0  0  0
  183.3430  179.3150  144.0320 C   0  0  2  0  0  3  0  0  0  0  0  0
  183.4500  179.0140  145.4490 N   0  0  0  0  0  1  0  0  0  0  0  0
  181.0420  178.7080  144.2200 O   0  0  0  0  0  0  0  0  0  0  0  0
  181.0960  179.4420  143.0220 C   0  0  0  0  0  2  0  0  0  0  0  0
  182.1890  178.5280  143.4260 C   0  0  1  0  0  3  0  0  0  0  0  0
  188.4770  177.8470  148.3890 C   0  0  0  0  0  3  0  0  0  0  0  0
  188.0910  177.5120  145.6290 C   0  0  0  0  0  0  0  0  0  0  0  0
  187.0750  178.0670  146.4250 C   0  0  0  0  0  3  0  0  0  0  0  0
  187.2700  178.2350  147.8000 C   0  0  0  0  0  3  0  0  0  0  0  0
  189.4870  177.2820  147.6060 C   0  0  0  0  0  3  0  0  0  0  0  0
  189.2940  177.1130  146.2320 C   0  0  0  0  0  3  0  0  0  0  0  0
  188.8370  176.4180  143.5200 C   0  0  0  0  0  2  0  0  0  0  0  0
  191.0060  179.0060  144.0670 Cl  0  0  0  0  0  0  0  0  0  0  0  0
  191.9010  177.5110  140.6980 C   0  0  0  0  0  3  0  0  0  0  0  0
  190.5470  177.1270  140.1790 C   0  0  1  0  0  3  0  0  0  0  0  0
  189.6660  177.1960  142.5050 C   0  0  2  0  0  3  0  0  0  0  0  0
  192.1260  177.7180  142.0050 C   0  0  0  0  0  3  0  0  0  0  0  0
  190.7210  176.1370  138.7150 Cl  0  0  0  0  0  0  0  0  0  0  0  0
  189.7590  176.3610  141.2310 C   0  0  0  0  0  2  0  0  0  0  0  0
  191.0670  177.5300  143.0650 C   0  0  1  0  0  3  0  0  0  0  0  0
  1 14  1  0  0  0  0
  2  6  1  0  0  0  0
  2  1  1  0  0  0  0
  3  2  2  0  0  0  0
  4  8  1  0  0  0  0
  4  6  2  0  0  0  0
  5  4  1  0  0  0  0
  7  5  2  0  0  0  0
  7  3  1  0  0  0  0
  8  9  1  1  0  0  0
 11 12  1  0  0  0  0
 11 10  1  0  0  0  0
 12  8  1  1  0  0  0
 12 10  1  0  0  0  0
 14 18  2  0  0  0  0
 14 15  1  0  0  0  0
 15 16  2  0  0  0  0
 16 13  1  0  0  0  0
 17 13  2  0  0  0  0
 18 17  1  0  0  0  0
 19  1  1  0  0  0  0
 21 24  2  0  0  0  0
 22 25  1  6  0  0  0
 22 21  1  0  0  0  0
 22 26  1  0  0  0  0
 23 27  1  0  0  0  0
 23 19  1  1  0  0  0
 24 27  1  0  0  0  0
 26 23  1  0  0  0  0
 27 20  1  6  0  0  0
M  END
>  <MODEL>
5

>  <REMARK>
 VINA RESULT:      -8.4      3.371      6.503
  Name = 
  6 active torsions:
  status: ('A' for Active; 'I' for Inactive)
    1  A    between atoms: C_1  and  N_15
    2  A    between atoms: C_1  and  C_18
    3  A    between atoms: C_2  and  N_15
    4  A    between atoms: C_8  and  C_14
    5  A    between atoms: C_8  and  C_16
    6  A    between atoms: C_9  and  N_15
                            x       y       z     vdW  Elec       q    Type
                         _______ _______ _______ _____ _____    ______ ____

>  <TORSDO>
F 6

$$$$
=
 OpenBabel10262420003D

 27 30  0  0  1  0  0  0  0  0999 V2000
  187.3170  177.3030  144.5940 N   0  0  0  0  0  0  0  0  0  0  0  0
  186.0610  177.8920  144.1890 C   0  0  0  0  0  0  0  0  0  0  0  0
  185.2230  178.5000  145.1430 C   0  0  0  0  0  3  0  0  0  0  0  0
  184.4290  178.4400  142.4610 C   0  0  0  0  0  0  0  0  0  0  0  0
  183.6130  179.0450  143.4280 C   0  0  0  0  0  3  0  0  0  0  0  0
  185.6470  177.8750  142.8460 C   0  0  0  0  0  3  0  0  0  0  0  0
  184.0060  179.0690  144.7670 C   0  0  0  0  0  3  0  0  0  0  0  0
  184.0810  178.5030  141.0050 C   0  0  2  0  0  3  0  0  0  0  0  0
  184.9280  179.4860  140.3500 N   0  0  0  0  0  1  0  0  0  0  0  0
  182.3610  178.9510  139.4120 O   0  0  0  0  0  0  0  0  0  0  0  0
  181.9190  177.7830  140.0590 C   0  0  0  0  0  2  0  0  0  0  0  0
  182.6170  178.8650  140.7920 C   0  0  1  0  0  3  0  0  0  0  0  0
  189.0910  177.9770  148.3970 C   0  0  0  0  0  3  0  0  0  0  0  0
  187.9210  177.5640  145.8790 C   0  0  0  0  0  0  0  0  0  0  0  0
  187.1830  178.1580  146.9160 C   0  0  0  0  0  3  0  0  0  0  0  0
  187.7680  178.3650  148.1690 C   0  0  0  0  0  3  0  0  0  0  0  0
  189.8290  177.3730  147.3750 C   0  0  0  0  0  3  0  0  0  0  0  0
  189.2450  177.1660  146.1210 C   0  0  0  0  0  3  0  0  0  0  0  0
  188.0590  176.4640  143.6490 C   0  0  0  0  0  2  0  0  0  0  0  0
  191.3660  177.3200  143.8210 Cl  0  0  0  0  0  0  0  0  0  0  0  0
  190.3080  177.7270  140.2020 C   0  0  0  0  0  3  0  0  0  0  0  0
  188.8990  178.2170  140.3620 C   0  0  1  0  0  3  0  0  0  0  0  0
  188.8750  177.3070  142.6780 C   0  0  2  0  0  3  0  0  0  0  0  0
  190.9490  177.0820  141.1880 C   0  0  0  0  0  3  0  0  0  0  0  0
  188.0790  178.2150  138.7870 Cl  0  0  0  0  0  0  0  0  0  0  0  0
  188.1310  177.3470  141.3450 C   0  0  0  0  0  2  0  0  0  0  0  0
  190.3030  176.7420  142.5100 C   0  0  1  0  0  3  0  0  0  0  0  0
  1 14  1  0  0  0  0
  2  1  1  0  0  0  0
  2  3  1  0  0  0  0
  4  6  1  0  0  0  0
  4  5  2  0  0  0  0
  5  7  1  0  0  0  0
  6  2  2  0  0  0  0
  7  3  2  0  0  0  0
  8  9  1  6  0  0  0
  8  4  1  0  0  0  0
 10 11  1  0  0  0  0
 10 12  1  0  0  0  0
 11 12  1  0  0  0  0
 12  8  1  6  0  0  0
 14 18  2  0  0  0  0
 14 15  1  0  0  0  0
 15 16  2  0  0  0  0
 16 13  1  0  0  0  0
 17 13  2  0  0  0  0
 18 17  1  0  0  0  0
 19  1  1  0  0  0  0
 21 22  1  0  0  0  0
 21 24  2  0  0  0  0
 22 25  1  6  0  0  0
 22 26  1  0  0  0  0
 23 19  1  1  0  0  0
 24 27  1  0  0  0  0
 26 23  1  0  0  0  0
 27 23  1  0  0  0  0
 27 20  1  1  0  0  0
M  END
>  <MODEL>
6

>  <REMARK>
 VINA RESULT:      -8.4      2.997      5.773
  Name = 
  6 active torsions:
  status: ('A' for Active; 'I' for Inactive)
    1  A    between atoms: C_1  and  N_15
    2  A    between atoms: C_1  and  C_18
    3  A    between atoms: C_2  and  N_15
    4  A    between atoms: C_8  and  C_14
    5  A    between atoms: C_8  and  C_16
    6  A    between atoms: C_9  and  N_15
                            x       y       z     vdW  Elec       q    Type
                         _______ _______ _______ _____ _____    ______ ____

>  <TORSDO>
F 6

$$$$
=
 OpenBabel10262420003D

 27 30  0  0  1  0  0  0  0  0999 V2000
  188.2450  178.2040  141.4620 N   0  0  0  0  0  0  0  0  0  0  0  0
  186.8800  178.4310  141.8820 C   0  0  0  0  0  0  0  0  0  0  0  0
  185.8790  178.6910  140.9270 C   0  0  0  0  0  3  0  0  0  0  0  0
  185.2020  178.6220  143.6410 C   0  0  0  0  0  0  0  0  0  0  0  0
  184.2190  178.8740  142.6720 C   0  0  0  0  0  3  0  0  0  0  0  0
  186.5200  178.3970  143.2400 C   0  0  0  0  0  3  0  0  0  0  0  0
  184.5590  178.9150  141.3190 C   0  0  0  0  0  3  0  0  0  0  0  0
  184.8400  178.4610  145.0860 C   0  0  2  0  0  3  0  0  0  0  0  0
  183.5230  179.0290  145.3180 N   0  0  0  0  0  1  0  0  0  0  0  0
  185.4020  179.0630  147.3270 O   0  0  0  0  0  0  0  0  0  0  0  0
  186.4150  178.1580  146.9610 C   0  0  0  0  0  2  0  0  0  0  0  0
  185.8560  179.1360  145.9980 C   0  0  1  0  0  3  0  0  0  0  0  0
  191.2500  176.5290  143.9580 C   0  0  0  0  0  3  0  0  0  0  0  0
  189.2420  177.6280  142.3320 C   0  0  0  0  0  0  0  0  0  0  0  0
  189.3580  176.2350  142.4740 C   0  0  0  0  0  3  0  0  0  0  0  0
  190.3570  175.6890  143.2860 C   0  0  0  0  0  3  0  0  0  0  0  0
  191.1500  177.9160  143.8120 C   0  0  0  0  0  3  0  0  0  0  0  0
  190.1520  178.4620  143.0000 C   0  0  0  0  0  3  0  0  0  0  0  0
  188.6710  178.6390  140.1300 C   0  0  0  0  0  2  0  0  0  0  0  0
  186.4570  177.5290  137.7710 Cl  0  0  0  0  0  0  0  0  0  0  0  0
  189.8620  176.1560  136.8190 C   0  0  0  0  0  3  0  0  0  0  0  0
  190.4580  175.8910  138.1710 C   0  0  1  0  0  3  0  0  0  0  0  0
  188.8080  177.4590  139.1760 C   0  0  2  0  0  3  0  0  0  0  0  0
  188.8310  176.9980  136.6540 C   0  0  0  0  0  3  0  0  0  0  0  0
  192.1820  175.5010  138.0010 Cl  0  0  0  0  0  0  0  0  0  0  0  0
  190.2880  177.0950  139.0840 C   0  0  0  0  0  2  0  0  0  0  0  0
  188.2220  177.7910  137.7860 C   0  0  1  0  0  3  0  0  0  0  0  0
  1  2  1  0  0  0  0
  1 14  1  0  0  0  0
  2  6  1  0  0  0  0
  3  7  1  0  0  0  0
  3  2  2  0  0  0  0
  4  8  1  0  0  0  0
  5  4  1  0  0  0  0
  6  4  2  0  0  0  0
  7  5  2  0  0  0  0
  8  9  1  6  0  0  0
 11 10  1  0  0  0  0
 12  8  1  6  0  0  0
 12 11  1  0  0  0  0
 12 10  1  0  0  0  0
 14 15  2  0  0  0  0
 14 18  1  0  0  0  0
 15 16  1  0  0  0  0
 16 13  2  0  0  0  0
 17 13  1  0  0  0  0
 18 17  2  0  0  0  0
 19  1  1  0  0  0  0
 21 22  1  0  0  0  0
 22 25  1  6  0  0  0
 22 26  1  0  0  0  0
 23 19  1  1  0  0  0
 24 21  2  0  0  0  0
 24 27  1  0  0  0  0
 26 23  1  0  0  0  0
 27 20  1  1  0  0  0
 27 23  1  0  0  0  0
M  END
>  <MODEL>
7

>  <REMARK>
 VINA RESULT:      -8.4      3.590      7.060
  Name = 
  6 active torsions:
  status: ('A' for Active; 'I' for Inactive)
    1  A    between atoms: C_1  and  N_15
    2  A    between atoms: C_1  and  C_18
    3  A    between atoms: C_2  and  N_15
    4  A    between atoms: C_8  and  C_14
    5  A    between atoms: C_8  and  C_16
    6  A    between atoms: C_9  and  N_15
                            x       y       z     vdW  Elec       q    Type
                         _______ _______ _______ _____ _____    ______ ____

>  <TORSDO>
F 6

$$$$
=
 OpenBabel10262420003D

 27 30  0  0  1  0  0  0  0  0999 V2000
  188.6570  177.3700  142.1910 N   0  0  0  0  0  0  0  0  0  0  0  0
  189.5560  177.7570  143.2550 C   0  0  0  0  0  0  0  0  0  0  0  0
  190.4120  178.8630  143.0920 C   0  0  0  0  0  3  0  0  0  0  0  0
  190.4750  177.4210  145.4890 C   0  0  0  0  0  0  0  0  0  0  0  0
  191.3140  178.5300  145.3070 C   0  0  0  0  0  3  0  0  0  0  0  0
  189.6000  177.0470  144.4670 C   0  0  0  0  0  3  0  0  0  0  0  0
  191.2880  179.2450  144.1090 C   0  0  0  0  0  3  0  0  0  0  0  0
  190.4060  176.7100  146.8060 C   0  0  2  0  0  3  0  0  0  0  0  0
  189.5940  177.4860  147.7290 N   0  0  0  0  0  1  0  0  0  0  0  0
  191.8170  175.2520  148.0640 O   0  0  0  0  0  0  0  0  0  0  0  0
  192.4300  175.2990  146.7980 C   0  0  0  0  0  2  0  0  0  0  0  0
  191.7910  176.4920  147.4010 C   0  0  1  0  0  3  0  0  0  0  0  0
  189.8110  177.6470  138.1100 C   0  0  0  0  0  3  0  0  0  0  0  0
  189.0220  177.4450  140.7960 C   0  0  0  0  0  0  0  0  0  0  0  0
  188.2990  178.2540  139.9030 C   0  0  0  0  0  3  0  0  0  0  0  0
  188.6920  178.3510  138.5650 C   0  0  0  0  0  3  0  0  0  0  0  0
  190.5440  176.8510  138.9950 C   0  0  0  0  0  3  0  0  0  0  0  0
  190.1510  176.7530  140.3330 C   0  0  0  0  0  3  0  0  0  0  0  0
  187.2910  176.9540  142.5170 C   0  0  0  0  0  2  0  0  0  0  0  0
  185.2780  179.2260  140.9410 Cl  0  0  0  0  0  0  0  0  0  0  0  0
  184.2450  179.1830  144.5900 C   0  0  0  0  0  3  0  0  0  0  0  0
  185.5680  178.9690  145.2660 C   0  0  1  0  0  3  0  0  0  0  0  0
  186.4900  178.0990  143.1250 C   0  0  2  0  0  3  0  0  0  0  0  0
  184.0550  178.8820  143.2970 C   0  0  0  0  0  3  0  0  0  0  0  0
  185.3150  178.6270  146.9900 Cl  0  0  0  0  0  0  0  0  0  0  0  0
  186.3290  177.8220  144.6180 C   0  0  0  0  0  2  0  0  0  0  0  0
  185.1190  178.2540  142.4290 C   0  0  1  0  0  3  0  0  0  0  0  0
  1 19  1  0  0  0  0
  1  2  1  0  0  0  0
  2  6  1  0  0  0  0
  3  2  2  0  0  0  0
  3  7  1  0  0  0  0
  4  8  1  0  0  0  0
  5  4  1  0  0  0  0
  6  4  2  0  0  0  0
  7  5  2  0  0  0  0
  8  9  1  1  0  0  0
 11 12  1  0  0  0  0
 11 10  1  0  0  0  0
 12  8  1  6  0  0  0
 12 10  1  0  0  0  0
 13 16  2  0  0  0  0
 13 17  1  0  0  0  0
 14  1  1  0  0  0  0
 15 14  2  0  0  0  0
 16 15  1  0  0  0  0
 17 18  2  0  0  0  0
 18 14  1  0  0  0  0
 21 22  1  0  0  0  0
 22 25  1  1  0  0  0
 23 19  1  6  0  0  0
 23 26  1  0  0  0  0
 24 21  2  0  0  0  0
 26 22  1  0  0  0  0
 27 20  1  6  0  0  0
 27 23  1  0  0  0  0
 27 24  1  0  0  0  0
M  END
>  <MODEL>
8

>  <REMARK>
 VINA RESULT:      -8.3      2.771      5.881
  Name = 
  6 active torsions:
  status: ('A' for Active; 'I' for Inactive)
    1  A    between atoms: C_1  and  N_15
    2  A    between atoms: C_1  and  C_18
    3  A    between atoms: C_2  and  N_15
    4  A    between atoms: C_8  and  C_14
    5  A    between atoms: C_8  and  C_16
    6  A    between atoms: C_9  and  N_15
                            x       y       z     vdW  Elec       q    Type
                         _______ _______ _______ _____ _____    ______ ____

>  <TORSDO>
F 6

$$$$
=
 OpenBabel10262420003D

 27 30  0  0  1  0  0  0  0  0999 V2000
  187.1990  177.5090  143.4510 N   0  0  0  0  0  0  0  0  0  0  0  0
  187.2070  177.7870  144.8700 C   0  0  0  0  0  0  0  0  0  0  0  0
  186.0900  178.3880  145.4800 C   0  0  0  0  0  3  0  0  0  0  0  0
  188.3230  177.7430  147.0380 C   0  0  0  0  0  0  0  0  0  0  0  0
  187.1970  178.3380  147.6260 C   0  0  0  0  0  3  0  0  0  0  0  0
  188.3180  177.4670  145.6690 C   0  0  0  0  0  3  0  0  0  0  0  0
  186.0860  178.6660  146.8480 C   0  0  0  0  0  3  0  0  0  0  0  0
  189.4780  177.2800  147.8720 C   0  0  2  0  0  3  0  0  0  0  0  0
  189.7390  178.2560  148.9170 N   0  0  0  0  0  1  0  0  0  0  0  0
  191.8560  177.0610  147.8800 O   0  0  0  0  0  0  0  0  0  0  0  0
  191.4080  175.8150  147.4040 C   0  0  0  0  0  2  0  0  0  0  0  0
  190.7330  177.0810  147.0330 C   0  0  1  0  0  3  0  0  0  0  0  0
  184.2050  178.9580  140.8050 C   0  0  0  0  0  3  0  0  0  0  0  0
  186.1900  178.0320  142.5610 C   0  0  0  0  0  0  0  0  0  0  0  0
  186.5450  178.6340  141.3420 C   0  0  0  0  0  3  0  0  0  0  0  0
  185.5550  179.0970  140.4690 C   0  0  0  0  0  3  0  0  0  0  0  0
  183.8430  178.3490  142.0100 C   0  0  0  0  0  3  0  0  0  0  0  0
  184.8320  177.8860  142.8830 C   0  0  0  0  0  3  0  0  0  0  0  0
  188.2020  176.6020  142.8880 C   0  0  0  0  0  2  0  0  0  0  0  0
  190.6290  178.7800  143.9200 Cl  0  0  0  0  0  0  0  0  0  0  0  0
  191.6530  177.5340  140.4870 C   0  0  0  0  0  3  0  0  0  0  0  0
  190.3190  177.4050  139.8130 C   0  0  1  0  0  3  0  0  0  0  0  0
  189.2250  177.3550  142.0470 C   0  0  2  0  0  3  0  0  0  0  0  0
  191.7700  177.5680  141.8230 C   0  0  0  0  0  3  0  0  0  0  0  0
  190.5080  176.5590  138.2630 Cl  0  0  0  0  0  0  0  0  0  0  0  0
  189.3350  176.6530  140.6950 C   0  0  0  0  0  2  0  0  0  0  0  0
  190.5930  177.4250  142.7590 C   0  0  1  0  0  3  0  0  0  0  0  0
  1  2  1  0  0  0  0
  2  3  2  0  0  0  0
  2  6  1  0  0  0  0
  3  7  1  0  0  0  0
  4  5  1  0  0  0  0
  4  8  1  0  0  0  0
  6  4  2  0  0  0  0
  7  5  2  0  0  0  0
  8  9  1  1  0  0  0
 11 10  1  0  0  0  0
 12 11  1  0  0  0  0
 12  8  1  1  0  0  0
 12 10  1  0  0  0  0
 13 17  1  0  0  0  0
 14 18  1  0  0  0  0
 14  1  1  0  0  0  0
 15 14  2  0  0  0  0
 16 13  2  0  0  0  0
 16 15  1  0  0  0  0
 17 18  2  0  0  0  0
 19  1  1  0  0  0  0
 21 24  2  0  0  0  0
 22 25  1  6  0  0  0
 22 21  1  0  0  0  0
 22 26  1  0  0  0  0
 23 27  1  0  0  0  0
 23 19  1  1  0  0  0
 24 27  1  0  0  0  0
 26 23  1  0  0  0  0
 27 20  1  1  0  0  0
M  END
>  <MODEL>
9

>  <REMARK>
 VINA RESULT:      -8.3      3.270      7.600
  Name = 
  6 active torsions:
  status: ('A' for Active; 'I' for Inactive)
    1  A    between atoms: C_1  and  N_15
    2  A    between atoms: C_1  and  C_18
    3  A    between atoms: C_2  and  N_15
    4  A    between atoms: C_8  and  C_14
    5  A    between atoms: C_8  and  C_16
    6  A    between atoms: C_9  and  N_15
                            x       y       z     vdW  Elec       q    Type
                         _______ _______ _______ _____ _____    ______ ____

>  <TORSDO>
F 6

$$$$
