=
 OpenBabel10262420143D

 27 30  0  0  1  0  0  0  0  0999 V2000
  188.8580  177.0950  142.5700 C   0  0  2  0  0  3  0  0  0  0  0  0
  188.0540  178.4120  142.6820 C   0  0  1  0  0  3  0  0  0  0  0  0
  184.0430  178.7710  144.1320 C   0  0  0  0  0  2  0  0  0  0  0  0
  184.1560  178.8160  146.5140 O   0  0  0  0  0  0  0  0  0  0  0  0
  186.9660  178.4940  141.7020 N   0  0  0  0  0  2  0  0  0  0  0  0
  185.7820  177.3740  145.5920 C   0  0  0  0  0  3  0  0  0  0  0  0
  186.8890  177.3550  144.8330 C   0  0  0  0  0  3  0  0  0  0  0  0
  184.6790  178.3730  145.4580 C   0  0  0  0  0  0  0  0  0  0  0  0
  184.9870  179.3300  143.0530 C   0  0  0  0  0  2  0  0  0  0  0  0
  187.0790  178.4490  143.8460 C   0  0  2  0  0  3  0  0  0  0  0  0
  186.0310  178.2760  142.7980 C   0  0  2  0  0  3  0  0  0  0  0  0
  190.9310  175.7130  143.3820 C   0  0  1  0  0  3  0  0  0  0  0  0
  191.8060  177.8210  144.8910 O   0  0  0  0  0  0  0  0  0  0  0  0
  190.3160  174.5240  142.9930 O   0  0  0  0  0  1  0  0  0  0  0  0
  190.7400  179.1520  143.2580 C   0  0  0  0  0  1  0  0  0  0  0  0
  189.8850  176.7990  143.6860 C   0  0  1  0  0  3  0  0  0  0  0  0
  191.7800  176.6030  145.5960 C   0  0  0  0  0  2  0  0  0  0  0  0
  189.6750  178.5800  145.2890 O   0  0  0  0  0  1  0  0  0  0  0  0
  190.5340  178.0720  144.3120 C   0  0  1  0  0  0  0  0  0  0  0  0
  191.8060  175.4360  144.6080 C   0  0  0  0  0  2  0  0  0  0  0  0
  189.3130  176.7370  141.2210 N   0  0  0  0  0  2  0  0  0  0  0  0
  189.2960  178.1340  139.1660 C   0  0  2  0  0  3  0  0  0  0  0  0
  188.3070  177.1910  138.8560 O   0  0  0  0  0  1  0  0  0  0  0  0
  190.6890  177.5090  139.2830 C   0  0  1  0  0  3  0  0  0  0  0  0
  189.9110  177.8920  140.5480 C   0  0  2  0  0  3  0  0  0  0  0  0
  190.7300  176.0080  138.9900 C   0  0  0  0  0  2  0  0  0  0  0  0
  191.8300  175.7150  137.9900 C   0  0  0  0  0  1  0  0  0  0  0  0
  1 21  1  6  0  0  0
  2  1  1  6  0  0  0
  2 10  1  0  0  0  0
  3  8  1  0  0  0  0
  5  2  1  0  0  0  0
  5 11  1  0  0  0  0
  7  6  2  0  0  0  0
  8  6  1  0  0  0  0
  8  4  2  0  0  0  0
  9  3  1  0  0  0  0
 10  7  1  1  0  0  0
 11  9  1  1  0  0  0
 11 10  1  0  0  0  0
 12 14  1  1  0  0  0
 12 16  1  0  0  0  0
 12 20  1  0  0  0  0
 13 17  1  0  0  0  0
 16  1  1  6  0  0  0
 16 19  1  0  0  0  0
 19 15  1  6  0  0  0
 19 13  1  0  0  0  0
 19 18  1  0  0  0  0
 20 17  1  0  0  0  0
 22 23  1  1  0  0  0
 22 24  1  0  0  0  0
 22 25  1  0  0  0  0
 24 26  1  1  0  0  0
 24 25  1  0  0  0  0
 25 21  1  1  0  0  0
 27 26  1  0  0  0  0
M  END
>  <MODEL>
1

>  <REMARK>
 VINA RESULT:      -7.1      0.000      0.000
  Name = 
  5 active torsions:
  status: ('A' for Active; 'I' for Inactive)
    1  A    between atoms: C_1  and  C_2
    2  A    between atoms: C_1  and  N_15
    3  A    between atoms: C_1  and  C_18
    4  A    between atoms: C_7  and  C_25
    5  A    between atoms: N_15  and  C_27
                            x       y       z     vdW  Elec       q    Type
                         _______ _______ _______ _____ _____    ______ ____

>  <TORSDO>
F 5

$$$$
=
 OpenBabel10262420143D

 27 30  0  0  1  0  0  0  0  0999 V2000
  182.2250  178.2180  139.3500 C   0  0  2  0  0  3  0  0  0  0  0  0
  183.4230  177.7410  140.2050 C   0  0  1  0  0  3  0  0  0  0  0  0
  184.8920  179.6580  143.7370 C   0  0  0  0  0  2  0  0  0  0  0  0
  183.5140  178.9480  145.5500 O   0  0  0  0  0  0  0  0  0  0  0  0
  184.5890  178.6220  140.0830 N   0  0  0  0  0  2  0  0  0  0  0  0
  182.2720  179.2000  143.5590 C   0  0  0  0  0  3  0  0  0  0  0  0
  182.1210  178.7040  142.3210 C   0  0  0  0  0  3  0  0  0  0  0  0
  183.5580  179.2070  144.3200 C   0  0  0  0  0  0  0  0  0  0  0  0
  185.3790  178.9250  142.4760 C   0  0  0  0  0  2  0  0  0  0  0  0
  183.2880  178.0370  141.6880 C   0  0  2  0  0  3  0  0  0  0  0  0
  184.3080  179.0960  141.4320 C   0  0  2  0  0  3  0  0  0  0  0  0
  182.7700  176.3810  137.5630 C   0  0  1  0  0  3  0  0  0  0  0  0
  180.3300  175.2060  137.9560 O   0  0  0  0  0  0  0  0  0  0  0  0
  183.7970  177.1660  137.0410 O   0  0  0  0  0  1  0  0  0  0  0  0
  180.5180  176.0520  140.1520 C   0  0  0  0  0  1  0  0  0  0  0  0
  181.7100  177.2530  138.2580 C   0  0  1  0  0  3  0  0  0  0  0  0
  180.6350  175.4190  136.5980 C   0  0  0  0  0  2  0  0  0  0  0  0
  179.3150  177.2020  138.4730 O   0  0  0  0  0  1  0  0  0  0  0  0
  180.4570  176.4230  138.6770 C   0  0  1  0  0  0  0  0  0  0  0  0
  182.1470  175.5630  136.4280 C   0  0  0  0  0  2  0  0  0  0  0  0
  182.2490  179.6290  138.9470 N   0  0  0  0  0  2  0  0  0  0  0  0
  181.1180  181.3830  137.5970 C   0  0  2  0  0  3  0  0  0  0  0  0
  181.9510  182.1650  138.4090 O   0  0  0  0  0  1  0  0  0  0  0  0
  180.0360  180.6520  138.3950 C   0  0  1  0  0  3  0  0  0  0  0  0
  181.2660  179.8870  137.8910 C   0  0  2  0  0  3  0  0  0  0  0  0
  180.0460  180.9590  139.8940 C   0  0  0  0  0  2  0  0  0  0  0  0
  179.0390  180.0740  140.6000 C   0  0  0  0  0  1  0  0  0  0  0  0
  1 21  1  6  0  0  0
  2  1  1  6  0  0  0
  2 10  1  0  0  0  0
  3  8  1  0  0  0  0
  5  2  1  0  0  0  0
  5 11  1  0  0  0  0
  6  8  1  0  0  0  0
  7  6  2  0  0  0  0
  8  4  2  0  0  0  0
  9  3  1  0  0  0  0
 10  7  1  6  0  0  0
 11 10  1  0  0  0  0
 11  9  1  1  0  0  0
 12 14  1  6  0  0  0
 12 16  1  0  0  0  0
 13 19  1  0  0  0  0
 16 19  1  0  0  0  0
 16  1  1  1  0  0  0
 17 13  1  0  0  0  0
 18 19  1  0  0  0  0
 19 15  1  1  0  0  0
 20 17  1  0  0  0  0
 20 12  1  0  0  0  0
 22 25  1  0  0  0  0
 22 24  1  0  0  0  0
 22 23  1  1  0  0  0
 24 26  1  1  0  0  0
 25 24  1  0  0  0  0
 25 21  1  1  0  0  0
 26 27  1  0  0  0  0
M  END
>  <MODEL>
2

>  <REMARK>
 VINA RESULT:      -7.0      5.620      8.971
  Name = 
  5 active torsions:
  status: ('A' for Active; 'I' for Inactive)
    1  A    between atoms: C_1  and  C_2
    2  A    between atoms: C_1  and  N_15
    3  A    between atoms: C_1  and  C_18
    4  A    between atoms: C_7  and  C_25
    5  A    between atoms: N_15  and  C_27
                            x       y       z     vdW  Elec       q    Type
                         _______ _______ _______ _____ _____    ______ ____

>  <TORSDO>
F 5

$$$$
=
 OpenBabel10262420143D

 27 30  0  0  1  0  0  0  0  0999 V2000
  181.8900  178.0610  139.4930 C   0  0  2  0  0  3  0  0  0  0  0  0
  183.1860  177.6780  140.2490 C   0  0  1  0  0  3  0  0  0  0  0  0
  184.8110  179.7500  143.6230 C   0  0  0  0  0  2  0  0  0  0  0  0
  183.6400  178.9810  145.5530 O   0  0  0  0  0  0  0  0  0  0  0  0
  184.2750  178.6330  140.0190 N   0  0  0  0  0  2  0  0  0  0  0  0
  182.2210  179.1160  143.6710 C   0  0  0  0  0  3  0  0  0  0  0  0
  182.0020  178.5900  142.4560 C   0  0  0  0  0  3  0  0  0  0  0  0
  183.5630  179.2210  144.3210 C   0  0  0  0  0  0  0  0  0  0  0  0
  185.2390  179.0290  142.3330 C   0  0  0  0  0  2  0  0  0  0  0  0
  183.1550  177.9910  141.7350 C   0  0  2  0  0  3  0  0  0  0  0  0
  184.0760  179.1100  141.3810 C   0  0  2  0  0  3  0  0  0  0  0  0
  182.3340  176.0220  137.9070 C   0  0  1  0  0  3  0  0  0  0  0  0
  179.8230  175.0450  138.3810 O   0  0  0  0  0  0  0  0  0  0  0  0
  183.4120  176.6860  137.3230 O   0  0  0  0  0  1  0  0  0  0  0  0
  180.0460  176.0950  140.4830 C   0  0  0  0  0  1  0  0  0  0  0  0
  181.3250  177.0240  138.4960 C   0  0  1  0  0  3  0  0  0  0  0  0
  180.1520  175.1010  137.0130 C   0  0  0  0  0  2  0  0  0  0  0  0
  178.9310  177.1410  138.6800 O   0  0  0  0  0  1  0  0  0  0  0  0
  180.0200  176.3180  138.9780 C   0  0  1  0  0  0  0  0  0  0  0  0
  181.6720  175.1340  136.8500 C   0  0  0  0  0  2  0  0  0  0  0  0
  181.8060  179.4510  139.0310 N   0  0  0  0  0  2  0  0  0  0  0  0
  179.6070  180.4470  138.4410 C   0  0  2  0  0  3  0  0  0  0  0  0
  180.0760  180.0670  137.1770 O   0  0  0  0  0  1  0  0  0  0  0  0
  180.4550  181.5520  139.0760 C   0  0  1  0  0  3  0  0  0  0  0  0
  180.6030  180.1030  139.5530 C   0  0  2  0  0  3  0  0  0  0  0  0
  181.5990  182.0530  138.1920 C   0  0  0  0  0  2  0  0  0  0  0  0
  181.1890  183.3430  137.5120 C   0  0  0  0  0  1  0  0  0  0  0  0
  1 21  1  6  0  0  0
  2  1  1  6  0  0  0
  2 10  1  0  0  0  0
  3  8  1  0  0  0  0
  5  2  1  0  0  0  0
  5 11  1  0  0  0  0
  6  8  1  0  0  0  0
  7  6  2  0  0  0  0
  8  4  2  0  0  0  0
  9  3  1  0  0  0  0
 10  7  1  6  0  0  0
 11 10  1  0  0  0  0
 11  9  1  1  0  0  0
 12 14  1  6  0  0  0
 12 16  1  0  0  0  0
 13 19  1  0  0  0  0
 16 19  1  0  0  0  0
 16  1  1  1  0  0  0
 17 13  1  0  0  0  0
 18 19  1  0  0  0  0
 19 15  1  1  0  0  0
 20 17  1  0  0  0  0
 20 12  1  0  0  0  0
 22 23  1  6  0  0  0
 22 24  1  0  0  0  0
 22 25  1  0  0  0  0
 24 26  1  6  0  0  0
 24 25  1  0  0  0  0
 25 21  1  6  0  0  0
 27 26  1  0  0  0  0
M  END
>  <MODEL>
3

>  <REMARK>
 VINA RESULT:      -7.0      5.821      9.083
  Name = 
  5 active torsions:
  status: ('A' for Active; 'I' for Inactive)
    1  A    between atoms: C_1  and  C_2
    2  A    between atoms: C_1  and  N_15
    3  A    between atoms: C_1  and  C_18
    4  A    between atoms: C_7  and  C_25
    5  A    between atoms: N_15  and  C_27
                            x       y       z     vdW  Elec       q    Type
                         _______ _______ _______ _____ _____    ______ ____

>  <TORSDO>
F 5

$$$$
=
 OpenBabel10262420143D

 27 30  0  0  1  0  0  0  0  0999 V2000
  189.3430  177.5170  142.7160 C   0  0  2  0  0  3  0  0  0  0  0  0
  189.2870  176.5660  141.4960 C   0  0  1  0  0  3  0  0  0  0  0  0
  191.2700  177.1850  137.7550 C   0  0  0  0  0  2  0  0  0  0  0  0
  193.5260  176.4570  138.0240 O   0  0  0  0  0  0  0  0  0  0  0  0
  188.5110  177.1230  140.3830 N   0  0  0  0  0  2  0  0  0  0  0  0
  192.6960  177.4670  139.9900 C   0  0  0  0  0  3  0  0  0  0  0  0
  191.7860  177.3220  140.9660 C   0  0  0  0  0  3  0  0  0  0  0  0
  192.5260  176.9700  138.5910 C   0  0  0  0  0  0  0  0  0  0  0  0
  189.9500  176.6600  138.3440 C   0  0  0  0  0  2  0  0  0  0  0  0
  190.5580  176.5410  140.6670 C   0  0  2  0  0  3  0  0  0  0  0  0
  189.7690  177.3320  139.6780 C   0  0  2  0  0  3  0  0  0  0  0  0
  191.1310  175.8820  143.7140 C   0  0  1  0  0  3  0  0  0  0  0  0
  191.8980  177.7620  145.5470 O   0  0  0  0  0  0  0  0  0  0  0  0
  190.5000  174.7930  143.1130 O   0  0  0  0  0  1  0  0  0  0  0  0
  191.2350  179.3220  143.9030 C   0  0  0  0  0  1  0  0  0  0  0  0
  190.1370  177.0320  143.9500 C   0  0  1  0  0  3  0  0  0  0  0  0
  191.6560  176.4970  146.1140 C   0  0  0  0  0  2  0  0  0  0  0  0
  189.7960  178.6820  145.6660 O   0  0  0  0  0  1  0  0  0  0  0  0
  190.7670  178.1800  144.7970 C   0  0  1  0  0  0  0  0  0  0  0  0
  191.7590  175.4210  145.0320 C   0  0  0  0  0  2  0  0  0  0  0  0
  188.0940  178.2180  143.0380 N   0  0  0  0  0  2  0  0  0  0  0  0
  185.6300  177.9460  142.8700 C   0  0  2  0  0  3  0  0  0  0  0  0
  185.7690  179.3110  142.5830 O   0  0  0  0  0  1  0  0  0  0  0  0
  186.0320  177.6030  144.3070 C   0  0  1  0  0  3  0  0  0  0  0  0
  186.9790  177.2750  143.1470 C   0  0  2  0  0  3  0  0  0  0  0  0
  186.4480  178.8110  145.1480 C   0  0  0  0  0  2  0  0  0  0  0  0
  185.6130  178.8620  146.4120 C   0  0  0  0  0  1  0  0  0  0  0  0
  1 21  1  1  0  0  0
  2  1  1  1  0  0  0
  3  9  1  0  0  0  0
  3  8  1  0  0  0  0
  4  8  2  0  0  0  0
  5  2  1  0  0  0  0
  6  7  2  0  0  0  0
  8  6  1  0  0  0  0
 10  7  1  1  0  0  0
 10  2  1  0  0  0  0
 11  9  1  6  0  0  0
 11  5  1  0  0  0  0
 11 10  1  0  0  0  0
 12 14  1  1  0  0  0
 12 16  1  0  0  0  0
 12 20  1  0  0  0  0
 13 17  1  0  0  0  0
 16  1  1  6  0  0  0
 16 19  1  0  0  0  0
 19 15  1  6  0  0  0
 19 13  1  0  0  0  0
 19 18  1  0  0  0  0
 20 17  1  0  0  0  0
 22 23  1  1  0  0  0
 22 25  1  0  0  0  0
 22 24  1  0  0  0  0
 24 26  1  1  0  0  0
 25 21  1  1  0  0  0
 25 24  1  0  0  0  0
 26 27  1  0  0  0  0
M  END
>  <MODEL>
4

>  <REMARK>
 VINA RESULT:      -7.0      1.740      5.820
  Name = 
  5 active torsions:
  status: ('A' for Active; 'I' for Inactive)
    1  A    between atoms: C_1  and  C_2
    2  A    between atoms: C_1  and  N_15
    3  A    between atoms: C_1  and  C_18
    4  A    between atoms: C_7  and  C_25
    5  A    between atoms: N_15  and  C_27
                            x       y       z     vdW  Elec       q    Type
                         _______ _______ _______ _____ _____    ______ ____

>  <TORSDO>
F 5

$$$$
=
 OpenBabel10262420143D

 27 30  0  0  1  0  0  0  0  0999 V2000
  182.9390  179.0870  140.0630 C   0  0  2  0  0  3  0  0  0  0  0  0
  183.4780  179.0440  138.6130 C   0  0  1  0  0  3  0  0  0  0  0  0
  185.7670  175.8620  136.8960 C   0  0  0  0  0  2  0  0  0  0  0  0
  184.2260  174.1750  136.2110 O   0  0  0  0  0  0  0  0  0  0  0  0
  184.9350  179.1930  138.5490 N   0  0  0  0  0  2  0  0  0  0  0  0
  183.5310  175.2320  138.2040 C   0  0  0  0  0  3  0  0  0  0  0  0
  183.1160  176.4050  138.7050 C   0  0  0  0  0  3  0  0  0  0  0  0
  184.4640  175.0850  137.0460 C   0  0  0  0  0  0  0  0  0  0  0  0
  185.6620  177.3960  136.9100 C   0  0  0  0  0  2  0  0  0  0  0  0
  183.5410  177.6500  138.0140 C   0  0  2  0  0  3  0  0  0  0  0  0
  185.0150  177.7770  138.2140 C   0  0  2  0  0  3  0  0  0  0  0  0
  181.0100  180.5680  139.0860 C   0  0  1  0  0  3  0  0  0  0  0  0
  179.1850  179.3590  140.7270 O   0  0  0  0  0  0  0  0  0  0  0  0
  181.9380  181.4720  138.5710 O   0  0  0  0  0  1  0  0  0  0  0  0
  180.6120  177.4840  140.5730 C   0  0  0  0  0  1  0  0  0  0  0  0
  181.5920  179.8100  140.2920 C   0  0  1  0  0  3  0  0  0  0  0  0
  179.1110  180.7640  140.7500 C   0  0  0  0  0  2  0  0  0  0  0  0
  180.7330  178.9960  142.3860 O   0  0  0  0  0  1  0  0  0  0  0  0
  180.5130  178.9400  141.0070 C   0  0  1  0  0  0  0  0  0  0  0  0
  179.7430  181.3330  139.4790 C   0  0  0  0  0  2  0  0  0  0  0  0
  183.9390  179.3280  141.1100 N   0  0  0  0  0  2  0  0  0  0  0  0
  184.5880  178.4660  143.3490 C   0  0  2  0  0  3  0  0  0  0  0  0
  184.7030  179.8470  143.5510 O   0  0  0  0  0  1  0  0  0  0  0  0
  185.6070  177.9310  142.3390 C   0  0  1  0  0  3  0  0  0  0  0  0
  184.1450  178.1260  141.9220 C   0  0  2  0  0  3  0  0  0  0  0  0
  186.5710  178.9910  141.7990 C   0  0  0  0  0  2  0  0  0  0  0  0
  187.7800  178.3130  141.1890 C   0  0  0  0  0  1  0  0  0  0  0  0
  1 21  1  1  0  0  0
  2  1  1  1  0  0  0
  3  9  1  0  0  0  0
  3  8  1  0  0  0  0
  4  8  2  0  0  0  0
  5  2  1  0  0  0  0
  6  7  2  0  0  0  0
  8  6  1  0  0  0  0
 10 11  1  0  0  0  0
 10  2  1  0  0  0  0
 10  7  1  1  0  0  0
 11  9  1  6  0  0  0
 11  5  1  0  0  0  0
 12 14  1  1  0  0  0
 12 20  1  0  0  0  0
 12 16  1  0  0  0  0
 13 17  1  0  0  0  0
 13 19  1  0  0  0  0
 16  1  1  6  0  0  0
 16 19  1  0  0  0  0
 19 15  1  6  0  0  0
 19 18  1  0  0  0  0
 20 17  1  0  0  0  0
 22 23  1  6  0  0  0
 24 26  1  6  0  0  0
 24 22  1  0  0  0  0
 25 21  1  6  0  0  0
 25 24  1  0  0  0  0
 25 22  1  0  0  0  0
 27 26  1  0  0  0  0
M  END
>  <MODEL>
5

>  <REMARK>
 VINA RESULT:      -6.9      4.854      8.867
  Name = 
  5 active torsions:
  status: ('A' for Active; 'I' for Inactive)
    1  A    between atoms: C_1  and  C_2
    2  A    between atoms: C_1  and  N_15
    3  A    between atoms: C_1  and  C_18
    4  A    between atoms: C_7  and  C_25
    5  A    between atoms: N_15  and  C_27
                            x       y       z     vdW  Elec       q    Type
                         _______ _______ _______ _____ _____    ______ ____

>  <TORSDO>
F 5

$$$$
=
 OpenBabel10262420143D

 27 30  0  0  1  0  0  0  0  0999 V2000
  188.3490  177.8400  144.7490 C   0  0  2  0  0  3  0  0  0  0  0  0
  186.9610  177.2360  144.4260 C   0  0  1  0  0  3  0  0  0  0  0  0
  183.8570  179.1640  142.1990 C   0  0  0  0  0  2  0  0  0  0  0  0
  184.3560  178.8610  139.8870 O   0  0  0  0  0  0  0  0  0  0  0  0
  185.8760  177.8880  145.1680 N   0  0  0  0  0  2  0  0  0  0  0  0
  186.3160  179.1540  141.1690 C   0  0  0  0  0  3  0  0  0  0  0  0
  187.0590  178.5880  142.1320 C   0  0  0  0  0  3  0  0  0  0  0  0
  184.8350  179.0030  141.0410 C   0  0  0  0  0  0  0  0  0  0  0  0
  184.0740  178.2530  143.4200 C   0  0  0  0  0  2  0  0  0  0  0  0
  186.3850  177.6770  143.0930 C   0  0  2  0  0  3  0  0  0  0  0  0
  185.4690  178.5170  143.9190 C   0  0  2  0  0  3  0  0  0  0  0  0
  189.2730  176.2800  142.8570 C   0  0  1  0  0  3  0  0  0  0  0  0
  191.5420  177.7950  142.6500 O   0  0  0  0  0  0  0  0  0  0  0  0
  188.3750  175.2760  143.2190 O   0  0  0  0  0  1  0  0  0  0  0  0
  190.1570  179.5750  143.3470 C   0  0  0  0  0  1  0  0  0  0  0  0
  189.5720  177.2060  144.0490 C   0  0  1  0  0  3  0  0  0  0  0  0
  191.7990  176.4140  142.7500 C   0  0  0  0  0  2  0  0  0  0  0  0
  191.5060  178.3740  144.8730 O   0  0  0  0  0  1  0  0  0  0  0  0
  190.7190  178.2130  143.7290 C   0  0  1  0  0  0  0  0  0  0  0  0
  190.5560  175.6280  142.3340 C   0  0  0  0  0  2  0  0  0  0  0  0
  188.5770  178.2040  146.1530 N   0  0  0  0  0  2  0  0  0  0  0  0
  188.3210  177.5030  148.5230 C   0  0  2  0  0  3  0  0  0  0  0  0
  188.8720  178.7820  148.6800 O   0  0  0  0  0  1  0  0  0  0  0  0
  189.2900  176.5220  147.8580 C   0  0  1  0  0  3  0  0  0  0  0  0
  188.1390  177.1310  147.0480 C   0  0  2  0  0  3  0  0  0  0  0  0
  190.6680  177.1120  147.5500 C   0  0  0  0  0  2  0  0  0  0  0  0
  191.6660  175.9920  147.3440 C   0  0  0  0  0  1  0  0  0  0  0  0
  1 21  1  1  0  0  0
  2  1  1  1  0  0  0
  2  5  1  0  0  0  0
  3  9  1  0  0  0  0
  4  8  2  0  0  0  0
  6  7  2  0  0  0  0
  8  6  1  0  0  0  0
  8  3  1  0  0  0  0
 10  7  1  6  0  0  0
 10 11  1  0  0  0  0
 10  2  1  0  0  0  0
 11  9  1  6  0  0  0
 11  5  1  0  0  0  0
 12 14  1  1  0  0  0
 12 16  1  0  0  0  0
 13 17  1  0  0  0  0
 13 19  1  0  0  0  0
 16  1  1  6  0  0  0
 19 15  1  6  0  0  0
 19 16  1  0  0  0  0
 19 18  1  0  0  0  0
 20 17  1  0  0  0  0
 20 12  1  0  0  0  0
 22 23  1  6  0  0  0
 24 26  1  6  0  0  0
 24 22  1  0  0  0  0
 25 21  1  6  0  0  0
 25 24  1  0  0  0  0
 25 22  1  0  0  0  0
 27 26  1  0  0  0  0
M  END
>  <MODEL>
6

>  <REMARK>
 VINA RESULT:      -6.8      2.622      4.953
  Name = 
  5 active torsions:
  status: ('A' for Active; 'I' for Inactive)
    1  A    between atoms: C_1  and  C_2
    2  A    between atoms: C_1  and  N_15
    3  A    between atoms: C_1  and  C_18
    4  A    between atoms: C_7  and  C_25
    5  A    between atoms: N_15  and  C_27
                            x       y       z     vdW  Elec       q    Type
                         _______ _______ _______ _____ _____    ______ ____

>  <TORSDO>
F 5

$$$$
=
 OpenBabel10262420143D

 27 30  0  0  1  0  0  0  0  0999 V2000
  181.7420  177.7950  140.2520 C   0  0  2  0  0  3  0  0  0  0  0  0
  183.1970  177.6520  140.7630 C   0  0  1  0  0  3  0  0  0  0  0  0
  184.9990  179.9970  143.8560 C   0  0  0  0  0  2  0  0  0  0  0  0
  184.3370  179.0430  145.9390 O   0  0  0  0  0  0  0  0  0  0  0  0
  184.0450  178.7840  140.3710 N   0  0  0  0  0  2  0  0  0  0  0  0
  182.6090  178.9140  144.3350 C   0  0  0  0  0  3  0  0  0  0  0  0
  182.2770  178.3510  143.1640 C   0  0  0  0  0  3  0  0  0  0  0  0
  184.0050  179.2590  144.7450 C   0  0  0  0  0  0  0  0  0  0  0  0
  185.3140  179.3570  142.4930 C   0  0  0  0  0  2  0  0  0  0  0  0
  183.3720  177.9630  142.2380 C   0  0  2  0  0  3  0  0  0  0  0  0
  184.0070  179.2250  141.7600 C   0  0  2  0  0  3  0  0  0  0  0  0
  179.4970  176.4800  139.9450 C   0  0  1  0  0  3  0  0  0  0  0  0
  180.4960  175.1910  137.7480 O   0  0  0  0  0  0  0  0  0  0  0  0
  179.1220  176.7740  141.2560 O   0  0  0  0  0  1  0  0  0  0  0  0
  181.7840  177.1480  137.4550 C   0  0  0  0  0  1  0  0  0  0  0  0
  181.0280  176.5040  139.7920 C   0  0  1  0  0  3  0  0  0  0  0  0
  179.8970  174.3230  138.6800 C   0  0  0  0  0  2  0  0  0  0  0  0
  182.6500  175.2390  138.5470 O   0  0  0  0  0  1  0  0  0  0  0  0
  181.4800  175.9870  138.3920 C   0  0  1  0  0  0  0  0  0  0  0  0
  178.9310  175.1080  139.5670 C   0  0  0  0  0  2  0  0  0  0  0  0
  181.4720  178.9680  139.4120 N   0  0  0  0  0  2  0  0  0  0  0  0
  179.3460  180.2550  139.3650 C   0  0  2  0  0  3  0  0  0  0  0  0
  179.2570  179.5470  138.1590 O   0  0  0  0  0  1  0  0  0  0  0  0
  180.4940  181.2670  139.3710 C   0  0  1  0  0  3  0  0  0  0  0  0
  180.6390  179.9400  140.1240 C   0  0  2  0  0  3  0  0  0  0  0  0
  181.2720  181.3410  138.0550 C   0  0  0  0  0  2  0  0  0  0  0  0
  180.8420  182.5700  137.2800 C   0  0  0  0  0  1  0  0  0  0  0  0
  1 21  1  6  0  0  0
  2  1  1  6  0  0  0
  2 10  1  0  0  0  0
  3  8  1  0  0  0  0
  5  2  1  0  0  0  0
  5 11  1  0  0  0  0
  6  8  1  0  0  0  0
  7  6  2  0  0  0  0
  8  4  2  0  0  0  0
  9  3  1  0  0  0  0
 10  7  1  1  0  0  0
 11 10  1  0  0  0  0
 11  9  1  1  0  0  0
 12 14  1  1  0  0  0
 13 19  1  0  0  0  0
 13 17  1  0  0  0  0
 16 12  1  0  0  0  0
 16  1  1  6  0  0  0
 17 20  1  0  0  0  0
 19 15  1  6  0  0  0
 19 18  1  0  0  0  0
 19 16  1  0  0  0  0
 20 12  1  0  0  0  0
 22 23  1  6  0  0  0
 22 24  1  0  0  0  0
 22 25  1  0  0  0  0
 24 26  1  6  0  0  0
 24 25  1  0  0  0  0
 25 21  1  6  0  0  0
 27 26  1  0  0  0  0
M  END
>  <MODEL>
7

>  <REMARK>
 VINA RESULT:      -6.4      5.618      9.037
  Name = 
  5 active torsions:
  status: ('A' for Active; 'I' for Inactive)
    1  A    between atoms: C_1  and  C_2
    2  A    between atoms: C_1  and  N_15
    3  A    between atoms: C_1  and  C_18
    4  A    between atoms: C_7  and  C_25
    5  A    between atoms: N_15  and  C_27
                            x       y       z     vdW  Elec       q    Type
                         _______ _______ _______ _____ _____    ______ ____

>  <TORSDO>
F 5

$$$$
=
 OpenBabel10262420143D

 27 30  0  0  1  0  0  0  0  0999 V2000
  188.2850  177.8250  141.5340 C   0  0  2  0  0  3  0  0  0  0  0  0
  187.3440  178.9900  141.9280 C   0  0  1  0  0  3  0  0  0  0  0  0
  183.8080  178.6440  144.3110 C   0  0  0  0  0  2  0  0  0  0  0  0
  184.4950  178.6290  146.5950 O   0  0  0  0  0  0  0  0  0  0  0  0
  186.0490  178.9240  141.2420 N   0  0  0  0  0  2  0  0  0  0  0  0
  186.0420  177.5020  145.2130 C   0  0  0  0  0  3  0  0  0  0  0  0
  186.9170  177.6880  144.2140 C   0  0  0  0  0  3  0  0  0  0  0  0
  184.8020  178.3120  145.4170 C   0  0  0  0  0  0  0  0  0  0  0  0
  184.3620  179.3830  143.0820 C   0  0  0  0  0  2  0  0  0  0  0  0
  186.6920  178.8290  143.2890 C   0  0  2  0  0  3  0  0  0  0  0  0
  185.4560  178.5220  142.5110 C   0  0  2  0  0  3  0  0  0  0  0  0
  189.9340  178.8420  143.2980 C   0  0  1  0  0  3  0  0  0  0  0  0
  190.9820  176.3680  143.8160 O   0  0  0  0  0  0  0  0  0  0  0  0
  189.7420  180.1190  142.7720 O   0  0  0  0  0  1  0  0  0  0  0  0
  188.8360  175.5750  143.2310 C   0  0  0  0  0  1  0  0  0  0  0  0
  189.6600  177.7620  142.2370 C   0  0  1  0  0  3  0  0  0  0  0  0
  191.9610  177.3510  143.5820 C   0  0  0  0  0  2  0  0  0  0  0  0
  190.6130  175.6280  141.6730 O   0  0  0  0  0  1  0  0  0  0  0  0
  190.0570  176.3400  142.7380 C   0  0  1  0  0  0  0  0  0  0  0  0
  191.3670  178.7380  143.8280 C   0  0  0  0  0  2  0  0  0  0  0  0
  188.3210  177.4870  140.1060 N   0  0  0  0  0  2  0  0  0  0  0  0
  188.9630  178.8470  138.1270 C   0  0  2  0  0  3  0  0  0  0  0  0
  187.6030  178.6280  137.8710 O   0  0  0  0  0  1  0  0  0  0  0  0
  189.7860  177.5560  138.0830 C   0  0  1  0  0  3  0  0  0  0  0  0
  189.4180  178.1850  139.4320 C   0  0  2  0  0  3  0  0  0  0  0  0
  188.9770  176.3090  137.7190 C   0  0  0  0  0  2  0  0  0  0  0  0
  189.9110  175.2260  137.2190 C   0  0  0  0  0  1  0  0  0  0  0  0
  1 21  1  6  0  0  0
  2  1  1  6  0  0  0
  2 10  1  0  0  0  0
  3  8  1  0  0  0  0
  5  2  1  0  0  0  0
  5 11  1  0  0  0  0
  6  8  1  0  0  0  0
  7  6  2  0  0  0  0
  8  4  2  0  0  0  0
  9  3  1  0  0  0  0
 10  7  1  1  0  0  0
 11  9  1  1  0  0  0
 11 10  1  0  0  0  0
 12 14  1  6  0  0  0
 12 20  1  0  0  0  0
 16  1  1  1  0  0  0
 16 19  1  0  0  0  0
 16 12  1  0  0  0  0
 17 13  1  0  0  0  0
 17 20  1  0  0  0  0
 18 19  1  0  0  0  0
 19 15  1  1  0  0  0
 19 13  1  0  0  0  0
 22 23  1  1  0  0  0
 22 25  1  0  0  0  0
 24 26  1  1  0  0  0
 24 22  1  0  0  0  0
 24 25  1  0  0  0  0
 25 21  1  1  0  0  0
 27 26  1  0  0  0  0
M  END
>  <MODEL>
8

>  <REMARK>
 VINA RESULT:      -6.4      1.427      2.268
  Name = 
  5 active torsions:
  status: ('A' for Active; 'I' for Inactive)
    1  A    between atoms: C_1  and  C_2
    2  A    between atoms: C_1  and  N_15
    3  A    between atoms: C_1  and  C_18
    4  A    between atoms: C_7  and  C_25
    5  A    between atoms: N_15  and  C_27
                            x       y       z     vdW  Elec       q    Type
                         _______ _______ _______ _____ _____    ______ ____

>  <TORSDO>
F 5

$$$$
=
 OpenBabel10262420143D

 27 30  0  0  1  0  0  0  0  0999 V2000
  182.2570  179.2760  139.9210 C   0  0  2  0  0  3  0  0  0  0  0  0
  183.1390  178.1640  139.3040 C   0  0  1  0  0  3  0  0  0  0  0  0
  187.3830  178.3470  138.7810 C   0  0  0  0  0  2  0  0  0  0  0  0
  188.3760  177.7640  140.8700 O   0  0  0  0  0  0  0  0  0  0  0  0
  183.6610  178.5260  137.9820 N   0  0  0  0  0  2  0  0  0  0  0  0
  186.3850  178.9980  141.1670 C   0  0  0  0  0  3  0  0  0  0  0  0
  185.0580  178.9490  140.9780 C   0  0  0  0  0  3  0  0  0  0  0  0
  187.3910  178.3060  140.3050 C   0  0  0  0  0  0  0  0  0  0  0  0
  186.1050  177.8500  138.0830 C   0  0  0  0  0  2  0  0  0  0  0  0
  184.5370  178.0810  139.8910 C   0  0  2  0  0  3  0  0  0  0  0  0
  184.9700  178.6920  138.6010 C   0  0  2  0  0  3  0  0  0  0  0  0
  180.4560  177.4190  140.3390 C   0  0  1  0  0  3  0  0  0  0  0  0
  180.1520  178.2290  142.9340 O   0  0  0  0  0  0  0  0  0  0  0  0
  180.2680  177.2630  138.9660 O   0  0  0  0  0  1  0  0  0  0  0  0
  182.4110  178.8950  142.7630 C   0  0  0  0  0  1  0  0  0  0  0  0
  180.9790  178.8280  140.6660 C   0  0  1  0  0  3  0  0  0  0  0  0
  178.9310  178.0740  142.2510 C   0  0  0  0  0  2  0  0  0  0  0  0
  180.6340  180.4190  142.4360 O   0  0  0  0  0  1  0  0  0  0  0  0
  181.0090  179.0940  142.2030 C   0  0  1  0  0  0  0  0  0  0  0  0
  179.1270  177.1480  141.0510 C   0  0  0  0  0  2  0  0  0  0  0  0
  182.0880  180.4840  139.1050 N   0  0  0  0  0  2  0  0  0  0  0  0
  180.1670  180.8350  137.5670 C   0  0  2  0  0  3  0  0  0  0  0  0
  181.1720  180.4680  136.6620 O   0  0  0  0  0  1  0  0  0  0  0  0
  180.4530  182.1720  138.2550 C   0  0  1  0  0  3  0  0  0  0  0  0
  180.6740  180.8580  139.0130 C   0  0  2  0  0  3  0  0  0  0  0  0
  181.7360  182.8590  137.7820 C   0  0  0  0  0  2  0  0  0  0  0  0
  181.4400  184.3030  137.4310 C   0  0  0  0  0  1  0  0  0  0  0  0
  1 21  1  6  0  0  0
  2 10  1  0  0  0  0
  2  1  1  1  0  0  0
  3  8  1  0  0  0  0
  5 11  1  0  0  0  0
  5  2  1  0  0  0  0
  7  6  2  0  0  0  0
  8  4  2  0  0  0  0
  8  6  1  0  0  0  0
  9  3  1  0  0  0  0
 10  7  1  1  0  0  0
 11  9  1  6  0  0  0
 11 10  1  0  0  0  0
 12 14  1  6  0  0  0
 12 16  1  0  0  0  0
 12 20  1  0  0  0  0
 16  1  1  1  0  0  0
 16 19  1  0  0  0  0
 17 13  1  0  0  0  0
 19 18  1  0  0  0  0
 19 15  1  1  0  0  0
 19 13  1  0  0  0  0
 20 17  1  0  0  0  0
 22 23  1  6  0  0  0
 22 24  1  0  0  0  0
 22 25  1  0  0  0  0
 24 26  1  6  0  0  0
 24 25  1  0  0  0  0
 25 21  1  6  0  0  0
 27 26  1  0  0  0  0
M  END
>  <MODEL>
9

>  <REMARK>
 VINA RESULT:      -6.3      5.264      9.051
  Name = 
  5 active torsions:
  status: ('A' for Active; 'I' for Inactive)
    1  A    between atoms: C_1  and  C_2
    2  A    between atoms: C_1  and  N_15
    3  A    between atoms: C_1  and  C_18
    4  A    between atoms: C_7  and  C_25
    5  A    between atoms: N_15  and  C_27
                            x       y       z     vdW  Elec       q    Type
                         _______ _______ _______ _____ _____    ______ ____

>  <TORSDO>
F 5

$$$$
