=
 OpenBabel10262423283D

 34 39  0  0  1  0  0  0  0  0999 V2000
  188.7430  177.7580  143.2970 C   0  0  0  0  0  0  0  0  0  0  0  0
  190.9760  177.6320  141.9890 C   0  0  0  0  0  0  0  0  0  0  0  0
  191.6620  177.9380  144.3340 C   0  0  0  0  0  3  0  0  0  0  0  0
  186.8140  177.6500  145.3570 C   0  0  0  0  0  3  0  0  0  0  0  0
  187.3830  178.0490  143.0660 C   0  0  0  0  0  3  0  0  0  0  0  0
  188.1480  177.3770  145.6400 C   0  0  0  0  0  0  0  0  0  0  0  0
  189.7960  176.7910  147.3000 C   0  0  0  0  0  3  0  0  0  0  0  0
  188.4710  176.9920  146.9400 C   0  0  0  0  0  3  0  0  0  0  0  0
  186.4220  178.0340  144.0770 C   0  0  0  0  0  0  0  0  0  0  0  0
  190.5090  177.3970  145.0530 C   0  0  0  0  0  0  0  0  0  0  0  0
  189.1570  177.5080  144.6360 C   0  0  0  0  0  0  0  0  0  0  0  0
  190.8020  177.0250  146.3700 C   0  0  0  0  0  3  0  0  0  0  0  0
  191.6190  177.4090  140.7650 C   0  0  0  0  0  3  0  0  0  0  0  0
  190.9090  177.0210  139.6260 C   0  0  0  0  0  0  0  0  0  0  0  0
  189.5310  176.8650  139.7060 C   0  0  0  0  0  3  0  0  0  0  0  0
  191.8230  178.0440  143.0570 N   0  0  0  0  0  0  0  0  0  0  0  0
  188.8770  177.1040  140.9130 C   0  0  0  0  0  3  0  0  0  0  0  0
  189.5700  177.5010  142.0790 C   0  0  0  0  0  0  0  0  0  0  0  0
  182.7770  178.9640  144.5360 C   0  0  0  0  0  3  0  0  0  0  0  0
  184.5360  178.3600  142.4600 C   0  0  0  0  0  3  0  0  0  0  0  0
  180.8900  179.3350  142.9690 C   0  0  0  0  0  1  0  0  0  0  0  0
  182.3150  178.9700  143.2180 C   0  0  0  0  0  0  0  0  0  0  0  0
  183.1940  178.6450  142.1640 C   0  0  0  0  0  0  0  0  0  0  0  0
  185.0050  178.3530  143.7810 C   0  0  0  0  0  0  0  0  0  0  0  0
  184.1090  178.6560  144.8170 C   0  0  0  0  0  3  0  0  0  0  0  0
  182.5930  177.2660  140.1930 C   0  0  2  0  0  3  0  0  0  0  0  0
  182.7420  178.6850  140.7280 C   0  0  2  0  0  3  0  0  0  0  0  0
  183.7910  178.1020  139.7950 C   0  0  0  0  0  2  0  0  0  0  0  0
  181.5890  177.2480  139.0880 C   0  0  0  0  0  0  0  0  0  0  0  0
  181.9670  177.3150  137.8900 O   0  0  0  0  0  0  0  0  0  0  0  0
  180.2370  177.1070  139.3760 O   0  0  0  0  0  1  0  0  0  0  0  0
  191.5700  176.7830  138.3800 N   0  0  0  0  0  2  0  0  0  0  0  0
  192.9380  176.3940  138.2890 C   0  0  0  0  0  3  0  0  0  0  0  0
  193.5240  176.3040  137.1050 C   0  0  0  0  0  2  0  0  0  0  0  0
  1 11  1  0  0  0  0
  2 18  1  0  0  0  0
  2 16  1  0  0  0  0
  3 10  1  0  0  0  0
  4  6  1  0  0  0  0
  5  1  2  0  0  0  0
  5  9  1  0  0  0  0
  6  8  1  0  0  0  0
  8  7  2  0  0  0  0
  9  4  2  0  0  0  0
 10 12  2  0  0  0  0
 11 10  1  0  0  0  0
 11  6  2  0  0  0  0
 12  7  1  0  0  0  0
 13  2  2  0  0  0  0
 14 15  2  0  0  0  0
 14 13  1  0  0  0  0
 15 17  1  0  0  0  0
 16  3  2  0  0  0  0
 17 18  2  0  0  0  0
 18  1  1  0  0  0  0
 19 25  1  0  0  0  0
 20 24  1  0  0  0  0
 21 22  1  0  0  0  0
 22 19  2  0  0  0  0
 23 20  2  0  0  0  0
 23 22  1  0  0  0  0
 24  9  1  0  0  0  0
 24 25  2  0  0  0  0
 26 29  1  6  0  0  0
 26 27  1  0  0  0  0
 27 23  1  1  0  0  0
 28 26  1  0  0  0  0
 28 27  1  0  0  0  0
 29 31  1  0  0  0  0
 30 29  2  0  0  0  0
 32 14  1  0  0  0  0
 33 32  1  0  0  0  0
 34 33  2  0  0  0  0
M  END
>  <MODEL>
1

>  <REMARK>
 VINA RESULT:     -11.1      0.000      0.000
  Name = 
  5 active torsions:
  status: ('A' for Active; 'I' for Inactive)
    1  A    between atoms: N_3  and  C_13
    2  A    between atoms: N_3  and  C_25
    3  A    between atoms: C_7  and  C_11
    4  A    between atoms: C_18  and  C_30
    5  A    between atoms: C_26  and  C_28
                            x       y       z     vdW  Elec       q    Type
                         _______ _______ _______ _____ _____    ______ ____

>  <TORSDO>
F 5

$$$$
=
 OpenBabel10262423283D

 34 39  0  0  1  0  0  0  0  0999 V2000
  183.8570  178.2570  141.6380 C   0  0  0  0  0  0  0  0  0  0  0  0
  183.7740  177.8210  139.0850 C   0  0  0  0  0  0  0  0  0  0  0  0
  181.4160  177.7570  139.7890 C   0  0  0  0  0  3  0  0  0  0  0  0
  183.1530  178.9830  144.2740 C   0  0  0  0  0  3  0  0  0  0  0  0
  184.7680  178.1610  142.7090 C   0  0  0  0  0  3  0  0  0  0  0  0
  182.2120  179.0730  143.2540 C   0  0  0  0  0  0  0  0  0  0  0  0
  179.9520  179.6200  142.6140 C   0  0  0  0  0  3  0  0  0  0  0  0
  180.9560  179.5880  143.5720 C   0  0  0  0  0  3  0  0  0  0  0  0
  184.4280  178.4840  144.0240 C   0  0  0  0  0  0  0  0  0  0  0  0
  181.4460  178.5810  140.9990 C   0  0  0  0  0  0  0  0  0  0  0  0
  182.5150  178.6310  141.9290 C   0  0  0  0  0  0  0  0  0  0  0  0
  180.1910  179.0900  141.3520 C   0  0  0  0  0  3  0  0  0  0  0  0
  184.4730  177.7530  137.8730 C   0  0  0  0  0  3  0  0  0  0  0  0
  185.8290  178.0790  137.7910 C   0  0  0  0  0  0  0  0  0  0  0  0
  186.5030  178.4680  138.9420 C   0  0  0  0  0  3  0  0  0  0  0  0
  182.4040  177.4390  139.0220 N   0  0  0  0  0  0  0  0  0  0  0  0
  185.8250  178.5210  140.1570 C   0  0  0  0  0  3  0  0  0  0  0  0
  184.4550  178.1930  140.2680 C   0  0  0  0  0  0  0  0  0  0  0  0
  186.1110  178.8040  147.4040 C   0  0  0  0  0  3  0  0  0  0  0  0
  186.6270  177.6720  144.9100 C   0  0  0  0  0  3  0  0  0  0  0  0
  188.2610  177.9870  148.3360 C   0  0  0  0  0  1  0  0  0  0  0  0
  187.3090  178.1170  147.1940 C   0  0  0  0  0  0  0  0  0  0  0  0
  187.5860  177.5580  145.9280 C   0  0  0  0  0  0  0  0  0  0  0  0
  185.4230  178.3600  145.1160 C   0  0  0  0  0  0  0  0  0  0  0  0
  185.1770  178.9280  146.3750 C   0  0  0  0  0  3  0  0  0  0  0  0
  189.9610  177.7120  145.2340 C   0  0  2  0  0  3  0  0  0  0  0  0
  188.8470  176.7730  145.6780 C   0  0  2  0  0  3  0  0  0  0  0  0
  189.2630  176.8330  144.2180 C   0  0  0  0  0  2  0  0  0  0  0  0
  191.2860  177.1270  145.5940 C   0  0  0  0  0  0  0  0  0  0  0  0
  192.0000  176.5860  144.7100 O   0  0  0  0  0  0  0  0  0  0  0  0
  191.7580  177.2200  146.8980 O   0  0  0  0  0  1  0  0  0  0  0  0
  186.5380  178.0190  136.5500 N   0  0  0  0  0  2  0  0  0  0  0  0
  187.8870  178.4550  136.4050 C   0  0  0  0  0  3  0  0  0  0  0  0
  188.8260  177.5940  136.0460 C   0  0  0  0  0  2  0  0  0  0  0  0
  1 11  2  0  0  0  0
  1  5  1  0  0  0  0
  2 18  1  0  0  0  0
  3 10  1  0  0  0  0
  5  9  2  0  0  0  0
  6  8  1  0  0  0  0
  6  4  2  0  0  0  0
  7  8  2  0  0  0  0
  9  4  1  0  0  0  0
  9 24  1  0  0  0  0
 10 12  2  0  0  0  0
 10 11  1  0  0  0  0
 11  6  1  0  0  0  0
 12  7  1  0  0  0  0
 13  2  2  0  0  0  0
 14 13  1  0  0  0  0
 14 15  2  0  0  0  0
 15 17  1  0  0  0  0
 16  2  1  0  0  0  0
 16  3  2  0  0  0  0
 17 18  2  0  0  0  0
 18  1  1  0  0  0  0
 20 24  2  0  0  0  0
 20 23  1  0  0  0  0
 22 19  1  0  0  0  0
 22 21  1  0  0  0  0
 23 22  2  0  0  0  0
 24 25  1  0  0  0  0
 25 19  2  0  0  0  0
 26 29  1  1  0  0  0
 26 27  1  0  0  0  0
 27 23  1  6  0  0  0
 28 26  1  0  0  0  0
 28 27  1  0  0  0  0
 29 31  1  0  0  0  0
 30 29  2  0  0  0  0
 32 14  1  0  0  0  0
 33 32  1  0  0  0  0
 34 33  2  0  0  0  0
M  END
>  <MODEL>
2

>  <REMARK>
 VINA RESULT:     -10.6      4.059      7.640
  Name = 
  5 active torsions:
  status: ('A' for Active; 'I' for Inactive)
    1  A    between atoms: N_3  and  C_13
    2  A    between atoms: N_3  and  C_25
    3  A    between atoms: C_7  and  C_11
    4  A    between atoms: C_18  and  C_30
    5  A    between atoms: C_26  and  C_28
                            x       y       z     vdW  Elec       q    Type
                         _______ _______ _______ _____ _____    ______ ____

>  <TORSDO>
F 5

$$$$
=
 OpenBabel10262423283D

 34 39  0  0  1  0  0  0  0  0999 V2000
  188.2010  177.5140  142.9370 C   0  0  0  0  0  0  0  0  0  0  0  0
  190.3750  176.6560  144.0550 C   0  0  0  0  0  0  0  0  0  0  0  0
  190.7550  176.3150  141.6470 C   0  0  0  0  0  3  0  0  0  0  0  0
  186.3560  178.5360  141.0590 C   0  0  0  0  0  3  0  0  0  0  0  0
  186.8510  177.7510  143.2660 C   0  0  0  0  0  3  0  0  0  0  0  0
  187.6730  178.2980  140.6800 C   0  0  0  0  0  0  0  0  0  0  0  0
  189.3240  178.3450  138.9220 C   0  0  0  0  0  3  0  0  0  0  0  0
  188.0480  178.6400  139.3810 C   0  0  0  0  0  3  0  0  0  0  0  0
  185.9170  178.2240  142.3430 C   0  0  0  0  0  0  0  0  0  0  0  0
  189.8670  177.3190  141.0610 C   0  0  0  0  0  0  0  0  0  0  0  0
  188.6050  177.7010  141.5840 C   0  0  0  0  0  0  0  0  0  0  0  0
  190.2080  177.6620  139.7480 C   0  0  0  0  0  3  0  0  0  0  0  0
  191.1220  176.5070  145.2310 C   0  0  0  0  0  3  0  0  0  0  0  0
  190.6840  177.0380  146.4470 C   0  0  0  0  0  0  0  0  0  0  0  0
  189.4740  177.7190  146.4940 C   0  0  0  0  0  3  0  0  0  0  0  0
  190.9330  176.0440  142.8970 N   0  0  0  0  0  0  0  0  0  0  0  0
  188.7130  177.8560  145.3360 C   0  0  0  0  0  3  0  0  0  0  0  0
  189.1300  177.3270  144.0940 C   0  0  0  0  0  0  0  0  0  0  0  0
  182.8370  178.8540  144.4580 C   0  0  0  0  0  3  0  0  0  0  0  0
  183.4910  178.4840  141.7740 C   0  0  0  0  0  3  0  0  0  0  0  0
  180.4300  179.1570  143.9380 C   0  0  0  0  0  1  0  0  0  0  0  0
  181.8290  178.8880  143.4930 C   0  0  0  0  0  0  0  0  0  0  0  0
  182.1490  178.6820  142.1340 C   0  0  0  0  0  0  0  0  0  0  0  0
  184.5070  178.4500  142.7390 C   0  0  0  0  0  0  0  0  0  0  0  0
  184.1640  178.6330  144.0870 C   0  0  0  0  0  3  0  0  0  0  0  0
  181.1760  177.5240  140.1700 C   0  0  2  0  0  3  0  0  0  0  0  0
  181.0950  178.7570  141.0610 C   0  0  2  0  0  3  0  0  0  0  0  0
  181.7120  178.8510  139.6760 C   0  0  0  0  0  2  0  0  0  0  0  0
  179.8390  177.2520  139.5640 C   0  0  0  0  0  0  0  0  0  0  0  0
  179.5460  177.7340  138.4390 O   0  0  0  0  0  0  0  0  0  0  0  0
  178.9310  176.4270  140.2170 O   0  0  0  0  0  1  0  0  0  0  0  0
  191.4530  176.8940  147.6440 N   0  0  0  0  0  0  0  0  0  0  0  0
  192.4110  175.8540  147.8310 C   0  0  0  0  0  3  0  0  0  0  0  0
  193.2060  175.8680  148.8890 C   0  0  0  0  0  1  0  0  0  0  0  0
  1  5  1  0  0  0  0
  1 18  1  0  0  0  0
  2 18  2  0  0  0  0
  2 13  1  0  0  0  0
  3 16  2  0  0  0  0
  4  9  1  0  0  0  0
  6  4  2  0  0  0  0
  6 11  1  0  0  0  0
  7  8  2  0  0  0  0
  7 12  1  0  0  0  0
  8  6  1  0  0  0  0
  9 24  1  0  0  0  0
  9  5  2  0  0  0  0
 10 11  1  0  0  0  0
 10  3  1  0  0  0  0
 11  1  2  0  0  0  0
 12 10  2  0  0  0  0
 13 14  2  0  0  0  0
 14 15  1  0  0  0  0
 14 32  1  0  0  0  0
 16  2  1  0  0  0  0
 17 15  2  0  0  0  0
 18 17  1  0  0  0  0
 20 23  2  0  0  0  0
 20 24  1  0  0  0  0
 22 21  1  0  0  0  0
 22 19  2  0  0  0  0
 23 22  1  0  0  0  0
 24 25  2  0  0  0  0
 25 19  1  0  0  0  0
 26 29  1  6  0  0  0
 26 27  1  0  0  0  0
 27 23  1  1  0  0  0
 28 26  1  0  0  0  0
 28 27  1  0  0  0  0
 29 31  1  0  0  0  0
 30 29  2  0  0  0  0
 32 33  2  0  0  0  0
 33 34  1  0  0  0  0
M  END
>  <MODEL>
3

>  <REMARK>
 VINA RESULT:     -10.0      1.721      4.721
  Name = 
  5 active torsions:
  status: ('A' for Active; 'I' for Inactive)
    1  A    between atoms: N_3  and  C_13
    2  A    between atoms: N_3  and  C_25
    3  A    between atoms: C_7  and  C_11
    4  A    between atoms: C_18  and  C_30
    5  A    between atoms: C_26  and  C_28
                            x       y       z     vdW  Elec       q    Type
                         _______ _______ _______ _____ _____    ______ ____

>  <TORSDO>
F 5

$$$$
=
 OpenBabel10262423283D

 34 39  0  0  1  0  0  0  0  0999 V2000
  186.3160  178.3250  143.3600 C   0  0  0  0  0  0  0  0  0  0  0  0
  186.9780  178.3110  145.8650 C   0  0  0  0  0  0  0  0  0  0  0  0
  184.7580  179.3730  145.8290 C   0  0  0  0  0  3  0  0  0  0  0  0
  184.8200  178.3840  140.9660 C   0  0  0  0  0  3  0  0  0  0  0  0
  186.9290  178.2570  142.0920 C   0  0  0  0  0  3  0  0  0  0  0  0
  184.1720  178.4770  142.1930 C   0  0  0  0  0  0  0  0  0  0  0  0
  182.0840  178.7130  143.3770 C   0  0  0  0  0  3  0  0  0  0  0  0
  182.7780  178.5320  142.1890 C   0  0  0  0  0  3  0  0  0  0  0  0
  186.2090  178.3180  140.8980 C   0  0  0  0  0  0  0  0  0  0  0  0
  184.1850  178.8210  144.6000 C   0  0  0  0  0  0  0  0  0  0  0  0
  184.9100  178.5360  143.4150 C   0  0  0  0  0  0  0  0  0  0  0  0
  182.7880  178.8880  144.5620 C   0  0  0  0  0  3  0  0  0  0  0  0
  187.8910  177.9010  146.8450 C   0  0  0  0  0  3  0  0  0  0  0  0
  188.9800  177.0830  146.5340 C   0  0  0  0  0  0  0  0  0  0  0  0
  189.1680  176.6750  145.2200 C   0  0  0  0  0  3  0  0  0  0  0  0
  185.9310  179.1610  146.3230 N   0  0  0  0  0  0  0  0  0  0  0  0
  188.2790  177.0920  144.2320 C   0  0  0  0  0  3  0  0  0  0  0  0
  187.1720  177.9220  144.5180 C   0  0  0  0  0  0  0  0  0  0  0  0
  186.8360  178.2830  137.1610 C   0  0  0  0  0  3  0  0  0  0  0  0
  188.2950  178.0870  139.5280 C   0  0  0  0  0  3  0  0  0  0  0  0
  188.8790  178.0980  135.7650 C   0  0  0  0  0  1  0  0  0  0  0  0
  188.2220  178.1240  137.1050 C   0  0  0  0  0  0  0  0  0  0  0  0
  188.9650  178.0040  138.2980 C   0  0  0  0  0  0  0  0  0  0  0  0
  186.9030  178.2480  139.5900 C   0  0  0  0  0  0  0  0  0  0  0  0
  186.1810  178.3420  138.3910 C   0  0  0  0  0  3  0  0  0  0  0  0
  190.8590  176.4050  138.2530 C   0  0  2  0  0  3  0  0  0  0  0  0
  190.4650  177.8760  138.2760 C   0  0  2  0  0  3  0  0  0  0  0  0
  190.9880  177.2020  139.5340 C   0  0  0  0  0  2  0  0  0  0  0  0
  192.1960  176.2520  137.6080 C   0  0  0  0  0  0  0  0  0  0  0  0
  192.2810  175.8500  136.4180 O   0  0  0  0  0  0  0  0  0  0  0  0
  193.3500  176.5980  138.3010 O   0  0  0  0  0  1  0  0  0  0  0  0
  189.9050  176.6580  147.5390 N   0  0  0  0  0  2  0  0  0  0  0  0
  191.3190  176.7510  147.3820 C   0  0  0  0  0  3  0  0  0  0  0  0
  192.0550  175.6520  147.3460 C   0  0  0  0  0  2  0  0  0  0  0  0
  1 11  1  0  0  0  0
  1 18  1  0  0  0  0
  2 16  1  0  0  0  0
  2 13  1  0  0  0  0
  3 16  2  0  0  0  0
  4  6  1  0  0  0  0
  5  1  2  0  0  0  0
  6 11  2  0  0  0  0
  7 12  1  0  0  0  0
  8  6  1  0  0  0  0
  8  7  2  0  0  0  0
  9  4  2  0  0  0  0
  9  5  1  0  0  0  0
 10  3  1  0  0  0  0
 11 10  1  0  0  0  0
 12 10  2  0  0  0  0
 14 13  2  0  0  0  0
 14 32  1  0  0  0  0
 15 14  1  0  0  0  0
 17 18  1  0  0  0  0
 17 15  2  0  0  0  0
 18  2  2  0  0  0  0
 19 25  1  0  0  0  0
 20 24  1  0  0  0  0
 21 22  1  0  0  0  0
 22 19  2  0  0  0  0
 22 23  1  0  0  0  0
 23 20  2  0  0  0  0
 24  9  1  0  0  0  0
 25 24  2  0  0  0  0
 26 29  1  6  0  0  0
 26 27  1  0  0  0  0
 26 28  1  0  0  0  0
 27 23  1  1  0  0  0
 27 28  1  0  0  0  0
 29 31  1  0  0  0  0
 30 29  2  0  0  0  0
 33 32  1  0  0  0  0
 34 33  2  0  0  0  0
M  END
>  <MODEL>
4

>  <REMARK>
 VINA RESULT:      -9.8      3.631      7.471
  Name = 
  5 active torsions:
  status: ('A' for Active; 'I' for Inactive)
    1  A    between atoms: N_3  and  C_13
    2  A    between atoms: N_3  and  C_25
    3  A    between atoms: C_7  and  C_11
    4  A    between atoms: C_18  and  C_30
    5  A    between atoms: C_26  and  C_28
                            x       y       z     vdW  Elec       q    Type
                         _______ _______ _______ _____ _____    ______ ____

>  <TORSDO>
F 5

$$$$
=
 OpenBabel10262423283D

 34 39  0  0  1  0  0  0  0  0999 V2000
  188.3660  177.8380  144.8240 C   0  0  0  0  0  0  0  0  0  0  0  0
  189.6720  177.6160  147.0520 C   0  0  0  0  0  0  0  0  0  0  0  0
  187.5610  178.7070  147.6920 C   0  0  0  0  0  3  0  0  0  0  0  0
  186.2880  178.1070  142.9320 C   0  0  0  0  0  3  0  0  0  0  0  0
  188.6150  177.8630  143.4370 C   0  0  0  0  0  3  0  0  0  0  0  0
  185.9940  178.1100  144.2920 C   0  0  0  0  0  0  0  0  0  0  0  0
  184.3080  178.2780  146.0080 C   0  0  0  0  0  3  0  0  0  0  0  0
  184.6530  178.1840  144.6680 C   0  0  0  0  0  3  0  0  0  0  0  0
  187.6050  178.0290  142.4890 C   0  0  0  0  0  0  0  0  0  0  0  0
  186.6620  178.2620  146.6260 C   0  0  0  0  0  0  0  0  0  0  0  0
  187.0340  178.0630  145.2720 C   0  0  0  0  0  0  0  0  0  0  0  0
  185.3090  178.3500  146.9700 C   0  0  0  0  0  3  0  0  0  0  0  0
  190.8000  177.1190  147.7170 C   0  0  0  0  0  3  0  0  0  0  0  0
  191.7380  176.3130  147.0660 C   0  0  0  0  0  0  0  0  0  0  0  0
  191.5540  176.0090  145.7230 C   0  0  0  0  0  3  0  0  0  0  0  0
  188.8160  178.4410  147.8350 N   0  0  0  0  0  0  0  0  0  0  0  0
  190.4480  176.5150  145.0440 C   0  0  0  0  0  3  0  0  0  0  0  0
  189.4860  177.3340  145.6770 C   0  0  0  0  0  0  0  0  0  0  0  0
  187.2100  178.2920  138.7290 C   0  0  0  0  0  3  0  0  0  0  0  0
  189.2380  177.8710  140.5950 C   0  0  0  0  0  3  0  0  0  0  0  0
  188.7970  178.1830  136.8250 C   0  0  0  0  0  1  0  0  0  0  0  0
  188.5230  178.1110  138.2900 C   0  0  0  0  0  0  0  0  0  0  0  0
  189.5520  177.8780  139.2270 C   0  0  0  0  0  0  0  0  0  0  0  0
  187.9210  178.0540  141.0410 C   0  0  0  0  0  0  0  0  0  0  0  0
  186.9100  178.2610  140.0920 C   0  0  0  0  0  3  0  0  0  0  0  0
  191.3600  176.2460  138.7630 C   0  0  2  0  0  3  0  0  0  0  0  0
  190.9860  177.7220  138.7930 C   0  0  2  0  0  3  0  0  0  0  0  0
  191.8430  177.1250  139.8970 C   0  0  0  0  0  2  0  0  0  0  0  0
  192.4610  176.0250  137.7790 C   0  0  0  0  0  0  0  0  0  0  0  0
  192.2020  175.5780  136.6320 O   0  0  0  0  0  0  0  0  0  0  0  0
  193.7690  176.3590  138.1100 O   0  0  0  0  0  1  0  0  0  0  0  0
  192.8830  175.7980  147.7510 N   0  0  0  0  0  2  0  0  0  0  0  0
  193.0100  175.8170  149.1710 C   0  0  0  0  0  3  0  0  0  0  0  0
  193.7230  176.7640  149.7590 C   0  0  0  0  0  2  0  0  0  0  0  0
  1 11  1  0  0  0  0
  1 18  1  0  0  0  0
  2 13  1  0  0  0  0
  2 16  1  0  0  0  0
  3 16  2  0  0  0  0
  4  6  1  0  0  0  0
  5  1  2  0  0  0  0
  6  8  1  0  0  0  0
  6 11  2  0  0  0  0
  7 12  1  0  0  0  0
  8  7  2  0  0  0  0
  9  4  2  0  0  0  0
  9  5  1  0  0  0  0
 10 12  2  0  0  0  0
 10  3  1  0  0  0  0
 11 10  1  0  0  0  0
 14 13  2  0  0  0  0
 14 32  1  0  0  0  0
 15 14  1  0  0  0  0
 17 18  1  0  0  0  0
 17 15  2  0  0  0  0
 18  2  2  0  0  0  0
 19 25  1  0  0  0  0
 20 24  1  0  0  0  0
 21 22  1  0  0  0  0
 22 19  2  0  0  0  0
 22 23  1  0  0  0  0
 23 20  2  0  0  0  0
 24  9  1  0  0  0  0
 25 24  2  0  0  0  0
 26 29  1  6  0  0  0
 26 27  1  0  0  0  0
 26 28  1  0  0  0  0
 27 23  1  1  0  0  0
 27 28  1  0  0  0  0
 29 31  1  0  0  0  0
 30 29  2  0  0  0  0
 32 33  1  0  0  0  0
 33 34  2  0  0  0  0
M  END
>  <MODEL>
5

>  <REMARK>
 VINA RESULT:      -9.7      3.942      7.163
  Name = 
  5 active torsions:
  status: ('A' for Active; 'I' for Inactive)
    1  A    between atoms: N_3  and  C_13
    2  A    between atoms: N_3  and  C_25
    3  A    between atoms: C_7  and  C_11
    4  A    between atoms: C_18  and  C_30
    5  A    between atoms: C_26  and  C_28
                            x       y       z     vdW  Elec       q    Type
                         _______ _______ _______ _____ _____    ______ ____

>  <TORSDO>
F 5

$$$$
=
 OpenBabel10262423283D

 34 39  0  0  1  0  0  0  0  0999 V2000
  185.3050  178.4430  142.7260 C   0  0  0  0  0  0  0  0  0  0  0  0
  185.5490  178.5620  145.3030 C   0  0  0  0  0  0  0  0  0  0  0  0
  183.3230  179.5150  144.8590 C   0  0  0  0  0  3  0  0  0  0  0  0
  184.2180  178.3340  140.1220 C   0  0  0  0  0  3  0  0  0  0  0  0
  186.1190  178.3530  141.5780 C   0  0  0  0  0  3  0  0  0  0  0  0
  183.3750  178.4450  141.2230 C   0  0  0  0  0  0  0  0  0  0  0  0
  181.1140  178.6300  142.0420 C   0  0  0  0  0  3  0  0  0  0  0  0
  182.0000  178.4340  140.9920 C   0  0  0  0  0  3  0  0  0  0  0  0
  185.6010  178.3310  140.2820 C   0  0  0  0  0  0  0  0  0  0  0  0
  182.9820  178.8880  143.5820 C   0  0  0  0  0  0  0  0  0  0  0  0
  183.9010  178.5890  142.5440 C   0  0  0  0  0  0  0  0  0  0  0  0
  181.6080  178.8860  143.3160 C   0  0  0  0  0  3  0  0  0  0  0  0
  186.3050  178.2370  146.4360 C   0  0  0  0  0  3  0  0  0  0  0  0
  187.4630  177.4590  146.3440 C   0  0  0  0  0  0  0  0  0  0  0  0
  187.8800  177.0080  145.0980 C   0  0  0  0  0  3  0  0  0  0  0  0
  184.4080  179.3790  145.5450 N   0  0  0  0  0  0  0  0  0  0  0  0
  187.1480  177.3420  143.9610 C   0  0  0  0  0  3  0  0  0  0  0  0
  185.9760  178.1290  144.0250 C   0  0  0  0  0  0  0  0  0  0  0  0
  186.8340  178.2140  136.7010 C   0  0  0  0  0  3  0  0  0  0  0  0
  187.8870  178.1060  139.2800 C   0  0  0  0  0  3  0  0  0  0  0  0
  189.0810  178.0320  135.6640 C   0  0  0  0  0  1  0  0  0  0  0  0
  188.2130  178.0800  136.8770 C   0  0  0  0  0  0  0  0  0  0  0  0
  188.7510  178.0040  138.1790 C   0  0  0  0  0  0  0  0  0  0  0  0
  186.5020  178.2420  139.1080 C   0  0  0  0  0  0  0  0  0  0  0  0
  185.9850  178.2910  137.8060 C   0  0  0  0  0  3  0  0  0  0  0  0
  190.6670  176.4440  138.3740 C   0  0  2  0  0  3  0  0  0  0  0  0
  190.2360  177.9040  138.4070 C   0  0  2  0  0  3  0  0  0  0  0  0
  190.5560  177.1690  139.6980 C   0  0  0  0  0  2  0  0  0  0  0  0
  192.0980  176.3510  137.9580 C   0  0  0  0  0  0  0  0  0  0  0  0
  193.0140  176.5910  138.7880 O   0  0  0  0  0  1  0  0  0  0  0  0
  192.4260  175.9510  136.6680 O   0  0  0  0  0  0  0  0  0  0  0  0
  188.2280  177.1200  147.5050 N   0  0  0  0  0  2  0  0  0  0  0  0
  189.5930  177.4940  147.6700 C   0  0  0  0  0  3  0  0  0  0  0  0
  190.5570  176.6650  147.3010 C   0  0  0  0  0  2  0  0  0  0  0  0
  1 18  1  0  0  0  0
  2 16  1  0  0  0  0
  2 13  1  0  0  0  0
  3 16  2  0  0  0  0
  4  9  2  0  0  0  0
  4  6  1  0  0  0  0
  5  1  2  0  0  0  0
  6 11  2  0  0  0  0
  7 12  1  0  0  0  0
  8  6  1  0  0  0  0
  8  7  2  0  0  0  0
  9  5  1  0  0  0  0
 10  3  1  0  0  0  0
 11  1  1  0  0  0  0
 11 10  1  0  0  0  0
 12 10  2  0  0  0  0
 14 13  2  0  0  0  0
 14 32  1  0  0  0  0
 15 14  1  0  0  0  0
 17 18  1  0  0  0  0
 17 15  2  0  0  0  0
 18  2  2  0  0  0  0
 19 22  2  0  0  0  0
 19 25  1  0  0  0  0
 21 22  1  0  0  0  0
 22 23  1  0  0  0  0
 23 20  2  0  0  0  0
 24 20  1  0  0  0  0
 24  9  1  0  0  0  0
 25 24  2  0  0  0  0
 26 29  1  6  0  0  0
 26 27  1  0  0  0  0
 26 28  1  0  0  0  0
 27 23  1  1  0  0  0
 27 28  1  0  0  0  0
 29 30  1  0  0  0  0
 31 29  2  0  0  0  0
 32 33  1  0  0  0  0
 34 33  2  0  0  0  0
M  END
>  <MODEL>
6

>  <REMARK>
 VINA RESULT:      -9.5      3.700      7.941
  Name = 
  5 active torsions:
  status: ('A' for Active; 'I' for Inactive)
    1  A    between atoms: N_3  and  C_13
    2  A    between atoms: N_3  and  C_25
    3  A    between atoms: C_7  and  C_11
    4  A    between atoms: C_18  and  C_30
    5  A    between atoms: C_26  and  C_28
                            x       y       z     vdW  Elec       q    Type
                         _______ _______ _______ _____ _____    ______ ____

>  <TORSDO>
F 5

$$$$
=
 OpenBabel10262423283D

 34 39  0  0  1  0  0  0  0  0999 V2000
  188.0290  177.5590  142.9790 C   0  0  0  0  0  0  0  0  0  0  0  0
  186.0440  177.8880  144.6120 C   0  0  0  0  0  0  0  0  0  0  0  0
  187.8650  177.0360  146.0330 C   0  0  0  0  0  3  0  0  0  0  0  0
  190.6310  177.2770  141.9200 C   0  0  0  0  0  3  0  0  0  0  0  0
  188.2610  177.3810  141.6000 C   0  0  0  0  0  3  0  0  0  0  0  0
  190.4520  177.4280  143.2910 C   0  0  0  0  0  0  0  0  0  0  0  0
  191.4710  177.5600  145.4730 C   0  0  0  0  0  3  0  0  0  0  0  0
  191.5920  177.4980  144.0920 C   0  0  0  0  0  3  0  0  0  0  0  0
  189.5370  177.2070  141.0620 C   0  0  0  0  0  0  0  0  0  0  0  0
  189.0480  177.4470  145.2770 C   0  0  0  0  0  0  0  0  0  0  0  0
  189.1440  177.4860  143.8620 C   0  0  0  0  0  0  0  0  0  0  0  0
  190.2110  177.5010  146.0540 C   0  0  0  0  0  3  0  0  0  0  0  0
  184.7380  178.3560  144.8080 C   0  0  0  0  0  3  0  0  0  0  0  0
  184.0390  179.0170  143.7950 C   0  0  0  0  0  0  0  0  0  0  0  0
  184.6480  179.2050  142.5610 C   0  0  0  0  0  3  0  0  0  0  0  0
  186.6240  177.2140  145.7240 N   0  0  0  0  0  0  0  0  0  0  0  0
  185.9390  178.7270  142.3470 C   0  0  0  0  0  3  0  0  0  0  0  0
  186.6670  178.0520  143.3520 C   0  0  0  0  0  0  0  0  0  0  0  0
  188.8200  176.9610  137.3490 C   0  0  0  0  0  3  0  0  0  0  0  0
  190.9920  176.7220  139.0810 C   0  0  0  0  0  3  0  0  0  0  0  0
  190.2300  176.5240  135.3540 C   0  0  0  0  0  1  0  0  0  0  0  0
  190.0840  176.6680  136.8330 C   0  0  0  0  0  0  0  0  0  0  0  0
  191.1840  176.5250  137.7050 C   0  0  0  0  0  0  0  0  0  0  0  0
  189.7250  177.0180  139.6040 C   0  0  0  0  0  0  0  0  0  0  0  0
  188.6410  177.1320  138.7220 C   0  0  0  0  0  3  0  0  0  0  0  0
  192.9840  174.8290  137.5290 C   0  0  2  0  0  3  0  0  0  0  0  0
  192.5690  176.2520  137.1790 C   0  0  2  0  0  3  0  0  0  0  0  0
  193.5550  175.9950  138.3070 C   0  0  0  0  0  2  0  0  0  0  0  0
  193.9830  174.3380  136.5340 C   0  0  0  0  0  0  0  0  0  0  0  0
  193.5990  173.7390  135.4950 O   0  0  0  0  0  0  0  0  0  0  0  0
  195.3380  174.5810  136.7270 O   0  0  0  0  0  1  0  0  0  0  0  0
  182.7090  179.5030  144.0010 N   0  0  0  0  0  2  0  0  0  0  0  0
  181.5780  178.9910  143.3000 C   0  0  0  0  0  3  0  0  0  0  0  0
  180.4940  178.6280  143.9670 C   0  0  0  0  0  2  0  0  0  0  0  0
  1 18  1  0  0  0  0
  1 11  1  0  0  0  0
  2 13  1  0  0  0  0
  2 16  1  0  0  0  0
  4  6  1  0  0  0  0
  5  1  2  0  0  0  0
  6 11  2  0  0  0  0
  6  8  1  0  0  0  0
  7 12  1  0  0  0  0
  8  7  2  0  0  0  0
  9  5  1  0  0  0  0
  9  4  2  0  0  0  0
 10  3  1  0  0  0  0
 10 12  2  0  0  0  0
 11 10  1  0  0  0  0
 14 32  1  0  0  0  0
 14 13  2  0  0  0  0
 15 14  1  0  0  0  0
 16  3  2  0  0  0  0
 17 15  2  0  0  0  0
 17 18  1  0  0  0  0
 18  2  2  0  0  0  0
 19 25  1  0  0  0  0
 20 24  1  0  0  0  0
 21 22  1  0  0  0  0
 22 19  2  0  0  0  0
 22 23  1  0  0  0  0
 23 20  2  0  0  0  0
 24  9  1  0  0  0  0
 25 24  2  0  0  0  0
 26 29  1  6  0  0  0
 26 28  1  0  0  0  0
 27 26  1  0  0  0  0
 27 23  1  1  0  0  0
 27 28  1  0  0  0  0
 29 31  1  0  0  0  0
 30 29  2  0  0  0  0
 33 34  2  0  0  0  0
 33 32  1  0  0  0  0
M  END
>  <MODEL>
7

>  <REMARK>
 VINA RESULT:      -9.4      4.011      8.345
  Name = 
  5 active torsions:
  status: ('A' for Active; 'I' for Inactive)
    1  A    between atoms: N_3  and  C_13
    2  A    between atoms: N_3  and  C_25
    3  A    between atoms: C_7  and  C_11
    4  A    between atoms: C_18  and  C_30
    5  A    between atoms: C_26  and  C_28
                            x       y       z     vdW  Elec       q    Type
                         _______ _______ _______ _____ _____    ______ ____

>  <TORSDO>
F 5

$$$$
=
 OpenBabel10262423283D

 34 39  0  0  1  0  0  0  0  0999 V2000
  188.4450  177.4840  140.6820 C   0  0  0  0  0  0  0  0  0  0  0  0
  189.8300  176.8420  138.5880 C   0  0  0  0  0  0  0  0  0  0  0  0
  187.5130  176.9680  137.7680 C   0  0  0  0  0  3  0  0  0  0  0  0
  186.4030  178.4650  142.3670 C   0  0  0  0  0  3  0  0  0  0  0  0
  188.5420  177.4280  142.0870 C   0  0  0  0  0  3  0  0  0  0  0  0
  186.2500  178.5220  140.9860 C   0  0  0  0  0  0  0  0  0  0  0  0
  184.8550  179.1390  139.1170 C   0  0  0  0  0  3  0  0  0  0  0  0
  185.1010  179.1310  140.4830 C   0  0  0  0  0  3  0  0  0  0  0  0
  187.5290  177.8770  142.9360 C   0  0  0  0  0  0  0  0  0  0  0  0
  186.9060  177.8860  138.7320 C   0  0  0  0  0  0  0  0  0  0  0  0
  187.2280  177.9550  140.1120 C   0  0  0  0  0  0  0  0  0  0  0  0
  185.7370  178.4920  138.2590 C   0  0  0  0  0  3  0  0  0  0  0  0
  191.0960  176.6350  138.0250 C   0  0  0  0  0  3  0  0  0  0  0  0
  192.2670  176.8770  138.7490 C   0  0  0  0  0  0  0  0  0  0  0  0
  192.1730  177.3230  140.0610 C   0  0  0  0  0  3  0  0  0  0  0  0
  188.7280  176.5320  137.7420 N   0  0  0  0  0  0  0  0  0  0  0  0
  190.9210  177.5140  140.6390 C   0  0  0  0  0  3  0  0  0  0  0  0
  189.7210  177.2730  139.9320 C   0  0  0  0  0  0  0  0  0  0  0  0
  186.8440  178.2410  146.6450 C   0  0  0  0  0  3  0  0  0  0  0  0
  188.8000  177.1650  144.9750 C   0  0  0  0  0  3  0  0  0  0  0  0
  188.0480  177.5200  148.6910 C   0  0  0  0  0  1  0  0  0  0  0  0
  187.9610  177.6160  147.2040 C   0  0  0  0  0  0  0  0  0  0  0  0
  188.9640  177.0870  146.3660 C   0  0  0  0  0  0  0  0  0  0  0  0
  187.6800  177.7900  144.4080 C   0  0  0  0  0  0  0  0  0  0  0  0
  186.7050  178.3310  145.2590 C   0  0  0  0  0  3  0  0  0  0  0  0
  191.3100  177.3480  147.1250 C   0  0  2  0  0  3  0  0  0  0  0  0
  190.1600  176.3680  146.9340 C   0  0  2  0  0  3  0  0  0  0  0  0
  191.3300  176.3750  145.9640 C   0  0  0  0  0  2  0  0  0  0  0  0
  192.2080  176.8640  148.2150 C   0  0  0  0  0  0  0  0  0  0  0  0
  192.4350  177.5910  149.2160 O   0  0  0  0  0  1  0  0  0  0  0  0
  192.7580  175.5890  148.1520 O   0  0  0  0  0  0  0  0  0  0  0  0
  193.5580  176.6740  138.1680 N   0  0  0  0  0  2  0  0  0  0  0  0
  193.8290  175.6440  137.2190 C   0  0  0  0  0  3  0  0  0  0  0  0
  193.8360  174.3770  137.6010 C   0  0  0  0  0  2  0  0  0  0  0  0
  1  5  1  0  0  0  0
  2 18  1  0  0  0  0
  3 10  1  0  0  0  0
  4  9  1  0  0  0  0
  5  9  2  0  0  0  0
  6  4  2  0  0  0  0
  7  8  2  0  0  0  0
  8  6  1  0  0  0  0
  9 24  1  0  0  0  0
 10 11  1  0  0  0  0
 11  1  2  0  0  0  0
 11  6  1  0  0  0  0
 12 10  2  0  0  0  0
 12  7  1  0  0  0  0
 13  2  2  0  0  0  0
 13 14  1  0  0  0  0
 14 15  2  0  0  0  0
 15 17  1  0  0  0  0
 16  3  2  0  0  0  0
 16  2  1  0  0  0  0
 18 17  2  0  0  0  0
 18  1  1  0  0  0  0
 19 22  1  0  0  0  0
 20 23  1  0  0  0  0
 22 21  1  0  0  0  0
 23 22  2  0  0  0  0
 24 20  2  0  0  0  0
 24 25  1  0  0  0  0
 25 19  2  0  0  0  0
 26 29  1  1  0  0  0
 27 23  1  6  0  0  0
 27 26  1  0  0  0  0
 28 27  1  0  0  0  0
 28 26  1  0  0  0  0
 29 30  1  0  0  0  0
 31 29  2  0  0  0  0
 32 14  1  0  0  0  0
 33 34  2  0  0  0  0
 33 32  1  0  0  0  0
M  END
>  <MODEL>
8

>  <REMARK>
 VINA RESULT:      -9.3      4.285      7.217
  Name = 
  5 active torsions:
  status: ('A' for Active; 'I' for Inactive)
    1  A    between atoms: N_3  and  C_13
    2  A    between atoms: N_3  and  C_25
    3  A    between atoms: C_7  and  C_11
    4  A    between atoms: C_18  and  C_30
    5  A    between atoms: C_26  and  C_28
                            x       y       z     vdW  Elec       q    Type
                         _______ _______ _______ _____ _____    ______ ____

>  <TORSDO>
F 5

$$$$
=
 OpenBabel10262423283D

 34 39  0  0  1  0  0  0  0  0999 V2000
  188.0310  178.0940  142.4730 C   0  0  0  0  0  0  0  0  0  0  0  0
  190.6000  177.8470  142.2430 C   0  0  0  0  0  0  0  0  0  0  0  0
  190.2460  178.3150  144.6340 C   0  0  0  0  0  3  0  0  0  0  0  0
  185.4110  178.1590  143.5240 C   0  0  0  0  0  3  0  0  0  0  0  0
  186.9090  178.3830  141.6700 C   0  0  0  0  0  3  0  0  0  0  0  0
  186.4900  177.8910  144.3610 C   0  0  0  0  0  0  0  0  0  0  0  0
  187.2590  177.4080  146.5960 C   0  0  0  0  0  3  0  0  0  0  0  0
  186.2180  177.5980  145.6980 C   0  0  0  0  0  3  0  0  0  0  0  0
  185.6110  178.4520  142.1780 C   0  0  0  0  0  0  0  0  0  0  0  0
  188.8760  177.8410  144.8290 C   0  0  0  0  0  0  0  0  0  0  0  0
  187.8320  177.9370  143.8740 C   0  0  0  0  0  0  0  0  0  0  0  0
  188.5720  177.5630  146.1660 C   0  0  0  0  0  3  0  0  0  0  0  0
  191.6900  177.5280  141.4220 C   0  0  0  0  0  3  0  0  0  0  0  0
  191.5100  177.0660  140.1150 C   0  0  0  0  0  0  0  0  0  0  0  0
  190.2210  176.9330  139.6150 C   0  0  0  0  0  3  0  0  0  0  0  0
  190.9350  178.3260  143.5420 N   0  0  0  0  0  0  0  0  0  0  0  0
  189.1300  177.2670  140.4130 C   0  0  0  0  0  3  0  0  0  0  0  0
  189.2830  177.7390  141.7370 C   0  0  0  0  0  0  0  0  0  0  0  0
  183.5850  179.2930  139.0880 C   0  0  0  0  0  3  0  0  0  0  0  0
  183.1620  178.8300  141.8050 C   0  0  0  0  0  3  0  0  0  0  0  0
  181.1640  179.6360  138.6640 C   0  0  0  0  0  1  0  0  0  0  0  0
  182.2890  179.3540  139.6040 C   0  0  0  0  0  0  0  0  0  0  0  0
  182.0690  179.1410  140.9810 C   0  0  0  0  0  0  0  0  0  0  0  0
  184.4650  178.7660  141.2910 C   0  0  0  0  0  0  0  0  0  0  0  0
  184.6650  179.0050  139.9240 C   0  0  0  0  0  3  0  0  0  0  0  0
  180.6940  178.5240  142.9500 C   0  0  2  0  0  3  0  0  0  0  0  0
  180.6800  179.1560  141.5640 C   0  0  2  0  0  3  0  0  0  0  0  0
  180.1450  177.7480  141.7710 C   0  0  0  0  0  2  0  0  0  0  0  0
  179.5740  179.0770  143.7670 C   0  0  0  0  0  0  0  0  0  0  0  0
  179.1800  180.2580  143.5800 O   0  0  0  0  0  0  0  0  0  0  0  0
  178.9310  178.2760  144.7030 O   0  0  0  0  0  1  0  0  0  0  0  0
  192.6240  176.7310  139.2830 N   0  0  0  0  0  2  0  0  0  0  0  0
  192.5010  176.4830  137.8840 C   0  0  0  0  0  3  0  0  0  0  0  0
  193.5240  175.9860  137.2080 C   0  0  0  0  0  2  0  0  0  0  0  0
  1 11  1  0  0  0  0
  2 16  1  0  0  0  0
  3 10  1  0  0  0  0
  4  6  1  0  0  0  0
  5  9  1  0  0  0  0
  5  1  2  0  0  0  0
  6  8  1  0  0  0  0
  8  7  2  0  0  0  0
  9  4  2  0  0  0  0
 10 12  2  0  0  0  0
 11  6  2  0  0  0  0
 11 10  1  0  0  0  0
 12  7  1  0  0  0  0
 13  2  2  0  0  0  0
 14 13  1  0  0  0  0
 15 14  2  0  0  0  0
 15 17  1  0  0  0  0
 16  3  2  0  0  0  0
 17 18  2  0  0  0  0
 18  2  1  0  0  0  0
 18  1  1  0  0  0  0
 19 22  2  0  0  0  0
 19 25  1  0  0  0  0
 21 22  1  0  0  0  0
 22 23  1  0  0  0  0
 23 20  2  0  0  0  0
 24 20  1  0  0  0  0
 24  9  1  0  0  0  0
 25 24  2  0  0  0  0
 26 29  1  1  0  0  0
 27 23  1  6  0  0  0
 27 28  1  0  0  0  0
 27 26  1  0  0  0  0
 28 26  1  0  0  0  0
 29 31  1  0  0  0  0
 30 29  2  0  0  0  0
 32 14  1  0  0  0  0
 33 32  1  0  0  0  0
 34 33  2  0  0  0  0
M  END
>  <MODEL>
9

>  <REMARK>
 VINA RESULT:      -9.3      1.932      2.946
  Name = 
  5 active torsions:
  status: ('A' for Active; 'I' for Inactive)
    1  A    between atoms: N_3  and  C_13
    2  A    between atoms: N_3  and  C_25
    3  A    between atoms: C_7  and  C_11
    4  A    between atoms: C_18  and  C_30
    5  A    between atoms: C_26  and  C_28
                            x       y       z     vdW  Elec       q    Type
                         _______ _______ _______ _____ _____    ______ ____

>  <TORSDO>
F 5

$$$$
