=
 OpenBabel10262420553D

 28 32  0  0  1  0  0  0  0  0999 V2000
  189.4230  178.0900  139.6390 C   0  0  0  0  0  0  0  0  0  0  0  0
  184.2590  178.6540  140.0980 S   0  0  0  0  0  0  0  0  0  0  0  0
  188.5840  177.1200  144.5410 C   0  0  0  0  0  1  0  0  0  0  0  0
  184.1870  178.9540  142.7320 C   0  0  1  0  0  3  0  0  0  0  0  0
  186.4080  178.5750  141.7740 N   0  0  0  0  0  0  0  0  0  0  0  0
  185.1100  179.2420  141.6010 C   0  0  1  0  0  3  0  0  0  0  0  0
  185.8080  177.7930  144.1390 C   0  0  0  0  0  2  0  0  0  0  0  0
  182.9370  178.6590  142.4140 C   0  0  0  0  0  2  0  0  0  0  0  0
  189.1370  178.0050  142.1760 C   0  0  1  0  0  3  0  0  0  0  0  0
  187.2870  178.5380  140.6750 N   0  0  0  0  0  0  0  0  0  0  0  0
  184.7110  178.8480  144.1210 C   0  0  0  0  0  2  0  0  0  0  0  0
  190.9260  176.7900  141.0580 C   0  0  0  0  0  3  0  0  0  0  0  0
  188.1140  177.6760  143.2320 C   0  0  0  0  0  0  0  0  0  0  0  0
  190.2330  177.0280  142.1360 N   0  0  0  0  0  0  0  0  0  0  0  0
  182.6480  178.7240  140.9580 C   0  0  2  0  0  3  0  0  0  0  0  0
  186.8310  178.0430  143.0560 C   0  0  0  0  0  0  0  0  0  0  0  0
  190.5690  177.4160  139.7690 C   0  0  0  0  0  3  0  0  0  0  0  0
  188.5360  178.2110  140.8090 C   0  0  0  0  0  0  0  0  0  0  0  0
  181.7730  177.5510  140.5550 C   0  0  0  0  0  2  0  0  0  0  0  0
  182.5920  176.5160  139.8080 C   0  0  0  0  0  1  0  0  0  0  0  0
  189.0550  178.6770  138.3140 C   0  0  0  0  0  2  0  0  0  0  0  0
  188.7100  177.6030  137.3370 C   0  0  0  0  0  0  0  0  0  0  0  0
  188.0330  175.6150  135.4880 C   0  0  0  0  0  0  0  0  0  0  0  0
  189.4490  177.4640  136.1570 C   0  0  0  0  0  3  0  0  0  0  0  0
  187.6290  176.7510  137.5880 C   0  0  0  0  0  3  0  0  0  0  0  0
  187.2910  175.7570  136.6640 C   0  0  0  0  0  3  0  0  0  0  0  0
  187.7050  174.6530  134.5940 F   0  0  0  0  0  0  0  0  0  0  0  0
  189.1110  176.4690  135.2340 C   0  0  0  0  0  3  0  0  0  0  0  0
  1 17  2  0  0  0  0
  1 18  1  0  0  0  0
  2 15  1  0  0  0  0
  4  8  1  6  0  0  0
  4 11  1  0  0  0  0
  5 16  1  0  0  0  0
  6  2  1  6  0  0  0
  6  5  1  0  0  0  0
  6  4  1  0  0  0  0
  9 18  1  6  0  0  0
  9 13  1  0  0  0  0
 10 18  2  0  0  0  0
 10  5  1  0  0  0  0
 11  7  1  0  0  0  0
 12 14  2  0  0  0  0
 13  3  1  0  0  0  0
 14  9  1  0  0  0  0
 15 19  1  6  0  0  0
 15  8  1  0  0  0  0
 16 13  2  0  0  0  0
 16  7  1  0  0  0  0
 17 12  1  0  0  0  0
 20 19  1  0  0  0  0
 21  1  1  0  0  0  0
 22 25  1  0  0  0  0
 22 21  1  0  0  0  0
 23 26  1  0  0  0  0
 24 22  2  0  0  0  0
 26 25  2  0  0  0  0
 27 23  1  0  0  0  0
 28 23  2  0  0  0  0
 28 24  1  0  0  0  0
M  END
>  <MODEL>
1

>  <REMARK>
 VINA RESULT:      -8.3      0.000      0.000
  Name = 
  3 active torsions:
  status: ('A' for Active; 'I' for Inactive)
    1  A    between atoms: C_1  and  C_2
    2  A    between atoms: C_2  and  C_3
    3  A    between atoms: C_12  and  C_24
                            x       y       z     vdW  Elec       q    Type
                         _______ _______ _______ _____ _____    ______ ____

>  <TORSDO>
F 3

$$$$
=
 OpenBabel10262420553D

 28 32  0  0  1  0  0  0  0  0999 V2000
  184.1700  178.3270  142.6310 C   0  0  0  0  0  0  0  0  0  0  0  0
  189.1960  177.0650  142.0370 S   0  0  0  0  0  0  0  0  0  0  0  0
  186.0790  178.9580  147.2810 C   0  0  0  0  0  1  0  0  0  0  0  0
  189.7390  176.6410  144.5980 C   0  0  1  0  0  3  0  0  0  0  0  0
  187.4480  177.3530  144.1100 N   0  0  0  0  0  0  0  0  0  0  0  0
  188.5820  176.5280  143.6690 C   0  0  1  0  0  3  0  0  0  0  0  0
  188.6020  177.9420  146.3200 C   0  0  0  0  0  2  0  0  0  0  0  0
  190.9320  176.7820  144.0410 C   0  0  0  0  0  2  0  0  0  0  0  0
  184.9570  178.2600  145.0600 C   0  0  1  0  0  3  0  0  0  0  0  0
  186.3850  177.5550  143.2100 N   0  0  0  0  0  0  0  0  0  0  0  0
  189.5170  176.7540  146.0650 C   0  0  0  0  0  2  0  0  0  0  0  0
  183.1690  179.7490  144.3440 C   0  0  0  0  0  3  0  0  0  0  0  0
  186.2020  178.4040  145.8950 C   0  0  0  0  0  0  0  0  0  0  0  0
  184.0200  179.3740  145.2560 N   0  0  0  0  0  0  0  0  0  0  0  0
  190.9180  176.7440  142.5550 C   0  0  2  0  0  3  0  0  0  0  0  0
  187.3630  177.8780  145.4600 C   0  0  0  0  0  0  0  0  0  0  0  0
  183.1760  179.1390  142.9980 C   0  0  0  0  0  3  0  0  0  0  0  0
  185.2440  178.0370  143.5970 C   0  0  0  0  0  0  0  0  0  0  0  0
  191.8500  177.8080  142.0060 C   0  0  0  0  0  2  0  0  0  0  0  0
  192.2070  177.5030  140.5640 C   0  0  0  0  0  1  0  0  0  0  0  0
  184.1870  177.7560  141.2480 C   0  0  0  0  0  2  0  0  0  0  0  0
  183.1940  178.4490  140.3770 C   0  0  0  0  0  0  0  0  0  0  0  0
  181.3440  179.7250  138.7100 C   0  0  0  0  0  0  0  0  0  0  0  0
  181.8570  178.0340  140.3660 C   0  0  0  0  0  3  0  0  0  0  0  0
  183.6040  179.5000  139.5480 C   0  0  0  0  0  3  0  0  0  0  0  0
  182.6800  180.1370  138.7150 C   0  0  0  0  0  3  0  0  0  0  0  0
  180.4490  180.3440  137.9030 F   0  0  0  0  0  0  0  0  0  0  0  0
  180.9330  178.6740  139.5340 C   0  0  0  0  0  3  0  0  0  0  0  0
  1 17  2  0  0  0  0
  1 18  1  0  0  0  0
  2 15  1  0  0  0  0
  4  8  1  6  0  0  0
  4 11  1  0  0  0  0
  5 16  1  0  0  0  0
  6  2  1  6  0  0  0
  6  5  1  0  0  0  0
  6  4  1  0  0  0  0
  9 18  1  6  0  0  0
  9 14  1  0  0  0  0
  9 13  1  0  0  0  0
 10 18  2  0  0  0  0
 10  5  1  0  0  0  0
 11  7  1  0  0  0  0
 12 14  2  0  0  0  0
 13  3  1  0  0  0  0
 15 19  1  6  0  0  0
 15  8  1  0  0  0  0
 16 13  2  0  0  0  0
 16  7  1  0  0  0  0
 17 12  1  0  0  0  0
 20 19  1  0  0  0  0
 21  1  1  0  0  0  0
 22 21  1  0  0  0  0
 23 26  2  0  0  0  0
 23 28  1  0  0  0  0
 24 22  1  0  0  0  0
 25 22  2  0  0  0  0
 26 25  1  0  0  0  0
 27 23  1  0  0  0  0
 28 24  2  0  0  0  0
M  END
>  <MODEL>
2

>  <REMARK>
 VINA RESULT:      -8.0      3.818      6.797
  Name = 
  3 active torsions:
  status: ('A' for Active; 'I' for Inactive)
    1  A    between atoms: C_1  and  C_2
    2  A    between atoms: C_2  and  C_3
    3  A    between atoms: C_12  and  C_24
                            x       y       z     vdW  Elec       q    Type
                         _______ _______ _______ _____ _____    ______ ____

>  <TORSDO>
F 3

$$$$
=
 OpenBabel10262420553D

 28 32  0  0  1  0  0  0  0  0999 V2000
  187.3450  177.8780  143.2880 C   0  0  0  0  0  0  0  0  0  0  0  0
  190.5230  176.5670  139.3660 S   0  0  0  0  0  0  0  0  0  0  0  0
  184.5940  178.9340  139.1660 C   0  0  0  0  0  1  0  0  0  0  0  0
  189.2930  177.9470  137.4630 C   0  0  1  0  0  3  0  0  0  0  0  0
  188.2650  178.0630  139.6820 N   0  0  0  0  0  0  0  0  0  0  0  0
  189.5280  178.0330  138.9300 C   0  0  1  0  0  3  0  0  0  0  0  0
  186.8730  178.2440  137.5390 C   0  0  0  0  0  2  0  0  0  0  0  0
  190.0480  177.0900  136.7940 C   0  0  0  0  0  2  0  0  0  0  0  0
  186.0740  178.8190  141.2820 C   0  0  1  0  0  3  0  0  0  0  0  0
  188.3200  177.8830  141.0770 N   0  0  0  0  0  0  0  0  0  0  0  0
  188.1540  178.6740  136.8400 C   0  0  0  0  0  2  0  0  0  0  0  0
  184.9080  178.0220  143.2640 C   0  0  0  0  0  3  0  0  0  0  0  0
  185.9180  178.6280  139.7960 C   0  0  0  0  0  0  0  0  0  0  0  0
  184.8700  178.4260  142.0260 N   0  0  0  0  0  0  0  0  0  0  0  0
  191.0600  176.3890  137.6280 C   0  0  2  0  0  3  0  0  0  0  0  0
  186.9990  178.3590  139.0390 C   0  0  0  0  0  0  0  0  0  0  0  0
  186.1940  177.8240  143.9630 C   0  0  0  0  0  3  0  0  0  0  0  0
  187.3060  178.1540  141.8410 C   0  0  0  0  0  0  0  0  0  0  0  0
  191.1250  174.9260  137.2340 C   0  0  0  0  0  2  0  0  0  0  0  0
  189.7330  174.3240  137.2130 C   0  0  0  0  0  1  0  0  0  0  0  0
  188.6350  177.6280  144.0020 C   0  0  0  0  0  2  0  0  0  0  0  0
  188.4400  177.6770  145.4800 C   0  0  0  0  0  0  0  0  0  0  0  0
  188.0960  177.8040  148.2550 C   0  0  0  0  0  0  0  0  0  0  0  0
  187.2830  178.2530  146.0170 C   0  0  0  0  0  3  0  0  0  0  0  0
  189.4260  177.1700  146.3330 C   0  0  0  0  0  3  0  0  0  0  0  0
  189.2550  177.2330  147.7190 C   0  0  0  0  0  3  0  0  0  0  0  0
  187.9300  177.8650  149.5970 F   0  0  0  0  0  0  0  0  0  0  0  0
  187.1120  178.3150  147.4040 C   0  0  0  0  0  3  0  0  0  0  0  0
  1 17  2  0  0  0  0
  1 21  1  0  0  0  0
  3 13  1  0  0  0  0
  4  8  1  1  0  0  0
  4  6  1  0  0  0  0
  5 10  1  0  0  0  0
  6  2  1  1  0  0  0
  6  5  1  0  0  0  0
  7 16  1  0  0  0  0
  8 15  1  0  0  0  0
  9 13  1  6  0  0  0
  9 18  1  0  0  0  0
  9 14  1  0  0  0  0
 10 18  2  0  0  0  0
 11  4  1  0  0  0  0
 11  7  1  0  0  0  0
 12 17  1  0  0  0  0
 14 12  2  0  0  0  0
 15 19  1  6  0  0  0
 15  2  1  0  0  0  0
 16  5  1  0  0  0  0
 16 13  2  0  0  0  0
 18  1  1  0  0  0  0
 20 19  1  0  0  0  0
 21 22  1  0  0  0  0
 22 24  2  0  0  0  0
 22 25  1  0  0  0  0
 23 27  1  0  0  0  0
 24 28  1  0  0  0  0
 25 26  2  0  0  0  0
 26 23  1  0  0  0  0
 28 23  2  0  0  0  0
M  END
>  <MODEL>
3

>  <REMARK>
 VINA RESULT:      -7.9      3.704      7.971
  Name = 
  3 active torsions:
  status: ('A' for Active; 'I' for Inactive)
    1  A    between atoms: C_1  and  C_2
    2  A    between atoms: C_2  and  C_3
    3  A    between atoms: C_12  and  C_24
                            x       y       z     vdW  Elec       q    Type
                         _______ _______ _______ _____ _____    ______ ____

>  <TORSDO>
F 3

$$$$
=
 OpenBabel10262420553D

 28 32  0  0  1  0  0  0  0  0999 V2000
  189.6050  177.5120  141.0550 C   0  0  0  0  0  0  0  0  0  0  0  0
  184.5300  178.5950  140.5360 S   0  0  0  0  0  0  0  0  0  0  0  0
  187.8480  177.1280  145.7920 C   0  0  0  0  0  1  0  0  0  0  0  0
  184.0470  179.1670  143.0800 C   0  0  1  0  0  3  0  0  0  0  0  0
  186.3430  178.4890  142.5690 N   0  0  0  0  0  0  0  0  0  0  0  0
  185.1740  179.2520  142.1120 C   0  0  1  0  0  3  0  0  0  0  0  0
  185.2710  178.0110  144.8460 C   0  0  0  0  0  2  0  0  0  0  0  0
  182.8440  178.9590  142.5700 C   0  0  0  0  0  2  0  0  0  0  0  0
  188.8860  177.7120  143.4980 C   0  0  1  0  0  3  0  0  0  0  0  0
  187.3860  178.2590  141.6520 N   0  0  0  0  0  0  0  0  0  0  0  0
  184.3140  179.1550  144.5440 C   0  0  0  0  0  2  0  0  0  0  0  0
  190.6950  176.2300  142.8240 C   0  0  0  0  0  3  0  0  0  0  0  0
  187.6690  177.5890  144.3780 C   0  0  0  0  0  0  0  0  0  0  0  0
  189.8600  176.6390  143.7360 N   0  0  0  0  0  0  0  0  0  0  0  0
  182.8140  178.9020  141.0850 C   0  0  2  0  0  3  0  0  0  0  0  0
  186.4820  178.0530  143.9460 C   0  0  0  0  0  0  0  0  0  0  0  0
  190.6310  176.7520  141.4430 C   0  0  0  0  0  3  0  0  0  0  0  0
  188.5510  177.8330  142.0330 C   0  0  0  0  0  0  0  0  0  0  0  0
  181.8980  177.7800  140.6330 C   0  0  0  0  0  2  0  0  0  0  0  0
  182.6790  176.7480  139.8440 C   0  0  0  0  0  1  0  0  0  0  0  0
  189.5320  177.9930  139.6410 C   0  0  0  0  0  2  0  0  0  0  0  0
  189.9810  176.9290  138.6970 C   0  0  0  0  0  0  0  0  0  0  0  0
  190.8330  174.9070  136.9600 C   0  0  0  0  0  0  0  0  0  0  0  0
  189.0430  176.0880  138.0870 C   0  0  0  0  0  3  0  0  0  0  0  0
  191.3460  176.7530  138.4400 C   0  0  0  0  0  3  0  0  0  0  0  0
  191.7710  175.7430  137.5720 C   0  0  0  0  0  3  0  0  0  0  0  0
  191.2450  173.9290  136.1190 F   0  0  0  0  0  0  0  0  0  0  0  0
  189.4700  175.0780  137.2190 C   0  0  0  0  0  3  0  0  0  0  0  0
  1 17  2  0  0  0  0
  1 18  1  0  0  0  0
  2 15  1  0  0  0  0
  4  8  1  6  0  0  0
  4 11  1  0  0  0  0
  5 16  1  0  0  0  0
  6  2  1  6  0  0  0
  6  5  1  0  0  0  0
  6  4  1  0  0  0  0
  9 18  1  6  0  0  0
  9 14  1  0  0  0  0
  9 13  1  0  0  0  0
 10 18  2  0  0  0  0
 10  5  1  0  0  0  0
 11  7  1  0  0  0  0
 12 14  2  0  0  0  0
 13  3  1  0  0  0  0
 15 19  1  1  0  0  0
 15  8  1  0  0  0  0
 16 13  2  0  0  0  0
 16  7  1  0  0  0  0
 17 12  1  0  0  0  0
 20 19  1  0  0  0  0
 21  1  1  0  0  0  0
 22 21  1  0  0  0  0
 23 28  2  0  0  0  0
 23 26  1  0  0  0  0
 24 22  2  0  0  0  0
 25 22  1  0  0  0  0
 26 25  2  0  0  0  0
 27 23  1  0  0  0  0
 28 24  1  0  0  0  0
M  END
>  <MODEL>
4

>  <REMARK>
 VINA RESULT:      -7.8      1.494      1.923
  Name = 
  3 active torsions:
  status: ('A' for Active; 'I' for Inactive)
    1  A    between atoms: C_1  and  C_2
    2  A    between atoms: C_2  and  C_3
    3  A    between atoms: C_12  and  C_24
                            x       y       z     vdW  Elec       q    Type
                         _______ _______ _______ _____ _____    ______ ____

>  <TORSDO>
F 3

$$$$
=
 OpenBabel10262420553D

 28 32  0  0  1  0  0  0  0  0999 V2000
  189.8830  177.3720  139.3270 C   0  0  0  0  0  0  0  0  0  0  0  0
  189.6510  177.0260  144.5250 S   0  0  0  0  0  0  0  0  0  0  0  0
  185.3270  179.3030  140.4130 C   0  0  0  0  0  1  0  0  0  0  0  0
  187.0190  177.2500  144.7580 C   0  0  1  0  0  3  0  0  0  0  0  0
  187.8900  177.3840  142.4740 N   0  0  0  0  0  0  0  0  0  0  0  0
  188.0120  176.7250  143.7830 C   0  0  1  0  0  3  0  0  0  0  0  0
  185.7650  178.6280  143.1820 C   0  0  0  0  0  2  0  0  0  0  0  0
  187.4670  177.5060  145.9780 C   0  0  0  0  0  2  0  0  0  0  0  0
  187.4350  177.9590  139.7550 C   0  0  1  0  0  3  0  0  0  0  0  0
  188.9180  177.1840  141.5330 N   0  0  0  0  0  0  0  0  0  0  0  0
  185.6470  177.6150  144.3120 C   0  0  0  0  0  2  0  0  0  0  0  0
  188.6520  178.8900  137.8640 C   0  0  0  0  0  3  0  0  0  0  0  0
  186.5300  178.5120  140.8260 C   0  0  0  0  0  0  0  0  0  0  0  0
  187.5950  178.8850  138.6260 N   0  0  0  0  0  0  0  0  0  0  0  0
  188.8980  177.1620  146.1850 C   0  0  2  0  0  3  0  0  0  0  0  0
  186.7110  178.1470  142.1080 C   0  0  0  0  0  0  0  0  0  0  0  0
  189.8160  178.0320  138.1680 C   0  0  0  0  0  3  0  0  0  0  0  0
  188.7710  177.5030  140.2840 C   0  0  0  0  0  0  0  0  0  0  0  0
  189.5750  178.2530  146.9930 C   0  0  0  0  0  2  0  0  0  0  0  0
  189.0550  178.2520  148.4180 C   0  0  0  0  0  1  0  0  0  0  0  0
  191.0900  176.5450  139.6380 C   0  0  0  0  0  2  0  0  0  0  0  0
  191.7000  176.0070  138.3880 C   0  0  0  0  0  0  0  0  0  0  0  0
  192.8680  174.9700  136.0660 C   0  0  0  0  0  0  0  0  0  0  0  0
  191.0440  175.0080  137.6590 C   0  0  0  0  0  3  0  0  0  0  0  0
  192.9440  176.4810  137.9560 C   0  0  0  0  0  3  0  0  0  0  0  0
  193.5280  175.9640  136.7960 C   0  0  0  0  0  3  0  0  0  0  0  0
  193.4340  174.4690  134.9420 F   0  0  0  0  0  0  0  0  0  0  0  0
  191.6280  174.4920  136.4980 C   0  0  0  0  0  3  0  0  0  0  0  0
  1 21  1  0  0  0  0
  1 18  1  0  0  0  0
  2 15  1  0  0  0  0
  3 13  1  0  0  0  0
  4 11  1  6  0  0  0
  4  8  1  0  0  0  0
  5  6  1  0  0  0  0
  6  2  1  1  0  0  0
  6  4  1  0  0  0  0
  7 11  1  0  0  0  0
  8 15  1  0  0  0  0
  9 14  1  6  0  0  0
  9 18  1  0  0  0  0
  9 13  1  0  0  0  0
 10  5  1  0  0  0  0
 12 17  1  0  0  0  0
 12 14  2  0  0  0  0
 13 16  2  0  0  0  0
 15 19  1  1  0  0  0
 16  5  1  0  0  0  0
 16  7  1  0  0  0  0
 17  1  2  0  0  0  0
 18 10  2  0  0  0  0
 19 20  1  0  0  0  0
 22 21  1  0  0  0  0
 23 28  2  0  0  0  0
 23 26  1  0  0  0  0
 24 22  2  0  0  0  0
 25 22  1  0  0  0  0
 26 25  2  0  0  0  0
 27 23  1  0  0  0  0
 28 24  1  0  0  0  0
M  END
>  <MODEL>
5

>  <REMARK>
 VINA RESULT:      -7.3      2.780      4.976
  Name = 
  3 active torsions:
  status: ('A' for Active; 'I' for Inactive)
    1  A    between atoms: C_1  and  C_2
    2  A    between atoms: C_2  and  C_3
    3  A    between atoms: C_12  and  C_24
                            x       y       z     vdW  Elec       q    Type
                         _______ _______ _______ _____ _____    ______ ____

>  <TORSDO>
F 3

$$$$
=
 OpenBabel10262420553D

 28 32  0  0  1  0  0  0  0  0999 V2000
  187.0140  178.2340  143.0780 C   0  0  0  0  0  0  0  0  0  0  0  0
  184.8590  177.8560  138.3440 S   0  0  0  0  0  0  0  0  0  0  0  0
  182.0670  178.8070  144.0100 C   0  0  0  0  0  1  0  0  0  0  0  0
  182.5400  178.9980  138.9400 C   0  0  1  0  0  3  0  0  0  0  0  0
  184.1170  178.7800  140.8000 N   0  0  0  0  0  0  0  0  0  0  0  0
  183.9630  179.0730  139.3680 C   0  0  1  0  0  3  0  0  0  0  0  0
  181.5820  178.7280  141.1680 C   0  0  0  0  0  2  0  0  0  0  0  0
  182.2980  178.3660  137.8020 C   0  0  0  0  0  2  0  0  0  0  0  0
  184.6100  178.9450  143.5680 C   0  0  1  0  0  3  0  0  0  0  0  0
  185.4150  178.5580  141.2960 N   0  0  0  0  0  0  0  0  0  0  0  0
  181.4570  179.4700  139.8450 C   0  0  0  0  0  2  0  0  0  0  0  0
  185.9680  177.8170  145.2440 C   0  0  0  0  0  3  0  0  0  0  0  0
  183.2080  178.7860  143.0390 C   0  0  0  0  0  0  0  0  0  0  0  0
  184.8060  178.2550  144.8500 N   0  0  0  0  0  0  0  0  0  0  0  0
  183.5170  177.8810  137.1040 C   0  0  2  0  0  3  0  0  0  0  0  0
  182.9880  178.8050  141.7120 C   0  0  0  0  0  0  0  0  0  0  0  0
  187.1500  177.8900  144.3610 C   0  0  0  0  0  3  0  0  0  0  0  0
  185.6700  178.5560  142.5690 C   0  0  0  0  0  0  0  0  0  0  0  0
  183.2720  176.4890  136.5510 C   0  0  0  0  0  2  0  0  0  0  0  0
  183.3210  175.4640  137.6670 C   0  0  0  0  0  1  0  0  0  0  0  0
  188.2150  178.2570  142.1860 C   0  0  0  0  0  2  0  0  0  0  0  0
  189.3370  177.4820  142.7900 C   0  0  0  0  0  0  0  0  0  0  0  0
  191.4210  176.0270  143.9610 C   0  0  0  0  0  0  0  0  0  0  0  0
  189.3990  176.0930  142.6290 C   0  0  0  0  0  3  0  0  0  0  0  0
  190.3160  178.1400  143.5430 C   0  0  0  0  0  3  0  0  0  0  0  0
  191.3570  177.4140  144.1280 C   0  0  0  0  0  3  0  0  0  0  0  0
  192.4290  175.3230  144.5280 F   0  0  0  0  0  0  0  0  0  0  0  0
  190.4410  175.3670  143.2130 C   0  0  0  0  0  3  0  0  0  0  0  0
  1 17  2  0  0  0  0
  4  8  1  1  0  0  0
  4  6  1  0  0  0  0
  4 11  1  0  0  0  0
  5 10  1  0  0  0  0
  5 16  1  0  0  0  0
  6  2  1  6  0  0  0
  6  5  1  0  0  0  0
  7 16  1  0  0  0  0
  9 18  1  6  0  0  0
  9 14  1  0  0  0  0
 10 18  2  0  0  0  0
 11  7  1  0  0  0  0
 13  9  1  0  0  0  0
 13  3  1  0  0  0  0
 14 12  2  0  0  0  0
 15 19  1  1  0  0  0
 15  8  1  0  0  0  0
 15  2  1  0  0  0  0
 16 13  2  0  0  0  0
 17 12  1  0  0  0  0
 18  1  1  0  0  0  0
 19 20  1  0  0  0  0
 21 22  1  0  0  0  0
 21  1  1  0  0  0  0
 22 25  1  0  0  0  0
 23 26  1  0  0  0  0
 23 27  1  0  0  0  0
 24 22  2  0  0  0  0
 24 28  1  0  0  0  0
 25 26  2  0  0  0  0
 28 23  2  0  0  0  0
M  END
>  <MODEL>
6

>  <REMARK>
 VINA RESULT:      -7.3      3.649      5.651
  Name = 
  3 active torsions:
  status: ('A' for Active; 'I' for Inactive)
    1  A    between atoms: C_1  and  C_2
    2  A    between atoms: C_2  and  C_3
    3  A    between atoms: C_12  and  C_24
                            x       y       z     vdW  Elec       q    Type
                         _______ _______ _______ _____ _____    ______ ____

>  <TORSDO>
F 3

$$$$
=
 OpenBabel10262420553D

 28 32  0  0  1  0  0  0  0  0999 V2000
  189.5820  177.2590  143.0710 C   0  0  0  0  0  0  0  0  0  0  0  0
  190.9160  176.3550  138.1100 S   0  0  0  0  0  0  0  0  0  0  0  0
  185.4440  178.6320  140.4900 C   0  0  0  0  0  1  0  0  0  0  0  0
  189.0610  177.8780  136.9820 C   0  0  1  0  0  3  0  0  0  0  0  0
  189.0000  177.7800  139.4270 N   0  0  0  0  0  0  0  0  0  0  0  0
  189.8600  177.8370  138.2370 C   0  0  1  0  0  3  0  0  0  0  0  0
  186.8760  178.1270  138.0380 C   0  0  0  0  0  2  0  0  0  0  0  0
  189.4710  177.0960  135.9960 C   0  0  0  0  0  2  0  0  0  0  0  0
  187.6390  178.3540  141.8250 C   0  0  1  0  0  3  0  0  0  0  0  0
  189.6000  177.4770  140.6650 N   0  0  0  0  0  0  0  0  0  0  0  0
  187.7830  178.6390  136.9290 C   0  0  0  0  0  2  0  0  0  0  0  0
  187.3390  177.3640  144.0290 C   0  0  0  0  0  3  0  0  0  0  0  0
  186.9020  178.2930  140.5120 C   0  0  0  0  0  0  0  0  0  0  0  0
  186.8220  177.8760  142.9480 N   0  0  0  0  0  0  0  0  0  0  0  0
  190.7160  176.3410  136.2940 C   0  0  2  0  0  3  0  0  0  0  0  0
  187.5890  178.1100  139.3690 C   0  0  0  0  0  0  0  0  0  0  0  0
  188.7930  177.1270  144.1400 C   0  0  0  0  0  3  0  0  0  0  0  0
  188.9780  177.6620  141.7890 C   0  0  0  0  0  0  0  0  0  0  0  0
  190.5900  174.9200  135.7790 C   0  0  0  0  0  2  0  0  0  0  0  0
  190.0860  174.0050  136.8780 C   0  0  0  0  0  1  0  0  0  0  0  0
  191.0450  176.9680  143.1890 C   0  0  0  0  0  2  0  0  0  0  0  0
  191.3830  176.5090  144.5680 C   0  0  0  0  0  0  0  0  0  0  0  0
  192.0570  175.6660  147.1490 C   0  0  0  0  0  0  0  0  0  0  0  0
  191.0540  177.3030  145.6730 C   0  0  0  0  0  3  0  0  0  0  0  0
  192.0550  175.2960  144.7560 C   0  0  0  0  0  3  0  0  0  0  0  0
  192.3910  174.8740  146.0460 C   0  0  0  0  0  3  0  0  0  0  0  0
  192.3840  175.2570  148.3980 F   0  0  0  0  0  0  0  0  0  0  0  0
  191.3900  176.8800  146.9630 C   0  0  0  0  0  3  0  0  0  0  0  0
  1 21  1  0  0  0  0
  1 17  2  0  0  0  0
  3 13  1  0  0  0  0
  4  8  1  1  0  0  0
  4  6  1  0  0  0  0
  5 10  1  0  0  0  0
  6  2  1  6  0  0  0
  6  5  1  0  0  0  0
  7 16  1  0  0  0  0
  8 15  1  0  0  0  0
  9 13  1  6  0  0  0
  9 14  1  0  0  0  0
 10 18  2  0  0  0  0
 11  4  1  0  0  0  0
 11  7  1  0  0  0  0
 12 17  1  0  0  0  0
 14 12  2  0  0  0  0
 15 19  1  1  0  0  0
 15  2  1  0  0  0  0
 16  5  1  0  0  0  0
 16 13  2  0  0  0  0
 18  9  1  0  0  0  0
 18  1  1  0  0  0  0
 19 20  1  0  0  0  0
 21 22  1  0  0  0  0
 22 25  2  0  0  0  0
 22 24  1  0  0  0  0
 23 27  1  0  0  0  0
 24 28  2  0  0  0  0
 25 26  1  0  0  0  0
 26 23  2  0  0  0  0
 28 23  1  0  0  0  0
M  END
>  <MODEL>
7

>  <REMARK>
 VINA RESULT:      -7.3      3.800      7.629
  Name = 
  3 active torsions:
  status: ('A' for Active; 'I' for Inactive)
    1  A    between atoms: C_1  and  C_2
    2  A    between atoms: C_2  and  C_3
    3  A    between atoms: C_12  and  C_24
                            x       y       z     vdW  Elec       q    Type
                         _______ _______ _______ _____ _____    ______ ____

>  <TORSDO>
F 3

$$$$
=
 OpenBabel10262420553D

 28 32  0  0  1  0  0  0  0  0999 V2000
  184.5580  178.9760  141.0920 C   0  0  0  0  0  0  0  0  0  0  0  0
  189.2740  177.9840  139.0980 S   0  0  0  0  0  0  0  0  0  0  0  0
  183.4990  176.6830  136.7010 C   0  0  0  0  0  1  0  0  0  0  0  0
  188.5050  177.6220  136.5860 C   0  0  1  0  0  3  0  0  0  0  0  0
  186.7090  178.1000  138.1790 N   0  0  0  0  0  0  0  0  0  0  0  0
  188.0890  178.4100  137.7770 C   0  0  1  0  0  3  0  0  0  0  0  0
  186.3200  176.6480  136.1040 C   0  0  0  0  0  2  0  0  0  0  0  0
  189.7130  177.0810  136.6280 C   0  0  0  0  0  2  0  0  0  0  0  0
  183.9500  178.2180  138.7300 C   0  0  1  0  0  3  0  0  0  0  0  0
  186.2630  178.5660  139.4300 N   0  0  0  0  0  0  0  0  0  0  0  0
  187.5330  177.3370  135.4960 C   0  0  0  0  0  2  0  0  0  0  0  0
  182.4520  177.8380  140.6110 C   0  0  0  0  0  3  0  0  0  0  0  0
  184.4770  177.3820  137.5930 C   0  0  0  0  0  0  0  0  0  0  0  0
  182.7720  177.6150  139.3680 N   0  0  0  0  0  0  0  0  0  0  0  0
  190.4840  177.4080  137.8560 C   0  0  2  0  0  3  0  0  0  0  0  0
  185.7880  177.4160  137.2900 C   0  0  0  0  0  0  0  0  0  0  0  0
  183.3330  178.6290  141.4950 C   0  0  0  0  0  3  0  0  0  0  0  0
  185.0050  178.5700  139.7480 C   0  0  0  0  0  0  0  0  0  0  0  0
  191.2110  176.1710  138.3490 C   0  0  0  0  0  2  0  0  0  0  0  0
  192.7110  176.3780  138.2800 C   0  0  0  0  0  1  0  0  0  0  0  0
  185.4540  179.7370  142.0180 C   0  0  0  0  0  2  0  0  0  0  0  0
  185.7470  178.9400  143.2440 C   0  0  0  0  0  0  0  0  0  0  0  0
  186.3320  177.4690  145.5520 C   0  0  0  0  0  0  0  0  0  0  0  0
  185.1340  179.2690  144.4590 C   0  0  0  0  0  3  0  0  0  0  0  0
  186.6570  177.8780  143.1880 C   0  0  0  0  0  3  0  0  0  0  0  0
  186.9490  177.1430  144.3400 C   0  0  0  0  0  3  0  0  0  0  0  0
  186.6150  176.7570  146.6680 F   0  0  0  0  0  0  0  0  0  0  0  0
  185.4270  178.5320  145.6120 C   0  0  0  0  0  3  0  0  0  0  0  0
  1 17  2  0  0  0  0
  1 21  1  0  0  0  0
  3 13  1  0  0  0  0
  4 11  1  1  0  0  0
  4  8  1  0  0  0  0
  4  6  1  0  0  0  0
  5 10  1  0  0  0  0
  6  5  1  0  0  0  0
  6  2  1  1  0  0  0
  7 16  1  0  0  0  0
  8 15  1  0  0  0  0
  9 13  1  6  0  0  0
  9 14  1  0  0  0  0
  9 18  1  0  0  0  0
 10 18  2  0  0  0  0
 11  7  1  0  0  0  0
 12 17  1  0  0  0  0
 14 12  2  0  0  0  0
 15 19  1  1  0  0  0
 15  2  1  0  0  0  0
 16 13  2  0  0  0  0
 16  5  1  0  0  0  0
 18  1  1  0  0  0  0
 20 19  1  0  0  0  0
 21 22  1  0  0  0  0
 22 24  1  0  0  0  0
 23 28  1  0  0  0  0
 23 27  1  0  0  0  0
 24 28  2  0  0  0  0
 25 22  2  0  0  0  0
 25 26  1  0  0  0  0
 26 23  2  0  0  0  0
M  END
>  <MODEL>
8

>  <REMARK>
 VINA RESULT:      -7.3      3.136      7.824
  Name = 
  3 active torsions:
  status: ('A' for Active; 'I' for Inactive)
    1  A    between atoms: C_1  and  C_2
    2  A    between atoms: C_2  and  C_3
    3  A    between atoms: C_12  and  C_24
                            x       y       z     vdW  Elec       q    Type
                         _______ _______ _______ _____ _____    ______ ____

>  <TORSDO>
F 3

$$$$
=
 OpenBabel10262420553D

 28 32  0  0  1  0  0  0  0  0999 V2000
  188.0380  177.8770  144.6350 C   0  0  0  0  0  0  0  0  0  0  0  0
  187.7970  177.5180  139.4370 S   0  0  0  0  0  0  0  0  0  0  0  0
  183.1260  178.6310  143.6490 C   0  0  0  0  0  1  0  0  0  0  0  0
  185.4670  178.7460  139.1250 C   0  0  1  0  0  3  0  0  0  0  0  0
  186.2250  178.4960  141.4390 N   0  0  0  0  0  0  0  0  0  0  0  0
  186.6290  178.7770  140.0540 C   0  0  1  0  0  3  0  0  0  0  0  0
  183.7370  178.5360  140.8310 C   0  0  0  0  0  2  0  0  0  0  0  0
  185.6460  178.1090  137.9780 C   0  0  0  0  0  2  0  0  0  0  0  0
  185.6530  178.6750  144.1910 C   0  0  1  0  0  3  0  0  0  0  0  0
  187.2350  178.2350  142.3850 N   0  0  0  0  0  0  0  0  0  0  0  0
  184.1430  179.2660  139.5600 C   0  0  0  0  0  2  0  0  0  0  0  0
  186.2430  177.5210  146.2510 C   0  0  0  0  0  3  0  0  0  0  0  0
  184.5460  178.5590  143.1760 C   0  0  0  0  0  0  0  0  0  0  0  0
  185.3300  177.9940  145.4510 N   0  0  0  0  0  0  0  0  0  0  0  0
  187.0190  177.5750  137.7850 C   0  0  2  0  0  3  0  0  0  0  0  0
  184.8390  178.5700  141.8620 C   0  0  0  0  0  0  0  0  0  0  0  0
  187.6720  177.5430  145.8750 C   0  0  0  0  0  3  0  0  0  0  0  0
  186.9950  178.2390  143.6600 C   0  0  0  0  0  0  0  0  0  0  0  0
  186.9480  176.1860  137.1780 C   0  0  0  0  0  2  0  0  0  0  0  0
  185.5110  175.8230  136.8590 C   0  0  0  0  0  1  0  0  0  0  0  0
  189.4850  177.8470  144.2570 C   0  0  0  0  0  2  0  0  0  0  0  0
  190.3080  177.2680  145.3580 C   0  0  0  0  0  0  0  0  0  0  0  0
  191.8200  176.1510  147.4320 C   0  0  0  0  0  0  0  0  0  0  0  0
  191.3010  176.3230  145.0720 C   0  0  0  0  0  3  0  0  0  0  0  0
  190.0690  177.6470  146.6840 C   0  0  0  0  0  3  0  0  0  0  0  0
  190.8240  177.0900  147.7200 C   0  0  0  0  0  3  0  0  0  0  0  0
  192.5510  175.6110  148.4350 F   0  0  0  0  0  0  0  0  0  0  0  0
  192.0560  175.7670  146.1090 C   0  0  0  0  0  3  0  0  0  0  0  0
  1 17  2  0  0  0  0
  4  8  1  1  0  0  0
  4 11  1  0  0  0  0
  4  6  1  0  0  0  0
  5 16  1  0  0  0  0
  5 10  1  0  0  0  0
  6  2  1  6  0  0  0
  6  5  1  0  0  0  0
  7 16  1  0  0  0  0
  9 13  1  6  0  0  0
  9 14  1  0  0  0  0
 10 18  2  0  0  0  0
 11  7  1  0  0  0  0
 13  3  1  0  0  0  0
 14 12  2  0  0  0  0
 15 19  1  1  0  0  0
 15  8  1  0  0  0  0
 15  2  1  0  0  0  0
 16 13  2  0  0  0  0
 17 12  1  0  0  0  0
 18  9  1  0  0  0  0
 18  1  1  0  0  0  0
 20 19  1  0  0  0  0
 21  1  1  0  0  0  0
 21 22  1  0  0  0  0
 22 25  1  0  0  0  0
 23 26  1  0  0  0  0
 23 27  1  0  0  0  0
 24 22  2  0  0  0  0
 24 28  1  0  0  0  0
 25 26  2  0  0  0  0
 28 23  2  0  0  0  0
M  END
>  <MODEL>
9

>  <REMARK>
 VINA RESULT:      -7.2      3.576      6.920
  Name = 
  3 active torsions:
  status: ('A' for Active; 'I' for Inactive)
    1  A    between atoms: C_1  and  C_2
    2  A    between atoms: C_2  and  C_3
    3  A    between atoms: C_12  and  C_24
                            x       y       z     vdW  Elec       q    Type
                         _______ _______ _______ _____ _____    ______ ____

>  <TORSDO>
F 3

$$$$
