=
 OpenBabel10262421363D

 32 35  0  0  1  0  0  0  0  0999 V2000
  189.8340  178.2150  144.8780 C   0  0  2  0  0  3  0  0  0  0  0  0
  191.2100  177.1350  140.1260 C   0  0  0  0  0  0  0  0  0  0  0  0
  191.1910  177.4300  142.5270 C   0  0  0  0  0  0  0  0  0  0  0  0
  189.1090  177.5260  141.2850 C   0  0  0  0  0  3  0  0  0  0  0  0
  189.1200  177.8550  143.6920 O   0  0  0  0  0  0  0  0  0  0  0  0
  189.1540  178.5730  138.0960 C   0  0  0  0  0  1  0  0  0  0  0  0
  189.8120  177.2920  140.0990 C   0  0  0  0  0  0  0  0  0  0  0  0
  189.0830  177.2230  138.7950 C   0  0  2  0  0  3  0  0  0  0  0  0
  191.2150  176.0900  137.8100 C   0  0  1  0  0  3  0  0  0  0  0  0
  191.1300  177.4070  144.9840 C   0  0  0  0  0  2  0  0  0  0  0  0
  189.8000  177.6030  142.4970 C   0  0  0  0  0  0  0  0  0  0  0  0
  191.8560  177.4760  143.7550 O   0  0  0  0  0  0  0  0  0  0  0  0
  189.6770  176.0840  137.9500 C   0  0  2  0  0  3  0  0  0  0  0  0
  191.8980  177.2170  141.3410 C   0  0  0  0  0  3  0  0  0  0  0  0
  191.9720  176.9430  138.8480 C   0  0  0  0  0  2  0  0  0  0  0  0
  189.0350  177.9820  145.9970 O   0  0  0  0  0  0  0  0  0  0  0  0
  187.7940  177.6090  145.4780 C   0  0  0  0  0  2  0  0  0  0  0  0
  186.7090  177.8080  146.5200 C   0  0  0  0  0  2  0  0  0  0  0  0
  185.6510  178.2330  144.1530 C   0  0  0  0  0  1  0  0  0  0  0  0
  185.3580  178.8200  145.8450 S   0  0  0  0  0  0  0  0  0  0  0  0
  188.9300  175.8120  136.6420 C   0  0  0  0  0  2  0  0  0  0  0  0
  186.3210  175.8880  136.4750 C   0  0  0  0  0  1  0  0  0  0  0  0
  187.5660  174.6200  136.8380 S   0  0  0  0  0  0  0  0  0  0  0  0
  191.7900  174.6750  137.6830 C   0  0  0  0  0  2  0  0  0  0  0  0
  193.0830  174.6500  136.9860 N   0  0  0  0  0  0  0  0  0  0  0  0
  194.2360  176.5140  135.7950 C   0  0  0  0  0  2  0  0  0  0  0  0
  194.2410  174.6080  134.8160 C   0  0  0  0  0  2  0  0  0  0  0  0
  193.2590  175.3490  135.7060 C   0  0  0  0  0  3  0  0  0  0  0  0
  195.2060  175.7730  134.8980 C   0  0  0  0  0  2  0  0  0  0  0  0
  195.0720  174.0840  138.3010 C   0  0  0  0  0  3  0  0  0  0  0  0
  194.1460  173.7720  137.3940 C   0  0  0  0  0  3  0  0  0  0  0  0
  195.0610  175.2920  138.9880 O   0  0  0  0  0  1  0  0  0  0  0  0
  1 10  1  0  0  0  0
  1 16  1  1  0  0  0
  2 14  1  0  0  0  0
  3 12  1  0  0  0  0
  4 11  2  0  0  0  0
  5  1  1  0  0  0  0
  7  2  2  0  0  0  0
  7  4  1  0  0  0  0
  8  6  1  6  0  0  0
  8  7  1  0  0  0  0
  9 24  1  1  0  0  0
  9 13  1  0  0  0  0
  9 15  1  0  0  0  0
 11  3  1  0  0  0  0
 11  5  1  0  0  0  0
 12 10  1  0  0  0  0
 13 21  1  6  0  0  0
 13  8  1  0  0  0  0
 14  3  2  0  0  0  0
 15  2  1  0  0  0  0
 17 16  1  0  0  0  0
 17 18  1  0  0  0  0
 19 20  1  0  0  0  0
 20 18  1  0  0  0  0
 21 23  1  0  0  0  0
 22 23  1  0  0  0  0
 25 31  1  0  0  0  0
 25 24  1  0  0  0  0
 27 29  1  0  0  0  0
 27 28  1  0  0  0  0
 28 26  1  0  0  0  0
 28 25  1  0  0  0  0
 29 26  1  0  0  0  0
 30 32  1  0  0  0  0
 31 30  2  0  0  0  0
M  END
>  <MODEL>
1

>  <REMARK>
 VINA RESULT:      -6.6      0.000      0.000
  Name = 
  10 active torsions:
  status: ('A' for Active; 'I' for Inactive)
    1  A    between atoms: C_2  and  O_24
    2  A    between atoms: S_5  and  C_25
    3  A    between atoms: C_7  and  N_32
    4  A    between atoms: C_10  and  C_20
    5  A    between atoms: C_10  and  O_24
    6  A    between atoms: C_16  and  C_27
    7  A    between atoms: S_17  and  C_20
    8  A    between atoms: C_22  and  N_32
    9  A    between atoms: C_25  and  C_26
   10  A    between atoms: C_27  and  N_32
                            x       y       z     vdW  Elec       q    Type
                         _______ _______ _______ _____ _____    ______ ____

>  <TORSDO>
F 10

$$$$
=
 OpenBabel10262421363D

 32 35  0  0  1  0  0  0  0  0999 V2000
  189.7370  178.0980  145.0700 C   0  0  2  0  0  3  0  0  0  0  0  0
  191.2330  177.2040  140.3160 C   0  0  0  0  0  0  0  0  0  0  0  0
  191.1640  177.4360  142.7230 C   0  0  0  0  0  0  0  0  0  0  0  0
  189.0990  177.4700  141.4500 C   0  0  0  0  0  3  0  0  0  0  0  0
  189.0580  177.7370  143.8640 O   0  0  0  0  0  0  0  0  0  0  0  0
  189.1450  178.6000  138.2880 C   0  0  0  0  0  1  0  0  0  0  0  0
  189.8290  177.2990  140.2690 C   0  0  0  0  0  0  0  0  0  0  0  0
  189.1250  177.2300  138.9520 C   0  0  2  0  0  3  0  0  0  0  0  0
  191.3210  176.2210  137.9740 C   0  0  1  0  0  3  0  0  0  0  0  0
  191.0660  177.3460  145.1770 C   0  0  0  0  0  2  0  0  0  0  0  0
  189.7660  177.5470  142.6750 C   0  0  0  0  0  0  0  0  0  0  0  0
  191.8070  177.4800  143.9630 O   0  0  0  0  0  0  0  0  0  0  0  0
  189.7830  176.1410  138.0890 C   0  0  2  0  0  3  0  0  0  0  0  0
  191.8980  177.2860  141.5440 C   0  0  0  0  0  3  0  0  0  0  0  0
  192.0230  177.0790  139.0460 C   0  0  0  0  0  2  0  0  0  0  0  0
  188.9320  177.8010  146.1700 O   0  0  0  0  0  0  0  0  0  0  0  0
  187.6470  177.6570  145.6430 C   0  0  0  0  0  2  0  0  0  0  0  0
  186.6170  178.1840  146.6250 C   0  0  0  0  0  2  0  0  0  0  0  0
  185.6690  178.1080  144.1750 C   0  0  0  0  0  1  0  0  0  0  0  0
  185.2060  178.9090  145.7360 S   0  0  0  0  0  0  0  0  0  0  0  0
  189.0690  175.8690  136.7620 C   0  0  0  0  0  2  0  0  0  0  0  0
  186.6450  174.9360  136.4610 C   0  0  0  0  0  1  0  0  0  0  0  0
  188.2960  174.2210  136.6970 S   0  0  0  0  0  0  0  0  0  0  0  0
  191.9620  174.8370  137.8220 C   0  0  0  0  0  2  0  0  0  0  0  0
  192.8490  174.7500  136.6540 N   0  0  0  0  0  0  0  0  0  0  0  0
  194.7340  174.6480  138.2850 C   0  0  0  0  0  2  0  0  0  0  0  0
  194.7740  173.2180  136.6890 C   0  0  0  0  0  2  0  0  0  0  0  0
  194.3050  174.6560  136.8240 C   0  0  0  0  0  3  0  0  0  0  0  0
  195.2090  173.2170  138.1400 C   0  0  0  0  0  2  0  0  0  0  0  0
  191.6830  174.0830  134.6040 C   0  0  0  0  0  3  0  0  0  0  0  0
  192.3680  174.9770  135.3190 C   0  0  0  0  0  3  0  0  0  0  0  0
  191.3190  172.8440  135.1180 O   0  0  0  0  0  1  0  0  0  0  0  0
  1 10  1  0  0  0  0
  1 16  1  1  0  0  0
  2 14  1  0  0  0  0
  3 12  1  0  0  0  0
  4 11  2  0  0  0  0
  5  1  1  0  0  0  0
  7  2  2  0  0  0  0
  7  4  1  0  0  0  0
  8  6  1  6  0  0  0
  8  7  1  0  0  0  0
  9 24  1  1  0  0  0
  9 13  1  0  0  0  0
  9 15  1  0  0  0  0
 11  3  1  0  0  0  0
 11  5  1  0  0  0  0
 12 10  1  0  0  0  0
 13 21  1  6  0  0  0
 13  8  1  0  0  0  0
 14  3  2  0  0  0  0
 15  2  1  0  0  0  0
 17 16  1  0  0  0  0
 17 18  1  0  0  0  0
 19 20  1  0  0  0  0
 20 18  1  0  0  0  0
 22 23  1  0  0  0  0
 23 21  1  0  0  0  0
 25 28  1  0  0  0  0
 25 24  1  0  0  0  0
 27 28  1  0  0  0  0
 27 29  1  0  0  0  0
 28 26  1  0  0  0  0
 29 26  1  0  0  0  0
 30 32  1  0  0  0  0
 30 31  2  0  0  0  0
 31 25  1  0  0  0  0
M  END
>  <MODEL>
2

>  <REMARK>
 VINA RESULT:      -6.5      1.308      1.833
  Name = 
  10 active torsions:
  status: ('A' for Active; 'I' for Inactive)
    1  A    between atoms: C_2  and  O_24
    2  A    between atoms: S_5  and  C_25
    3  A    between atoms: C_7  and  N_32
    4  A    between atoms: C_10  and  C_20
    5  A    between atoms: C_10  and  O_24
    6  A    between atoms: C_16  and  C_27
    7  A    between atoms: S_17  and  C_20
    8  A    between atoms: C_22  and  N_32
    9  A    between atoms: C_25  and  C_26
   10  A    between atoms: C_27  and  N_32
                            x       y       z     vdW  Elec       q    Type
                         _______ _______ _______ _____ _____    ______ ____

>  <TORSDO>
F 10

$$$$
=
 OpenBabel10262421363D

 32 35  0  0  1  0  0  0  0  0999 V2000
  182.4200  179.1640  138.6860 C   0  0  2  0  0  3  0  0  0  0  0  0
  187.0860  178.5880  140.5640 C   0  0  0  0  0  0  0  0  0  0  0  0
  184.7000  178.9100  140.3350 C   0  0  0  0  0  0  0  0  0  0  0  0
  186.0020  178.1630  138.4290 C   0  0  0  0  0  3  0  0  0  0  0  0
  183.6110  178.5280  138.2150 O   0  0  0  0  0  0  0  0  0  0  0  0
  189.2270  179.0700  138.1960 C   0  0  0  0  0  1  0  0  0  0  0  0
  187.1590  178.1910  139.2150 C   0  0  0  0  0  0  0  0  0  0  0  0
  188.4800  177.8150  138.6230 C   0  0  2  0  0  3  0  0  0  0  0  0
  189.3610  177.5730  141.0660 C   0  0  1  0  0  3  0  0  0  0  0  0
  182.2460  178.9220  140.1880 C   0  0  0  0  0  2  0  0  0  0  0  0
  184.7750  178.5300  138.9870 C   0  0  0  0  0  0  0  0  0  0  0  0
  183.4550  179.2380  140.8810 O   0  0  0  0  0  0  0  0  0  0  0  0
  189.2640  176.9750  139.6450 C   0  0  2  0  0  3  0  0  0  0  0  0
  185.8560  178.9590  141.1170 C   0  0  0  0  0  3  0  0  0  0  0  0
  188.3340  178.6760  141.3920 C   0  0  0  0  0  2  0  0  0  0  0  0
  181.3150  178.6660  137.9940 O   0  0  0  0  0  0  0  0  0  0  0  0
  180.8040  179.7650  137.3020 C   0  0  0  0  0  2  0  0  0  0  0  0
  179.4710  180.1840  137.8960 C   0  0  0  0  0  2  0  0  0  0  0  0
  180.8230  182.4250  137.6570 C   0  0  0  0  0  1  0  0  0  0  0  0
  179.6580  181.7180  138.8550 S   0  0  0  0  0  0  0  0  0  0  0  0
  190.5820  176.4040  139.1140 C   0  0  0  0  0  2  0  0  0  0  0  0
  191.9510  174.7130  137.6640 C   0  0  0  0  0  1  0  0  0  0  0  0
  190.4190  175.6620  137.4580 S   0  0  0  0  0  0  0  0  0  0  0  0
  189.4180  176.4880  142.1470 C   0  0  0  0  0  2  0  0  0  0  0  0
  189.4850  177.0440  143.5040 N   0  0  0  0  0  0  0  0  0  0  0  0
  187.9660  177.9620  145.2570 C   0  0  0  0  0  2  0  0  0  0  0  0
  187.0830  176.6270  143.8330 C   0  0  0  0  0  2  0  0  0  0  0  0
  188.4450  176.7350  144.4940 C   0  0  0  0  0  3  0  0  0  0  0  0
  186.6060  177.8430  144.6010 C   0  0  0  0  0  2  0  0  0  0  0  0
  191.4510  177.9080  144.6840 C   0  0  0  0  0  3  0  0  0  0  0  0
  190.4220  178.0780  143.8540 C   0  0  0  0  0  3  0  0  0  0  0  0
  191.7500  176.6770  145.2570 O   0  0  0  0  0  1  0  0  0  0  0  0
  1 16  1  6  0  0  0
  1 10  1  0  0  0  0
  2 14  1  0  0  0  0
  2 15  1  0  0  0  0
  3 12  1  0  0  0  0
  3 14  2  0  0  0  0
  4 11  2  0  0  0  0
  4  7  1  0  0  0  0
  5  1  1  0  0  0  0
  5 11  1  0  0  0  0
  7  2  2  0  0  0  0
  8  6  1  1  0  0  0
  8  7  1  0  0  0  0
  8 13  1  0  0  0  0
  9 15  1  0  0  0  0
  9 24  1  1  0  0  0
 10 12  1  0  0  0  0
 11  3  1  0  0  0  0
 13 21  1  6  0  0  0
 13  9  1  0  0  0  0
 17 18  1  0  0  0  0
 17 16  1  0  0  0  0
 18 20  1  0  0  0  0
 19 20  1  0  0  0  0
 23 22  1  0  0  0  0
 23 21  1  0  0  0  0
 24 25  1  0  0  0  0
 25 31  1  0  0  0  0
 25 28  1  0  0  0  0
 27 28  1  0  0  0  0
 27 29  1  0  0  0  0
 28 26  1  0  0  0  0
 29 26  1  0  0  0  0
 30 32  1  0  0  0  0
 31 30  2  0  0  0  0
M  END
>  <MODEL>
3

>  <REMARK>
 VINA RESULT:      -6.3      4.625      7.883
  Name = 
  10 active torsions:
  status: ('A' for Active; 'I' for Inactive)
    1  A    between atoms: C_2  and  O_24
    2  A    between atoms: S_5  and  C_25
    3  A    between atoms: C_7  and  N_32
    4  A    between atoms: C_10  and  C_20
    5  A    between atoms: C_10  and  O_24
    6  A    between atoms: C_16  and  C_27
    7  A    between atoms: S_17  and  C_20
    8  A    between atoms: C_22  and  N_32
    9  A    between atoms: C_25  and  C_26
   10  A    between atoms: C_27  and  N_32
                            x       y       z     vdW  Elec       q    Type
                         _______ _______ _______ _____ _____    ______ ____

>  <TORSDO>
F 10

$$$$
=
 OpenBabel10262421363D

 32 35  0  0  1  0  0  0  0  0999 V2000
  181.3860  178.9950  142.0670 C   0  0  2  0  0  3  0  0  0  0  0  0
  186.1210  178.5100  143.7940 C   0  0  0  0  0  0  0  0  0  0  0  0
  183.7210  178.7680  143.6430 C   0  0  0  0  0  0  0  0  0  0  0  0
  184.9870  178.1040  141.6820 C   0  0  0  0  0  3  0  0  0  0  0  0
  182.5800  178.4050  141.5470 O   0  0  0  0  0  0  0  0  0  0  0  0
  188.1760  179.1080  141.3770 C   0  0  0  0  0  1  0  0  0  0  0  0
  186.1650  178.1470  142.4350 C   0  0  0  0  0  0  0  0  0  0  0  0
  187.4770  177.8220  141.7960 C   0  0  2  0  0  3  0  0  0  0  0  0
  188.4370  177.5480  144.2050 C   0  0  1  0  0  3  0  0  0  0  0  0
  181.2640  178.7140  143.5670 C   0  0  0  0  0  2  0  0  0  0  0  0
  183.7670  178.4220  142.2840 C   0  0  0  0  0  0  0  0  0  0  0  0
  182.4850  179.0480  144.2320 O   0  0  0  0  0  0  0  0  0  0  0  0
  188.3150  176.9810  142.7730 C   0  0  2  0  0  3  0  0  0  0  0  0
  184.8990  178.8320  144.3920 C   0  0  0  0  0  3  0  0  0  0  0  0
  187.3910  178.6140  144.5880 C   0  0  0  0  0  2  0  0  0  0  0  0
  180.2760  178.4820  141.3960 O   0  0  0  0  0  0  0  0  0  0  0  0
  180.4630  178.8540  140.0630 C   0  0  0  0  0  2  0  0  0  0  0  0
  179.7780  180.1810  139.7890 C   0  0  0  0  0  2  0  0  0  0  0  0
  182.0100  179.8700  138.4360 C   0  0  0  0  0  1  0  0  0  0  0  0
  180.7160  181.1370  138.5600 S   0  0  0  0  0  0  0  0  0  0  0  0
  189.6320  176.4610  142.1910 C   0  0  0  0  0  2  0  0  0  0  0  0
  191.6610  177.5030  140.9110 C   0  0  0  0  0  1  0  0  0  0  0  0
  191.0610  177.5060  142.6230 S   0  0  0  0  0  0  0  0  0  0  0  0
  188.5570  176.4410  145.2570 C   0  0  0  0  0  2  0  0  0  0  0  0
  189.4120  176.8240  146.3880 N   0  0  0  0  0  0  0  0  0  0  0  0
  189.1830  178.2070  148.4520 C   0  0  0  0  0  2  0  0  0  0  0  0
  187.3980  177.2670  147.7290 C   0  0  0  0  0  2  0  0  0  0  0  0
  188.8690  176.8920  147.7510 C   0  0  0  0  0  3  0  0  0  0  0  0
  187.7130  178.5700  148.4350 C   0  0  0  0  0  2  0  0  0  0  0  0
  191.8590  176.7060  146.4680 C   0  0  0  0  0  3  0  0  0  0  0  0
  190.7320  177.3620  146.1910 C   0  0  0  0  0  3  0  0  0  0  0  0
  191.8620  175.3950  146.9300 O   0  0  0  0  0  1  0  0  0  0  0  0
  1 16  1  6  0  0  0
  1 10  1  0  0  0  0
  2 14  1  0  0  0  0
  2 15  1  0  0  0  0
  3 12  1  0  0  0  0
  3 14  2  0  0  0  0
  4 11  2  0  0  0  0
  4  7  1  0  0  0  0
  5  1  1  0  0  0  0
  5 11  1  0  0  0  0
  7  2  2  0  0  0  0
  8  6  1  1  0  0  0
  8  7  1  0  0  0  0
  8 13  1  0  0  0  0
  9 15  1  0  0  0  0
  9 24  1  1  0  0  0
 10 12  1  0  0  0  0
 11  3  1  0  0  0  0
 13 21  1  6  0  0  0
 13  9  1  0  0  0  0
 17 16  1  0  0  0  0
 18 17  1  0  0  0  0
 19 20  1  0  0  0  0
 20 18  1  0  0  0  0
 21 23  1  0  0  0  0
 22 23  1  0  0  0  0
 24 25  1  0  0  0  0
 25 28  1  0  0  0  0
 27 28  1  0  0  0  0
 27 29  1  0  0  0  0
 28 26  1  0  0  0  0
 29 26  1  0  0  0  0
 30 32  1  0  0  0  0
 31 25  1  0  0  0  0
 31 30  2  0  0  0  0
M  END
>  <MODEL>
4

>  <REMARK>
 VINA RESULT:      -6.2      4.753      8.871
  Name = 
  10 active torsions:
  status: ('A' for Active; 'I' for Inactive)
    1  A    between atoms: C_2  and  O_24
    2  A    between atoms: S_5  and  C_25
    3  A    between atoms: C_7  and  N_32
    4  A    between atoms: C_10  and  C_20
    5  A    between atoms: C_10  and  O_24
    6  A    between atoms: C_16  and  C_27
    7  A    between atoms: S_17  and  C_20
    8  A    between atoms: C_22  and  N_32
    9  A    between atoms: C_25  and  C_26
   10  A    between atoms: C_27  and  N_32
                            x       y       z     vdW  Elec       q    Type
                         _______ _______ _______ _____ _____    ______ ____

>  <TORSDO>
F 10

$$$$
=
 OpenBabel10262421363D

 32 35  0  0  1  0  0  0  0  0999 V2000
  182.2390  179.0180  138.3830 C   0  0  2  0  0  3  0  0  0  0  0  0
  186.7780  178.5910  140.5850 C   0  0  0  0  0  0  0  0  0  0  0  0
  184.4060  178.8510  140.1890 C   0  0  0  0  0  0  0  0  0  0  0  0
  185.8530  178.1010  138.3910 C   0  0  0  0  0  3  0  0  0  0  0  0
  183.4730  178.4030  138.0080 O   0  0  0  0  0  0  0  0  0  0  0  0
  189.0640  179.0810  138.3590 C   0  0  0  0  0  1  0  0  0  0  0  0
  186.9520  178.1710  139.2530 C   0  0  0  0  0  0  0  0  0  0  0  0
  188.3180  177.8160  138.7600 C   0  0  2  0  0  3  0  0  0  0  0  0
  189.0360  177.6410  141.2610 C   0  0  1  0  0  3  0  0  0  0  0  0
  181.9680  178.8010  139.8750 C   0  0  0  0  0  2  0  0  0  0  0  0
  184.5820  178.4480  138.8560 C   0  0  0  0  0  0  0  0  0  0  0  0
  183.1200  179.1590  140.6410 O   0  0  0  0  0  0  0  0  0  0  0  0
  189.0500  177.0140  139.8490 C   0  0  2  0  0  3  0  0  0  0  0  0
  185.5050  178.9420  141.0460 C   0  0  0  0  0  3  0  0  0  0  0  0
  187.9640  178.7240  141.4950 C   0  0  0  0  0  2  0  0  0  0  0  0
  181.1960  178.4820  137.6280 O   0  0  0  0  0  0  0  0  0  0  0  0
  180.7760  177.3610  138.3470 C   0  0  0  0  0  2  0  0  0  0  0  0
  180.8080  176.1290  137.4610 C   0  0  0  0  0  2  0  0  0  0  0  0
  180.0510  175.6120  139.9240 C   0  0  0  0  0  1  0  0  0  0  0  0
  180.3110  174.6560  138.4030 S   0  0  0  0  0  0  0  0  0  0  0  0
  190.4140  176.4660  139.4210 C   0  0  0  0  0  2  0  0  0  0  0  0
  192.1350  175.9980  137.5090 C   0  0  0  0  0  1  0  0  0  0  0  0
  190.3740  175.6610  137.7870 S   0  0  0  0  0  0  0  0  0  0  0  0
  189.0440  176.5780  142.3650 C   0  0  0  0  0  2  0  0  0  0  0  0
  189.2030  177.1560  143.7060 N   0  0  0  0  0  0  0  0  0  0  0  0
  188.1280  177.9640  145.8060 C   0  0  0  0  0  2  0  0  0  0  0  0
  186.8220  177.1360  144.3220 C   0  0  0  0  0  2  0  0  0  0  0  0
  188.2430  176.8500  144.7740 C   0  0  0  0  0  3  0  0  0  0  0  0
  186.7080  178.2360  145.3570 C   0  0  0  0  0  2  0  0  0  0  0  0
  191.3800  178.0020  144.4500 C   0  0  0  0  0  3  0  0  0  0  0  0
  190.1520  178.2040  143.9700 C   0  0  0  0  0  3  0  0  0  0  0  0
  191.8830  176.7300  144.6920 O   0  0  0  0  0  1  0  0  0  0  0  0
  1 16  1  6  0  0  0
  1 10  1  0  0  0  0
  2 14  1  0  0  0  0
  2 15  1  0  0  0  0
  3 12  1  0  0  0  0
  3 14  2  0  0  0  0
  4 11  2  0  0  0  0
  4  7  1  0  0  0  0
  5  1  1  0  0  0  0
  5 11  1  0  0  0  0
  7  2  2  0  0  0  0
  8  6  1  1  0  0  0
  8  7  1  0  0  0  0
  8 13  1  0  0  0  0
  9 15  1  0  0  0  0
  9 24  1  1  0  0  0
 10 12  1  0  0  0  0
 11  3  1  0  0  0  0
 13 21  1  6  0  0  0
 13  9  1  0  0  0  0
 16 17  1  0  0  0  0
 18 17  1  0  0  0  0
 18 20  1  0  0  0  0
 20 19  1  0  0  0  0
 22 23  1  0  0  0  0
 23 21  1  0  0  0  0
 24 25  1  0  0  0  0
 25 31  1  0  0  0  0
 25 28  1  0  0  0  0
 27 28  1  0  0  0  0
 27 29  1  0  0  0  0
 28 26  1  0  0  0  0
 29 26  1  0  0  0  0
 30 32  1  0  0  0  0
 31 30  2  0  0  0  0
M  END
>  <MODEL>
5

>  <REMARK>
 VINA RESULT:      -6.2      4.354      7.997
  Name = 
  10 active torsions:
  status: ('A' for Active; 'I' for Inactive)
    1  A    between atoms: C_2  and  O_24
    2  A    between atoms: S_5  and  C_25
    3  A    between atoms: C_7  and  N_32
    4  A    between atoms: C_10  and  C_20
    5  A    between atoms: C_10  and  O_24
    6  A    between atoms: C_16  and  C_27
    7  A    between atoms: S_17  and  C_20
    8  A    between atoms: C_22  and  N_32
    9  A    between atoms: C_25  and  C_26
   10  A    between atoms: C_27  and  N_32
                            x       y       z     vdW  Elec       q    Type
                         _______ _______ _______ _____ _____    ______ ____

>  <TORSDO>
F 10

$$$$
=
 OpenBabel10262421363D

 32 35  0  0  1  0  0  0  0  0999 V2000
  181.0170  179.0210  141.9610 C   0  0  2  0  0  3  0  0  0  0  0  0
  185.6970  178.5950  143.8460 C   0  0  0  0  0  0  0  0  0  0  0  0
  183.3020  178.8450  143.6140 C   0  0  0  0  0  0  0  0  0  0  0  0
  184.6280  178.1260  141.7130 C   0  0  0  0  0  3  0  0  0  0  0  0
  182.2270  178.4180  141.4950 O   0  0  0  0  0  0  0  0  0  0  0  0
  187.8240  179.1260  141.4770 C   0  0  0  0  0  1  0  0  0  0  0  0
  185.7820  178.1930  142.5000 C   0  0  0  0  0  0  0  0  0  0  0  0
  187.1140  177.8520  141.9110 C   0  0  2  0  0  3  0  0  0  0  0  0
  188.0000  177.6500  144.3560 C   0  0  1  0  0  3  0  0  0  0  0  0
  180.8490  178.7840  143.4650 C   0  0  0  0  0  2  0  0  0  0  0  0
  183.3900  178.4590  142.2680 C   0  0  0  0  0  0  0  0  0  0  0  0
  182.0480  179.1390  144.1560 O   0  0  0  0  0  0  0  0  0  0  0  0
  187.9220  177.0410  142.9380 C   0  0  2  0  0  3  0  0  0  0  0  0
  184.4560  178.9320  144.3960 C   0  0  0  0  0  3  0  0  0  0  0  0
  186.9410  178.7240  144.6750 C   0  0  0  0  0  2  0  0  0  0  0  0
  179.9280  178.4880  141.2710 O   0  0  0  0  0  0  0  0  0  0  0  0
  180.2550  178.6340  139.9220 C   0  0  0  0  0  2  0  0  0  0  0  0
  179.6150  177.5250  139.1060 C   0  0  0  0  0  2  0  0  0  0  0  0
  181.4330  175.6680  139.4950 C   0  0  0  0  0  1  0  0  0  0  0  0
  179.7110  175.9440  139.9970 S   0  0  0  0  0  0  0  0  0  0  0  0
  189.2570  176.5060  142.4120 C   0  0  0  0  0  2  0  0  0  0  0  0
  191.2670  177.2710  140.9250 C   0  0  0  0  0  1  0  0  0  0  0  0
  190.6120  177.7150  142.5570 S   0  0  0  0  0  0  0  0  0  0  0  0
  188.0880  176.5730  145.4430 C   0  0  0  0  0  2  0  0  0  0  0  0
  188.9330  176.9790  146.5740 N   0  0  0  0  0  0  0  0  0  0  0  0
  191.1890  177.1420  147.6260 C   0  0  0  0  0  2  0  0  0  0  0  0
  191.0930  176.1700  145.7190 C   0  0  0  0  0  2  0  0  0  0  0  0
  190.3470  177.3210  146.3700 C   0  0  0  0  0  3  0  0  0  0  0  0
  191.9360  176.0020  146.9670 C   0  0  0  0  0  2  0  0  0  0  0  0
  187.7260  177.7340  148.5690 C   0  0  0  0  0  3  0  0  0  0  0  0
  188.4910  176.8440  147.9360 C   0  0  0  0  0  3  0  0  0  0  0  0
  187.2310  178.8700  147.9390 O   0  0  0  0  0  1  0  0  0  0  0  0
  1 16  1  6  0  0  0
  1 10  1  0  0  0  0
  2 14  1  0  0  0  0
  2 15  1  0  0  0  0
  3 12  1  0  0  0  0
  3 14  2  0  0  0  0
  4 11  2  0  0  0  0
  4  7  1  0  0  0  0
  5  1  1  0  0  0  0
  5 11  1  0  0  0  0
  7  2  2  0  0  0  0
  8  6  1  1  0  0  0
  8  7  1  0  0  0  0
  8 13  1  0  0  0  0
  9 15  1  0  0  0  0
  9 24  1  1  0  0  0
 10 12  1  0  0  0  0
 11  3  1  0  0  0  0
 13 21  1  6  0  0  0
 13  9  1  0  0  0  0
 17 16  1  0  0  0  0
 18 17  1  0  0  0  0
 18 20  1  0  0  0  0
 19 20  1  0  0  0  0
 21 23  1  0  0  0  0
 22 23  1  0  0  0  0
 24 25  1  0  0  0  0
 25 31  1  0  0  0  0
 27 28  1  0  0  0  0
 27 29  1  0  0  0  0
 28 25  1  0  0  0  0
 28 26  1  0  0  0  0
 29 26  1  0  0  0  0
 31 30  2  0  0  0  0
 32 30  1  0  0  0  0
M  END
>  <MODEL>
6

>  <REMARK>
 VINA RESULT:      -6.0      5.073      8.969
  Name = 
  10 active torsions:
  status: ('A' for Active; 'I' for Inactive)
    1  A    between atoms: C_2  and  O_24
    2  A    between atoms: S_5  and  C_25
    3  A    between atoms: C_7  and  N_32
    4  A    between atoms: C_10  and  C_20
    5  A    between atoms: C_10  and  O_24
    6  A    between atoms: C_16  and  C_27
    7  A    between atoms: S_17  and  C_20
    8  A    between atoms: C_22  and  N_32
    9  A    between atoms: C_25  and  C_26
   10  A    between atoms: C_27  and  N_32
                            x       y       z     vdW  Elec       q    Type
                         _______ _______ _______ _____ _____    ______ ____

>  <TORSDO>
F 10

$$$$
=
 OpenBabel10262421363D

 32 35  0  0  1  0  0  0  0  0999 V2000
  191.7310  176.2470  136.4310 C   0  0  2  0  0  3  0  0  0  0  0  0
  189.3900  177.7930  140.6450 C   0  0  0  0  0  0  0  0  0  0  0  0
  189.9150  177.2540  138.3460 C   0  0  0  0  0  0  0  0  0  0  0  0
  191.3210  176.4070  140.1330 C   0  0  0  0  0  3  0  0  0  0  0  0
  191.8470  175.9090  137.8150 O   0  0  0  0  0  0  0  0  0  0  0  0
  191.5890  178.1700  142.9780 C   0  0  0  0  0  1  0  0  0  0  0  0
  190.5020  177.0430  141.0720 C   0  0  0  0  0  0  0  0  0  0  0  0
  190.8120  176.9410  142.5310 C   0  0  2  0  0  3  0  0  0  0  0  0
  188.3760  177.7600  142.9750 C   0  0  1  0  0  3  0  0  0  0  0  0
  190.2600  176.4410  136.0530 C   0  0  0  0  0  2  0  0  0  0  0  0
  191.0320  176.5200  138.7710 C   0  0  0  0  0  0  0  0  0  0  0  0
  189.6250  177.3230  136.9810 O   0  0  0  0  0  0  0  0  0  0  0  0
  189.4990  176.7530  143.3090 C   0  0  2  0  0  3  0  0  0  0  0  0
  189.1070  177.9070  139.2810 C   0  0  0  0  0  3  0  0  0  0  0  0
  188.5450  178.5240  141.6470 C   0  0  0  0  0  2  0  0  0  0  0  0
  192.2930  175.2360  135.6500 O   0  0  0  0  0  0  0  0  0  0  0  0
  193.5430  174.9970  136.2240 C   0  0  0  0  0  2  0  0  0  0  0  0
  193.7460  173.5070  136.4320 C   0  0  0  0  0  2  0  0  0  0  0  0
  195.3420  173.6170  138.5180 C   0  0  0  0  0  1  0  0  0  0  0  0
  195.4960  173.1460  136.7720 S   0  0  0  0  0  0  0  0  0  0  0  0
  189.6830  176.4950  144.8070 C   0  0  0  0  0  2  0  0  0  0  0  0
  189.6980  177.0820  147.3560 C   0  0  0  0  0  1  0  0  0  0  0  0
  189.5990  178.0170  145.8050 S   0  0  0  0  0  0  0  0  0  0  0  0
  186.9820  177.1400  143.1210 C   0  0  0  0  0  2  0  0  0  0  0  0
  185.9790  178.1070  143.5870 N   0  0  0  0  0  0  0  0  0  0  0  0
  186.1700  177.6890  146.0390 C   0  0  0  0  0  2  0  0  0  0  0  0
  184.7800  179.2030  145.4350 C   0  0  0  0  0  2  0  0  0  0  0  0
  185.2490  177.8860  144.8430 C   0  0  0  0  0  3  0  0  0  0  0  0
  185.6900  178.9990  146.6280 C   0  0  0  0  0  2  0  0  0  0  0  0
  184.6250  179.0190  141.7590 C   0  0  0  0  0  3  0  0  0  0  0  0
  185.5080  179.1740  142.7460 C   0  0  0  0  0  3  0  0  0  0  0  0
  184.0260  177.7950  141.4840 O   0  0  0  0  0  1  0  0  0  0  0  0
  1 16  1  6  0  0  0
  1  5  1  0  0  0  0
  2  7  1  0  0  0  0
  2 15  1  0  0  0  0
  3 11  2  0  0  0  0
  3 14  1  0  0  0  0
  4  7  2  0  0  0  0
  5 11  1  0  0  0  0
  7  8  1  0  0  0  0
  8  6  1  1  0  0  0
  8 13  1  0  0  0  0
  9 24  1  6  0  0  0
  9 13  1  0  0  0  0
 10  1  1  0  0  0  0
 10 12  1  0  0  0  0
 11  4  1  0  0  0  0
 12  3  1  0  0  0  0
 13 21  1  1  0  0  0
 14  2  2  0  0  0  0
 15  9  1  0  0  0  0
 16 17  1  0  0  0  0
 17 18  1  0  0  0  0
 18 20  1  0  0  0  0
 20 19  1  0  0  0  0
 21 23  1  0  0  0  0
 23 22  1  0  0  0  0
 24 25  1  0  0  0  0
 25 28  1  0  0  0  0
 26 29  1  0  0  0  0
 27 29  1  0  0  0  0
 28 27  1  0  0  0  0
 28 26  1  0  0  0  0
 30 31  2  0  0  0  0
 31 25  1  0  0  0  0
 32 30  1  0  0  0  0
M  END
>  <MODEL>
7

>  <REMARK>
 VINA RESULT:      -6.0      3.416      9.516
  Name = 
  10 active torsions:
  status: ('A' for Active; 'I' for Inactive)
    1  A    between atoms: C_2  and  O_24
    2  A    between atoms: S_5  and  C_25
    3  A    between atoms: C_7  and  N_32
    4  A    between atoms: C_10  and  C_20
    5  A    between atoms: C_10  and  O_24
    6  A    between atoms: C_16  and  C_27
    7  A    between atoms: S_17  and  C_20
    8  A    between atoms: C_22  and  N_32
    9  A    between atoms: C_25  and  C_26
   10  A    between atoms: C_27  and  N_32
                            x       y       z     vdW  Elec       q    Type
                         _______ _______ _______ _____ _____    ______ ____

>  <TORSDO>
F 10

$$$$
=
 OpenBabel10262421363D

 32 35  0  0  1  0  0  0  0  0999 V2000
  190.0360  178.4070  144.6470 C   0  0  2  0  0  3  0  0  0  0  0  0
  191.3130  177.1080  139.9230 C   0  0  0  0  0  0  0  0  0  0  0  0
  191.3450  177.5170  142.3070 C   0  0  0  0  0  0  0  0  0  0  0  0
  189.2360  177.5450  141.1090 C   0  0  0  0  0  3  0  0  0  0  0  0
  189.2980  177.9890  143.4960 O   0  0  0  0  0  0  0  0  0  0  0  0
  189.2050  178.4390  137.8720 C   0  0  0  0  0  1  0  0  0  0  0  0
  189.9130  177.2580  139.9190 C   0  0  0  0  0  0  0  0  0  0  0  0
  189.1560  177.1240  138.6360 C   0  0  2  0  0  3  0  0  0  0  0  0
  191.2720  175.9540  137.6590 C   0  0  1  0  0  3  0  0  0  0  0  0
  191.3380  177.6100  144.7630 C   0  0  0  0  0  2  0  0  0  0  0  0
  189.9520  177.6830  142.3000 C   0  0  0  0  0  0  0  0  0  0  0  0
  192.0370  177.6240  143.5170 O   0  0  0  0  0  0  0  0  0  0  0  0
  189.7370  175.9480  137.8340 C   0  0  2  0  0  3  0  0  0  0  0  0
  192.0270  177.2500  141.1170 C   0  0  0  0  0  3  0  0  0  0  0  0
  192.0480  176.8580  138.6380 C   0  0  0  0  0  2  0  0  0  0  0  0
  189.2630  178.2250  145.7940 O   0  0  0  0  0  0  0  0  0  0  0  0
  189.7980  177.0910  146.4070 C   0  0  0  0  0  2  0  0  0  0  0  0
  188.9810  176.7250  147.6340 C   0  0  0  0  0  2  0  0  0  0  0  0
  186.7340  178.0870  147.5980 C   0  0  0  0  0  1  0  0  0  0  0  0
  188.3380  178.2230  148.4380 S   0  0  0  0  0  0  0  0  0  0  0  0
  188.9630  175.6110  136.5560 C   0  0  0  0  0  2  0  0  0  0  0  0
  188.8700  173.1800  135.5980 C   0  0  0  0  0  1  0  0  0  0  0  0
  187.8720  174.1650  136.7490 S   0  0  0  0  0  0  0  0  0  0  0  0
  191.8510  174.5370  137.5870 C   0  0  0  0  0  2  0  0  0  0  0  0
  192.5280  174.2660  136.3110 N   0  0  0  0  0  0  0  0  0  0  0  0
  193.6850  172.8160  134.6440 C   0  0  0  0  0  2  0  0  0  0  0  0
  193.9420  172.2920  136.7060 C   0  0  0  0  0  2  0  0  0  0  0  0
  192.8100  172.8890  135.8880 C   0  0  0  0  0  3  0  0  0  0  0  0
  194.8060  172.2120  135.4640 C   0  0  0  0  0  2  0  0  0  0  0  0
  194.2650  175.9420  135.8850 C   0  0  0  0  0  3  0  0  0  0  0  0
  193.1390  175.3160  135.5410 C   0  0  0  0  0  3  0  0  0  0  0  0
  194.9950  175.5910  137.0150 O   0  0  0  0  0  1  0  0  0  0  0  0
  1 10  1  0  0  0  0
  1 16  1  1  0  0  0
  2 14  1  0  0  0  0
  3 12  1  0  0  0  0
  4 11  2  0  0  0  0
  5  1  1  0  0  0  0
  7  2  2  0  0  0  0
  7  4  1  0  0  0  0
  8  6  1  6  0  0  0
  8  7  1  0  0  0  0
  9 24  1  1  0  0  0
  9 13  1  0  0  0  0
  9 15  1  0  0  0  0
 11  3  1  0  0  0  0
 11  5  1  0  0  0  0
 12 10  1  0  0  0  0
 13 21  1  6  0  0  0
 13  8  1  0  0  0  0
 14  3  2  0  0  0  0
 15  2  1  0  0  0  0
 16 17  1  0  0  0  0
 17 18  1  0  0  0  0
 18 20  1  0  0  0  0
 19 20  1  0  0  0  0
 21 23  1  0  0  0  0
 22 23  1  0  0  0  0
 25 24  1  0  0  0  0
 26 29  1  0  0  0  0
 26 28  1  0  0  0  0
 28 25  1  0  0  0  0
 28 27  1  0  0  0  0
 29 27  1  0  0  0  0
 30 32  1  0  0  0  0
 31 30  2  0  0  0  0
 31 25  1  0  0  0  0
M  END
>  <MODEL>
8

>  <REMARK>
 VINA RESULT:      -5.8      1.406      1.964
  Name = 
  10 active torsions:
  status: ('A' for Active; 'I' for Inactive)
    1  A    between atoms: C_2  and  O_24
    2  A    between atoms: S_5  and  C_25
    3  A    between atoms: C_7  and  N_32
    4  A    between atoms: C_10  and  C_20
    5  A    between atoms: C_10  and  O_24
    6  A    between atoms: C_16  and  C_27
    7  A    between atoms: S_17  and  C_20
    8  A    between atoms: C_22  and  N_32
    9  A    between atoms: C_25  and  C_26
   10  A    between atoms: C_27  and  N_32
                            x       y       z     vdW  Elec       q    Type
                         _______ _______ _______ _____ _____    ______ ____

>  <TORSDO>
F 10

$$$$
=
 OpenBabel10262421363D

 32 35  0  0  1  0  0  0  0  0999 V2000
  183.6450  179.3340  139.7030 C   0  0  2  0  0  3  0  0  0  0  0  0
  186.7200  177.7350  143.3940 C   0  0  0  0  0  0  0  0  0  0  0  0
  185.8010  178.3550  141.2440 C   0  0  0  0  0  0  0  0  0  0  0  0
  184.6540  179.0130  143.2780 C   0  0  0  0  0  3  0  0  0  0  0  0
  183.7330  179.5930  141.1060 O   0  0  0  0  0  0  0  0  0  0  0  0
  184.9490  177.0930  146.0160 C   0  0  0  0  0  1  0  0  0  0  0  0
  185.6490  178.3870  144.0360 C   0  0  0  0  0  0  0  0  0  0  0  0
  185.5730  178.3930  145.5290 C   0  0  2  0  0  3  0  0  0  0  0  0
  188.0910  177.7170  145.5330 C   0  0  1  0  0  3  0  0  0  0  0  0
  185.0450  179.2590  139.0870 C   0  0  0  0  0  2  0  0  0  0  0  0
  184.7260  178.9900  141.8830 C   0  0  0  0  0  0  0  0  0  0  0  0
  185.8710  178.3760  139.8480 O   0  0  0  0  0  0  0  0  0  0  0  0
  186.9800  178.6280  146.1010 C   0  0  2  0  0  3  0  0  0  0  0  0
  186.7860  177.7110  141.9980 C   0  0  0  0  0  3  0  0  0  0  0  0
  187.7560  177.0120  144.2040 C   0  0  0  0  0  2  0  0  0  0  0  0
  182.9070  180.3440  139.0840 O   0  0  0  0  0  0  0  0  0  0  0  0
  181.5850  179.8980  139.1310 C   0  0  0  0  0  2  0  0  0  0  0  0
  180.6400  181.0780  139.2720 C   0  0  0  0  0  2  0  0  0  0  0  0
  179.9090  179.0710  140.8040 C   0  0  0  0  0  1  0  0  0  0  0  0
  179.5470  180.8470  140.7070 S   0  0  0  0  0  0  0  0  0  0  0  0
  187.0250  178.7960  147.6220 C   0  0  0  0  0  2  0  0  0  0  0  0
  189.1950  178.4510  149.0400 C   0  0  0  0  0  1  0  0  0  0  0  0
  187.8330  177.3990  148.4670 S   0  0  0  0  0  0  0  0  0  0  0  0
  189.4530  178.4210  145.4960 C   0  0  0  0  0  2  0  0  0  0  0  0
  190.5760  177.4760  145.4390 N   0  0  0  0  0  0  0  0  0  0  0  0
  191.5670  176.4890  143.3740 C   0  0  0  0  0  2  0  0  0  0  0  0
  191.1940  178.5990  143.3390 C   0  0  0  0  0  2  0  0  0  0  0  0
  191.6140  177.6050  144.4080 C   0  0  0  0  0  3  0  0  0  0  0  0
  191.1580  177.4870  142.3110 C   0  0  0  0  0  2  0  0  0  0  0  0
  191.3440  176.0980  147.3150 C   0  0  0  0  0  3  0  0  0  0  0  0
  190.5940  176.2730  146.2260 C   0  0  0  0  0  3  0  0  0  0  0  0
  192.1530  177.1050  147.8290 O   0  0  0  0  0  1  0  0  0  0  0  0
  1 16  1  6  0  0  0
  1  5  1  0  0  0  0
  2  7  1  0  0  0  0
  2 15  1  0  0  0  0
  3 11  2  0  0  0  0
  3 14  1  0  0  0  0
  4  7  2  0  0  0  0
  5 11  1  0  0  0  0
  7  8  1  0  0  0  0
  8  6  1  1  0  0  0
  8 13  1  0  0  0  0
  9 24  1  6  0  0  0
  9 13  1  0  0  0  0
 10  1  1  0  0  0  0
 10 12  1  0  0  0  0
 11  4  1  0  0  0  0
 12  3  1  0  0  0  0
 13 21  1  1  0  0  0
 14  2  2  0  0  0  0
 15  9  1  0  0  0  0
 16 17  1  0  0  0  0
 17 18  1  0  0  0  0
 18 20  1  0  0  0  0
 20 19  1  0  0  0  0
 21 23  1  0  0  0  0
 23 22  1  0  0  0  0
 25 24  1  0  0  0  0
 25 31  1  0  0  0  0
 26 28  1  0  0  0  0
 27 28  1  0  0  0  0
 28 25  1  0  0  0  0
 29 27  1  0  0  0  0
 29 26  1  0  0  0  0
 30 32  1  0  0  0  0
 31 30  2  0  0  0  0
M  END
>  <MODEL>
9

>  <REMARK>
 VINA RESULT:      -5.7      5.321      8.580
  Name = 
  10 active torsions:
  status: ('A' for Active; 'I' for Inactive)
    1  A    between atoms: C_2  and  O_24
    2  A    between atoms: S_5  and  C_25
    3  A    between atoms: C_7  and  N_32
    4  A    between atoms: C_10  and  C_20
    5  A    between atoms: C_10  and  O_24
    6  A    between atoms: C_16  and  C_27
    7  A    between atoms: S_17  and  C_20
    8  A    between atoms: C_22  and  N_32
    9  A    between atoms: C_25  and  C_26
   10  A    between atoms: C_27  and  N_32
                            x       y       z     vdW  Elec       q    Type
                         _______ _______ _______ _____ _____    ______ ____

>  <TORSDO>
F 10

$$$$
