=
 OpenBabel10252415093D

 34 38  0  0  1  0  0  0  0  0999 V2000
  190.2160  177.6040  142.8230 C   0  0  2  0  0  3  0  0  0  0  0  0
  188.1560  177.8070  139.9650 C   0  0  0  0  0  2  0  0  0  0  0  0
  187.0960  177.9670  142.1640 N   0  0  1  0  0  0  0  0  0  0  0  0
  184.9210  178.3270  143.3500 C   0  0  2  0  0  3  0  0  0  0  0  0
  191.2010  177.6100  140.6890 O   0  0  0  0  0  0  0  0  0  0  0  0
  190.5630  177.2990  139.4820 C   0  0  0  0  0  2  0  0  0  0  0  0
  185.1030  178.6580  140.8950 C   0  0  0  0  0  1  0  0  0  0  0  0
  187.9760  178.6520  141.2140 C   0  0  0  0  0  2  0  0  0  0  0  0
  190.6190  176.7620  141.6320 C   0  0  1  0  0  3  0  0  0  0  0  0
  187.8100  177.9430  143.4660 C   0  0  1  0  0  3  0  0  0  0  0  0
  191.4340  176.7090  142.9070 C   0  0  0  0  0  2  0  0  0  0  0  0
  189.4000  178.2490  139.2080 C   0  0  0  0  0  2  0  0  0  0  0  0
  185.6430  178.3610  144.6780 C   0  0  0  0  0  2  0  0  0  0  0  0
  186.8940  177.5110  144.6260 C   0  0  2  0  0  3  0  0  0  0  0  0
  185.8580  178.7740  142.2200 C   0  0  2  0  0  3  0  0  0  0  0  0
  188.9870  176.9550  143.4250 C   0  0  0  0  0  2  0  0  0  0  0  0
  189.5260  177.2230  147.3670 C   0  0  0  0  0  0  0  0  0  0  0  0
  188.8700  177.8450  148.4330 C   0  0  0  0  0  3  0  0  0  0  0  0
  187.5870  177.6020  145.9540 C   0  0  0  0  0  0  0  0  0  0  0  0
  187.5770  178.3460  148.2620 C   0  0  0  0  0  3  0  0  0  0  0  0
  188.8880  177.1020  146.1300 C   0  0  0  0  0  3  0  0  0  0  0  0
  186.9370  178.2260  147.0250 C   0  0  0  0  0  3  0  0  0  0  0  0
  190.7810  176.7410  147.5290 F   0  0  0  0  0  0  0  0  0  0  0  0
  183.6690  179.2070  143.4410 C   0  0  0  0  0  2  0  0  0  0  0  0
  182.7690  178.7350  144.4830 N   0  0  0  0  0  2  0  0  0  0  0  0
  181.4250  178.7530  143.9290 C   0  0  0  0  0  2  0  0  0  0  0  0
  181.4910  178.9480  142.4230 C   0  0  0  0  0  2  0  0  0  0  0  0
  179.3320  176.8250  141.8030 O   0  0  0  0  0  0  0  0  0  0  0  0
  180.0920  179.0970  141.8350 C   0  0  2  0  0  3  0  0  0  0  0  0
  179.6700  177.8330  141.1310 C   0  0  0  0  0  0  0  0  0  0  0  0
  179.8170  178.9300  138.8590 C   0  0  0  0  0  2  0  0  0  0  0  0
  180.6520  180.0020  139.5440 C   0  0  0  0  0  2  0  0  0  0  0  0
  180.0390  180.3120  140.9050 C   0  0  0  0  0  2  0  0  0  0  0  0
  179.7140  177.7440  139.7020 N   0  0  0  0  0  2  0  0  0  0  0  0
  1 11  1  1  0  0  0
  1 16  1  0  0  0  0
  2  8  1  0  0  0  0
  3  8  1  6  0  0  0
  3 15  1  0  0  0  0
  3 10  1  0  0  0  0
  4 24  1  1  0  0  0
  4 13  1  0  0  0  0
  5  9  1  0  0  0  0
  6  5  1  0  0  0  0
  9  1  1  0  0  0  0
  9 11  1  1  0  0  0
 10 16  1  6  0  0  0
 10 14  1  0  0  0  0
 12  6  1  0  0  0  0
 12  2  1  0  0  0  0
 14 13  1  0  0  0  0
 14 19  1  1  0  0  0
 15  7  1  6  0  0  0
 15  4  1  0  0  0  0
 17 23  1  0  0  0  0
 17 18  1  0  0  0  0
 19 21  1  0  0  0  0
 19 22  2  0  0  0  0
 20 18  2  0  0  0  0
 21 17  2  0  0  0  0
 22 20  1  0  0  0  0
 24 25  1  0  0  0  0
 26 25  1  0  0  0  0
 27 26  1  0  0  0  0
 29 27  1  6  0  0  0
 30 28  2  0  0  0  0
 30 29  1  0  0  0  0
 31 32  1  0  0  0  0
 31 34  1  0  0  0  0
 32 33  1  0  0  0  0
 33 29  1  0  0  0  0
 34 30  1  0  0  0  0
M  END
>  <MODEL>
1

>  <REMARK>
 VINA RESULT:     -10.4      0.000      0.000
  Name = 
  6 active torsions:
  status: ('A' for Active; 'I' for Inactive)
    1  A    between atoms: C_3  and  C_13
    2  A    between atoms: C_3  and  C_17
    3  A    between atoms: C_5  and  C_18
    4  A    between atoms: C_12  and  C_28
    5  A    between atoms: C_17  and  N_29
    6  A    between atoms: C_18  and  N_29
                            x       y       z     vdW  Elec       q    Type
                         _______ _______ _______ _____ _____    ______ ____

>  <TORSDO>
F 6

$$$$
=
 OpenBabel10252415093D

 34 38  0  0  1  0  0  0  0  0999 V2000
  188.0860  177.8080  146.4110 C   0  0  2  0  0  3  0  0  0  0  0  0
  191.1090  176.7280  144.9450 C   0  0  0  0  0  2  0  0  0  0  0  0
  189.2570  177.3300  143.4620 N   0  0  1  0  0  0  0  0  0  0  0  0
  188.5740  177.5920  141.0680 C   0  0  2  0  0  3  0  0  0  0  0  0
  189.9420  177.3650  147.7850 O   0  0  0  0  0  0  0  0  0  0  0  0
  191.0540  176.5860  147.4470 C   0  0  0  0  0  2  0  0  0  0  0  0
  190.9490  177.1980  141.6790 C   0  0  0  0  0  1  0  0  0  0  0  0
  190.2480  177.8570  144.4050 C   0  0  0  0  0  2  0  0  0  0  0  0
  188.8620  176.7430  147.1570 C   0  0  1  0  0  3  0  0  0  0  0  0
  187.9340  177.8410  143.9030 C   0  0  1  0  0  3  0  0  0  0  0  0
  187.5410  177.2390  147.7040 C   0  0  0  0  0  2  0  0  0  0  0  0
  191.7870  177.1600  146.2360 C   0  0  0  0  0  2  0  0  0  0  0  0
  187.2450  178.1670  141.5040 C   0  0  0  0  0  2  0  0  0  0  0  0
  186.8380  177.6060  142.8480 C   0  0  2  0  0  3  0  0  0  0  0  0
  189.6450  177.8540  142.1350 C   0  0  2  0  0  3  0  0  0  0  0  0
  187.4810  177.1400  145.1940 C   0  0  0  0  0  2  0  0  0  0  0  0
  183.2170  178.7940  142.7740 C   0  0  0  0  0  0  0  0  0  0  0  0
  183.0890  179.3400  144.0540 C   0  0  0  0  0  3  0  0  0  0  0  0
  185.5310  178.2270  143.2480 C   0  0  0  0  0  0  0  0  0  0  0  0
  184.1780  179.3300  144.9310 C   0  0  0  0  0  3  0  0  0  0  0  0
  184.4340  178.2370  142.3710 C   0  0  0  0  0  3  0  0  0  0  0  0
  185.3950  178.7730  144.5290 C   0  0  0  0  0  3  0  0  0  0  0  0
  182.1620  178.7980  141.9250 F   0  0  0  0  0  0  0  0  0  0  0  0
  188.9560  178.1920  139.7100 C   0  0  0  0  0  2  0  0  0  0  0  0
  188.2840  177.4980  138.6210 N   0  0  0  0  0  2  0  0  0  0  0  0
  189.2010  176.4820  138.1320 C   0  0  0  0  0  2  0  0  0  0  0  0
  190.6070  177.0520  138.0480 C   0  0  0  0  0  2  0  0  0  0  0  0
  193.4810  177.1040  139.1840 O   0  0  0  0  0  0  0  0  0  0  0  0
  191.6490  175.9450  138.1630 C   0  0  2  0  0  3  0  0  0  0  0  0
  193.0420  176.5190  138.1600 C   0  0  0  0  0  0  0  0  0  0  0  0
  193.5350  175.5750  135.8680 C   0  0  0  0  0  2  0  0  0  0  0  0
  192.0290  175.4170  135.7220 C   0  0  0  0  0  2  0  0  0  0  0  0
  191.4530  174.9200  137.0430 C   0  0  0  0  0  2  0  0  0  0  0  0
  193.8510  176.4660  136.9790 N   0  0  0  0  0  2  0  0  0  0  0  0
  1 16  1  6  0  0  0
  1  9  1  0  0  0  0
  1 11  1  0  0  0  0
  2 12  1  0  0  0  0
  3 10  1  0  0  0  0
  3  8  1  1  0  0  0
  4 24  1  6  0  0  0
  4 13  1  0  0  0  0
  4 15  1  0  0  0  0
  6  5  1  0  0  0  0
  8  2  1  0  0  0  0
  9 11  1  1  0  0  0
  9  5  1  0  0  0  0
 10 16  1  1  0  0  0
 12  6  1  0  0  0  0
 13 14  1  0  0  0  0
 14 19  1  1  0  0  0
 14 10  1  0  0  0  0
 15  7  1  6  0  0  0
 15  3  1  0  0  0  0
 17 18  1  0  0  0  0
 18 20  2  0  0  0  0
 19 22  2  0  0  0  0
 21 17  2  0  0  0  0
 21 19  1  0  0  0  0
 22 20  1  0  0  0  0
 23 17  1  0  0  0  0
 25 24  1  0  0  0  0
 26 25  1  0  0  0  0
 27 26  1  0  0  0  0
 29 27  1  6  0  0  0
 30 29  1  0  0  0  0
 30 28  2  0  0  0  0
 31 34  1  0  0  0  0
 32 31  1  0  0  0  0
 32 33  1  0  0  0  0
 33 29  1  0  0  0  0
 34 30  1  0  0  0  0
M  END
>  <MODEL>
2

>  <REMARK>
 VINA RESULT:     -10.2      3.880      8.304
  Name = 
  6 active torsions:
  status: ('A' for Active; 'I' for Inactive)
    1  A    between atoms: C_3  and  C_13
    2  A    between atoms: C_3  and  C_17
    3  A    between atoms: C_5  and  C_18
    4  A    between atoms: C_12  and  C_28
    5  A    between atoms: C_17  and  N_29
    6  A    between atoms: C_18  and  N_29
                            x       y       z     vdW  Elec       q    Type
                         _______ _______ _______ _____ _____    ______ ____

>  <TORSDO>
F 6

$$$$
=
 OpenBabel10252415093D

 34 38  0  0  1  0  0  0  0  0999 V2000
  188.0960  177.7930  146.4220 C   0  0  2  0  0  3  0  0  0  0  0  0
  191.0920  176.7670  144.8650 C   0  0  0  0  0  2  0  0  0  0  0  0
  189.2030  177.3870  143.4380 N   0  0  1  0  0  0  0  0  0  0  0  0
  188.4640  177.6950  141.0660 C   0  0  2  0  0  3  0  0  0  0  0  0
  189.9860  177.3350  147.7430 O   0  0  0  0  0  0  0  0  0  0  0  0
  191.0960  176.5710  147.3640 C   0  0  0  0  0  2  0  0  0  0  0  0
  190.8550  177.3050  141.6140 C   0  0  0  0  0  1  0  0  0  0  0  0
  190.2110  177.9010  144.3690 C   0  0  0  0  0  2  0  0  0  0  0  0
  188.8960  176.7190  147.1270 C   0  0  1  0  0  3  0  0  0  0  0  0
  187.8870  177.8790  143.9190 C   0  0  1  0  0  3  0  0  0  0  0  0
  187.5840  177.1930  147.7150 C   0  0  0  0  0  2  0  0  0  0  0  0
  191.7960  177.1760  146.1500 C   0  0  0  0  0  2  0  0  0  0  0  0
  187.1410  178.2510  141.5440 C   0  0  0  0  0  2  0  0  0  0  0  0
  186.7680  177.6580  142.8850 C   0  0  2  0  0  3  0  0  0  0  0  0
  189.5570  177.9420  142.1140 C   0  0  2  0  0  3  0  0  0  0  0  0
  187.4680  177.1470  145.2050 C   0  0  0  0  0  2  0  0  0  0  0  0
  183.1390  178.8220  142.9180 C   0  0  0  0  0  0  0  0  0  0  0  0
  183.0370  179.3390  144.2120 C   0  0  0  0  0  3  0  0  0  0  0  0
  185.4670  178.2610  143.3270 C   0  0  0  0  0  0  0  0  0  0  0  0
  184.1450  179.3180  145.0640 C   0  0  0  0  0  3  0  0  0  0  0  0
  184.3500  178.2830  142.4760 C   0  0  0  0  0  3  0  0  0  0  0  0
  185.3560  178.7780  144.6230 C   0  0  0  0  0  3  0  0  0  0  0  0
  182.0650  178.8370  142.0930 F   0  0  0  0  0  0  0  0  0  0  0  0
  188.8100  178.3270  139.7130 C   0  0  0  0  0  2  0  0  0  0  0  0
  187.6300  178.4380  138.8670 N   0  0  0  0  0  2  0  0  0  0  0  0
  187.9720  177.8600  137.5780 C   0  0  0  0  0  2  0  0  0  0  0  0
  188.1110  176.3520  137.7080 C   0  0  0  0  0  2  0  0  0  0  0  0
  188.6200  173.4650  136.7310 O   0  0  0  0  0  0  0  0  0  0  0  0
  189.1080  175.8090  136.6900 C   0  0  2  0  0  3  0  0  0  0  0  0
  189.4510  174.3730  136.9890 C   0  0  0  0  0  0  0  0  0  0  0  0
  191.8010  174.9770  137.6960 C   0  0  0  0  0  2  0  0  0  0  0  0
  191.2880  176.4030  137.8200 C   0  0  0  0  0  2  0  0  0  0  0  0
  190.3550  176.6970  136.6500 C   0  0  0  0  0  2  0  0  0  0  0  0
  190.6880  174.0360  137.6270 N   0  0  0  0  0  2  0  0  0  0  0  0
  1 16  1  6  0  0  0
  1  9  1  0  0  0  0
  1 11  1  0  0  0  0
  2 12  1  0  0  0  0
  3 10  1  0  0  0  0
  3  8  1  1  0  0  0
  4 24  1  6  0  0  0
  4 13  1  0  0  0  0
  4 15  1  0  0  0  0
  6  5  1  0  0  0  0
  8  2  1  0  0  0  0
  9 11  1  1  0  0  0
  9  5  1  0  0  0  0
 10 16  1  1  0  0  0
 12  6  1  0  0  0  0
 13 14  1  0  0  0  0
 14 19  1  1  0  0  0
 14 10  1  0  0  0  0
 15  7  1  6  0  0  0
 15  3  1  0  0  0  0
 17 18  1  0  0  0  0
 18 20  2  0  0  0  0
 19 22  2  0  0  0  0
 21 17  2  0  0  0  0
 21 19  1  0  0  0  0
 22 20  1  0  0  0  0
 23 17  1  0  0  0  0
 25 24  1  0  0  0  0
 26 27  1  0  0  0  0
 26 25  1  0  0  0  0
 28 30  2  0  0  0  0
 29 30  1  0  0  0  0
 29 27  1  1  0  0  0
 30 34  1  0  0  0  0
 31 32  1  0  0  0  0
 33 29  1  0  0  0  0
 33 32  1  0  0  0  0
 34 31  1  0  0  0  0
M  END
>  <MODEL>
3

>  <REMARK>
 VINA RESULT:     -10.2      3.875      7.464
  Name = 
  6 active torsions:
  status: ('A' for Active; 'I' for Inactive)
    1  A    between atoms: C_3  and  C_13
    2  A    between atoms: C_3  and  C_17
    3  A    between atoms: C_5  and  C_18
    4  A    between atoms: C_12  and  C_28
    5  A    between atoms: C_17  and  N_29
    6  A    between atoms: C_18  and  N_29
                            x       y       z     vdW  Elec       q    Type
                         _______ _______ _______ _____ _____    ______ ____

>  <TORSDO>
F 6

$$$$
=
 OpenBabel10252415093D

 34 38  0  0  1  0  0  0  0  0999 V2000
  188.2340  177.7470  146.4170 C   0  0  2  0  0  3  0  0  0  0  0  0
  191.2750  176.6300  145.0180 C   0  0  0  0  0  2  0  0  0  0  0  0
  189.4570  177.2310  143.4950 N   0  0  1  0  0  0  0  0  0  0  0  0
  188.8210  177.4740  141.0860 C   0  0  2  0  0  3  0  0  0  0  0  0
  190.0600  177.3040  147.8290 O   0  0  0  0  0  0  0  0  0  0  0  0
  191.1730  176.5120  147.5200 C   0  0  0  0  0  2  0  0  0  0  0  0
  191.1810  177.0680  141.7460 C   0  0  0  0  0  1  0  0  0  0  0  0
  190.4330  177.7590  144.4510 C   0  0  0  0  0  2  0  0  0  0  0  0
  188.9880  176.6830  147.1870 C   0  0  1  0  0  3  0  0  0  0  0  0
  188.1300  177.7560  143.9060 C   0  0  1  0  0  3  0  0  0  0  0  0
  187.6600  177.1940  147.7050 C   0  0  0  0  0  2  0  0  0  0  0  0
  191.9320  177.0690  146.3180 C   0  0  0  0  0  2  0  0  0  0  0  0
  187.4880  178.0630  141.4910 C   0  0  0  0  0  2  0  0  0  0  0  0
  187.0520  177.5190  142.8330 C   0  0  2  0  0  3  0  0  0  0  0  0
  189.8740  177.7390  142.1710 C   0  0  2  0  0  3  0  0  0  0  0  0
  187.6470  177.0710  145.1950 C   0  0  0  0  0  2  0  0  0  0  0  0
  183.4410  178.7300  142.6800 C   0  0  0  0  0  0  0  0  0  0  0  0
  183.2950  179.2940  143.9500 C   0  0  0  0  0  3  0  0  0  0  0  0
  185.7420  178.1540  143.2010 C   0  0  0  0  0  0  0  0  0  0  0  0
  184.3680  179.2870  144.8460 C   0  0  0  0  0  3  0  0  0  0  0  0
  184.6610  178.1610  142.3050 C   0  0  0  0  0  3  0  0  0  0  0  0
  185.5880  178.7170  144.4730 C   0  0  0  0  0  3  0  0  0  0  0  0
  182.4010  178.7320  141.8120 F   0  0  0  0  0  0  0  0  0  0  0  0
  189.2330  178.0580  139.7300 C   0  0  0  0  0  2  0  0  0  0  0  0
  188.1190  178.7490  139.0960 N   0  0  0  0  0  2  0  0  0  0  0  0
  187.8980  178.1110  137.8080 C   0  0  0  0  0  2  0  0  0  0  0  0
  186.6970  177.1840  137.8910 C   0  0  0  0  0  2  0  0  0  0  0  0
  184.9010  179.3850  139.1090 O   0  0  0  0  0  0  0  0  0  0  0  0
  185.4480  177.8640  137.3400 C   0  0  2  0  0  3  0  0  0  0  0  0
  184.5700  178.3580  138.4600 C   0  0  0  0  0  0  0  0  0  0  0  0
  182.8010  176.6210  137.9750 C   0  0  0  0  0  2  0  0  0  0  0  0
  183.8800  175.8900  137.1900 C   0  0  0  0  0  2  0  0  0  0  0  0
  184.6980  176.9100  136.4060 C   0  0  0  0  0  2  0  0  0  0  0  0
  183.3950  177.6340  138.8410 N   0  0  0  0  0  2  0  0  0  0  0  0
  1 16  1  6  0  0  0
  1  9  1  0  0  0  0
  1 11  1  0  0  0  0
  2 12  1  0  0  0  0
  3 10  1  0  0  0  0
  3  8  1  1  0  0  0
  4 24  1  6  0  0  0
  4 13  1  0  0  0  0
  4 15  1  0  0  0  0
  6  5  1  0  0  0  0
  8  2  1  0  0  0  0
  9 11  1  1  0  0  0
  9  5  1  0  0  0  0
 10 16  1  1  0  0  0
 12  6  1  0  0  0  0
 13 14  1  0  0  0  0
 14 19  1  1  0  0  0
 14 10  1  0  0  0  0
 15  7  1  6  0  0  0
 15  3  1  0  0  0  0
 17 18  1  0  0  0  0
 18 20  2  0  0  0  0
 19 22  2  0  0  0  0
 21 17  2  0  0  0  0
 21 19  1  0  0  0  0
 22 20  1  0  0  0  0
 23 17  1  0  0  0  0
 25 24  1  0  0  0  0
 26 27  1  0  0  0  0
 26 25  1  0  0  0  0
 29 27  1  1  0  0  0
 29 30  1  0  0  0  0
 30 34  1  0  0  0  0
 30 28  2  0  0  0  0
 31 34  1  0  0  0  0
 32 31  1  0  0  0  0
 33 32  1  0  0  0  0
 33 29  1  0  0  0  0
M  END
>  <MODEL>
4

>  <REMARK>
 VINA RESULT:      -9.9      3.273      5.944
  Name = 
  6 active torsions:
  status: ('A' for Active; 'I' for Inactive)
    1  A    between atoms: C_3  and  C_13
    2  A    between atoms: C_3  and  C_17
    3  A    between atoms: C_5  and  C_18
    4  A    between atoms: C_12  and  C_28
    5  A    between atoms: C_17  and  N_29
    6  A    between atoms: C_18  and  N_29
                            x       y       z     vdW  Elec       q    Type
                         _______ _______ _______ _____ _____    ______ ____

>  <TORSDO>
F 6

$$$$
=
 OpenBabel10252415093D

 34 38  0  0  1  0  0  0  0  0999 V2000
  186.5480  178.5940  146.0200 C   0  0  2  0  0  3  0  0  0  0  0  0
  189.6410  177.1950  146.9850 C   0  0  0  0  0  2  0  0  0  0  0  0
  189.0760  177.2160  144.6040 N   0  0  1  0  0  0  0  0  0  0  0  0
  189.9140  176.6560  142.3120 C   0  0  2  0  0  3  0  0  0  0  0  0
  187.2040  178.6880  148.2760 O   0  0  0  0  0  0  0  0  0  0  0  0
  188.1650  177.8790  148.8930 C   0  0  0  0  0  2  0  0  0  0  0  0
  191.4280  176.5630  144.2790 C   0  0  0  0  0  1  0  0  0  0  0  0
  189.4360  178.0550  145.7500 C   0  0  0  0  0  2  0  0  0  0  0  0
  186.5800  177.8590  147.3430 C   0  0  1  0  0  3  0  0  0  0  0  0
  187.8420  177.7980  144.0180 C   0  0  1  0  0  3  0  0  0  0  0  0
  185.2840  178.4620  146.8440 C   0  0  0  0  0  2  0  0  0  0  0  0
  189.5350  178.0490  148.2400 C   0  0  0  0  0  2  0  0  0  0  0  0
  188.6880  177.2970  141.7010 C   0  0  0  0  0  2  0  0  0  0  0  0
  187.5080  177.1940  142.6420 C   0  0  2  0  0  3  0  0  0  0  0  0
  190.2240  177.2890  143.6760 C   0  0  2  0  0  3  0  0  0  0  0  0
  186.6320  177.5440  144.9320 C   0  0  0  0  0  2  0  0  0  0  0  0
  184.0300  178.6490  142.0810 C   0  0  0  0  0  0  0  0  0  0  0  0
  184.1700  179.1880  140.8000 C   0  0  0  0  0  3  0  0  0  0  0  0
  186.3290  177.8680  142.0030 C   0  0  0  0  0  0  0  0  0  0  0  0
  185.3860  179.0700  140.1200 C   0  0  0  0  0  3  0  0  0  0  0  0
  185.1060  177.9910  142.6830 C   0  0  0  0  0  3  0  0  0  0  0  0
  186.4630  178.4130  140.7210 C   0  0  0  0  0  3  0  0  0  0  0  0
  182.8540  178.7660  142.7430 F   0  0  0  0  0  0  0  0  0  0  0  0
  191.0870  176.7910  141.3350 C   0  0  0  0  0  2  0  0  0  0  0  0
  190.7030  177.5560  140.1570 N   0  0  0  0  0  2  0  0  0  0  0  0
  190.8990  176.6920  139.0030 C   0  0  0  0  0  2  0  0  0  0  0  0
  189.5920  176.5420  138.2430 C   0  0  0  0  0  2  0  0  0  0  0  0
  189.0010  179.5740  138.1850 O   0  0  0  0  0  0  0  0  0  0  0  0
  189.5290  177.5180  137.0750 C   0  0  2  0  0  3  0  0  0  0  0  0
  188.6180  178.6750  137.3920 C   0  0  0  0  0  0  0  0  0  0  0  0
  186.8830  177.8970  135.7280 C   0  0  0  0  0  2  0  0  0  0  0  0
  187.5930  176.5520  135.7720 C   0  0  0  0  0  2  0  0  0  0  0  0
  189.0990  176.7870  135.8000 C   0  0  0  0  0  2  0  0  0  0  0  0
  187.2920  178.7300  136.8540 N   0  0  0  0  0  2  0  0  0  0  0  0
  1 16  1  6  0  0  0
  1 11  1  0  0  0  0
  1  9  1  0  0  0  0
  2 12  1  0  0  0  0
  3  8  1  1  0  0  0
  4 24  1  6  0  0  0
  4 15  1  0  0  0  0
  5  6  1  0  0  0  0
  8  2  1  0  0  0  0
  9 11  1  1  0  0  0
  9  5  1  0  0  0  0
 10  3  1  0  0  0  0
 10 16  1  1  0  0  0
 12  6  1  0  0  0  0
 13  4  1  0  0  0  0
 13 14  1  0  0  0  0
 14 19  1  6  0  0  0
 14 10  1  0  0  0  0
 15  7  1  1  0  0  0
 15  3  1  0  0  0  0
 17 21  1  0  0  0  0
 17 23  1  0  0  0  0
 18 17  2  0  0  0  0
 19 21  2  0  0  0  0
 20 22  2  0  0  0  0
 20 18  1  0  0  0  0
 22 19  1  0  0  0  0
 25 24  1  0  0  0  0
 26 25  1  0  0  0  0
 27 26  1  0  0  0  0
 29 30  1  0  0  0  0
 29 27  1  1  0  0  0
 30 28  2  0  0  0  0
 31 32  1  0  0  0  0
 31 34  1  0  0  0  0
 32 33  1  0  0  0  0
 33 29  1  0  0  0  0
 34 30  1  0  0  0  0
M  END
>  <MODEL>
5

>  <REMARK>
 VINA RESULT:      -9.7      3.710      7.663
  Name = 
  6 active torsions:
  status: ('A' for Active; 'I' for Inactive)
    1  A    between atoms: C_3  and  C_13
    2  A    between atoms: C_3  and  C_17
    3  A    between atoms: C_5  and  C_18
    4  A    between atoms: C_12  and  C_28
    5  A    between atoms: C_17  and  N_29
    6  A    between atoms: C_18  and  N_29
                            x       y       z     vdW  Elec       q    Type
                         _______ _______ _______ _____ _____    ______ ____

>  <TORSDO>
F 6

$$$$
=
 OpenBabel10252415093D

 34 38  0  0  1  0  0  0  0  0999 V2000
  187.9850  177.8170  146.3100 C   0  0  2  0  0  3  0  0  0  0  0  0
  191.0330  176.7360  144.8970 C   0  0  0  0  0  2  0  0  0  0  0  0
  189.2130  177.3520  143.3820 N   0  0  1  0  0  0  0  0  0  0  0  0
  188.5780  177.6280  140.9760 C   0  0  2  0  0  3  0  0  0  0  0  0
  189.8130  177.3610  147.7170 O   0  0  0  0  0  0  0  0  0  0  0  0
  190.9290  176.5800  147.3970 C   0  0  0  0  0  2  0  0  0  0  0  0
  190.9400  177.2240  141.6310 C   0  0  0  0  0  1  0  0  0  0  0  0
  190.1860  177.8700  144.3460 C   0  0  0  0  0  2  0  0  0  0  0  0
  188.7440  176.7460  147.0640 C   0  0  1  0  0  3  0  0  0  0  0  0
  187.8830  177.8640  143.7990 C   0  0  1  0  0  3  0  0  0  0  0  0
  187.4130  177.2420  147.5880 C   0  0  0  0  0  2  0  0  0  0  0  0
  191.6870  177.1590  146.2040 C   0  0  0  0  0  2  0  0  0  0  0  0
  187.2420  178.2050  141.3880 C   0  0  0  0  0  2  0  0  0  0  0  0
  186.8070  177.6380  142.7220 C   0  0  2  0  0  3  0  0  0  0  0  0
  189.6290  177.8820  142.0660 C   0  0  2  0  0  3  0  0  0  0  0  0
  187.4030  177.1570  145.0770 C   0  0  0  0  0  2  0  0  0  0  0  0
  183.1860  178.8200  142.5900 C   0  0  0  0  0  0  0  0  0  0  0  0
  183.0420  179.3780  143.8630 C   0  0  0  0  0  3  0  0  0  0  0  0
  185.4950  178.2610  143.0990 C   0  0  0  0  0  0  0  0  0  0  0  0
  184.1190  179.3780  144.7540 C   0  0  0  0  0  3  0  0  0  0  0  0
  184.4090  178.2620  142.2080 C   0  0  0  0  0  3  0  0  0  0  0  0
  185.3420  178.8190  144.3730 C   0  0  0  0  0  3  0  0  0  0  0  0
  182.1420  178.8150  141.7280 F   0  0  0  0  0  0  0  0  0  0  0  0
  188.9890  178.2360  139.6290 C   0  0  0  0  0  2  0  0  0  0  0  0
  187.8210  178.6250  138.8510 N   0  0  0  0  0  2  0  0  0  0  0  0
  188.2200  178.6280  137.4530 C   0  0  0  0  0  2  0  0  0  0  0  0
  187.0760  178.1270  136.5880 C   0  0  0  0  0  2  0  0  0  0  0  0
  187.5770  175.1430  137.2130 O   0  0  0  0  0  0  0  0  0  0  0  0
  186.2250  177.1160  137.3470 C   0  0  2  0  0  3  0  0  0  0  0  0
  186.5090  175.7140  136.8730 C   0  0  0  0  0  0  0  0  0  0  0  0
  184.2410  175.5180  135.7750 C   0  0  0  0  0  2  0  0  0  0  0  0
  184.1790  177.0350  135.8680 C   0  0  0  0  0  2  0  0  0  0  0  0
  184.7420  177.4720  137.2160 C   0  0  0  0  0  2  0  0  0  0  0  0
  185.6070  175.0480  135.9830 N   0  0  0  0  0  2  0  0  0  0  0  0
  1 16  1  6  0  0  0
  1  9  1  0  0  0  0
  1 11  1  0  0  0  0
  2 12  1  0  0  0  0
  3 10  1  0  0  0  0
  3  8  1  1  0  0  0
  4 24  1  6  0  0  0
  4 13  1  0  0  0  0
  4 15  1  0  0  0  0
  6  5  1  0  0  0  0
  8  2  1  0  0  0  0
  9 11  1  1  0  0  0
  9  5  1  0  0  0  0
 10 16  1  1  0  0  0
 12  6  1  0  0  0  0
 13 14  1  0  0  0  0
 14 19  1  1  0  0  0
 14 10  1  0  0  0  0
 15  7  1  6  0  0  0
 15  3  1  0  0  0  0
 17 18  1  0  0  0  0
 18 20  2  0  0  0  0
 19 22  2  0  0  0  0
 21 17  2  0  0  0  0
 21 19  1  0  0  0  0
 22 20  1  0  0  0  0
 23 17  1  0  0  0  0
 25 24  1  0  0  0  0
 26 25  1  0  0  0  0
 27 26  1  0  0  0  0
 29 27  1  6  0  0  0
 30 28  2  0  0  0  0
 30 29  1  0  0  0  0
 31 32  1  0  0  0  0
 31 34  1  0  0  0  0
 32 33  1  0  0  0  0
 33 29  1  0  0  0  0
 34 30  1  0  0  0  0
M  END
>  <MODEL>
6

>  <REMARK>
 VINA RESULT:      -9.7      3.666      6.373
  Name = 
  6 active torsions:
  status: ('A' for Active; 'I' for Inactive)
    1  A    between atoms: C_3  and  C_13
    2  A    between atoms: C_3  and  C_17
    3  A    between atoms: C_5  and  C_18
    4  A    between atoms: C_12  and  C_28
    5  A    between atoms: C_17  and  N_29
    6  A    between atoms: C_18  and  N_29
                            x       y       z     vdW  Elec       q    Type
                         _______ _______ _______ _____ _____    ______ ____

>  <TORSDO>
F 6

$$$$
=
 OpenBabel10252415093D

 34 38  0  0  1  0  0  0  0  0999 V2000
  187.1220  177.6060  146.3680 C   0  0  2  0  0  3  0  0  0  0  0  0
  185.5790  178.7000  143.3880 C   0  0  0  0  0  2  0  0  0  0  0  0
  187.8910  177.9080  143.2670 N   0  0  1  0  0  0  0  0  0  0  0  0
  189.7990  177.4370  141.7160 C   0  0  2  0  0  3  0  0  0  0  0  0
  184.8550  178.2300  146.4030 O   0  0  0  0  0  0  0  0  0  0  0  0
  184.2020  179.0290  145.4570 C   0  0  0  0  0  2  0  0  0  0  0  0
  187.5420  177.9770  140.8310 C   0  0  0  0  0  1  0  0  0  0  0  0
  186.5020  177.4980  143.4860 C   0  0  0  0  0  2  0  0  0  0  0  0
  186.1450  178.7570  146.4890 C   0  0  1  0  0  3  0  0  0  0  0  0
  188.6780  177.3770  144.4080 C   0  0  1  0  0  3  0  0  0  0  0  0
  186.8710  178.2480  147.7160 C   0  0  0  0  0  2  0  0  0  0  0  0
  184.2520  178.3970  144.0680 C   0  0  0  0  0  2  0  0  0  0  0  0
  190.5890  176.8400  142.8590 C   0  0  0  0  0  2  0  0  0  0  0  0
  190.1960  177.4840  144.1700 C   0  0  2  0  0  3  0  0  0  0  0  0
  188.2930  177.3020  141.9800 C   0  0  2  0  0  3  0  0  0  0  0  0
  188.3650  178.1530  145.6970 C   0  0  0  0  0  2  0  0  0  0  0  0
  191.7250  176.7550  147.5850 C   0  0  0  0  0  0  0  0  0  0  0  0
  192.4200  175.5720  147.3180 C   0  0  0  0  0  3  0  0  0  0  0  0
  190.9850  176.8390  145.2730 C   0  0  0  0  0  0  0  0  0  0  0  0
  192.3980  175.0210  146.0340 C   0  0  0  0  0  3  0  0  0  0  0  0
  191.0080  177.3870  146.5660 C   0  0  0  0  0  3  0  0  0  0  0  0
  191.6800  175.6530  145.0140 C   0  0  0  0  0  3  0  0  0  0  0  0
  191.7410  177.2870  148.8300 F   0  0  0  0  0  0  0  0  0  0  0  0
  190.2170  176.7520  140.4100 C   0  0  0  0  0  2  0  0  0  0  0  0
  191.2930  177.4820  139.7550 N   0  0  0  0  0  2  0  0  0  0  0  0
  191.3970  176.9660  138.3990 C   0  0  0  0  0  2  0  0  0  0  0  0
  190.0120  176.6530  137.8590 C   0  0  0  0  0  2  0  0  0  0  0  0
  189.0560  179.5810  138.1050 O   0  0  0  0  0  0  0  0  0  0  0  0
  189.6080  177.6590  136.7870 C   0  0  2  0  0  3  0  0  0  0  0  0
  188.6400  178.6720  137.3400 C   0  0  0  0  0  0  0  0  0  0  0  0
  186.7280  177.7390  135.9790 C   0  0  0  0  0  2  0  0  0  0  0  0
  187.5910  176.4980  135.8050 C   0  0  0  0  0  2  0  0  0  0  0  0
  189.0340  176.9280  135.5690 C   0  0  0  0  0  2  0  0  0  0  0  0
  187.2400  178.5730  137.0610 N   0  0  0  0  0  2  0  0  0  0  0  0
  1 16  1  6  0  0  0
  1  9  1  0  0  0  0
  1 11  1  0  0  0  0
  2  8  1  0  0  0  0
  2 12  1  0  0  0  0
  3  8  1  1  0  0  0
  3 10  1  0  0  0  0
  4 24  1  6  0  0  0
  4 15  1  0  0  0  0
  4 13  1  0  0  0  0
  5  9  1  0  0  0  0
  6  5  1  0  0  0  0
  9 11  1  1  0  0  0
 10 16  1  1  0  0  0
 12  6  1  0  0  0  0
 13 14  1  0  0  0  0
 14 10  1  0  0  0  0
 14 19  1  1  0  0  0
 15  7  1  6  0  0  0
 15  3  1  0  0  0  0
 17 23  1  0  0  0  0
 18 17  1  0  0  0  0
 19 21  1  0  0  0  0
 20 18  2  0  0  0  0
 21 17  2  0  0  0  0
 22 19  2  0  0  0  0
 22 20  1  0  0  0  0
 25 24  1  0  0  0  0
 26 25  1  0  0  0  0
 27 26  1  0  0  0  0
 29 30  1  0  0  0  0
 29 27  1  1  0  0  0
 30 28  2  0  0  0  0
 31 34  1  0  0  0  0
 32 31  1  0  0  0  0
 33 32  1  0  0  0  0
 33 29  1  0  0  0  0
 34 30  1  0  0  0  0
M  END
>  <MODEL>
7

>  <REMARK>
 VINA RESULT:      -9.6      3.384      6.839
  Name = 
  6 active torsions:
  status: ('A' for Active; 'I' for Inactive)
    1  A    between atoms: C_3  and  C_13
    2  A    between atoms: C_3  and  C_17
    3  A    between atoms: C_5  and  C_18
    4  A    between atoms: C_12  and  C_28
    5  A    between atoms: C_17  and  N_29
    6  A    between atoms: C_18  and  N_29
                            x       y       z     vdW  Elec       q    Type
                         _______ _______ _______ _____ _____    ______ ____

>  <TORSDO>
F 6

$$$$
=
 OpenBabel10252415093D

 34 38  0  0  1  0  0  0  0  0999 V2000
  181.4060  178.1970  143.3580 C   0  0  2  0  0  3  0  0  0  0  0  0
  181.2180  178.7650  139.8800 C   0  0  0  0  0  2  0  0  0  0  0  0
  183.4320  178.6910  140.9190 N   0  0  1  0  0  0  0  0  0  0  0  0
  185.8930  178.7940  140.4690 C   0  0  2  0  0  3  0  0  0  0  0  0
  179.3140  178.1240  142.2870 O   0  0  0  0  0  0  0  0  0  0  0  0
  179.0000  178.6880  141.0450 C   0  0  0  0  0  2  0  0  0  0  0  0
  184.2620  178.6370  138.6020 C   0  0  0  0  0  1  0  0  0  0  0  0
  182.2620  177.8900  140.5510 C   0  0  0  0  0  2  0  0  0  0  0  0
  180.2270  179.0080  142.8630 C   0  0  1  0  0  3  0  0  0  0  0  0
  183.6990  178.4240  142.3550 C   0  0  1  0  0  3  0  0  0  0  0  0
  180.3960  178.7450  144.3440 C   0  0  0  0  0  2  0  0  0  0  0  0
  179.8570  178.0880  139.9320 C   0  0  0  0  0  2  0  0  0  0  0  0
  186.1780  178.4650  141.9170 C   0  0  0  0  0  2  0  0  0  0  0  0
  185.0640  178.9730  142.8070 C   0  0  2  0  0  3  0  0  0  0  0  0
  184.5310  178.2220  140.0490 C   0  0  2  0  0  3  0  0  0  0  0  0
  182.6290  179.0820  143.2410 C   0  0  0  0  0  2  0  0  0  0  0  0
  186.8650  177.6290  145.8860 C   0  0  0  0  0  0  0  0  0  0  0  0
  185.9610  177.9710  146.8940 C   0  0  0  0  0  3  0  0  0  0  0  0
  185.3800  178.5980  144.2260 C   0  0  0  0  0  0  0  0  0  0  0  0
  184.7690  178.6260  146.5730 C   0  0  0  0  0  3  0  0  0  0  0  0
  186.5780  177.9420  144.5550 C   0  0  0  0  0  3  0  0  0  0  0  0
  184.4800  178.9400  145.2410 C   0  0  0  0  0  3  0  0  0  0  0  0
  188.0230  176.9990  146.1960 F   0  0  0  0  0  0  0  0  0  0  0  0
  187.0350  178.2530  139.6010 C   0  0  0  0  0  2  0  0  0  0  0  0
  188.3310  178.6510  140.1320 N   0  0  0  0  0  2  0  0  0  0  0  0
  189.0780  177.4320  140.3970 C   0  0  0  0  0  2  0  0  0  0  0  0
  190.2330  177.7280  141.3390 C   0  0  0  0  0  2  0  0  0  0  0  0
  190.6720  179.7260  143.6550 O   0  0  0  0  0  0  0  0  0  0  0  0
  189.7740  177.6800  142.7920 C   0  0  2  0  0  3  0  0  0  0  0  0
  190.7060  178.4680  143.6740 C   0  0  0  0  0  0  0  0  0  0  0  0
  191.5940  176.3760  144.7770 C   0  0  0  0  0  2  0  0  0  0  0  0
  191.0030  175.6240  143.5940 C   0  0  0  0  0  2  0  0  0  0  0  0
  189.6440  176.2260  143.2550 C   0  0  0  0  0  2  0  0  0  0  0  0
  191.6790  177.8030  144.4870 N   0  0  0  0  0  2  0  0  0  0  0  0
  1 16  1  1  0  0  0
  1 11  1  0  0  0  0
  2 12  1  0  0  0  0
  2  8  1  0  0  0  0
  3  8  1  6  0  0  0
  3 10  1  0  0  0  0
  4 24  1  6  0  0  0
  4 13  1  0  0  0  0
  5  9  1  0  0  0  0
  6  5  1  0  0  0  0
  9  1  1  0  0  0  0
  9 11  1  1  0  0  0
 10 14  1  0  0  0  0
 10 16  1  1  0  0  0
 12  6  1  0  0  0  0
 13 14  1  0  0  0  0
 14 19  1  1  0  0  0
 15  7  1  6  0  0  0
 15  4  1  0  0  0  0
 15  3  1  0  0  0  0
 17 23  1  0  0  0  0
 17 18  1  0  0  0  0
 19 21  1  0  0  0  0
 19 22  2  0  0  0  0
 20 18  2  0  0  0  0
 21 17  2  0  0  0  0
 22 20  1  0  0  0  0
 24 25  1  0  0  0  0
 25 26  1  0  0  0  0
 26 27  1  0  0  0  0
 28 30  2  0  0  0  0
 29 27  1  6  0  0  0
 29 33  1  0  0  0  0
 29 30  1  0  0  0  0
 30 34  1  0  0  0  0
 32 31  1  0  0  0  0
 33 32  1  0  0  0  0
 34 31  1  0  0  0  0
M  END
>  <MODEL>
8

>  <REMARK>
 VINA RESULT:      -9.5      1.904      7.972
  Name = 
  6 active torsions:
  status: ('A' for Active; 'I' for Inactive)
    1  A    between atoms: C_3  and  C_13
    2  A    between atoms: C_3  and  C_17
    3  A    between atoms: C_5  and  C_18
    4  A    between atoms: C_12  and  C_28
    5  A    between atoms: C_17  and  N_29
    6  A    between atoms: C_18  and  N_29
                            x       y       z     vdW  Elec       q    Type
                         _______ _______ _______ _____ _____    ______ ____

>  <TORSDO>
F 6

$$$$
=
 OpenBabel10252415093D

 34 38  0  0  1  0  0  0  0  0999 V2000
  189.9560  176.8140  144.5980 C   0  0  2  0  0  3  0  0  0  0  0  0
  187.1190  178.2530  146.1270 C   0  0  0  0  0  2  0  0  0  0  0  0
  187.2650  178.3040  143.6840 N   0  0  1  0  0  0  0  0  0  0  0  0
  186.0640  178.9680  141.5910 C   0  0  2  0  0  3  0  0  0  0  0  0
  189.6940  176.6540  146.9290 O   0  0  0  0  0  0  0  0  0  0  0  0
  188.8790  177.4640  147.7280 C   0  0  0  0  0  2  0  0  0  0  0  0
  184.9140  179.0270  143.7920 C   0  0  0  0  0  1  0  0  0  0  0  0
  187.0820  177.4330  144.8480 C   0  0  0  0  0  2  0  0  0  0  0  0
  190.1740  177.5010  145.9300 C   0  0  1  0  0  3  0  0  0  0  0  0
  188.3620  177.7130  142.8760 C   0  0  1  0  0  3  0  0  0  0  0  0
  191.3450  176.8840  145.1950 C   0  0  0  0  0  2  0  0  0  0  0  0
  187.4120  177.3520  147.3170 C   0  0  0  0  0  2  0  0  0  0  0  0
  187.1460  178.3190  140.7570 C   0  0  0  0  0  2  0  0  0  0  0  0
  188.4720  178.3580  141.4830 C   0  0  2  0  0  3  0  0  0  0  0  0
  185.9730  178.2940  142.9670 C   0  0  2  0  0  3  0  0  0  0  0  0
  189.7180  177.9040  143.5740 C   0  0  0  0  0  2  0  0  0  0  0  0
  190.1240  176.4270  138.6420 C   0  0  0  0  0  0  0  0  0  0  0  0
  191.4660  176.4780  139.0300 C   0  0  0  0  0  3  0  0  0  0  0  0
  189.5030  177.6790  140.6290 C   0  0  0  0  0  0  0  0  0  0  0  0
  191.8280  177.1280  140.2130 C   0  0  0  0  0  3  0  0  0  0  0  0
  189.1450  177.0270  139.4380 C   0  0  0  0  0  3  0  0  0  0  0  0
  190.8490  177.7290  141.0100 C   0  0  0  0  0  3  0  0  0  0  0  0
  189.7720  175.8010  137.4940 F   0  0  0  0  0  0  0  0  0  0  0  0
  184.7360  178.8970  140.8270 C   0  0  0  0  0  2  0  0  0  0  0  0
  184.9360  179.1380  139.4050 N   0  0  0  0  0  2  0  0  0  0  0  0
  184.1790  178.1230  138.6890 C   0  0  0  0  0  2  0  0  0  0  0  0
  184.8050  177.8780  137.3260 C   0  0  0  0  0  2  0  0  0  0  0  0
  187.4910  179.3780  137.0330 O   0  0  0  0  0  0  0  0  0  0  0  0
  186.2400  177.3820  137.4690 C   0  0  2  0  0  3  0  0  0  0  0  0
  187.1810  178.2210  136.6450 C   0  0  0  0  0  0  0  0  0  0  0  0
  187.5950  176.3360  135.0150 C   0  0  0  0  0  2  0  0  0  0  0  0
  186.3350  175.7020  135.5860 C   0  0  0  0  0  2  0  0  0  0  0  0
  186.3240  175.8990  137.0980 C   0  0  0  0  0  2  0  0  0  0  0  0
  187.6750  177.7440  135.3890 N   0  0  0  0  0  2  0  0  0  0  0  0
  1 16  1  6  0  0  0
  1 11  1  0  0  0  0
  1  9  1  0  0  0  0
  2 12  1  0  0  0  0
  3  8  1  1  0  0  0
  4 24  1  6  0  0  0
  4 15  1  0  0  0  0
  5  6  1  0  0  0  0
  8  2  1  0  0  0  0
  9 11  1  1  0  0  0
  9  5  1  0  0  0  0
 10 16  1  1  0  0  0
 10  3  1  0  0  0  0
 12  6  1  0  0  0  0
 13 14  1  0  0  0  0
 13  4  1  0  0  0  0
 14 19  1  6  0  0  0
 14 10  1  0  0  0  0
 15  3  1  0  0  0  0
 15  7  1  1  0  0  0
 17 18  2  0  0  0  0
 17 21  1  0  0  0  0
 18 20  1  0  0  0  0
 19 22  1  0  0  0  0
 20 22  2  0  0  0  0
 21 19  2  0  0  0  0
 23 17  1  0  0  0  0
 25 24  1  0  0  0  0
 26 25  1  0  0  0  0
 27 26  1  0  0  0  0
 29 27  1  6  0  0  0
 30 28  2  0  0  0  0
 30 29  1  0  0  0  0
 31 34  1  0  0  0  0
 31 32  1  0  0  0  0
 32 33  1  0  0  0  0
 33 29  1  0  0  0  0
 34 30  1  0  0  0  0
M  END
>  <MODEL>
9

>  <REMARK>
 VINA RESULT:      -9.5      3.607      6.540
  Name = 
  6 active torsions:
  status: ('A' for Active; 'I' for Inactive)
    1  A    between atoms: C_3  and  C_13
    2  A    between atoms: C_3  and  C_17
    3  A    between atoms: C_5  and  C_18
    4  A    between atoms: C_12  and  C_28
    5  A    between atoms: C_17  and  N_29
    6  A    between atoms: C_18  and  N_29
                            x       y       z     vdW  Elec       q    Type
                         _______ _______ _______ _____ _____    ______ ____

>  <TORSDO>
F 6

$$$$
