=
 OpenBabel10262421283D

 32 38  0  0  1  0  0  0  0  0999 V2000
  189.0590  177.4700  141.4450 C   0  0  1  0  0  3  0  0  0  0  0  0
  191.5690  176.0160  144.8790 C   0  0  0  0  0  2  0  0  0  0  0  0
  191.6080  177.3840  145.5590 C   0  0  0  0  0  2  0  0  0  0  0  0
  186.7620  178.1410  142.2400 C   0  0  0  0  0  0  0  0  0  0  0  0
  186.3280  178.4170  140.9560 C   0  0  0  0  0  0  0  0  0  0  0  0
  184.6630  178.8830  143.1880 C   0  0  0  0  0  0  0  0  0  0  0  0
  190.8430  176.6170  142.7260 O   0  0  0  0  0  0  0  0  0  0  0  0
  189.9160  176.2550  141.7500 C   0  0  0  0  0  2  0  0  0  0  0  0
  190.3930  176.0480  143.9250 C   0  0  2  0  0  3  0  0  0  0  0  0
  188.2150  177.4740  143.9190 C   0  0  0  0  0  0  0  0  0  0  0  0
  184.2100  179.1820  141.8900 C   0  0  0  0  0  3  0  0  0  0  0  0
  185.0420  178.9520  140.7730 C   0  0  0  0  0  3  0  0  0  0  0  0
  190.2740  178.0580  145.2760 C   0  0  0  0  0  2  0  0  0  0  0  0
  189.4280  176.9740  144.6550 C   0  0  2  0  0  3  0  0  0  0  0  0
  186.7930  177.9410  144.7210 S   0  0  0  0  0  0  0  0  0  0  0  0
  188.4470  177.3890  140.0100 C   0  0  1  0  0  3  0  0  0  0  0  0
  187.2050  178.1660  139.8600 N   0  0  0  0  0  2  0  0  0  0  0  0
  183.8500  179.1090  144.2920 O   0  0  0  0  0  1  0  0  0  0  0  0
  188.0290  177.6490  142.5340 C   0  0  0  0  0  0  0  0  0  0  0  0
  185.9500  178.3620  143.3320 C   0  0  0  0  0  0  0  0  0  0  0  0
  190.6560  175.8310  138.1590 C   0  0  0  0  0  2  0  0  0  0  0  0
  189.4370  177.7150  138.8430 C   0  0  1  0  0  0  0  0  0  0  0  0
  189.1130  179.0530  138.1960 C   0  0  0  0  0  1  0  0  0  0  0  0
  191.6410  176.6960  138.9050 C   0  0  0  0  0  2  0  0  0  0  0  0
  190.8280  177.8510  139.4440 C   0  0  0  0  0  2  0  0  0  0  0  0
  189.5430  176.6860  137.7840 N   0  0  0  0  0  0  0  0  0  0  0  0
  188.3590  175.8440  137.6120 C   0  0  0  0  0  2  0  0  0  0  0  0
  186.5280  177.0640  136.4550 C   0  0  0  0  0  2  0  0  0  0  0  0
  188.6360  176.8010  135.3940 N   0  0  0  0  0  2  0  0  0  0  0  0
  186.7540  178.1160  135.4040 C   0  0  0  0  0  2  0  0  0  0  0  0
  187.6950  176.1320  136.2770 C   0  0  1  0  0  3  0  0  0  0  0  0
  187.8810  177.6760  134.5950 N   0  0  0  0  0  2  0  0  0  0  0  0
  1  8  1  1  0  0  0
  1 19  1  0  0  0  0
  2  3  1  0  0  0  0
  4 19  1  0  0  0  0
  4 20  1  0  0  0  0
  5  4  2  0  0  0  0
  6 20  2  0  0  0  0
  6 18  1  0  0  0  0
  7  9  1  0  0  0  0
  8  7  1  0  0  0  0
  9 14  1  0  0  0  0
  9  2  1  1  0  0  0
 10 14  1  0  0  0  0
 10 15  1  0  0  0  0
 11  6  1  0  0  0  0
 12  5  1  0  0  0  0
 12 11  2  0  0  0  0
 13  3  1  0  0  0  0
 14 13  1  6  0  0  0
 16 17  1  1  0  0  0
 16  1  1  0  0  0  0
 17  5  1  0  0  0  0
 19 10  2  0  0  0  0
 20 15  1  0  0  0  0
 21 24  1  0  0  0  0
 22 23  1  6  0  0  0
 22 25  1  0  0  0  0
 22 16  1  0  0  0  0
 24 25  1  0  0  0  0
 26 21  1  0  0  0  0
 26 22  1  0  0  0  0
 27 26  1  0  0  0  0
 29 31  1  0  0  0  0
 30 28  1  0  0  0  0
 31 28  1  0  0  0  0
 31 27  1  1  0  0  0
 32 29  1  0  0  0  0
 32 30  1  0  0  0  0
M  END
>  <MODEL>
1

>  <REMARK>
 VINA RESULT:      -8.0      0.000      0.000
  Name = 
  3 active torsions:
  status: ('A' for Active; 'I' for Inactive)
    1  A    between atoms: C_8  and  C_28
    2  A    between atoms: C_19  and  C_24
    3  A    between atoms: N_23  and  C_24
                            x       y       z     vdW  Elec       q    Type
                         _______ _______ _______ _____ _____    ______ ____

>  <TORSDO>
F 3

$$$$
=
 OpenBabel10262421283D

 32 38  0  0  1  0  0  0  0  0999 V2000
  187.6980  177.7760  140.8600 C   0  0  1  0  0  3  0  0  0  0  0  0
  187.2990  178.2940  136.4130 C   0  0  0  0  0  2  0  0  0  0  0  0
  186.2560  177.1860  136.2780 C   0  0  0  0  0  2  0  0  0  0  0  0
  185.5560  178.4150  142.0280 C   0  0  0  0  0  0  0  0  0  0  0  0
  186.1030  178.2090  143.2820 C   0  0  0  0  0  0  0  0  0  0  0  0
  183.3870  178.9180  142.9760 C   0  0  0  0  0  0  0  0  0  0  0  0
  188.1590  177.8280  138.5500 O   0  0  0  0  0  0  0  0  0  0  0  0
  188.4830  178.4550  139.7530 C   0  0  0  0  0  2  0  0  0  0  0  0
  187.2990  178.7030  137.8710 C   0  0  2  0  0  3  0  0  0  0  0  0
  185.4700  178.5210  139.7140 C   0  0  0  0  0  0  0  0  0  0  0  0
  183.9240  178.6990  144.2580 C   0  0  0  0  0  3  0  0  0  0  0  0
  185.2810  178.3420  144.4130 C   0  0  0  0  0  3  0  0  0  0  0  0
  185.4180  177.2090  137.5470 C   0  0  0  0  0  2  0  0  0  0  0  0
  185.8450  178.4690  138.2580 C   0  0  2  0  0  3  0  0  0  0  0  0
  183.9030  178.9150  140.2350 S   0  0  0  0  0  0  0  0  0  0  0  0
  188.4040  177.9440  142.2430 C   0  0  1  0  0  3  0  0  0  0  0  0
  187.4800  177.8520  143.3860 N   0  0  0  0  0  2  0  0  0  0  0  0
  182.0520  179.2670  142.8160 O   0  0  0  0  0  1  0  0  0  0  0  0
  186.2710  178.2690  140.8450 C   0  0  0  0  0  0  0  0  0  0  0  0
  184.2320  178.7660  141.8750 C   0  0  0  0  0  0  0  0  0  0  0  0
  191.6710  178.1840  142.2220 C   0  0  0  0  0  2  0  0  0  0  0  0
  189.6480  177.0230  142.4740 C   0  0  1  0  0  0  0  0  0  0  0  0
  189.2570  175.7210  143.1550 C   0  0  0  0  0  1  0  0  0  0  0  0
  191.5580  177.3050  141.0000 C   0  0  0  0  0  2  0  0  0  0  0  0
  190.2020  176.6470  141.1070 C   0  0  0  0  0  2  0  0  0  0  0  0
  190.7700  177.6350  143.2210 N   0  0  0  0  0  0  0  0  0  0  0  0
  190.3960  178.7110  144.1380 C   0  0  0  0  0  2  0  0  0  0  0  0
  189.4930  177.8200  146.2770 C   0  0  0  0  0  2  0  0  0  0  0  0
  191.6870  177.2360  145.5770 N   0  0  0  0  0  2  0  0  0  0  0  0
  189.9540  176.5370  146.9100 C   0  0  0  0  0  2  0  0  0  0  0  0
  190.7230  178.3240  145.5690 C   0  0  1  0  0  3  0  0  0  0  0  0
  191.3920  176.4480  146.7030 N   0  0  0  0  0  2  0  0  0  0  0  0
  1  8  1  6  0  0  0
  1 16  1  0  0  0  0
  3  2  1  0  0  0  0
  3 13  1  0  0  0  0
  4  5  1  0  0  0  0
  5 17  1  0  0  0  0
  5 12  2  0  0  0  0
  6 11  2  0  0  0  0
  7  8  1  0  0  0  0
  9  2  1  6  0  0  0
  9 14  1  0  0  0  0
  9  7  1  0  0  0  0
 10 15  1  0  0  0  0
 10 19  2  0  0  0  0
 11 12  1  0  0  0  0
 14 13  1  1  0  0  0
 14 10  1  0  0  0  0
 15 20  1  0  0  0  0
 16 22  1  0  0  0  0
 16 17  1  1  0  0  0
 18  6  1  0  0  0  0
 19  1  1  0  0  0  0
 19  4  1  0  0  0  0
 20  4  2  0  0  0  0
 20  6  1  0  0  0  0
 21 26  1  0  0  0  0
 22 23  1  1  0  0  0
 22 26  1  0  0  0  0
 24 25  1  0  0  0  0
 24 21  1  0  0  0  0
 25 22  1  0  0  0  0
 26 27  1  0  0  0  0
 28 30  1  0  0  0  0
 29 32  1  0  0  0  0
 31 27  1  6  0  0  0
 31 29  1  0  0  0  0
 31 28  1  0  0  0  0
 32 30  1  0  0  0  0
M  END
>  <MODEL>
2

>  <REMARK>
 VINA RESULT:      -7.9      3.115      6.508
  Name = 
  3 active torsions:
  status: ('A' for Active; 'I' for Inactive)
    1  A    between atoms: C_8  and  C_28
    2  A    between atoms: C_19  and  C_24
    3  A    between atoms: N_23  and  C_24
                            x       y       z     vdW  Elec       q    Type
                         _______ _______ _______ _____ _____    ______ ____

>  <TORSDO>
F 3

$$$$
=
 OpenBabel10262421283D

 32 38  0  0  1  0  0  0  0  0999 V2000
  188.2130  177.7350  140.7150 C   0  0  1  0  0  3  0  0  0  0  0  0
  189.1270  178.1230  136.3310 C   0  0  0  0  0  2  0  0  0  0  0  0
  188.1810  176.9910  135.9330 C   0  0  0  0  0  2  0  0  0  0  0  0
  185.8170  178.3640  141.1850 C   0  0  0  0  0  0  0  0  0  0  0  0
  185.9750  178.2030  142.5500 C   0  0  0  0  0  0  0  0  0  0  0  0
  183.4600  178.8500  141.4420 C   0  0  0  0  0  0  0  0  0  0  0  0
  189.3290  177.7330  138.6400 O   0  0  0  0  0  0  0  0  0  0  0  0
  189.2800  178.3980  139.8640 C   0  0  0  0  0  2  0  0  0  0  0  0
  188.6960  178.5710  137.7120 C   0  0  2  0  0  3  0  0  0  0  0  0
  186.4090  178.4050  138.9450 C   0  0  0  0  0  0  0  0  0  0  0  0
  183.6010  178.6780  142.8310 C   0  0  0  0  0  3  0  0  0  0  0  0
  184.8570  178.3520  143.3870 C   0  0  0  0  0  3  0  0  0  0  0  0
  187.0070  177.0330  136.9000 C   0  0  0  0  0  2  0  0  0  0  0  0
  187.1950  178.3200  137.6650 C   0  0  2  0  0  3  0  0  0  0  0  0
  184.7540  178.7820  138.9730 S   0  0  0  0  0  0  0  0  0  0  0  0
  188.4820  177.9550  142.2380 C   0  0  1  0  0  3  0  0  0  0  0  0
  187.2640  177.8760  143.0630 N   0  0  0  0  0  2  0  0  0  0  0  0
  182.2260  179.1690  140.8880 O   0  0  0  0  0  1  0  0  0  0  0  0
  186.8480  178.2000  140.2680 C   0  0  0  0  0  0  0  0  0  0  0  0
  184.5910  178.6850  140.6410 C   0  0  0  0  0  0  0  0  0  0  0  0
  191.3250  178.3450  143.8170 C   0  0  0  0  0  2  0  0  0  0  0  0
  189.6130  177.0650  142.8510 C   0  0  1  0  0  0  0  0  0  0  0  0
  189.1640  175.6200  143.0020 C   0  0  0  0  0  1  0  0  0  0  0  0
  191.9140  177.7830  142.5470 C   0  0  0  0  0  2  0  0  0  0  0  0
  190.7750  177.0560  141.8680 C   0  0  0  0  0  2  0  0  0  0  0  0
  190.1680  177.5300  144.1430 N   0  0  0  0  0  0  0  0  0  0  0  0
  189.2580  178.3350  144.9570 C   0  0  0  0  0  2  0  0  0  0  0  0
  189.6490  177.6720  147.3220 C   0  0  0  0  0  2  0  0  0  0  0  0
  187.4350  178.0170  146.5350 N   0  0  0  0  0  2  0  0  0  0  0  0
  188.7040  177.9880  148.4480 C   0  0  0  0  0  2  0  0  0  0  0  0
  188.7400  177.5220  146.1320 C   0  0  1  0  0  3  0  0  0  0  0  0
  187.3530  177.8410  147.9270 N   0  0  0  0  0  2  0  0  0  0  0  0
  1  8  1  6  0  0  0
  1 16  1  0  0  0  0
  3  2  1  0  0  0  0
  3 13  1  0  0  0  0
  4  5  1  0  0  0  0
  5 17  1  0  0  0  0
  5 12  2  0  0  0  0
  6 11  2  0  0  0  0
  7  8  1  0  0  0  0
  9  2  1  6  0  0  0
  9  7  1  0  0  0  0
 10 15  1  0  0  0  0
 10 19  2  0  0  0  0
 11 12  1  0  0  0  0
 14 13  1  1  0  0  0
 14  9  1  0  0  0  0
 14 10  1  0  0  0  0
 15 20  1  0  0  0  0
 16 22  1  0  0  0  0
 16 17  1  1  0  0  0
 18  6  1  0  0  0  0
 19  1  1  0  0  0  0
 19  4  1  0  0  0  0
 20  4  2  0  0  0  0
 20  6  1  0  0  0  0
 21 26  1  0  0  0  0
 22 23  1  1  0  0  0
 22 26  1  0  0  0  0
 24 21  1  0  0  0  0
 25 24  1  0  0  0  0
 25 22  1  0  0  0  0
 26 27  1  0  0  0  0
 28 30  1  0  0  0  0
 29 32  1  0  0  0  0
 31 27  1  6  0  0  0
 31 29  1  0  0  0  0
 31 28  1  0  0  0  0
 32 30  1  0  0  0  0
M  END
>  <MODEL>
3

>  <REMARK>
 VINA RESULT:      -7.8      3.120      6.744
  Name = 
  3 active torsions:
  status: ('A' for Active; 'I' for Inactive)
    1  A    between atoms: C_8  and  C_28
    2  A    between atoms: C_19  and  C_24
    3  A    between atoms: N_23  and  C_24
                            x       y       z     vdW  Elec       q    Type
                         _______ _______ _______ _____ _____    ______ ____

>  <TORSDO>
F 3

$$$$
=
 OpenBabel10262421283D

 32 38  0  0  1  0  0  0  0  0999 V2000
  188.9910  177.5680  141.1970 C   0  0  1  0  0  3  0  0  0  0  0  0
  191.5740  176.0860  144.5640 C   0  0  0  0  0  2  0  0  0  0  0  0
  191.6020  177.4400  145.2700 C   0  0  0  0  0  2  0  0  0  0  0  0
  186.6960  178.1880  142.0380 C   0  0  0  0  0  0  0  0  0  0  0  0
  186.2390  178.4830  140.7670 C   0  0  0  0  0  0  0  0  0  0  0  0
  184.6010  178.8790  143.0320 C   0  0  0  0  0  0  0  0  0  0  0  0
  190.8070  176.7180  142.4340 O   0  0  0  0  0  0  0  0  0  0  0  0
  189.8710  176.3610  141.4640 C   0  0  0  0  0  2  0  0  0  0  0  0
  190.3830  176.1190  143.6280 C   0  0  2  0  0  3  0  0  0  0  0  0
  188.1840  177.5110  143.6820 C   0  0  0  0  0  0  0  0  0  0  0  0
  184.1240  179.1960  141.7470 C   0  0  0  0  0  3  0  0  0  0  0  0
  184.9430  179.0010  140.6130 C   0  0  0  0  0  3  0  0  0  0  0  0
  190.2540  178.0990  145.0210 C   0  0  0  0  0  2  0  0  0  0  0  0
  189.4160  177.0150  144.3900 C   0  0  2  0  0  3  0  0  0  0  0  0
  186.7680  177.9390  144.5150 S   0  0  0  0  0  0  0  0  0  0  0  0
  188.3590  177.5060  139.7690 C   0  0  1  0  0  3  0  0  0  0  0  0
  187.1030  178.2670  139.6530 N   0  0  0  0  0  2  0  0  0  0  0  0
  183.8020  179.0710  144.1520 O   0  0  0  0  0  1  0  0  0  0  0  0
  187.9750  177.7100  142.3040 C   0  0  0  0  0  0  0  0  0  0  0  0
  185.8980  178.3750  143.1470 C   0  0  0  0  0  0  0  0  0  0  0  0
  190.2990  175.9710  137.6230 C   0  0  0  0  0  2  0  0  0  0  0  0
  189.3260  177.8710  138.5950 C   0  0  1  0  0  0  0  0  0  0  0  0
  189.1230  179.3050  138.1310 C   0  0  0  0  0  1  0  0  0  0  0  0
  191.4060  176.6300  138.4090 C   0  0  0  0  0  2  0  0  0  0  0  0
  190.7490  177.7870  139.1270 C   0  0  0  0  0  2  0  0  0  0  0  0
  189.2720  176.9760  137.4160 N   0  0  0  0  0  0  0  0  0  0  0  0
  187.9960  176.2900  137.2140 C   0  0  0  0  0  2  0  0  0  0  0  0
  187.2440  173.9330  136.9680 C   0  0  0  0  0  2  0  0  0  0  0  0
  187.9580  175.1570  135.0620 N   0  0  0  0  0  2  0  0  0  0  0  0
  186.6750  173.3630  135.6980 C   0  0  0  0  0  2  0  0  0  0  0  0
  188.2130  174.9770  136.4820 C   0  0  1  0  0  3  0  0  0  0  0  0
  187.4250  173.9440  134.5940 N   0  0  0  0  0  2  0  0  0  0  0  0
  1  8  1  1  0  0  0
  1 19  1  0  0  0  0
  2  3  1  0  0  0  0
  4 19  1  0  0  0  0
  4 20  1  0  0  0  0
  5  4  2  0  0  0  0
  6 20  2  0  0  0  0
  6 18  1  0  0  0  0
  7  9  1  0  0  0  0
  8  7  1  0  0  0  0
  9 14  1  0  0  0  0
  9  2  1  1  0  0  0
 10 14  1  0  0  0  0
 10 15  1  0  0  0  0
 11  6  1  0  0  0  0
 12  5  1  0  0  0  0
 12 11  2  0  0  0  0
 13  3  1  0  0  0  0
 14 13  1  6  0  0  0
 16 17  1  1  0  0  0
 16  1  1  0  0  0  0
 17  5  1  0  0  0  0
 19 10  2  0  0  0  0
 20 15  1  0  0  0  0
 21 24  1  0  0  0  0
 22 23  1  6  0  0  0
 22 25  1  0  0  0  0
 22 16  1  0  0  0  0
 24 25  1  0  0  0  0
 26 21  1  0  0  0  0
 26 22  1  0  0  0  0
 27 26  1  0  0  0  0
 29 31  1  0  0  0  0
 30 28  1  0  0  0  0
 31 28  1  0  0  0  0
 31 27  1  1  0  0  0
 32 29  1  0  0  0  0
 32 30  1  0  0  0  0
M  END
>  <MODEL>
4

>  <REMARK>
 VINA RESULT:      -7.5      1.009      1.315
  Name = 
  3 active torsions:
  status: ('A' for Active; 'I' for Inactive)
    1  A    between atoms: C_8  and  C_28
    2  A    between atoms: C_19  and  C_24
    3  A    between atoms: N_23  and  C_24
                            x       y       z     vdW  Elec       q    Type
                         _______ _______ _______ _____ _____    ______ ____

>  <TORSDO>
F 3

$$$$
=
 OpenBabel10262421283D

 32 38  0  0  1  0  0  0  0  0999 V2000
  189.5070  177.1690  140.4100 C   0  0  1  0  0  3  0  0  0  0  0  0
  191.6010  175.8410  136.6610 C   0  0  0  0  0  2  0  0  0  0  0  0
  190.6170  174.7030  136.3960 C   0  0  0  0  0  2  0  0  0  0  0  0
  187.2140  178.0740  139.8790 C   0  0  0  0  0  0  0  0  0  0  0  0
  186.9750  178.4230  141.1960 C   0  0  0  0  0  0  0  0  0  0  0  0
  184.9920  178.7650  139.2170 C   0  0  0  0  0  0  0  0  0  0  0  0
  191.1150  176.3260  138.9090 O   0  0  0  0  0  0  0  0  0  0  0  0
  190.8570  177.4010  139.7590 C   0  0  0  0  0  2  0  0  0  0  0  0
  190.9030  176.7970  137.6060 C   0  0  2  0  0  3  0  0  0  0  0  0
  188.3770  177.2420  138.0550 C   0  0  0  0  0  0  0  0  0  0  0  0
  184.7280  179.1130  140.5540 C   0  0  0  0  0  3  0  0  0  0  0  0
  185.7180  178.9400  141.5460 C   0  0  0  0  0  3  0  0  0  0  0  0
  189.2540  175.1740  136.8810 C   0  0  0  0  0  2  0  0  0  0  0  0
  189.4470  176.6390  137.1860 C   0  0  2  0  0  3  0  0  0  0  0  0
  186.8620  177.7040  137.4420 S   0  0  0  0  0  0  0  0  0  0  0  0
  189.3960  177.9220  141.7750 C   0  0  1  0  0  3  0  0  0  0  0  0
  188.0080  178.2310  142.1600 N   0  0  0  0  0  2  0  0  0  0  0  0
  184.0210  178.9300  138.2370 O   0  0  0  0  0  1  0  0  0  0  0  0
  188.4080  177.5170  139.4350 C   0  0  0  0  0  0  0  0  0  0  0  0
  186.2490  178.2440  138.9080 C   0  0  0  0  0  0  0  0  0  0  0  0
  190.4990  178.7470  144.7470 C   0  0  0  0  0  2  0  0  0  0  0  0
  190.1570  177.2560  142.9680 C   0  0  1  0  0  0  0  0  0  0  0  0
  190.1630  175.7400  142.8480 C   0  0  0  0  0  1  0  0  0  0  0  0
  191.8540  178.5690  144.1080 C   0  0  0  0  0  2  0  0  0  0  0  0
  191.6100  177.7010  142.8940 C   0  0  0  0  0  2  0  0  0  0  0  0
  189.6800  177.6260  144.3200 N   0  0  0  0  0  0  0  0  0  0  0  0
  188.2770  178.0310  144.3970 C   0  0  0  0  0  2  0  0  0  0  0  0
  188.6670  177.1920  146.7050 C   0  0  0  0  0  2  0  0  0  0  0  0
  186.7040  178.4330  146.2070 N   0  0  0  0  0  2  0  0  0  0  0  0
  188.0870  177.8300  147.9370 C   0  0  0  0  0  2  0  0  0  0  0  0
  187.6300  177.4620  145.6480 C   0  0  1  0  0  3  0  0  0  0  0  0
  186.7380  178.2620  147.6020 N   0  0  0  0  0  2  0  0  0  0  0  0
  1  8  1  6  0  0  0
  1 16  1  0  0  0  0
  3  2  1  0  0  0  0
  3 13  1  0  0  0  0
  4  5  1  0  0  0  0
  5 12  2  0  0  0  0
  5 17  1  0  0  0  0
  6 11  2  0  0  0  0
  7  8  1  0  0  0  0
  9  2  1  6  0  0  0
  9  7  1  0  0  0  0
 10 19  2  0  0  0  0
 11 12  1  0  0  0  0
 14 13  1  1  0  0  0
 14  9  1  0  0  0  0
 14 10  1  0  0  0  0
 15 10  1  0  0  0  0
 15 20  1  0  0  0  0
 16 17  1  1  0  0  0
 16 22  1  0  0  0  0
 18  6  1  0  0  0  0
 19  4  1  0  0  0  0
 19  1  1  0  0  0  0
 20  6  1  0  0  0  0
 20  4  2  0  0  0  0
 22 23  1  6  0  0  0
 22 26  1  0  0  0  0
 24 21  1  0  0  0  0
 25 22  1  0  0  0  0
 25 24  1  0  0  0  0
 26 27  1  0  0  0  0
 26 21  1  0  0  0  0
 28 30  1  0  0  0  0
 29 32  1  0  0  0  0
 31 27  1  6  0  0  0
 31 29  1  0  0  0  0
 31 28  1  0  0  0  0
 32 30  1  0  0  0  0
M  END
>  <MODEL>
5

>  <REMARK>
 VINA RESULT:      -7.3      3.071      6.710
  Name = 
  3 active torsions:
  status: ('A' for Active; 'I' for Inactive)
    1  A    between atoms: C_8  and  C_28
    2  A    between atoms: C_19  and  C_24
    3  A    between atoms: N_23  and  C_24
                            x       y       z     vdW  Elec       q    Type
                         _______ _______ _______ _____ _____    ______ ____

>  <TORSDO>
F 3

$$$$
=
 OpenBabel10262421283D

 32 38  0  0  1  0  0  0  0  0999 V2000
  183.3210  178.6290  142.5060 C   0  0  1  0  0  3  0  0  0  0  0  0
  185.4520  178.9620  146.4500 C   0  0  0  0  0  2  0  0  0  0  0  0
  186.0700  177.5690  146.3460 C   0  0  0  0  0  2  0  0  0  0  0  0
  184.9740  178.5230  140.6050 C   0  0  0  0  0  0  0  0  0  0  0  0
  183.9740  178.5170  139.6500 C   0  0  0  0  0  0  0  0  0  0  0  0
  186.6890  178.2770  138.9160 C   0  0  0  0  0  0  0  0  0  0  0  0
  183.7730  178.8210  144.8110 O   0  0  0  0  0  0  0  0  0  0  0  0
  183.2470  179.5250  143.7290 C   0  0  0  0  0  2  0  0  0  0  0  0
  185.0480  179.3550  145.0440 C   0  0  2  0  0  3  0  0  0  0  0  0
  185.9260  178.5820  142.7180 C   0  0  0  0  0  0  0  0  0  0  0  0
  185.6830  178.2570  137.9320 C   0  0  0  0  0  3  0  0  0  0  0  0
  184.3250  178.3740  138.2980 C   0  0  0  0  0  3  0  0  0  0  0  0
  186.3510  177.3170  144.8720 C   0  0  0  0  0  2  0  0  0  0  0  0
  186.1100  178.6510  144.2100 C   0  0  2  0  0  3  0  0  0  0  0  0
  187.2340  178.4330  141.6460 S   0  0  0  0  0  0  0  0  0  0  0  0
  182.2500  179.0300  141.4420 C   0  0  1  0  0  3  0  0  0  0  0  0
  182.6160  178.6400  140.0690 N   0  0  0  0  0  2  0  0  0  0  0  0
  188.0280  178.1600  138.5630 O   0  0  0  0  0  1  0  0  0  0  0  0
  184.7320  178.6180  141.9710 C   0  0  0  0  0  0  0  0  0  0  0  0
  186.3020  178.4110  140.2500 C   0  0  0  0  0  0  0  0  0  0  0  0
  179.6360  180.1550  143.0650 C   0  0  0  0  0  2  0  0  0  0  0  0
  180.7870  178.5780  141.7640 C   0  0  1  0  0  0  0  0  0  0  0  0
  180.3500  177.4300  140.8680 C   0  0  0  0  0  1  0  0  0  0  0  0
  179.9320  179.0050  143.9970 C   0  0  0  0  0  2  0  0  0  0  0  0
  180.7730  178.0440  143.1890 C   0  0  0  0  0  2  0  0  0  0  0  0
  179.7600  179.6420  141.7110 N   0  0  0  0  0  0  0  0  0  0  0  0
  180.0700  180.7640  140.8260 C   0  0  0  0  0  2  0  0  0  0  0  0
  178.9370  182.2700  139.2030 C   0  0  0  0  0  2  0  0  0  0  0  0
  179.4640  180.0380  138.5850 N   0  0  0  0  0  2  0  0  0  0  0  0
  179.0310  182.1160  137.7100 C   0  0  0  0  0  2  0  0  0  0  0  0
  179.0430  180.8570  139.7100 C   0  0  1  0  0  3  0  0  0  0  0  0
  179.0110  180.6890  137.4250 N   0  0  0  0  0  2  0  0  0  0  0  0
  1  8  1  1  0  0  0
  3  2  1  0  0  0  0
  4 19  1  0  0  0  0
  5 17  1  0  0  0  0
  5  4  2  0  0  0  0
  6 20  2  0  0  0  0
  7  9  1  0  0  0  0
  8  7  1  0  0  0  0
  9  2  1  1  0  0  0
 10 14  1  0  0  0  0
 11 12  2  0  0  0  0
 11  6  1  0  0  0  0
 12  5  1  0  0  0  0
 13  3  1  0  0  0  0
 14 13  1  1  0  0  0
 14  9  1  0  0  0  0
 15 10  1  0  0  0  0
 16 17  1  6  0  0  0
 16 22  1  0  0  0  0
 16  1  1  0  0  0  0
 18  6  1  0  0  0  0
 19  1  1  0  0  0  0
 19 10  2  0  0  0  0
 20  4  1  0  0  0  0
 20 15  1  0  0  0  0
 21 24  1  0  0  0  0
 22 23  1  6  0  0  0
 22 25  1  0  0  0  0
 25 24  1  0  0  0  0
 26 22  1  0  0  0  0
 26 21  1  0  0  0  0
 27 26  1  0  0  0  0
 28 31  1  0  0  0  0
 29 31  1  0  0  0  0
 30 28  1  0  0  0  0
 31 27  1  1  0  0  0
 32 30  1  0  0  0  0
 32 29  1  0  0  0  0
M  END
>  <MODEL>
6

>  <REMARK>
 VINA RESULT:      -7.2      4.205      7.594
  Name = 
  3 active torsions:
  status: ('A' for Active; 'I' for Inactive)
    1  A    between atoms: C_8  and  C_28
    2  A    between atoms: C_19  and  C_24
    3  A    between atoms: N_23  and  C_24
                            x       y       z     vdW  Elec       q    Type
                         _______ _______ _______ _____ _____    ______ ____

>  <TORSDO>
F 3

$$$$
=
 OpenBabel10262421283D

 32 38  0  0  1  0  0  0  0  0999 V2000
  184.1980  178.4220  141.7090 C   0  0  1  0  0  3  0  0  0  0  0  0
  185.4130  178.7580  146.0240 C   0  0  0  0  0  2  0  0  0  0  0  0
  186.0570  177.3730  146.0530 C   0  0  0  0  0  2  0  0  0  0  0  0
  186.2270  178.3470  140.2140 C   0  0  0  0  0  0  0  0  0  0  0  0
  185.4590  178.3340  139.0630 C   0  0  0  0  0  0  0  0  0  0  0  0
  188.2720  178.1320  138.9390 C   0  0  0  0  0  0  0  0  0  0  0  0
  184.1350  178.6050  144.0570 O   0  0  0  0  0  0  0  0  0  0  0  0
  183.8480  179.3100  142.8890 C   0  0  0  0  0  2  0  0  0  0  0  0
  185.3210  179.1540  144.5650 C   0  0  2  0  0  3  0  0  0  0  0  0
  186.6940  178.4060  142.4830 C   0  0  0  0  0  0  0  0  0  0  0  0
  187.5050  178.1050  137.7590 C   0  0  0  0  0  3  0  0  0  0  0  0
  186.0980  178.2040  137.8200 C   0  0  0  0  0  3  0  0  0  0  0  0
  186.6560  177.1330  144.6750 C   0  0  0  0  0  2  0  0  0  0  0  0
  186.5480  178.4680  143.9800 C   0  0  2  0  0  3  0  0  0  0  0  0
  188.2060  178.2790  141.7220 S   0  0  0  0  0  0  0  0  0  0  0  0
  183.3790  178.8160  140.4380 C   0  0  1  0  0  3  0  0  0  0  0  0
  184.0410  178.4390  139.1770 N   0  0  0  0  0  2  0  0  0  0  0  0
  189.6570  178.0340  138.8860 O   0  0  0  0  0  1  0  0  0  0  0  0
  185.6920  178.4310  141.4940 C   0  0  0  0  0  0  0  0  0  0  0  0
  187.6020  178.2540  140.1570 C   0  0  0  0  0  0  0  0  0  0  0  0
  180.3940  180.1180  140.7820 C   0  0  0  0  0  2  0  0  0  0  0  0
  181.8880  178.3440  140.4320 C   0  0  1  0  0  0  0  0  0  0  0  0
  181.7480  176.9490  139.8430 C   0  0  0  0  0  1  0  0  0  0  0  0
  180.3800  179.3240  142.0650 C   0  0  0  0  0  2  0  0  0  0  0  0
  181.4290  178.2510  141.8790 C   0  0  0  0  0  2  0  0  0  0  0  0
  180.9310  179.2470  139.7520 N   0  0  0  0  0  0  0  0  0  0  0  0
  181.5060  180.0850  138.7000 C   0  0  0  0  0  2  0  0  0  0  0  0
  181.5220  182.4940  138.0870 C   0  0  0  0  0  2  0  0  0  0  0  0
  179.7130  181.1090  137.4150 N   0  0  0  0  0  2  0  0  0  0  0  0
  180.8050  183.0600  136.8920 C   0  0  0  0  0  2  0  0  0  0  0  0
  180.6600  181.3300  138.4950 C   0  0  1  0  0  3  0  0  0  0  0  0
  179.5410  182.3490  136.7760 N   0  0  0  0  0  2  0  0  0  0  0  0
  1  8  1  1  0  0  0
  2  3  1  0  0  0  0
  4 19  1  0  0  0  0
  5 17  1  0  0  0  0
  5  4  2  0  0  0  0
  6 20  2  0  0  0  0
  7  9  1  0  0  0  0
  8  7  1  0  0  0  0
  9  2  1  1  0  0  0
 10 14  1  0  0  0  0
 11 12  2  0  0  0  0
 11  6  1  0  0  0  0
 12  5  1  0  0  0  0
 13  3  1  0  0  0  0
 14  9  1  0  0  0  0
 14 13  1  6  0  0  0
 15 10  1  0  0  0  0
 16 17  1  6  0  0  0
 16  1  1  0  0  0  0
 18  6  1  0  0  0  0
 19  1  1  0  0  0  0
 19 10  2  0  0  0  0
 20  4  1  0  0  0  0
 20 15  1  0  0  0  0
 21 24  1  0  0  0  0
 22 23  1  6  0  0  0
 22 16  1  0  0  0  0
 22 25  1  0  0  0  0
 25 24  1  0  0  0  0
 26 22  1  0  0  0  0
 26 21  1  0  0  0  0
 27 26  1  0  0  0  0
 28 31  1  0  0  0  0
 29 31  1  0  0  0  0
 30 28  1  0  0  0  0
 31 27  1  6  0  0  0
 32 30  1  0  0  0  0
 32 29  1  0  0  0  0
M  END
>  <MODEL>
7

>  <REMARK>
 VINA RESULT:      -6.9      3.838      6.893
  Name = 
  3 active torsions:
  status: ('A' for Active; 'I' for Inactive)
    1  A    between atoms: C_8  and  C_28
    2  A    between atoms: C_19  and  C_24
    3  A    between atoms: N_23  and  C_24
                            x       y       z     vdW  Elec       q    Type
                         _______ _______ _______ _____ _____    ______ ____

>  <TORSDO>
F 3

$$$$
=
 OpenBabel10262421283D

 32 38  0  0  1  0  0  0  0  0999 V2000
  187.0270  178.1800  141.9890 C   0  0  1  0  0  3  0  0  0  0  0  0
  186.8370  177.5080  146.4300 C   0  0  0  0  0  2  0  0  0  0  0  0
  186.3570  178.9280  146.7240 C   0  0  0  0  0  2  0  0  0  0  0  0
  184.7200  178.5590  141.0450 C   0  0  0  0  0  0  0  0  0  0  0  0
  185.1920  178.6280  139.7460 C   0  0  0  0  0  0  0  0  0  0  0  0
  182.4630  179.0560  140.3280 C   0  0  0  0  0  0  0  0  0  0  0  0
  187.6240  177.7580  144.2290 O   0  0  0  0  0  0  0  0  0  0  0  0
  187.5560  177.1540  142.9740 C   0  0  0  0  0  2  0  0  0  0  0  0
  186.5430  177.2540  144.9660 C   0  0  2  0  0  3  0  0  0  0  0  0
  184.7980  178.3100  143.3480 C   0  0  0  0  0  0  0  0  0  0  0  0
  182.9290  179.1420  139.0030 C   0  0  0  0  0  3  0  0  0  0  0  0
  184.2940  178.9310  138.7110 C   0  0  0  0  0  3  0  0  0  0  0  0
  185.4770  179.3500  145.5570 C   0  0  0  0  0  2  0  0  0  0  0  0
  185.2860  178.0870  144.7540 C   0  0  2  0  0  3  0  0  0  0  0  0
  183.1690  178.6280  142.9910 S   0  0  0  0  0  0  0  0  0  0  0  0
  187.4800  177.8530  140.5300 C   0  0  1  0  0  3  0  0  0  0  0  0
  186.5790  178.4050  139.5020 N   0  0  0  0  0  2  0  0  0  0  0  0
  181.1210  179.2660  140.6220 O   0  0  0  0  0  1  0  0  0  0  0  0
  185.5310  178.3070  142.1450 C   0  0  0  0  0  0  0  0  0  0  0  0
  183.3870  178.7630  141.3320 C   0  0  0  0  0  0  0  0  0  0  0  0
  190.4480  176.5000  140.8220 C   0  0  0  0  0  2  0  0  0  0  0  0
  188.9660  178.2080  140.1970 C   0  0  1  0  0  0  0  0  0  0  0  0
  189.0570  179.3820  139.2340 C   0  0  0  0  0  1  0  0  0  0  0  0
  190.6680  177.6070  141.8230 C   0  0  0  0  0  2  0  0  0  0  0  0
  189.6330  178.6570  141.4900 C   0  0  0  0  0  2  0  0  0  0  0  0
  189.7900  177.0960  139.6720 N   0  0  0  0  0  0  0  0  0  0  0  0
  189.0480  176.0450  138.9770 C   0  0  0  0  0  2  0  0  0  0  0  0
  190.6960  176.7530  137.2550 C   0  0  0  0  0  2  0  0  0  0  0  0
  190.5630  174.4730  137.9060 N   0  0  0  0  0  2  0  0  0  0  0  0
  191.9770  176.0200  136.9700 C   0  0  0  0  0  2  0  0  0  0  0  0
  189.7550  175.6610  137.6890 C   0  0  1  0  0  3  0  0  0  0  0  0
  191.6880  174.5970  137.0740 N   0  0  0  0  0  2  0  0  0  0  0  0
  1 19  1  0  0  0  0
  1  8  1  1  0  0  0
  2  3  1  0  0  0  0
  4 20  1  0  0  0  0
  4 19  1  0  0  0  0
  5  4  2  0  0  0  0
  6 18  1  0  0  0  0
  6 20  2  0  0  0  0
  7  9  1  0  0  0  0
  8  7  1  0  0  0  0
  9  2  1  1  0  0  0
 10 14  1  0  0  0  0
 11  6  1  0  0  0  0
 12 11  2  0  0  0  0
 12  5  1  0  0  0  0
 13  3  1  0  0  0  0
 14  9  1  0  0  0  0
 14 13  1  6  0  0  0
 15 10  1  0  0  0  0
 16 17  1  6  0  0  0
 16  1  1  0  0  0  0
 17  5  1  0  0  0  0
 19 10  2  0  0  0  0
 20 15  1  0  0  0  0
 21 24  1  0  0  0  0
 22 23  1  6  0  0  0
 22 16  1  0  0  0  0
 22 25  1  0  0  0  0
 25 24  1  0  0  0  0
 26 22  1  0  0  0  0
 26 21  1  0  0  0  0
 27 26  1  0  0  0  0
 28 31  1  0  0  0  0
 30 32  1  0  0  0  0
 30 28  1  0  0  0  0
 31 29  1  0  0  0  0
 31 27  1  1  0  0  0
 32 29  1  0  0  0  0
M  END
>  <MODEL>
8

>  <REMARK>
 VINA RESULT:      -6.6      2.553      3.490
  Name = 
  3 active torsions:
  status: ('A' for Active; 'I' for Inactive)
    1  A    between atoms: C_8  and  C_28
    2  A    between atoms: C_19  and  C_24
    3  A    between atoms: N_23  and  C_24
                            x       y       z     vdW  Elec       q    Type
                         _______ _______ _______ _____ _____    ______ ____

>  <TORSDO>
F 3

$$$$
=
 OpenBabel10262421283D

 32 38  0  0  1  0  0  0  0  0999 V2000
  188.1080  177.8450  144.0830 C   0  0  1  0  0  3  0  0  0  0  0  0
  188.6590  177.0920  148.4800 C   0  0  0  0  0  2  0  0  0  0  0  0
  188.2650  178.5140  148.8740 C   0  0  0  0  0  2  0  0  0  0  0  0
  185.6830  178.2830  143.5490 C   0  0  0  0  0  0  0  0  0  0  0  0
  185.9300  178.3680  142.1910 C   0  0  0  0  0  0  0  0  0  0  0  0
  183.3480  178.8330  143.2330 C   0  0  0  0  0  0  0  0  0  0  0  0
  189.0670  177.3700  146.1820 O   0  0  0  0  0  0  0  0  0  0  0  0
  188.7750  176.7920  144.9470 C   0  0  0  0  0  2  0  0  0  0  0  0
  188.1160  176.8710  147.0830 C   0  0  2  0  0  3  0  0  0  0  0  0
  186.1440  177.9880  145.8020 C   0  0  0  0  0  0  0  0  0  0  0  0
  183.5840  178.9360  141.8500 C   0  0  0  0  0  3  0  0  0  0  0  0
  184.8760  178.7070  141.3280 C   0  0  0  0  0  3  0  0  0  0  0  0
  187.2090  178.9740  147.8800 C   0  0  0  0  0  2  0  0  0  0  0  0
  186.8580  177.7300  147.1000 C   0  0  2  0  0  3  0  0  0  0  0  0
  184.4850  178.3410  145.7310 S   0  0  0  0  0  0  0  0  0  0  0  0
  188.3000  177.5390  142.5630 C   0  0  1  0  0  3  0  0  0  0  0  0
  187.2510  178.1250  141.7120 N   0  0  0  0  0  2  0  0  0  0  0  0
  182.0800  179.0600  143.7540 O   0  0  0  0  0  1  0  0  0  0  0  0
  186.6630  177.9950  144.4920 C   0  0  0  0  0  0  0  0  0  0  0  0
  184.4220  178.5040  144.0620 C   0  0  0  0  0  0  0  0  0  0  0  0
  190.0980  176.8500  139.9120 C   0  0  0  0  0  2  0  0  0  0  0  0
  189.7160  177.8740  141.9890 C   0  0  1  0  0  0  0  0  0  0  0  0
  190.3470  179.0520  142.7150 C   0  0  0  0  0  1  0  0  0  0  0  0
  190.9510  176.0890  140.8970 C   0  0  0  0  0  2  0  0  0  0  0  0
  190.6150  176.6740  142.2500 C   0  0  0  0  0  2  0  0  0  0  0  0
  189.7760  178.1250  140.5310 N   0  0  0  0  0  0  0  0  0  0  0  0
  188.5360  178.6210  139.9330 C   0  0  0  0  0  2  0  0  0  0  0  0
  187.1150  177.6690  138.1290 C   0  0  0  0  0  2  0  0  0  0  0  0
  188.6410  179.4220  137.6400 N   0  0  0  0  0  2  0  0  0  0  0  0
  186.7140  178.4250  136.8920 C   0  0  0  0  0  2  0  0  0  0  0  0
  188.4670  178.2380  138.4650 C   0  0  1  0  0  3  0  0  0  0  0  0
  187.8600  179.2250  136.4880 N   0  0  0  0  0  2  0  0  0  0  0  0
  1 19  1  0  0  0  0
  1  8  1  1  0  0  0
  2  3  1  0  0  0  0
  4 20  1  0  0  0  0
  4 19  1  0  0  0  0
  5  4  2  0  0  0  0
  6 18  1  0  0  0  0
  6 20  2  0  0  0  0
  7  9  1  0  0  0  0
  8  7  1  0  0  0  0
  9 14  1  0  0  0  0
  9  2  1  1  0  0  0
 10 14  1  0  0  0  0
 11  6  1  0  0  0  0
 12 11  2  0  0  0  0
 12  5  1  0  0  0  0
 13  3  1  0  0  0  0
 14 13  1  6  0  0  0
 15 10  1  0  0  0  0
 16 17  1  6  0  0  0
 16  1  1  0  0  0  0
 17  5  1  0  0  0  0
 19 10  2  0  0  0  0
 20 15  1  0  0  0  0
 21 26  1  0  0  0  0
 21 24  1  0  0  0  0
 22 25  1  0  0  0  0
 22 16  1  0  0  0  0
 22 23  1  1  0  0  0
 24 25  1  0  0  0  0
 26 22  1  0  0  0  0
 27 26  1  0  0  0  0
 28 31  1  0  0  0  0
 29 31  1  0  0  0  0
 30 28  1  0  0  0  0
 31 27  1  1  0  0  0
 32 30  1  0  0  0  0
 32 29  1  0  0  0  0
M  END
>  <MODEL>
9

>  <REMARK>
 VINA RESULT:      -6.6      2.172      2.949
  Name = 
  3 active torsions:
  status: ('A' for Active; 'I' for Inactive)
    1  A    between atoms: C_8  and  C_28
    2  A    between atoms: C_19  and  C_24
    3  A    between atoms: N_23  and  C_24
                            x       y       z     vdW  Elec       q    Type
                         _______ _______ _______ _____ _____    ______ ____

>  <TORSDO>
F 3

$$$$
