=
 OpenBabel10262421413D

 32 36  0  0  1  0  0  0  0  0999 V2000
  184.2070  178.1990  141.3490 C   0  0  0  0  0  0  0  0  0  0  0  0
  180.5650  178.7530  138.9210 C   0  0  1  0  0  3  0  0  0  0  0  0
  179.9960  181.0410  138.0750 C   0  0  0  0  0  0  0  0  0  0  0  0
  179.9570  182.0260  136.9780 C   0  0  0  0  0  0  0  0  0  0  0  0
  182.8630  179.9480  139.0390 C   0  0  0  0  0  2  0  0  0  0  0  0
  181.4820  176.5250  139.2410 N   0  0  0  0  0  2  0  0  0  0  0  0
  179.8900  183.8390  134.8910 N   0  0  0  0  0  0  0  0  0  0  0  0
  183.3500  177.1140  140.7240 C   0  0  0  0  0  2  0  0  0  0  0  0
  180.3920  177.2600  138.6060 C   0  0  2  0  0  3  0  0  0  0  0  0
  180.2770  176.8650  137.1270 C   0  0  2  0  0  3  0  0  0  0  0  0
  180.3660  179.2480  136.3830 C   0  0  2  0  0  3  0  0  0  0  0  0
  179.4420  184.2210  136.1180 C   0  0  0  0  0  3  0  0  0  0  0  0
  184.6420  179.2950  140.6940 C   0  0  0  0  0  3  0  0  0  0  0  0
  182.5470  177.4910  139.4780 C   0  0  2  0  0  3  0  0  0  0  0  0
  179.4700  183.3210  137.1850 C   0  0  0  0  0  3  0  0  0  0  0  0
  184.3460  179.6290  139.2640 C   0  0  0  0  0  2  0  0  0  0  0  0
  180.9520  177.8490  136.1780 C   0  0  1  0  0  3  0  0  0  0  0  0
  181.0000  180.2960  135.4620 C   0  0  0  0  0  2  0  0  0  0  0  0
  181.9260  178.8680  139.5980 C   0  0  2  0  0  3  0  0  0  0  0  0
  179.7090  181.3910  139.2530 O   0  0  0  0  0  0  0  0  0  0  0  0
  180.3710  182.5860  134.6660 C   0  0  0  0  0  3  0  0  0  0  0  0
  180.3750  179.6810  137.7910 N   0  0  0  0  0  0  0  0  0  0  0  0
  180.4040  181.6500  135.7010 C   0  0  0  0  0  0  0  0  0  0  0  0
  178.9330  175.8160  135.7150 C   0  0  0  0  0  1  0  0  0  0  0  0
  178.9310  176.7150  136.7830 O   0  0  0  0  0  0  0  0  0  0  0  0
  183.0820  177.0750  135.1280 C   0  0  0  0  0  1  0  0  0  0  0  0
  182.4710  177.7900  136.3160 C   0  0  0  0  0  2  0  0  0  0  0  0
  184.5620  178.0020  142.6880 O   0  0  0  0  0  0  0  0  0  0  0  0
  184.6800  179.0630  143.6310 C   0  0  0  0  0  2  0  0  0  0  0  0
  183.5440  179.0050  144.5920 C   0  0  0  0  0  0  0  0  0  0  0  0
  182.1410  179.0090  144.0900 C   0  0  0  0  0  1  0  0  0  0  0  0
  183.7600  178.9890  145.7930 O   0  0  0  0  0  0  0  0  0  0  0  0
  1 28  1  0  0  0  0
  2 22  1  6  0  0  0
  2 19  1  0  0  0  0
  3 20  2  0  0  0  0
  4 15  1  0  0  0  0
  4  3  1  0  0  0  0
  5 16  1  0  0  0  0
  6 14  1  0  0  0  0
  7 12  1  0  0  0  0
  8  1  1  0  0  0  0
  9  2  1  0  0  0  0
  9  6  1  6  0  0  0
 10 25  1  6  0  0  0
 10  9  1  0  0  0  0
 11 18  1  6  0  0  0
 11 22  1  0  0  0  0
 12 15  2  0  0  0  0
 13  1  2  0  0  0  0
 14 19  1  0  0  0  0
 14  8  1  1  0  0  0
 16 13  1  0  0  0  0
 17 27  1  1  0  0  0
 17 11  1  0  0  0  0
 17 10  1  0  0  0  0
 18 23  1  0  0  0  0
 19  5  1  6  0  0  0
 21  7  2  0  0  0  0
 21 23  1  0  0  0  0
 22  3  1  0  0  0  0
 23  4  2  0  0  0  0
 24 25  1  0  0  0  0
 26 27  1  0  0  0  0
 28 29  1  0  0  0  0
 29 30  1  0  0  0  0
 30 32  2  0  0  0  0
 31 30  1  0  0  0  0
M  END
>  <MODEL>
1

>  <REMARK>
 VINA RESULT:      -5.5      0.000      0.000
  Name = 
  5 active torsions:
  status: ('A' for Active; 'I' for Inactive)
    1  A    between atoms: C_1  and  C_10
    2  A    between atoms: C_2  and  O_24
    3  A    between atoms: C_10  and  O_24
    4  A    between atoms: O_13  and  C_15
    5  A    between atoms: C_25  and  C_26
                            x       y       z     vdW  Elec       q    Type
                         _______ _______ _______ _____ _____    ______ ____

>  <TORSDO>
F 5

$$$$
=
 OpenBabel10262421413D

 32 36  0  0  1  0  0  0  0  0999 V2000
  180.2630  181.6590  136.1950 C   0  0  0  0  0  0  0  0  0  0  0  0
  182.0480  178.1000  138.0930 C   0  0  1  0  0  3  0  0  0  0  0  0
  184.1440  178.3530  139.4400 C   0  0  0  0  0  0  0  0  0  0  0  0
  184.8210  178.4490  140.7470 C   0  0  0  0  0  0  0  0  0  0  0  0
  182.0070  180.6290  138.6640 C   0  0  0  0  0  2  0  0  0  0  0  0
  179.7470  178.0330  137.3150 N   0  0  0  0  0  2  0  0  0  0  0  0
  186.0530  178.6100  143.2180 N   0  0  0  0  0  0  0  0  0  0  0  0
  179.6250  180.2930  136.3560 C   0  0  0  0  0  2  0  0  0  0  0  0
  180.7870  177.2330  137.9530 C   0  0  2  0  0  3  0  0  0  0  0  0
  180.2440  176.5770  139.2290 C   0  0  2  0  0  3  0  0  0  0  0  0
  182.1280  177.4680  140.6070 C   0  0  2  0  0  3  0  0  0  0  0  0
  186.8090  178.7070  142.0910 C   0  0  0  0  0  3  0  0  0  0  0  0
  180.8870  182.3290  137.1850 C   0  0  0  0  0  3  0  0  0  0  0  0
  180.1150  179.4280  137.5200 C   0  0  2  0  0  3  0  0  0  0  0  0
  186.2060  178.6300  140.8340 C   0  0  0  0  0  3  0  0  0  0  0  0
  181.0670  181.8370  138.5890 C   0  0  0  0  0  2  0  0  0  0  0  0
  180.6060  177.3290  140.5050 C   0  0  1  0  0  3  0  0  0  0  0  0
  182.5700  178.2200  141.8670 C   0  0  0  0  0  2  0  0  0  0  0  0
  181.6190  179.5060  137.6910 C   0  0  2  0  0  3  0  0  0  0  0  0
  184.7880  178.5640  138.3760 O   0  0  0  0  0  0  0  0  0  0  0  0
  184.7040  178.4360  143.1600 C   0  0  0  0  0  3  0  0  0  0  0  0
  182.7420  178.0310  139.3930 N   0  0  0  0  0  0  0  0  0  0  0  0
  184.0620  178.3410  141.9240 C   0  0  0  0  0  0  0  0  0  0  0  0
  179.5410  174.4780  139.1840 C   0  0  0  0  0  1  0  0  0  0  0  0
  180.6940  175.2560  139.3080 O   0  0  0  0  0  0  0  0  0  0  0  0
  179.2440  178.8290  141.9650 C   0  0  0  0  0  1  0  0  0  0  0  0
  179.8580  178.6560  140.5910 C   0  0  0  0  0  2  0  0  0  0  0  0
  180.1580  182.2370  134.9240 O   0  0  0  0  0  0  0  0  0  0  0  0
  179.2260  183.2650  134.6060 C   0  0  0  0  0  2  0  0  0  0  0  0
  179.7400  184.5740  135.0970 C   0  0  0  0  0  0  0  0  0  0  0  0
  178.9310  185.3830  136.0510 C   0  0  0  0  0  1  0  0  0  0  0  0
  180.8080  185.0020  134.6910 O   0  0  0  0  0  0  0  0  0  0  0  0
  1  8  1  0  0  0  0
  1 13  2  0  0  0  0
  2 22  1  1  0  0  0
  3  4  1  0  0  0  0
  4 15  2  0  0  0  0
  4 23  1  0  0  0  0
  6 14  1  0  0  0  0
  9  6  1  1  0  0  0
  9  2  1  0  0  0  0
  9 10  1  0  0  0  0
 10 25  1  1  0  0  0
 10 17  1  0  0  0  0
 11 18  1  1  0  0  0
 12  7  2  0  0  0  0
 13 16  1  0  0  0  0
 14  8  1  6  0  0  0
 14 19  1  0  0  0  0
 15 12  1  0  0  0  0
 16  5  1  0  0  0  0
 17 27  1  6  0  0  0
 17 11  1  0  0  0  0
 18 23  1  0  0  0  0
 19  2  1  0  0  0  0
 19  5  1  1  0  0  0
 20  3  2  0  0  0  0
 21  7  1  0  0  0  0
 22  3  1  0  0  0  0
 22 11  1  0  0  0  0
 23 21  2  0  0  0  0
 24 25  1  0  0  0  0
 27 26  1  0  0  0  0
 28  1  1  0  0  0  0
 29 28  1  0  0  0  0
 29 30  1  0  0  0  0
 30 31  1  0  0  0  0
 32 30  2  0  0  0  0
M  END
>  <MODEL>
2

>  <REMARK>
 VINA RESULT:      -5.1      2.618      7.219
  Name = 
  5 active torsions:
  status: ('A' for Active; 'I' for Inactive)
    1  A    between atoms: C_1  and  C_10
    2  A    between atoms: C_2  and  O_24
    3  A    between atoms: C_10  and  O_24
    4  A    between atoms: O_13  and  C_15
    5  A    between atoms: C_25  and  C_26
                            x       y       z     vdW  Elec       q    Type
                         _______ _______ _______ _____ _____    ______ ____

>  <TORSDO>
F 5

$$$$
=
 OpenBabel10262421413D

 32 36  0  0  1  0  0  0  0  0999 V2000
  187.3540  175.6050  136.6810 C   0  0  0  0  0  0  0  0  0  0  0  0
  183.4160  176.5990  138.4010 C   0  0  1  0  0  3  0  0  0  0  0  0
  182.6850  178.9930  138.4820 C   0  0  0  0  0  0  0  0  0  0  0  0
  181.8780  180.1030  137.9410 C   0  0  0  0  0  0  0  0  0  0  0  0
  184.9220  177.6720  136.5850 C   0  0  0  0  0  2  0  0  0  0  0  0
  183.9090  174.3120  137.7440 N   0  0  0  0  0  2  0  0  0  0  0  0
  180.3400  182.1540  136.9050 N   0  0  0  0  0  0  0  0  0  0  0  0
  186.2340  174.6390  137.0190 C   0  0  0  0  0  2  0  0  0  0  0  0
  182.8760  175.1620  138.3260 C   0  0  2  0  0  3  0  0  0  0  0  0
  181.5420  174.9530  137.5970 C   0  0  2  0  0  3  0  0  0  0  0  0
  181.2690  177.4020  137.1870 C   0  0  2  0  0  3  0  0  0  0  0  0
  181.1550  182.4050  137.9650 C   0  0  0  0  0  3  0  0  0  0  0  0
  187.1880  176.7510  135.9920 C   0  0  0  0  0  3  0  0  0  0  0  0
  184.8090  175.1960  137.0150 C   0  0  2  0  0  3  0  0  0  0  0  0
  181.9410  181.3840  138.5010 C   0  0  0  0  0  3  0  0  0  0  0  0
  185.8840  177.2670  135.4620 C   0  0  0  0  0  2  0  0  0  0  0  0
  181.2500  176.0130  136.5410 C   0  0  1  0  0  3  0  0  0  0  0  0
  180.9860  178.5250  136.1840 C   0  0  0  0  0  2  0  0  0  0  0  0
  184.7370  176.5740  137.6420 C   0  0  2  0  0  3  0  0  0  0  0  0
  183.5440  179.2120  139.3800 O   0  0  0  0  0  0  0  0  0  0  0  0
  180.2640  180.9180  136.3400 C   0  0  0  0  0  3  0  0  0  0  0  0
  182.4910  177.6620  137.9670 N   0  0  0  0  0  0  0  0  0  0  0  0
  181.0220  179.8650  136.8540 C   0  0  0  0  0  0  0  0  0  0  0  0
  179.6880  173.8500  138.0950 C   0  0  0  0  0  1  0  0  0  0  0  0
  180.5000  174.9010  138.5260 O   0  0  0  0  0  0  0  0  0  0  0  0
  181.9680  174.5490  134.6500 C   0  0  0  0  0  1  0  0  0  0  0  0
  182.1910  175.8750  135.3480 C   0  0  0  0  0  2  0  0  0  0  0  0
  188.6320  175.2340  137.1160 O   0  0  0  0  0  0  0  0  0  0  0  0
  189.7010  176.1600  137.2840 C   0  0  0  0  0  2  0  0  0  0  0  0
  189.7840  176.5700  138.7140 C   0  0  0  0  0  0  0  0  0  0  0  0
  188.9500  177.6980  139.2160 C   0  0  0  0  0  1  0  0  0  0  0  0
  190.5610  176.0060  139.4670 O   0  0  0  0  0  0  0  0  0  0  0  0
  1  8  1  0  0  0  0
  1 28  1  0  0  0  0
  2 22  1  6  0  0  0
  3 20  2  0  0  0  0
  4  3  1  0  0  0  0
  4 15  1  0  0  0  0
  7 12  1  0  0  0  0
  9  6  1  6  0  0  0
  9  2  1  0  0  0  0
 10  9  1  0  0  0  0
 10 25  1  1  0  0  0
 11 18  1  6  0  0  0
 11 22  1  0  0  0  0
 12 15  2  0  0  0  0
 13  1  2  0  0  0  0
 14  8  1  1  0  0  0
 14 19  1  0  0  0  0
 14  6  1  0  0  0  0
 16 13  1  0  0  0  0
 16  5  1  0  0  0  0
 17 27  1  6  0  0  0
 17 11  1  0  0  0  0
 17 10  1  0  0  0  0
 18 23  1  0  0  0  0
 19  5  1  6  0  0  0
 19  2  1  0  0  0  0
 21 23  1  0  0  0  0
 21  7  2  0  0  0  0
 22  3  1  0  0  0  0
 23  4  2  0  0  0  0
 24 25  1  0  0  0  0
 26 27  1  0  0  0  0
 28 29  1  0  0  0  0
 29 30  1  0  0  0  0
 30 31  1  0  0  0  0
 30 32  2  0  0  0  0
M  END
>  <MODEL>
3

>  <REMARK>
 VINA RESULT:      -5.0      3.535      4.747
  Name = 
  5 active torsions:
  status: ('A' for Active; 'I' for Inactive)
    1  A    between atoms: C_1  and  C_10
    2  A    between atoms: C_2  and  O_24
    3  A    between atoms: C_10  and  O_24
    4  A    between atoms: O_13  and  C_15
    5  A    between atoms: C_25  and  C_26
                            x       y       z     vdW  Elec       q    Type
                         _______ _______ _______ _____ _____    ______ ____

>  <TORSDO>
F 5

$$$$
=
 OpenBabel10262421413D

 32 36  0  0  1  0  0  0  0  0999 V2000
  181.6250  180.8670  138.3780 C   0  0  0  0  0  0  0  0  0  0  0  0
  181.9400  177.0310  136.2210 C   0  0  1  0  0  3  0  0  0  0  0  0
  184.2050  176.0570  135.7820 C   0  0  0  0  0  0  0  0  0  0  0  0
  185.2660  175.0860  136.1100 C   0  0  0  0  0  0  0  0  0  0  0  0
  183.3860  178.2280  138.0100 C   0  0  0  0  0  2  0  0  0  0  0  0
  179.8180  177.7030  137.1980 N   0  0  0  0  0  2  0  0  0  0  0  0
  187.2240  173.2410  136.7490 N   0  0  0  0  0  0  0  0  0  0  0  0
  180.5010  179.8960  138.0700 C   0  0  0  0  0  2  0  0  0  0  0  0
  180.4680  176.6460  136.4290 C   0  0  2  0  0  3  0  0  0  0  0  0
  180.1850  175.2770  137.0640 C   0  0  2  0  0  3  0  0  0  0  0  0
  182.6150  174.7020  137.1410 C   0  0  2  0  0  3  0  0  0  0  0  0
  187.4470  174.1240  135.7380 C   0  0  0  0  0  3  0  0  0  0  0  0
  182.8150  180.5100  138.9030 C   0  0  0  0  0  3  0  0  0  0  0  0
  180.8810  178.4250  137.8840 C   0  0  2  0  0  3  0  0  0  0  0  0
  186.4720  175.0650  135.4020 C   0  0  0  0  0  3  0  0  0  0  0  0
  183.2290  179.1130  139.2520 C   0  0  0  0  0  2  0  0  0  0  0  0
  181.3170  174.7700  137.9510 C   0  0  1  0  0  3  0  0  0  0  0  0
  183.8040  174.2020  137.9690 C   0  0  0  0  0  2  0  0  0  0  0  0
  182.1600  178.2670  137.0860 C   0  0  2  0  0  3  0  0  0  0  0  0
  184.4210  176.9710  134.9390 O   0  0  0  0  0  0  0  0  0  0  0  0
  186.0600  173.2440  137.4550 C   0  0  0  0  0  3  0  0  0  0  0  0
  182.9290  175.9590  136.4410 N   0  0  0  0  0  0  0  0  0  0  0  0
  185.0530  174.1590  137.1430 C   0  0  0  0  0  0  0  0  0  0  0  0
  178.9520  173.4910  136.6280 C   0  0  0  0  0  1  0  0  0  0  0  0
  179.9050  174.3420  136.0640 O   0  0  0  0  0  0  0  0  0  0  0  0
  180.1890  175.4250  140.0800 C   0  0  0  0  0  1  0  0  0  0  0  0
  181.4290  175.5990  139.2270 C   0  0  0  0  0  2  0  0  0  0  0  0
  181.3620  182.2140  138.1030 O   0  0  0  0  0  0  0  0  0  0  0  0
  180.6930  182.6560  136.9260 C   0  0  0  0  0  2  0  0  0  0  0  0
  181.1790  184.0140  136.5560 C   0  0  0  0  0  0  0  0  0  0  0  0
  180.7810  184.6190  135.2540 C   0  0  0  0  0  1  0  0  0  0  0  0
  181.9320  184.6180  137.3020 O   0  0  0  0  0  0  0  0  0  0  0  0
  1 13  2  0  0  0  0
  2  9  1  0  0  0  0
  2 22  1  1  0  0  0
  2 19  1  0  0  0  0
  3  4  1  0  0  0  0
  3 22  1  0  0  0  0
  4 23  1  0  0  0  0
  5 16  1  0  0  0  0
  6 14  1  0  0  0  0
  7 21  1  0  0  0  0
  8  1  1  0  0  0  0
  9 10  1  0  0  0  0
  9  6  1  1  0  0  0
 10 25  1  6  0  0  0
 10 17  1  0  0  0  0
 11 17  1  0  0  0  0
 11 18  1  1  0  0  0
 12  7  2  0  0  0  0
 13 16  1  0  0  0  0
 14  8  1  6  0  0  0
 15 12  1  0  0  0  0
 15  4  2  0  0  0  0
 17 27  1  1  0  0  0
 19 14  1  0  0  0  0
 19  5  1  1  0  0  0
 20  3  2  0  0  0  0
 22 11  1  0  0  0  0
 23 21  2  0  0  0  0
 23 18  1  0  0  0  0
 25 24  1  0  0  0  0
 27 26  1  0  0  0  0
 28  1  1  0  0  0  0
 29 28  1  0  0  0  0
 30 29  1  0  0  0  0
 30 32  2  0  0  0  0
 31 30  1  0  0  0  0
M  END
>  <MODEL>
4

>  <REMARK>
 VINA RESULT:      -4.9      3.198      6.985
  Name = 
  5 active torsions:
  status: ('A' for Active; 'I' for Inactive)
    1  A    between atoms: C_1  and  C_10
    2  A    between atoms: C_2  and  O_24
    3  A    between atoms: C_10  and  O_24
    4  A    between atoms: O_13  and  C_15
    5  A    between atoms: C_25  and  C_26
                            x       y       z     vdW  Elec       q    Type
                         _______ _______ _______ _____ _____    ______ ____

>  <TORSDO>
F 5

$$$$
=
 OpenBabel10262421413D

 32 36  0  0  1  0  0  0  0  0999 V2000
  180.1930  181.5800  136.5940 C   0  0  0  0  0  0  0  0  0  0  0  0
  181.0020  178.1360  139.2300 C   0  0  1  0  0  3  0  0  0  0  0  0
  180.0920  175.8850  138.6150 C   0  0  0  0  0  0  0  0  0  0  0  0
  180.2910  174.5330  138.0600 C   0  0  0  0  0  0  0  0  0  0  0  0
  180.5840  178.4110  136.6860 C   0  0  0  0  0  2  0  0  0  0  0  0
  182.3350  180.1580  139.4330 N   0  0  0  0  0  2  0  0  0  0  0  0
  180.7090  172.0040  137.0230 N   0  0  0  0  0  0  0  0  0  0  0  0
  181.1900  181.5170  137.7350 C   0  0  0  0  0  2  0  0  0  0  0  0
  182.1490  178.8210  139.9870 C   0  0  2  0  0  3  0  0  0  0  0  0
  183.4920  178.0790  140.0440 C   0  0  2  0  0  3  0  0  0  0  0  0
  182.5660  176.1090  138.8180 C   0  0  2  0  0  3  0  0  0  0  0  0
  179.4600  172.3560  137.4350 C   0  0  0  0  0  3  0  0  0  0  0  0
  180.0760  180.6400  135.6340 C   0  0  0  0  0  3  0  0  0  0  0  0
  181.7440  180.1380  138.1020 C   0  0  2  0  0  3  0  0  0  0  0  0
  179.2280  173.6290  137.9590 C   0  0  0  0  0  3  0  0  0  0  0  0
  180.8890  179.3840  135.5410 C   0  0  0  0  0  2  0  0  0  0  0  0
  183.7120  177.1240  138.8770 C   0  0  1  0  0  3  0  0  0  0  0  0
  182.7160  175.1130  137.6640 C   0  0  0  0  0  2  0  0  0  0  0  0
  180.6700  179.0690  138.0710 C   0  0  2  0  0  3  0  0  0  0  0  0
  178.9310  176.2930  138.8900 O   0  0  0  0  0  0  0  0  0  0  0  0
  181.7570  172.8670  137.1080 C   0  0  0  0  0  3  0  0  0  0  0  0
  181.2340  176.7360  138.8280 N   0  0  0  0  0  0  0  0  0  0  0  0
  181.5730  174.1450  137.6380 C   0  0  0  0  0  0  0  0  0  0  0  0
  184.2930  178.2550  142.1010 C   0  0  0  0  0  1  0  0  0  0  0  0
  183.5980  177.3890  141.2550 O   0  0  0  0  0  0  0  0  0  0  0  0
  185.3320  177.6710  137.0570 C   0  0  0  0  0  1  0  0  0  0  0  0
  183.9240  177.8890  137.5740 C   0  0  0  0  0  2  0  0  0  0  0  0
  179.3730  182.7140  136.5610 O   0  0  0  0  0  0  0  0  0  0  0  0
  179.3930  183.7230  137.5640 C   0  0  0  0  0  2  0  0  0  0  0  0
  179.9110  184.9940  136.9840 C   0  0  0  0  0  0  0  0  0  0  0  0
  181.0920  184.9720  136.0760 C   0  0  0  0  0  1  0  0  0  0  0  0
  179.3910  186.0570  137.2800 O   0  0  0  0  0  0  0  0  0  0  0  0
  1  8  1  0  0  0  0
  2 22  1  6  0  0  0
  2  9  1  0  0  0  0
  3 22  1  0  0  0  0
  3 20  2  0  0  0  0
  4  3  1  0  0  0  0
  7 21  2  0  0  0  0
  7 12  1  0  0  0  0
  9  6  1  6  0  0  0
  9 10  1  0  0  0  0
 10 25  1  1  0  0  0
 11 18  1  6  0  0  0
 11 22  1  0  0  0  0
 11 17  1  0  0  0  0
 12 15  2  0  0  0  0
 13  1  2  0  0  0  0
 14  8  1  1  0  0  0
 14  6  1  0  0  0  0
 15  4  1  0  0  0  0
 16 13  1  0  0  0  0
 16  5  1  0  0  0  0
 17 27  1  6  0  0  0
 17 10  1  0  0  0  0
 19  5  1  6  0  0  0
 19 14  1  0  0  0  0
 19  2  1  0  0  0  0
 21 23  1  0  0  0  0
 23 18  1  0  0  0  0
 23  4  2  0  0  0  0
 25 24  1  0  0  0  0
 26 27  1  0  0  0  0
 28  1  1  0  0  0  0
 28 29  1  0  0  0  0
 30 32  2  0  0  0  0
 30 29  1  0  0  0  0
 31 30  1  0  0  0  0
M  END
>  <MODEL>
5

>  <REMARK>
 VINA RESULT:      -4.9      2.359      7.110
  Name = 
  5 active torsions:
  status: ('A' for Active; 'I' for Inactive)
    1  A    between atoms: C_1  and  C_10
    2  A    between atoms: C_2  and  O_24
    3  A    between atoms: C_10  and  O_24
    4  A    between atoms: O_13  and  C_15
    5  A    between atoms: C_25  and  C_26
                            x       y       z     vdW  Elec       q    Type
                         _______ _______ _______ _____ _____    ______ ____

>  <TORSDO>
F 5

$$$$
=
 OpenBabel10262421413D

 32 36  0  0  1  0  0  0  0  0999 V2000
  186.0510  178.5940  140.7540 C   0  0  0  0  0  0  0  0  0  0  0  0
  181.8330  179.8360  140.4050 C   0  0  1  0  0  3  0  0  0  0  0  0
  181.0530  180.9400  138.2960 C   0  0  0  0  0  0  0  0  0  0  0  0
  180.3460  180.8740  137.0040 C   0  0  0  0  0  0  0  0  0  0  0  0
  183.6450  179.0800  138.7120 C   0  0  0  0  0  2  0  0  0  0  0  0
  182.4910  178.2480  142.1240 N   0  0  0  0  0  2  0  0  0  0  0  0
  179.0010  180.7100  134.5930 N   0  0  0  0  0  0  0  0  0  0  0  0
  184.9060  178.2090  141.6710 C   0  0  0  0  0  2  0  0  0  0  0  0
  181.3470  178.9740  141.5810 C   0  0  2  0  0  3  0  0  0  0  0  0
  180.1870  178.0080  141.3070 C   0  0  2  0  0  3  0  0  0  0  0  0
  179.9510  178.8020  138.9500 C   0  0  2  0  0  3  0  0  0  0  0  0
  179.5870  181.8850  134.9490 C   0  0  0  0  0  3  0  0  0  0  0  0
  186.0000  178.5330  139.4080 C   0  0  0  0  0  3  0  0  0  0  0  0
  183.4980  178.2200  141.0720 C   0  0  2  0  0  3  0  0  0  0  0  0
  180.2730  181.9880  136.1600 C   0  0  0  0  0  3  0  0  0  0  0  0
  184.8160  178.0970  138.6010 C   0  0  0  0  0  2  0  0  0  0  0  0
  180.0860  177.5710  139.8500 C   0  0  1  0  0  3  0  0  0  0  0  0
  179.8470  178.4410  137.4650 C   0  0  0  0  0  2  0  0  0  0  0  0
  183.2780  179.4140  140.1650 C   0  0  2  0  0  3  0  0  0  0  0  0
  181.7150  181.9690  138.6050 O   0  0  0  0  0  0  0  0  0  0  0  0
  179.0610  179.6110  135.3940 C   0  0  0  0  0  3  0  0  0  0  0  0
  180.9910  179.8160  139.1950 N   0  0  0  0  0  0  0  0  0  0  0  0
  179.7250  179.6730  136.6210 C   0  0  0  0  0  0  0  0  0  0  0  0
  179.2630  179.1430  142.9680 C   0  0  0  0  0  1  0  0  0  0  0  0
  178.9830  178.5880  141.7170 O   0  0  0  0  0  0  0  0  0  0  0  0
  180.7550  175.2320  139.2820 C   0  0  0  0  0  1  0  0  0  0  0  0
  181.2460  176.6540  139.4710 C   0  0  0  0  0  2  0  0  0  0  0  0
  187.2260  179.0150  141.3870 O   0  0  0  0  0  0  0  0  0  0  0  0
  188.4610  178.3110  141.2940 C   0  0  0  0  0  2  0  0  0  0  0  0
  188.8520  177.8090  142.6410 C   0  0  0  0  0  0  0  0  0  0  0  0
  188.0420  176.7490  143.3060 C   0  0  0  0  0  1  0  0  0  0  0  0
  189.8140  178.2890  143.2170 O   0  0  0  0  0  0  0  0  0  0  0  0
  1 28  1  0  0  0  0
  1  8  1  0  0  0  0
  2 22  1  6  0  0  0
  2  9  1  0  0  0  0
  3 20  2  0  0  0  0
  3 22  1  0  0  0  0
  4  3  1  0  0  0  0
  7 12  2  0  0  0  0
  7 21  1  0  0  0  0
  9  6  1  6  0  0  0
 10  9  1  0  0  0  0
 10 25  1  6  0  0  0
 11 18  1  6  0  0  0
 11 22  1  0  0  0  0
 11 17  1  0  0  0  0
 12 15  1  0  0  0  0
 13  1  2  0  0  0  0
 14  8  1  1  0  0  0
 14  6  1  0  0  0  0
 15  4  2  0  0  0  0
 16  5  1  0  0  0  0
 16 13  1  0  0  0  0
 17 27  1  6  0  0  0
 17 10  1  0  0  0  0
 19  5  1  6  0  0  0
 19  2  1  0  0  0  0
 19 14  1  0  0  0  0
 21 23  2  0  0  0  0
 23  4  1  0  0  0  0
 23 18  1  0  0  0  0
 25 24  1  0  0  0  0
 26 27  1  0  0  0  0
 29 28  1  0  0  0  0
 29 30  1  0  0  0  0
 30 32  2  0  0  0  0
 30 31  1  0  0  0  0
M  END
>  <MODEL>
6

>  <REMARK>
 VINA RESULT:      -4.9      2.445      3.656
  Name = 
  5 active torsions:
  status: ('A' for Active; 'I' for Inactive)
    1  A    between atoms: C_1  and  C_10
    2  A    between atoms: C_2  and  O_24
    3  A    between atoms: C_10  and  O_24
    4  A    between atoms: O_13  and  C_15
    5  A    between atoms: C_25  and  C_26
                            x       y       z     vdW  Elec       q    Type
                         _______ _______ _______ _____ _____    ______ ____

>  <TORSDO>
F 5

$$$$
=
 OpenBabel10262421413D

 32 36  0  0  1  0  0  0  0  0999 V2000
  184.1350  175.8010  137.0010 C   0  0  0  0  0  0  0  0  0  0  0  0
  182.4670  178.9360  139.6180 C   0  0  1  0  0  3  0  0  0  0  0  0
  182.1710  181.2530  138.7160 C   0  0  0  0  0  0  0  0  0  0  0  0
  181.3010  182.3130  138.1720 C   0  0  0  0  0  0  0  0  0  0  0  0
  182.4410  178.5080  137.0610 C   0  0  0  0  0  2  0  0  0  0  0  0
  182.2080  176.5940  140.2150 N   0  0  0  0  0  2  0  0  0  0  0  0
  179.6330  184.2770  137.1690 N   0  0  0  0  0  0  0  0  0  0  0  0
  183.4600  175.6060  138.3450 C   0  0  0  0  0  2  0  0  0  0  0  0
  181.9060  177.9520  140.6560 C   0  0  2  0  0  3  0  0  0  0  0  0
  180.4160  178.0770  141.0060 C   0  0  2  0  0  3  0  0  0  0  0  0
  180.1330  180.0630  139.5170 C   0  0  2  0  0  3  0  0  0  0  0  0
  180.9650  184.5300  137.2810 C   0  0  0  0  0  3  0  0  0  0  0  0
  183.6390  176.5630  136.0050 C   0  0  0  0  0  3  0  0  0  0  0  0
  182.4520  176.6710  138.7810 C   0  0  2  0  0  3  0  0  0  0  0  0
  181.8240  183.5510  137.7830 C   0  0  0  0  0  3  0  0  0  0  0  0
  182.3630  177.3480  136.0620 C   0  0  0  0  0  2  0  0  0  0  0  0
  179.5760  178.6860  139.8890 C   0  0  1  0  0  3  0  0  0  0  0  0
  179.3390  180.7390  138.3950 C   0  0  0  0  0  2  0  0  0  0  0  0
  182.9280  178.0720  138.4510 C   0  0  2  0  0  3  0  0  0  0  0  0
  183.4240  181.4010  138.7180 O   0  0  0  0  0  0  0  0  0  0  0  0
  179.1010  183.0810  137.5370 C   0  0  0  0  0  3  0  0  0  0  0  0
  181.5770  180.0470  139.2300 N   0  0  0  0  0  0  0  0  0  0  0  0
  179.9210  182.0780  138.0570 C   0  0  0  0  0  0  0  0  0  0  0  0
  178.9310  178.6540  142.5430 C   0  0  0  0  0  1  0  0  0  0  0  0
  180.2690  178.8230  142.1780 O   0  0  0  0  0  0  0  0  0  0  0  0
  178.9310  176.3850  139.1660 C   0  0  0  0  0  1  0  0  0  0  0  0
  179.4570  177.7290  138.7060 C   0  0  0  0  0  2  0  0  0  0  0  0
  185.3390  175.1110  136.8150 O   0  0  0  0  0  0  0  0  0  0  0  0
  185.4160  173.8130  136.2360 C   0  0  0  0  0  2  0  0  0  0  0  0
  185.0040  172.7930  137.2400 C   0  0  0  0  0  0  0  0  0  0  0  0
  183.8010  171.9490  136.9960 C   0  0  0  0  0  1  0  0  0  0  0  0
  185.6300  172.6720  138.2800 O   0  0  0  0  0  0  0  0  0  0  0  0
  1  8  1  0  0  0  0
  2 22  1  6  0  0  0
  2  9  1  0  0  0  0
  3 20  2  0  0  0  0
  3 22  1  0  0  0  0
  4  3  1  0  0  0  0
  7 12  2  0  0  0  0
  7 21  1  0  0  0  0
  9  6  1  6  0  0  0
  9 10  1  0  0  0  0
 10 25  1  1  0  0  0
 11 18  1  6  0  0  0
 11 17  1  0  0  0  0
 12 15  1  0  0  0  0
 13 16  1  0  0  0  0
 13  1  2  0  0  0  0
 14  8  1  1  0  0  0
 14  6  1  0  0  0  0
 15  4  2  0  0  0  0
 16  5  1  0  0  0  0
 17 27  1  6  0  0  0
 17 10  1  0  0  0  0
 19  5  1  6  0  0  0
 19 14  1  0  0  0  0
 19  2  1  0  0  0  0
 21 23  2  0  0  0  0
 22 11  1  0  0  0  0
 23  4  1  0  0  0  0
 23 18  1  0  0  0  0
 25 24  1  0  0  0  0
 27 26  1  0  0  0  0
 28  1  1  0  0  0  0
 29 28  1  0  0  0  0
 29 30  1  0  0  0  0
 30 32  2  0  0  0  0
 31 30  1  0  0  0  0
M  END
>  <MODEL>
7

>  <REMARK>
 VINA RESULT:      -4.6      2.903      4.938
  Name = 
  5 active torsions:
  status: ('A' for Active; 'I' for Inactive)
    1  A    between atoms: C_1  and  C_10
    2  A    between atoms: C_2  and  O_24
    3  A    between atoms: C_10  and  O_24
    4  A    between atoms: O_13  and  C_15
    5  A    between atoms: C_25  and  C_26
                            x       y       z     vdW  Elec       q    Type
                         _______ _______ _______ _____ _____    ______ ____

>  <TORSDO>
F 5

$$$$
=
 OpenBabel10262421413D

 32 36  0  0  1  0  0  0  0  0999 V2000
  184.5210  178.9730  140.4920 C   0  0  0  0  0  0  0  0  0  0  0  0
  182.3200  177.3750  137.0200 C   0  0  1  0  0  3  0  0  0  0  0  0
  181.9630  174.9030  136.8300 C   0  0  0  0  0  0  0  0  0  0  0  0
  181.0890  173.7220  136.9620 C   0  0  0  0  0  0  0  0  0  0  0  0
  182.6360  176.6050  139.4750 C   0  0  0  0  0  2  0  0  0  0  0  0
  182.1670  179.7370  137.5700 N   0  0  0  0  0  2  0  0  0  0  0  0
  179.4130  171.5380  137.2130 N   0  0  0  0  0  0  0  0  0  0  0  0
  183.7060  179.7610  139.4850 C   0  0  0  0  0  2  0  0  0  0  0  0
  181.7130  178.7280  136.6190 C   0  0  2  0  0  3  0  0  0  0  0  0
  180.1870  178.7920  136.4650 C   0  0  2  0  0  3  0  0  0  0  0  0
  179.9380  176.3510  136.9380 C   0  0  2  0  0  3  0  0  0  0  0  0
  180.6990  171.3460  136.8130 C   0  0  0  0  0  3  0  0  0  0  0  0
  184.0940  177.8500  141.1040 C   0  0  0  0  0  3  0  0  0  0  0  0
  182.5750  179.0190  138.7690 C   0  0  2  0  0  3  0  0  0  0  0  0
  181.5620  172.4360  136.6820 C   0  0  0  0  0  3  0  0  0  0  0  0
  182.7660  177.1910  140.8860 C   0  0  0  0  0  2  0  0  0  0  0  0
  179.4440  177.7550  137.3000 C   0  0  1  0  0  3  0  0  0  0  0  0
  179.2370  175.2520  137.7430 C   0  0  0  0  0  2  0  0  0  0  0  0
  182.9820  177.6140  138.3710 C   0  0  2  0  0  3  0  0  0  0  0  0
  183.1920  174.7570  136.5840 O   0  0  0  0  0  0  0  0  0  0  0  0
  178.9310  172.7780  137.4940 C   0  0  0  0  0  3  0  0  0  0  0  0
  181.4040  176.2190  136.9950 N   0  0  0  0  0  0  0  0  0  0  0  0
  179.7550  173.8970  137.3640 C   0  0  0  0  0  0  0  0  0  0  0  0
  179.2090  179.8560  134.7870 C   0  0  0  0  0  1  0  0  0  0  0  0
  179.8430  178.6560  135.1160 O   0  0  0  0  0  0  0  0  0  0  0  0
  178.9310  179.4340  139.0760 C   0  0  0  0  0  1  0  0  0  0  0  0
  179.5410  178.0780  138.7890 C   0  0  0  0  0  2  0  0  0  0  0  0
  185.7870  179.4910  140.7920 O   0  0  0  0  0  0  0  0  0  0  0  0
  186.8560  178.6980  141.2980 C   0  0  0  0  0  2  0  0  0  0  0  0
  187.7470  178.2880  140.1770 C   0  0  0  0  0  0  0  0  0  0  0  0
  188.9860  177.5090  140.4550 C   0  0  0  0  0  1  0  0  0  0  0  0
  187.4830  178.6200  139.0330 O   0  0  0  0  0  0  0  0  0  0  0  0
  1 28  1  0  0  0  0
  1 13  2  0  0  0  0
  2 22  1  1  0  0  0
  2 19  1  0  0  0  0
  3  4  1  0  0  0  0
  3 22  1  0  0  0  0
  4 23  1  0  0  0  0
  5 16  1  0  0  0  0
  6 14  1  0  0  0  0
  7 21  1  0  0  0  0
  8  1  1  0  0  0  0
  9  2  1  0  0  0  0
  9  6  1  1  0  0  0
 10 25  1  6  0  0  0
 10  9  1  0  0  0  0
 10 17  1  0  0  0  0
 11 22  1  0  0  0  0
 11 17  1  0  0  0  0
 11 18  1  1  0  0  0
 12  7  2  0  0  0  0
 14  8  1  6  0  0  0
 15 12  1  0  0  0  0
 15  4  2  0  0  0  0
 16 13  1  0  0  0  0
 17 27  1  1  0  0  0
 19 14  1  0  0  0  0
 19  5  1  1  0  0  0
 20  3  2  0  0  0  0
 23 21  2  0  0  0  0
 23 18  1  0  0  0  0
 24 25  1  0  0  0  0
 27 26  1  0  0  0  0
 28 29  1  0  0  0  0
 30 31  1  0  0  0  0
 30 29  1  0  0  0  0
 32 30  2  0  0  0  0
M  END
>  <MODEL>
8

>  <REMARK>
 VINA RESULT:      -4.6      2.745      6.086
  Name = 
  5 active torsions:
  status: ('A' for Active; 'I' for Inactive)
    1  A    between atoms: C_1  and  C_10
    2  A    between atoms: C_2  and  O_24
    3  A    between atoms: C_10  and  O_24
    4  A    between atoms: O_13  and  C_15
    5  A    between atoms: C_25  and  C_26
                            x       y       z     vdW  Elec       q    Type
                         _______ _______ _______ _____ _____    ______ ____

>  <TORSDO>
F 5

$$$$
=
 OpenBabel10262421413D

 32 36  0  0  1  0  0  0  0  0999 V2000
  183.5900  179.0260  144.2180 C   0  0  0  0  0  0  0  0  0  0  0  0
  184.0750  177.4180  140.1390 C   0  0  1  0  0  3  0  0  0  0  0  0
  182.2760  175.9680  139.1730 C   0  0  0  0  0  0  0  0  0  0  0  0
  181.1130  175.7940  138.2820 C   0  0  0  0  0  0  0  0  0  0  0  0
  182.0340  178.0660  141.5990 C   0  0  0  0  0  2  0  0  0  0  0  0
  185.4500  179.2800  140.8800 N   0  0  0  0  0  2  0  0  0  0  0  0
  178.9460  175.5080  136.5890 N   0  0  0  0  0  0  0  0  0  0  0  0
  184.6200  179.4450  143.1870 C   0  0  0  0  0  2  0  0  0  0  0  0
  185.1920  178.3970  139.7470 C   0  0  2  0  0  3  0  0  0  0  0  0
  184.9840  179.2210  138.4680 C   0  0  2  0  0  3  0  0  0  0  0  0
  182.8160  178.0830  137.9710 C   0  0  2  0  0  3  0  0  0  0  0  0
  179.3520  174.4450  137.3350 C   0  0  0  0  0  3  0  0  0  0  0  0
  182.2720  178.8900  143.9650 C   0  0  0  0  0  3  0  0  0  0  0  0
  184.2570  179.2390  141.7140 C   0  0  2  0  0  3  0  0  0  0  0  0
  180.4420  174.5700  138.1970 C   0  0  0  0  0  3  0  0  0  0  0  0
  181.6130  179.1130  142.6380 C   0  0  0  0  0  2  0  0  0  0  0  0
  183.5180  179.4370  138.1130 C   0  0  1  0  0  3  0  0  0  0  0  0
  181.3320  178.2210  137.6160 C   0  0  0  0  0  2  0  0  0  0  0  0
  183.5570  177.9140  141.4840 C   0  0  2  0  0  3  0  0  0  0  0  0
  182.6050  175.0490  139.9720 O   0  0  0  0  0  0  0  0  0  0  0  0
  179.5790  176.7100  136.6560 C   0  0  0  0  0  3  0  0  0  0  0  0
  183.0210  177.2000  139.1310 N   0  0  0  0  0  0  0  0  0  0  0  0
  180.6830  176.8750  137.4950 C   0  0  0  0  0  0  0  0  0  0  0  0
  186.9680  178.4650  137.8400 C   0  0  0  0  0  1  0  0  0  0  0  0
  185.6510  178.6110  137.4010 O   0  0  0  0  0  0  0  0  0  0  0  0
  182.0830  181.4650  138.3750 C   0  0  0  0  0  1  0  0  0  0  0  0
  182.8450  180.3790  139.1070 C   0  0  0  0  0  2  0  0  0  0  0  0
  184.0780  178.7920  145.5090 O   0  0  0  0  0  0  0  0  0  0  0  0
  185.3120  179.3190  145.9860 C   0  0  0  0  0  2  0  0  0  0  0  0
  186.2190  178.2000  146.3650 C   0  0  0  0  0  0  0  0  0  0  0  0
  186.6350  177.1980  145.3440 C   0  0  0  0  0  1  0  0  0  0  0  0
  186.5940  178.0820  147.5200 O   0  0  0  0  0  0  0  0  0  0  0  0
  1 28  1  0  0  0  0
  2 22  1  6  0  0  0
  2 19  1  0  0  0  0
  3 20  2  0  0  0  0
  4  3  1  0  0  0  0
  5 16  1  0  0  0  0
  6 14  1  0  0  0  0
  7 21  2  0  0  0  0
  7 12  1  0  0  0  0
  8  1  1  0  0  0  0
  9  2  1  0  0  0  0
  9  6  1  1  0  0  0
 10 25  1  6  0  0  0
 10  9  1  0  0  0  0
 11 18  1  1  0  0  0
 11 17  1  0  0  0  0
 11 22  1  0  0  0  0
 12 15  2  0  0  0  0
 13  1  2  0  0  0  0
 14  8  1  1  0  0  0
 15  4  1  0  0  0  0
 16 13  1  0  0  0  0
 17 10  1  0  0  0  0
 17 27  1  1  0  0  0
 19  5  1  6  0  0  0
 19 14  1  0  0  0  0
 21 23  1  0  0  0  0
 22  3  1  0  0  0  0
 23 18  1  0  0  0  0
 23  4  2  0  0  0  0
 25 24  1  0  0  0  0
 26 27  1  0  0  0  0
 28 29  1  0  0  0  0
 29 30  1  0  0  0  0
 30 32  2  0  0  0  0
 31 30  1  0  0  0  0
M  END
>  <MODEL>
9

>  <REMARK>
 VINA RESULT:      -4.5      2.991      5.306
  Name = 
  5 active torsions:
  status: ('A' for Active; 'I' for Inactive)
    1  A    between atoms: C_1  and  C_10
    2  A    between atoms: C_2  and  O_24
    3  A    between atoms: C_10  and  O_24
    4  A    between atoms: O_13  and  C_15
    5  A    between atoms: C_25  and  C_26
                            x       y       z     vdW  Elec       q    Type
                         _______ _______ _______ _____ _____    ______ ____

>  <TORSDO>
F 5

$$$$
