=
 OpenBabel10262421313D

 32 36  0  0  1  0  0  0  0  0999 V2000
  188.7310  177.3780  146.9670 C   0  0  0  0  0  3  0  0  0  0  0  0
  186.2480  178.2780  142.4030 C   0  0  0  0  0  0  0  0  0  0  0  0
  181.6520  178.8510  143.9020 C   0  0  0  0  0  3  0  0  0  0  0  0
  181.2600  179.0560  142.5790 C   0  0  0  0  0  3  0  0  0  0  0  0
  188.0750  177.8140  143.9310 N   0  0  0  0  0  0  0  0  0  0  0  0
  185.7350  178.1070  144.7350 C   0  0  0  0  0  3  0  0  0  0  0  0
  187.4520  177.6560  146.3170 C   0  0  0  0  0  3  0  0  0  0  0  0
  182.9930  178.6050  144.2040 C   0  0  0  0  0  3  0  0  0  0  0  0
  185.3220  178.3120  143.4730 C   0  0  0  0  0  0  0  0  0  0  0  0
  183.9630  178.5630  143.1850 C   0  0  0  0  0  0  0  0  0  0  0  0
  184.5250  178.7350  140.8220 C   0  0  0  0  0  0  0  0  0  0  0  0
  190.2620  177.3410  145.0180 C   0  0  0  0  0  3  0  0  0  0  0  0
  187.1480  177.8450  145.0360 C   0  0  0  0  0  0  0  0  0  0  0  0
  189.4860  177.5820  143.9660 C   0  0  0  0  0  3  0  0  0  0  0  0
  189.9460  177.2370  146.4480 C   0  0  0  0  0  0  0  0  0  0  0  0
  182.2080  179.0170  141.5560 C   0  0  0  0  0  3  0  0  0  0  0  0
  183.5600  178.7750  141.8430 C   0  0  0  0  0  0  0  0  0  0  0  0
  187.5500  178.0430  142.6150 C   0  0  0  0  0  3  0  0  0  0  0  0
  185.8240  178.4880  141.1300 N   0  0  0  0  0  0  0  0  0  0  0  0
  192.0490  175.9970  147.2580 C   0  0  0  0  0  0  0  0  0  0  0  0
  190.9990  176.9650  147.3840 N   0  0  0  0  0  2  0  0  0  0  0  0
  192.1380  175.2560  146.2450 O   0  0  0  0  0  0  0  0  0  0  0  0
  193.0090  175.8710  148.2990 N   0  0  0  0  0  1  0  0  0  0  0  0
  184.1570  178.9710  139.3880 C   0  0  0  0  0  2  0  0  0  0  0  0
  185.3040  177.4450  137.7520 C   0  0  0  0  0  0  0  0  0  0  0  0
  183.3650  176.6170  138.5330 C   0  0  0  0  0  0  0  0  0  0  0  0
  183.7860  175.6930  137.6840 C   0  0  0  0  0  3  0  0  0  0  0  0
  185.0910  176.1260  137.0870 C   0  0  0  0  0  3  0  0  0  0  0  0
  182.1030  176.5160  139.3140 C   0  0  0  0  0  1  0  0  0  0  0  0
  184.3140  177.7150  138.5870 C   0  0  2  0  0  3  0  0  0  0  0  0
  186.4300  178.3030  137.4950 C   0  0  0  0  0  0  0  0  0  0  0  0
  187.3360  178.9940  137.2860 N   0  0  0  0  0  0  0  0  0  0  0  0
  2 18  2  0  0  0  0
  2  9  1  0  0  0  0
  3  8  1  0  0  0  0
  4  3  2  0  0  0  0
  5 14  1  0  0  0  0
  5 13  1  0  0  0  0
  6 13  1  0  0  0  0
  7  1  1  0  0  0  0
  9  6  2  0  0  0  0
 10  9  1  0  0  0  0
 10  8  2  0  0  0  0
 11 19  2  0  0  0  0
 11 17  1  0  0  0  0
 12 15  1  0  0  0  0
 13  7  2  0  0  0  0
 14 12  2  0  0  0  0
 15  1  2  0  0  0  0
 15 21  1  0  0  0  0
 16 17  2  0  0  0  0
 16  4  1  0  0  0  0
 17 10  1  0  0  0  0
 18  5  1  0  0  0  0
 19  2  1  0  0  0  0
 20 21  1  0  0  0  0
 20 23  1  0  0  0  0
 22 20  2  0  0  0  0
 24 11  1  0  0  0  0
 25 30  1  0  0  0  0
 26 30  1  0  0  0  0
 26 29  1  0  0  0  0
 27 26  2  0  0  0  0
 28 27  1  0  0  0  0
 28 25  2  0  0  0  0
 30 24  1  6  0  0  0
 31 25  1  0  0  0  0
 32 31  3  0  0  0  0
M  END
>  <MODEL>
1

>  <REMARK>
 VINA RESULT:     -10.5      0.000      0.000
  Name = 
  4 active torsions:
  status: ('A' for Active; 'I' for Inactive)
    1  A    between atoms: C_6  and  C_7
    2  A    between atoms: N_10  and  C_24
    3  A    between atoms: C_16  and  C_27
    4  A    between atoms: C_27  and  C_32
                            x       y       z     vdW  Elec       q    Type
                         _______ _______ _______ _____ _____    ______ ____

>  <TORSDO>
F 4

$$$$
=
 OpenBabel10262421313D

 32 36  0  0  1  0  0  0  0  0999 V2000
  188.7280  177.3850  146.8110 C   0  0  0  0  0  3  0  0  0  0  0  0
  186.2730  178.3020  142.2350 C   0  0  0  0  0  0  0  0  0  0  0  0
  181.6650  178.8520  143.7050 C   0  0  0  0  0  3  0  0  0  0  0  0
  181.2810  179.0640  142.3810 C   0  0  0  0  0  3  0  0  0  0  0  0
  188.0910  177.8360  143.7730 N   0  0  0  0  0  0  0  0  0  0  0  0
  185.7450  178.1170  144.5620 C   0  0  0  0  0  3  0  0  0  0  0  0
  187.4520  177.6630  146.1540 C   0  0  0  0  0  3  0  0  0  0  0  0
  183.0050  178.6090  144.0150 C   0  0  0  0  0  3  0  0  0  0  0  0
  185.3400  178.3270  143.2990 C   0  0  0  0  0  0  0  0  0  0  0  0
  183.9820  178.5750  143.0030 C   0  0  0  0  0  0  0  0  0  0  0  0
  184.5590  178.7620  140.6440 C   0  0  0  0  0  0  0  0  0  0  0  0
  190.2730  177.3650  144.8720 C   0  0  0  0  0  3  0  0  0  0  0  0
  187.1570  177.8580  144.8720 C   0  0  0  0  0  0  0  0  0  0  0  0
  189.5030  177.6090  143.8160 C   0  0  0  0  0  3  0  0  0  0  0  0
  189.9460  177.2520  146.3000 C   0  0  0  0  0  0  0  0  0  0  0  0
  182.2370  179.0330  141.3640 C   0  0  0  0  0  3  0  0  0  0  0  0
  183.5870  178.7930  141.6590 C   0  0  0  0  0  0  0  0  0  0  0  0
  187.5740  178.0710  142.4550 C   0  0  0  0  0  3  0  0  0  0  0  0
  185.8570  178.5180  140.9610 N   0  0  0  0  0  0  0  0  0  0  0  0
  192.0280  175.9900  147.1330 C   0  0  0  0  0  0  0  0  0  0  0  0
  190.9940  176.9770  147.2420 N   0  0  0  0  0  2  0  0  0  0  0  0
  192.1050  175.2300  146.1330 O   0  0  0  0  0  0  0  0  0  0  0  0
  192.9840  175.8660  148.1770 N   0  0  0  0  0  1  0  0  0  0  0  0
  184.2000  179.0060  139.2100 C   0  0  0  0  0  2  0  0  0  0  0  0
  183.7430  176.7230  138.2590 C   0  0  0  0  0  0  0  0  0  0  0  0
  185.7230  177.5740  137.6180 C   0  0  0  0  0  0  0  0  0  0  0  0
  185.6890  176.3820  137.0440 C   0  0  0  0  0  3  0  0  0  0  0  0
  184.4000  175.7000  137.3930 C   0  0  0  0  0  3  0  0  0  0  0  0
  186.8550  178.5300  137.4830 C   0  0  0  0  0  1  0  0  0  0  0  0
  184.5050  177.7990  138.3760 C   0  0  2  0  0  3  0  0  0  0  0  0
  182.4620  176.5410  138.8890 C   0  0  0  0  0  0  0  0  0  0  0  0
  181.4320  176.3920  139.3960 N   0  0  0  0  0  0  0  0  0  0  0  0
  2 18  2  0  0  0  0
  2  9  1  0  0  0  0
  3  8  1  0  0  0  0
  4  3  2  0  0  0  0
  5 14  1  0  0  0  0
  5 13  1  0  0  0  0
  6 13  1  0  0  0  0
  7  1  1  0  0  0  0
  9  6  2  0  0  0  0
 10  9  1  0  0  0  0
 10  8  2  0  0  0  0
 11 19  2  0  0  0  0
 11 17  1  0  0  0  0
 12 15  1  0  0  0  0
 13  7  2  0  0  0  0
 14 12  2  0  0  0  0
 15  1  2  0  0  0  0
 15 21  1  0  0  0  0
 16 17  2  0  0  0  0
 16  4  1  0  0  0  0
 17 10  1  0  0  0  0
 18  5  1  0  0  0  0
 19  2  1  0  0  0  0
 20 21  1  0  0  0  0
 20 23  1  0  0  0  0
 22 20  2  0  0  0  0
 24 11  1  0  0  0  0
 25 30  1  0  0  0  0
 25 31  1  0  0  0  0
 26 30  1  0  0  0  0
 27 28  1  0  0  0  0
 27 26  2  0  0  0  0
 28 25  2  0  0  0  0
 29 26  1  0  0  0  0
 30 24  1  1  0  0  0
 31 32  3  0  0  0  0
M  END
>  <MODEL>
2

>  <REMARK>
 VINA RESULT:      -9.9      0.957      1.883
  Name = 
  4 active torsions:
  status: ('A' for Active; 'I' for Inactive)
    1  A    between atoms: C_6  and  C_7
    2  A    between atoms: N_10  and  C_24
    3  A    between atoms: C_16  and  C_27
    4  A    between atoms: C_27  and  C_32
                            x       y       z     vdW  Elec       q    Type
                         _______ _______ _______ _____ _____    ______ ____

>  <TORSDO>
F 4

$$$$
=
 OpenBabel10262421313D

 32 36  0  0  0  0  0  0  0  0999 V2000
  191.7880  176.7930  144.1840 C   0  0  0  0  0  3  0  0  0  0  0  0
  188.5850  177.8080  140.1210 C   0  0  0  0  0  0  0  0  0  0  0  0
  191.2610  176.2430  136.3680 C   0  0  0  0  0  3  0  0  0  0  0  0
  190.2360  176.6140  135.4970 C   0  0  0  0  0  3  0  0  0  0  0  0
  189.3590  177.6970  142.4170 N   0  0  0  0  0  0  0  0  0  0  0  0
  190.7550  176.8810  140.5210 C   0  0  0  0  0  3  0  0  0  0  0  0
  191.6090  176.7260  142.7350 C   0  0  0  0  0  3  0  0  0  0  0  0
  191.1190  176.4410  137.7420 C   0  0  0  0  0  3  0  0  0  0  0  0
  189.7880  177.2240  139.6550 C   0  0  0  0  0  0  0  0  0  0  0  0
  189.9460  177.0140  138.2680 C   0  0  0  0  0  0  0  0  0  0  0  0
  187.7310  177.9570  137.9000 C   0  0  0  0  0  0  0  0  0  0  0  0
  189.6440  177.8210  144.8850 C   0  0  0  0  0  3  0  0  0  0  0  0
  190.5930  177.1010  141.9640 C   0  0  0  0  0  0  0  0  0  0  0  0
  188.9670  178.0080  143.7570 C   0  0  0  0  0  3  0  0  0  0  0  0
  190.9760  177.2520  145.1290 C   0  0  0  0  0  0  0  0  0  0  0  0
  189.0650  177.1830  136.0010 C   0  0  0  0  0  3  0  0  0  0  0  0
  188.9060  177.3860  137.3800 C   0  0  0  0  0  0  0  0  0  0  0  0
  188.3790  178.0330  141.4250 C   0  0  0  0  0  3  0  0  0  0  0  0
  187.6100  178.1500  139.2390 N   0  0  0  0  0  0  0  0  0  0  0  0
  192.1600  176.0690  147.0830 C   0  0  0  0  0  0  0  0  0  0  0  0
  191.4700  177.1680  146.4740 N   0  0  0  0  0  2  0  0  0  0  0  0
  192.4040  175.0130  146.4420 O   0  0  0  0  0  0  0  0  0  0  0  0
  192.5750  176.1720  148.4390 N   0  0  0  0  0  1  0  0  0  0  0  0
  186.5920  178.3520  137.0090 C   0  0  0  0  0  2  0  0  0  0  0  0
  184.3640  177.8780  138.0730 C   0  0  0  0  0  0  0  0  0  0  0  0
  185.1510  176.1620  136.8520 C   0  0  0  0  0  0  0  0  0  0  0  0
  184.0070  175.7080  137.3380 C   0  0  0  0  0  3  0  0  0  0  0  0
  183.3680  176.7710  138.1800 C   0  0  0  0  0  2  0  0  0  0  0  0
  186.0490  175.3730  135.9670 C   0  0  0  0  0  1  0  0  0  0  0  0
  185.3790  177.5230  137.3020 C   0  0  0  0  0  0  0  0  0  0  0  0
  184.2320  179.1470  138.7400 C   0  0  0  0  0  0  0  0  0  0  0  0
  184.1280  180.1680  139.2760 N   0  0  0  0  0  0  0  0  0  0  0  0
  1 15  2  0  0  0  0
  2 18  2  0  0  0  0
  3  8  1  0  0  0  0
  4 16  1  0  0  0  0
  4  3  2  0  0  0  0
  5 14  1  0  0  0  0
  6 13  1  0  0  0  0
  7  1  1  0  0  0  0
  8 10  2  0  0  0  0
  9  2  1  0  0  0  0
  9  6  2  0  0  0  0
 10  9  1  0  0  0  0
 11 19  2  0  0  0  0
 12 15  1  0  0  0  0
 13  5  1  0  0  0  0
 13  7  2  0  0  0  0
 14 12  2  0  0  0  0
 15 21  1  0  0  0  0
 16 17  2  0  0  0  0
 17 11  1  0  0  0  0
 17 10  1  0  0  0  0
 18  5  1  0  0  0  0
 19  2  1  0  0  0  0
 20 23  1  0  0  0  0
 21 20  1  0  0  0  0
 22 20  2  0  0  0  0
 24 30  1  0  0  0  0
 24 11  1  0  0  0  0
 25 28  1  0  0  0  0
 25 31  1  0  0  0  0
 26 30  1  0  0  0  0
 26 27  2  0  0  0  0
 27 28  1  0  0  0  0
 29 26  1  0  0  0  0
 30 25  2  0  0  0  0
 31 32  3  0  0  0  0
M  END
>  <MODEL>
3

>  <REMARK>
 VINA RESULT:      -8.9      2.567      5.232
  Name = 
  4 active torsions:
  status: ('A' for Active; 'I' for Inactive)
    1  A    between atoms: C_6  and  C_7
    2  A    between atoms: N_10  and  C_24
    3  A    between atoms: C_16  and  C_27
    4  A    between atoms: C_27  and  C_32
                            x       y       z     vdW  Elec       q    Type
                         _______ _______ _______ _____ _____    ______ ____

>  <TORSDO>
F 4

$$$$
=
 OpenBabel10262421313D

 32 36  0  0  1  0  0  0  0  0999 V2000
  189.1720  177.3480  146.4450 C   0  0  0  0  0  3  0  0  0  0  0  0
  187.4670  178.2430  141.5370 C   0  0  0  0  0  0  0  0  0  0  0  0
  182.6500  178.4390  142.2090 C   0  0  0  0  0  3  0  0  0  0  0  0
  182.4810  178.6660  140.8430 C   0  0  0  0  0  3  0  0  0  0  0  0
  189.0270  177.8510  143.3530 N   0  0  0  0  0  0  0  0  0  0  0  0
  186.5670  177.9500  143.7360 C   0  0  0  0  0  3  0  0  0  0  0  0
  188.0090  177.5610  145.5860 C   0  0  0  0  0  3  0  0  0  0  0  0
  183.9310  178.2760  142.7380 C   0  0  0  0  0  3  0  0  0  0  0  0
  186.3680  178.1720  142.4260 C   0  0  0  0  0  0  0  0  0  0  0  0
  185.0650  178.3390  141.9070 C   0  0  0  0  0  0  0  0  0  0  0  0
  186.0180  178.6370  139.6860 C   0  0  0  0  0  0  0  0  0  0  0  0
  191.0190  177.4910  144.7990 C   0  0  0  0  0  3  0  0  0  0  0  0
  187.9210  177.7750  144.2770 C   0  0  0  0  0  0  0  0  0  0  0  0
  190.4240  177.7160  143.6320 C   0  0  0  0  0  3  0  0  0  0  0  0
  190.4650  177.3120  146.1470 C   0  0  0  0  0  0  0  0  0  0  0  0
  183.5940  178.7310  140.0040 C   0  0  0  0  0  3  0  0  0  0  0  0
  184.8890  178.5720  140.5210 C   0  0  0  0  0  0  0  0  0  0  0  0
  188.7250  178.0910  141.9710 C   0  0  0  0  0  3  0  0  0  0  0  0
  187.2580  178.4700  140.2140 N   0  0  0  0  0  0  0  0  0  0  0  0
  192.2110  175.9450  147.4540 C   0  0  0  0  0  0  0  0  0  0  0  0
  191.3560  177.0780  147.2490 N   0  0  0  0  0  2  0  0  0  0  0  0
  192.2510  174.9970  146.6270 O   0  0  0  0  0  0  0  0  0  0  0  0
  193.0270  175.8920  148.6160 N   0  0  0  0  0  1  0  0  0  0  0  0
  185.8900  178.9010  138.2160 C   0  0  0  0  0  2  0  0  0  0  0  0
  185.5930  176.7810  136.8970 C   0  0  0  0  0  0  0  0  0  0  0  0
  187.7460  177.3680  137.1670 C   0  0  0  0  0  0  0  0  0  0  0  0
  187.8090  176.2350  136.4850 C   0  0  0  0  0  3  0  0  0  0  0  0
  186.4200  175.7310  136.2310 C   0  0  0  0  0  3  0  0  0  0  0  0
  188.9390  178.1510  137.5880 C   0  0  0  0  0  1  0  0  0  0  0  0
  186.3620  177.7200  137.4230 C   0  0  2  0  0  3  0  0  0  0  0  0
  184.1560  176.7500  136.9650 C   0  0  0  0  0  0  0  0  0  0  0  0
  183.0000  176.7280  137.0190 N   0  0  0  0  0  0  0  0  0  0  0  0
  2 18  2  0  0  0  0
  2  9  1  0  0  0  0
  3  8  1  0  0  0  0
  4  3  2  0  0  0  0
  5 14  1  0  0  0  0
  5 13  1  0  0  0  0
  6 13  1  0  0  0  0
  7  1  1  0  0  0  0
  9  6  2  0  0  0  0
 10  9  1  0  0  0  0
 10  8  2  0  0  0  0
 11 19  2  0  0  0  0
 11 17  1  0  0  0  0
 12 15  1  0  0  0  0
 13  7  2  0  0  0  0
 14 12  2  0  0  0  0
 15  1  2  0  0  0  0
 15 21  1  0  0  0  0
 16 17  2  0  0  0  0
 16  4  1  0  0  0  0
 17 10  1  0  0  0  0
 18  5  1  0  0  0  0
 19  2  1  0  0  0  0
 20 23  1  0  0  0  0
 21 20  1  0  0  0  0
 22 20  2  0  0  0  0
 24 11  1  0  0  0  0
 25 31  1  0  0  0  0
 25 30  1  0  0  0  0
 26 30  1  0  0  0  0
 26 29  1  0  0  0  0
 27 26  2  0  0  0  0
 28 27  1  0  0  0  0
 28 25  2  0  0  0  0
 30 24  1  1  0  0  0
 31 32  3  0  0  0  0
M  END
>  <MODEL>
4

>  <REMARK>
 VINA RESULT:      -8.9      1.463      2.378
  Name = 
  4 active torsions:
  status: ('A' for Active; 'I' for Inactive)
    1  A    between atoms: C_6  and  C_7
    2  A    between atoms: N_10  and  C_24
    3  A    between atoms: C_16  and  C_27
    4  A    between atoms: C_27  and  C_32
                            x       y       z     vdW  Elec       q    Type
                         _______ _______ _______ _____ _____    ______ ____

>  <TORSDO>
F 4

$$$$
=
 OpenBabel10262421313D

 32 36  0  0  0  0  0  0  0  0999 V2000
  191.7130  176.7750  144.2450 C   0  0  0  0  0  3  0  0  0  0  0  0
  188.3820  177.8500  140.3020 C   0  0  0  0  0  0  0  0  0  0  0  0
  190.9420  176.3550  136.4410 C   0  0  0  0  0  3  0  0  0  0  0  0
  189.8890  176.7390  135.6100 C   0  0  0  0  0  3  0  0  0  0  0  0
  189.2280  177.7020  142.5710 N   0  0  0  0  0  0  0  0  0  0  0  0
  190.5650  176.9220  140.6190 C   0  0  0  0  0  3  0  0  0  0  0  0
  191.4890  176.7310  142.8010 C   0  0  0  0  0  3  0  0  0  0  0  0
  190.8420  176.5300  137.8220 C   0  0  0  0  0  3  0  0  0  0  0  0
  189.5700  177.2770  139.7890 C   0  0  0  0  0  0  0  0  0  0  0  0
  189.6850  177.0910  138.3940 C   0  0  0  0  0  0  0  0  0  0  0  0
  187.4580  178.0350  138.1120 C   0  0  0  0  0  0  0  0  0  0  0  0
  189.5900  177.7850  145.0310 C   0  0  0  0  0  3  0  0  0  0  0  0
  190.4480  177.1170  142.0700 C   0  0  0  0  0  0  0  0  0  0  0  0
  188.8770  177.9900  143.9270 C   0  0  0  0  0  3  0  0  0  0  0  0
  190.9300  177.2150  145.2230 C   0  0  0  0  0  0  0  0  0  0  0  0
  188.7340  177.2970  136.1590 C   0  0  0  0  0  3  0  0  0  0  0  0
  188.6170  177.4760  137.5460 C   0  0  0  0  0  0  0  0  0  0  0  0
  188.2160  178.0530  141.6150 C   0  0  0  0  0  3  0  0  0  0  0  0
  187.3790  178.2050  139.4570 N   0  0  0  0  0  0  0  0  0  0  0  0
  192.2000  176.0130  147.1100 C   0  0  0  0  0  0  0  0  0  0  0  0
  191.4660  177.1100  146.5500 N   0  0  0  0  0  2  0  0  0  0  0  0
  192.4500  174.9800  146.4350 O   0  0  0  0  0  0  0  0  0  0  0  0
  192.6520  176.0930  148.4550 N   0  0  0  0  0  1  0  0  0  0  0  0
  186.2920  178.4420  137.2640 C   0  0  0  0  0  2  0  0  0  0  0  0
  184.6870  176.5060  137.3160 C   0  0  0  0  0  0  0  0  0  0  0  0
  183.9970  178.2670  138.5290 C   0  0  0  0  0  0  0  0  0  0  0  0
  183.0180  177.3860  138.6640 C   0  0  0  0  0  3  0  0  0  0  0  0
  183.3600  176.1450  137.8940 C   0  0  0  0  0  2  0  0  0  0  0  0
  183.9960  179.6130  139.1640 C   0  0  0  0  0  1  0  0  0  0  0  0
  185.0490  177.7220  137.6920 C   0  0  0  0  0  0  0  0  0  0  0  0
  185.4500  175.6440  136.4510 C   0  0  0  0  0  0  0  0  0  0  0  0
  186.0630  174.9520  135.7540 N   0  0  0  0  0  0  0  0  0  0  0  0
  1 15  2  0  0  0  0
  2 18  2  0  0  0  0
  3  8  1  0  0  0  0
  4 16  1  0  0  0  0
  4  3  2  0  0  0  0
  5 14  1  0  0  0  0
  6 13  1  0  0  0  0
  7  1  1  0  0  0  0
  8 10  2  0  0  0  0
  9  2  1  0  0  0  0
  9  6  2  0  0  0  0
 10  9  1  0  0  0  0
 11 19  2  0  0  0  0
 12 15  1  0  0  0  0
 13  5  1  0  0  0  0
 13  7  2  0  0  0  0
 14 12  2  0  0  0  0
 15 21  1  0  0  0  0
 16 17  2  0  0  0  0
 17 11  1  0  0  0  0
 17 10  1  0  0  0  0
 18  5  1  0  0  0  0
 19  2  1  0  0  0  0
 20 23  1  0  0  0  0
 21 20  1  0  0  0  0
 22 20  2  0  0  0  0
 24 30  1  0  0  0  0
 24 11  1  0  0  0  0
 25 30  2  0  0  0  0
 25 28  1  0  0  0  0
 26 27  2  0  0  0  0
 26 29  1  0  0  0  0
 28 27  1  0  0  0  0
 30 26  1  0  0  0  0
 31 25  1  0  0  0  0
 32 31  3  0  0  0  0
M  END
>  <MODEL>
5

>  <REMARK>
 VINA RESULT:      -8.6      2.376      5.027
  Name = 
  4 active torsions:
  status: ('A' for Active; 'I' for Inactive)
    1  A    between atoms: C_6  and  C_7
    2  A    between atoms: N_10  and  C_24
    3  A    between atoms: C_16  and  C_27
    4  A    between atoms: C_27  and  C_32
                            x       y       z     vdW  Elec       q    Type
                         _______ _______ _______ _____ _____    ______ ____

>  <TORSDO>
F 4

$$$$
=
 OpenBabel10262421313D

 32 36  0  0  0  0  0  0  0  0999 V2000
  191.2060  177.3040  144.5900 C   0  0  0  0  0  3  0  0  0  0  0  0
  187.1210  178.2500  141.3940 C   0  0  0  0  0  0  0  0  0  0  0  0
  189.2850  178.2420  137.0330 C   0  0  0  0  0  3  0  0  0  0  0  0
  188.0510  178.5010  136.4340 C   0  0  0  0  0  3  0  0  0  0  0  0
  188.3380  177.8800  143.4600 N   0  0  0  0  0  0  0  0  0  0  0  0
  189.4780  177.8630  141.2450 C   0  0  0  0  0  3  0  0  0  0  0  0
  190.7650  177.4890  143.2090 C   0  0  0  0  0  3  0  0  0  0  0  0
  189.3760  178.1110  138.4200 C   0  0  0  0  0  3  0  0  0  0  0  0
  188.3070  178.1100  140.6350 C   0  0  0  0  0  0  0  0  0  0  0  0
  188.2320  178.2360  139.2300 C   0  0  0  0  0  0  0  0  0  0  0  0
  185.8350  178.6200  139.4210 C   0  0  0  0  0  0  0  0  0  0  0  0
  189.0680  177.5670  145.8170 C   0  0  0  0  0  3  0  0  0  0  0  0
  189.5590  177.7330  142.7050 C   0  0  0  0  0  0  0  0  0  0  0  0
  188.1570  177.7960  144.8760 C   0  0  0  0  0  3  0  0  0  0  0  0
  190.5150  177.3300  145.7240 C   0  0  0  0  0  0  0  0  0  0  0  0
  186.9060  178.6280  137.2220 C   0  0  0  0  0  3  0  0  0  0  0  0
  186.9810  178.4960  138.6170 C   0  0  0  0  0  0  0  0  0  0  0  0
  187.1310  178.1410  142.7290 C   0  0  0  0  0  3  0  0  0  0  0  0
  185.9400  178.4960  140.7700 N   0  0  0  0  0  0  0  0  0  0  0  0
  192.1380  176.0030  147.2150 C   0  0  0  0  0  0  0  0  0  0  0  0
  191.2700  177.1070  146.9230 N   0  0  0  0  0  2  0  0  0  0  0  0
  192.3190  175.0750  146.3840 O   0  0  0  0  0  0  0  0  0  0  0  0
  192.8060  175.9550  148.4690 N   0  0  0  0  0  1  0  0  0  0  0  0
  184.4840  178.8750  138.8240 C   0  0  0  0  0  2  0  0  0  0  0  0
  182.7450  177.3850  139.8630 C   0  0  0  0  0  0  0  0  0  0  0  0
  183.6740  176.5120  138.0110 C   0  0  0  0  0  0  0  0  0  0  0  0
  182.8240  175.5790  138.4100 C   0  0  0  0  0  3  0  0  0  0  0  0
  182.1250  176.0430  139.6530 C   0  0  0  0  0  2  0  0  0  0  0  0
  184.5350  176.3910  136.8050 C   0  0  0  0  0  1  0  0  0  0  0  0
  183.6260  177.6490  138.9120 C   0  0  0  0  0  0  0  0  0  0  0  0
  182.4300  178.2530  140.9670 C   0  0  0  0  0  0  0  0  0  0  0  0
  182.1780  178.9510  141.8560 N   0  0  0  0  0  0  0  0  0  0  0  0
  1 15  2  0  0  0  0
  2 18  2  0  0  0  0
  3  8  1  0  0  0  0
  4  3  2  0  0  0  0
  4 16  1  0  0  0  0
  5 14  1  0  0  0  0
  6 13  1  0  0  0  0
  7  1  1  0  0  0  0
  8 10  2  0  0  0  0
  9  6  2  0  0  0  0
  9  2  1  0  0  0  0
 10  9  1  0  0  0  0
 11 19  2  0  0  0  0
 13  7  2  0  0  0  0
 13  5  1  0  0  0  0
 14 12  2  0  0  0  0
 15 12  1  0  0  0  0
 15 21  1  0  0  0  0
 16 17  2  0  0  0  0
 17 10  1  0  0  0  0
 17 11  1  0  0  0  0
 18  5  1  0  0  0  0
 19  2  1  0  0  0  0
 20 23  1  0  0  0  0
 21 20  1  0  0  0  0
 22 20  2  0  0  0  0
 24 30  1  0  0  0  0
 24 11  1  0  0  0  0
 25 31  1  0  0  0  0
 26 27  2  0  0  0  0
 26 30  1  0  0  0  0
 27 28  1  0  0  0  0
 28 25  1  0  0  0  0
 29 26  1  0  0  0  0
 30 25  2  0  0  0  0
 31 32  3  0  0  0  0
M  END
>  <MODEL>
6

>  <REMARK>
 VINA RESULT:      -8.6      1.579      4.249
  Name = 
  4 active torsions:
  status: ('A' for Active; 'I' for Inactive)
    1  A    between atoms: C_6  and  C_7
    2  A    between atoms: N_10  and  C_24
    3  A    between atoms: C_16  and  C_27
    4  A    between atoms: C_27  and  C_32
                            x       y       z     vdW  Elec       q    Type
                         _______ _______ _______ _____ _____    ______ ____

>  <TORSDO>
F 4

$$$$
=
 OpenBabel10262421313D

 32 36  0  0  0  0  0  0  0  0999 V2000
  182.8100  178.5590  141.0220 C   0  0  0  0  0  3  0  0  0  0  0  0
  187.6330  178.3120  143.1390 C   0  0  0  0  0  0  0  0  0  0  0  0
  186.5870  177.7970  147.8650 C   0  0  0  0  0  3  0  0  0  0  0  0
  187.9520  177.7640  148.1510 C   0  0  0  0  0  3  0  0  0  0  0  0
  185.9190  178.5060  141.4320 N   0  0  0  0  0  0  0  0  0  0  0  0
  185.3460  178.2390  143.8420 C   0  0  0  0  0  3  0  0  0  0  0  0
  183.5890  178.4210  142.2510 C   0  0  0  0  0  3  0  0  0  0  0  0
  186.1510  177.9410  146.5460 C   0  0  0  0  0  3  0  0  0  0  0  0
  186.6520  178.2010  144.1540 C   0  0  0  0  0  0  0  0  0  0  0  0
  187.0760  178.0520  145.4920 C   0  0  0  0  0  0  0  0  0  0  0  0
  189.3910  178.1240  144.7370 C   0  0  0  0  0  0  0  0  0  0  0  0
  184.6110  178.7430  139.3290 C   0  0  0  0  0  3  0  0  0  0  0  0
  184.9030  178.3950  142.4510 C   0  0  0  0  0  0  0  0  0  0  0  0
  185.7440  178.6630  140.0210 C   0  0  0  0  0  3  0  0  0  0  0  0
  183.2090  178.6980  139.7630 C   0  0  0  0  0  0  0  0  0  0  0  0
  188.8840  177.8740  147.1180 C   0  0  0  0  0  3  0  0  0  0  0  0
  188.4620  178.0150  145.7870 C   0  0  0  0  0  0  0  0  0  0  0  0
  187.2900  178.4560  141.8520 C   0  0  0  0  0  3  0  0  0  0  0  0
  188.9510  178.2700  143.4600 N   0  0  0  0  0  0  0  0  0  0  0  0
  181.7000  180.0020  138.1370 C   0  0  0  0  0  0  0  0  0  0  0  0
  182.1650  178.8100  138.7840 N   0  0  0  0  0  2  0  0  0  0  0  0
  182.2050  181.1260  138.3940 O   0  0  0  0  0  0  0  0  0  0  0  0
  180.6470  179.9120  137.1860 N   0  0  0  0  0  1  0  0  0  0  0  0
  190.8670  178.0720  144.9900 C   0  0  0  0  0  2  0  0  0  0  0  0
  191.8770  175.9890  145.9730 C   0  0  0  0  0  0  0  0  0  0  0  0
  191.4260  175.8100  143.7780 C   0  0  0  0  0  0  0  0  0  0  0  0
  191.9660  174.6420  144.0880 C   0  0  0  0  0  3  0  0  0  0  0  0
  192.3150  174.6280  145.5450 C   0  0  0  0  0  2  0  0  0  0  0  0
  190.9540  176.1720  142.4140 C   0  0  0  0  0  1  0  0  0  0  0  0
  191.3600  176.6570  144.9540 C   0  0  0  0  0  0  0  0  0  0  0  0
  192.0220  176.4980  147.3110 C   0  0  0  0  0  0  0  0  0  0  0  0
  192.1370  176.9080  148.3880 N   0  0  0  0  0  0  0  0  0  0  0  0
  1  7  1  0  0  0  0
  2 19  1  0  0  0  0
  2  9  1  0  0  0  0
  3  4  1  0  0  0  0
  5 18  1  0  0  0  0
  5 13  1  0  0  0  0
  6  9  2  0  0  0  0
  7 13  2  0  0  0  0
  8  3  2  0  0  0  0
  9 10  1  0  0  0  0
 10 17  2  0  0  0  0
 10  8  1  0  0  0  0
 11 24  1  0  0  0  0
 11 17  1  0  0  0  0
 12 15  1  0  0  0  0
 12 14  2  0  0  0  0
 13  6  1  0  0  0  0
 14  5  1  0  0  0  0
 15  1  2  0  0  0  0
 16  4  2  0  0  0  0
 17 16  1  0  0  0  0
 18  2  2  0  0  0  0
 19 11  2  0  0  0  0
 20 22  2  0  0  0  0
 20 21  1  0  0  0  0
 21 15  1  0  0  0  0
 23 20  1  0  0  0  0
 25 31  1  0  0  0  0
 26 27  2  0  0  0  0
 26 30  1  0  0  0  0
 27 28  1  0  0  0  0
 28 25  1  0  0  0  0
 29 26  1  0  0  0  0
 30 24  1  0  0  0  0
 30 25  2  0  0  0  0
 31 32  3  0  0  0  0
M  END
>  <MODEL>
7

>  <REMARK>
 VINA RESULT:      -8.6      3.165      8.791
  Name = 
  4 active torsions:
  status: ('A' for Active; 'I' for Inactive)
    1  A    between atoms: C_6  and  C_7
    2  A    between atoms: N_10  and  C_24
    3  A    between atoms: C_16  and  C_27
    4  A    between atoms: C_27  and  C_32
                            x       y       z     vdW  Elec       q    Type
                         _______ _______ _______ _____ _____    ______ ____

>  <TORSDO>
F 4

$$$$
=
 OpenBabel10262421313D

 32 36  0  0  1  0  0  0  0  0999 V2000
  182.8890  178.5320  141.2840 C   0  0  0  0  0  3  0  0  0  0  0  0
  187.7580  178.2940  143.2950 C   0  0  0  0  0  0  0  0  0  0  0  0
  186.8170  177.8100  148.0460 C   0  0  0  0  0  3  0  0  0  0  0  0
  188.1880  177.7770  148.3020 C   0  0  0  0  0  3  0  0  0  0  0  0
  186.0070  178.4790  141.6260 N   0  0  0  0  0  0  0  0  0  0  0  0
  185.4870  178.2270  144.0500 C   0  0  0  0  0  3  0  0  0  0  0  0
  183.6950  178.4000  142.4970 C   0  0  0  0  0  3  0  0  0  0  0  0
  186.3520  177.9450  146.7370 C   0  0  0  0  0  3  0  0  0  0  0  0
  186.8000  178.1900  144.3320 C   0  0  0  0  0  0  0  0  0  0  0  0
  187.2540  178.0490  145.6620 C   0  0  0  0  0  0  0  0  0  0  0  0
  189.5510  178.1150  144.8550 C   0  0  0  0  0  0  0  0  0  0  0  0
  184.6530  178.7040  139.5510 C   0  0  0  0  0  3  0  0  0  0  0  0
  185.0140  178.3750  142.6670 C   0  0  0  0  0  0  0  0  0  0  0  0
  185.8000  178.6280  140.2180 C   0  0  0  0  0  3  0  0  0  0  0  0
  183.2600  178.6630  140.0160 C   0  0  0  0  0  0  0  0  0  0  0  0
  189.0970  177.8800  147.2480 C   0  0  0  0  0  3  0  0  0  0  0  0
  188.6450  178.0130  145.9260 C   0  0  0  0  0  0  0  0  0  0  0  0
  187.3870  178.4300  142.0150 C   0  0  0  0  0  3  0  0  0  0  0  0
  189.0830  178.2530  143.5870 N   0  0  0  0  0  0  0  0  0  0  0  0
  181.6900  179.9620  138.4450 C   0  0  0  0  0  0  0  0  0  0  0  0
  182.1960  178.7690  139.0590 N   0  0  0  0  0  2  0  0  0  0  0  0
  182.1740  181.0930  138.7150 O   0  0  0  0  0  0  0  0  0  0  0  0
  180.6210  179.8660  137.5140 N   0  0  0  0  0  1  0  0  0  0  0  0
  191.0320  178.0630  145.0760 C   0  0  0  0  0  2  0  0  0  0  0  0
  191.5740  175.8660  143.9780 C   0  0  0  0  0  0  0  0  0  0  0  0
  191.9510  175.8720  146.1940 C   0  0  0  0  0  0  0  0  0  0  0  0
  192.2660  174.6410  145.8220 C   0  0  0  0  0  3  0  0  0  0  0  0
  192.0600  174.5030  144.3430 C   0  0  0  0  0  3  0  0  0  0  0  0
  192.0410  176.3640  147.5950 C   0  0  0  0  0  1  0  0  0  0  0  0
  191.5230  176.6480  145.0450 C   0  0  2  0  0  3  0  0  0  0  0  0
  191.1980  176.2570  142.6450 C   0  0  0  0  0  0  0  0  0  0  0  0
  190.8960  176.5690  141.5720 N   0  0  0  0  0  0  0  0  0  0  0  0
  1  7  1  0  0  0  0
  2 19  1  0  0  0  0
  2  9  1  0  0  0  0
  3  4  1  0  0  0  0
  5 18  1  0  0  0  0
  5 13  1  0  0  0  0
  6  9  2  0  0  0  0
  7 13  2  0  0  0  0
  8  3  2  0  0  0  0
  9 10  1  0  0  0  0
 10 17  2  0  0  0  0
 10  8  1  0  0  0  0
 11 24  1  0  0  0  0
 11 17  1  0  0  0  0
 12 15  1  0  0  0  0
 12 14  2  0  0  0  0
 13  6  1  0  0  0  0
 14  5  1  0  0  0  0
 15  1  2  0  0  0  0
 16  4  2  0  0  0  0
 17 16  1  0  0  0  0
 18  2  2  0  0  0  0
 19 11  2  0  0  0  0
 20 22  2  0  0  0  0
 20 21  1  0  0  0  0
 21 15  1  0  0  0  0
 23 20  1  0  0  0  0
 25 28  2  0  0  0  0
 25 30  1  0  0  0  0
 26 29  1  0  0  0  0
 27 26  2  0  0  0  0
 28 27  1  0  0  0  0
 30 24  1  1  0  0  0
 30 26  1  0  0  0  0
 31 25  1  0  0  0  0
 32 31  3  0  0  0  0
M  END
>  <MODEL>
8

>  <REMARK>
 VINA RESULT:      -8.6      3.337      8.599
  Name = 
  4 active torsions:
  status: ('A' for Active; 'I' for Inactive)
    1  A    between atoms: C_6  and  C_7
    2  A    between atoms: N_10  and  C_24
    3  A    between atoms: C_16  and  C_27
    4  A    between atoms: C_27  and  C_32
                            x       y       z     vdW  Elec       q    Type
                         _______ _______ _______ _____ _____    ______ ____

>  <TORSDO>
F 4

$$$$
=
 OpenBabel10262421313D

 32 36  0  0  1  0  0  0  0  0999 V2000
  187.0930  178.0720  146.8870 C   0  0  0  0  0  3  0  0  0  0  0  0
  184.4930  178.3210  142.3070 C   0  0  0  0  0  0  0  0  0  0  0  0
  179.9590  179.2430  143.8200 C   0  0  0  0  0  3  0  0  0  0  0  0
  179.5310  179.2510  142.4920 C   0  0  0  0  0  3  0  0  0  0  0  0
  186.3550  178.0510  143.8390 N   0  0  0  0  0  0  0  0  0  0  0  0
  184.0480  178.5270  144.6500 C   0  0  0  0  0  3  0  0  0  0  0  0
  185.8010  178.2810  146.2360 C   0  0  0  0  0  3  0  0  0  0  0  0
  181.3030  179.0110  144.1210 C   0  0  0  0  0  3  0  0  0  0  0  0
  183.6010  178.5450  143.3830 C   0  0  0  0  0  0  0  0  0  0  0  0
  182.2400  178.7850  143.0950 C   0  0  0  0  0  0  0  0  0  0  0  0
  182.7330  178.5740  140.7200 C   0  0  0  0  0  0  0  0  0  0  0  0
  188.5630  177.6930  144.9280 C   0  0  0  0  0  3  0  0  0  0  0  0
  185.4630  178.2770  144.9510 C   0  0  0  0  0  0  0  0  0  0  0  0
  187.7610  177.7890  143.8720 C   0  0  0  0  0  3  0  0  0  0  0  0
  188.2880  177.8200  146.3650 C   0  0  0  0  0  0  0  0  0  0  0  0
  180.4470  179.0290  141.4620 C   0  0  0  0  0  3  0  0  0  0  0  0
  181.8010  178.7970  141.7480 C   0  0  0  0  0  0  0  0  0  0  0  0
  185.7950  178.0870  142.5180 C   0  0  0  0  0  3  0  0  0  0  0  0
  184.0350  178.3430  141.0290 N   0  0  0  0  0  0  0  0  0  0  0  0
  190.6700  177.1350  147.0530 C   0  0  0  0  0  0  0  0  0  0  0  0
  189.3630  177.6680  147.3040 N   0  0  0  0  0  2  0  0  0  0  0  0
  191.0040  176.7300  145.9090 O   0  0  0  0  0  0  0  0  0  0  0  0
  191.6080  177.0630  148.1190 N   0  0  0  0  0  1  0  0  0  0  0  0
  182.3270  178.5950  139.2770 C   0  0  0  0  0  2  0  0  0  0  0  0
  181.8440  176.2020  138.6730 C   0  0  0  0  0  0  0  0  0  0  0  0
  183.8240  176.9340  137.9010 C   0  0  0  0  0  0  0  0  0  0  0  0
  183.7770  175.6710  137.5070 C   0  0  0  0  0  3  0  0  0  0  0  0
  182.4860  175.0580  137.9610 C   0  0  0  0  0  3  0  0  0  0  0  0
  184.9620  177.8500  137.6190 C   0  0  0  0  0  1  0  0  0  0  0  0
  182.6150  177.2770  138.6260 C   0  0  2  0  0  3  0  0  0  0  0  0
  180.5670  176.1250  139.3330 C   0  0  0  0  0  0  0  0  0  0  0  0
  179.5410  176.0660  139.8650 N   0  0  0  0  0  0  0  0  0  0  0  0
  2 18  2  0  0  0  0
  2  9  1  0  0  0  0
  3  8  1  0  0  0  0
  4  3  2  0  0  0  0
  5 14  1  0  0  0  0
  5 13  1  0  0  0  0
  6 13  1  0  0  0  0
  7  1  1  0  0  0  0
  9  6  2  0  0  0  0
 10  9  1  0  0  0  0
 10  8  2  0  0  0  0
 11 19  2  0  0  0  0
 11 17  1  0  0  0  0
 12 15  1  0  0  0  0
 13  7  2  0  0  0  0
 14 12  2  0  0  0  0
 15  1  2  0  0  0  0
 15 21  1  0  0  0  0
 16 17  2  0  0  0  0
 16  4  1  0  0  0  0
 17 10  1  0  0  0  0
 18  5  1  0  0  0  0
 19  2  1  0  0  0  0
 20 21  1  0  0  0  0
 20 23  1  0  0  0  0
 22 20  2  0  0  0  0
 24 11  1  0  0  0  0
 25 31  1  0  0  0  0
 26 30  1  0  0  0  0
 27 26  2  0  0  0  0
 27 28  1  0  0  0  0
 28 25  2  0  0  0  0
 29 26  1  0  0  0  0
 30 25  1  0  0  0  0
 30 24  1  1  0  0  0
 31 32  3  0  0  0  0
M  END
>  <MODEL>
9

>  <REMARK>
 VINA RESULT:      -8.5      1.707      2.702
  Name = 
  4 active torsions:
  status: ('A' for Active; 'I' for Inactive)
    1  A    between atoms: C_6  and  C_7
    2  A    between atoms: N_10  and  C_24
    3  A    between atoms: C_16  and  C_27
    4  A    between atoms: C_27  and  C_32
                            x       y       z     vdW  Elec       q    Type
                         _______ _______ _______ _____ _____    ______ ____

>  <TORSDO>
F 4

$$$$
