=
 OpenBabel10262419253D

 31 35  0  0  1  0  0  0  0  0999 V2000
  185.4460  178.3450  145.6180 C   0  0  0  0  0  0  0  0  0  0  0  0
  188.8590  177.6440  144.0660 C   0  0  0  0  0  0  0  0  0  0  0  0
  189.7460  177.2970  145.1250 C   0  0  0  0  0  0  0  0  0  0  0  0
  190.2230  176.7450  147.4360 C   0  0  0  0  0  3  0  0  0  0  0  0
  187.3900  177.8810  144.2440 C   0  0  0  0  0  0  0  0  0  0  0  0
  184.6670  178.3940  144.5050 N   0  0  0  0  0  0  0  0  0  0  0  0
  189.3120  177.0830  146.4390 C   0  0  0  0  0  3  0  0  0  0  0  0
  188.5090  178.1060  141.6640 N   0  0  0  0  0  0  0  0  0  0  0  0
  184.8390  178.5600  146.9570 C   0  0  0  0  0  1  0  0  0  0  0  0
  191.6250  177.3130  143.5790 C   0  0  0  0  0  3  0  0  0  0  0  0
  192.4100  176.3160  147.9840 O   0  0  0  0  0  0  0  0  0  0  0  0
  187.1010  177.7290  141.7360 C   0  0  0  0  0  2  0  0  0  0  0  0
  189.3890  177.7930  142.7610 C   0  0  0  0  0  0  0  0  0  0  0  0
  186.8130  178.0920  145.5040 C   0  0  0  0  0  3  0  0  0  0  0  0
  191.5690  176.6190  147.0990 C   0  0  0  0  0  0  0  0  0  0  0  0
  186.5570  177.9640  143.1090 C   0  0  0  0  0  0  0  0  0  0  0  0
  185.1900  178.2080  143.2650 C   0  0  0  0  0  3  0  0  0  0  0  0
  190.7620  177.6340  142.5350 C   0  0  0  0  0  3  0  0  0  0  0  0
  191.1290  177.1380  144.8670 C   0  0  0  0  0  0  0  0  0  0  0  0
  191.9700  176.8150  145.8460 O   0  0  0  0  0  0  0  0  0  0  0  0
  189.0190  178.5690  140.3770 C   0  0  0  0  0  2  0  0  0  0  0  0
  189.7980  176.7490  139.0100 O   0  0  0  0  0  1  0  0  0  0  0  0
  188.7020  177.5800  139.2570 C   0  0  2  0  0  3  0  0  0  0  0  0
  188.2920  178.3130  137.9850 C   0  0  0  0  0  2  0  0  0  0  0  0
  184.5360  177.8450  137.8700 C   0  0  0  0  0  0  0  0  0  0  0  0
  185.5060  176.7920  135.9160 C   0  0  0  0  0  3  0  0  0  0  0  0
  183.4480  178.1690  138.6090 F   0  0  0  0  0  0  0  0  0  0  0  0
  185.8110  178.2280  138.2970 C   0  0  0  0  0  3  0  0  0  0  0  0
  186.7810  177.1750  136.3440 C   0  0  0  0  0  3  0  0  0  0  0  0
  186.9360  177.8910  137.5360 C   0  0  0  0  0  0  0  0  0  0  0  0
  184.3830  177.1270  136.6800 C   0  0  0  0  0  3  0  0  0  0  0  0
  1  9  1  0  0  0  0
  2  5  1  0  0  0  0
  2  3  1  0  0  0  0
  3  7  1  0  0  0  0
  5 14  2  0  0  0  0
  6  1  2  0  0  0  0
  7  4  2  0  0  0  0
  8 12  1  0  0  0  0
  8 13  1  0  0  0  0
 10 19  1  0  0  0  0
 12 16  1  0  0  0  0
 13  2  2  0  0  0  0
 14  1  1  0  0  0  0
 15  4  1  0  0  0  0
 15 11  2  0  0  0  0
 16 17  2  0  0  0  0
 16  5  1  0  0  0  0
 17  6  1  0  0  0  0
 18 13  1  0  0  0  0
 18 10  2  0  0  0  0
 19  3  2  0  0  0  0
 19 20  1  0  0  0  0
 20 15  1  0  0  0  0
 21  8  1  0  0  0  0
 23 22  1  6  0  0  0
 23 21  1  0  0  0  0
 24 23  1  0  0  0  0
 25 28  1  0  0  0  0
 25 27  1  0  0  0  0
 26 29  2  0  0  0  0
 26 31  1  0  0  0  0
 29 30  1  0  0  0  0
 30 24  1  0  0  0  0
 30 28  2  0  0  0  0
 31 25  2  0  0  0  0
M  END
>  <MODEL>
1

>  <REMARK>
 VINA RESULT:      -9.9      0.000      0.000
  Name = 
  4 active torsions:
  status: ('A' for Active; 'I' for Inactive)
    1  A    between atoms: C_3  and  C_9
    2  A    between atoms: C_3  and  C_22
    3  A    between atoms: C_9  and  C_23
    4  A    between atoms: N_15  and  C_23
                            x       y       z     vdW  Elec       q    Type
                         _______ _______ _______ _____ _____    ______ ____

>  <TORSDO>
F 4

$$$$
=
 OpenBabel10262419253D

 31 35  0  0  1  0  0  0  0  0999 V2000
  190.0870  177.3260  140.3980 C   0  0  0  0  0  0  0  0  0  0  0  0
  188.4050  177.6420  143.8070 C   0  0  0  0  0  0  0  0  0  0  0  0
  189.3880  177.3520  144.7960 C   0  0  0  0  0  0  0  0  0  0  0  0
  191.6640  176.9040  145.4990 C   0  0  0  0  0  3  0  0  0  0  0  0
  188.6930  177.7380  142.3390 C   0  0  0  0  0  0  0  0  0  0  0  0
  189.1380  177.8760  139.5950 N   0  0  0  0  0  0  0  0  0  0  0  0
  190.7450  177.1860  144.4920 C   0  0  0  0  0  3  0  0  0  0  0  0
  186.0580  178.1710  143.2470 N   0  0  0  0  0  0  0  0  0  0  0  0
  191.3490  176.8100  139.8070 C   0  0  0  0  0  1  0  0  0  0  0  0
  187.6830  177.4100  146.5310 C   0  0  0  0  0  3  0  0  0  0  0  0
  192.0200  176.5390  147.7370 O   0  0  0  0  0  0  0  0  0  0  0  0
  186.4420  178.8420  142.0100 C   0  0  0  0  0  2  0  0  0  0  0  0
  187.0650  177.8380  144.2220 C   0  0  0  0  0  0  0  0  0  0  0  0
  189.8790  177.2460  141.7740 C   0  0  0  0  0  3  0  0  0  0  0  0
  191.2070  176.7960  146.8110 C   0  0  0  0  0  0  0  0  0  0  0  0
  187.7200  178.2800  141.4740 C   0  0  0  0  0  0  0  0  0  0  0  0
  187.9710  178.3520  140.1020 C   0  0  0  0  0  3  0  0  0  0  0  0
  186.7200  177.7130  145.5740 C   0  0  0  0  0  3  0  0  0  0  0  0
  189.0110  177.2350  146.1560 C   0  0  0  0  0  0  0  0  0  0  0  0
  189.9180  176.9630  147.0900 O   0  0  0  0  0  0  0  0  0  0  0  0
  184.6330  178.0830  143.5540 C   0  0  0  0  0  2  0  0  0  0  0  0
  183.3700  180.1130  143.8190 O   0  0  0  0  0  1  0  0  0  0  0  0
  183.8410  179.1980  142.8740 C   0  0  2  0  0  3  0  0  0  0  0  0
  182.6840  178.6250  142.0640 C   0  0  0  0  0  2  0  0  0  0  0  0
  183.2170  176.6530  138.8750 C   0  0  0  0  0  0  0  0  0  0  0  0
  184.2190  178.8420  138.6070 C   0  0  0  0  0  3  0  0  0  0  0  0
  182.9240  175.4280  138.3770 F   0  0  0  0  0  0  0  0  0  0  0  0
  182.8180  176.9940  140.1710 C   0  0  0  0  0  3  0  0  0  0  0  0
  183.8200  179.1820  139.9030 C   0  0  0  0  0  3  0  0  0  0  0  0
  183.1220  178.2580  140.6880 C   0  0  0  0  0  0  0  0  0  0  0  0
  183.9170  177.5760  138.0930 C   0  0  0  0  0  3  0  0  0  0  0  0
  1 14  1  0  0  0  0
  2 13  2  0  0  0  0
  2  3  1  0  0  0  0
  3 19  2  0  0  0  0
  4 15  1  0  0  0  0
  5  2  1  0  0  0  0
  6 17  1  0  0  0  0
  6  1  2  0  0  0  0
  7  3  1  0  0  0  0
  7  4  2  0  0  0  0
  8 21  1  0  0  0  0
  8 13  1  0  0  0  0
  9  1  1  0  0  0  0
 12  8  1  0  0  0  0
 13 18  1  0  0  0  0
 14  5  2  0  0  0  0
 15 20  1  0  0  0  0
 15 11  2  0  0  0  0
 16 12  1  0  0  0  0
 16  5  1  0  0  0  0
 17 16  2  0  0  0  0
 18 10  2  0  0  0  0
 19 10  1  0  0  0  0
 19 20  1  0  0  0  0
 23 21  1  0  0  0  0
 23 22  1  1  0  0  0
 24 23  1  0  0  0  0
 25 28  1  0  0  0  0
 26 29  2  0  0  0  0
 27 25  1  0  0  0  0
 28 30  2  0  0  0  0
 29 30  1  0  0  0  0
 30 24  1  0  0  0  0
 31 26  1  0  0  0  0
 31 25  2  0  0  0  0
M  END
>  <MODEL>
2

>  <REMARK>
 VINA RESULT:      -9.9      2.286      4.468
  Name = 
  4 active torsions:
  status: ('A' for Active; 'I' for Inactive)
    1  A    between atoms: C_3  and  C_9
    2  A    between atoms: C_3  and  C_22
    3  A    between atoms: C_9  and  C_23
    4  A    between atoms: N_15  and  C_23
                            x       y       z     vdW  Elec       q    Type
                         _______ _______ _______ _____ _____    ______ ____

>  <TORSDO>
F 4

$$$$
=
 OpenBabel10262419253D

 31 35  0  0  1  0  0  0  0  0999 V2000
  190.3820  177.4150  140.2850 C   0  0  0  0  0  0  0  0  0  0  0  0
  188.4960  177.6170  143.5950 C   0  0  0  0  0  0  0  0  0  0  0  0
  189.4350  177.3740  144.6360 C   0  0  0  0  0  0  0  0  0  0  0  0
  191.6890  177.0450  145.4660 C   0  0  0  0  0  3  0  0  0  0  0  0
  188.8600  177.7390  142.1460 C   0  0  0  0  0  0  0  0  0  0  0  0
  189.4510  177.9180  139.4320 N   0  0  0  0  0  0  0  0  0  0  0  0
  190.8150  177.2830  144.4100 C   0  0  0  0  0  3  0  0  0  0  0  0
  186.1580  178.0230  142.9050 N   0  0  0  0  0  0  0  0  0  0  0  0
  191.7010  176.9720  139.7650 C   0  0  0  0  0  1  0  0  0  0  0  0
  187.6340  177.3290  146.2720 C   0  0  0  0  0  3  0  0  0  0  0  0
  191.9370  176.6840  147.7190 O   0  0  0  0  0  0  0  0  0  0  0  0
  186.5740  178.7220  141.6940 C   0  0  0  0  0  2  0  0  0  0  0  0
  187.1260  177.7380  143.9340 C   0  0  0  0  0  0  0  0  0  0  0  0
  190.1010  177.3150  141.6480 C   0  0  0  0  0  3  0  0  0  0  0  0
  191.1660  176.9030  146.7500 C   0  0  0  0  0  0  0  0  0  0  0  0
  187.9090  178.2330  141.2290 C   0  0  0  0  0  0  0  0  0  0  0  0
  188.2330  178.3270  139.8740 C   0  0  0  0  0  3  0  0  0  0  0  0
  186.7120  177.5850  145.2630 C   0  0  0  0  0  3  0  0  0  0  0  0
  188.9900  177.2280  145.9730 C   0  0  0  0  0  0  0  0  0  0  0  0
  189.8560  176.9990  146.9560 O   0  0  0  0  0  0  0  0  0  0  0  0
  184.7250  177.8570  143.1300 C   0  0  0  0  0  2  0  0  0  0  0  0
  184.9020  180.1270  143.9030 O   0  0  0  0  0  1  0  0  0  0  0  0
  184.0270  179.2000  143.3300 C   0  0  2  0  0  3  0  0  0  0  0  0
  182.7800  179.0410  144.1910 C   0  0  0  0  0  2  0  0  0  0  0  0
  180.5170  178.8540  141.1610 C   0  0  0  0  0  0  0  0  0  0  0  0
  179.1610  178.6150  143.1530 C   0  0  0  0  0  3  0  0  0  0  0  0
  180.6190  178.9100  139.8110 F   0  0  0  0  0  0  0  0  0  0  0  0
  181.6620  178.9780  141.9540 C   0  0  0  0  0  3  0  0  0  0  0  0
  180.3060  178.7390  143.9460 C   0  0  0  0  0  3  0  0  0  0  0  0
  181.5570  178.9240  143.3480 C   0  0  0  0  0  0  0  0  0  0  0  0
  179.2670  178.6730  141.7600 C   0  0  0  0  0  3  0  0  0  0  0  0
  1 14  1  0  0  0  0
  2 13  2  0  0  0  0
  2  3  1  0  0  0  0
  3 19  2  0  0  0  0
  4 15  1  0  0  0  0
  5  2  1  0  0  0  0
  6 17  1  0  0  0  0
  6  1  2  0  0  0  0
  7  3  1  0  0  0  0
  7  4  2  0  0  0  0
  8 21  1  0  0  0  0
  8 13  1  0  0  0  0
  9  1  1  0  0  0  0
 12  8  1  0  0  0  0
 13 18  1  0  0  0  0
 14  5  2  0  0  0  0
 15 20  1  0  0  0  0
 15 11  2  0  0  0  0
 16 12  1  0  0  0  0
 16  5  1  0  0  0  0
 17 16  2  0  0  0  0
 18 10  2  0  0  0  0
 19 10  1  0  0  0  0
 19 20  1  0  0  0  0
 21 23  1  0  0  0  0
 23 22  1  1  0  0  0
 23 24  1  0  0  0  0
 25 31  2  0  0  0  0
 25 28  1  0  0  0  0
 26 29  2  0  0  0  0
 27 25  1  0  0  0  0
 28 30  2  0  0  0  0
 30 29  1  0  0  0  0
 30 24  1  0  0  0  0
 31 26  1  0  0  0  0
M  END
>  <MODEL>
3

>  <REMARK>
 VINA RESULT:      -9.8      2.965      5.484
  Name = 
  4 active torsions:
  status: ('A' for Active; 'I' for Inactive)
    1  A    between atoms: C_3  and  C_9
    2  A    between atoms: C_3  and  C_22
    3  A    between atoms: C_9  and  C_23
    4  A    between atoms: N_15  and  C_23
                            x       y       z     vdW  Elec       q    Type
                         _______ _______ _______ _____ _____    ______ ____

>  <TORSDO>
F 4

$$$$
=
 OpenBabel10262419253D

 31 35  0  0  1  0  0  0  0  0999 V2000
  189.1950  177.2800  141.3420 C   0  0  0  0  0  0  0  0  0  0  0  0
  186.3240  178.2190  143.6720 C   0  0  0  0  0  0  0  0  0  0  0  0
  186.8050  178.1070  145.0070 C   0  0  0  0  0  0  0  0  0  0  0  0
  188.5680  177.7790  146.6370 C   0  0  0  0  0  3  0  0  0  0  0  0
  187.1800  178.0460  142.4530 C   0  0  0  0  0  0  0  0  0  0  0  0
  188.6920  177.6810  140.1450 N   0  0  0  0  0  0  0  0  0  0  0  0
  188.1530  177.8800  145.3130 C   0  0  0  0  0  3  0  0  0  0  0  0
  184.4450  178.6540  142.1280 N   0  0  0  0  0  0  0  0  0  0  0  0
  190.5430  176.6570  141.4080 C   0  0  0  0  0  1  0  0  0  0  0  0
  184.5600  178.4900  145.8640 C   0  0  0  0  0  3  0  0  0  0  0  0
  187.9710  177.8230  148.8530 O   0  0  0  0  0  0  0  0  0  0  0  0
  185.3420  179.0870  141.0620 C   0  0  0  0  0  2  0  0  0  0  0  0
  184.9500  178.4960  143.4680 C   0  0  0  0  0  0  0  0  0  0  0  0
  188.4490  177.4520  142.5080 C   0  0  0  0  0  3  0  0  0  0  0  0
  187.6190  177.9130  147.6490 C   0  0  0  0  0  0  0  0  0  0  0  0
  186.6790  178.4290  141.1920 C   0  0  0  0  0  0  0  0  0  0  0  0
  187.4610  178.2490  140.0490 C   0  0  0  0  0  3  0  0  0  0  0  0
  184.0860  178.6200  144.5630 C   0  0  0  0  0  3  0  0  0  0  0  0
  185.9090  178.2410  146.0960 C   0  0  0  0  0  0  0  0  0  0  0  0
  186.3430  178.1370  147.3490 O   0  0  0  0  0  0  0  0  0  0  0  0
  183.0140  178.6330  141.8380 C   0  0  0  0  0  2  0  0  0  0  0  0
  181.7610  179.4890  139.9720 O   0  0  0  0  0  1  0  0  0  0  0  0
  182.7440  178.5650  140.3370 C   0  0  2  0  0  3  0  0  0  0  0  0
  182.3320  177.1570  139.9230 C   0  0  0  0  0  2  0  0  0  0  0  0
  184.9520  177.0180  137.1920 C   0  0  0  0  0  0  0  0  0  0  0  0
  183.8800  174.8510  137.3450 C   0  0  0  0  0  3  0  0  0  0  0  0
  185.8670  177.8360  136.6190 F   0  0  0  0  0  0  0  0  0  0  0  0
  184.1370  177.4950  138.2230 C   0  0  0  0  0  3  0  0  0  0  0  0
  183.0640  175.3290  138.3760 C   0  0  0  0  0  3  0  0  0  0  0  0
  183.1890  176.6520  138.8140 C   0  0  0  0  0  0  0  0  0  0  0  0
  184.8240  175.6970  136.7530 C   0  0  0  0  0  3  0  0  0  0  0  0
  1  9  1  0  0  0  0
  1 14  1  0  0  0  0
  2  3  1  0  0  0  0
  3  7  1  0  0  0  0
  3 19  2  0  0  0  0
  4 15  1  0  0  0  0
  5 14  2  0  0  0  0
  5  2  1  0  0  0  0
  6  1  2  0  0  0  0
  7  4  2  0  0  0  0
  8 13  1  0  0  0  0
 10 19  1  0  0  0  0
 12 16  1  0  0  0  0
 12  8  1  0  0  0  0
 13  2  2  0  0  0  0
 13 18  1  0  0  0  0
 15 11  2  0  0  0  0
 16  5  1  0  0  0  0
 17  6  1  0  0  0  0
 17 16  2  0  0  0  0
 18 10  2  0  0  0  0
 19 20  1  0  0  0  0
 20 15  1  0  0  0  0
 21  8  1  0  0  0  0
 23 22  1  1  0  0  0
 23 21  1  0  0  0  0
 24 23  1  0  0  0  0
 25 28  1  0  0  0  0
 26 29  2  0  0  0  0
 27 25  1  0  0  0  0
 28 30  2  0  0  0  0
 29 30  1  0  0  0  0
 30 24  1  0  0  0  0
 31 25  2  0  0  0  0
 31 26  1  0  0  0  0
M  END
>  <MODEL>
4

>  <REMARK>
 VINA RESULT:      -9.6      2.696      4.763
  Name = 
  4 active torsions:
  status: ('A' for Active; 'I' for Inactive)
    1  A    between atoms: C_3  and  C_9
    2  A    between atoms: C_3  and  C_22
    3  A    between atoms: C_9  and  C_23
    4  A    between atoms: N_15  and  C_23
                            x       y       z     vdW  Elec       q    Type
                         _______ _______ _______ _____ _____    ______ ____

>  <TORSDO>
F 4

$$$$
=
 OpenBabel10262419253D

 31 35  0  0  1  0  0  0  0  0999 V2000
  191.0510  176.5150  143.8240 C   0  0  0  0  0  0  0  0  0  0  0  0
  187.6520  177.9730  142.8900 C   0  0  0  0  0  0  0  0  0  0  0  0
  186.8810  178.0560  144.0840 C   0  0  0  0  0  0  0  0  0  0  0  0
  186.6190  177.9080  146.4890 C   0  0  0  0  0  3  0  0  0  0  0  0
  189.0920  177.5580  142.8460 C   0  0  0  0  0  0  0  0  0  0  0  0
  191.7470  176.7400  142.6790 N   0  0  0  0  0  0  0  0  0  0  0  0
  187.4180  177.8120  145.3540 C   0  0  0  0  0  3  0  0  0  0  0  0
  187.7940  178.2470  140.4390 N   0  0  0  0  0  0  0  0  0  0  0  0
  191.7110  175.8410  144.9730 C   0  0  0  0  0  1  0  0  0  0  0  0
  184.9190  178.6920  142.7920 C   0  0  0  0  0  3  0  0  0  0  0  0
  184.5350  178.3460  147.3480 O   0  0  0  0  0  0  0  0  0  0  0  0
  189.2380  178.4510  140.4860 C   0  0  0  0  0  2  0  0  0  0  0  0
  187.0270  178.2850  141.6580 C   0  0  0  0  0  0  0  0  0  0  0  0
  189.7180  176.9150  143.9240 C   0  0  0  0  0  3  0  0  0  0  0  0
  185.2770  178.2560  146.3360 C   0  0  0  0  0  0  0  0  0  0  0  0
  189.8360  177.7540  141.6650 C   0  0  0  0  0  0  0  0  0  0  0  0
  191.1710  177.3480  141.6090 C   0  0  0  0  0  3  0  0  0  0  0  0
  185.6700  178.6320  141.6240 C   0  0  0  0  0  3  0  0  0  0  0  0
  185.5120  178.4140  144.0200 C   0  0  0  0  0  0  0  0  0  0  0  0
  184.7790  178.4940  145.1270 O   0  0  0  0  0  0  0  0  0  0  0  0
  187.1530  178.2540  139.1270 C   0  0  0  0  0  2  0  0  0  0  0  0
  187.9440  179.0910  137.0150 O   0  0  0  0  0  1  0  0  0  0  0  0
  188.1750  178.1260  138.0000 C   0  0  2  0  0  3  0  0  0  0  0  0
  188.1440  176.7290  137.3940 C   0  0  0  0  0  2  0  0  0  0  0  0
  191.8610  176.2310  137.9250 C   0  0  0  0  0  0  0  0  0  0  0  0
  190.8970  174.1330  137.1930 C   0  0  0  0  0  3  0  0  0  0  0  0
  192.9370  176.9560  138.3130 F   0  0  0  0  0  0  0  0  0  0  0  0
  190.6010  176.8350  137.8560 C   0  0  0  0  0  3  0  0  0  0  0  0
  189.6380  174.7360  137.1240 C   0  0  0  0  0  3  0  0  0  0  0  0
  189.4880  176.0890  137.4520 C   0  0  0  0  0  0  0  0  0  0  0  0
  192.0090  174.8820  137.5930 C   0  0  0  0  0  3  0  0  0  0  0  0
  1 14  1  0  0  0  0
  1  9  1  0  0  0  0
  2  3  1  0  0  0  0
  3  7  1  0  0  0  0
  5  2  1  0  0  0  0
  5 14  2  0  0  0  0
  6  1  2  0  0  0  0
  7  4  2  0  0  0  0
  8 12  1  0  0  0  0
  8 13  1  0  0  0  0
 10 19  1  0  0  0  0
 12 16  1  0  0  0  0
 13  2  2  0  0  0  0
 15  4  1  0  0  0  0
 15 11  2  0  0  0  0
 16  5  1  0  0  0  0
 17 16  2  0  0  0  0
 17  6  1  0  0  0  0
 18 13  1  0  0  0  0
 18 10  2  0  0  0  0
 19  3  2  0  0  0  0
 19 20  1  0  0  0  0
 20 15  1  0  0  0  0
 21  8  1  0  0  0  0
 23 22  1  6  0  0  0
 23 21  1  0  0  0  0
 24 30  1  0  0  0  0
 24 23  1  0  0  0  0
 25 27  1  0  0  0  0
 26 31  1  0  0  0  0
 28 25  1  0  0  0  0
 29 26  2  0  0  0  0
 29 30  1  0  0  0  0
 30 28  2  0  0  0  0
 31 25  2  0  0  0  0
M  END
>  <MODEL>
5

>  <REMARK>
 VINA RESULT:      -9.3      3.295      5.289
  Name = 
  4 active torsions:
  status: ('A' for Active; 'I' for Inactive)
    1  A    between atoms: C_3  and  C_9
    2  A    between atoms: C_3  and  C_22
    3  A    between atoms: C_9  and  C_23
    4  A    between atoms: N_15  and  C_23
                            x       y       z     vdW  Elec       q    Type
                         _______ _______ _______ _____ _____    ______ ____

>  <TORSDO>
F 4

$$$$
=
 OpenBabel10262419253D

 31 35  0  0  1  0  0  0  0  0999 V2000
  185.5220  178.3950  145.5990 C   0  0  0  0  0  0  0  0  0  0  0  0
  188.8970  177.6080  144.0040 C   0  0  0  0  0  0  0  0  0  0  0  0
  189.7840  177.2250  145.0500 C   0  0  0  0  0  0  0  0  0  0  0  0
  190.2680  176.6360  147.3500 C   0  0  0  0  0  3  0  0  0  0  0  0
  187.4370  177.8880  144.2000 C   0  0  0  0  0  0  0  0  0  0  0  0
  184.7340  178.4790  144.4960 N   0  0  0  0  0  0  0  0  0  0  0  0
  189.3580  177.0110  146.3670 C   0  0  0  0  0  3  0  0  0  0  0  0
  188.5350  178.1040  141.6110 N   0  0  0  0  0  0  0  0  0  0  0  0
  184.9370  178.6150  146.9470 C   0  0  0  0  0  1  0  0  0  0  0  0
  191.6460  177.2010  143.4840 C   0  0  0  0  0  3  0  0  0  0  0  0
  192.4480  176.1370  147.8710 O   0  0  0  0  0  0  0  0  0  0  0  0
  187.1180  177.7680  141.6940 C   0  0  0  0  0  2  0  0  0  0  0  0
  189.4180  177.7550  142.6950 C   0  0  0  0  0  0  0  0  0  0  0  0
  186.8800  178.1030  145.4690 C   0  0  0  0  0  3  0  0  0  0  0  0
  191.6070  176.4740  146.9980 C   0  0  0  0  0  0  0  0  0  0  0  0
  186.5950  178.0060  143.0750 C   0  0  0  0  0  0  0  0  0  0  0  0
  185.2390  178.2890  143.2490 C   0  0  0  0  0  3  0  0  0  0  0  0
  190.7830  177.5570  142.4530 C   0  0  0  0  0  3  0  0  0  0  0  0
  191.1590  177.0280  144.7760 C   0  0  0  0  0  0  0  0  0  0  0  0
  192.0000  176.6700  145.7430 O   0  0  0  0  0  0  0  0  0  0  0  0
  189.0460  178.5640  140.3220 C   0  0  0  0  0  2  0  0  0  0  0  0
  189.8780  176.7450  138.9880 O   0  0  0  0  0  1  0  0  0  0  0  0
  188.7620  177.5560  139.2120 C   0  0  2  0  0  3  0  0  0  0  0  0
  188.3510  178.2640  137.9270 C   0  0  0  0  0  2  0  0  0  0  0  0
  187.2390  175.5620  135.5170 C   0  0  0  0  0  0  0  0  0  0  0  0
  189.3630  176.4460  134.7600 C   0  0  0  0  0  3  0  0  0  0  0  0
  186.1990  174.7100  135.3570 F   0  0  0  0  0  0  0  0  0  0  0  0
  187.2610  176.4400  136.6060 C   0  0  0  0  0  3  0  0  0  0  0  0
  189.3850  177.3240  135.8480 C   0  0  0  0  0  3  0  0  0  0  0  0
  188.3360  177.3200  136.7750 C   0  0  0  0  0  0  0  0  0  0  0  0
  188.2890  175.5650  134.5950 C   0  0  0  0  0  3  0  0  0  0  0  0
  1  9  1  0  0  0  0
  2  5  1  0  0  0  0
  2  3  1  0  0  0  0
  3  7  1  0  0  0  0
  5 14  2  0  0  0  0
  6  1  2  0  0  0  0
  7  4  2  0  0  0  0
  8 12  1  0  0  0  0
  8 13  1  0  0  0  0
 10 19  1  0  0  0  0
 12 16  1  0  0  0  0
 13  2  2  0  0  0  0
 14  1  1  0  0  0  0
 15  4  1  0  0  0  0
 15 11  2  0  0  0  0
 16 17  2  0  0  0  0
 16  5  1  0  0  0  0
 17  6  1  0  0  0  0
 18 13  1  0  0  0  0
 18 10  2  0  0  0  0
 19  3  2  0  0  0  0
 19 20  1  0  0  0  0
 20 15  1  0  0  0  0
 21  8  1  0  0  0  0
 23 22  1  6  0  0  0
 23 21  1  0  0  0  0
 24 23  1  0  0  0  0
 25 28  1  0  0  0  0
 26 29  2  0  0  0  0
 27 25  1  0  0  0  0
 28 30  2  0  0  0  0
 29 30  1  0  0  0  0
 30 24  1  0  0  0  0
 31 26  1  0  0  0  0
 31 25  2  0  0  0  0
M  END
>  <MODEL>
6

>  <REMARK>
 VINA RESULT:      -9.2      1.432      1.840
  Name = 
  4 active torsions:
  status: ('A' for Active; 'I' for Inactive)
    1  A    between atoms: C_3  and  C_9
    2  A    between atoms: C_3  and  C_22
    3  A    between atoms: C_9  and  C_23
    4  A    between atoms: N_15  and  C_23
                            x       y       z     vdW  Elec       q    Type
                         _______ _______ _______ _____ _____    ______ ____

>  <TORSDO>
F 4

$$$$
=
 OpenBabel10262419253D

 31 35  0  0  1  0  0  0  0  0999 V2000
  185.4260  178.3330  145.5060 C   0  0  0  0  0  0  0  0  0  0  0  0
  188.8750  177.6720  144.0150 C   0  0  0  0  0  0  0  0  0  0  0  0
  189.7420  177.3180  145.0870 C   0  0  0  0  0  0  0  0  0  0  0  0
  190.1760  176.7410  147.4010 C   0  0  0  0  0  3  0  0  0  0  0  0
  187.4010  177.8980  144.1660 C   0  0  0  0  0  0  0  0  0  0  0  0
  184.6700  178.3910  144.3790 N   0  0  0  0  0  0  0  0  0  0  0  0
  189.2840  177.0860  146.3910 C   0  0  0  0  0  3  0  0  0  0  0  0
  188.5700  178.1600  141.6130 N   0  0  0  0  0  0  0  0  0  0  0  0
  184.7920  178.5280  146.8350 C   0  0  0  0  0  1  0  0  0  0  0  0
  191.6510  177.3640  143.5800 C   0  0  0  0  0  3  0  0  0  0  0  0
  192.3540  176.3190  147.9880 O   0  0  0  0  0  0  0  0  0  0  0  0
  187.1630  177.7740  141.6520 C   0  0  0  0  0  2  0  0  0  0  0  0
  189.4300  177.8400  142.7230 C   0  0  0  0  0  0  0  0  0  0  0  0
  186.7970  178.0910  145.4170 C   0  0  0  0  0  3  0  0  0  0  0  0
  191.5300  176.6280  147.0900 C   0  0  0  0  0  0  0  0  0  0  0  0
  186.5900  177.9890  143.0160 C   0  0  0  0  0  0  0  0  0  0  0  0
  185.2190  178.2230  143.1470 C   0  0  0  0  0  3  0  0  0  0  0  0
  190.8080  177.6920  142.5230 C   0  0  0  0  0  3  0  0  0  0  0  0
  191.1310  177.1710  144.8560 C   0  0  0  0  0  0  0  0  0  0  0  0
  191.9540  176.8410  145.8480 O   0  0  0  0  0  0  0  0  0  0  0  0
  189.1030  178.6420  140.3410 C   0  0  0  0  0  2  0  0  0  0  0  0
  189.1390  176.3810  139.5220 O   0  0  0  0  0  1  0  0  0  0  0  0
  188.7710  177.6890  139.1950 C   0  0  2  0  0  3  0  0  0  0  0  0
  189.4580  178.1290  137.9070 C   0  0  0  0  0  2  0  0  0  0  0  0
  192.4910  175.8760  137.6590 C   0  0  0  0  0  0  0  0  0  0  0  0
  190.9750  175.3330  135.8490 C   0  0  0  0  0  3  0  0  0  0  0  0
  193.6530  175.6600  138.3200 F   0  0  0  0  0  0  0  0  0  0  0  0
  191.6060  176.8620  138.1050 C   0  0  0  0  0  3  0  0  0  0  0  0
  190.0910  176.3200  136.2950 C   0  0  0  0  0  3  0  0  0  0  0  0
  190.4060  177.0880  137.4220 C   0  0  0  0  0  0  0  0  0  0  0  0
  192.1760  175.1120  136.5310 C   0  0  0  0  0  3  0  0  0  0  0  0
  1  9  1  0  0  0  0
  2  5  1  0  0  0  0
  2  3  1  0  0  0  0
  3  7  1  0  0  0  0
  5 14  2  0  0  0  0
  6  1  2  0  0  0  0
  7  4  2  0  0  0  0
  8 12  1  0  0  0  0
  8 13  1  0  0  0  0
 10 19  1  0  0  0  0
 12 16  1  0  0  0  0
 13  2  2  0  0  0  0
 14  1  1  0  0  0  0
 15  4  1  0  0  0  0
 15 11  2  0  0  0  0
 16 17  2  0  0  0  0
 16  5  1  0  0  0  0
 17  6  1  0  0  0  0
 18 13  1  0  0  0  0
 18 10  2  0  0  0  0
 19  3  2  0  0  0  0
 19 20  1  0  0  0  0
 20 15  1  0  0  0  0
 21  8  1  0  0  0  0
 23 22  1  1  0  0  0
 23 21  1  0  0  0  0
 24 23  1  0  0  0  0
 25 28  1  0  0  0  0
 25 27  1  0  0  0  0
 26 29  2  0  0  0  0
 26 31  1  0  0  0  0
 29 30  1  0  0  0  0
 30 24  1  0  0  0  0
 30 28  2  0  0  0  0
 31 25  2  0  0  0  0
M  END
>  <MODEL>
7

>  <REMARK>
 VINA RESULT:      -9.1      2.581      3.297
  Name = 
  4 active torsions:
  status: ('A' for Active; 'I' for Inactive)
    1  A    between atoms: C_3  and  C_9
    2  A    between atoms: C_3  and  C_22
    3  A    between atoms: C_9  and  C_23
    4  A    between atoms: N_15  and  C_23
                            x       y       z     vdW  Elec       q    Type
                         _______ _______ _______ _____ _____    ______ ____

>  <TORSDO>
F 4

$$$$
=
 OpenBabel10262419253D

 31 35  0  0  1  0  0  0  0  0999 V2000
  184.7930  178.8960  140.6490 C   0  0  0  0  0  0  0  0  0  0  0  0
  188.3820  177.7940  139.9720 C   0  0  0  0  0  0  0  0  0  0  0  0
  188.5630  177.7760  138.5600 C   0  0  0  0  0  0  0  0  0  0  0  0
  187.8380  178.2370  136.2930 C   0  0  0  0  0  3  0  0  0  0  0  0
  187.1400  178.2830  140.6540 C   0  0  0  0  0  0  0  0  0  0  0  0
  184.8460  179.1200  141.9890 N   0  0  0  0  0  0  0  0  0  0  0  0
  187.6090  178.2780  137.6650 C   0  0  0  0  0  3  0  0  0  0  0  0
  189.2850  177.3470  142.2270 N   0  0  0  0  0  0  0  0  0  0  0  0
  183.5190  179.1020  139.9130 C   0  0  0  0  0  1  0  0  0  0  0  0
  190.7550  176.7570  138.8370 C   0  0  0  0  0  3  0  0  0  0  0  0
  189.2620  177.6440  134.5940 O   0  0  0  0  0  0  0  0  0  0  0  0
  188.4100  178.3400  142.8400 C   0  0  0  0  0  2  0  0  0  0  0  0
  189.4260  177.3050  140.7940 C   0  0  0  0  0  0  0  0  0  0  0  0
  185.9330  178.4730  139.9660 C   0  0  0  0  0  3  0  0  0  0  0  0
  189.0350  177.6930  135.8290 C   0  0  0  0  0  0  0  0  0  0  0  0
  187.1520  178.5020  142.0470 C   0  0  0  0  0  0  0  0  0  0  0  0
  185.9930  178.9360  142.6930 C   0  0  0  0  0  3  0  0  0  0  0  0
  190.5930  176.7880  140.2180 C   0  0  0  0  0  3  0  0  0  0  0  0
  189.7550  177.2510  138.0050 C   0  0  0  0  0  0  0  0  0  0  0  0
  189.9380  177.2280  136.6870 O   0  0  0  0  0  0  0  0  0  0  0  0
  190.1720  176.5920  143.1090 C   0  0  0  0  0  2  0  0  0  0  0  0
  192.0520  177.8370  143.9450 O   0  0  0  0  0  1  0  0  0  0  0  0
  190.7340  177.4690  144.2260 C   0  0  2  0  0  3  0  0  0  0  0  0
  190.6550  176.7530  145.5690 C   0  0  0  0  0  2  0  0  0  0  0  0
  187.2010  177.8960  146.6190 C   0  0  0  0  0  0  0  0  0  0  0  0
  188.6970  178.1220  148.5100 C   0  0  0  0  0  3  0  0  0  0  0  0
  185.9640  178.0200  146.0800 F   0  0  0  0  0  0  0  0  0  0  0  0
  188.2560  177.4110  145.8400 C   0  0  0  0  0  3  0  0  0  0  0  0
  189.7530  177.6370  147.7310 C   0  0  0  0  0  3  0  0  0  0  0  0
  189.5350  177.2840  146.3950 C   0  0  0  0  0  0  0  0  0  0  0  0
  187.4210  178.2510  147.9520 C   0  0  0  0  0  3  0  0  0  0  0  0
  1  6  1  0  0  0  0
  2  5  1  0  0  0  0
  2 13  1  0  0  0  0
  3  2  2  0  0  0  0
  4  7  2  0  0  0  0
  5 16  2  0  0  0  0
  6 17  2  0  0  0  0
  7  3  1  0  0  0  0
  8 12  1  0  0  0  0
  8 21  1  0  0  0  0
  9  1  1  0  0  0  0
 10 18  1  0  0  0  0
 11 15  2  0  0  0  0
 13  8  1  0  0  0  0
 14  1  2  0  0  0  0
 14  5  1  0  0  0  0
 15  4  1  0  0  0  0
 15 20  1  0  0  0  0
 16 17  1  0  0  0  0
 16 12  1  0  0  0  0
 18 13  2  0  0  0  0
 19  3  1  0  0  0  0
 19 10  2  0  0  0  0
 20 19  1  0  0  0  0
 21 23  1  0  0  0  0
 23 22  1  6  0  0  0
 23 24  1  0  0  0  0
 24 30  1  0  0  0  0
 25 31  1  0  0  0  0
 27 25  1  0  0  0  0
 28 30  1  0  0  0  0
 28 25  2  0  0  0  0
 29 26  1  0  0  0  0
 30 29  2  0  0  0  0
 31 26  2  0  0  0  0
M  END
>  <MODEL>
8

>  <REMARK>
 VINA RESULT:      -9.1      2.320      7.594
  Name = 
  4 active torsions:
  status: ('A' for Active; 'I' for Inactive)
    1  A    between atoms: C_3  and  C_9
    2  A    between atoms: C_3  and  C_22
    3  A    between atoms: C_9  and  C_23
    4  A    between atoms: N_15  and  C_23
                            x       y       z     vdW  Elec       q    Type
                         _______ _______ _______ _____ _____    ______ ____

>  <TORSDO>
F 4

$$$$
=
 OpenBabel10262419253D

 31 35  0  0  1  0  0  0  0  0999 V2000
  190.5130  176.3880  142.7840 C   0  0  0  0  0  0  0  0  0  0  0  0
  187.0880  178.0040  142.3190 C   0  0  0  0  0  0  0  0  0  0  0  0
  186.4890  178.1100  143.6050 C   0  0  0  0  0  0  0  0  0  0  0  0
  186.5450  177.9530  146.0230 C   0  0  0  0  0  3  0  0  0  0  0  0
  188.4890  177.5250  142.0810 C   0  0  0  0  0  0  0  0  0  0  0  0
  191.0580  176.5920  141.5560 N   0  0  0  0  0  0  0  0  0  0  0  0
  187.1800  177.8320  144.7920 C   0  0  0  0  0  3  0  0  0  0  0  0
  186.9130  178.2910  139.8710 N   0  0  0  0  0  0  0  0  0  0  0  0
  191.2900  175.6760  143.8320 C   0  0  0  0  0  1  0  0  0  0  0  0
  184.4020  178.8440  142.5900 C   0  0  0  0  0  3  0  0  0  0  0  0
  184.6180  178.4760  147.1550 O   0  0  0  0  0  0  0  0  0  0  0  0
  188.3570  178.4320  139.7240 C   0  0  0  0  0  2  0  0  0  0  0  0
  186.3180  178.3530  141.1820 C   0  0  0  0  0  0  0  0  0  0  0  0
  189.2250  176.8460  143.0630 C   0  0  0  0  0  3  0  0  0  0  0  0
  185.2120  178.3610  146.0530 C   0  0  0  0  0  0  0  0  0  0  0  0
  189.0760  177.6990  140.8110 C   0  0  0  0  0  0  0  0  0  0  0  0
  190.3730  177.2350  140.5750 C   0  0  0  0  0  3  0  0  0  0  0  0
  184.9860  178.7600  141.3310 C   0  0  0  0  0  3  0  0  0  0  0  0
  185.1410  178.5290  143.7270 C   0  0  0  0  0  0  0  0  0  0  0  0
  184.5670  178.6320  144.9230 O   0  0  0  0  0  0  0  0  0  0  0  0
  186.1020  178.3380  138.6570 C   0  0  0  0  0  2  0  0  0  0  0  0
  187.3350  179.2010  136.7810 O   0  0  0  0  0  1  0  0  0  0  0  0
  186.9310  178.0220  137.4140 C   0  0  2  0  0  3  0  0  0  0  0  0
  186.1490  177.1400  136.4490 C   0  0  0  0  0  2  0  0  0  0  0  0
  185.7380  173.5170  137.4710 C   0  0  0  0  0  0  0  0  0  0  0  0
  187.9450  173.8050  136.5150 C   0  0  0  0  0  3  0  0  0  0  0  0
  184.7990  172.7200  138.0340 F   0  0  0  0  0  0  0  0  0  0  0  0
  185.4700  174.8730  137.2630 C   0  0  0  0  0  3  0  0  0  0  0  0
  187.6770  175.1610  136.3070 C   0  0  0  0  0  3  0  0  0  0  0  0
  186.4410  175.6980  136.6830 C   0  0  0  0  0  0  0  0  0  0  0  0
  186.9750  172.9830  137.0970 C   0  0  0  0  0  3  0  0  0  0  0  0
  1 14  1  0  0  0  0
  1  9  1  0  0  0  0
  2  3  1  0  0  0  0
  3 19  2  0  0  0  0
  3  7  1  0  0  0  0
  4 15  1  0  0  0  0
  5  2  1  0  0  0  0
  5 14  2  0  0  0  0
  6  1  2  0  0  0  0
  7  4  2  0  0  0  0
  8 13  1  0  0  0  0
 10 19  1  0  0  0  0
 12  8  1  0  0  0  0
 12 16  1  0  0  0  0
 13 18  1  0  0  0  0
 13  2  2  0  0  0  0
 15 11  2  0  0  0  0
 16  5  1  0  0  0  0
 17 16  2  0  0  0  0
 17  6  1  0  0  0  0
 18 10  2  0  0  0  0
 19 20  1  0  0  0  0
 20 15  1  0  0  0  0
 21  8  1  0  0  0  0
 23 22  1  6  0  0  0
 23 21  1  0  0  0  0
 24 30  1  0  0  0  0
 24 23  1  0  0  0  0
 25 27  1  0  0  0  0
 26 31  1  0  0  0  0
 28 25  1  0  0  0  0
 29 26  2  0  0  0  0
 29 30  1  0  0  0  0
 30 28  2  0  0  0  0
 31 25  2  0  0  0  0
M  END
>  <MODEL>
9

>  <REMARK>
 VINA RESULT:      -9.0      2.956      4.897
  Name = 
  4 active torsions:
  status: ('A' for Active; 'I' for Inactive)
    1  A    between atoms: C_3  and  C_9
    2  A    between atoms: C_3  and  C_22
    3  A    between atoms: C_9  and  C_23
    4  A    between atoms: N_15  and  C_23
                            x       y       z     vdW  Elec       q    Type
                         _______ _______ _______ _____ _____    ______ ____

>  <TORSDO>
F 4

$$$$
