=
 OpenBabel10262421243D

 32 37  0  0  1  0  0  0  0  0999 V2000
  180.8240  178.4320  142.7940 C   0  0  0  0  0  2  0  0  0  0  0  0
  185.9300  178.2390  142.8100 C   0  0  0  0  0  0  0  0  0  0  0  0
  187.0010  178.0220  147.6290 C   0  0  0  0  0  3  0  0  0  0  0  0
  188.2920  177.8010  147.3900 C   0  0  0  0  0  3  0  0  0  0  0  0
  187.7640  177.9350  141.1730 C   0  0  0  0  0  0  0  0  0  0  0  0
  189.1240  177.7020  140.9980 C   0  0  0  0  0  0  0  0  0  0  0  0
  183.6180  178.6330  142.0860 C   0  0  0  0  0  0  0  0  0  0  0  0
  184.0890  178.5610  144.4760 C   0  0  0  0  0  3  0  0  0  0  0  0
  191.2810  177.3260  141.5460 C   0  0  0  0  0  0  0  0  0  0  0  0
  181.7720  179.0340  143.8330 C   0  0  0  0  0  2  0  0  0  0  0  0
  186.0410  178.1950  146.5300 C   0  0  0  0  0  3  0  0  0  0  0  0
  185.4770  178.3080  144.1840 N   0  0  0  0  0  0  0  0  0  0  0  0
  186.4210  178.1390  145.2470 C   0  0  2  0  0  3  0  0  0  0  0  0
  188.2000  177.8430  143.6040 C   0  0  0  0  0  0  0  0  0  0  0  0
  191.2150  177.3480  140.0500 C   0  0  0  0  0  2  0  0  0  0  0  0
  182.5880  178.8010  141.0470 C   0  0  0  0  0  0  0  0  0  0  0  0
  183.1940  178.7010  143.4990 C   0  0  0  0  0  0  0  0  0  0  0  0
  189.8230  177.5910  139.7990 O   0  0  0  0  0  0  0  0  0  0  0  0
  182.9140  178.9400  139.8350 O   0  0  0  0  0  0  0  0  0  0  0  0
  181.2050  178.8400  141.4400 N   0  0  0  0  0  0  0  0  0  0  0  0
  188.8590  177.7130  145.9990 C   0  0  0  0  0  3  0  0  0  0  0  0
  187.8310  177.8980  144.9000 C   0  0  0  0  0  0  0  0  0  0  0  0
  189.5220  177.6180  143.3280 N   0  0  0  0  0  0  0  0  0  0  0  0
  184.8970  178.4200  141.7690 C   0  0  0  0  0  3  0  0  0  0  0  0
  186.8340  178.1090  139.6800 Cl  0  0  0  0  0  0  0  0  0  0  0  0
  192.3160  177.1430  142.2380 O   0  0  0  0  0  0  0  0  0  0  0  0
  187.2520  178.0140  142.5200 C   0  0  0  0  0  0  0  0  0  0  0  0
  189.9530  177.5520  142.0530 C   0  0  0  0  0  0  0  0  0  0  0  0
  180.1800  179.3420  140.5280 C   0  0  0  0  0  2  0  0  0  0  0  0
  180.0260  180.8630  140.6000 C   0  0  0  0  0  3  0  0  0  0  0  0
  179.7680  181.4780  139.2370 C   0  0  0  0  0  1  0  0  0  0  0  0
  178.9430  181.2750  141.5790 C   0  0  0  0  0  1  0  0  0  0  0  0
  1 10  1  0  0  0  0
  2 12  1  0  0  0  0
  4  3  1  0  0  0  0
  5 27  1  0  0  0  0
  6  5  2  0  0  0  0
  6 28  1  0  0  0  0
  7 17  1  0  0  0  0
  9 28  1  0  0  0  0
  9 26  2  0  0  0  0
 11  3  2  0  0  0  0
 12  8  1  0  0  0  0
 12 13  1  0  0  0  0
 13 11  1  6  0  0  0
 14 22  2  0  0  0  0
 15  9  1  0  0  0  0
 16 20  1  0  0  0  0
 16  7  1  0  0  0  0
 17 10  1  0  0  0  0
 17  8  2  0  0  0  0
 18 15  1  0  0  0  0
 18  6  1  0  0  0  0
 19 16  2  0  0  0  0
 20  1  1  0  0  0  0
 21  4  2  0  0  0  0
 22 13  1  0  0  0  0
 22 21  1  0  0  0  0
 23 14  1  0  0  0  0
 24  7  2  0  0  0  0
 24  2  1  0  0  0  0
 25  5  1  0  0  0  0
 27  2  2  0  0  0  0
 27 14  1  0  0  0  0
 28 23  2  0  0  0  0
 29 30  1  0  0  0  0
 29 20  1  0  0  0  0
 30 32  1  0  0  0  0
 31 30  1  0  0  0  0
M  END
>  <MODEL>
1

>  <REMARK>
 VINA RESULT:     -10.4      0.000      0.000
  Name = 
  2 active torsions:
  status: ('A' for Active; 'I' for Inactive)
    1  A    between atoms: C_1  and  C_10
    2  A    between atoms: C_10  and  N_24
                            x       y       z     vdW  Elec       q    Type
                         _______ _______ _______ _____ _____    ______ ____

>  <TORSDO>
F 2

$$$$
=
 OpenBabel10262421243D

 32 37  0  0  0  0  0  0  0  0999 V2000
  182.9930  178.2580  144.8950 C   0  0  0  0  0  2  0  0  0  0  0  0
  187.5880  177.8790  142.6920 C   0  0  0  0  0  0  0  0  0  0  0  0
  190.5790  177.0570  146.5380 C   0  0  0  0  0  3  0  0  0  0  0  0
  191.6250  176.8190  145.7470 C   0  0  0  0  0  3  0  0  0  0  0  0
  188.5220  177.7030  140.4040 C   0  0  0  0  0  0  0  0  0  0  0  0
  189.6540  177.4430  139.6400 C   0  0  0  0  0  0  0  0  0  0  0  0
  185.2290  178.4390  143.0730 C   0  0  0  0  0  0  0  0  0  0  0  0
  186.6620  178.0690  145.0110 C   0  0  0  0  0  3  0  0  0  0  0  0
  191.8010  176.9270  139.1690 C   0  0  0  0  0  0  0  0  0  0  0  0
  184.3380  178.6980  145.4740 C   0  0  0  0  0  2  0  0  0  0  0  0
  189.2620  177.3940  145.9800 C   0  0  0  0  0  3  0  0  0  0  0  0
  187.7680  177.8020  144.1270 N   0  0  0  0  0  0  0  0  0  0  0  0
  189.0560  177.4750  144.6600 C   0  0  0  0  0  0  0  0  0  0  0  0
  189.9390  177.3100  142.3910 C   0  0  0  0  0  0  0  0  0  0  0  0
  191.1080  177.1280  137.8570 C   0  0  0  0  0  2  0  0  0  0  0  0
  183.8730  178.7660  142.6000 C   0  0  0  0  0  0  0  0  0  0  0  0
  185.4520  178.3550  144.5310 C   0  0  0  0  0  0  0  0  0  0  0  0
  189.7670  177.4480  138.2530 O   0  0  0  0  0  0  0  0  0  0  0  0
  183.6640  179.0340  141.3840 O   0  0  0  0  0  0  0  0  0  0  0  0
  182.7960  178.8080  143.5520 N   0  0  0  0  0  0  0  0  0  0  0  0
  191.5370  176.8750  144.2460 C   0  0  0  0  0  2  0  0  0  0  0  0
  190.1600  177.2250  143.7190 C   0  0  0  0  0  0  0  0  0  0  0  0
  190.9950  177.0710  141.5540 N   0  0  0  0  0  0  0  0  0  0  0  0
  186.2300  178.2190  142.2180 C   0  0  0  0  0  3  0  0  0  0  0  0
  187.0650  178.0850  139.4810 Cl  0  0  0  0  0  0  0  0  0  0  0  0
  193.0120  176.6260  139.3280 O   0  0  0  0  0  0  0  0  0  0  0  0
  188.6380  177.6420  141.8420 C   0  0  0  0  0  0  0  0  0  0  0  0
  190.8370  177.1400  140.2180 C   0  0  0  0  0  0  0  0  0  0  0  0
  181.5270  179.4510  143.2200 C   0  0  0  0  0  2  0  0  0  0  0  0
  180.3360  178.4980  143.3510 C   0  0  0  0  0  3  0  0  0  0  0  0
  179.3050  179.0030  144.3430 C   0  0  0  0  0  1  0  0  0  0  0  0
  179.6860  178.2200  142.0090 C   0  0  0  0  0  1  0  0  0  0  0  0
  1 10  1  0  0  0  0
  2 12  1  0  0  0  0
  4  3  2  0  0  0  0
  5 27  1  0  0  0  0
  6 28  1  0  0  0  0
  6  5  2  0  0  0  0
  7 17  1  0  0  0  0
  9 26  2  0  0  0  0
  9 28  1  0  0  0  0
 11  3  1  0  0  0  0
 12 13  1  0  0  0  0
 12  8  1  0  0  0  0
 13 11  2  0  0  0  0
 14 22  2  0  0  0  0
 15 18  1  0  0  0  0
 15  9  1  0  0  0  0
 16  7  1  0  0  0  0
 16 20  1  0  0  0  0
 17  8  2  0  0  0  0
 17 10  1  0  0  0  0
 18  6  1  0  0  0  0
 19 16  2  0  0  0  0
 20  1  1  0  0  0  0
 21  4  1  0  0  0  0
 22 21  1  0  0  0  0
 22 13  1  0  0  0  0
 23 14  1  0  0  0  0
 24  2  1  0  0  0  0
 24  7  2  0  0  0  0
 25  5  1  0  0  0  0
 27 14  1  0  0  0  0
 27  2  2  0  0  0  0
 28 23  2  0  0  0  0
 29 30  1  0  0  0  0
 29 20  1  0  0  0  0
 30 31  1  0  0  0  0
 32 30  1  0  0  0  0
M  END
>  <MODEL>
2

>  <REMARK>
 VINA RESULT:     -10.4      1.790      2.711
  Name = 
  2 active torsions:
  status: ('A' for Active; 'I' for Inactive)
    1  A    between atoms: C_1  and  C_10
    2  A    between atoms: C_10  and  N_24
                            x       y       z     vdW  Elec       q    Type
                         _______ _______ _______ _____ _____    ______ ____

>  <TORSDO>
F 2

$$$$
=
 OpenBabel10262421243D

 32 37  0  0  1  0  0  0  0  0999 V2000
  187.4510  177.3290  137.3350 C   0  0  0  0  0  2  0  0  0  0  0  0
  187.6740  177.8950  142.4080 C   0  0  0  0  0  0  0  0  0  0  0  0
  183.0200  179.0650  143.5820 C   0  0  0  0  0  3  0  0  0  0  0  0
  183.2680  178.9820  144.8890 C   0  0  0  0  0  3  0  0  0  0  0  0
  189.2850  177.4580  144.2380 C   0  0  0  0  0  0  0  0  0  0  0  0
  189.4730  177.3900  145.6140 C   0  0  0  0  0  0  0  0  0  0  0  0
  188.3430  177.7500  140.0500 C   0  0  0  0  0  0  0  0  0  0  0  0
  186.0390  178.3560  140.5680 C   0  0  0  0  0  3  0  0  0  0  0  0
  188.9700  177.4840  147.8130 C   0  0  0  0  0  0  0  0  0  0  0  0
  186.6480  178.3060  138.1950 C   0  0  0  0  0  2  0  0  0  0  0  0
  184.0720  178.8120  142.5880 C   0  0  0  0  0  3  0  0  0  0  0  0
  186.3370  178.2430  141.9730 N   0  0  0  0  0  0  0  0  0  0  0  0
  185.3200  178.4880  142.9500 C   0  0  2  0  0  3  0  0  0  0  0  0
  186.9350  178.0490  144.7250 C   0  0  0  0  0  0  0  0  0  0  0  0
  190.4190  177.1170  147.7180 C   0  0  0  0  0  2  0  0  0  0  0  0
  189.3310  177.4970  138.9880 C   0  0  0  0  0  0  0  0  0  0  0  0
  186.9690  178.1110  139.6460 C   0  0  0  0  0  0  0  0  0  0  0  0
  190.6440  177.0810  146.3010 O   0  0  0  0  0  0  0  0  0  0  0  0
  190.5550  177.3700  139.2680 O   0  0  0  0  0  0  0  0  0  0  0  0
  188.8830  177.4310  137.6240 N   0  0  0  0  0  0  0  0  0  0  0  0
  184.6240  178.6280  145.4370 C   0  0  0  0  0  3  0  0  0  0  0  0
  185.6740  178.3760  144.3740 C   0  0  0  0  0  0  0  0  0  0  0  0
  187.2200  177.9570  146.0610 N   0  0  0  0  0  0  0  0  0  0  0  0
  188.6680  177.6530  141.3410 C   0  0  0  0  0  3  0  0  0  0  0  0
  190.7200  177.1090  143.2670 Cl  0  0  0  0  0  0  0  0  0  0  0  0
  188.3140  177.6350  148.8760 O   0  0  0  0  0  0  0  0  0  0  0  0
  187.9730  177.7990  143.7430 C   0  0  0  0  0  0  0  0  0  0  0  0
  188.4610  177.6340  146.4740 C   0  0  0  0  0  0  0  0  0  0  0  0
  189.8320  177.5300  136.5170 C   0  0  0  0  0  2  0  0  0  0  0  0
  190.3050  176.1600  136.0260 C   0  0  0  0  0  3  0  0  0  0  0  0
  189.8780  175.8860  134.5960 C   0  0  0  0  0  1  0  0  0  0  0  0
  191.8060  175.9960  136.1710 C   0  0  0  0  0  1  0  0  0  0  0  0
  1 20  1  0  0  0  0
  1 10  1  0  0  0  0
  2 27  2  0  0  0  0
  3  4  1  0  0  0  0
  4 21  2  0  0  0  0
  5  6  2  0  0  0  0
  6 18  1  0  0  0  0
  6 28  1  0  0  0  0
  7 24  2  0  0  0  0
  8 12  1  0  0  0  0
  9 26  2  0  0  0  0
 10 17  1  0  0  0  0
 11  3  2  0  0  0  0
 12  2  1  0  0  0  0
 12 13  1  0  0  0  0
 13 11  1  6  0  0  0
 13 22  1  0  0  0  0
 14 23  1  0  0  0  0
 15  9  1  0  0  0  0
 16 19  2  0  0  0  0
 16  7  1  0  0  0  0
 17  7  1  0  0  0  0
 17  8  2  0  0  0  0
 18 15  1  0  0  0  0
 20 16  1  0  0  0  0
 22 14  2  0  0  0  0
 22 21  1  0  0  0  0
 23 28  2  0  0  0  0
 24  2  1  0  0  0  0
 25  5  1  0  0  0  0
 27  5  1  0  0  0  0
 27 14  1  0  0  0  0
 28  9  1  0  0  0  0
 29 20  1  0  0  0  0
 30 32  1  0  0  0  0
 30 29  1  0  0  0  0
 31 30  1  0  0  0  0
M  END
>  <MODEL>
3

>  <REMARK>
 VINA RESULT:     -10.2      3.009      6.810
  Name = 
  2 active torsions:
  status: ('A' for Active; 'I' for Inactive)
    1  A    between atoms: C_1  and  C_10
    2  A    between atoms: C_10  and  N_24
                            x       y       z     vdW  Elec       q    Type
                         _______ _______ _______ _____ _____    ______ ____

>  <TORSDO>
F 2

$$$$
=
 OpenBabel10262421243D

 32 37  0  0  1  0  0  0  0  0999 V2000
  191.2490  177.2310  137.8950 C   0  0  0  0  0  2  0  0  0  0  0  0
  188.4050  177.4190  142.1360 C   0  0  0  0  0  0  0  0  0  0  0  0
  191.6800  176.4050  145.6930 C   0  0  0  0  0  3  0  0  0  0  0  0
  190.8040  176.6800  146.6580 C   0  0  0  0  0  3  0  0  0  0  0  0
  186.1250  178.1310  142.7910 C   0  0  0  0  0  0  0  0  0  0  0  0
  185.2630  178.4020  143.8480 C   0  0  0  0  0  0  0  0  0  0  0  0
  189.0580  177.2200  139.7780 C   0  0  0  0  0  0  0  0  0  0  0  0
  190.7090  176.6820  141.4880 C   0  0  0  0  0  3  0  0  0  0  0  0
  184.5540  178.6280  145.9790 C   0  0  0  0  0  0  0  0  0  0  0  0
  191.4120  176.3860  139.1590 C   0  0  0  0  0  2  0  0  0  0  0  0
  191.3140  176.5160  144.2750 C   0  0  0  0  0  3  0  0  0  0  0  0
  189.7410  177.0030  142.5070 N   0  0  0  0  0  0  0  0  0  0  0  0
  190.0880  176.8970  143.8920 C   0  0  2  0  0  3  0  0  0  0  0  0
  187.8320  177.6030  144.4970 C   0  0  0  0  0  0  0  0  0  0  0  0
  183.3960  178.9870  145.1000 C   0  0  0  0  0  2  0  0  0  0  0  0
  188.7800  177.3200  138.3350 C   0  0  0  0  0  0  0  0  0  0  0  0
  190.4090  176.7940  140.1950 C   0  0  0  0  0  0  0  0  0  0  0  0
  183.9350  178.8150  143.7810 O   0  0  0  0  0  0  0  0  0  0  0  0
  187.6010  177.4950  137.9180 O   0  0  0  0  0  0  0  0  0  0  0  0
  189.8690  177.1820  137.4060 N   0  0  0  0  0  0  0  0  0  0  0  0
  189.3930  177.1200  146.3730 C   0  0  0  0  0  3  0  0  0  0  0  0
  189.0630  177.2190  144.8970 C   0  0  0  0  0  0  0  0  0  0  0  0
  186.9100  177.8920  145.4670 N   0  0  0  0  0  0  0  0  0  0  0  0
  188.1240  177.5070  140.6870 C   0  0  0  0  0  3  0  0  0  0  0  0
  185.4270  178.3410  141.1810 Cl  0  0  0  0  0  0  0  0  0  0  0  0
  184.5560  178.6310  147.2380 O   0  0  0  0  0  0  0  0  0  0  0  0
  187.4710  177.7120  143.0970 C   0  0  0  0  0  0  0  0  0  0  0  0
  185.6650  178.2800  145.1310 C   0  0  0  0  0  0  0  0  0  0  0  0
  189.6190  176.9270  135.9900 C   0  0  0  0  0  2  0  0  0  0  0  0
  189.4410  175.4370  135.6850 C   0  0  0  0  0  3  0  0  0  0  0  0
  188.0170  175.1020  135.2820 C   0  0  0  0  0  1  0  0  0  0  0  0
  190.4170  174.9570  134.6270 C   0  0  0  0  0  1  0  0  0  0  0  0
  1 10  1  0  0  0  0
  2 12  1  0  0  0  0
  2 27  2  0  0  0  0
  3  4  1  0  0  0  0
  5 27  1  0  0  0  0
  5  6  2  0  0  0  0
  6 28  1  0  0  0  0
  7 17  1  0  0  0  0
  7 24  2  0  0  0  0
  8 12  1  0  0  0  0
  9 26  2  0  0  0  0
 10 17  1  0  0  0  0
 11  3  2  0  0  0  0
 12 13  1  0  0  0  0
 13 11  1  6  0  0  0
 13 22  1  0  0  0  0
 14 22  2  0  0  0  0
 14 23  1  0  0  0  0
 15  9  1  0  0  0  0
 16  7  1  0  0  0  0
 17  8  2  0  0  0  0
 18  6  1  0  0  0  0
 18 15  1  0  0  0  0
 19 16  2  0  0  0  0
 20  1  1  0  0  0  0
 20 16  1  0  0  0  0
 21  4  2  0  0  0  0
 22 21  1  0  0  0  0
 24  2  1  0  0  0  0
 25  5  1  0  0  0  0
 27 14  1  0  0  0  0
 28 23  2  0  0  0  0
 28  9  1  0  0  0  0
 29 20  1  0  0  0  0
 30 29  1  0  0  0  0
 31 30  1  0  0  0  0
 32 30  1  0  0  0  0
M  END
>  <MODEL>
4

>  <REMARK>
 VINA RESULT:     -10.1      3.296      7.270
  Name = 
  2 active torsions:
  status: ('A' for Active; 'I' for Inactive)
    1  A    between atoms: C_1  and  C_10
    2  A    between atoms: C_10  and  N_24
                            x       y       z     vdW  Elec       q    Type
                         _______ _______ _______ _____ _____    ______ ____

>  <TORSDO>
F 2

$$$$
=
 OpenBabel10262421243D

 32 37  0  0  1  0  0  0  0  0999 V2000
  192.0370  177.5270  140.4840 C   0  0  0  0  0  2  0  0  0  0  0  0
  187.3220  177.8630  142.4240 C   0  0  0  0  0  0  0  0  0  0  0  0
  188.1380  177.7840  147.2960 C   0  0  0  0  0  3  0  0  0  0  0  0
  186.8630  178.0560  147.5720 C   0  0  0  0  0  3  0  0  0  0  0  0
  185.0290  178.3280  141.6120 C   0  0  0  0  0  0  0  0  0  0  0  0
  183.7160  178.6110  141.9730 C   0  0  0  0  0  0  0  0  0  0  0  0
  189.1740  177.4540  140.8660 C   0  0  0  0  0  0  0  0  0  0  0  0
  189.6330  177.3770  143.2590 C   0  0  0  0  0  3  0  0  0  0  0  0
  181.9410  179.0090  143.3090 C   0  0  0  0  0  0  0  0  0  0  0  0
  191.5160  176.8840  141.7690 C   0  0  0  0  0  2  0  0  0  0  0  0
  188.6090  177.6580  145.9100 C   0  0  0  0  0  3  0  0  0  0  0  0
  188.2510  177.6880  143.5220 N   0  0  0  0  0  0  0  0  0  0  0  0
  187.7810  177.8120  144.8690 C   0  0  2  0  0  3  0  0  0  0  0  0
  185.5350  178.2680  144.0310 C   0  0  0  0  0  0  0  0  0  0  0  0
  181.4440  179.0870  141.8990 C   0  0  0  0  0  2  0  0  0  0  0  0
  189.7330  177.3270  139.5090 C   0  0  0  0  0  0  0  0  0  0  0  0
  190.0900  177.2780  142.0110 C   0  0  0  0  0  0  0  0  0  0  0  0
  182.6270  178.8230  141.1310 O   0  0  0  0  0  0  0  0  0  0  0  0
  188.9730  177.2800  138.5030 O   0  0  0  0  0  0  0  0  0  0  0  0
  191.1590  177.2230  139.3520 N   0  0  0  0  0  0  0  0  0  0  0  0
  185.8250  178.2540  146.5010 C   0  0  0  0  0  3  0  0  0  0  0  0
  186.3580  178.1150  145.0890 C   0  0  0  0  0  0  0  0  0  0  0  0
  184.2200  178.5490  144.2830 N   0  0  0  0  0  0  0  0  0  0  0  0
  187.8820  177.7230  141.0630 C   0  0  0  0  0  3  0  0  0  0  0  0
  185.3250  178.2300  139.8730 Cl  0  0  0  0  0  0  0  0  0  0  0  0
  181.2490  179.1750  144.3470 O   0  0  0  0  0  0  0  0  0  0  0  0
  186.0010  178.1440  142.6630 C   0  0  0  0  0  0  0  0  0  0  0  0
  183.3490  178.7120  143.2690 C   0  0  0  0  0  0  0  0  0  0  0  0
  191.7430  176.7550  138.0970 C   0  0  0  0  0  2  0  0  0  0  0  0
  191.9110  175.2340  138.0600 C   0  0  0  0  0  3  0  0  0  0  0  0
  190.8430  174.5610  137.2190 C   0  0  0  0  0  1  0  0  0  0  0  0
  193.2930  174.8300  137.5830 C   0  0  0  0  0  1  0  0  0  0  0  0
  1 10  1  0  0  0  0
  2 27  2  0  0  0  0
  2 12  1  0  0  0  0
  3  4  1  0  0  0  0
  5  6  2  0  0  0  0
  5 27  1  0  0  0  0
  6 28  1  0  0  0  0
  7 24  2  0  0  0  0
  7 17  1  0  0  0  0
  8 12  1  0  0  0  0
  9 26  2  0  0  0  0
 10 17  1  0  0  0  0
 11  3  2  0  0  0  0
 12 13  1  0  0  0  0
 13 22  1  0  0  0  0
 13 11  1  6  0  0  0
 14 23  1  0  0  0  0
 14 22  2  0  0  0  0
 15  9  1  0  0  0  0
 16  7  1  0  0  0  0
 17  8  2  0  0  0  0
 18 15  1  0  0  0  0
 18  6  1  0  0  0  0
 19 16  2  0  0  0  0
 20 16  1  0  0  0  0
 20  1  1  0  0  0  0
 21  4  2  0  0  0  0
 22 21  1  0  0  0  0
 24  2  1  0  0  0  0
 25  5  1  0  0  0  0
 27 14  1  0  0  0  0
 28  9  1  0  0  0  0
 28 23  2  0  0  0  0
 29 20  1  0  0  0  0
 30 29  1  0  0  0  0
 31 30  1  0  0  0  0
 32 30  1  0  0  0  0
M  END
>  <MODEL>
5

>  <REMARK>
 VINA RESULT:     -10.0      1.831      7.654
  Name = 
  2 active torsions:
  status: ('A' for Active; 'I' for Inactive)
    1  A    between atoms: C_1  and  C_10
    2  A    between atoms: C_10  and  N_24
                            x       y       z     vdW  Elec       q    Type
                         _______ _______ _______ _____ _____    ______ ____

>  <TORSDO>
F 2

$$$$
=
 OpenBabel10262421243D

 32 37  0  0  1  0  0  0  0  0999 V2000
  183.3770  179.7370  139.0940 C   0  0  0  0  0  2  0  0  0  0  0  0
  186.6700  178.1770  142.6760 C   0  0  0  0  0  0  0  0  0  0  0  0
  190.8380  177.5030  140.1110 C   0  0  0  0  0  3  0  0  0  0  0  0
  191.5520  177.2940  141.2160 C   0  0  0  0  0  3  0  0  0  0  0  0
  186.7570  178.0100  145.1470 C   0  0  0  0  0  0  0  0  0  0  0  0
  187.5630  177.7830  146.2570 C   0  0  0  0  0  0  0  0  0  0  0  0
  184.5730  178.6730  141.4990 C   0  0  0  0  0  0  0  0  0  0  0  0
  186.5930  178.3250  140.1780 C   0  0  0  0  0  3  0  0  0  0  0  0
  189.4310  177.3420  147.4450 C   0  0  0  0  0  0  0  0  0  0  0  0
  184.5260  178.7410  138.9270 C   0  0  0  0  0  2  0  0  0  0  0  0
  189.3970  177.7850  140.1750 C   0  0  0  0  0  3  0  0  0  0  0  0
  187.3390  178.1210  141.3940 N   0  0  0  0  0  0  0  0  0  0  0  0
  188.7420  177.8440  141.3420 C   0  0  2  0  0  3  0  0  0  0  0  0
  188.7890  177.6900  143.7770 C   0  0  0  0  0  0  0  0  0  0  0  0
  188.3180  177.5030  148.4350 C   0  0  0  0  0  2  0  0  0  0  0  0
  183.1330  178.9770  141.4740 C   0  0  0  0  0  0  0  0  0  0  0  0
  185.2900  178.6040  140.2090 C   0  0  0  0  0  0  0  0  0  0  0  0
  187.1860  177.7770  147.5970 O   0  0  0  0  0  0  0  0  0  0  0  0
  182.4340  178.8660  142.5190 O   0  0  0  0  0  0  0  0  0  0  0  0
  182.5280  179.3700  140.2300 N   0  0  0  0  0  0  0  0  0  0  0  0
  190.9470  177.3320  142.5930 C   0  0  0  0  0  3  0  0  0  0  0  0
  189.4600  177.6260  142.6080 C   0  0  0  0  0  0  0  0  0  0  0  0
  189.4970  177.4790  144.9290 N   0  0  0  0  0  0  0  0  0  0  0  0
  185.2210  178.4700  142.6490 C   0  0  0  0  0  3  0  0  0  0  0  0
  185.0550  178.3230  145.5050 Cl  0  0  0  0  0  0  0  0  0  0  0  0
  190.6320  177.0870  147.7180 O   0  0  0  0  0  0  0  0  0  0  0  0
  187.3670  177.9680  143.8390 C   0  0  0  0  0  0  0  0  0  0  0  0
  188.8830  177.5290  146.1270 C   0  0  0  0  0  0  0  0  0  0  0  0
  181.0770  179.3470  140.0610 C   0  0  0  0  0  2  0  0  0  0  0  0
  180.5490  177.9520  139.7160 C   0  0  0  0  0  3  0  0  0  0  0  0
  179.7230  177.3580  140.8400 C   0  0  0  0  0  1  0  0  0  0  0  0
  179.7580  177.9530  138.4210 C   0  0  0  0  0  1  0  0  0  0  0  0
  1 20  1  0  0  0  0
  2 27  2  0  0  0  0
  3 11  2  0  0  0  0
  3  4  1  0  0  0  0
  4 21  2  0  0  0  0
  5 25  1  0  0  0  0
  5  6  2  0  0  0  0
  6 18  1  0  0  0  0
  7 24  2  0  0  0  0
  8 17  2  0  0  0  0
  8 12  1  0  0  0  0
  9 26  2  0  0  0  0
  9 15  1  0  0  0  0
 10  1  1  0  0  0  0
 10 17  1  0  0  0  0
 12  2  1  0  0  0  0
 13 11  1  1  0  0  0
 13 12  1  0  0  0  0
 13 22  1  0  0  0  0
 14 27  1  0  0  0  0
 14 23  1  0  0  0  0
 16  7  1  0  0  0  0
 16 19  2  0  0  0  0
 17  7  1  0  0  0  0
 18 15  1  0  0  0  0
 20 16  1  0  0  0  0
 21 22  1  0  0  0  0
 22 14  2  0  0  0  0
 23 28  2  0  0  0  0
 24  2  1  0  0  0  0
 27  5  1  0  0  0  0
 28  6  1  0  0  0  0
 28  9  1  0  0  0  0
 29 20  1  0  0  0  0
 30 29  1  0  0  0  0
 30 31  1  0  0  0  0
 32 30  1  0  0  0  0
M  END
>  <MODEL>
6

>  <REMARK>
 VINA RESULT:      -9.9      2.594      4.717
  Name = 
  2 active torsions:
  status: ('A' for Active; 'I' for Inactive)
    1  A    between atoms: C_1  and  C_10
    2  A    between atoms: C_10  and  N_24
                            x       y       z     vdW  Elec       q    Type
                         _______ _______ _______ _____ _____    ______ ____

>  <TORSDO>
F 2

$$$$
=
 OpenBabel10262421243D

 32 37  0  0  1  0  0  0  0  0999 V2000
  188.9230  176.7050  137.1250 C   0  0  0  0  0  2  0  0  0  0  0  0
  188.7570  177.5560  142.1610 C   0  0  0  0  0  0  0  0  0  0  0  0
  184.0870  179.0010  142.8720 C   0  0  0  0  0  3  0  0  0  0  0  0
  184.2230  178.9840  144.1970 C   0  0  0  0  0  3  0  0  0  0  0  0
  190.1900  177.1540  144.1410 C   0  0  0  0  0  0  0  0  0  0  0  0
  190.2600  177.1580  145.5300 C   0  0  0  0  0  0  0  0  0  0  0  0
  189.6090  177.2440  139.8790 C   0  0  0  0  0  0  0  0  0  0  0  0
  187.3030  177.9820  140.1670 C   0  0  0  0  0  3  0  0  0  0  0  0
  189.5850  177.4030  147.6700 C   0  0  0  0  0  0  0  0  0  0  0  0
  188.1020  177.7660  137.8600 C   0  0  0  0  0  2  0  0  0  0  0  0
  185.2030  178.6430  141.9860 C   0  0  0  0  0  3  0  0  0  0  0  0
  187.4800  177.9380  141.5960 N   0  0  0  0  0  0  0  0  0  0  0  0
  186.3990  178.2860  142.4690 C   0  0  2  0  0  3  0  0  0  0  0  0
  187.8400  177.8780  144.3950 C   0  0  0  0  0  0  0  0  0  0  0  0
  191.0160  176.9650  147.7180 C   0  0  0  0  0  2  0  0  0  0  0  0
  190.6670  176.8850  138.9200 C   0  0  0  0  0  0  0  0  0  0  0  0
  188.2920  177.6420  139.3410 C   0  0  0  0  0  0  0  0  0  0  0  0
  191.3540  176.8370  146.3290 O   0  0  0  0  0  0  0  0  0  0  0  0
  191.8560  176.7190  139.3080 O   0  0  0  0  0  0  0  0  0  0  0  0
  190.3290  176.7600  137.5280 N   0  0  0  0  0  0  0  0  0  0  0  0
  185.5100  178.6010  144.8770 C   0  0  0  0  0  3  0  0  0  0  0  0
  186.6300  178.2410  143.9220 C   0  0  0  0  0  0  0  0  0  0  0  0
  188.0100  177.8520  145.7530 N   0  0  0  0  0  0  0  0  0  0  0  0
  189.8220  177.2080  141.1970 C   0  0  0  0  0  3  0  0  0  0  0  0
  191.6800  176.6850  143.3150 Cl  0  0  0  0  0  0  0  0  0  0  0  0
  188.8520  177.6460  148.6640 O   0  0  0  0  0  0  0  0  0  0  0  0
  188.9410  177.5250  143.5200 C   0  0  0  0  0  0  0  0  0  0  0  0
  189.1950  177.4980  146.2870 C   0  0  0  0  0  0  0  0  0  0  0  0
  191.3700  176.7510  136.5020 C   0  0  0  0  0  2  0  0  0  0  0  0
  191.4600  175.4100  135.7700 C   0  0  0  0  0  3  0  0  0  0  0  0
  192.5740  175.3930  134.7410 C   0  0  0  0  0  1  0  0  0  0  0  0
  191.6140  174.2500  136.7350 C   0  0  0  0  0  1  0  0  0  0  0  0
  1 20  1  0  0  0  0
  1 10  1  0  0  0  0
  2 27  2  0  0  0  0
  3  4  1  0  0  0  0
  4 21  2  0  0  0  0
  5  6  2  0  0  0  0
  6 28  1  0  0  0  0
  6 18  1  0  0  0  0
  7 24  2  0  0  0  0
  8 12  1  0  0  0  0
  9 15  1  0  0  0  0
  9 26  2  0  0  0  0
 10 17  1  0  0  0  0
 11  3  2  0  0  0  0
 12  2  1  0  0  0  0
 12 13  1  0  0  0  0
 13 11  1  1  0  0  0
 13 22  1  0  0  0  0
 14 23  1  0  0  0  0
 16 19  2  0  0  0  0
 16  7  1  0  0  0  0
 17  7  1  0  0  0  0
 17  8  2  0  0  0  0
 18 15  1  0  0  0  0
 20 16  1  0  0  0  0
 22 14  2  0  0  0  0
 22 21  1  0  0  0  0
 23 28  2  0  0  0  0
 24  2  1  0  0  0  0
 25  5  1  0  0  0  0
 27  5  1  0  0  0  0
 27 14  1  0  0  0  0
 28  9  1  0  0  0  0
 29 20  1  0  0  0  0
 30 29  1  0  0  0  0
 30 32  1  0  0  0  0
 31 30  1  0  0  0  0
M  END
>  <MODEL>
7

>  <REMARK>
 VINA RESULT:      -9.7      3.353      7.499
  Name = 
  2 active torsions:
  status: ('A' for Active; 'I' for Inactive)
    1  A    between atoms: C_1  and  C_10
    2  A    between atoms: C_10  and  N_24
                            x       y       z     vdW  Elec       q    Type
                         _______ _______ _______ _____ _____    ______ ____

>  <TORSDO>
F 2

$$$$
=
 OpenBabel10262421243D

 32 37  0  0  1  0  0  0  0  0999 V2000
  189.3840  178.5810  138.9350 C   0  0  0  0  0  2  0  0  0  0  0  0
  185.0090  178.5000  141.5740 C   0  0  0  0  0  0  0  0  0  0  0  0
  186.5640  178.2910  146.2590 C   0  0  0  0  0  3  0  0  0  0  0  0
  185.3310  178.4600  146.7360 C   0  0  0  0  0  3  0  0  0  0  0  0
  182.5930  178.8300  141.1390 C   0  0  0  0  0  0  0  0  0  0  0  0
  181.3350  179.0030  141.7060 C   0  0  0  0  0  0  0  0  0  0  0  0
  186.6240  178.2860  139.7380 C   0  0  0  0  0  0  0  0  0  0  0  0
  187.4470  178.1490  142.0280 C   0  0  0  0  0  3  0  0  0  0  0  0
  179.7630  179.2200  143.3110 C   0  0  0  0  0  0  0  0  0  0  0  0
  189.1080  177.8520  140.2510 C   0  0  0  0  0  2  0  0  0  0  0  0
  186.8240  178.2530  144.8140 C   0  0  0  0  0  3  0  0  0  0  0  0
  186.1040  178.3500  142.5100 N   0  0  0  0  0  0  0  0  0  0  0  0
  185.8390  178.3870  143.9170 C   0  0  2  0  0  3  0  0  0  0  0  0
  183.4660  178.7130  143.4490 C   0  0  0  0  0  0  0  0  0  0  0  0
  179.0520  179.3170  141.9970 C   0  0  0  0  0  2  0  0  0  0  0  0
  186.9760  178.2530  138.3080 C   0  0  0  0  0  0  0  0  0  0  0  0
  187.7140  178.1330  140.7230 C   0  0  0  0  0  0  0  0  0  0  0  0
  180.1190  179.1690  141.0490 O   0  0  0  0  0  0  0  0  0  0  0  0
  186.0750  178.1900  137.4260 O   0  0  0  0  0  0  0  0  0  0  0  0
  188.3650  178.2580  137.9340 N   0  0  0  0  0  0  0  0  0  0  0  0
  184.1300  178.6240  145.8440 C   0  0  0  0  0  3  0  0  0  0  0  0
  184.4490  178.5790  144.3630 C   0  0  0  0  0  0  0  0  0  0  0  0
  182.1890  178.8880  143.9090 N   0  0  0  0  0  0  0  0  0  0  0  0
  185.3620  178.4540  140.1400 C   0  0  0  0  0  3  0  0  0  0  0  0
  182.6260  178.8210  139.3730 Cl  0  0  0  0  0  0  0  0  0  0  0  0
  179.2290  179.2950  144.4480 O   0  0  0  0  0  0  0  0  0  0  0  0
  183.7250  178.6760  142.0220 C   0  0  0  0  0  0  0  0  0  0  0  0
  181.1650  179.0280  143.0450 C   0  0  0  0  0  0  0  0  0  0  0  0
  188.7790  177.8820  136.5840 C   0  0  0  0  0  2  0  0  0  0  0  0
  189.6380  176.6150  136.5670 C   0  0  0  0  0  3  0  0  0  0  0  0
  188.8610  175.3910  137.0120 C   0  0  0  0  0  1  0  0  0  0  0  0
  190.2650  176.3780  135.2060 C   0  0  0  0  0  1  0  0  0  0  0  0
  1 10  1  0  0  0  0
  2 27  2  0  0  0  0
  2 12  1  0  0  0  0
  3  4  1  0  0  0  0
  5  6  2  0  0  0  0
  5 27  1  0  0  0  0
  6 28  1  0  0  0  0
  7 24  2  0  0  0  0
  7 17  1  0  0  0  0
  8 12  1  0  0  0  0
  9 26  2  0  0  0  0
 10 17  1  0  0  0  0
 11  3  2  0  0  0  0
 12 13  1  0  0  0  0
 13 22  1  0  0  0  0
 13 11  1  6  0  0  0
 14 23  1  0  0  0  0
 14 22  2  0  0  0  0
 15  9  1  0  0  0  0
 16  7  1  0  0  0  0
 17  8  2  0  0  0  0
 18  6  1  0  0  0  0
 18 15  1  0  0  0  0
 19 16  2  0  0  0  0
 20 16  1  0  0  0  0
 20  1  1  0  0  0  0
 21  4  2  0  0  0  0
 22 21  1  0  0  0  0
 24  2  1  0  0  0  0
 25  5  1  0  0  0  0
 27 14  1  0  0  0  0
 28  9  1  0  0  0  0
 28 23  2  0  0  0  0
 29 20  1  0  0  0  0
 30 29  1  0  0  0  0
 30 31  1  0  0  0  0
 32 30  1  0  0  0  0
M  END
>  <MODEL>
8

>  <REMARK>
 VINA RESULT:      -9.3      2.689      7.451
  Name = 
  2 active torsions:
  status: ('A' for Active; 'I' for Inactive)
    1  A    between atoms: C_1  and  C_10
    2  A    between atoms: C_10  and  N_24
                            x       y       z     vdW  Elec       q    Type
                         _______ _______ _______ _____ _____    ______ ____

>  <TORSDO>
F 2

$$$$
=
 OpenBabel10262421243D

 32 37  0  0  0  0  0  0  0  0999 V2000
  191.5860  176.4980  144.3590 C   0  0  0  0  0  2  0  0  0  0  0  0
  187.0090  178.0580  142.7080 C   0  0  0  0  0  0  0  0  0  0  0  0
  187.6220  178.2530  137.8090 C   0  0  0  0  0  3  0  0  0  0  0  0
  186.3270  178.4840  137.5990 C   0  0  0  0  0  3  0  0  0  0  0  0
  184.7350  178.3860  143.6330 C   0  0  0  0  0  0  0  0  0  0  0  0
  183.3970  178.6290  143.3400 C   0  0  0  0  0  0  0  0  0  0  0  0
  188.9370  177.6350  144.1680 C   0  0  0  0  0  0  0  0  0  0  0  0
  189.3060  177.7450  141.7600 C   0  0  0  0  0  3  0  0  0  0  0  0
  181.5530  179.0150  142.0970 C   0  0  0  0  0  0  0  0  0  0  0  0
  191.2910  177.3940  143.1550 C   0  0  0  0  0  2  0  0  0  0  0  0
  188.1560  178.0810  139.1680 C   0  0  0  0  0  3  0  0  0  0  0  0
  187.8970  177.9780  141.5670 N   0  0  0  0  0  0  0  0  0  0  0  0
  187.3670  178.1480  140.2480 C   0  0  0  0  0  0  0  0  0  0  0  0
  185.1410  178.4650  141.1960 C   0  0  0  0  0  0  0  0  0  0  0  0
  181.1130  179.0030  143.5290 C   0  0  0  0  0  2  0  0  0  0  0  0
  189.5520  177.4340  145.4910 C   0  0  0  0  0  0  0  0  0  0  0  0
  189.8120  177.5640  142.9800 C   0  0  0  0  0  0  0  0  0  0  0  0
  182.3370  178.7540  144.2340 O   0  0  0  0  0  0  0  0  0  0  0  0
  188.8970  177.6660  146.5450 O   0  0  0  0  0  0  0  0  0  0  0  0
  190.9210  177.0010  145.5620 N   0  0  0  0  0  0  0  0  0  0  0  0
  185.3270  178.5840  138.7190 C   0  0  0  0  0  2  0  0  0  0  0  0
  185.9250  178.4000  140.1000 C   0  0  0  0  0  0  0  0  0  0  0  0
  183.8060  178.7020  141.0110 N   0  0  0  0  0  0  0  0  0  0  0  0
  187.6290  177.8690  144.0360 C   0  0  0  0  0  3  0  0  0  0  0  0
  185.1090  178.2210  145.3520 Cl  0  0  0  0  0  0  0  0  0  0  0  0
  180.8120  179.2010  141.0970 O   0  0  0  0  0  0  0  0  0  0  0  0
  185.6690  178.2950  142.5370 C   0  0  0  0  0  0  0  0  0  0  0  0
  182.9730  178.7780  142.0670 C   0  0  0  0  0  0  0  0  0  0  0  0
  191.6800  177.1170  146.8050 C   0  0  0  0  0  2  0  0  0  0  0  0
  192.1350  175.7580  147.3430 C   0  0  0  0  0  3  0  0  0  0  0  0
  193.0880  175.8960  148.5160 C   0  0  0  0  0  1  0  0  0  0  0  0
  190.9580  174.8780  147.7190 C   0  0  0  0  0  1  0  0  0  0  0  0
  1 20  1  0  0  0  0
  2 24  1  0  0  0  0
  3 11  1  0  0  0  0
  4  3  2  0  0  0  0
  4 21  1  0  0  0  0
  5 25  1  0  0  0  0
  6  5  2  0  0  0  0
  6 18  1  0  0  0  0
  7 16  1  0  0  0  0
  8 17  2  0  0  0  0
  9 15  1  0  0  0  0
 10  1  1  0  0  0  0
 11 13  2  0  0  0  0
 12  8  1  0  0  0  0
 12  2  1  0  0  0  0
 13 12  1  0  0  0  0
 14 27  1  0  0  0  0
 15 18  1  0  0  0  0
 16 20  1  0  0  0  0
 16 19  2  0  0  0  0
 17 10  1  0  0  0  0
 17  7  1  0  0  0  0
 20 29  1  0  0  0  0
 21 22  1  0  0  0  0
 22 13  1  0  0  0  0
 22 14  2  0  0  0  0
 23 14  1  0  0  0  0
 23 28  2  0  0  0  0
 24  7  2  0  0  0  0
 26  9  2  0  0  0  0
 27  2  2  0  0  0  0
 27  5  1  0  0  0  0
 28  9  1  0  0  0  0
 28  6  1  0  0  0  0
 29 30  1  0  0  0  0
 30 32  1  0  0  0  0
 30 31  1  0  0  0  0
M  END
>  <MODEL>
9

>  <REMARK>
 VINA RESULT:      -9.1      2.762      8.906
  Name = 
  2 active torsions:
  status: ('A' for Active; 'I' for Inactive)
    1  A    between atoms: C_1  and  C_10
    2  A    between atoms: C_10  and  N_24
                            x       y       z     vdW  Elec       q    Type
                         _______ _______ _______ _____ _____    ______ ____

>  <TORSDO>
F 2

$$$$
