=
 OpenBabel10252415033D

 34 39  0  0  1  0  0  0  0  0999 V2000
  188.3660  177.5240  137.3650 C   0  0  0  0  0  0  0  0  0  0  0  0
  185.9390  176.8810  137.5220 C   0  0  0  0  0  0  0  0  0  0  0  0
  186.9800  178.0960  139.4420 C   0  0  0  0  0  0  0  0  0  0  0  0
  185.8570  178.7410  141.5930 C   0  0  1  0  0  3  0  0  0  0  0  0
  187.1950  176.1710  135.5620 C   0  0  0  0  0  2  0  0  0  0  0  0
  186.3280  175.6870  136.7150 C   0  0  0  0  0  2  0  0  0  0  0  0
  184.6450  178.9840  139.3530 C   0  0  0  0  0  0  0  0  0  0  0  0
  186.9880  177.8810  137.9360 C   0  0  1  0  0  3  0  0  0  0  0  0
  184.0880  178.3480  138.3010 C   0  0  0  0  0  0  0  0  0  0  0  0
  184.5660  178.2530  142.2280 C   0  0  0  0  0  1  0  0  0  0  0  0
  188.5150  176.7420  136.0820 C   0  0  0  0  0  2  0  0  0  0  0  0
  188.2870  177.8540  140.1860 C   0  0  2  0  0  3  0  0  0  0  0  0
  189.4860  177.7990  138.0440 C   0  0  0  0  0  3  0  0  0  0  0  0
  184.6440  177.1430  137.6590 C   0  0  0  0  0  3  0  0  0  0  0  0
  187.0120  178.0630  142.3090 C   0  0  0  0  0  2  0  0  0  0  0  0
  188.3070  178.4130  141.6110 C   0  0  1  0  0  3  0  0  0  0  0  0
  184.0160  180.1280  139.8440 O   0  0  0  0  0  1  0  0  0  0  0  0
  185.8570  178.5120  140.0870 C   0  0  0  0  0  0  0  0  0  0  0  0
  189.4300  178.4640  139.3800 C   0  0  0  0  0  2  0  0  0  0  0  0
  191.4640  178.2530  143.7410 C   0  0  0  0  0  0  0  0  0  0  0  0
  191.6460  176.8700  143.8410 C   0  0  0  0  0  3  0  0  0  0  0  0
  189.4760  177.8920  142.3930 C   0  0  0  0  0  0  0  0  0  0  0  0
  190.7480  176.0000  143.2180 C   0  0  0  0  0  3  0  0  0  0  0  0
  190.3810  178.7640  143.0180 C   0  0  0  0  0  3  0  0  0  0  0  0
  189.6650  176.5090  142.4960 C   0  0  0  0  0  3  0  0  0  0  0  0
  192.3340  179.0970  144.3440 F   0  0  0  0  0  0  0  0  0  0  0  0
  182.7960  178.8480  137.7340 C   0  0  0  0  0  2  0  0  0  0  0  0
  180.0560  179.0480  136.4510 C   0  0  0  0  0  1  0  0  0  0  0  0
  181.6450  177.8930  138.0540 C   0  0  2  0  0  3  0  0  0  0  0  0
  180.2760  178.5680  137.8740 C   0  0  1  0  0  3  0  0  0  0  0  0
  180.7140  179.4680  140.2330 C   0  0  0  0  0  2  0  0  0  0  0  0
  180.8890  177.9800  140.5200 C   0  0  0  0  0  2  0  0  0  0  0  0
  181.8010  177.3200  139.4760 C   0  0  0  0  0  2  0  0  0  0  0  0
  180.0330  179.7040  138.8780 C   0  0  0  0  0  2  0  0  0  0  0  0
  1 13  2  0  0  0  0
  2 14  2  0  0  0  0
  2  8  1  0  0  0  0
  3 18  2  0  0  0  0
  3 12  1  0  0  0  0
  4 10  1  1  0  0  0
  4 15  1  0  0  0  0
  5 11  1  0  0  0  0
  5  6  1  0  0  0  0
  6  2  1  0  0  0  0
  7 17  1  0  0  0  0
  7 18  1  0  0  0  0
  8  1  1  1  0  0  0
  8  3  1  0  0  0  0
  9  7  2  0  0  0  0
 11  1  1  0  0  0  0
 12 19  1  6  0  0  0
 12 16  1  0  0  0  0
 13 19  1  0  0  0  0
 14  9  1  0  0  0  0
 16 15  1  0  0  0  0
 16 22  1  1  0  0  0
 18  4  1  0  0  0  0
 20 21  1  0  0  0  0
 20 26  1  0  0  0  0
 22 25  2  0  0  0  0
 22 24  1  0  0  0  0
 23 21  2  0  0  0  0
 24 20  2  0  0  0  0
 25 23  1  0  0  0  0
 27  9  1  0  0  0  0
 29 27  1  1  0  0  0
 29 33  1  0  0  0  0
 30 28  1  6  0  0  0
 30 29  1  0  0  0  0
 30 34  1  0  0  0  0
 31 32  1  0  0  0  0
 33 32  1  0  0  0  0
 34 31  1  0  0  0  0
M  END
>  <MODEL>
1

>  <REMARK>
 VINA RESULT:      -8.2      0.000      0.000
  Name = 
  3 active torsions:
  status: ('A' for Active; 'I' for Inactive)
    1  A    between atoms: C_3  and  C_13
    2  A    between atoms: C_3  and  C_17
    3  A    between atoms: C_12  and  C_28
                            x       y       z     vdW  Elec       q    Type
                         _______ _______ _______ _____ _____    ______ ____

>  <TORSDO>
F 3

$$$$
=
 OpenBabel10252415033D

 34 39  0  0  1  0  0  0  0  0999 V2000
  189.1230  176.8770  137.7070 C   0  0  0  0  0  0  0  0  0  0  0  0
  186.6570  176.3810  137.6700 C   0  0  0  0  0  0  0  0  0  0  0  0
  187.5740  177.7480  139.5520 C   0  0  0  0  0  0  0  0  0  0  0  0
  186.2820  178.6870  141.4890 C   0  0  1  0  0  3  0  0  0  0  0  0
  188.0580  175.3930  135.9430 C   0  0  0  0  0  2  0  0  0  0  0  0
  187.0500  175.0860  137.0400 C   0  0  0  0  0  2  0  0  0  0  0  0
  185.3200  178.7390  139.1190 C   0  0  0  0  0  0  0  0  0  0  0  0
  187.7200  177.3660  138.0860 C   0  0  1  0  0  3  0  0  0  0  0  0
  184.8330  178.0190  138.0870 C   0  0  0  0  0  0  0  0  0  0  0  0
  184.9050  178.3400  142.0300 C   0  0  0  0  0  1  0  0  0  0  0  0
  189.3520  175.9490  136.5380 C   0  0  0  0  0  2  0  0  0  0  0  0
  188.7810  177.5240  140.4530 C   0  0  2  0  0  3  0  0  0  0  0  0
  190.1840  177.1670  138.4690 C   0  0  0  0  0  3  0  0  0  0  0  0
  185.3740  176.7240  137.6390 C   0  0  0  0  0  3  0  0  0  0  0  0
  187.3130  178.0340  142.3920 C   0  0  0  0  0  2  0  0  0  0  0  0
  188.6920  178.2360  141.8040 C   0  0  1  0  0  3  0  0  0  0  0  0
  184.7180  179.9620  139.4150 O   0  0  0  0  0  1  0  0  0  0  0  0
  186.4190  178.2910  140.0250 C   0  0  0  0  0  0  0  0  0  0  0  0
  190.0360  177.9790  139.7140 C   0  0  0  0  0  2  0  0  0  0  0  0
  191.1020  175.9670  143.6920 C   0  0  0  0  0  0  0  0  0  0  0  0
  191.7060  176.8830  144.5590 C   0  0  0  0  0  3  0  0  0  0  0  0
  189.7410  177.7470  142.7580 C   0  0  0  0  0  0  0  0  0  0  0  0
  191.3280  178.2290  144.5270 C   0  0  0  0  0  3  0  0  0  0  0  0
  190.1220  176.3970  142.7930 C   0  0  0  0  0  3  0  0  0  0  0  0
  190.3480  178.6600  143.6290 C   0  0  0  0  0  3  0  0  0  0  0  0
  191.4680  174.6630  143.7220 F   0  0  0  0  0  0  0  0  0  0  0  0
  183.6390  178.5190  137.3340 C   0  0  0  0  0  2  0  0  0  0  0  0
  182.2640  176.7570  135.2860 C   0  0  0  0  0  1  0  0  0  0  0  0
  182.3990  177.6790  137.6440 C   0  0  2  0  0  3  0  0  0  0  0  0
  181.5230  177.4750  136.3990 C   0  0  1  0  0  3  0  0  0  0  0  0
  180.5970  179.7870  137.0060 C   0  0  0  0  0  2  0  0  0  0  0  0
  180.3490  179.0840  138.3370 C   0  0  0  0  0  2  0  0  0  0  0  0
  181.5940  178.3120  138.7950 C   0  0  0  0  0  2  0  0  0  0  0  0
  180.8990  178.7810  135.8860 C   0  0  0  0  0  2  0  0  0  0  0  0
  1  8  1  0  0  0  0
  1 13  2  0  0  0  0
  3 18  2  0  0  0  0
  3 12  1  0  0  0  0
  4 10  1  1  0  0  0
  4 15  1  0  0  0  0
  5 11  1  0  0  0  0
  5  6  1  0  0  0  0
  6  2  1  0  0  0  0
  7 17  1  0  0  0  0
  7 18  1  0  0  0  0
  8  2  1  1  0  0  0
  8  3  1  0  0  0  0
  9  7  2  0  0  0  0
 11  1  1  0  0  0  0
 12 19  1  6  0  0  0
 12 16  1  0  0  0  0
 13 19  1  0  0  0  0
 14  2  2  0  0  0  0
 14  9  1  0  0  0  0
 16 15  1  0  0  0  0
 16 22  1  1  0  0  0
 18  4  1  0  0  0  0
 20 26  1  0  0  0  0
 20 21  1  0  0  0  0
 22 24  1  0  0  0  0
 22 25  2  0  0  0  0
 23 21  2  0  0  0  0
 24 20  2  0  0  0  0
 25 23  1  0  0  0  0
 27  9  1  0  0  0  0
 29 27  1  6  0  0  0
 29 33  1  0  0  0  0
 30 28  1  6  0  0  0
 30 29  1  0  0  0  0
 31 32  1  0  0  0  0
 32 33  1  0  0  0  0
 34 30  1  0  0  0  0
 34 31  1  0  0  0  0
M  END
>  <MODEL>
2

>  <REMARK>
 VINA RESULT:      -7.6      1.255      1.767
  Name = 
  3 active torsions:
  status: ('A' for Active; 'I' for Inactive)
    1  A    between atoms: C_3  and  C_13
    2  A    between atoms: C_3  and  C_17
    3  A    between atoms: C_12  and  C_28
                            x       y       z     vdW  Elec       q    Type
                         _______ _______ _______ _____ _____    ______ ____

>  <TORSDO>
F 3

$$$$
=
 OpenBabel10252415033D

 34 39  0  0  1  0  0  0  0  0999 V2000
  186.1790  177.5040  143.2090 C   0  0  0  0  0  0  0  0  0  0  0  0
  187.1310  178.6610  141.1880 C   0  0  0  0  0  0  0  0  0  0  0  0
  188.6700  177.3310  142.6400 C   0  0  0  0  0  0  0  0  0  0  0  0
  191.1430  177.0310  142.3220 C   0  0  1  0  0  3  0  0  0  0  0  0
  184.7790  179.0030  141.7110 C   0  0  0  0  0  2  0  0  0  0  0  0
  186.1010  179.7090  141.4530 C   0  0  0  0  0  2  0  0  0  0  0  0
  189.5440  176.9640  140.3260 C   0  0  0  0  0  0  0  0  0  0  0  0
  187.2510  177.4770  142.1120 C   0  0  1  0  0  3  0  0  0  0  0  0
  188.6990  177.6600  139.5380 C   0  0  0  0  0  0  0  0  0  0  0  0
  192.1410  177.8120  141.4840 C   0  0  0  0  0  1  0  0  0  0  0  0
  184.8470  178.1830  143.0000 C   0  0  0  0  0  2  0  0  0  0  0  0
  188.8530  177.3160  144.1520 C   0  0  2  0  0  3  0  0  0  0  0  0
  186.4310  177.0240  144.4330 C   0  0  0  0  0  3  0  0  0  0  0  0
  187.7600  178.6890  140.0190 C   0  0  0  0  0  3  0  0  0  0  0  0
  191.3030  177.4740  143.7660 C   0  0  0  0  0  2  0  0  0  0  0  0
  190.2290  176.8250  144.6100 C   0  0  1  0  0  3  0  0  0  0  0  0
  190.3620  176.0030  139.7330 O   0  0  0  0  0  1  0  0  0  0  0  0
  189.7250  177.1930  141.7910 C   0  0  0  0  0  0  0  0  0  0  0  0
  187.7650  176.4420  144.7690 C   0  0  0  0  0  2  0  0  0  0  0  0
  191.7750  176.8800  148.0920 C   0  0  0  0  0  0  0  0  0  0  0  0
  190.8560  177.6790  148.7780 C   0  0  0  0  0  3  0  0  0  0  0  0
  190.4630  177.1130  146.0630 C   0  0  0  0  0  0  0  0  0  0  0  0
  189.7420  178.1950  148.1100 C   0  0  0  0  0  3  0  0  0  0  0  0
  191.5800  176.5960  146.7370 C   0  0  0  0  0  3  0  0  0  0  0  0
  189.5460  177.9120  146.7550 C   0  0  0  0  0  3  0  0  0  0  0  0
  192.8550  176.3800  148.7400 F   0  0  0  0  0  0  0  0  0  0  0  0
  188.7050  177.4270  138.0590 C   0  0  0  0  0  2  0  0  0  0  0  0
  189.1180  174.6810  136.8410 C   0  0  0  0  0  1  0  0  0  0  0  0
  187.5540  176.5090  137.6400 C   0  0  2  0  0  3  0  0  0  0  0  0
  187.9540  175.5860  136.4800 C   0  0  1  0  0  3  0  0  0  0  0  0
  187.3910  177.6190  135.0260 C   0  0  0  0  0  2  0  0  0  0  0  0
  186.0690  177.5030  135.7790 C   0  0  0  0  0  2  0  0  0  0  0  0
  186.3050  177.3400  137.2870 C   0  0  0  0  0  2  0  0  0  0  0  0
  188.2390  176.3490  135.1790 C   0  0  0  0  0  2  0  0  0  0  0  0
  1 13  2  0  0  0  0
  2  6  1  0  0  0  0
  3 12  1  0  0  0  0
  4 10  1  6  0  0  0
  4 15  1  0  0  0  0
  5 11  1  0  0  0  0
  6  5  1  0  0  0  0
  7 18  1  0  0  0  0
  8  2  1  1  0  0  0
  8  3  1  0  0  0  0
  8  1  1  0  0  0  0
  9 14  1  0  0  0  0
  9  7  2  0  0  0  0
 11  1  1  0  0  0  0
 12 16  1  0  0  0  0
 12 19  1  1  0  0  0
 13 19  1  0  0  0  0
 14  2  2  0  0  0  0
 15 16  1  0  0  0  0
 16 22  1  1  0  0  0
 17  7  1  0  0  0  0
 18  4  1  0  0  0  0
 18  3  2  0  0  0  0
 20 26  1  0  0  0  0
 20 21  1  0  0  0  0
 22 24  1  0  0  0  0
 22 25  2  0  0  0  0
 23 21  2  0  0  0  0
 24 20  2  0  0  0  0
 25 23  1  0  0  0  0
 27  9  1  0  0  0  0
 29 27  1  6  0  0  0
 30 28  1  1  0  0  0
 30 29  1  0  0  0  0
 31 34  1  0  0  0  0
 31 32  1  0  0  0  0
 32 33  1  0  0  0  0
 33 29  1  0  0  0  0
 34 30  1  0  0  0  0
M  END
>  <MODEL>
3

>  <REMARK>
 VINA RESULT:      -7.4      3.075      6.095
  Name = 
  3 active torsions:
  status: ('A' for Active; 'I' for Inactive)
    1  A    between atoms: C_3  and  C_13
    2  A    between atoms: C_3  and  C_17
    3  A    between atoms: C_12  and  C_28
                            x       y       z     vdW  Elec       q    Type
                         _______ _______ _______ _____ _____    ______ ____

>  <TORSDO>
F 3

$$$$
=
 OpenBabel10252415033D

 34 39  0  0  1  0  0  0  0  0999 V2000
  186.0950  178.2860  139.3110 C   0  0  0  0  0  0  0  0  0  0  0  0
  183.7940  177.5220  138.6420 C   0  0  0  0  0  0  0  0  0  0  0  0
  184.0740  178.6980  140.8290 C   0  0  0  0  0  0  0  0  0  0  0  0
  182.2710  179.1930  142.5050 C   0  0  1  0  0  3  0  0  0  0  0  0
  185.6630  176.9610  137.1880 C   0  0  0  0  0  2  0  0  0  0  0  0
  184.4960  176.3850  137.9760 C   0  0  0  0  0  2  0  0  0  0  0  0
  181.8480  179.4770  139.9980 C   0  0  0  0  0  0  0  0  0  0  0  0
  184.5870  178.5510  139.4050 C   0  0  1  0  0  3  0  0  0  0  0  0
  181.7060  178.8630  138.8050 C   0  0  0  0  0  0  0  0  0  0  0  0
  180.8750  178.6160  142.6660 C   0  0  0  0  0  1  0  0  0  0  0  0
  186.7030  177.5700  138.1290 C   0  0  0  0  0  2  0  0  0  0  0  0
  185.0760  178.4860  141.9560 C   0  0  2  0  0  3  0  0  0  0  0  0
  186.9130  178.5830  140.3280 C   0  0  0  0  0  3  0  0  0  0  0  0
  182.5120  177.7160  138.3510 C   0  0  0  0  0  3  0  0  0  0  0  0
  183.1650  178.5380  143.5440 C   0  0  0  0  0  2  0  0  0  0  0  0
  184.5950  178.9800  143.3220 C   0  0  1  0  0  3  0  0  0  0  0  0
  181.0260  180.5670  140.2840 O   0  0  0  0  0  1  0  0  0  0  0  0
  182.7780  179.0310  141.0790 C   0  0  0  0  0  0  0  0  0  0  0  0
  186.3820  179.1840  141.5890 C   0  0  0  0  0  2  0  0  0  0  0  0
  187.4790  177.3650  145.2180 C   0  0  0  0  0  0  0  0  0  0  0  0
  187.0740  177.5680  146.5400 C   0  0  0  0  0  3  0  0  0  0  0  0
  185.4720  178.4820  144.4320 C   0  0  0  0  0  0  0  0  0  0  0  0
  185.8700  178.2250  146.8100 C   0  0  0  0  0  3  0  0  0  0  0  0
  186.6800  177.8200  144.1650 C   0  0  0  0  0  3  0  0  0  0  0  0
  185.0710  178.6810  145.7580 C   0  0  0  0  0  3  0  0  0  0  0  0
  188.6460  176.7280  144.9560 F   0  0  0  0  0  0  0  0  0  0  0  0
  180.6440  179.3270  137.8570 C   0  0  0  0  0  2  0  0  0  0  0  0
  180.3440  182.0110  136.4780 C   0  0  0  0  0  1  0  0  0  0  0  0
  181.2310  179.6350  136.4780 C   0  0  2  0  0  3  0  0  0  0  0  0
  180.4040  180.6920  135.7290 C   0  0  1  0  0  3  0  0  0  0  0  0
  178.9310  178.6930  135.0950 C   0  0  0  0  0  2  0  0  0  0  0  0
  180.2680  178.1590  134.5940 C   0  0  0  0  0  2  0  0  0  0  0  0
  181.3670  178.3430  135.6500 C   0  0  0  0  0  2  0  0  0  0  0  0
  178.9940  180.2020  135.3700 C   0  0  0  0  0  2  0  0  0  0  0  0
  1  8  1  0  0  0  0
  1 13  2  0  0  0  0
  3 18  2  0  0  0  0
  3 12  1  0  0  0  0
  4 10  1  6  0  0  0
  4 15  1  0  0  0  0
  5  6  1  0  0  0  0
  5 11  1  0  0  0  0
  6  2  1  0  0  0  0
  7 17  1  0  0  0  0
  7 18  1  0  0  0  0
  8  2  1  1  0  0  0
  8  3  1  0  0  0  0
  9  7  2  0  0  0  0
 11  1  1  0  0  0  0
 12 19  1  6  0  0  0
 12 16  1  0  0  0  0
 13 19  1  0  0  0  0
 14  2  2  0  0  0  0
 14  9  1  0  0  0  0
 16 15  1  0  0  0  0
 16 22  1  1  0  0  0
 18  4  1  0  0  0  0
 20 21  1  0  0  0  0
 21 23  2  0  0  0  0
 22 25  2  0  0  0  0
 24 22  1  0  0  0  0
 24 20  2  0  0  0  0
 25 23  1  0  0  0  0
 26 20  1  0  0  0  0
 27  9  1  0  0  0  0
 29 27  1  1  0  0  0
 30 29  1  0  0  0  0
 30 28  1  1  0  0  0
 31 34  1  0  0  0  0
 32 31  1  0  0  0  0
 32 33  1  0  0  0  0
 33 29  1  0  0  0  0
 34 30  1  0  0  0  0
M  END
>  <MODEL>
4

>  <REMARK>
 VINA RESULT:      -7.3      2.323      3.843
  Name = 
  3 active torsions:
  status: ('A' for Active; 'I' for Inactive)
    1  A    between atoms: C_3  and  C_13
    2  A    between atoms: C_3  and  C_17
    3  A    between atoms: C_12  and  C_28
                            x       y       z     vdW  Elec       q    Type
                         _______ _______ _______ _____ _____    ______ ____

>  <TORSDO>
F 3

$$$$
=
 OpenBabel10252415033D

 34 39  0  0  1  0  0  0  0  0999 V2000
  186.9610  178.5100  140.0100 C   0  0  0  0  0  0  0  0  0  0  0  0
  184.6350  177.8970  140.7460 C   0  0  0  0  0  0  0  0  0  0  0  0
  186.3720  178.3100  142.4950 C   0  0  0  0  0  0  0  0  0  0  0  0
  186.0620  178.1470  144.9810 C   0  0  1  0  0  3  0  0  0  0  0  0
  185.1200  177.9270  138.3610 C   0  0  0  0  0  2  0  0  0  0  0  0
  184.5890  177.0720  139.5020 C   0  0  0  0  0  2  0  0  0  0  0  0
  184.2670  179.2110  143.5000 C   0  0  0  0  0  0  0  0  0  0  0  0
  185.8870  178.6580  141.0950 C   0  0  1  0  0  3  0  0  0  0  0  0
  183.3330  179.0120  142.5470 C   0  0  0  0  0  0  0  0  0  0  0  0
  184.9730  177.4840  145.8080 C   0  0  0  0  0  1  0  0  0  0  0  0
  186.6010  178.2460  138.5680 C   0  0  0  0  0  2  0  0  0  0  0  0
  187.7970  177.7900  142.6290 C   0  0  2  0  0  3  0  0  0  0  0  0
  188.2620  178.4980  140.3240 C   0  0  0  0  0  3  0  0  0  0  0  0
  183.4940  178.1140  141.3900 C   0  0  0  0  0  3  0  0  0  0  0  0
  187.2750  177.2340  144.9940 C   0  0  0  0  0  2  0  0  0  0  0  0
  188.3300  177.7910  144.0640 C   0  0  1  0  0  3  0  0  0  0  0  0
  183.9840  180.1080  144.5290 O   0  0  0  0  0  1  0  0  0  0  0  0
  185.5690  178.4820  143.5800 C   0  0  0  0  0  0  0  0  0  0  0  0
  188.7110  178.6310  141.7420 C   0  0  0  0  0  2  0  0  0  0  0  0
  191.5990  176.3610  145.4020 C   0  0  0  0  0  0  0  0  0  0  0  0
  191.9610  175.5040  144.3580 C   0  0  0  0  0  3  0  0  0  0  0  0
  189.5990  177.0010  144.1830 C   0  0  0  0  0  0  0  0  0  0  0  0
  191.1450  175.3950  143.2280 C   0  0  0  0  0  3  0  0  0  0  0  0
  190.4210  177.1080  145.3150 C   0  0  0  0  0  3  0  0  0  0  0  0
  189.9670  176.1420  143.1410 C   0  0  0  0  0  3  0  0  0  0  0  0
  192.3890  176.4660  146.4970 F   0  0  0  0  0  0  0  0  0  0  0  0
  182.0110  179.7080  142.6510 C   0  0  0  0  0  2  0  0  0  0  0  0
  180.0250  180.0290  140.3830 C   0  0  0  0  0  1  0  0  0  0  0  0
  180.8550  178.7380  142.4010 C   0  0  2  0  0  3  0  0  0  0  0  0
  179.6610  179.4350  141.7310 C   0  0  1  0  0  3  0  0  0  0  0  0
  179.0780  180.1380  144.1250 C   0  0  0  0  0  2  0  0  0  0  0  0
  179.1600  178.6310  144.3440 C   0  0  0  0  0  2  0  0  0  0  0  0
  180.4350  178.0510  143.7150 C   0  0  0  0  0  2  0  0  0  0  0  0
  179.0000  180.4880  142.6330 C   0  0  0  0  0  2  0  0  0  0  0  0
  1 13  2  0  0  0  0
  2  8  1  0  0  0  0
  2 14  2  0  0  0  0
  3 12  1  0  0  0  0
  3 18  2  0  0  0  0
  4 15  1  0  0  0  0
  4 10  1  1  0  0  0
  5 11  1  0  0  0  0
  5  6  1  0  0  0  0
  6  2  1  0  0  0  0
  7 18  1  0  0  0  0
  7 17  1  0  0  0  0
  8  1  1  6  0  0  0
  8  3  1  0  0  0  0
  9 27  1  0  0  0  0
  9  7  2  0  0  0  0
 11  1  1  0  0  0  0
 12 19  1  6  0  0  0
 12 16  1  0  0  0  0
 13 19  1  0  0  0  0
 14  9  1  0  0  0  0
 16 22  1  6  0  0  0
 16 15  1  0  0  0  0
 18  4  1  0  0  0  0
 20 26  1  0  0  0  0
 21 20  2  0  0  0  0
 22 24  2  0  0  0  0
 23 21  1  0  0  0  0
 24 20  1  0  0  0  0
 25 23  2  0  0  0  0
 25 22  1  0  0  0  0
 29 27  1  1  0  0  0
 29 33  1  0  0  0  0
 30 28  1  6  0  0  0
 30 29  1  0  0  0  0
 30 34  1  0  0  0  0
 31 32  1  0  0  0  0
 33 32  1  0  0  0  0
 34 31  1  0  0  0  0
M  END
>  <MODEL>
5

>  <REMARK>
 VINA RESULT:      -7.3      2.251      3.493
  Name = 
  3 active torsions:
  status: ('A' for Active; 'I' for Inactive)
    1  A    between atoms: C_3  and  C_13
    2  A    between atoms: C_3  and  C_17
    3  A    between atoms: C_12  and  C_28
                            x       y       z     vdW  Elec       q    Type
                         _______ _______ _______ _____ _____    ______ ____

>  <TORSDO>
F 3

$$$$
=
 OpenBabel10252415033D

 34 39  0  0  1  0  0  0  0  0999 V2000
  186.7680  177.4360  145.3290 C   0  0  0  0  0  0  0  0  0  0  0  0
  184.9660  179.0270  144.5890 C   0  0  0  0  0  0  0  0  0  0  0  0
  186.2680  177.8010  142.8430 C   0  0  0  0  0  0  0  0  0  0  0  0
  185.9990  178.0030  140.3550 C   0  0  1  0  0  3  0  0  0  0  0  0
  185.4490  178.8570  146.9680 C   0  0  0  0  0  2  0  0  0  0  0  0
  185.3400  179.8220  145.7960 C   0  0  0  0  0  2  0  0  0  0  0  0
  183.9580  177.9380  141.8970 C   0  0  0  0  0  0  0  0  0  0  0  0
  185.7170  177.7620  144.2610 C   0  0  1  0  0  3  0  0  0  0  0  0
  183.2470  178.5780  142.8490 C   0  0  0  0  0  0  0  0  0  0  0  0
  185.3160  179.0650  139.5100 C   0  0  0  0  0  1  0  0  0  0  0  0
  186.6100  177.8850  146.7620 C   0  0  0  0  0  2  0  0  0  0  0  0
  187.7680  177.5990  142.6740 C   0  0  2  0  0  3  0  0  0  0  0  0
  187.9200  176.8360  145.0030 C   0  0  0  0  0  3  0  0  0  0  0  0
  183.8350  179.3390  143.9650 C   0  0  0  0  0  3  0  0  0  0  0  0
  187.4960  178.2530  140.2920 C   0  0  0  0  0  2  0  0  0  0  0  0
  188.2010  177.3040  141.2360 C   0  0  1  0  0  3  0  0  0  0  0  0
  183.2640  177.2380  140.9100 O   0  0  0  0  0  1  0  0  0  0  0  0
  185.4460  177.9810  141.7740 C   0  0  0  0  0  0  0  0  0  0  0  0
  188.2170  176.4620  143.5880 C   0  0  0  0  0  2  0  0  0  0  0  0
  191.6920  177.2810  139.7080 C   0  0  0  0  0  0  0  0  0  0  0  0
  192.4690  177.6350  140.8150 C   0  0  0  0  0  3  0  0  0  0  0  0
  189.6870  177.4150  141.0710 C   0  0  0  0  0  0  0  0  0  0  0  0
  191.8580  177.8780  142.0490 C   0  0  0  0  0  3  0  0  0  0  0  0
  190.3040  177.1710  139.8350 C   0  0  0  0  0  3  0  0  0  0  0  0
  190.4700  177.7690  142.1760 C   0  0  0  0  0  3  0  0  0  0  0  0
  192.2840  177.0450  138.5130 F   0  0  0  0  0  0  0  0  0  0  0  0
  181.7510  178.5670  142.7870 C   0  0  0  0  0  2  0  0  0  0  0  0
  179.2650  180.1270  143.5480 C   0  0  0  0  0  1  0  0  0  0  0  0
  181.2230  179.7550  141.9800 C   0  0  2  0  0  3  0  0  0  0  0  0
  179.6990  179.9000  142.1110 C   0  0  1  0  0  3  0  0  0  0  0  0
  179.6440  178.1150  140.2720 C   0  0  0  0  0  2  0  0  0  0  0  0
  180.5320  179.1390  139.5710 C   0  0  0  0  0  2  0  0  0  0  0  0
  181.6470  179.6330  140.5040 C   0  0  0  0  0  2  0  0  0  0  0  0
  178.9310  178.7270  141.4860 C   0  0  0  0  0  2  0  0  0  0  0  0
  1 11  1  0  0  0  0
  2  6  1  0  0  0  0
  4 10  1  6  0  0  0
  4 18  1  0  0  0  0
  6  5  1  0  0  0  0
  7  9  2  0  0  0  0
  8  3  1  6  0  0  0
  8  2  1  0  0  0  0
  8  1  1  0  0  0  0
  9 14  1  0  0  0  0
 11  5  1  0  0  0  0
 12  3  1  0  0  0  0
 12 19  1  1  0  0  0
 13  1  2  0  0  0  0
 14  2  2  0  0  0  0
 15  4  1  0  0  0  0
 15 16  1  0  0  0  0
 16 22  1  1  0  0  0
 16 12  1  0  0  0  0
 17  7  1  0  0  0  0
 18  7  1  0  0  0  0
 18  3  2  0  0  0  0
 19 13  1  0  0  0  0
 20 24  2  0  0  0  0
 20 21  1  0  0  0  0
 21 23  2  0  0  0  0
 22 25  2  0  0  0  0
 23 25  1  0  0  0  0
 24 22  1  0  0  0  0
 26 20  1  0  0  0  0
 27  9  1  0  0  0  0
 29 30  1  0  0  0  0
 29 27  1  1  0  0  0
 30 28  1  1  0  0  0
 31 34  1  0  0  0  0
 32 31  1  0  0  0  0
 32 33  1  0  0  0  0
 33 29  1  0  0  0  0
 34 30  1  0  0  0  0
M  END
>  <MODEL>
6

>  <REMARK>
 VINA RESULT:      -7.0      2.525      5.283
  Name = 
  3 active torsions:
  status: ('A' for Active; 'I' for Inactive)
    1  A    between atoms: C_3  and  C_13
    2  A    between atoms: C_3  and  C_17
    3  A    between atoms: C_12  and  C_28
                            x       y       z     vdW  Elec       q    Type
                         _______ _______ _______ _____ _____    ______ ____

>  <TORSDO>
F 3

$$$$
=
 OpenBabel10252415033D

 34 39  0  0  1  0  0  0  0  0999 V2000
  186.9240  177.7740  138.3880 C   0  0  0  0  0  0  0  0  0  0  0  0
  188.2460  178.6280  140.3510 C   0  0  0  0  0  0  0  0  0  0  0  0
  185.8020  178.2020  140.6510 C   0  0  0  0  0  0  0  0  0  0  0  0
  184.4630  178.5680  142.7430 C   0  0  1  0  0  3  0  0  0  0  0  0
  189.3830  178.3850  138.2130 C   0  0  0  0  0  2  0  0  0  0  0  0
  189.0560  179.3610  139.3330 C   0  0  0  0  0  2  0  0  0  0  0  0
  186.8090  177.5510  142.8450 C   0  0  0  0  0  0  0  0  0  0  0  0
  187.0700  177.7940  139.9150 C   0  0  1  0  0  3  0  0  0  0  0  0
  188.1310  177.7560  142.6770 C   0  0  0  0  0  0  0  0  0  0  0  0
  184.7700  179.3770  143.9930 C   0  0  0  0  0  1  0  0  0  0  0  0
  188.1120  177.9620  137.4750 C   0  0  0  0  0  2  0  0  0  0  0  0
  184.6050  178.6110  139.8020 C   0  0  2  0  0  3  0  0  0  0  0  0
  185.7190  177.7030  137.8110 C   0  0  0  0  0  3  0  0  0  0  0  0
  188.7250  178.5510  141.5880 C   0  0  0  0  0  3  0  0  0  0  0  0
  183.5010  179.3780  141.8920 C   0  0  0  0  0  2  0  0  0  0  0  0
  183.2840  178.6710  140.5720 C   0  0  1  0  0  3  0  0  0  0  0  0
  186.3920  176.7560  143.9130 O   0  0  0  0  0  1  0  0  0  0  0  0
  185.7390  178.1750  142.0100 C   0  0  0  0  0  0  0  0  0  0  0  0
  184.4750  177.6360  138.6350 C   0  0  0  0  0  2  0  0  0  0  0  0
  181.4550  181.1790  138.3630 C   0  0  0  0  0  0  0  0  0  0  0  0
  180.1770  180.6120  138.3190 C   0  0  0  0  0  3  0  0  0  0  0  0
  182.2130  179.3610  139.7820 C   0  0  0  0  0  0  0  0  0  0  0  0
  179.9170  179.4230  139.0050 C   0  0  0  0  0  3  0  0  0  0  0  0
  182.4710  180.5560  139.0930 C   0  0  0  0  0  3  0  0  0  0  0  0
  180.9330  178.7980  139.7350 C   0  0  0  0  0  3  0  0  0  0  0  0
  181.7080  182.3320  137.6990 F   0  0  0  0  0  0  0  0  0  0  0  0
  189.1000  177.1800  143.6630 C   0  0  0  0  0  2  0  0  0  0  0  0
  191.6830  178.7680  143.5940 C   0  0  0  0  0  1  0  0  0  0  0  0
  189.4840  178.2100  144.7270 C   0  0  2  0  0  3  0  0  0  0  0  0
  191.0080  178.3310  144.8810 C   0  0  1  0  0  3  0  0  0  0  0  0
  190.7430  176.2780  146.3930 C   0  0  0  0  0  2  0  0  0  0  0  0
  189.7500  177.2030  147.0880 C   0  0  0  0  0  2  0  0  0  0  0  0
  188.8120  177.8710  146.0720 C   0  0  0  0  0  2  0  0  0  0  0  0
  191.6560  177.0520  145.4310 C   0  0  0  0  0  2  0  0  0  0  0  0
  2 14  2  0  0  0  0
  3 18  2  0  0  0  0
  4 10  1  1  0  0  0
  5  6  1  0  0  0  0
  6  2  1  0  0  0  0
  7 17  1  0  0  0  0
  8  1  1  6  0  0  0
  8  2  1  0  0  0  0
  8  3  1  0  0  0  0
  9  7  2  0  0  0  0
  9 27  1  0  0  0  0
 11  5  1  0  0  0  0
 11  1  1  0  0  0  0
 12 19  1  6  0  0  0
 12 16  1  0  0  0  0
 12  3  1  0  0  0  0
 13  1  2  0  0  0  0
 13 19  1  0  0  0  0
 14  9  1  0  0  0  0
 15  4  1  0  0  0  0
 16 22  1  6  0  0  0
 16 15  1  0  0  0  0
 18  4  1  0  0  0  0
 18  7  1  0  0  0  0
 20 24  1  0  0  0  0
 21 20  2  0  0  0  0
 21 23  1  0  0  0  0
 23 25  2  0  0  0  0
 24 22  2  0  0  0  0
 25 22  1  0  0  0  0
 26 20  1  0  0  0  0
 29 27  1  6  0  0  0
 29 30  1  0  0  0  0
 29 33  1  0  0  0  0
 30 28  1  6  0  0  0
 30 34  1  0  0  0  0
 31 32  1  0  0  0  0
 33 32  1  0  0  0  0
 34 31  1  0  0  0  0
M  END
>  <MODEL>
7

>  <REMARK>
 VINA RESULT:      -7.0      2.863      8.129
  Name = 
  3 active torsions:
  status: ('A' for Active; 'I' for Inactive)
    1  A    between atoms: C_3  and  C_13
    2  A    between atoms: C_3  and  C_17
    3  A    between atoms: C_12  and  C_28
                            x       y       z     vdW  Elec       q    Type
                         _______ _______ _______ _____ _____    ______ ____

>  <TORSDO>
F 3

$$$$
=
 OpenBabel10252415033D

 34 39  0  0  1  0  0  0  0  0999 V2000
  187.3070  178.3530  143.7030 C   0  0  0  0  0  0  0  0  0  0  0  0
  188.5230  176.8780  142.0680 C   0  0  0  0  0  0  0  0  0  0  0  0
  186.6450  178.2960  141.2290 C   0  0  0  0  0  0  0  0  0  0  0  0
  185.7820  178.3990  138.8740 C   0  0  1  0  0  3  0  0  0  0  0  0
  189.1460  176.7540  144.4180 C   0  0  0  0  0  2  0  0  0  0  0  0
  188.6830  175.9390  143.2180 C   0  0  0  0  0  2  0  0  0  0  0  0
  188.2930  178.2930  139.3500 C   0  0  0  0  0  0  0  0  0  0  0  0
  187.7640  178.1660  142.2510 C   0  0  1  0  0  3  0  0  0  0  0  0
  189.3200  177.5490  139.8100 C   0  0  0  0  0  0  0  0  0  0  0  0
  185.9740  177.4530  137.7000 C   0  0  0  0  0  1  0  0  0  0  0  0
  188.0580  177.7340  144.8570 C   0  0  0  0  0  2  0  0  0  0  0  0
  185.2340  178.5040  141.7640 C   0  0  2  0  0  3  0  0  0  0  0  0
  186.1590  178.9780  143.9900 C   0  0  0  0  0  3  0  0  0  0  0  0
  189.2490  176.6530  140.9780 C   0  0  0  0  0  3  0  0  0  0  0  0
  184.4000  178.1460  139.4510 C   0  0  0  0  0  2  0  0  0  0  0  0
  184.2270  178.9670  140.7100 C   0  0  1  0  0  3  0  0  0  0  0  0
  188.5140  179.1130  138.2430 O   0  0  0  0  0  1  0  0  0  0  0  0
  186.9030  178.2530  139.8940 C   0  0  0  0  0  0  0  0  0  0  0  0
  185.2870  179.5180  142.9040 C   0  0  0  0  0  2  0  0  0  0  0  0
  181.2070  178.6960  143.0180 C   0  0  0  0  0  0  0  0  0  0  0  0
  180.1630  178.6720  142.0880 C   0  0  0  0  0  3  0  0  0  0  0  0
  182.8160  178.8640  141.2080 C   0  0  0  0  0  0  0  0  0  0  0  0
  180.4440  178.7420  140.7210 C   0  0  0  0  0  3  0  0  0  0  0  0
  182.5310  178.7920  142.5800 C   0  0  0  0  0  3  0  0  0  0  0  0
  181.7680  178.8390  140.2820 C   0  0  0  0  0  3  0  0  0  0  0  0
  180.9360  178.6270  144.3440 F   0  0  0  0  0  0  0  0  0  0  0  0
  190.6350  177.5800  139.0940 C   0  0  0  0  0  2  0  0  0  0  0  0
  193.5410  177.1280  139.8330 C   0  0  0  0  0  1  0  0  0  0  0  0
  191.2980  176.2010  139.0970 C   0  0  2  0  0  3  0  0  0  0  0  0
  192.8030  176.2910  138.8030 C   0  0  1  0  0  3  0  0  0  0  0  0
  192.0430  176.3610  136.3560 C   0  0  0  0  0  2  0  0  0  0  0  0
  191.3420  175.0730  136.7770 C   0  0  0  0  0  2  0  0  0  0  0  0
  190.5900  175.2610  138.1020 C   0  0  0  0  0  2  0  0  0  0  0  0
  193.1060  176.7840  137.3800 C   0  0  0  0  0  2  0  0  0  0  0  0
  1 13  2  0  0  0  0
  1 11  1  0  0  0  0
  2  8  1  0  0  0  0
  2  6  1  0  0  0  0
  3 12  1  0  0  0  0
  4 10  1  6  0  0  0
  4 15  1  0  0  0  0
  4 18  1  0  0  0  0
  5 11  1  0  0  0  0
  6  5  1  0  0  0  0
  7  9  2  0  0  0  0
  7 18  1  0  0  0  0
  8  3  1  6  0  0  0
  8  1  1  0  0  0  0
  9 14  1  0  0  0  0
 12 19  1  1  0  0  0
 14  2  2  0  0  0  0
 15 16  1  0  0  0  0
 16 22  1  1  0  0  0
 16 12  1  0  0  0  0
 17  7  1  0  0  0  0
 18  3  2  0  0  0  0
 19 13  1  0  0  0  0
 20 26  1  0  0  0  0
 21 20  2  0  0  0  0
 22 24  2  0  0  0  0
 23 21  1  0  0  0  0
 24 20  1  0  0  0  0
 25 23  2  0  0  0  0
 25 22  1  0  0  0  0
 27  9  1  0  0  0  0
 29 27  1  6  0  0  0
 30 29  1  0  0  0  0
 30 28  1  1  0  0  0
 31 32  1  0  0  0  0
 31 34  1  0  0  0  0
 32 33  1  0  0  0  0
 33 29  1  0  0  0  0
 34 30  1  0  0  0  0
M  END
>  <MODEL>
8

>  <REMARK>
 VINA RESULT:      -6.9      2.961      8.231
  Name = 
  3 active torsions:
  status: ('A' for Active; 'I' for Inactive)
    1  A    between atoms: C_3  and  C_13
    2  A    between atoms: C_3  and  C_17
    3  A    between atoms: C_12  and  C_28
                            x       y       z     vdW  Elec       q    Type
                         _______ _______ _______ _____ _____    ______ ____

>  <TORSDO>
F 3

$$$$
=
 OpenBabel10252415033D

 34 39  0  0  1  0  0  0  0  0999 V2000
  187.3780  177.7790  137.2370 C   0  0  0  0  0  0  0  0  0  0  0  0
  185.0170  177.0270  137.6670 C   0  0  0  0  0  0  0  0  0  0  0  0
  186.2290  178.2520  139.4770 C   0  0  0  0  0  0  0  0  0  0  0  0
  185.3460  178.8090  141.7600 C   0  0  1  0  0  3  0  0  0  0  0  0
  186.0570  176.4080  135.5560 C   0  0  0  0  0  2  0  0  0  0  0  0
  185.3550  175.8650  136.7920 C   0  0  0  0  0  2  0  0  0  0  0  0
  183.8650  179.0370  139.6870 C   0  0  0  0  0  0  0  0  0  0  0  0
  186.0650  178.0640  137.9760 C   0  0  1  0  0  3  0  0  0  0  0  0
  183.2130  178.3970  138.6950 C   0  0  0  0  0  0  0  0  0  0  0  0
  184.1620  178.2530  142.5330 C   0  0  0  0  0  1  0  0  0  0  0  0
  187.4050  177.0270  135.9280 C   0  0  0  0  0  2  0  0  0  0  0  0
  187.6250  178.0550  140.0540 C   0  0  2  0  0  3  0  0  0  0  0  0
  188.5590  178.0900  137.7830 C   0  0  0  0  0  3  0  0  0  0  0  0
  183.7370  177.2300  137.9630 C   0  0  0  0  0  3  0  0  0  0  0  0
  186.6060  178.1690  142.3180 C   0  0  0  0  0  2  0  0  0  0  0  0
  187.7930  178.5880  141.4790 C   0  0  1  0  0  3  0  0  0  0  0  0
  183.2530  180.1440  140.2750 O   0  0  0  0  0  1  0  0  0  0  0  0
  185.1750  178.6060  140.2610 C   0  0  0  0  0  0  0  0  0  0  0  0
  188.6370  178.7280  139.1320 C   0  0  0  0  0  2  0  0  0  0  0  0
  191.0610  178.4890  143.4360 C   0  0  0  0  0  0  0  0  0  0  0  0
  191.4420  177.1570  143.2490 C   0  0  0  0  0  3  0  0  0  0  0  0
  189.0680  178.1060  142.1040 C   0  0  0  0  0  0  0  0  0  0  0  0
  190.6390  176.3000  142.4910 C   0  0  0  0  0  3  0  0  0  0  0  0
  189.8770  178.9640  142.8640 C   0  0  0  0  0  3  0  0  0  0  0  0
  189.4540  176.7740  141.9200 C   0  0  0  0  0  3  0  0  0  0  0  0
  191.8390  179.3200  144.1700 F   0  0  0  0  0  0  0  0  0  0  0  0
  181.8430  178.8500  138.2970 C   0  0  0  0  0  2  0  0  0  0  0  0
  181.2880  181.8180  138.0210 C   0  0  0  0  0  1  0  0  0  0  0  0
  181.8730  179.5920  136.9590 C   0  0  2  0  0  3  0  0  0  0  0  0
  180.9250  180.8010  136.9550 C   0  0  1  0  0  3  0  0  0  0  0  0
  179.1360  179.0510  136.3990 C   0  0  0  0  0  2  0  0  0  0  0  0
  180.1150  178.7440  135.2700 C   0  0  0  0  0  2  0  0  0  0  0  0
  181.5510  178.6270  135.8010 C   0  0  0  0  0  2  0  0  0  0  0  0
  179.4460  180.4010  137.0610 C   0  0  0  0  0  2  0  0  0  0  0  0
  1 13  2  0  0  0  0
  2 14  2  0  0  0  0
  2  8  1  0  0  0  0
  3 12  1  0  0  0  0
  3 18  2  0  0  0  0
  4 15  1  0  0  0  0
  4 10  1  1  0  0  0
  5 11  1  0  0  0  0
  5  6  1  0  0  0  0
  6  2  1  0  0  0  0
  7 18  1  0  0  0  0
  7 17  1  0  0  0  0
  8  1  1  1  0  0  0
  8  3  1  0  0  0  0
  9  7  2  0  0  0  0
 11  1  1  0  0  0  0
 12 19  1  6  0  0  0
 12 16  1  0  0  0  0
 13 19  1  0  0  0  0
 14  9  1  0  0  0  0
 16 22  1  1  0  0  0
 16 15  1  0  0  0  0
 18  4  1  0  0  0  0
 20 26  1  0  0  0  0
 21 20  1  0  0  0  0
 22 24  1  0  0  0  0
 23 21  2  0  0  0  0
 24 20  2  0  0  0  0
 25 22  2  0  0  0  0
 25 23  1  0  0  0  0
 27  9  1  0  0  0  0
 29 27  1  1  0  0  0
 30 29  1  0  0  0  0
 30 34  1  0  0  0  0
 30 28  1  1  0  0  0
 31 34  1  0  0  0  0
 32 33  1  0  0  0  0
 32 31  1  0  0  0  0
 33 29  1  0  0  0  0
M  END
>  <MODEL>
9

>  <REMARK>
 VINA RESULT:      -6.7      1.095      1.764
  Name = 
  3 active torsions:
  status: ('A' for Active; 'I' for Inactive)
    1  A    between atoms: C_3  and  C_13
    2  A    between atoms: C_3  and  C_17
    3  A    between atoms: C_12  and  C_28
                            x       y       z     vdW  Elec       q    Type
                         _______ _______ _______ _____ _____    ______ ____

>  <TORSDO>
F 3

$$$$
