=
 OpenBabel10262421373D

 32 37  0  0  1  0  0  0  0  0999 V2000
  185.7670  177.6480  138.3400 N   0  0  0  0  0  0  0  0  0  0  0  0
  188.1850  178.2010  142.8110 C   0  0  0  0  0  0  0  0  0  0  0  0
  184.3360  178.8900  145.7260 N   0  0  0  0  0  2  0  0  0  0  0  0
  184.9250  178.0280  146.7440 C   0  0  0  0  0  2  0  0  0  0  0  0
  190.5080  177.9960  143.8260 C   0  0  2  0  0  3  0  0  0  0  0  0
  191.1530  177.0350  144.8420 C   0  0  1  0  0  3  0  0  0  0  0  0
  187.9460  178.3320  140.3820 C   0  0  0  0  0  0  0  0  0  0  0  0
  185.9830  178.4260  141.8170 C   0  0  0  0  0  3  0  0  0  0  0  0
  185.5760  178.6320  139.4000 C   0  0  0  0  0  2  0  0  0  0  0  0
  184.7090  178.3560  144.4190 C   0  0  0  0  0  2  0  0  0  0  0  0
  186.7850  178.3110  142.9610 C   0  0  0  0  0  0  0  0  0  0  0  0
  186.2110  178.3130  144.2470 C   0  0  0  0  0  0  0  0  0  0  0  0
  188.4280  178.0660  145.2280 C   0  0  0  0  0  0  0  0  0  0  0  0
  187.9100  178.6410  137.8220 C   0  0  0  0  0  2  0  0  0  0  0  0
  186.5350  178.4260  140.5340 C   0  0  0  0  0  0  0  0  0  0  0  0
  188.6890  178.2500  139.0680 C   0  0  0  0  0  2  0  0  0  0  0  0
  186.8210  177.6480  137.5840 C   0  0  0  0  0  0  0  0  0  0  0  0
  186.4360  178.2310  146.7700 C   0  0  0  0  0  2  0  0  0  0  0  0
  187.0350  178.1750  145.3850 C   0  0  0  0  0  0  0  0  0  0  0  0
  189.3380  177.9450  146.4130 C   0  0  0  0  0  2  0  0  0  0  0  0
  188.7410  178.2100  141.5250 C   0  0  0  0  0  3  0  0  0  0  0  0
  191.1220  179.3780  143.9600 C   0  0  0  0  0  1  0  0  0  0  0  0
  189.0050  178.0770  143.9480 C   0  0  0  0  0  0  0  0  0  0  0  0
  190.3660  176.8420  146.1590 C   0  0  2  0  0  3  0  0  0  0  0  0
  191.3330  176.7460  147.3280 C   0  0  0  0  0  2  0  0  0  0  0  0
  192.0730  175.4230  147.2970 C   0  0  0  0  0  1  0  0  0  0  0  0
  190.6150  175.2860  143.1930 C   0  0  0  0  0  2  0  0  0  0  0  0
  191.3960  175.7140  144.1820 C   0  0  0  0  0  3  0  0  0  0  0  0
  186.9770  176.7010  136.5710 O   0  0  0  0  0  0  0  0  0  0  0  0
  187.2500  175.3340  136.8450 C   0  0  1  0  0  3  0  0  0  0  0  0
  188.2300  174.8140  135.8690 C   0  0  0  0  0  2  0  0  0  0  0  0
  188.6110  175.1920  137.1690 O   0  0  0  0  0  0  0  0  0  0  0  0
  1  9  1  0  0  0  0
  2 11  1  0  0  0  0
  2 23  1  0  0  0  0
  3  4  1  0  0  0  0
  4 18  1  0  0  0  0
  5 23  1  0  0  0  0
  5 22  1  1  0  0  0
  5  6  1  0  0  0  0
  6 28  1  6  0  0  0
  6 24  1  0  0  0  0
  7 15  2  0  0  0  0
  7 21  1  0  0  0  0
  8 11  2  0  0  0  0
  9 15  1  0  0  0  0
 10  3  1  0  0  0  0
 11 12  1  0  0  0  0
 12 10  1  0  0  0  0
 12 19  2  0  0  0  0
 13 19  1  0  0  0  0
 13 20  1  0  0  0  0
 14 16  1  0  0  0  0
 15  8  1  0  0  0  0
 16  7  1  0  0  0  0
 17 14  1  0  0  0  0
 17  1  2  0  0  0  0
 19 18  1  0  0  0  0
 21  2  2  0  0  0  0
 23 13  2  0  0  0  0
 24 20  1  0  0  0  0
 24 25  1  1  0  0  0
 26 25  1  0  0  0  0
 27 28  2  0  0  0  0
 29 17  1  0  0  0  0
 30 29  1  6  0  0  0
 30 32  1  0  0  0  0
 31 30  1  0  0  0  0
 31 32  1  0  0  0  0
M  END
>  <MODEL>
1

>  <REMARK>
 VINA RESULT:     -10.1      0.000      0.000
  Name = 
  4 active torsions:
  status: ('A' for Active; 'I' for Inactive)
    1  A    between atoms: C_1  and  O_10
    2  A    between atoms: C_7  and  C_22
    3  A    between atoms: O_10  and  C_24
    4  A    between atoms: C_11  and  C_32
                            x       y       z     vdW  Elec       q    Type
                         _______ _______ _______ _____ _____    ______ ____

>  <TORSDO>
F 4

$$$$
=
 OpenBabel10262421373D

 32 37  0  0  1  0  0  0  0  0999 V2000
  187.4320  176.9820  137.3390 N   0  0  0  0  0  0  0  0  0  0  0  0
  188.4600  178.0560  142.2310 C   0  0  0  0  0  0  0  0  0  0  0  0
  183.9460  179.0260  143.8050 N   0  0  0  0  0  2  0  0  0  0  0  0
  184.1940  178.2890  145.0380 C   0  0  0  0  0  2  0  0  0  0  0  0
  190.3820  177.9880  143.8950 C   0  0  2  0  0  3  0  0  0  0  0  0
  190.6810  177.1540  145.1540 C   0  0  1  0  0  3  0  0  0  0  0  0
  188.9400  177.9120  139.8390 C   0  0  0  0  0  0  0  0  0  0  0  0
  186.6470  178.1460  140.6210 C   0  0  0  0  0  3  0  0  0  0  0  0
  186.9640  178.0770  138.1820 C   0  0  0  0  0  2  0  0  0  0  0  0
  184.6710  178.3530  142.7300 C   0  0  0  0  0  2  0  0  0  0  0  0
  187.0790  178.1670  141.9540 C   0  0  0  0  0  0  0  0  0  0  0  0
  186.1560  178.3060  143.0090 C   0  0  0  0  0  0  0  0  0  0  0  0
  187.9860  178.1930  144.6140 C   0  0  0  0  0  0  0  0  0  0  0  0
  189.6560  177.9340  137.3620 C   0  0  0  0  0  2  0  0  0  0  0  0
  187.5480  178.0080  139.5630 C   0  0  0  0  0  0  0  0  0  0  0  0
  190.0300  177.6920  138.8160 C   0  0  0  0  0  2  0  0  0  0  0  0
  188.6610  176.9090  136.9280 C   0  0  0  0  0  0  0  0  0  0  0  0
  185.6360  178.5090  145.4810 C   0  0  0  0  0  2  0  0  0  0  0  0
  186.6110  178.3050  144.3460 C   0  0  0  0  0  0  0  0  0  0  0  0
  188.5090  178.2150  146.0190 C   0  0  0  0  0  2  0  0  0  0  0  0
  189.3650  177.9260  141.1710 C   0  0  0  0  0  3  0  0  0  0  0  0
  190.9610  179.3830  144.0500 C   0  0  0  0  0  1  0  0  0  0  0  0
  188.9100  178.0680  143.5640 C   0  0  0  0  0  0  0  0  0  0  0  0
  189.5420  177.1010  146.1980 C   0  0  2  0  0  3  0  0  0  0  0  0
  190.1240  177.1460  147.6010 C   0  0  0  0  0  2  0  0  0  0  0  0
  189.3260  178.0920  148.4760 C   0  0  0  0  0  1  0  0  0  0  0  0
  191.1980  175.4440  143.4580 C   0  0  0  0  0  2  0  0  0  0  0  0
  191.0760  175.7700  144.7420 C   0  0  0  0  0  3  0  0  0  0  0  0
  189.0830  175.8560  136.1140 O   0  0  0  0  0  0  0  0  0  0  0  0
  189.0920  174.5080  136.5610 C   0  0  1  0  0  3  0  0  0  0  0  0
  190.4030  173.8930  136.2690 C   0  0  0  0  0  2  0  0  0  0  0  0
  190.0750  174.3580  137.5550 O   0  0  0  0  0  0  0  0  0  0  0  0
  1  9  1  0  0  0  0
  2 23  1  0  0  0  0
  3  4  1  0  0  0  0
  4 18  1  0  0  0  0
  5 22  1  1  0  0  0
  5  6  1  0  0  0  0
  6 28  1  6  0  0  0
  6 24  1  0  0  0  0
  7 21  1  0  0  0  0
  8 11  2  0  0  0  0
  9 15  1  0  0  0  0
 10 12  1  0  0  0  0
 10  3  1  0  0  0  0
 11  2  1  0  0  0  0
 11 12  1  0  0  0  0
 12 19  2  0  0  0  0
 13 20  1  0  0  0  0
 14 16  1  0  0  0  0
 15  7  2  0  0  0  0
 15  8  1  0  0  0  0
 16  7  1  0  0  0  0
 17  1  2  0  0  0  0
 17 14  1  0  0  0  0
 19 13  1  0  0  0  0
 19 18  1  0  0  0  0
 20 24  1  0  0  0  0
 21  2  2  0  0  0  0
 23  5  1  0  0  0  0
 23 13  2  0  0  0  0
 24 25  1  1  0  0  0
 25 26  1  0  0  0  0
 27 28  2  0  0  0  0
 29 17  1  0  0  0  0
 30 29  1  6  0  0  0
 30 32  1  0  0  0  0
 31 30  1  0  0  0  0
 31 32  1  0  0  0  0
M  END
>  <MODEL>
2

>  <REMARK>
 VINA RESULT:      -9.3      1.247      1.591
  Name = 
  4 active torsions:
  status: ('A' for Active; 'I' for Inactive)
    1  A    between atoms: C_1  and  O_10
    2  A    between atoms: C_7  and  C_22
    3  A    between atoms: O_10  and  C_24
    4  A    between atoms: C_11  and  C_32
                            x       y       z     vdW  Elec       q    Type
                         _______ _______ _______ _____ _____    ______ ____

>  <TORSDO>
F 4

$$$$
=
 OpenBabel10262421373D

 32 37  0  0  1  0  0  0  0  0999 V2000
  190.3960  175.8330  137.4940 N   0  0  0  0  0  0  0  0  0  0  0  0
  189.9090  177.6170  142.2610 C   0  0  0  0  0  0  0  0  0  0  0  0
  185.1480  178.6720  142.2390 N   0  0  0  0  0  2  0  0  0  0  0  0
  184.9970  178.1250  143.5820 C   0  0  0  0  0  2  0  0  0  0  0  0
  191.2350  177.8410  144.4190 C   0  0  2  0  0  3  0  0  0  0  0  0
  191.1250  177.2020  145.8160 C   0  0  1  0  0  3  0  0  0  0  0  0
  191.0890  177.1490  140.1720 C   0  0  0  0  0  0  0  0  0  0  0  0
  188.6720  177.4270  140.1820 C   0  0  0  0  0  3  0  0  0  0  0  0
  189.7120  177.0220  137.9900 C   0  0  0  0  0  2  0  0  0  0  0  0
  186.1530  177.8750  141.5420 C   0  0  0  0  0  2  0  0  0  0  0  0
  188.6800  177.6490  141.5660 C   0  0  0  0  0  0  0  0  0  0  0  0
  187.4830  177.9100  142.2610 C   0  0  0  0  0  0  0  0  0  0  0  0
  188.7380  178.0780  144.3430 C   0  0  0  0  0  0  0  0  0  0  0  0
  192.5230  176.8400  138.0510 C   0  0  0  0  0  2  0  0  0  0  0  0
  189.8490  177.1660  139.4770 C   0  0  0  0  0  0  0  0  0  0  0  0
  192.4360  176.8170  139.5690 C   0  0  0  0  0  2  0  0  0  0  0  0
  191.6910  175.7360  137.4890 C   0  0  0  0  0  0  0  0  0  0  0  0
  186.2410  178.4470  144.4040 C   0  0  0  0  0  2  0  0  0  0  0  0
  187.5110  178.1110  143.6580 C   0  0  0  0  0  0  0  0  0  0  0  0
  188.8110  178.3130  145.8210 C   0  0  0  0  0  2  0  0  0  0  0  0
  191.0910  177.3640  141.5530 C   0  0  0  0  0  3  0  0  0  0  0  0
  191.7630  179.2590  144.5400 C   0  0  0  0  0  1  0  0  0  0  0  0
  189.9350  177.8310  143.6510 C   0  0  0  0  0  0  0  0  0  0  0  0
  189.7220  177.2650  146.4620 C   0  0  2  0  0  3  0  0  0  0  0  0
  189.8530  177.5250  147.9540 C   0  0  0  0  0  2  0  0  0  0  0  0
  188.5900  178.1700  148.4920 C   0  0  0  0  0  1  0  0  0  0  0  0
  192.4380  175.2960  146.6590 C   0  0  0  0  0  2  0  0  0  0  0  0
  191.6030  175.7850  145.7460 C   0  0  0  0  0  3  0  0  0  0  0  0
  192.3220  174.5910  137.0000 O   0  0  0  0  0  0  0  0  0  0  0  0
  193.6630  174.2620  137.3380 C   0  0  1  0  0  3  0  0  0  0  0  0
  194.1180  173.1200  136.5180 C   0  0  0  0  0  2  0  0  0  0  0  0
  194.4800  174.4430  136.2080 O   0  0  0  0  0  0  0  0  0  0  0  0
  1  9  1  0  0  0  0
  2 23  1  0  0  0  0
  3  4  1  0  0  0  0
  4 18  1  0  0  0  0
  5 22  1  1  0  0  0
  5  6  1  0  0  0  0
  6 28  1  6  0  0  0
  6 24  1  0  0  0  0
  7 21  1  0  0  0  0
  8 11  2  0  0  0  0
  9 15  1  0  0  0  0
 10  3  1  0  0  0  0
 10 12  1  0  0  0  0
 11  2  1  0  0  0  0
 11 12  1  0  0  0  0
 12 19  2  0  0  0  0
 13 20  1  0  0  0  0
 14 16  1  0  0  0  0
 15  7  2  0  0  0  0
 15  8  1  0  0  0  0
 16  7  1  0  0  0  0
 17  1  2  0  0  0  0
 17 14  1  0  0  0  0
 19 13  1  0  0  0  0
 19 18  1  0  0  0  0
 20 24  1  0  0  0  0
 21  2  2  0  0  0  0
 23 13  2  0  0  0  0
 23  5  1  0  0  0  0
 24 25  1  1  0  0  0
 25 26  1  0  0  0  0
 28 27  2  0  0  0  0
 29 17  1  0  0  0  0
 30 29  1  6  0  0  0
 31 30  1  0  0  0  0
 32 31  1  0  0  0  0
 32 30  1  0  0  0  0
M  END
>  <MODEL>
3

>  <REMARK>
 VINA RESULT:      -8.5      2.798      3.592
  Name = 
  4 active torsions:
  status: ('A' for Active; 'I' for Inactive)
    1  A    between atoms: C_1  and  O_10
    2  A    between atoms: C_7  and  C_22
    3  A    between atoms: O_10  and  C_24
    4  A    between atoms: C_11  and  C_32
                            x       y       z     vdW  Elec       q    Type
                         _______ _______ _______ _____ _____    ______ ____

>  <TORSDO>
F 4

$$$$
=
 OpenBabel10262421373D

 32 37  0  0  1  0  0  0  0  0999 V2000
  183.2940  178.5680  142.1200 N   0  0  0  0  0  0  0  0  0  0  0  0
  187.8990  177.9710  139.9800 C   0  0  0  0  0  0  0  0  0  0  0  0
  190.6880  178.3430  143.9630 N   0  0  0  0  0  2  0  0  0  0  0  0
  191.5270  177.2410  143.5060 C   0  0  0  0  0  2  0  0  0  0  0  0
  188.9660  177.3690  137.7520 C   0  0  2  0  0  3  0  0  0  0  0  0
  189.7850  176.1680  137.2440 C   0  0  1  0  0  3  0  0  0  0  0  0
  185.5450  178.6290  140.0430 C   0  0  0  0  0  0  0  0  0  0  0  0
  186.8630  178.5780  142.0890 C   0  0  0  0  0  3  0  0  0  0  0  0
  184.5280  179.3200  142.3150 C   0  0  0  0  0  2  0  0  0  0  0  0
  189.3190  178.0670  143.5390 C   0  0  0  0  0  2  0  0  0  0  0  0
  187.9950  178.1610  141.3770 C   0  0  0  0  0  0  0  0  0  0  0  0
  189.2200  177.9390  142.0350 C   0  0  0  0  0  0  0  0  0  0  0  0
  190.2400  177.3120  139.9130 C   0  0  0  0  0  0  0  0  0  0  0  0
  183.1130  179.4710  139.8830 C   0  0  0  0  0  2  0  0  0  0  0  0
  185.6410  178.8030  141.4510 C   0  0  0  0  0  0  0  0  0  0  0  0
  184.2850  178.7650  139.2190 C   0  0  0  0  0  2  0  0  0  0  0  0
  182.6110  178.6410  141.0180 C   0  0  0  0  0  0  0  0  0  0  0  0
  191.6750  177.3110  141.9890 C   0  0  0  0  0  2  0  0  0  0  0  0
  190.3440  177.4980  141.3020 C   0  0  0  0  0  0  0  0  0  0  0  0
  191.4170  176.8710  139.0960 C   0  0  0  0  0  2  0  0  0  0  0  0
  186.6760  178.2050  139.3380 C   0  0  0  0  0  3  0  0  0  0  0  0
  189.4250  178.6380  137.0550 C   0  0  0  0  0  1  0  0  0  0  0  0
  189.0240  177.5450  139.2500 C   0  0  0  0  0  0  0  0  0  0  0  0
  190.9860  175.7670  138.1310 C   0  0  2  0  0  3  0  0  0  0  0  0
  192.1560  175.3490  137.2550 C   0  0  0  0  0  2  0  0  0  0  0  0
  193.2680  176.3770  137.3310 C   0  0  0  0  0  1  0  0  0  0  0  0
  187.5580  175.1710  136.9060 C   0  0  0  0  0  2  0  0  0  0  0  0
  188.8690  174.9990  137.0480 C   0  0  0  0  0  3  0  0  0  0  0  0
  181.4270  177.9190  140.8590 O   0  0  0  0  0  0  0  0  0  0  0  0
  180.1730  178.4080  141.3120 C   0  0  1  0  0  3  0  0  0  0  0  0
  179.1010  177.4670  140.9270 C   0  0  0  0  0  2  0  0  0  0  0  0
  179.6270  177.4940  142.2310 O   0  0  0  0  0  0  0  0  0  0  0  0
  1  9  1  0  0  0  0
  2 11  1  0  0  0  0
  4  3  1  0  0  0  0
  5 22  1  6  0  0  0
  5 23  1  0  0  0  0
  6 28  1  1  0  0  0
  6  5  1  0  0  0  0
  6 24  1  0  0  0  0
  7 15  1  0  0  0  0
 10  3  1  0  0  0  0
 11 12  2  0  0  0  0
 11  8  1  0  0  0  0
 12 10  1  0  0  0  0
 13 19  2  0  0  0  0
 14 17  1  0  0  0  0
 15  8  2  0  0  0  0
 15  9  1  0  0  0  0
 16 14  1  0  0  0  0
 16  7  1  0  0  0  0
 17  1  2  0  0  0  0
 18  4  1  0  0  0  0
 19 18  1  0  0  0  0
 19 12  1  0  0  0  0
 20 13  1  0  0  0  0
 21  2  1  0  0  0  0
 21  7  2  0  0  0  0
 23 13  1  0  0  0  0
 23  2  2  0  0  0  0
 24 25  1  6  0  0  0
 24 20  1  0  0  0  0
 25 26  1  0  0  0  0
 27 28  2  0  0  0  0
 29 17  1  0  0  0  0
 30 29  1  6  0  0  0
 30 32  1  0  0  0  0
 31 30  1  0  0  0  0
 31 32  1  0  0  0  0
M  END
>  <MODEL>
4

>  <REMARK>
 VINA RESULT:      -8.0      3.505      6.505
  Name = 
  4 active torsions:
  status: ('A' for Active; 'I' for Inactive)
    1  A    between atoms: C_1  and  O_10
    2  A    between atoms: C_7  and  C_22
    3  A    between atoms: O_10  and  C_24
    4  A    between atoms: C_11  and  C_32
                            x       y       z     vdW  Elec       q    Type
                         _______ _______ _______ _____ _____    ______ ____

>  <TORSDO>
F 4

$$$$
