=
 OpenBabel10262420043D

 27 31  0  0  0  0  0  0  0  0999 V2000
  186.9110  177.8830  141.7410 N   0  0  0  0  0  2  0  0  0  0  0  0
  189.2370  177.4110  142.5470 C   0  0  0  0  0  0  0  0  0  0  0  0
  187.5830  176.5910  144.2680 C   0  0  0  0  0  2  0  0  0  0  0  0
  192.0170  177.0850  145.6440 N   0  0  0  0  0  0  0  0  0  0  0  0
  191.5260  176.8750  148.0860 C   0  0  0  0  0  1  0  0  0  0  0  0
  190.7020  177.3610  142.2180 C   0  0  0  0  0  3  0  0  0  0  0  0
  189.8300  177.0220  146.2390 N   0  0  0  0  0  0  0  0  0  0  0  0
  185.0340  179.1930  145.3990 C   0  0  0  0  0  3  0  0  0  0  0  0
  188.6370  176.9610  147.0690 C   0  0  0  0  0  1  0  0  0  0  0  0
  184.0670  179.4960  144.5360 C   0  0  0  0  0  3  0  0  0  0  0  0
  189.9210  177.1450  144.9040 C   0  0  0  0  0  0  0  0  0  0  0  0
  188.3280  177.6530  141.5510 C   0  0  0  0  0  0  0  0  0  0  0  0
  191.1180  176.9950  146.6580 C   0  0  0  0  0  0  0  0  0  0  0  0
  191.2310  177.1810  144.5540 C   0  0  0  0  0  0  0  0  0  0  0  0
  186.1120  177.9630  142.7650 C   0  0  0  0  0  0  0  0  0  0  0  0
  188.8630  177.1720  143.9300 N   0  0  0  0  0  0  0  0  0  0  0  0
  186.0880  178.1830  145.2450 C   0  0  0  0  0  2  0  0  0  0  0  0
  191.6500  177.2580  143.1590 C   0  0  0  0  0  3  0  0  0  0  0  0
  183.8320  178.9100  143.2120 C   0  0  0  0  0  3  0  0  0  0  0  0
  184.7090  178.2590  142.4520 C   0  0  0  0  0  3  0  0  0  0  0  0
  186.5420  177.6210  144.1250 C   0  0  0  0  0  0  0  0  0  0  0  0
  188.9450  179.6840  137.2290 N   0  0  0  0  0  2  0  0  0  0  0  0
  188.7500  177.7780  140.1310 C   0  0  0  0  0  0  0  0  0  0  0  0
  188.5840  178.9290  139.4030 N   0  0  0  0  0  0  0  0  0  0  0  0
  188.9950  178.7630  138.1320 C   0  0  0  0  0  0  0  0  0  0  0  0
  189.5280  177.2130  137.9090 S   0  0  0  0  0  0  0  0  0  0  0  0
  189.2520  176.6960  139.4650 N   0  0  0  0  0  2  0  0  0  0  0  0
  1 15  1  0  0  0  0
  2 16  1  0  0  0  0
  4 13  2  0  0  0  0
  6  2  1  0  0  0  0
  6 18  2  0  0  0  0
  7 13  1  0  0  0  0
  7  9  1  0  0  0  0
 10  8  2  0  0  0  0
 11  7  1  0  0  0  0
 12  1  1  0  0  0  0
 12  2  2  0  0  0  0
 13  5  1  0  0  0  0
 14 11  2  0  0  0  0
 14  4  1  0  0  0  0
 15 21  2  0  0  0  0
 16  3  1  0  0  0  0
 16 11  1  0  0  0  0
 17  8  1  0  0  0  0
 18 14  1  0  0  0  0
 19 10  1  0  0  0  0
 20 15  1  0  0  0  0
 20 19  2  0  0  0  0
 21  3  1  0  0  0  0
 21 17  1  0  0  0  0
 22 25  2  0  0  0  0
 23 12  1  0  0  0  0
 24 23  2  0  0  0  0
 25 24  1  0  0  0  0
 26 25  1  0  0  0  0
 26 27  1  0  0  0  0
 27 23  1  0  0  0  0
M  END
>  <MODEL>
1

>  <REMARK>
 VINA RESULT:     -10.5      0.000      0.000
  Name = 
  1 active torsions:
  status: ('A' for Active; 'I' for Inactive)
    1  A    between atoms: C_9  and  C_15
                            x       y       z     vdW  Elec       q    Type
                         _______ _______ _______ _____ _____    ______ ____

>  <TORSDO>
F 1

$$$$
=
 OpenBabel10262420043D

 27 31  0  0  0  0  0  0  0  0999 V2000
  186.8410  178.5000  138.9940 N   0  0  0  0  0  2  0  0  0  0  0  0
  186.0260  178.4890  141.3630 C   0  0  0  0  0  0  0  0  0  0  0  0
  188.5140  178.9080  141.3470 C   0  0  0  0  0  2  0  0  0  0  0  0
  186.6000  177.6110  145.4040 N   0  0  0  0  0  0  0  0  0  0  0  0
  188.7730  177.1250  146.5390 C   0  0  0  0  0  1  0  0  0  0  0  0
  184.8450  178.4980  142.2930 C   0  0  0  0  0  3  0  0  0  0  0  0
  188.4620  177.6970  144.1140 N   0  0  0  0  0  0  0  0  0  0  0  0
  190.5520  176.3360  139.4010 C   0  0  0  0  0  3  0  0  0  0  0  0
  189.8600  177.6180  143.7180 C   0  0  0  0  0  1  0  0  0  0  0  0
  190.4790  176.3970  138.0740 C   0  0  0  0  0  3  0  0  0  0  0  0
  187.3880  177.9720  143.3560 C   0  0  0  0  0  0  0  0  0  0  0  0
  185.8260  178.6430  140.0170 C   0  0  0  0  0  0  0  0  0  0  0  0
  187.9500  177.4770  145.3480 C   0  0  0  0  0  0  0  0  0  0  0  0
  186.2770  177.9200  144.1330 C   0  0  0  0  0  0  0  0  0  0  0  0
  188.1050  178.1920  138.9750 C   0  0  0  0  0  0  0  0  0  0  0  0
  187.3380  178.3370  141.9660 N   0  0  0  0  0  0  0  0  0  0  0  0
  189.9310  177.2430  140.3750 C   0  0  0  0  0  2  0  0  0  0  0  0
  184.9530  178.2260  143.6000 C   0  0  0  0  0  3  0  0  0  0  0  0
  189.7430  177.3730  137.2620 C   0  0  0  0  0  3  0  0  0  0  0  0
  188.7240  178.1370  137.6460 C   0  0  0  0  0  3  0  0  0  0  0  0
  188.9010  178.0700  140.2020 C   0  0  0  0  0  0  0  0  0  0  0  0
  182.0560  181.1990  138.4570 N   0  0  0  0  0  2  0  0  0  0  0  0
  184.4750  178.9110  139.4590 C   0  0  0  0  0  0  0  0  0  0  0  0
  184.0090  180.1780  139.2100 N   0  0  0  0  0  0  0  0  0  0  0  0
  182.7400  180.1480  138.7620 C   0  0  0  0  0  0  0  0  0  0  0  0
  182.1970  178.5860  138.7030 S   0  0  0  0  0  0  0  0  0  0  0  0
  183.6000  177.8830  139.2520 N   0  0  0  0  0  2  0  0  0  0  0  0
  1 12  1  0  0  0  0
  2 16  1  0  0  0  0
  2  6  1  0  0  0  0
  3 16  1  0  0  0  0
  6 18  2  0  0  0  0
  7 13  1  0  0  0  0
  8 17  1  0  0  0  0
  9  7  1  0  0  0  0
 10  8  2  0  0  0  0
 11  7  1  0  0  0  0
 11 14  2  0  0  0  0
 12  2  2  0  0  0  0
 13  4  2  0  0  0  0
 13  5  1  0  0  0  0
 14  4  1  0  0  0  0
 15  1  1  0  0  0  0
 15 21  2  0  0  0  0
 16 11  1  0  0  0  0
 18 14  1  0  0  0  0
 19 20  2  0  0  0  0
 19 10  1  0  0  0  0
 20 15  1  0  0  0  0
 21 17  1  0  0  0  0
 21  3  1  0  0  0  0
 22 25  2  0  0  0  0
 23 12  1  0  0  0  0
 24 23  2  0  0  0  0
 25 24  1  0  0  0  0
 26 25  1  0  0  0  0
 26 27  1  0  0  0  0
 27 23  1  0  0  0  0
M  END
>  <MODEL>
2

>  <REMARK>
 VINA RESULT:      -9.3      2.860      5.523
  Name = 
  1 active torsions:
  status: ('A' for Active; 'I' for Inactive)
    1  A    between atoms: C_9  and  C_15
                            x       y       z     vdW  Elec       q    Type
                         _______ _______ _______ _____ _____    ______ ____

>  <TORSDO>
F 1

$$$$
=
 OpenBabel10262420043D

 27 31  0  0  0  0  0  0  0  0999 V2000
  186.6900  178.5280  139.1060 N   0  0  0  0  0  2  0  0  0  0  0  0
  186.0030  178.4960  141.5160 C   0  0  0  0  0  0  0  0  0  0  0  0
  188.4910  178.8940  141.3710 C   0  0  0  0  0  2  0  0  0  0  0  0
  186.7850  177.5660  145.5100 N   0  0  0  0  0  0  0  0  0  0  0  0
  189.0120  177.0480  146.5210 C   0  0  0  0  0  1  0  0  0  0  0  0
  184.8740  178.5040  142.5080 C   0  0  0  0  0  3  0  0  0  0  0  0
  188.5770  177.6510  144.1220 N   0  0  0  0  0  0  0  0  0  0  0  0
  190.3980  176.3290  139.2890 C   0  0  0  0  0  3  0  0  0  0  0  0
  189.9500  177.5660  143.6510 C   0  0  0  0  0  1  0  0  0  0  0  0
  190.2550  176.4060  137.9690 C   0  0  0  0  0  3  0  0  0  0  0  0
  187.4650  177.9440  143.4260 C   0  0  0  0  0  0  0  0  0  0  0  0
  185.7330  178.6670  140.1840 C   0  0  0  0  0  0  0  0  0  0  0  0
  188.1290  177.4210  145.3800 C   0  0  0  0  0  0  0  0  0  0  0  0
  186.3970  177.8920  144.2610 C   0  0  0  0  0  0  0  0  0  0  0  0
  187.9490  178.2100  139.0160 C   0  0  0  0  0  0  0  0  0  0  0  0
  187.3450  178.3260  142.0450 N   0  0  0  0  0  0  0  0  0  0  0  0
  189.8390  177.2290  140.3050 C   0  0  0  0  0  2  0  0  0  0  0  0
  185.0500  178.2150  143.8040 C   0  0  0  0  0  3  0  0  0  0  0  0
  189.4850  177.3970  137.2080 C   0  0  0  0  0  3  0  0  0  0  0  0
  188.4950  178.1650  137.6550 C   0  0  0  0  0  3  0  0  0  0  0  0
  188.8080  178.0660  140.1970 C   0  0  0  0  0  0  0  0  0  0  0  0
  181.1380  177.8250  139.0150 N   0  0  0  0  0  2  0  0  0  0  0  0
  184.3560  178.9520  139.7030 C   0  0  0  0  0  0  0  0  0  0  0  0
  183.3600  178.0070  139.6900 N   0  0  0  0  0  0  0  0  0  0  0  0
  182.2280  178.5020  139.1560 C   0  0  0  0  0  0  0  0  0  0  0  0
  182.4640  180.0700  138.6850 S   0  0  0  0  0  0  0  0  0  0  0  0
  184.0520  180.1710  139.1660 N   0  0  0  0  0  2  0  0  0  0  0  0
  1 12  1  0  0  0  0
  2 16  1  0  0  0  0
  2  6  1  0  0  0  0
  3 16  1  0  0  0  0
  6 18  2  0  0  0  0
  7 13  1  0  0  0  0
  8 17  1  0  0  0  0
  9  7  1  0  0  0  0
 10  8  2  0  0  0  0
 11  7  1  0  0  0  0
 11 14  2  0  0  0  0
 12  2  2  0  0  0  0
 13  4  2  0  0  0  0
 13  5  1  0  0  0  0
 14  4  1  0  0  0  0
 15  1  1  0  0  0  0
 15 21  2  0  0  0  0
 16 11  1  0  0  0  0
 18 14  1  0  0  0  0
 19 20  2  0  0  0  0
 19 10  1  0  0  0  0
 20 15  1  0  0  0  0
 21 17  1  0  0  0  0
 21  3  1  0  0  0  0
 22 25  2  0  0  0  0
 23 12  1  0  0  0  0
 24 23  2  0  0  0  0
 25 24  1  0  0  0  0
 26 25  1  0  0  0  0
 26 27  1  0  0  0  0
 27 23  1  0  0  0  0
M  END
>  <MODEL>
3

>  <REMARK>
 VINA RESULT:      -9.2      2.797      5.591
  Name = 
  1 active torsions:
  status: ('A' for Active; 'I' for Inactive)
    1  A    between atoms: C_9  and  C_15
                            x       y       z     vdW  Elec       q    Type
                         _______ _______ _______ _____ _____    ______ ____

>  <TORSDO>
F 1

$$$$
=
 OpenBabel10262420043D

 27 31  0  0  0  0  0  0  0  0999 V2000
  187.0370  178.3030  141.6780 N   0  0  0  0  0  2  0  0  0  0  0  0
  187.1990  177.9770  144.1580 C   0  0  0  0  0  0  0  0  0  0  0  0
  189.4660  178.6240  143.2590 C   0  0  0  0  0  2  0  0  0  0  0  0
  189.3250  176.7530  147.5350 N   0  0  0  0  0  0  0  0  0  0  0  0
  191.7880  176.3580  147.6950 C   0  0  0  0  0  1  0  0  0  0  0  0
  186.4690  177.7830  145.4570 C   0  0  0  0  0  3  0  0  0  0  0  0
  190.5410  177.1410  145.6600 N   0  0  0  0  0  0  0  0  0  0  0  0
  190.7150  176.4620  140.3750 C   0  0  0  0  0  3  0  0  0  0  0  0
  191.6810  177.2320  144.7610 C   0  0  0  0  0  1  0  0  0  0  0  0
  190.1340  176.6490  139.1930 C   0  0  0  0  0  3  0  0  0  0  0  0
  189.2460  177.3900  145.4050 C   0  0  0  0  0  0  0  0  0  0  0  0
  186.4890  178.2480  143.0180 C   0  0  0  0  0  0  0  0  0  0  0  0
  190.5550  176.7500  146.9570 C   0  0  0  0  0  0  0  0  0  0  0  0
  188.5240  177.1570  146.5300 C   0  0  0  0  0  0  0  0  0  0  0  0
  188.2090  178.1170  141.1450 C   0  0  0  0  0  0  0  0  0  0  0  0
  188.6480  177.8870  144.1960 N   0  0  0  0  0  0  0  0  0  0  0  0
  190.4760  177.2030  141.6190 C   0  0  0  0  0  2  0  0  0  0  0  0
  187.0850  177.3920  146.5800 C   0  0  0  0  0  3  0  0  0  0  0  0
  189.0970  177.6290  138.8500 C   0  0  0  0  0  3  0  0  0  0  0  0
  188.2700  178.2530  139.6850 C   0  0  0  0  0  3  0  0  0  0  0  0
  189.4210  177.9450  141.9540 C   0  0  0  0  0  0  0  0  0  0  0  0
  181.9880  178.6220  141.3490 N   0  0  0  0  0  2  0  0  0  0  0  0
  185.0160  178.4440  143.0500 C   0  0  0  0  0  0  0  0  0  0  0  0
  184.2280  178.3530  141.9300 N   0  0  0  0  0  0  0  0  0  0  0  0
  182.9420  178.6280  142.2190 C   0  0  0  0  0  0  0  0  0  0  0  0
  182.7900  179.0030  143.8230 S   0  0  0  0  0  0  0  0  0  0  0  0
  184.3960  178.8130  144.2100 N   0  0  0  0  0  2  0  0  0  0  0  0
  1 12  1  0  0  0  0
  2 16  1  0  0  0  0
  2  6  1  0  0  0  0
  3 16  1  0  0  0  0
  6 18  2  0  0  0  0
  7 13  1  0  0  0  0
  8 17  1  0  0  0  0
  9  7  1  0  0  0  0
 10  8  2  0  0  0  0
 11  7  1  0  0  0  0
 11 14  2  0  0  0  0
 12 23  1  0  0  0  0
 12  2  2  0  0  0  0
 13  4  2  0  0  0  0
 13  5  1  0  0  0  0
 14 18  1  0  0  0  0
 14  4  1  0  0  0  0
 15  1  1  0  0  0  0
 15 21  2  0  0  0  0
 16 11  1  0  0  0  0
 17 21  1  0  0  0  0
 19 10  1  0  0  0  0
 19 20  2  0  0  0  0
 20 15  1  0  0  0  0
 21  3  1  0  0  0  0
 22 25  2  0  0  0  0
 23 27  1  0  0  0  0
 24 25  1  0  0  0  0
 24 23  2  0  0  0  0
 25 26  1  0  0  0  0
 26 27  1  0  0  0  0
M  END
>  <MODEL>
4

>  <REMARK>
 VINA RESULT:      -9.1      2.403      5.042
  Name = 
  1 active torsions:
  status: ('A' for Active; 'I' for Inactive)
    1  A    between atoms: C_9  and  C_15
                            x       y       z     vdW  Elec       q    Type
                         _______ _______ _______ _____ _____    ______ ____

>  <TORSDO>
F 1

$$$$
=
 OpenBabel10262420043D

 27 31  0  0  0  0  0  0  0  0999 V2000
  186.3570  177.7670  145.0710 N   0  0  0  0  0  2  0  0  0  0  0  0
  187.1090  177.8520  142.6820 C   0  0  0  0  0  0  0  0  0  0  0  0
  188.7110  176.4180  144.0020 C   0  0  0  0  0  2  0  0  0  0  0  0
  190.1530  177.9310  139.8260 N   0  0  0  0  0  0  0  0  0  0  0  0
  192.5500  177.3110  140.1710 C   0  0  0  0  0  1  0  0  0  0  0  0
  186.7810  178.2400  141.2680 C   0  0  0  0  0  3  0  0  0  0  0  0
  190.7280  177.2090  141.8970 N   0  0  0  0  0  0  0  0  0  0  0  0
  190.1400  178.0800  147.1240 C   0  0  0  0  0  3  0  0  0  0  0  0
  191.5410  176.7290  143.0040 C   0  0  0  0  0  1  0  0  0  0  0  0
  189.3170  178.2090  148.1610 C   0  0  0  0  0  2  0  0  0  0  0  0
  189.4180  177.5070  141.8820 C   0  0  0  0  0  0  0  0  0  0  0  0
  186.1450  177.9540  143.6500 C   0  0  0  0  0  0  0  0  0  0  0  0
  191.1450  177.4830  140.6380 C   0  0  0  0  0  0  0  0  0  0  0  0
  189.0800  177.9380  140.6410 C   0  0  0  0  0  0  0  0  0  0  0  0
  187.3810  177.5070  145.8320 C   0  0  0  0  0  0  0  0  0  0  0  0
  188.4520  177.3600  142.9360 N   0  0  0  0  0  0  0  0  0  0  0  0
  189.8680  177.4200  145.8410 C   0  0  0  0  0  3  0  0  0  0  0  0
  187.7050  178.2880  140.2990 C   0  0  0  0  0  3  0  0  0  0  0  0
  187.9300  177.7410  148.2680 C   0  0  0  0  0  3  0  0  0  0  0  0
  187.1000  177.4450  147.2710 C   0  0  0  0  0  3  0  0  0  0  0  0
  188.6910  177.1370  145.2850 C   0  0  0  0  0  0  0  0  0  0  0  0
  182.1740  178.5550  140.9950 N   0  0  0  0  0  2  0  0  0  0  0  0
  184.7530  178.3540  143.3200 C   0  0  0  0  0  0  0  0  0  0  0  0
  184.1810  178.1180  142.0940 N   0  0  0  0  0  0  0  0  0  0  0  0
  182.9370  178.6280  142.0340 C   0  0  0  0  0  0  0  0  0  0  0  0
  182.5630  179.3780  143.4610 S   0  0  0  0  0  0  0  0  0  0  0  0
  184.0080  179.0620  144.2200 N   0  0  0  0  0  2  0  0  0  0  0  0
  1 15  1  0  0  0  0
  2 16  1  0  0  0  0
  2 12  2  0  0  0  0
  3 21  1  0  0  0  0
  4 13  2  0  0  0  0
  4 14  1  0  0  0  0
  5 13  1  0  0  0  0
  6  2  1  0  0  0  0
  7  9  1  0  0  0  0
  8 10  1  0  0  0  0
 10 19  1  0  0  0  0
 11  7  1  0  0  0  0
 11 16  1  0  0  0  0
 12  1  1  0  0  0  0
 13  7  1  0  0  0  0
 14 11  2  0  0  0  0
 15 20  1  0  0  0  0
 16  3  1  0  0  0  0
 17  8  2  0  0  0  0
 18 14  1  0  0  0  0
 18  6  2  0  0  0  0
 20 19  2  0  0  0  0
 21 15  2  0  0  0  0
 21 17  1  0  0  0  0
 22 25  2  0  0  0  0
 23 12  1  0  0  0  0
 23 27  1  0  0  0  0
 24 23  2  0  0  0  0
 25 24  1  0  0  0  0
 25 26  1  0  0  0  0
 26 27  1  0  0  0  0
M  END
>  <MODEL>
5

>  <REMARK>
 VINA RESULT:      -8.9      2.637      5.334
  Name = 
  1 active torsions:
  status: ('A' for Active; 'I' for Inactive)
    1  A    between atoms: C_9  and  C_15
                            x       y       z     vdW  Elec       q    Type
                         _______ _______ _______ _____ _____    ______ ____

>  <TORSDO>
F 1

$$$$
=
 OpenBabel10262420043D

 27 31  0  0  0  0  0  0  0  0999 V2000
  190.7900  176.9000  141.0880 N   0  0  0  0  0  2  0  0  0  0  0  0
  189.0900  177.2830  139.2880 C   0  0  0  0  0  0  0  0  0  0  0  0
  188.6380  178.8650  141.2010 C   0  0  0  0  0  2  0  0  0  0  0  0
  185.2070  178.2440  138.0960 N   0  0  0  0  0  0  0  0  0  0  0  0
  183.4390  179.3380  139.4840 C   0  0  0  0  0  1  0  0  0  0  0  0
  188.6660  177.0100  137.8720 C   0  0  0  0  0  3  0  0  0  0  0  0
  185.7840  178.8150  140.2130 N   0  0  0  0  0  0  0  0  0  0  0  0
  188.3180  177.1910  144.6140 C   0  0  0  0  0  3  0  0  0  0  0  0
  185.6800  179.3230  141.5720 C   0  0  0  0  0  1  0  0  0  0  0  0
  189.4440  176.7530  145.1720 C   0  0  0  0  0  2  0  0  0  0  0  0
  186.8350  178.2340  139.6100 C   0  0  0  0  0  0  0  0  0  0  0  0
  190.3150  176.8490  139.7220 C   0  0  0  0  0  0  0  0  0  0  0  0
  184.8120  178.7990  139.2710 C   0  0  0  0  0  0  0  0  0  0  0  0
  186.4840  177.8960  138.3440 C   0  0  0  0  0  0  0  0  0  0  0  0
  190.2980  177.2870  142.2300 C   0  0  0  0  0  0  0  0  0  0  0  0
  188.1630  178.0280  140.1210 N   0  0  0  0  0  0  0  0  0  0  0  0
  188.1710  177.9280  143.3530 C   0  0  0  0  0  3  0  0  0  0  0  0
  187.4370  177.2920  137.4190 C   0  0  0  0  0  3  0  0  0  0  0  0
  190.8100  176.8810  144.6520 C   0  0  0  0  0  3  0  0  0  0  0  0
  191.1760  177.1040  143.3920 C   0  0  0  0  0  3  0  0  0  0  0  0
  189.0240  178.0060  142.3310 C   0  0  0  0  0  0  0  0  0  0  0  0
  194.1440  176.3780  136.8410 N   0  0  0  0  0  2  0  0  0  0  0  0
  191.2760  176.1910  138.7980 C   0  0  0  0  0  0  0  0  0  0  0  0
  192.3920  176.8240  138.3100 N   0  0  0  0  0  0  0  0  0  0  0  0
  193.0620  176.0310  137.4520 C   0  0  0  0  0  0  0  0  0  0  0  0
  192.2730  174.5870  137.2830 S   0  0  0  0  0  0  0  0  0  0  0  0
  191.0270  174.9330  138.3280 N   0  0  0  0  0  2  0  0  0  0  0  0
  1 15  1  0  0  0  0
  2 12  2  0  0  0  0
  2 16  1  0  0  0  0
  3 21  1  0  0  0  0
  4 14  1  0  0  0  0
  4 13  2  0  0  0  0
  6  2  1  0  0  0  0
  7  9  1  0  0  0  0
  8 10  1  0  0  0  0
 11 16  1  0  0  0  0
 11  7  1  0  0  0  0
 12  1  1  0  0  0  0
 13  5  1  0  0  0  0
 13  7  1  0  0  0  0
 14 11  2  0  0  0  0
 15 21  2  0  0  0  0
 15 20  1  0  0  0  0
 16  3  1  0  0  0  0
 17  8  2  0  0  0  0
 18  6  2  0  0  0  0
 18 14  1  0  0  0  0
 19 10  1  0  0  0  0
 20 19  2  0  0  0  0
 21 17  1  0  0  0  0
 22 25  2  0  0  0  0
 23 12  1  0  0  0  0
 24 23  2  0  0  0  0
 25 24  1  0  0  0  0
 26 25  1  0  0  0  0
 26 27  1  0  0  0  0
 27 23  1  0  0  0  0
M  END
>  <MODEL>
6

>  <REMARK>
 VINA RESULT:      -8.7      2.579      6.060
  Name = 
  1 active torsions:
  status: ('A' for Active; 'I' for Inactive)
    1  A    between atoms: C_9  and  C_15
                            x       y       z     vdW  Elec       q    Type
                         _______ _______ _______ _____ _____    ______ ____

>  <TORSDO>
F 1

$$$$
=
 OpenBabel10262420043D

 27 31  0  0  0  0  0  0  0  0999 V2000
  186.2890  178.3950  144.3970 N   0  0  0  0  0  2  0  0  0  0  0  0
  188.3720  177.6400  143.2260 C   0  0  0  0  0  0  0  0  0  0  0  0
  187.0550  179.1430  141.6850 C   0  0  0  0  0  2  0  0  0  0  0  0
  190.3790  176.4940  139.7500 N   0  0  0  0  0  0  0  0  0  0  0  0
  189.6380  176.8790  137.3940 C   0  0  0  0  0  1  0  0  0  0  0  0
  189.7090  176.9630  143.3380 C   0  0  0  0  0  3  0  0  0  0  0  0
  188.4320  177.6220  139.4680 N   0  0  0  0  0  0  0  0  0  0  0  0
  183.4130  178.1250  141.1920 C   0  0  0  0  0  3  0  0  0  0  0  0
  187.2960  178.2520  138.8130 C   0  0  0  0  0  1  0  0  0  0  0  0
  182.5850  178.3550  142.2090 C   0  0  0  0  0  2  0  0  0  0  0  0
  188.6810  177.4920  140.7820 C   0  0  0  0  0  0  0  0  0  0  0  0
  187.6480  177.8960  144.3610 C   0  0  0  0  0  0  0  0  0  0  0  0
  189.4770  177.0000  138.8700 C   0  0  0  0  0  0  0  0  0  0  0  0
  189.8470  176.8180  140.9440 C   0  0  0  0  0  0  0  0  0  0  0  0
  185.3880  178.7040  143.5100 C   0  0  0  0  0  0  0  0  0  0  0  0
  187.9290  178.0090  141.8930 N   0  0  0  0  0  0  0  0  0  0  0  0
  184.8330  178.4830  141.0930 C   0  0  0  0  0  3  0  0  0  0  0  0
  190.4100  176.5680  142.2670 C   0  0  0  0  0  3  0  0  0  0  0  0
  182.8980  179.0030  143.4880 C   0  0  0  0  0  3  0  0  0  0  0  0
  184.0960  179.1470  144.0470 C   0  0  0  0  0  3  0  0  0  0  0  0
  185.6880  178.7650  142.0750 C   0  0  0  0  0  0  0  0  0  0  0  0
  190.9040  176.7530  147.7190 N   0  0  0  0  0  2  0  0  0  0  0  0
  188.1940  177.6030  145.7110 C   0  0  0  0  0  0  0  0  0  0  0  0
  189.5220  177.3370  145.9370 N   0  0  0  0  0  0  0  0  0  0  0  0
  189.7450  177.0480  147.2320 C   0  0  0  0  0  0  0  0  0  0  0  0
  188.3220  177.0960  148.0760 S   0  0  0  0  0  0  0  0  0  0  0  0
  187.3560  177.5030  146.7860 N   0  0  0  0  0  2  0  0  0  0  0  0
  2  6  1  0  0  0  0
  2 12  2  0  0  0  0
  3 16  1  0  0  0  0
  3 21  1  0  0  0  0
  4 14  1  0  0  0  0
  5 13  1  0  0  0  0
  7 11  1  0  0  0  0
  8 10  1  0  0  0  0
  9  7  1  0  0  0  0
 10 19  1  0  0  0  0
 11 14  2  0  0  0  0
 11 16  1  0  0  0  0
 12  1  1  0  0  0  0
 12 23  1  0  0  0  0
 13  7  1  0  0  0  0
 13  4  2  0  0  0  0
 14 18  1  0  0  0  0
 15 20  1  0  0  0  0
 15  1  1  0  0  0  0
 16  2  1  0  0  0  0
 17  8  2  0  0  0  0
 17 21  1  0  0  0  0
 18  6  2  0  0  0  0
 19 20  2  0  0  0  0
 21 15  2  0  0  0  0
 23 24  2  0  0  0  0
 23 27  1  0  0  0  0
 24 25  1  0  0  0  0
 25 22  2  0  0  0  0
 25 26  1  0  0  0  0
 27 26  1  0  0  0  0
M  END
>  <MODEL>
7

>  <REMARK>
 VINA RESULT:      -8.6      2.473      5.854
  Name = 
  1 active torsions:
  status: ('A' for Active; 'I' for Inactive)
    1  A    between atoms: C_9  and  C_15
                            x       y       z     vdW  Elec       q    Type
                         _______ _______ _______ _____ _____    ______ ____

>  <TORSDO>
F 1

$$$$
=
 OpenBabel10262420043D

 27 31  0  0  0  0  0  0  0  0999 V2000
  190.6170  176.5380  144.3260 N   0  0  0  0  0  2  0  0  0  0  0  0
  188.7630  177.1560  145.8930 C   0  0  0  0  0  0  0  0  0  0  0  0
  187.7730  176.4060  143.6970 C   0  0  0  0  0  2  0  0  0  0  0  0
  184.9780  178.7730  146.5940 N   0  0  0  0  0  0  0  0  0  0  0  0
  183.1850  179.1830  144.9010 C   0  0  0  0  0  1  0  0  0  0  0  0
  188.3600  177.5040  147.2990 C   0  0  0  0  0  3  0  0  0  0  0  0
  185.4380  178.1640  144.4580 N   0  0  0  0  0  0  0  0  0  0  0  0
  189.1470  178.2080  140.6290 C   0  0  0  0  0  3  0  0  0  0  0  0
  185.2800  177.9650  143.0260 C   0  0  0  0  0  1  0  0  0  0  0  0
  190.3790  177.8810  140.2460 C   0  0  0  0  0  3  0  0  0  0  0  0
  186.4990  177.8870  145.2340 C   0  0  0  0  0  0  0  0  0  0  0  0
  190.0470  176.7530  145.6400 C   0  0  0  0  0  0  0  0  0  0  0  0
  184.5360  178.7060  145.3110 C   0  0  0  0  0  0  0  0  0  0  0  0
  186.2180  178.2530  146.5100 C   0  0  0  0  0  0  0  0  0  0  0  0
  190.1980  176.6580  143.1000 C   0  0  0  0  0  0  0  0  0  0  0  0
  187.7350  177.2500  144.8710 N   0  0  0  0  0  0  0  0  0  0  0  0
  188.3620  177.6200  141.7210 C   0  0  0  0  0  2  0  0  0  0  0  0
  187.1630  178.0260  147.5980 C   0  0  0  0  0  3  0  0  0  0  0  0
  191.2600  176.8680  140.8370 C   0  0  0  0  0  3  0  0  0  0  0  0
  191.1860  176.3490  142.0600 C   0  0  0  0  0  3  0  0  0  0  0  0
  188.7930  176.9240  142.7730 C   0  0  0  0  0  0  0  0  0  0  0  0
  192.6980  177.8400  149.5090 N   0  0  0  0  0  2  0  0  0  0  0  0
  191.0310  176.5630  146.7370 C   0  0  0  0  0  0  0  0  0  0  0  0
  191.2860  177.5240  147.6840 N   0  0  0  0  0  0  0  0  0  0  0  0
  192.2560  177.1270  148.5280 C   0  0  0  0  0  0  0  0  0  0  0  0
  192.8060  175.6280  148.0930 S   0  0  0  0  0  0  0  0  0  0  0  0
  191.7930  175.4310  146.7900 N   0  0  0  0  0  2  0  0  0  0  0  0
  1 12  1  0  0  0  0
  2  6  1  0  0  0  0
  3 16  1  0  0  0  0
  5 13  1  0  0  0  0
  6 18  2  0  0  0  0
  7 11  1  0  0  0  0
  7 13  1  0  0  0  0
  8 17  1  0  0  0  0
  9  7  1  0  0  0  0
 10  8  2  0  0  0  0
 10 19  1  0  0  0  0
 11 14  2  0  0  0  0
 12  2  2  0  0  0  0
 12 23  1  0  0  0  0
 13  4  2  0  0  0  0
 14  4  1  0  0  0  0
 14 18  1  0  0  0  0
 15  1  1  0  0  0  0
 16 11  1  0  0  0  0
 16  2  1  0  0  0  0
 17 21  1  0  0  0  0
 19 20  2  0  0  0  0
 20 15  1  0  0  0  0
 21 15  2  0  0  0  0
 21  3  1  0  0  0  0
 23 27  1  0  0  0  0
 23 24  2  0  0  0  0
 24 25  1  0  0  0  0
 25 22  2  0  0  0  0
 26 25  1  0  0  0  0
 27 26  1  0  0  0  0
M  END
>  <MODEL>
8

>  <REMARK>
 VINA RESULT:      -8.6      3.239      6.838
  Name = 
  1 active torsions:
  status: ('A' for Active; 'I' for Inactive)
    1  A    between atoms: C_9  and  C_15
                            x       y       z     vdW  Elec       q    Type
                         _______ _______ _______ _____ _____    ______ ____

>  <TORSDO>
F 1

$$$$
=
 OpenBabel10262420043D

 27 31  0  0  0  0  0  0  0  0999 V2000
  187.9920  178.1090  140.8530 N   0  0  0  0  0  2  0  0  0  0  0  0
  185.7270  178.3240  139.8030 C   0  0  0  0  0  0  0  0  0  0  0  0
  185.6810  179.3820  142.0930 C   0  0  0  0  0  2  0  0  0  0  0  0
  181.5650  178.4040  140.1150 N   0  0  0  0  0  0  0  0  0  0  0  0
  180.2230  178.7390  142.1970 C   0  0  0  0  0  1  0  0  0  0  0  0
  184.8940  178.1910  138.5600 C   0  0  0  0  0  3  0  0  0  0  0  0
  182.7290  178.7420  142.0310 N   0  0  0  0  0  0  0  0  0  0  0  0
  186.9150  177.1330  144.9160 C   0  0  0  0  0  3  0  0  0  0  0  0
  183.0140  178.9680  143.4400 C   0  0  0  0  0  1  0  0  0  0  0  0
  188.2270  176.9220  144.9810 C   0  0  0  0  0  2  0  0  0  0  0  0
  183.5920  178.5730  141.0160 C   0  0  0  0  0  0  0  0  0  0  0  0
  187.0860  178.1640  139.7250 C   0  0  0  0  0  0  0  0  0  0  0  0
  181.5100  178.6280  141.4540 C   0  0  0  0  0  0  0  0  0  0  0  0
  182.8900  178.3720  139.8720 C   0  0  0  0  0  0  0  0  0  0  0  0
  187.8690  178.1530  142.1480 C   0  0  0  0  0  0  0  0  0  0  0  0
  185.0280  178.6440  141.0350 N   0  0  0  0  0  0  0  0  0  0  0  0
  186.1920  178.0060  143.9820 C   0  0  0  0  0  3  0  0  0  0  0  0
  183.5540  178.2080  138.5830 C   0  0  0  0  0  3  0  0  0  0  0  0
  189.2690  177.4950  144.1220 C   0  0  0  0  0  3  0  0  0  0  0  0
  189.1170  178.0170  142.9080 C   0  0  0  0  0  3  0  0  0  0  0  0
  186.5980  178.4790  142.8040 C   0  0  0  0  0  0  0  0  0  0  0  0
  188.9370  175.7630  135.9850 N   0  0  0  0  0  2  0  0  0  0  0  0
  187.7680  177.9510  138.4220 C   0  0  0  0  0  0  0  0  0  0  0  0
  187.9340  176.7090  137.8630 N   0  0  0  0  0  0  0  0  0  0  0  0
  188.6310  176.7840  136.7130 C   0  0  0  0  0  0  0  0  0  0  0  0
  189.0550  178.3540  136.4110 S   0  0  0  0  0  0  0  0  0  0  0  0
  188.3400  179.0030  137.7640 N   0  0  0  0  0  2  0  0  0  0  0  0
  1 15  1  0  0  0  0
  2 16  1  0  0  0  0
  3 21  1  0  0  0  0
  4 13  2  0  0  0  0
  6 18  2  0  0  0  0
  6  2  1  0  0  0  0
  7  9  1  0  0  0  0
  8 10  1  0  0  0  0
 11 16  1  0  0  0  0
 11  7  1  0  0  0  0
 12  2  2  0  0  0  0
 12  1  1  0  0  0  0
 13  7  1  0  0  0  0
 13  5  1  0  0  0  0
 14  4  1  0  0  0  0
 14 11  2  0  0  0  0
 15 21  2  0  0  0  0
 15 20  1  0  0  0  0
 16  3  1  0  0  0  0
 17  8  2  0  0  0  0
 18 14  1  0  0  0  0
 19 10  1  0  0  0  0
 20 19  2  0  0  0  0
 21 17  1  0  0  0  0
 22 25  2  0  0  0  0
 23 12  1  0  0  0  0
 24 23  2  0  0  0  0
 25 24  1  0  0  0  0
 26 25  1  0  0  0  0
 26 27  1  0  0  0  0
 27 23  1  0  0  0  0
M  END
>  <MODEL>
9

>  <REMARK>
 VINA RESULT:      -8.2      2.539      6.216
  Name = 
  1 active torsions:
  status: ('A' for Active; 'I' for Inactive)
    1  A    between atoms: C_9  and  C_15
                            x       y       z     vdW  Elec       q    Type
                         _______ _______ _______ _____ _____    ______ ____

>  <TORSDO>
F 1

$$$$
