=
 OpenBabel10262419163D

 34 38  0  0  1  0  0  0  0  0999 V2000
  189.7190  177.4810  145.4230 C   0  0  0  0  0  0  0  0  0  0  0  0
  190.7060  175.9690  143.7980 C   0  0  0  0  0  0  0  0  0  0  0  0
  188.6710  177.4100  143.1640 C   0  0  0  0  0  0  0  0  0  0  0  0
  187.8040  178.0220  140.9790 C   0  0  0  0  0  0  0  0  0  0  0  0
  190.7110  177.1400  146.3450 C   0  0  0  0  0  3  0  0  0  0  0  0
  191.6890  175.6300  144.7330 C   0  0  0  0  0  3  0  0  0  0  0  0
  190.2760  177.6310  141.1960 C   0  0  0  0  0  2  0  0  0  0  0  0
  189.7490  176.9670  144.1090 C   0  0  0  0  0  0  0  0  0  0  0  0
  190.2510  177.5070  139.6770 C   0  0  0  0  0  2  0  0  0  0  0  0
  187.9580  178.1460  139.4900 C   0  0  0  0  0  2  0  0  0  0  0  0
  191.7080  176.2300  145.9930 C   0  0  0  0  0  3  0  0  0  0  0  0
  187.4220  177.7830  143.7220 C   0  0  0  0  0  0  0  0  0  0  0  0
  188.5870  178.3620  145.8520 C   0  0  0  0  0  2  0  0  0  0  0  0
  190.6230  175.2050  142.5990 N   0  0  0  0  0  1  0  0  0  0  0  0
  186.5870  178.2450  141.5320 N   0  0  0  0  0  0  0  0  0  0  0  0
  186.3550  178.1500  142.8680 C   0  0  0  0  0  0  0  0  0  0  0  0
  189.3320  178.5010  139.1240 N   0  0  0  0  0  0  0  0  0  0  0  0
  188.8850  177.6110  141.7810 C   0  0  0  0  0  0  0  0  0  0  0  0
  187.2900  177.8480  145.2250 C   0  0  0  0  0  2  0  0  0  0  0  0
  182.6170  178.7420  142.8860 C   0  0  0  0  0  0  0  0  0  0  0  0
  182.3650  178.9550  144.2430 C   0  0  0  0  0  3  0  0  0  0  0  0
  184.9880  178.4580  143.3590 C   0  0  0  0  0  0  0  0  0  0  0  0
  183.4170  178.9110  145.1630 C   0  0  0  0  0  3  0  0  0  0  0  0
  183.9200  178.4900  142.4480 C   0  0  0  0  0  3  0  0  0  0  0  0
  184.7190  178.6600  144.7220 C   0  0  0  0  0  3  0  0  0  0  0  0
  181.5720  178.7790  141.9730 O   0  0  0  0  0  1  0  0  0  0  0  0
  189.4610  178.5330  137.6640 C   0  0  0  0  0  2  0  0  0  0  0  0
  190.0790  177.2540  137.0770 C   0  0  0  0  0  2  0  0  0  0  0  0
  187.8550  176.8850  135.9780 F   0  0  0  0  0  0  0  0  0  0  0  0
  190.3540  173.8250  137.5150 O   0  0  0  0  0  0  0  0  0  0  0  0
  189.0170  174.6320  136.8660 P   0  0  0  0  0  0  0  0  0  0  0  0
  189.5880  175.5030  135.4530 O   0  0  0  0  0  0  0  0  0  0  0  0
  189.0750  176.3560  136.3520 C   0  0  1  0  0  3  0  0  0  0  0  0
  187.8810  173.7440  136.4150 O   0  0  0  0  0  0  0  0  0  0  0  0
  1 13  1  0  0  0  0
  1  5  1  0  0  0  0
  2  8  1  0  0  0  0
  2  6  2  0  0  0  0
  3 12  1  0  0  0  0
  3  8  1  0  0  0  0
  4 15  2  0  0  0  0
  4 18  1  0  0  0  0
  6 11  1  0  0  0  0
  7 18  1  0  0  0  0
  8  1  2  0  0  0  0
  9  7  1  0  0  0  0
 10  4  1  0  0  0  0
 11  5  2  0  0  0  0
 12 19  1  0  0  0  0
 14  2  1  0  0  0  0
 15 16  1  0  0  0  0
 16 22  1  0  0  0  0
 16 12  2  0  0  0  0
 17 10  1  0  0  0  0
 17  9  1  0  0  0  0
 18  3  2  0  0  0  0
 19 13  1  0  0  0  0
 20 21  1  0  0  0  0
 21 23  2  0  0  0  0
 22 25  2  0  0  0  0
 24 20  2  0  0  0  0
 24 22  1  0  0  0  0
 25 23  1  0  0  0  0
 26 20  1  0  0  0  0
 27 17  1  0  0  0  0
 28 27  1  0  0  0  0
 31 30  2  0  0  0  0
 32 33  1  0  0  0  0
 32 31  1  0  0  0  0
 33 29  1  6  0  0  0
 33 28  1  0  0  0  0
 34 31  2  0  0  0  0
M  END
>  <MODEL>
1

>  <REMARK>
 VINA RESULT:     -10.4      0.000      0.000
  Name = 
  4 active torsions:
  status: ('A' for Active; 'I' for Inactive)
    1  A    between atoms: C_3  and  C_13
    2  A    between atoms: C_3  and  N_29
    3  A    between atoms: C_12  and  C_28
    4  A    between atoms: C_13  and  C_33
                            x       y       z     vdW  Elec       q    Type
                         _______ _______ _______ _____ _____    ______ ____

>  <TORSDO>
F 4

$$$$
=
 OpenBabel10262419163D

 34 38  0  0  1  0  0  0  0  0999 V2000
  185.2690  178.9710  144.8030 C   0  0  0  0  0  0  0  0  0  0  0  0
  187.0450  177.3620  144.4030 C   0  0  0  0  0  0  0  0  0  0  0  0
  185.6660  178.2930  142.4390 C   0  0  0  0  0  0  0  0  0  0  0  0
  186.1510  178.3190  140.0590 C   0  0  0  0  0  0  0  0  0  0  0  0
  185.5860  178.9840  146.1630 C   0  0  0  0  0  3  0  0  0  0  0  0
  187.3470  177.3780  145.7680 C   0  0  0  0  0  3  0  0  0  0  0  0
  188.0900  178.3970  141.6550 C   0  0  0  0  0  2  0  0  0  0  0  0
  186.0460  178.2260  143.8900 C   0  0  0  0  0  0  0  0  0  0  0  0
  188.9230  177.9810  140.4470 C   0  0  0  0  0  2  0  0  0  0  0  0
  187.1080  178.1790  138.9090 C   0  0  0  0  0  2  0  0  0  0  0  0
  186.6380  178.2040  146.6420 C   0  0  0  0  0  3  0  0  0  0  0  0
  184.3090  178.5510  142.1270 C   0  0  0  0  0  0  0  0  0  0  0  0
  184.0630  179.7150  144.3210 C   0  0  0  0  0  2  0  0  0  0  0  0
  187.6720  176.3790  143.5850 N   0  0  0  0  0  1  0  0  0  0  0  0
  184.8270  178.4370  139.7980 N   0  0  0  0  0  0  0  0  0  0  0  0
  183.8900  178.5640  140.7760 C   0  0  0  0  0  0  0  0  0  0  0  0
  188.4390  178.6820  139.2590 N   0  0  0  0  0  0  0  0  0  0  0  0
  186.6110  178.2570  141.3880 C   0  0  0  0  0  0  0  0  0  0  0  0
  183.3560  178.8810  143.2520 C   0  0  0  0  0  2  0  0  0  0  0  0
  180.7590  180.0690  139.2730 C   0  0  0  0  0  0  0  0  0  0  0  0
  179.8220  179.0540  139.4840 C   0  0  0  0  0  3  0  0  0  0  0  0
  182.4730  178.7270  140.3620 C   0  0  0  0  0  0  0  0  0  0  0  0
  180.2060  177.8730  140.1230 C   0  0  0  0  0  3  0  0  0  0  0  0
  182.0780  179.9030  139.7050 C   0  0  0  0  0  3  0  0  0  0  0  0
  181.5260  177.7090  140.5550 C   0  0  0  0  0  3  0  0  0  0  0  0
  180.3800  181.2400  138.6330 O   0  0  0  0  0  1  0  0  0  0  0  0
  189.3610  178.4540  138.1430 C   0  0  0  0  0  2  0  0  0  0  0  0
  189.3920  176.9930  137.6640 C   0  0  0  0  0  2  0  0  0  0  0  0
  191.8960  177.0710  137.5500 F   0  0  0  0  0  0  0  0  0  0  0  0
  189.5530  173.5440  137.3520 O   0  0  0  0  0  0  0  0  0  0  0  0
  190.8710  174.6020  137.2910 P   0  0  0  0  0  0  0  0  0  0  0  0
  190.8990  175.4650  138.8190 O   0  0  0  0  0  0  0  0  0  0  0  0
  190.7610  176.3250  137.8000 C   0  0  1  0  0  3  0  0  0  0  0  0
  192.2210  173.9450  137.1230 O   0  0  0  0  0  0  0  0  0  0  0  0
  1  5  1  0  0  0  0
  2  6  2  0  0  0  0
  3  8  1  0  0  0  0
  4 18  1  0  0  0  0
  5 11  2  0  0  0  0
  6 11  1  0  0  0  0
  8  2  1  0  0  0  0
  8  1  2  0  0  0  0
  9  7  1  0  0  0  0
 10 17  1  0  0  0  0
 10  4  1  0  0  0  0
 12  3  1  0  0  0  0
 12 19  1  0  0  0  0
 13  1  1  0  0  0  0
 14  2  1  0  0  0  0
 15  4  2  0  0  0  0
 15 16  1  0  0  0  0
 16 12  2  0  0  0  0
 17  9  1  0  0  0  0
 18  7  1  0  0  0  0
 18  3  2  0  0  0  0
 19 13  1  0  0  0  0
 20 21  2  0  0  0  0
 20 24  1  0  0  0  0
 21 23  1  0  0  0  0
 22 25  1  0  0  0  0
 22 16  1  0  0  0  0
 23 25  2  0  0  0  0
 24 22  2  0  0  0  0
 26 20  1  0  0  0  0
 27 17  1  0  0  0  0
 28 33  1  0  0  0  0
 28 27  1  0  0  0  0
 31 30  2  0  0  0  0
 31 32  1  0  0  0  0
 33 29  1  1  0  0  0
 33 32  1  0  0  0  0
 34 31  2  0  0  0  0
M  END
>  <MODEL>
2

>  <REMARK>
 VINA RESULT:     -10.3      2.308      3.730
  Name = 
  4 active torsions:
  status: ('A' for Active; 'I' for Inactive)
    1  A    between atoms: C_3  and  C_13
    2  A    between atoms: C_3  and  N_29
    3  A    between atoms: C_12  and  C_28
    4  A    between atoms: C_13  and  C_33
                            x       y       z     vdW  Elec       q    Type
                         _______ _______ _______ _____ _____    ______ ____

>  <TORSDO>
F 4

$$$$
=
 OpenBabel10262419163D

 34 38  0  0  1  0  0  0  0  0999 V2000
  186.8480  178.3980  145.8600 C   0  0  0  0  0  0  0  0  0  0  0  0
  188.4560  176.9150  144.8010 C   0  0  0  0  0  0  0  0  0  0  0  0
  186.5970  178.0240  143.4100 C   0  0  0  0  0  0  0  0  0  0  0  0
  186.4230  178.3560  141.0090 C   0  0  0  0  0  0  0  0  0  0  0  0
  187.5200  178.2580  147.0770 C   0  0  0  0  0  3  0  0  0  0  0  0
  189.1150  176.7780  146.0270 C   0  0  0  0  0  3  0  0  0  0  0  0
  188.7200  178.3120  142.0280 C   0  0  0  0  0  2  0  0  0  0  0  0
  187.3540  177.7980  144.6860 C   0  0  0  0  0  0  0  0  0  0  0  0
  189.1990  178.0760  140.5990 C   0  0  0  0  0  2  0  0  0  0  0  0
  187.0360  178.3910  139.6380 C   0  0  0  0  0  2  0  0  0  0  0  0
  188.6640  177.4650  147.1560 C   0  0  0  0  0  3  0  0  0  0  0  0
  185.2050  178.2680  143.5060 C   0  0  0  0  0  0  0  0  0  0  0  0
  185.5550  179.1490  145.8150 C   0  0  0  0  0  2  0  0  0  0  0  0
  188.8430  176.0620  143.7290 N   0  0  0  0  0  1  0  0  0  0  0  0
  185.0770  178.4550  141.1280 N   0  0  0  0  0  0  0  0  0  0  0  0
  184.4380  178.4280  142.3280 C   0  0  0  0  0  0  0  0  0  0  0  0
  188.4100  178.8970  139.6810 N   0  0  0  0  0  0  0  0  0  0  0  0
  187.2240  178.1510  142.1490 C   0  0  0  0  0  0  0  0  0  0  0  0
  184.5890  178.4240  144.8770 C   0  0  0  0  0  2  0  0  0  0  0  0
  180.8430  178.4180  141.1450 C   0  0  0  0  0  0  0  0  0  0  0  0
  180.1570  178.7920  142.3030 C   0  0  0  0  0  3  0  0  0  0  0  0
  182.9610  178.5870  142.3310 C   0  0  0  0  0  0  0  0  0  0  0  0
  180.8660  179.0550  143.4780 C   0  0  0  0  0  3  0  0  0  0  0  0
  182.2360  178.3110  141.1610 C   0  0  0  0  0  3  0  0  0  0  0  0
  182.2590  178.9480  143.4920 C   0  0  0  0  0  3  0  0  0  0  0  0
  180.1390  178.1510  139.9780 O   0  0  0  0  0  1  0  0  0  0  0  0
  188.9990  178.8400  138.3400 C   0  0  0  0  0  2  0  0  0  0  0  0
  189.9120  177.6210  138.1250 C   0  0  0  0  0  2  0  0  0  0  0  0
  188.4430  177.1390  136.1500 F   0  0  0  0  0  0  0  0  0  0  0  0
  191.0220  174.3380  138.0130 O   0  0  0  0  0  0  0  0  0  0  0  0
  189.8280  175.0090  137.0210 P   0  0  0  0  0  0  0  0  0  0  0  0
  190.5760  176.3420  136.1580 O   0  0  0  0  0  0  0  0  0  0  0  0
  189.5480  176.7830  136.8970 C   0  0  1  0  0  3  0  0  0  0  0  0
  189.2470  174.0750  135.9850 O   0  0  0  0  0  0  0  0  0  0  0  0
  1  5  1  0  0  0  0
  2  6  2  0  0  0  0
  3 12  1  0  0  0  0
  3  8  1  0  0  0  0
  4 15  2  0  0  0  0
  4 18  1  0  0  0  0
  5 11  2  0  0  0  0
  6 11  1  0  0  0  0
  7 18  1  0  0  0  0
  8  2  1  0  0  0  0
  8  1  2  0  0  0  0
  9  7  1  0  0  0  0
 10 17  1  0  0  0  0
 10  4  1  0  0  0  0
 12 19  1  0  0  0  0
 13  1  1  0  0  0  0
 14  2  1  0  0  0  0
 15 16  1  0  0  0  0
 16 22  1  0  0  0  0
 16 12  2  0  0  0  0
 17  9  1  0  0  0  0
 18  3  2  0  0  0  0
 19 13  1  0  0  0  0
 20 24  2  0  0  0  0
 20 21  1  0  0  0  0
 21 23  2  0  0  0  0
 22 25  2  0  0  0  0
 23 25  1  0  0  0  0
 24 22  1  0  0  0  0
 26 20  1  0  0  0  0
 27 17  1  0  0  0  0
 28 27  1  0  0  0  0
 31 30  2  0  0  0  0
 32 33  1  0  0  0  0
 32 31  1  0  0  0  0
 33 29  1  6  0  0  0
 33 28  1  0  0  0  0
 34 31  2  0  0  0  0
M  END
>  <MODEL>
3

>  <REMARK>
 VINA RESULT:      -9.9      1.438      2.214
  Name = 
  4 active torsions:
  status: ('A' for Active; 'I' for Inactive)
    1  A    between atoms: C_3  and  C_13
    2  A    between atoms: C_3  and  N_29
    3  A    between atoms: C_12  and  C_28
    4  A    between atoms: C_13  and  C_33
                            x       y       z     vdW  Elec       q    Type
                         _______ _______ _______ _____ _____    ______ ____

>  <TORSDO>
F 4

$$$$
=
 OpenBabel10262419163D

 34 38  0  0  1  0  0  0  0  0999 V2000
  185.4060  178.8110  144.9220 C   0  0  0  0  0  0  0  0  0  0  0  0
  187.1790  177.2620  144.3210 C   0  0  0  0  0  0  0  0  0  0  0  0
  185.6610  178.2700  142.5040 C   0  0  0  0  0  0  0  0  0  0  0  0
  185.9910  178.4360  140.1020 C   0  0  0  0  0  0  0  0  0  0  0  0
  185.8100  178.7560  146.2580 C   0  0  0  0  0  3  0  0  0  0  0  0
  187.5690  177.2100  145.6630 C   0  0  0  0  0  3  0  0  0  0  0  0
  188.0270  178.4670  141.5740 C   0  0  0  0  0  2  0  0  0  0  0  0
  186.1350  178.1330  143.9210 C   0  0  0  0  0  0  0  0  0  0  0  0
  188.7880  178.1350  140.2950 C   0  0  0  0  0  2  0  0  0  0  0  0
  186.8730  178.3790  138.8880 C   0  0  0  0  0  2  0  0  0  0  0  0
  186.9040  177.9720  146.6250 C   0  0  0  0  0  3  0  0  0  0  0  0
  184.2820  178.5180  142.2940 C   0  0  0  0  0  0  0  0  0  0  0  0
  184.1590  179.5550  144.5600 C   0  0  0  0  0  2  0  0  0  0  0  0
  187.7680  176.3380  143.4110 N   0  0  0  0  0  1  0  0  0  0  0  0
  184.6500  178.5410  139.9330 N   0  0  0  0  0  0  0  0  0  0  0  0
  183.7770  178.5950  140.9740 C   0  0  0  0  0  0  0  0  0  0  0  0
  188.2160  178.8890  139.1800 N   0  0  0  0  0  0  0  0  0  0  0  0
  186.5370  178.3120  141.3940 C   0  0  0  0  0  0  0  0  0  0  0  0
  183.3980  178.7660  143.4930 C   0  0  0  0  0  2  0  0  0  0  0  0
  180.0140  178.2840  141.2300 C   0  0  0  0  0  0  0  0  0  0  0  0
  179.5850  179.0790  140.1640 C   0  0  0  0  0  3  0  0  0  0  0  0
  182.3340  178.7510  140.6610 C   0  0  0  0  0  0  0  0  0  0  0  0
  180.5250  179.7190  139.3510 C   0  0  0  0  0  3  0  0  0  0  0  0
  181.3790  178.1260  141.4790 C   0  0  0  0  0  3  0  0  0  0  0  0
  181.8900  179.5590  139.6020 C   0  0  0  0  0  3  0  0  0  0  0  0
  179.0820  177.6530  142.0420 O   0  0  0  0  0  1  0  0  0  0  0  0
  189.0680  178.7420  137.9970 C   0  0  0  0  0  2  0  0  0  0  0  0
  189.7690  177.3760  137.9150 C   0  0  0  0  0  2  0  0  0  0  0  0
  188.2930  176.9420  135.9350 F   0  0  0  0  0  0  0  0  0  0  0  0
  190.8180  174.0740  137.7690 O   0  0  0  0  0  0  0  0  0  0  0  0
  189.6380  174.7780  136.7840 P   0  0  0  0  0  0  0  0  0  0  0  0
  190.4110  176.1060  135.9360 O   0  0  0  0  0  0  0  0  0  0  0  0
  189.3900  176.5580  136.6790 C   0  0  1  0  0  3  0  0  0  0  0  0
  189.0400  173.8660  135.7380 O   0  0  0  0  0  0  0  0  0  0  0  0
  1  5  1  0  0  0  0
  2  6  2  0  0  0  0
  3  8  1  0  0  0  0
  4 18  1  0  0  0  0
  5 11  2  0  0  0  0
  6 11  1  0  0  0  0
  8  2  1  0  0  0  0
  8  1  2  0  0  0  0
  9  7  1  0  0  0  0
 10 17  1  0  0  0  0
 10  4  1  0  0  0  0
 12  3  1  0  0  0  0
 12 19  1  0  0  0  0
 13  1  1  0  0  0  0
 14  2  1  0  0  0  0
 15  4  2  0  0  0  0
 15 16  1  0  0  0  0
 16 12  2  0  0  0  0
 17  9  1  0  0  0  0
 18  7  1  0  0  0  0
 18  3  2  0  0  0  0
 19 13  1  0  0  0  0
 20 24  1  0  0  0  0
 20 26  1  0  0  0  0
 21 20  2  0  0  0  0
 22 16  1  0  0  0  0
 22 24  2  0  0  0  0
 23 25  2  0  0  0  0
 23 21  1  0  0  0  0
 25 22  1  0  0  0  0
 27 17  1  0  0  0  0
 28 27  1  0  0  0  0
 31 30  2  0  0  0  0
 32 33  1  0  0  0  0
 32 31  1  0  0  0  0
 33 29  1  6  0  0  0
 33 28  1  0  0  0  0
 34 31  2  0  0  0  0
M  END
>  <MODEL>
4

>  <REMARK>
 VINA RESULT:      -9.9      1.948      3.357
  Name = 
  4 active torsions:
  status: ('A' for Active; 'I' for Inactive)
    1  A    between atoms: C_3  and  C_13
    2  A    between atoms: C_3  and  N_29
    3  A    between atoms: C_12  and  C_28
    4  A    between atoms: C_13  and  C_33
                            x       y       z     vdW  Elec       q    Type
                         _______ _______ _______ _____ _____    ______ ____

>  <TORSDO>
F 4

$$$$
=
 OpenBabel10262419163D

 34 38  0  0  1  0  0  0  0  0999 V2000
  190.8780  175.9510  144.9880 C   0  0  0  0  0  0  0  0  0  0  0  0
  189.9710  177.5990  146.5250 C   0  0  0  0  0  0  0  0  0  0  0  0
  189.0110  177.3700  144.1490 C   0  0  0  0  0  0  0  0  0  0  0  0
  186.8910  178.1290  143.2350 C   0  0  0  0  0  0  0  0  0  0  0  0
  191.7370  175.4900  145.9880 C   0  0  0  0  0  3  0  0  0  0  0  0
  190.8410  177.1330  147.5160 C   0  0  0  0  0  3  0  0  0  0  0  0
  186.9730  177.5260  145.6730 C   0  0  0  0  0  2  0  0  0  0  0  0
  189.9240  176.9540  145.2650 C   0  0  0  0  0  0  0  0  0  0  0  0
  185.6720  178.3150  145.7710 C   0  0  0  0  0  2  0  0  0  0  0  0
  185.4890  178.6390  143.4120 C   0  0  0  0  0  2  0  0  0  0  0  0
  191.7040  176.0670  147.2580 C   0  0  0  0  0  3  0  0  0  0  0  0
  189.4900  177.2310  142.8220 C   0  0  0  0  0  0  0  0  0  0  0  0
  191.0080  175.4090  143.5990 C   0  0  0  0  0  2  0  0  0  0  0  0
  189.2410  178.7960  146.7780 N   0  0  0  0  0  1  0  0  0  0  0  0
  187.4280  178.1060  141.9910 N   0  0  0  0  0  0  0  0  0  0  0  0
  188.6890  177.6660  141.7390 C   0  0  0  0  0  0  0  0  0  0  0  0
  184.8520  178.0470  144.5910 N   0  0  0  0  0  0  0  0  0  0  0  0
  187.6630  177.7490  144.3490 C   0  0  0  0  0  0  0  0  0  0  0  0
  190.8190  176.5510  142.5990 C   0  0  0  0  0  2  0  0  0  0  0  0
  189.0810  178.6310  138.1000 C   0  0  0  0  0  0  0  0  0  0  0  0
  190.0470  177.7210  137.6630 C   0  0  0  0  0  3  0  0  0  0  0  0
  189.1500  177.6510  140.3270 C   0  0  0  0  0  0  0  0  0  0  0  0
  190.5740  176.7830  138.5540 C   0  0  0  0  0  3  0  0  0  0  0  0
  188.6400  178.5980  139.4260 C   0  0  0  0  0  3  0  0  0  0  0  0
  190.1310  176.7520  139.8790 C   0  0  0  0  0  3  0  0  0  0  0  0
  188.5610  179.5670  137.2180 O   0  0  0  0  0  1  0  0  0  0  0  0
  183.5190  178.6280  144.7750 C   0  0  0  0  0  2  0  0  0  0  0  0
  182.8280  179.0030  143.4530 C   0  0  0  0  0  2  0  0  0  0  0  0
  180.6910  178.6260  144.7110 F   0  0  0  0  0  0  0  0  0  0  0  0
  181.0450  178.7690  140.4880 O   0  0  0  0  0  0  0  0  0  0  0  0
  180.4120  178.5430  142.0400 P   0  0  0  0  0  0  0  0  0  0  0  0
  180.6850  180.0360  142.9220 O   0  0  0  0  0  0  0  0  0  0  0  0
  181.3010  179.0140  143.5330 C   0  0  1  0  0  3  0  0  0  0  0  0
  178.9310  178.2520  142.0980 O   0  0  0  0  0  0  0  0  0  0  0  0
  1  8  2  0  0  0  0
  1  5  1  0  0  0  0
  2 14  1  0  0  0  0
  2  6  2  0  0  0  0
  3 18  1  0  0  0  0
  3  8  1  0  0  0  0
  4 10  1  0  0  0  0
  4 18  2  0  0  0  0
  5 11  2  0  0  0  0
  7  9  1  0  0  0  0
  8  2  1  0  0  0  0
 10 17  1  0  0  0  0
 11  6  1  0  0  0  0
 12  3  2  0  0  0  0
 13  1  1  0  0  0  0
 15  4  1  0  0  0  0
 16 15  2  0  0  0  0
 16 12  1  0  0  0  0
 17 27  1  0  0  0  0
 17  9  1  0  0  0  0
 18  7  1  0  0  0  0
 19 12  1  0  0  0  0
 19 13  1  0  0  0  0
 20 24  1  0  0  0  0
 21 20  2  0  0  0  0
 21 23  1  0  0  0  0
 22 16  1  0  0  0  0
 23 25  2  0  0  0  0
 24 22  2  0  0  0  0
 25 22  1  0  0  0  0
 26 20  1  0  0  0  0
 28 33  1  0  0  0  0
 28 27  1  0  0  0  0
 30 31  2  0  0  0  0
 31 34  2  0  0  0  0
 31 32  1  0  0  0  0
 32 33  1  0  0  0  0
 33 29  1  1  0  0  0
M  END
>  <MODEL>
5

>  <REMARK>
 VINA RESULT:      -9.5      3.421      7.084
  Name = 
  4 active torsions:
  status: ('A' for Active; 'I' for Inactive)
    1  A    between atoms: C_3  and  C_13
    2  A    between atoms: C_3  and  N_29
    3  A    between atoms: C_12  and  C_28
    4  A    between atoms: C_13  and  C_33
                            x       y       z     vdW  Elec       q    Type
                         _______ _______ _______ _____ _____    ______ ____

>  <TORSDO>
F 4

$$$$
=
 OpenBabel10262419163D

 34 38  0  0  1  0  0  0  0  0999 V2000
  188.3720  177.1140  146.3640 C   0  0  0  0  0  0  0  0  0  0  0  0
  186.8850  178.8590  147.1700 C   0  0  0  0  0  0  0  0  0  0  0  0
  186.8740  178.1850  144.6860 C   0  0  0  0  0  0  0  0  0  0  0  0
  185.2000  178.5690  142.9670 C   0  0  0  0  0  0  0  0  0  0  0  0
  188.8270  176.8980  147.6670 C   0  0  0  0  0  3  0  0  0  0  0  0
  187.3550  178.6380  148.4690 C   0  0  0  0  0  3  0  0  0  0  0  0
  184.4150  178.3370  145.3420 C   0  0  0  0  0  2  0  0  0  0  0  0
  187.3340  178.0370  146.1070 C   0  0  0  0  0  0  0  0  0  0  0  0
  183.1310  178.9860  144.8360 C   0  0  0  0  0  2  0  0  0  0  0  0
  183.8080  178.9430  142.5460 C   0  0  0  0  0  2  0  0  0  0  0  0
  188.3030  177.6460  148.7210 C   0  0  0  0  0  3  0  0  0  0  0  0
  187.8100  177.9090  143.6600 C   0  0  0  0  0  0  0  0  0  0  0  0
  189.0270  176.3950  145.2270 C   0  0  0  0  0  2  0  0  0  0  0  0
  186.0560  179.9930  146.9360 N   0  0  0  0  0  1  0  0  0  0  0  0
  186.1550  178.4250  142.0160 N   0  0  0  0  0  0  0  0  0  0  0  0
  187.4410  178.0920  142.3060 C   0  0  0  0  0  0  0  0  0  0  0  0
  182.8130  178.4610  143.5080 N   0  0  0  0  0  0  0  0  0  0  0  0
  185.5290  178.4400  144.3300 C   0  0  0  0  0  0  0  0  0  0  0  0
  189.1620  177.3520  144.0420 C   0  0  0  0  0  2  0  0  0  0  0  0
  189.0560  178.5160  138.9090 C   0  0  0  0  0  0  0  0  0  0  0  0
  190.1880  177.7060  139.0250 C   0  0  0  0  0  3  0  0  0  0  0  0
  188.3860  177.9240  141.1730 C   0  0  0  0  0  0  0  0  0  0  0  0
  190.4290  177.0110  140.2130 C   0  0  0  0  0  3  0  0  0  0  0  0
  188.1640  178.6280  139.9790 C   0  0  0  0  0  3  0  0  0  0  0  0
  189.5360  177.1250  141.2820 C   0  0  0  0  0  3  0  0  0  0  0  0
  188.8180  179.2110  137.7310 O   0  0  0  0  0  1  0  0  0  0  0  0
  181.4780  178.9150  143.1060 C   0  0  0  0  0  2  0  0  0  0  0  0
  181.3080  179.0380  141.5830 C   0  0  0  0  0  2  0  0  0  0  0  0
  179.6860  177.1270  141.6630 F   0  0  0  0  0  0  0  0  0  0  0  0
  182.9520  177.4430  138.9790 O   0  0  0  0  0  0  0  0  0  0  0  0
  181.6370  176.8220  139.8430 P   0  0  0  0  0  0  0  0  0  0  0  0
  180.3140  177.9570  139.6370 O   0  0  0  0  0  0  0  0  0  0  0  0
  180.6240  177.8320  140.9360 C   0  0  1  0  0  3  0  0  0  0  0  0
  181.1430  175.4700  139.3850 O   0  0  0  0  0  0  0  0  0  0  0  0
  1  5  1  0  0  0  0
  2  6  2  0  0  0  0
  3  8  1  0  0  0  0
  4 18  2  0  0  0  0
  5 11  2  0  0  0  0
  6 11  1  0  0  0  0
  8  1  2  0  0  0  0
  8  2  1  0  0  0  0
  9  7  1  0  0  0  0
 10  4  1  0  0  0  0
 10 17  1  0  0  0  0
 12 19  1  0  0  0  0
 12  3  2  0  0  0  0
 13  1  1  0  0  0  0
 14  2  1  0  0  0  0
 15 16  2  0  0  0  0
 15  4  1  0  0  0  0
 16 12  1  0  0  0  0
 17  9  1  0  0  0  0
 18  3  1  0  0  0  0
 18  7  1  0  0  0  0
 19 13  1  0  0  0  0
 20 21  2  0  0  0  0
 20 24  1  0  0  0  0
 21 23  1  0  0  0  0
 22 25  1  0  0  0  0
 22 16  1  0  0  0  0
 23 25  2  0  0  0  0
 24 22  2  0  0  0  0
 26 20  1  0  0  0  0
 27 17  1  0  0  0  0
 28 27  1  0  0  0  0
 30 31  2  0  0  0  0
 32 31  1  0  0  0  0
 32 33  1  0  0  0  0
 33 28  1  0  0  0  0
 33 29  1  1  0  0  0
 34 31  2  0  0  0  0
M  END
>  <MODEL>
6

>  <REMARK>
 VINA RESULT:      -9.4      3.264      6.670
  Name = 
  4 active torsions:
  status: ('A' for Active; 'I' for Inactive)
    1  A    between atoms: C_3  and  C_13
    2  A    between atoms: C_3  and  N_29
    3  A    between atoms: C_12  and  C_28
    4  A    between atoms: C_13  and  C_33
                            x       y       z     vdW  Elec       q    Type
                         _______ _______ _______ _____ _____    ______ ____

>  <TORSDO>
F 4

$$$$
=
 OpenBabel10262419163D

 34 38  0  0  1  0  0  0  0  0999 V2000
  185.8300  177.5750  137.2840 C   0  0  0  0  0  0  0  0  0  0  0  0
  187.9940  178.6560  137.0560 C   0  0  0  0  0  0  0  0  0  0  0  0
  187.0400  178.1360  139.3880 C   0  0  0  0  0  0  0  0  0  0  0  0
  188.1560  177.9940  141.5420 C   0  0  0  0  0  0  0  0  0  0  0  0
  185.7350  177.4700  135.8940 C   0  0  0  0  0  3  0  0  0  0  0  0
  187.8830  178.5530  135.6660 C   0  0  0  0  0  3  0  0  0  0  0  0
  189.4770  177.3950  139.4900 C   0  0  0  0  0  2  0  0  0  0  0  0
  186.9970  178.0910  137.8890 C   0  0  0  0  0  0  0  0  0  0  0  0
  190.6950  177.5810  140.3890 C   0  0  0  0  0  2  0  0  0  0  0  0
  189.4020  177.8810  142.3730 C   0  0  0  0  0  2  0  0  0  0  0  0
  186.7700  177.9410  135.0860 C   0  0  0  0  0  3  0  0  0  0  0  0
  185.8070  178.2490  140.0770 C   0  0  0  0  0  0  0  0  0  0  0  0
  184.6630  177.1800  138.1340 C   0  0  0  0  0  2  0  0  0  0  0  0
  189.0550  179.4420  137.5910 N   0  0  0  0  0  1  0  0  0  0  0  0
  186.9740  178.2340  142.1610 N   0  0  0  0  0  0  0  0  0  0  0  0
  185.8000  178.3560  141.4880 C   0  0  0  0  0  0  0  0  0  0  0  0
  190.4060  177.0410  141.7160 N   0  0  0  0  0  0  0  0  0  0  0  0
  188.2200  177.9240  140.1370 C   0  0  0  0  0  0  0  0  0  0  0  0
  184.5230  178.1780  139.2840 C   0  0  0  0  0  2  0  0  0  0  0  0
  183.5130  178.9190  144.4510 C   0  0  0  0  0  0  0  0  0  0  0  0
  182.2720  179.0790  143.8310 C   0  0  0  0  0  3  0  0  0  0  0  0
  184.5650  178.5780  142.2830 C   0  0  0  0  0  0  0  0  0  0  0  0
  182.1720  178.9990  142.4390 C   0  0  0  0  0  3  0  0  0  0  0  0
  184.6530  178.6750  143.6810 C   0  0  0  0  0  3  0  0  0  0  0  0
  183.3140  178.7550  141.6710 C   0  0  0  0  0  3  0  0  0  0  0  0
  183.6130  179.0030  145.8330 O   0  0  0  0  0  1  0  0  0  0  0  0
  191.6330  177.0210  142.5180 C   0  0  0  0  0  2  0  0  0  0  0  0
  191.5140  177.8030  143.8360 C   0  0  0  0  0  2  0  0  0  0  0  0
  192.0480  175.6560  145.0180 F   0  0  0  0  0  0  0  0  0  0  0  0
  189.0720  178.4280  146.2180 O   0  0  0  0  0  0  0  0  0  0  0  0
  190.0170  177.0280  146.1180 P   0  0  0  0  0  0  0  0  0  0  0  0
  191.6920  177.5360  146.2530 O   0  0  0  0  0  0  0  0  0  0  0  0
  191.4850  176.9160  145.0820 C   0  0  1  0  0  3  0  0  0  0  0  0
  189.7710  176.0030  147.2000 O   0  0  0  0  0  0  0  0  0  0  0  0
  1  8  1  0  0  0  0
  1 13  1  0  0  0  0
  2 14  1  0  0  0  0
  2  8  2  0  0  0  0
  3 12  2  0  0  0  0
  3 18  1  0  0  0  0
  4 15  1  0  0  0  0
  4 10  1  0  0  0  0
  5  1  2  0  0  0  0
  6  2  1  0  0  0  0
  7 18  1  0  0  0  0
  7  9  1  0  0  0  0
  8  3  1  0  0  0  0
  9 17  1  0  0  0  0
 11  6  2  0  0  0  0
 11  5  1  0  0  0  0
 12 16  1  0  0  0  0
 13 19  1  0  0  0  0
 16 15  2  0  0  0  0
 16 22  1  0  0  0  0
 17 10  1  0  0  0  0
 17 27  1  0  0  0  0
 18  4  2  0  0  0  0
 19 12  1  0  0  0  0
 20 26  1  0  0  0  0
 21 20  1  0  0  0  0
 22 24  1  0  0  0  0
 23 21  2  0  0  0  0
 24 20  2  0  0  0  0
 25 22  2  0  0  0  0
 25 23  1  0  0  0  0
 27 28  1  0  0  0  0
 28 33  1  0  0  0  0
 31 30  2  0  0  0  0
 31 32  1  0  0  0  0
 31 34  2  0  0  0  0
 33 29  1  6  0  0  0
 33 32  1  0  0  0  0
M  END
>  <MODEL>
7

>  <REMARK>
 VINA RESULT:      -9.2      4.284      6.759
  Name = 
  4 active torsions:
  status: ('A' for Active; 'I' for Inactive)
    1  A    between atoms: C_3  and  C_13
    2  A    between atoms: C_3  and  N_29
    3  A    between atoms: C_12  and  C_28
    4  A    between atoms: C_13  and  C_33
                            x       y       z     vdW  Elec       q    Type
                         _______ _______ _______ _____ _____    ______ ____

>  <TORSDO>
F 4

$$$$
=
 OpenBabel10262419163D

 34 38  0  0  1  0  0  0  0  0999 V2000
  182.1130  178.6090  141.1550 C   0  0  0  0  0  0  0  0  0  0  0  0
  182.9520  179.9650  139.3220 C   0  0  0  0  0  0  0  0  0  0  0  0
  184.5860  178.8510  140.9690 C   0  0  0  0  0  0  0  0  0  0  0  0
  186.9610  178.3910  140.7500 C   0  0  0  0  0  0  0  0  0  0  0  0
  180.8080  178.7910  140.6940 C   0  0  0  0  0  3  0  0  0  0  0  0
  181.6400  180.1460  138.8750 C   0  0  0  0  0  3  0  0  0  0  0  0
  185.5670  178.4020  138.6600 C   0  0  0  0  0  2  0  0  0  0  0  0
  183.2110  179.1210  140.4300 C   0  0  0  0  0  0  0  0  0  0  0  0
  186.9020  178.5370  137.9350 C   0  0  0  0  0  2  0  0  0  0  0  0
  188.2030  178.2540  139.9170 C   0  0  0  0  0  2  0  0  0  0  0  0
  180.5730  179.5420  139.5420 C   0  0  0  0  0  3  0  0  0  0  0  0
  184.7180  178.6680  142.3680 C   0  0  0  0  0  0  0  0  0  0  0  0
  182.3430  177.9070  142.4570 C   0  0  0  0  0  2  0  0  0  0  0  0
  183.9830  180.7400  138.7180 N   0  0  0  0  0  1  0  0  0  0  0  0
  187.0700  178.3510  142.1000 N   0  0  0  0  0  0  0  0  0  0  0  0
  186.0010  178.4710  142.9310 C   0  0  0  0  0  0  0  0  0  0  0  0
  187.9000  177.6970  138.5950 N   0  0  0  0  0  0  0  0  0  0  0  0
  185.7120  178.6280  140.1450 C   0  0  0  0  0  0  0  0  0  0  0  0
  183.4670  178.6140  143.2140 C   0  0  0  0  0  2  0  0  0  0  0  0
  187.6440  177.5940  146.2260 C   0  0  0  0  0  0  0  0  0  0  0  0
  186.7970  178.2180  147.1450 C   0  0  0  0  0  3  0  0  0  0  0  0
  186.2440  178.3700  144.3930 C   0  0  0  0  0  0  0  0  0  0  0  0
  185.6800  178.9260  146.6950 C   0  0  0  0  0  3  0  0  0  0  0  0
  187.3710  177.6750  144.8580 C   0  0  0  0  0  3  0  0  0  0  0  0
  185.4090  179.0050  145.3260 C   0  0  0  0  0  3  0  0  0  0  0  0
  188.7570  176.8950  146.6720 O   0  0  0  0  0  1  0  0  0  0  0  0
  189.1210  177.6550  137.7860 C   0  0  0  0  0  2  0  0  0  0  0  0
  189.7220  176.2450  137.6610 C   0  0  0  0  0  2  0  0  0  0  0  0
  190.9280  176.4210  139.8530 F   0  0  0  0  0  0  0  0  0  0  0  0
  192.7920  175.9420  136.0760 O   0  0  0  0  0  0  0  0  0  0  0  0
  192.5580  176.2160  137.7280 P   0  0  0  0  0  0  0  0  0  0  0  0
  191.6160  174.8670  138.3380 O   0  0  0  0  0  0  0  0  0  0  0  0
  190.9600  176.0200  138.5320 C   0  0  1  0  0  3  0  0  0  0  0  0
  193.8200  176.2920  138.5560 O   0  0  0  0  0  0  0  0  0  0  0  0
  1 13  1  0  0  0  0
  2  8  1  0  0  0  0
  3 12  1  0  0  0  0
  4 15  2  0  0  0  0
  5  1  1  0  0  0  0
  6  2  2  0  0  0  0
  6 11  1  0  0  0  0
  7 18  1  0  0  0  0
  8  3  1  0  0  0  0
  8  1  2  0  0  0  0
  9 17  1  0  0  0  0
  9  7  1  0  0  0  0
 10  4  1  0  0  0  0
 11  5  2  0  0  0  0
 12 16  2  0  0  0  0
 12 19  1  0  0  0  0
 13 19  1  0  0  0  0
 14  2  1  0  0  0  0
 15 16  1  0  0  0  0
 16 22  1  0  0  0  0
 17 10  1  0  0  0  0
 18  4  1  0  0  0  0
 18  3  2  0  0  0  0
 20 26  1  0  0  0  0
 20 21  1  0  0  0  0
 22 24  1  0  0  0  0
 22 25  2  0  0  0  0
 23 21  2  0  0  0  0
 24 20  2  0  0  0  0
 25 23  1  0  0  0  0
 27 17  1  0  0  0  0
 28 27  1  0  0  0  0
 28 33  1  0  0  0  0
 30 31  2  0  0  0  0
 31 32  1  0  0  0  0
 31 34  2  0  0  0  0
 32 33  1  0  0  0  0
 33 29  1  1  0  0  0
M  END
>  <MODEL>
8

>  <REMARK>
 VINA RESULT:      -9.2      2.934      6.068
  Name = 
  4 active torsions:
  status: ('A' for Active; 'I' for Inactive)
    1  A    between atoms: C_3  and  C_13
    2  A    between atoms: C_3  and  N_29
    3  A    between atoms: C_12  and  C_28
    4  A    between atoms: C_13  and  C_33
                            x       y       z     vdW  Elec       q    Type
                         _______ _______ _______ _____ _____    ______ ____

>  <TORSDO>
F 4

$$$$
=
 OpenBabel10262419163D

 34 38  0  0  1  0  0  0  0  0999 V2000
  187.0290  177.4460  144.4650 C   0  0  0  0  0  0  0  0  0  0  0  0
  185.3640  179.1610  144.9000 C   0  0  0  0  0  0  0  0  0  0  0  0
  185.8520  178.4050  142.4900 C   0  0  0  0  0  0  0  0  0  0  0  0
  184.5320  178.6690  140.4670 C   0  0  0  0  0  0  0  0  0  0  0  0
  187.2300  177.2910  145.8390 C   0  0  0  0  0  3  0  0  0  0  0  0
  185.5800  179.0020  146.2730 C   0  0  0  0  0  3  0  0  0  0  0  0
  183.3100  178.4880  142.6550 C   0  0  0  0  0  2  0  0  0  0  0  0
  186.0340  178.3210  143.9770 C   0  0  0  0  0  0  0  0  0  0  0  0
  182.1290  179.0730  141.8860 C   0  0  0  0  0  2  0  0  0  0  0  0
  183.2370  178.9780  139.7720 C   0  0  0  0  0  2  0  0  0  0  0  0
  186.4910  178.0540  146.7430 C   0  0  0  0  0  3  0  0  0  0  0  0
  186.9770  178.1280  141.6740 C   0  0  0  0  0  0  0  0  0  0  0  0
  187.9120  176.7130  143.5050 C   0  0  0  0  0  2  0  0  0  0  0  0
  184.5620  180.2550  144.4670 N   0  0  0  0  0  1  0  0  0  0  0  0
  185.6570  178.5280  139.7240 N   0  0  0  0  0  0  0  0  0  0  0  0
  186.8720  178.2530  140.2690 C   0  0  0  0  0  0  0  0  0  0  0  0
  182.0890  178.4930  140.5440 N   0  0  0  0  0  0  0  0  0  0  0  0
  184.5950  178.5980  141.8720 C   0  0  0  0  0  0  0  0  0  0  0  0
  188.2450  177.6340  142.3300 C   0  0  0  0  0  2  0  0  0  0  0  0
  190.0860  176.9220  138.7790 C   0  0  0  0  0  0  0  0  0  0  0  0
  190.1800  177.6550  137.5940 C   0  0  0  0  0  3  0  0  0  0  0  0
  188.0230  178.0810  139.3460 C   0  0  0  0  0  0  0  0  0  0  0  0
  189.1960  178.5940  137.2750 C   0  0  0  0  0  3  0  0  0  0  0  0
  189.0110  177.1300  139.6460 C   0  0  0  0  0  3  0  0  0  0  0  0
  188.1210  178.8010  138.1450 C   0  0  0  0  0  3  0  0  0  0  0  0
  191.0610  175.9850  139.0930 O   0  0  0  0  0  1  0  0  0  0  0  0
  180.8450  178.8830  139.8750 C   0  0  0  0  0  2  0  0  0  0  0  0
  181.0700  179.7210  138.6060 C   0  0  0  0  0  2  0  0  0  0  0  0
  180.1330  181.6280  139.9390 F   0  0  0  0  0  0  0  0  0  0  0  0
  180.8060  181.6750  135.7530 O   0  0  0  0  0  0  0  0  0  0  0  0
  180.2880  182.1160  137.3020 P   0  0  0  0  0  0  0  0  0  0  0  0
  181.7000  182.0620  138.3440 O   0  0  0  0  0  0  0  0  0  0  0  0
  180.7630  181.2090  138.7830 C   0  0  1  0  0  3  0  0  0  0  0  0
  179.6990  183.5020  137.4170 O   0  0  0  0  0  0  0  0  0  0  0  0
  1  5  1  0  0  0  0
  2  6  2  0  0  0  0
  3  8  1  0  0  0  0
  4 18  2  0  0  0  0
  5 11  2  0  0  0  0
  6 11  1  0  0  0  0
  8  1  2  0  0  0  0
  8  2  1  0  0  0  0
  9  7  1  0  0  0  0
 10  4  1  0  0  0  0
 10 17  1  0  0  0  0
 12 19  1  0  0  0  0
 12  3  2  0  0  0  0
 13  1  1  0  0  0  0
 14  2  1  0  0  0  0
 15 16  2  0  0  0  0
 15  4  1  0  0  0  0
 16 12  1  0  0  0  0
 17  9  1  0  0  0  0
 18  3  1  0  0  0  0
 18  7  1  0  0  0  0
 19 13  1  0  0  0  0
 20 26  1  0  0  0  0
 20 24  1  0  0  0  0
 21 20  2  0  0  0  0
 22 24  2  0  0  0  0
 22 16  1  0  0  0  0
 23 21  1  0  0  0  0
 23 25  2  0  0  0  0
 25 22  1  0  0  0  0
 27 17  1  0  0  0  0
 28 33  1  0  0  0  0
 28 27  1  0  0  0  0
 30 31  2  0  0  0  0
 31 34  2  0  0  0  0
 31 32  1  0  0  0  0
 32 33  1  0  0  0  0
 33 29  1  1  0  0  0
M  END
>  <MODEL>
9

>  <REMARK>
 VINA RESULT:      -9.1      3.811      7.537
  Name = 
  4 active torsions:
  status: ('A' for Active; 'I' for Inactive)
    1  A    between atoms: C_3  and  C_13
    2  A    between atoms: C_3  and  N_29
    3  A    between atoms: C_12  and  C_28
    4  A    between atoms: C_13  and  C_33
                            x       y       z     vdW  Elec       q    Type
                         _______ _______ _______ _____ _____    ______ ____

>  <TORSDO>
F 4

$$$$
