=
 OpenBabel10262420113D

 27 32  0  0  1  0  0  0  0  0999 V2000
  190.7530  177.0040  139.9110 C   0  0  2  0  0  3  0  0  0  0  0  0
  189.4480  177.3220  139.2360 C   0  0  0  0  0  0  0  0  0  0  0  0
  190.4500  175.8300  137.8490 C   0  0  2  0  0  0  0  0  0  0  0  0
  185.8730  177.5580  137.5030 N   0  0  0  0  0  0  0  0  0  0  0  0
  185.5210  177.2790  135.1130 C   0  0  0  0  0  1  0  0  0  0  0  0
  188.5000  178.3640  139.6850 C   0  0  0  0  0  3  0  0  0  0  0  0
  187.2910  175.6170  136.3870 S   0  0  0  0  0  0  0  0  0  0  0  0
  193.1760  176.3110  137.1930 C   0  0  0  0  0  0  0  0  0  0  0  0
  190.2830  174.4420  137.2880 C   0  0  0  0  0  2  0  0  0  0  0  0
  194.3600  176.8510  136.7090 O   0  0  0  0  0  1  0  0  0  0  0  0
  188.1530  177.0230  137.1510 C   0  0  1  0  0  3  0  0  0  0  0  0
  185.7340  176.5750  136.4420 C   0  0  1  0  0  3  0  0  0  0  0  0
  187.0870  177.7850  137.8650 C   0  0  0  0  0  0  0  0  0  0  0  0
  191.4730  176.0250  138.9630 C   0  0  1  0  0  3  0  0  0  0  0  0
  189.2410  176.6320  138.1210 C   0  0  0  0  0  0  0  0  0  0  0  0
  192.4090  175.3450  136.3310 C   0  0  0  0  0  2  0  0  0  0  0  0
  187.3880  178.5570  139.0360 N   0  0  0  0  0  0  0  0  0  0  0  0
  193.5080  177.4680  139.2250 O   0  0  0  0  0  1  0  0  0  0  0  0
  192.7470  176.6230  138.4230 C   0  0  0  0  0  0  0  0  0  0  0  0
  190.8950  175.5530  136.4210 C   0  0  2  0  0  3  0  0  0  0  0  0
  190.5360  176.3740  141.2880 C   0  0  0  0  0  2  0  0  0  0  0  0
  190.0910  178.3060  145.0080 C   0  0  0  0  0  2  0  0  0  0  0  0
  190.1390  177.3730  142.2710 N   0  0  0  0  0  0  0  0  0  0  0  0
  191.3630  177.8510  142.9120 C   0  0  0  0  0  2  0  0  0  0  0  0
  191.0190  178.9100  143.9570 C   0  0  0  0  0  2  0  0  0  0  0  0
  188.8700  177.6780  144.3400 C   0  0  0  0  0  2  0  0  0  0  0  0
  189.3280  176.6850  143.2740 C   0  0  0  0  0  2  0  0  0  0  0  0
  1 21  1  1  0  0  0
  2  6  1  0  0  0  0
  2  1  1  0  0  0  0
  3  9  1  1  0  0  0
  3 15  1  0  0  0  0
  3 14  1  0  0  0  0
  4 13  2  0  0  0  0
  7 12  1  0  0  0  0
  8 19  2  0  0  0  0
 10  8  1  0  0  0  0
 11  7  1  1  0  0  0
 11 13  1  0  0  0  0
 11 15  1  0  0  0  0
 12  5  1  6  0  0  0
 12  4  1  0  0  0  0
 13 17  1  0  0  0  0
 14 19  1  6  0  0  0
 14  1  1  0  0  0  0
 15  2  2  0  0  0  0
 16  8  1  0  0  0  0
 17  6  2  0  0  0  0
 19 18  1  0  0  0  0
 20 16  1  1  0  0  0
 20  9  1  0  0  0  0
 20  3  1  0  0  0  0
 21 23  1  0  0  0  0
 23 24  1  0  0  0  0
 23 27  1  0  0  0  0
 24 25  1  0  0  0  0
 25 22  1  0  0  0  0
 26 22  1  0  0  0  0
 27 26  1  0  0  0  0
M  END
>  <MODEL>
1

>  <REMARK>
 VINA RESULT:      -8.1      0.000      0.000
  Name = 
  2 active torsions:
  status: ('A' for Active; 'I' for Inactive)
    1  A    between atoms: C_1  and  C_15
    2  A    between atoms: N_9  and  C_15
                            x       y       z     vdW  Elec       q    Type
                         _______ _______ _______ _____ _____    ______ ____

>  <TORSDO>
F 2

$$$$
=
 OpenBabel10262420113D

 27 32  0  0  1  0  0  0  0  0999 V2000
  184.9950  178.5840  142.7400 C   0  0  2  0  0  3  0  0  0  0  0  0
  186.2940  178.4750  141.9910 C   0  0  0  0  0  0  0  0  0  0  0  0
  186.7420  177.5810  144.0290 C   0  0  2  0  0  0  0  0  0  0  0  0
  189.6790  177.5740  140.1000 N   0  0  0  0  0  0  0  0  0  0  0  0
  191.8340  177.4160  141.2140 C   0  0  0  0  0  1  0  0  0  0  0  0
  186.5490  179.0590  140.6570 C   0  0  0  0  0  3  0  0  0  0  0  0
  189.6240  176.3870  142.4690 S   0  0  0  0  0  0  0  0  0  0  0  0
  185.8980  179.0680  146.3020 C   0  0  0  0  0  0  0  0  0  0  0  0
  187.1340  176.2860  144.6910 C   0  0  0  0  0  2  0  0  0  0  0  0
  185.7380  180.0420  147.2800 O   0  0  0  0  0  1  0  0  0  0  0  0
  188.6940  177.9300  142.2250 C   0  0  1  0  0  3  0  0  0  0  0  0
  190.5230  176.7130  140.9100 C   0  0  1  0  0  3  0  0  0  0  0  0
  188.7560  178.1870  140.7570 C   0  0  0  0  0  0  0  0  0  0  0  0
  185.2870  178.0240  144.1450 C   0  0  1  0  0  3  0  0  0  0  0  0
  187.2560  177.8660  142.6740 C   0  0  0  0  0  0  0  0  0  0  0  0
  186.9120  177.9790  146.5170 C   0  0  0  0  0  2  0  0  0  0  0  0
  187.7070  178.9000  140.0850 N   0  0  0  0  0  0  0  0  0  0  0  0
  184.1580  180.0700  145.0570 O   0  0  0  0  0  1  0  0  0  0  0  0
  185.1330  179.0880  145.2020 C   0  0  0  0  0  0  0  0  0  0  0  0
  187.6690  177.6190  145.2350 C   0  0  2  0  0  3  0  0  0  0  0  0
  183.8810  177.7900  142.0540 C   0  0  0  0  0  2  0  0  0  0  0  0
  179.9520  179.0730  141.2310 C   0  0  0  0  0  2  0  0  0  0  0  0
  182.7830  178.6570  141.6530 N   0  0  0  0  0  0  0  0  0  0  0  0
  181.8690  178.7450  142.7910 C   0  0  0  0  0  2  0  0  0  0  0  0
  180.6890  179.6470  142.4380 C   0  0  0  0  0  2  0  0  0  0  0  0
  180.9220  178.8460  140.0750 C   0  0  0  0  0  2  0  0  0  0  0  0
  182.0900  177.9870  140.5530 C   0  0  0  0  0  2  0  0  0  0  0  0
  1 21  1  6  0  0  0
  1 14  1  0  0  0  0
  2 15  2  0  0  0  0
  2  1  1  0  0  0  0
  3 14  1  0  0  0  0
  3  9  1  6  0  0  0
  3 20  1  0  0  0  0
  4 13  2  0  0  0  0
  4 12  1  0  0  0  0
  6  2  1  0  0  0  0
  8 16  1  0  0  0  0
  8 10  1  0  0  0  0
 11 13  1  6  0  0  0
 11  7  1  0  0  0  0
 11 15  1  0  0  0  0
 12  5  1  1  0  0  0
 12  7  1  0  0  0  0
 14 19  1  1  0  0  0
 15  3  1  0  0  0  0
 17  6  2  0  0  0  0
 17 13  1  0  0  0  0
 18 19  1  0  0  0  0
 19  8  2  0  0  0  0
 20  9  1  1  0  0  0
 20 16  1  0  0  0  0
 22 25  1  0  0  0  0
 23 21  1  0  0  0  0
 23 24  1  0  0  0  0
 25 24  1  0  0  0  0
 26 27  1  0  0  0  0
 26 22  1  0  0  0  0
 27 23  1  0  0  0  0
M  END
>  <MODEL>
2

>  <REMARK>
 VINA RESULT:      -7.9      5.201      8.359
  Name = 
  2 active torsions:
  status: ('A' for Active; 'I' for Inactive)
    1  A    between atoms: C_1  and  C_15
    2  A    between atoms: N_9  and  C_15
                            x       y       z     vdW  Elec       q    Type
                         _______ _______ _______ _____ _____    ______ ____

>  <TORSDO>
F 2

$$$$
=
 OpenBabel10262420113D

 27 32  0  0  1  0  0  0  0  0999 V2000
  187.8970  177.7510  143.4900 C   0  0  2  0  0  3  0  0  0  0  0  0
  187.4560  178.0560  142.0850 C   0  0  0  0  0  0  0  0  0  0  0  0
  189.5870  177.3050  141.8580 C   0  0  2  0  0  0  0  0  0  0  0  0
  186.4020  178.2630  138.2530 N   0  0  0  0  0  0  0  0  0  0  0  0
  187.9680  178.7490  136.4560 C   0  0  0  0  0  1  0  0  0  0  0  0
  186.1820  178.7140  141.7250 C   0  0  0  0  0  3  0  0  0  0  0  0
  188.7600  177.0740  138.4770 S   0  0  0  0  0  0  0  0  0  0  0  0
  191.5400  178.4240  143.5970 C   0  0  0  0  0  0  0  0  0  0  0  0
  190.3840  176.1790  141.2530 C   0  0  0  0  0  2  0  0  0  0  0  0
  192.4080  179.2840  144.2580 O   0  0  0  0  0  1  0  0  0  0  0  0
  188.2380  178.2640  139.7490 C   0  0  1  0  0  3  0  0  0  0  0  0
  187.4200  177.6860  137.3920 C   0  0  1  0  0  3  0  0  0  0  0  0
  186.8080  178.5530  139.4390 C   0  0  0  0  0  0  0  0  0  0  0  0
  189.3590  177.2820  143.3660 C   0  0  1  0  0  3  0  0  0  0  0  0
  188.3650  177.7570  141.1630 C   0  0  0  0  0  0  0  0  0  0  0  0
  192.0280  177.6910  142.3780 C   0  0  0  0  0  2  0  0  0  0  0  0
  185.8870  178.9260  140.4750 N   0  0  0  0  0  0  0  0  0  0  0  0
  189.8940  178.8700  145.2320 O   0  0  0  0  0  1  0  0  0  0  0  0
  190.3000  178.2290  144.0650 C   0  0  0  0  0  0  0  0  0  0  0  0
  190.9630  177.6020  141.2810 C   0  0  2  0  0  3  0  0  0  0  0  0
  187.0260  176.6680  144.1300 C   0  0  0  0  0  2  0  0  0  0  0  0
  186.0380  179.2310  147.3270 C   0  0  0  0  0  2  0  0  0  0  0  0
  186.4300  177.1340  145.3740 N   0  0  0  0  0  0  0  0  0  0  0  0
  185.6220  178.3090  145.0490 C   0  0  0  0  0  2  0  0  0  0  0  0
  184.9620  178.8500  146.3140 C   0  0  0  0  0  2  0  0  0  0  0  0
  186.9760  178.0530  147.5750 C   0  0  0  0  0  2  0  0  0  0  0  0
  187.5290  177.5540  146.2420 C   0  0  0  0  0  2  0  0  0  0  0  0
  1 21  1  6  0  0  0
  2  1  1  0  0  0  0
  3  9  1  6  0  0  0
  3 14  1  0  0  0  0
  4 13  2  0  0  0  0
  6  2  1  0  0  0  0
  8 19  2  0  0  0  0
  8 10  1  0  0  0  0
 11  7  1  6  0  0  0
 11 15  1  0  0  0  0
 12  5  1  6  0  0  0
 12  4  1  0  0  0  0
 12  7  1  0  0  0  0
 13 11  1  0  0  0  0
 13 17  1  0  0  0  0
 14  1  1  0  0  0  0
 14 19  1  1  0  0  0
 15  3  1  0  0  0  0
 15  2  2  0  0  0  0
 16  8  1  0  0  0  0
 17  6  2  0  0  0  0
 19 18  1  0  0  0  0
 20  9  1  6  0  0  0
 20  3  1  0  0  0  0
 20 16  1  0  0  0  0
 21 23  1  0  0  0  0
 22 26  1  0  0  0  0
 23 27  1  0  0  0  0
 24 23  1  0  0  0  0
 24 25  1  0  0  0  0
 25 22  1  0  0  0  0
 27 26  1  0  0  0  0
M  END
>  <MODEL>
3

>  <REMARK>
 VINA RESULT:      -7.8      3.221      4.750
  Name = 
  2 active torsions:
  status: ('A' for Active; 'I' for Inactive)
    1  A    between atoms: C_1  and  C_15
    2  A    between atoms: N_9  and  C_15
                            x       y       z     vdW  Elec       q    Type
                         _______ _______ _______ _____ _____    ______ ____

>  <TORSDO>
F 2

$$$$
=
 OpenBabel10262420113D

 27 32  0  0  1  0  0  0  0  0999 V2000
  189.4730  177.3520  141.1600 C   0  0  2  0  0  3  0  0  0  0  0  0
  188.5160  177.6510  140.0400 C   0  0  0  0  0  0  0  0  0  0  0  0
  190.2070  176.5050  139.0480 C   0  0  2  0  0  0  0  0  0  0  0  0
  185.9480  177.8250  137.0040 N   0  0  0  0  0  0  0  0  0  0  0  0
  186.6330  177.9040  134.6720 C   0  0  0  0  0  1  0  0  0  0  0  0
  187.3210  178.5120  140.1590 C   0  0  0  0  0  3  0  0  0  0  0  0
  187.9740  176.2330  136.3830 S   0  0  0  0  0  0  0  0  0  0  0  0
  192.8580  177.3410  139.6510 C   0  0  0  0  0  0  0  0  0  0  0  0
  190.4940  175.2170  138.3220 C   0  0  0  0  0  2  0  0  0  0  0  0
  194.0390  178.0620  139.7690 O   0  0  0  0  0  1  0  0  0  0  0  0
  188.2300  177.5720  137.5850 C   0  0  1  0  0  3  0  0  0  0  0  0
  186.3990  177.0180  135.8830 C   0  0  1  0  0  3  0  0  0  0  0  0
  186.8640  178.1040  137.8640 C   0  0  0  0  0  0  0  0  0  0  0  0
  190.6540  176.6130  140.5020 C   0  0  1  0  0  3  0  0  0  0  0  0
  188.8830  177.1340  138.8720 C   0  0  0  0  0  0  0  0  0  0  0  0
  192.6600  176.4590  138.4480 C   0  0  0  0  0  2  0  0  0  0  0  0
  186.5470  178.7010  139.1300 N   0  0  0  0  0  0  0  0  0  0  0  0
  192.1650  178.1810  141.7470 O   0  0  0  0  0  1  0  0  0  0  0  0
  191.9290  177.4080  140.6140 C   0  0  0  0  0  0  0  0  0  0  0  0
  191.2240  176.5060  137.9170 C   0  0  2  0  0  3  0  0  0  0  0  0
  188.8200  176.4900  142.2420 C   0  0  0  0  0  2  0  0  0  0  0  0
  187.5550  177.4290  146.1510 C   0  0  0  0  0  2  0  0  0  0  0  0
  188.4670  177.2830  143.4110 N   0  0  0  0  0  0  0  0  0  0  0  0
  189.3320  176.8430  144.5050 C   0  0  0  0  0  2  0  0  0  0  0  0
  189.0160  177.6410  145.7680 C   0  0  0  0  0  2  0  0  0  0  0  0
  186.6430  177.7550  144.9710 C   0  0  0  0  0  2  0  0  0  0  0  0
  187.0850  176.9520  143.7510 C   0  0  0  0  0  2  0  0  0  0  0  0
  1 21  1  1  0  0  0
  2  6  1  0  0  0  0
  2  1  1  0  0  0  0
  3  9  1  6  0  0  0
  3 14  1  0  0  0  0
  4 13  2  0  0  0  0
  8 10  1  0  0  0  0
  8 19  2  0  0  0  0
 11  7  1  6  0  0  0
 11 13  1  0  0  0  0
 11 15  1  0  0  0  0
 12  5  1  6  0  0  0
 12  7  1  0  0  0  0
 12  4  1  0  0  0  0
 13 17  1  0  0  0  0
 14 19  1  6  0  0  0
 14  1  1  0  0  0  0
 15  3  1  0  0  0  0
 15  2  2  0  0  0  0
 16  8  1  0  0  0  0
 17  6  2  0  0  0  0
 19 18  1  0  0  0  0
 20  9  1  6  0  0  0
 20 16  1  0  0  0  0
 20  3  1  0  0  0  0
 21 23  1  0  0  0  0
 23 27  1  0  0  0  0
 23 24  1  0  0  0  0
 24 25  1  0  0  0  0
 25 22  1  0  0  0  0
 26 22  1  0  0  0  0
 27 26  1  0  0  0  0
M  END
>  <MODEL>
4

>  <REMARK>
 VINA RESULT:      -7.6      1.440      1.978
  Name = 
  2 active torsions:
  status: ('A' for Active; 'I' for Inactive)
    1  A    between atoms: C_1  and  C_15
    2  A    between atoms: N_9  and  C_15
                            x       y       z     vdW  Elec       q    Type
                         _______ _______ _______ _____ _____    ______ ____

>  <TORSDO>
F 2

$$$$
=
 OpenBabel10262420113D

 27 32  0  0  1  0  0  0  0  0999 V2000
  188.4050  178.0260  142.0760 C   0  0  2  0  0  3  0  0  0  0  0  0
  189.4410  177.9620  143.1650 C   0  0  0  0  0  0  0  0  0  0  0  0
  187.4860  177.4780  144.2150 C   0  0  2  0  0  0  0  0  0  0  0  0
  191.9990  177.2010  146.1170 N   0  0  0  0  0  0  0  0  0  0  0  0
  191.4590  177.5030  148.4690 C   0  0  0  0  0  1  0  0  0  0  0  0
  190.8590  178.3470  143.0030 C   0  0  0  0  0  3  0  0  0  0  0  0
  189.5630  176.4210  146.8100 S   0  0  0  0  0  0  0  0  0  0  0  0
  185.2830  179.1980  143.6910 C   0  0  0  0  0  0  0  0  0  0  0  0
  186.7870  176.3690  144.9560 C   0  0  0  0  0  2  0  0  0  0  0  0
  184.4280  180.2900  143.6050 O   0  0  0  0  0  1  0  0  0  0  0  0
  189.7570  177.7720  145.6090 C   0  0  1  0  0  3  0  0  0  0  0  0
  191.3280  176.5990  147.2560 C   0  0  1  0  0  3  0  0  0  0  0  0
  191.2130  177.7900  145.2850 C   0  0  0  0  0  0  0  0  0  0  0  0
  187.0610  177.7450  142.7750 C   0  0  1  0  0  3  0  0  0  0  0  0
  188.9520  177.6000  144.3450 C   0  0  0  0  0  0  0  0  0  0  0  0
  185.1950  178.2960  144.8910 C   0  0  0  0  0  2  0  0  0  0  0  0
  191.6810  178.2460  144.0070 N   0  0  0  0  0  0  0  0  0  0  0  0
  186.1610  179.7530  141.5690 O   0  0  0  0  0  1  0  0  0  0  0  0
  186.1450  178.9400  142.6980 C   0  0  0  0  0  0  0  0  0  0  0  0
  186.5710  177.8310  145.3770 C   0  0  2  0  0  3  0  0  0  0  0  0
  188.6790  176.9950  140.9790 C   0  0  0  0  0  2  0  0  0  0  0  0
  189.4300  177.8800  136.9270 C   0  0  0  0  0  2  0  0  0  0  0  0
  189.2700  177.6180  139.8020 N   0  0  0  0  0  0  0  0  0  0  0  0
  188.1780  178.2380  139.0520 C   0  0  0  0  0  2  0  0  0  0  0  0
  188.7300  178.9170  137.8010 C   0  0  0  0  0  2  0  0  0  0  0  0
  190.4830  177.1270  137.7350 C   0  0  0  0  0  2  0  0  0  0  0  0
  189.8380  176.5430  138.9900 C   0  0  0  0  0  2  0  0  0  0  0  0
  1 21  1  6  0  0  0
  1 14  1  0  0  0  0
  1  2  1  0  0  0  0
  2 15  2  0  0  0  0
  3 15  1  0  0  0  0
  3  9  1  1  0  0  0
  3 20  1  0  0  0  0
  4 12  1  0  0  0  0
  6  2  1  0  0  0  0
  6 17  2  0  0  0  0
  7 12  1  0  0  0  0
  8 16  1  0  0  0  0
  9 20  1  0  0  0  0
 10  8  1  0  0  0  0
 11 15  1  6  0  0  0
 11  7  1  0  0  0  0
 12  5  1  1  0  0  0
 13 11  1  0  0  0  0
 13  4  2  0  0  0  0
 14 19  1  1  0  0  0
 14  3  1  0  0  0  0
 17 13  1  0  0  0  0
 18 19  1  0  0  0  0
 19  8  2  0  0  0  0
 20 16  1  6  0  0  0
 22 26  1  0  0  0  0
 22 25  1  0  0  0  0
 23 21  1  0  0  0  0
 24 23  1  0  0  0  0
 25 24  1  0  0  0  0
 26 27  1  0  0  0  0
 27 23  1  0  0  0  0
M  END
>  <MODEL>
5

>  <REMARK>
 VINA RESULT:      -7.4      3.971      8.337
  Name = 
  2 active torsions:
  status: ('A' for Active; 'I' for Inactive)
    1  A    between atoms: C_1  and  C_15
    2  A    between atoms: N_9  and  C_15
                            x       y       z     vdW  Elec       q    Type
                         _______ _______ _______ _____ _____    ______ ____

>  <TORSDO>
F 2

$$$$
=
 OpenBabel10262420113D

 27 32  0  0  1  0  0  0  0  0999 V2000
  189.8270  177.5570  141.3950 C   0  0  2  0  0  3  0  0  0  0  0  0
  190.3240  177.7240  142.8040 C   0  0  0  0  0  0  0  0  0  0  0  0
  188.1110  177.2730  143.0360 C   0  0  2  0  0  0  0  0  0  0  0  0
  191.4450  177.5830  146.6210 N   0  0  0  0  0  0  0  0  0  0  0  0
  189.9870  178.1940  148.4690 C   0  0  0  0  0  1  0  0  0  0  0  0
  191.6830  178.1750  143.1710 C   0  0  0  0  0  3  0  0  0  0  0  0
  188.9380  176.7540  146.3840 S   0  0  0  0  0  0  0  0  0  0  0  0
  186.3170  178.7450  141.3920 C   0  0  0  0  0  0  0  0  0  0  0  0
  187.1680  176.2420  143.6010 C   0  0  0  0  0  2  0  0  0  0  0  0
  185.5730  179.7530  140.7910 O   0  0  0  0  0  1  0  0  0  0  0  0
  189.6090  177.9210  145.1630 C   0  0  1  0  0  3  0  0  0  0  0  0
  190.3650  177.1130  147.4720 C   0  0  1  0  0  3  0  0  0  0  0  0
  191.0700  177.9880  145.4580 C   0  0  0  0  0  0  0  0  0  0  0  0
  188.3140  177.2940  141.5250 C   0  0  1  0  0  3  0  0  0  0  0  0
  189.3940  177.5100  143.7280 C   0  0  0  0  0  0  0  0  0  0  0  0
  185.7440  178.0270  142.5830 C   0  0  0  0  0  2  0  0  0  0  0  0
  192.0210  178.2790  144.4230 N   0  0  0  0  0  0  0  0  0  0  0  0
  187.9890  179.0360  139.7490 O   0  0  0  0  0  1  0  0  0  0  0  0
  187.5100  178.4000  140.8910 C   0  0  0  0  0  0  0  0  0  0  0  0
  186.7990  177.7320  143.6540 C   0  0  2  0  0  3  0  0  0  0  0  0
  190.5260  176.3950  140.6860 C   0  0  0  0  0  2  0  0  0  0  0  0
  192.0800  176.0530  136.7830 C   0  0  0  0  0  2  0  0  0  0  0  0
  190.9730  176.7780  139.3540 N   0  0  0  0  0  0  0  0  0  0  0  0
  190.1820  176.0050  138.3980 C   0  0  0  0  0  2  0  0  0  0  0  0
  190.5970  176.3620  136.9730 C   0  0  0  0  0  2  0  0  0  0  0  0
  192.9100  176.7450  137.8600 C   0  0  0  0  0  2  0  0  0  0  0  0
  192.3710  176.3680  139.2380 C   0  0  0  0  0  2  0  0  0  0  0  0
  1 21  1  1  0  0  0
  1 14  1  0  0  0  0
  1  2  1  0  0  0  0
  2  6  1  0  0  0  0
  2 15  2  0  0  0  0
  3  9  1  1  0  0  0
  3 20  1  0  0  0  0
  3 15  1  0  0  0  0
  4 12  1  0  0  0  0
  6 17  2  0  0  0  0
  7 12  1  0  0  0  0
  8 16  1  0  0  0  0
  9 20  1  0  0  0  0
 10  8  1  0  0  0  0
 11 15  1  6  0  0  0
 11 13  1  0  0  0  0
 11  7  1  0  0  0  0
 12  5  1  1  0  0  0
 13  4  2  0  0  0  0
 14 19  1  6  0  0  0
 14  3  1  0  0  0  0
 17 13  1  0  0  0  0
 18 19  1  0  0  0  0
 19  8  2  0  0  0  0
 20 16  1  6  0  0  0
 22 25  1  0  0  0  0
 22 26  1  0  0  0  0
 23 21  1  0  0  0  0
 24 23  1  0  0  0  0
 25 24  1  0  0  0  0
 26 27  1  0  0  0  0
 27 23  1  0  0  0  0
M  END
>  <MODEL>
6

>  <REMARK>
 VINA RESULT:      -7.3      3.533      7.670
  Name = 
  2 active torsions:
  status: ('A' for Active; 'I' for Inactive)
    1  A    between atoms: C_1  and  C_15
    2  A    between atoms: N_9  and  C_15
                            x       y       z     vdW  Elec       q    Type
                         _______ _______ _______ _____ _____    ______ ____

>  <TORSDO>
F 2

$$$$
=
 OpenBabel10262420113D

 27 32  0  0  1  0  0  0  0  0999 V2000
  187.6620  178.1710  141.9180 C   0  0  2  0  0  3  0  0  0  0  0  0
  188.0020  177.6680  143.2930 C   0  0  0  0  0  0  0  0  0  0  0  0
  190.0100  177.8650  142.2520 C   0  0  2  0  0  0  0  0  0  0  0  0
  189.2370  176.8560  146.9890 N   0  0  0  0  0  0  0  0  0  0  0  0
  191.2930  175.6560  147.4820 C   0  0  0  0  0  1  0  0  0  0  0  0
  187.0110  177.2420  144.3040 C   0  0  0  0  0  3  0  0  0  0  0  0
  191.3060  177.5210  145.4720 S   0  0  0  0  0  0  0  0  0  0  0  0
  190.2210  176.7590  139.6400 C   0  0  0  0  0  0  0  0  0  0  0  0
  191.3070  178.6280  142.3220 C   0  0  0  0  0  2  0  0  0  0  0  0
  190.2660  175.8970  138.5510 O   0  0  0  0  0  1  0  0  0  0  0  0
  189.8350  176.7840  144.6980 C   0  0  1  0  0  3  0  0  0  0  0  0
  190.6780  176.9920  147.1070 C   0  0  1  0  0  3  0  0  0  0  0  0
  188.8070  176.7530  145.7800 C   0  0  0  0  0  0  0  0  0  0  0  0
  189.0080  178.2700  141.1760 C   0  0  1  0  0  3  0  0  0  0  0  0
  189.3070  177.5500  143.5110 C   0  0  0  0  0  0  0  0  0  0  0  0
  191.4980  177.0800  140.3680 C   0  0  0  0  0  2  0  0  0  0  0  0
  187.4070  176.8290  145.4730 N   0  0  0  0  0  0  0  0  0  0  0  0
  187.9060  177.0550  139.2780 O   0  0  0  0  0  1  0  0  0  0  0  0
  189.0610  177.3190  140.0080 C   0  0  0  0  0  0  0  0  0  0  0  0
  191.3040  177.1550  141.8860 C   0  0  2  0  0  3  0  0  0  0  0  0
  186.9650  179.5320  141.9740 C   0  0  0  0  0  2  0  0  0  0  0  0
  183.3090  177.8580  140.7110 C   0  0  0  0  0  2  0  0  0  0  0  0
  185.6000  179.4500  141.4740 N   0  0  0  0  0  0  0  0  0  0  0  0
  184.8140  178.7470  142.4880 C   0  0  0  0  0  2  0  0  0  0  0  0
  183.3640  178.6280  142.0280 C   0  0  0  0  0  2  0  0  0  0  0  0
  184.2330  178.5010  139.6810 C   0  0  0  0  0  2  0  0  0  0  0  0
  185.6380  178.6280  140.2660 C   0  0  0  0  0  2  0  0  0  0  0  0
  1 21  1  1  0  0  0
  1  2  1  0  0  0  0
  2 15  2  0  0  0  0
  2  6  1  0  0  0  0
  3  9  1  1  0  0  0
  3 15  1  0  0  0  0
  4 12  1  0  0  0  0
  6 17  2  0  0  0  0
  7 12  1  0  0  0  0
  8 19  2  0  0  0  0
  8 16  1  0  0  0  0
 10  8  1  0  0  0  0
 11 15  1  6  0  0  0
 11  7  1  0  0  0  0
 11 13  1  0  0  0  0
 12  5  1  6  0  0  0
 13  4  2  0  0  0  0
 14 19  1  6  0  0  0
 14  1  1  0  0  0  0
 14  3  1  0  0  0  0
 17 13  1  0  0  0  0
 18 19  1  0  0  0  0
 20 16  1  6  0  0  0
 20  3  1  0  0  0  0
 20  9  1  0  0  0  0
 22 25  1  0  0  0  0
 23 21  1  0  0  0  0
 23 24  1  0  0  0  0
 25 24  1  0  0  0  0
 26 27  1  0  0  0  0
 26 22  1  0  0  0  0
 27 23  1  0  0  0  0
M  END
>  <MODEL>
7

>  <REMARK>
 VINA RESULT:      -6.3      3.603      6.942
  Name = 
  2 active torsions:
  status: ('A' for Active; 'I' for Inactive)
    1  A    between atoms: C_1  and  C_15
    2  A    between atoms: N_9  and  C_15
                            x       y       z     vdW  Elec       q    Type
                         _______ _______ _______ _____ _____    ______ ____

>  <TORSDO>
F 2

$$$$
=
 OpenBabel10262420113D

 27 32  0  0  1  0  0  0  0  0999 V2000
  188.1070  177.8460  143.2000 C   0  0  2  0  0  3  0  0  0  0  0  0
  188.6230  177.9270  141.7900 C   0  0  0  0  0  0  0  0  0  0  0  0
  189.9950  176.4310  142.8090 C   0  0  2  0  0  0  0  0  0  0  0  0
  189.8690  177.5310  138.0310 N   0  0  0  0  0  0  0  0  0  0  0  0
  192.1540  176.9570  137.4300 C   0  0  0  0  0  1  0  0  0  0  0  0
  188.1450  178.8850  140.7710 C   0  0  0  0  0  3  0  0  0  0  0  0
  190.9890  175.6730  139.5530 S   0  0  0  0  0  0  0  0  0  0  0  0
  191.0550  177.1730  145.3420 C   0  0  0  0  0  0  0  0  0  0  0  0
  190.4010  174.9810  142.7660 C   0  0  0  0  0  2  0  0  0  0  0  0
  191.7420  177.8020  146.3730 O   0  0  0  0  0  1  0  0  0  0  0  0
  190.4780  177.2480  140.3020 C   0  0  1  0  0  3  0  0  0  0  0  0
  190.8090  176.4310  137.8980 C   0  0  1  0  0  3  0  0  0  0  0  0
  189.6970  177.9440  139.2380 C   0  0  0  0  0  0  0  0  0  0  0  0
  189.0510  176.8690  143.9250 C   0  0  1  0  0  3  0  0  0  0  0  0
  189.6340  177.1010  141.5440 C   0  0  0  0  0  0  0  0  0  0  0  0
  191.7150  176.0340  144.6150 C   0  0  0  0  0  2  0  0  0  0  0  0
  188.6510  178.8680  139.5710 N   0  0  0  0  0  0  0  0  0  0  0  0
  189.1990  178.5730  145.7600 O   0  0  0  0  0  1  0  0  0  0  0  0
  189.8110  177.5590  145.0290 C   0  0  0  0  0  0  0  0  0  0  0  0
  191.4390  176.0610  143.1080 C   0  0  2  0  0  3  0  0  0  0  0  0
  186.6620  177.3440  143.2410 C   0  0  0  0  0  2  0  0  0  0  0  0
  183.3190  178.9340  145.2570 C   0  0  0  0  0  2  0  0  0  0  0  0
  185.7800  178.3190  143.8690 N   0  0  0  0  0  0  0  0  0  0  0  0
  185.5810  177.8870  145.2520 C   0  0  0  0  0  2  0  0  0  0  0  0
  184.6640  178.8720  145.9740 C   0  0  0  0  0  2  0  0  0  0  0  0
  183.5200  179.2500  143.7770 C   0  0  0  0  0  2  0  0  0  0  0  0
  184.4980  178.2460  143.1710 C   0  0  0  0  0  2  0  0  0  0  0  0
  1 21  1  6  0  0  0
  1 14  1  0  0  0  0
  2  1  1  0  0  0  0
  3  9  1  6  0  0  0
  3 20  1  0  0  0  0
  3 14  1  0  0  0  0
  4 13  2  0  0  0  0
  6  2  1  0  0  0  0
  7 11  1  0  0  0  0
  8 10  1  0  0  0  0
 11 13  1  6  0  0  0
 11 15  1  0  0  0  0
 12  5  1  1  0  0  0
 12  4  1  0  0  0  0
 12  7  1  0  0  0  0
 13 17  1  0  0  0  0
 14 19  1  1  0  0  0
 15  2  2  0  0  0  0
 15  3  1  0  0  0  0
 16  8  1  0  0  0  0
 17  6  2  0  0  0  0
 19  8  2  0  0  0  0
 19 18  1  0  0  0  0
 20  9  1  1  0  0  0
 20 16  1  0  0  0  0
 21 23  1  0  0  0  0
 22 25  1  0  0  0  0
 23 24  1  0  0  0  0
 24 25  1  0  0  0  0
 26 22  1  0  0  0  0
 27 26  1  0  0  0  0
 27 23  1  0  0  0  0
M  END
>  <MODEL>
8

>  <REMARK>
 VINA RESULT:      -6.1      3.486      5.781
  Name = 
  2 active torsions:
  status: ('A' for Active; 'I' for Inactive)
    1  A    between atoms: C_1  and  C_15
    2  A    between atoms: N_9  and  C_15
                            x       y       z     vdW  Elec       q    Type
                         _______ _______ _______ _____ _____    ______ ____

>  <TORSDO>
F 2

$$$$
=
 OpenBabel10262420113D

 27 32  0  0  1  0  0  0  0  0999 V2000
  180.6980  179.1030  139.8410 C   0  0  2  0  0  3  0  0  0  0  0  0
  181.3760  179.0450  141.1810 C   0  0  0  0  0  0  0  0  0  0  0  0
  183.0560  178.7380  139.6850 C   0  0  2  0  0  0  0  0  0  0  0  0
  183.5070  179.3740  144.5270 N   0  0  0  0  0  0  0  0  0  0  0  0
  185.6280  178.2390  144.8820 C   0  0  0  0  0  1  0  0  0  0  0  0
  180.6740  179.0460  142.4820 C   0  0  0  0  0  3  0  0  0  0  0  0
  185.1230  179.3490  142.4270 S   0  0  0  0  0  0  0  0  0  0  0  0
  182.6090  176.8350  137.6180 C   0  0  0  0  0  0  0  0  0  0  0  0
  184.3250  179.3780  139.1850 C   0  0  0  0  0  2  0  0  0  0  0  0
  182.3820  175.6680  136.9000 O   0  0  0  0  0  1  0  0  0  0  0  0
  183.5090  178.5200  142.3180 C   0  0  1  0  0  3  0  0  0  0  0  0
  184.9300  179.4270  144.2440 C   0  0  1  0  0  3  0  0  0  0  0  0
  182.7870  178.9200  143.5610 C   0  0  0  0  0  0  0  0  0  0  0  0
  181.8130  178.8510  138.8080 C   0  0  1  0  0  3  0  0  0  0  0  0
  182.6950  178.9020  141.1070 C   0  0  0  0  0  0  0  0  0  0  0  0
  184.0260  177.2730  137.8700 C   0  0  0  0  0  2  0  0  0  0  0  0
  181.3540  179.0030  143.5910 N   0  0  0  0  0  0  0  0  0  0  0  0
  180.2750  177.1800  137.7430 O   0  0  0  0  0  1  0  0  0  0  0  0
  181.5750  177.5730  138.0460 C   0  0  0  0  0  0  0  0  0  0  0  0
  184.2200  177.8480  139.2760 C   0  0  2  0  0  3  0  0  0  0  0  0
  180.0300  180.4600  139.6070 C   0  0  0  0  0  2  0  0  0  0  0  0
  179.5820  182.7160  136.0760 C   0  0  0  0  0  2  0  0  0  0  0  0
  180.2660  180.9410  138.2530 N   0  0  0  0  0  0  0  0  0  0  0  0
  180.5430  182.3730  138.3500 C   0  0  0  0  0  2  0  0  0  0  0  0
  180.8050  182.9450  136.9590 C   0  0  0  0  0  2  0  0  0  0  0  0
  179.1960  181.2400  136.0740 C   0  0  0  0  0  2  0  0  0  0  0  0
  179.0200  180.7580  137.5120 C   0  0  0  0  0  2  0  0  0  0  0  0
  1 21  1  6  0  0  0
  1  2  1  0  0  0  0
  2  6  1  0  0  0  0
  3  9  1  6  0  0  0
  3 15  1  0  0  0  0
  6 17  2  0  0  0  0
  7 12  1  0  0  0  0
  8 16  1  0  0  0  0
  8 19  2  0  0  0  0
  9 20  1  0  0  0  0
 10  8  1  0  0  0  0
 11 15  1  6  0  0  0
 11  7  1  0  0  0  0
 11 13  1  0  0  0  0
 12  4  1  0  0  0  0
 12  5  1  1  0  0  0
 13 17  1  0  0  0  0
 13  4  2  0  0  0  0
 14 19  1  1  0  0  0
 14  3  1  0  0  0  0
 14  1  1  0  0  0  0
 15  2  2  0  0  0  0
 18 19  1  0  0  0  0
 20 16  1  6  0  0  0
 20  3  1  0  0  0  0
 22 25  1  0  0  0  0
 23 24  1  0  0  0  0
 23 21  1  0  0  0  0
 25 24  1  0  0  0  0
 26 22  1  0  0  0  0
 26 27  1  0  0  0  0
 27 23  1  0  0  0  0
M  END
>  <MODEL>
9

>  <REMARK>
 VINA RESULT:      -6.1      6.835     10.172
  Name = 
  2 active torsions:
  status: ('A' for Active; 'I' for Inactive)
    1  A    between atoms: C_1  and  C_15
    2  A    between atoms: N_9  and  C_15
                            x       y       z     vdW  Elec       q    Type
                         _______ _______ _______ _____ _____    ______ ____

>  <TORSDO>
F 2

$$$$
