=
 OpenBabel10262421083D

 32 37  0  0  1  0  0  0  0  0999 V2000
  189.4120  177.6280  143.2990 C   0  0  2  0  0  3  0  0  0  0  0  0
  187.4530  177.5790  144.8320 C   0  0  0  0  0  0  0  0  0  0  0  0
  190.6910  176.8510  142.9840 C   0  0  0  0  0  2  0  0  0  0  0  0
  188.7880  176.9940  144.5420 C   0  0  2  0  0  3  0  0  0  0  0  0
  187.0140  177.7030  146.1540 C   0  0  0  0  0  0  0  0  0  0  0  0
  183.2250  179.3660  143.2270 C   0  0  0  0  0  2  0  0  0  0  0  0
  186.6150  177.8880  143.7560 C   0  0  0  0  0  0  0  0  0  0  0  0
  183.5240  178.8000  145.5680 O   0  0  0  0  0  0  0  0  0  0  0  0
  184.8460  178.4090  145.3370 C   0  0  0  0  0  0  0  0  0  0  0  0
  189.7090  177.1520  145.7480 C   0  0  1  0  0  3  0  0  0  0  0  0
  185.7030  178.1250  146.4070 C   0  0  0  0  0  3  0  0  0  0  0  0
  189.0810  176.6110  146.8950 O   0  0  0  0  0  0  0  0  0  0  0  0
  191.0170  176.4170  145.4580 C   0  0  0  0  0  2  0  0  0  0  0  0
  187.1330  177.8220  142.4160 N   0  0  0  0  0  0  0  0  0  0  0  0
  188.4050  177.6650  142.1550 C   0  0  0  0  0  0  0  0  0  0  0  0
  185.3070  178.3160  144.0110 C   0  0  0  0  0  0  0  0  0  0  0  0
  187.9880  177.4390  147.2820 C   0  0  1  0  0  3  0  0  0  0  0  0
  191.6600  176.9470  144.1690 C   0  0  0  0  0  2  0  0  0  0  0  0
  182.5720  178.8330  144.5040 C   0  0  0  0  0  2  0  0  0  0  0  0
  184.4430  178.6630  142.9680 O   0  0  0  0  0  0  0  0  0  0  0  0
  188.4770  178.2050  138.3890 C   0  0  0  0  0  0  0  0  0  0  0  0
  187.7020  178.7100  137.3990 F   0  0  0  0  0  0  0  0  0  0  0  0
  188.8370  177.6860  140.7400 C   0  0  0  0  0  0  0  0  0  0  0  0
  189.7270  177.6670  138.0780 C   0  0  0  0  0  3  0  0  0  0  0  0
  190.0840  177.1370  140.4080 C   0  0  0  0  0  3  0  0  0  0  0  0
  188.0210  178.2060  139.7130 C   0  0  0  0  0  0  0  0  0  0  0  0
  186.7500  178.7000  139.9930 O   0  0  0  0  0  1  0  0  0  0  0  0
  190.5360  177.1260  139.0870 C   0  0  0  0  0  0  0  0  0  0  0  0
  192.2980  176.3580  137.5580 C   0  0  0  0  0  2  0  0  0  0  0  0
  191.8540  176.5460  138.7940 C   0  0  0  0  0  3  0  0  0  0  0  0
  188.4620  178.7410  147.9230 C   0  0  0  0  0  2  0  0  0  0  0  0
  189.5090  178.4530  148.9800 C   0  0  0  0  0  1  0  0  0  0  0  0
  1  3  1  6  0  0  0
  1  4  1  0  0  0  0
  2  5  1  0  0  0  0
  3 18  1  0  0  0  0
  4  2  1  1  0  0  0
  4 10  1  0  0  0  0
  5 11  2  0  0  0  0
  5 17  1  0  0  0  0
  6 19  1  0  0  0  0
  7 16  1  0  0  0  0
  7  2  2  0  0  0  0
  9  8  1  0  0  0  0
  9 11  1  0  0  0  0
 10 13  1  6  0  0  0
 10 12  1  0  0  0  0
 12 17  1  0  0  0  0
 14  7  1  0  0  0  0
 15 14  2  0  0  0  0
 15  1  1  0  0  0  0
 16  9  2  0  0  0  0
 17 31  1  6  0  0  0
 18 13  1  0  0  0  0
 19  8  1  0  0  0  0
 20  6  1  0  0  0  0
 20 16  1  0  0  0  0
 21 26  1  0  0  0  0
 22 21  1  0  0  0  0
 23 15  1  0  0  0  0
 24 21  2  0  0  0  0
 24 28  1  0  0  0  0
 25 23  1  0  0  0  0
 26 27  1  0  0  0  0
 26 23  2  0  0  0  0
 28 25  2  0  0  0  0
 29 30  2  0  0  0  0
 30 28  1  0  0  0  0
 31 32  1  0  0  0  0
M  END
>  <MODEL>
1

>  <REMARK>
 VINA RESULT:     -11.1      0.000      0.000
  Name = 
  3 active torsions:
  status: ('A' for Active; 'I' for Inactive)
    1  A    between atoms: C_13  and  C_29
    2  A    between atoms: C_15  and  C_26
    3  A    between atoms: C_16  and  C_27
                            x       y       z     vdW  Elec       q    Type
                         _______ _______ _______ _____ _____    ______ ____

>  <TORSDO>
F 3

$$$$
=
 OpenBabel10262421083D

 32 37  0  0  1  0  0  0  0  0999 V2000
  186.6670  177.8450  144.7790 C   0  0  2  0  0  3  0  0  0  0  0  0
  189.1260  177.8460  144.4080 C   0  0  0  0  0  0  0  0  0  0  0  0
  185.6020  178.4760  145.6800 C   0  0  0  0  0  2  0  0  0  0  0  0
  188.0310  178.2780  145.3150 C   0  0  2  0  0  3  0  0  0  0  0  0
  190.3770  177.5030  144.9330 C   0  0  0  0  0  0  0  0  0  0  0  0
  190.7770  177.0920  139.8970 C   0  0  0  0  0  2  0  0  0  0  0  0
  188.9090  177.9050  143.0280 C   0  0  0  0  0  0  0  0  0  0  0  0
  192.2950  177.0840  141.7910 O   0  0  0  0  0  0  0  0  0  0  0  0
  191.2400  177.3180  142.6770 C   0  0  0  0  0  0  0  0  0  0  0  0
  188.2590  177.7270  146.7200 C   0  0  1  0  0  3  0  0  0  0  0  0
  191.4390  177.2330  144.0610 C   0  0  0  0  0  3  0  0  0  0  0  0
  189.5510  178.0920  147.1660 O   0  0  0  0  0  0  0  0  0  0  0  0
  187.1910  178.3080  147.6460 C   0  0  0  0  0  2  0  0  0  0  0  0
  187.5880  178.1850  142.5330 N   0  0  0  0  0  0  0  0  0  0  0  0
  186.5320  178.2060  143.3050 C   0  0  0  0  0  0  0  0  0  0  0  0
  189.9700  177.6290  142.1580 C   0  0  0  0  0  0  0  0  0  0  0  0
  190.5350  177.3690  146.4320 C   0  0  1  0  0  3  0  0  0  0  0  0
  185.7860  177.9830  147.1200 C   0  0  0  0  0  2  0  0  0  0  0  0
  192.1810  177.4230  140.4080 C   0  0  0  0  0  2  0  0  0  0  0  0
  189.7920  177.6470  140.7710 O   0  0  0  0  0  0  0  0  0  0  0  0
  183.7940  178.8690  140.7470 C   0  0  0  0  0  0  0  0  0  0  0  0
  183.6470  179.0850  139.4180 F   0  0  0  0  0  0  0  0  0  0  0  0
  185.2110  178.4300  142.6770 C   0  0  0  0  0  0  0  0  0  0  0  0
  182.6680  178.8670  141.5730 C   0  0  0  0  0  3  0  0  0  0  0  0
  184.0720  178.4470  143.4940 C   0  0  0  0  0  3  0  0  0  0  0  0
  185.0670  178.6640  141.2930 C   0  0  0  0  0  0  0  0  0  0  0  0
  186.1800  178.7200  140.4590 O   0  0  0  0  0  1  0  0  0  0  0  0
  182.8020  178.6600  142.9520 C   0  0  0  0  0  0  0  0  0  0  0  0
  180.3880  178.6500  143.4090 C   0  0  0  0  0  2  0  0  0  0  0  0
  181.6400  178.6600  143.8510 C   0  0  0  0  0  3  0  0  0  0  0  0
  190.5960  175.9040  146.8560 C   0  0  0  0  0  2  0  0  0  0  0  0
  191.9640  175.5780  147.4210 C   0  0  0  0  0  1  0  0  0  0  0  0
  1  4  1  0  0  0  0
  1  3  1  1  0  0  0
  2  5  1  0  0  0  0
  3 18  1  0  0  0  0
  4  2  1  6  0  0  0
  4 10  1  0  0  0  0
  5 17  1  0  0  0  0
  6 19  1  0  0  0  0
  6 20  1  0  0  0  0
  7  2  2  0  0  0  0
  8  9  1  0  0  0  0
  9 11  1  0  0  0  0
 10 12  1  0  0  0  0
 10 13  1  1  0  0  0
 11  5  2  0  0  0  0
 14  7  1  0  0  0  0
 14 15  2  0  0  0  0
 15  1  1  0  0  0  0
 16  9  2  0  0  0  0
 16  7  1  0  0  0  0
 17 31  1  6  0  0  0
 17 12  1  0  0  0  0
 18 13  1  0  0  0  0
 19  8  1  0  0  0  0
 20 16  1  0  0  0  0
 21 26  2  0  0  0  0
 21 24  1  0  0  0  0
 22 21  1  0  0  0  0
 23 15  1  0  0  0  0
 23 25  2  0  0  0  0
 24 28  2  0  0  0  0
 26 23  1  0  0  0  0
 27 26  1  0  0  0  0
 28 25  1  0  0  0  0
 28 30  1  0  0  0  0
 29 30  2  0  0  0  0
 31 32  1  0  0  0  0
M  END
>  <MODEL>
2

>  <REMARK>
 VINA RESULT:     -10.9      2.003      6.111
  Name = 
  3 active torsions:
  status: ('A' for Active; 'I' for Inactive)
    1  A    between atoms: C_13  and  C_29
    2  A    between atoms: C_15  and  C_26
    3  A    between atoms: C_16  and  C_27
                            x       y       z     vdW  Elec       q    Type
                         _______ _______ _______ _____ _____    ______ ____

>  <TORSDO>
F 3

$$$$
=
 OpenBabel10262421083D

 32 37  0  0  1  0  0  0  0  0999 V2000
  187.6900  177.6290  142.2610 C   0  0  2  0  0  3  0  0  0  0  0  0
  185.5990  178.5310  141.2610 C   0  0  0  0  0  0  0  0  0  0  0  0
  189.2090  177.7990  142.1890 C   0  0  0  0  0  2  0  0  0  0  0  0
  187.0810  178.5040  141.1650 C   0  0  2  0  0  3  0  0  0  0  0  0
  184.8240  178.6430  140.1010 C   0  0  0  0  0  0  0  0  0  0  0  0
  181.5770  178.5930  143.9940 C   0  0  0  0  0  2  0  0  0  0  0  0
  185.0140  178.5590  142.5310 C   0  0  0  0  0  0  0  0  0  0  0  0
  181.4670  179.0610  141.6150 O   0  0  0  0  0  0  0  0  0  0  0  0
  182.8450  178.8650  141.4810 C   0  0  0  0  0  0  0  0  0  0  0  0
  187.5140  178.0200  139.7850 C   0  0  1  0  0  3  0  0  0  0  0  0
  183.4370  178.8060  140.2140 C   0  0  0  0  0  3  0  0  0  0  0  0
  186.8890  178.8090  138.7910 O   0  0  0  0  0  0  0  0  0  0  0  0
  189.0350  178.1420  139.6850 C   0  0  0  0  0  2  0  0  0  0  0  0
  185.8400  178.3620  143.6920 N   0  0  0  0  0  0  0  0  0  0  0  0
  187.0860  177.9720  143.6180 C   0  0  0  0  0  0  0  0  0  0  0  0
  183.6280  178.7170  142.6410 C   0  0  0  0  0  0  0  0  0  0  0  0
  185.4950  178.5180  138.7510 C   0  0  1  0  0  3  0  0  0  0  0  0
  189.7150  177.3520  140.8120 C   0  0  0  0  0  2  0  0  0  0  0  0
  180.8920  179.3880  142.8800 C   0  0  0  0  0  2  0  0  0  0  0  0
  182.9970  178.7220  143.8890 O   0  0  0  0  0  0  0  0  0  0  0  0
  187.9520  177.6450  147.3080 C   0  0  0  0  0  0  0  0  0  0  0  0
  187.3750  177.7880  148.5250 F   0  0  0  0  0  0  0  0  0  0  0  0
  187.8200  177.7280  144.8790 C   0  0  0  0  0  0  0  0  0  0  0  0
  189.2930  177.2650  147.2230 C   0  0  0  0  0  3  0  0  0  0  0  0
  189.1710  177.3620  144.8110 C   0  0  0  0  0  3  0  0  0  0  0  0
  187.2140  177.8900  146.1430 C   0  0  0  0  0  0  0  0  0  0  0  0
  185.8940  178.3160  146.2530 O   0  0  0  0  0  1  0  0  0  0  0  0
  189.9110  177.1260  145.9730 C   0  0  0  0  0  0  0  0  0  0  0  0
  191.9540  176.0160  146.7660 C   0  0  0  0  0  2  0  0  0  0  0  0
  191.3210  176.7350  145.8460 C   0  0  0  0  0  3  0  0  0  0  0  0
  185.2180  177.1580  138.1150 C   0  0  0  0  0  2  0  0  0  0  0  0
  185.6450  177.1640  136.6610 C   0  0  0  0  0  1  0  0  0  0  0  0
  1  3  1  1  0  0  0
  1 15  1  0  0  0  0
  2  7  1  0  0  0  0
  4  2  1  6  0  0  0
  4  1  1  0  0  0  0
  5 11  1  0  0  0  0
  5  2  2  0  0  0  0
  7 16  2  0  0  0  0
  7 14  1  0  0  0  0
  8 19  1  0  0  0  0
  9  8  1  0  0  0  0
  9 16  1  0  0  0  0
 10 13  1  1  0  0  0
 10  4  1  0  0  0  0
 11  9  2  0  0  0  0
 12 10  1  0  0  0  0
 13 18  1  0  0  0  0
 15 14  2  0  0  0  0
 15 23  1  0  0  0  0
 16 20  1  0  0  0  0
 17 31  1  1  0  0  0
 17 12  1  0  0  0  0
 17  5  1  0  0  0  0
 18  3  1  0  0  0  0
 19  6  1  0  0  0  0
 20  6  1  0  0  0  0
 21 22  1  0  0  0  0
 23 26  1  0  0  0  0
 24 21  1  0  0  0  0
 25 23  2  0  0  0  0
 25 28  1  0  0  0  0
 26 27  1  0  0  0  0
 26 21  2  0  0  0  0
 28 24  2  0  0  0  0
 30 28  1  0  0  0  0
 30 29  2  0  0  0  0
 32 31  1  0  0  0  0
M  END
>  <MODEL>
3

>  <REMARK>
 VINA RESULT:     -10.5      2.704      6.418
  Name = 
  3 active torsions:
  status: ('A' for Active; 'I' for Inactive)
    1  A    between atoms: C_13  and  C_29
    2  A    between atoms: C_15  and  C_26
    3  A    between atoms: C_16  and  C_27
                            x       y       z     vdW  Elec       q    Type
                         _______ _______ _______ _____ _____    ______ ____

>  <TORSDO>
F 3

$$$$
=
 OpenBabel10262421083D

 32 37  0  0  1  0  0  0  0  0999 V2000
  188.6400  177.4010  142.3590 C   0  0  2  0  0  3  0  0  0  0  0  0
  187.4030  178.1980  140.3530 C   0  0  0  0  0  0  0  0  0  0  0  0
  190.0060  177.5230  143.0360 C   0  0  0  0  0  2  0  0  0  0  0  0
  188.7310  178.1220  141.0140 C   0  0  2  0  0  3  0  0  0  0  0  0
  187.3110  178.1590  138.9570 C   0  0  0  0  0  0  0  0  0  0  0  0
  182.5830  178.7510  140.6860 C   0  0  0  0  0  2  0  0  0  0  0  0
  186.2760  178.4240  141.1490 C   0  0  0  0  0  0  0  0  0  0  0  0
  183.7000  178.8730  138.5340 O   0  0  0  0  0  0  0  0  0  0  0  0
  184.9400  178.6270  139.1300 C   0  0  0  0  0  0  0  0  0  0  0  0
  189.7400  177.4340  140.1000 C   0  0  1  0  0  3  0  0  0  0  0  0
  186.0700  178.3700  138.3430 C   0  0  0  0  0  3  0  0  0  0  0  0
  189.7590  178.0850  138.8440 O   0  0  0  0  0  0  0  0  0  0  0  0
  191.1170  177.5030  140.7590 C   0  0  0  0  0  2  0  0  0  0  0  0
  186.4020  178.3780  142.5810 N   0  0  0  0  0  0  0  0  0  0  0  0
  187.4820  177.9520  143.1840 C   0  0  0  0  0  0  0  0  0  0  0  0
  185.0360  178.6290  140.5330 C   0  0  0  0  0  0  0  0  0  0  0  0
  188.5440  177.8240  138.1470 C   0  0  1  0  0  3  0  0  0  0  0  0
  191.0790  176.8690  142.1570 C   0  0  0  0  0  2  0  0  0  0  0  0
  182.6110  179.3930  139.2970 C   0  0  0  0  0  2  0  0  0  0  0  0
  183.8770  178.8310  141.2900 O   0  0  0  0  0  0  0  0  0  0  0  0
  186.4190  178.2190  146.8270 C   0  0  0  0  0  0  0  0  0  0  0  0
  185.3640  178.6280  147.5730 F   0  0  0  0  0  0  0  0  0  0  0  0
  187.4750  177.8760  144.6610 C   0  0  0  0  0  0  0  0  0  0  0  0
  187.5560  177.7160  147.4620 C   0  0  0  0  0  3  0  0  0  0  0  0
  188.6160  177.3880  145.3150 C   0  0  0  0  0  3  0  0  0  0  0  0
  186.3770  178.3130  145.4310 C   0  0  0  0  0  0  0  0  0  0  0  0
  185.2530  178.8650  144.8220 O   0  0  0  0  0  1  0  0  0  0  0  0
  188.6630  177.3010  146.7080 C   0  0  0  0  0  0  0  0  0  0  0  0
  191.0570  176.7530  146.7330 C   0  0  0  0  0  2  0  0  0  0  0  0
  189.8780  176.7750  147.3440 C   0  0  0  0  0  3  0  0  0  0  0  0
  188.4900  176.3940  137.6170 C   0  0  0  0  0  2  0  0  0  0  0  0
  189.5710  176.1800  136.5770 C   0  0  0  0  0  1  0  0  0  0  0  0
  1  3  1  1  0  0  0
  1 15  1  0  0  0  0
  2  7  1  0  0  0  0
  4  2  1  6  0  0  0
  4  1  1  0  0  0  0
  5  2  2  0  0  0  0
  6 20  1  0  0  0  0
  7 14  1  0  0  0  0
  8  9  1  0  0  0  0
  8 19  1  0  0  0  0
  9 16  1  0  0  0  0
 10 13  1  1  0  0  0
 10  4  1  0  0  0  0
 11  5  1  0  0  0  0
 11  9  2  0  0  0  0
 12 10  1  0  0  0  0
 13 18  1  0  0  0  0
 14 15  2  0  0  0  0
 15 23  1  0  0  0  0
 16  7  2  0  0  0  0
 16 20  1  0  0  0  0
 17 31  1  1  0  0  0
 17 12  1  0  0  0  0
 17  5  1  0  0  0  0
 18  3  1  0  0  0  0
 19  6  1  0  0  0  0
 21 24  1  0  0  0  0
 21 22  1  0  0  0  0
 23 25  2  0  0  0  0
 23 26  1  0  0  0  0
 25 28  1  0  0  0  0
 26 21  2  0  0  0  0
 27 26  1  0  0  0  0
 28 30  1  0  0  0  0
 28 24  2  0  0  0  0
 29 30  2  0  0  0  0
 32 31  1  0  0  0  0
M  END
>  <MODEL>
4

>  <REMARK>
 VINA RESULT:     -10.3      2.605      6.591
  Name = 
  3 active torsions:
  status: ('A' for Active; 'I' for Inactive)
    1  A    between atoms: C_13  and  C_29
    2  A    between atoms: C_15  and  C_26
    3  A    between atoms: C_16  and  C_27
                            x       y       z     vdW  Elec       q    Type
                         _______ _______ _______ _____ _____    ______ ____

>  <TORSDO>
F 3

$$$$
=
 OpenBabel10262421083D

 32 37  0  0  1  0  0  0  0  0999 V2000
  185.9760  177.8530  143.0570 C   0  0  2  0  0  3  0  0  0  0  0  0
  188.1140  178.0500  141.8010 C   0  0  0  0  0  0  0  0  0  0  0  0
  185.3340  178.2780  144.3800 C   0  0  0  0  0  2  0  0  0  0  0  0
  187.4450  178.2740  143.1080 C   0  0  2  0  0  3  0  0  0  0  0  0
  189.4680  177.7010  141.7570 C   0  0  0  0  0  0  0  0  0  0  0  0
  187.9360  178.0930  136.9410 C   0  0  0  0  0  2  0  0  0  0  0  0
  187.3930  178.3080  140.6310 C   0  0  0  0  0  0  0  0  0  0  0  0
  190.0560  177.8780  138.1020 O   0  0  0  0  0  0  0  0  0  0  0  0
  189.4150  177.9130  139.3440 C   0  0  0  0  0  0  0  0  0  0  0  0
  188.1820  177.5280  144.2150 C   0  0  1  0  0  3  0  0  0  0  0  0
  190.1200  177.6280  140.5200 C   0  0  0  0  0  3  0  0  0  0  0  0
  189.5490  177.8910  144.2000 O   0  0  0  0  0  0  0  0  0  0  0  0
  187.5460  177.8980  145.5550 C   0  0  0  0  0  2  0  0  0  0  0  0
  185.9840  178.5870  140.7180 N   0  0  0  0  0  0  0  0  0  0  0  0
  185.2970  178.4300  141.8200 C   0  0  0  0  0  0  0  0  0  0  0  0
  188.0450  178.2290  139.3950 C   0  0  0  0  0  0  0  0  0  0  0  0
  190.1790  177.3460  143.0440 C   0  0  1  0  0  3  0  0  0  0  0  0
  186.0450  177.5800  145.5460 C   0  0  0  0  0  2  0  0  0  0  0  0
  189.4310  178.4200  136.9380 C   0  0  0  0  0  2  0  0  0  0  0  0
  187.3560  178.4510  138.1980 O   0  0  0  0  0  0  0  0  0  0  0  0
  181.7850  179.2220  140.5910 C   0  0  0  0  0  0  0  0  0  0  0  0
  181.1310  179.5280  139.4440 F   0  0  0  0  0  0  0  0  0  0  0  0
  183.8380  178.6730  141.7760 C   0  0  0  0  0  0  0  0  0  0  0  0
  181.0710  179.1410  141.7890 C   0  0  0  0  0  3  0  0  0  0  0  0
  183.1100  178.6120  142.9730 C   0  0  0  0  0  3  0  0  0  0  0  0
  183.1680  179.0020  140.5800 C   0  0  0  0  0  0  0  0  0  0  0  0
  183.8660  179.1370  139.3830 O   0  0  0  0  0  1  0  0  0  0  0  0
  181.7320  178.8390  142.9870 C   0  0  0  0  0  0  0  0  0  0  0  0
  179.6950  178.6280  144.3430 C   0  0  0  0  0  2  0  0  0  0  0  0
  181.0140  178.7540  144.2660 C   0  0  0  0  0  3  0  0  0  0  0  0
  190.3860  175.8390  143.1690 C   0  0  0  0  0  2  0  0  0  0  0  0
  191.6540  175.5460  143.9460 C   0  0  0  0  0  1  0  0  0  0  0  0
  1  4  1  0  0  0  0
  1  3  1  1  0  0  0
  3 18  1  0  0  0  0
  4  2  1  6  0  0  0
  4 10  1  0  0  0  0
  5  2  1  0  0  0  0
  5 17  1  0  0  0  0
  6 20  1  0  0  0  0
  7 14  1  0  0  0  0
  7  2  2  0  0  0  0
  8  9  1  0  0  0  0
  9 16  2  0  0  0  0
  9 11  1  0  0  0  0
 10 13  1  1  0  0  0
 11  5  2  0  0  0  0
 12 10  1  0  0  0  0
 14 15  2  0  0  0  0
 15  1  1  0  0  0  0
 16  7  1  0  0  0  0
 17 31  1  1  0  0  0
 17 12  1  0  0  0  0
 18 13  1  0  0  0  0
 19  6  1  0  0  0  0
 19  8  1  0  0  0  0
 20 16  1  0  0  0  0
 21 24  1  0  0  0  0
 22 21  1  0  0  0  0
 23 15  1  0  0  0  0
 23 25  2  0  0  0  0
 24 28  2  0  0  0  0
 25 28  1  0  0  0  0
 26 21  2  0  0  0  0
 26 23  1  0  0  0  0
 27 26  1  0  0  0  0
 28 30  1  0  0  0  0
 30 29  2  0  0  0  0
 31 32  1  0  0  0  0
M  END
>  <MODEL>
5

>  <REMARK>
 VINA RESULT:      -9.9      2.444      6.785
  Name = 
  3 active torsions:
  status: ('A' for Active; 'I' for Inactive)
    1  A    between atoms: C_13  and  C_29
    2  A    between atoms: C_15  and  C_26
    3  A    between atoms: C_16  and  C_27
                            x       y       z     vdW  Elec       q    Type
                         _______ _______ _______ _____ _____    ______ ____

>  <TORSDO>
F 3

$$$$
=
 OpenBabel10262421083D

 32 37  0  0  1  0  0  0  0  0999 V2000
  188.7850  177.4160  143.0930 C   0  0  2  0  0  3  0  0  0  0  0  0
  188.6840  177.8900  140.6540 C   0  0  0  0  0  0  0  0  0  0  0  0
  189.6640  177.6800  144.3180 C   0  0  0  0  0  2  0  0  0  0  0  0
  189.5310  177.9540  141.8730 C   0  0  2  0  0  3  0  0  0  0  0  0
  189.2700  177.6610  139.4040 C   0  0  0  0  0  0  0  0  0  0  0  0
  184.3120  178.2970  138.5640 C   0  0  0  0  0  2  0  0  0  0  0  0
  187.3210  178.1770  140.7750 C   0  0  0  0  0  0  0  0  0  0  0  0
  186.3250  178.1730  137.2140 O   0  0  0  0  0  0  0  0  0  0  0  0
  187.1220  178.0570  138.3570 C   0  0  0  0  0  0  0  0  0  0  0  0
  190.8330  177.1890  141.6540 C   0  0  1  0  0  3  0  0  0  0  0  0
  188.4820  177.7410  138.2490 C   0  0  0  0  0  3  0  0  0  0  0  0
  191.4710  177.6670  140.4860 O   0  0  0  0  0  0  0  0  0  0  0  0
  191.7280  177.3980  142.8750 C   0  0  0  0  0  2  0  0  0  0  0  0
  186.7450  178.3270  142.0850 N   0  0  0  0  0  0  0  0  0  0  0  0
  187.3910  178.0270  143.1820 C   0  0  0  0  0  0  0  0  0  0  0  0
  186.5340  178.2500  139.6200 C   0  0  0  0  0  0  0  0  0  0  0  0
  190.7300  177.2690  139.3350 C   0  0  1  0  0  3  0  0  0  0  0  0
  191.0060  176.9560  144.1560 C   0  0  0  0  0  2  0  0  0  0  0  0
  185.0200  178.7490  137.2850 C   0  0  0  0  0  2  0  0  0  0  0  0
  185.1610  178.5060  139.6950 O   0  0  0  0  0  0  0  0  0  0  0  0
  184.6870  178.6290  145.7890 C   0  0  0  0  0  0  0  0  0  0  0  0
  183.3820  178.9840  145.8670 F   0  0  0  0  0  0  0  0  0  0  0  0
  186.6760  178.1490  144.4710 C   0  0  0  0  0  0  0  0  0  0  0  0
  185.4030  178.3770  146.9610 C   0  0  0  0  0  3  0  0  0  0  0  0
  187.3840  177.9150  145.6580 C   0  0  0  0  0  3  0  0  0  0  0  0
  185.3200  178.5290  144.5440 C   0  0  0  0  0  0  0  0  0  0  0  0
  184.6000  178.8340  143.3920 O   0  0  0  0  0  1  0  0  0  0  0  0
  186.7570  178.0220  146.9010 C   0  0  0  0  0  0  0  0  0  0  0  0
  188.8440  177.4940  148.0860 C   0  0  0  0  0  2  0  0  0  0  0  0
  187.5430  177.7570  148.1150 C   0  0  0  0  0  3  0  0  0  0  0  0
  190.8920  175.7800  139.0430 C   0  0  0  0  0  2  0  0  0  0  0  0
  191.9660  175.5660  137.9950 C   0  0  0  0  0  1  0  0  0  0  0  0
  1 15  1  0  0  0  0
  1  3  1  1  0  0  0
  2  7  1  0  0  0  0
  4  2  1  6  0  0  0
  4  1  1  0  0  0  0
  5  2  2  0  0  0  0
  6 20  1  0  0  0  0
  7 14  1  0  0  0  0
  8 19  1  0  0  0  0
  8  9  1  0  0  0  0
  9 16  1  0  0  0  0
 10  4  1  0  0  0  0
 10 13  1  1  0  0  0
 11  9  2  0  0  0  0
 11  5  1  0  0  0  0
 12 10  1  0  0  0  0
 13 18  1  0  0  0  0
 14 15  2  0  0  0  0
 15 23  1  0  0  0  0
 16 20  1  0  0  0  0
 16  7  2  0  0  0  0
 17 31  1  1  0  0  0
 17  5  1  0  0  0  0
 17 12  1  0  0  0  0
 18  3  1  0  0  0  0
 19  6  1  0  0  0  0
 21 22  1  0  0  0  0
 21 24  1  0  0  0  0
 23 26  1  0  0  0  0
 23 25  2  0  0  0  0
 25 28  1  0  0  0  0
 26 21  2  0  0  0  0
 27 26  1  0  0  0  0
 28 24  2  0  0  0  0
 28 30  1  0  0  0  0
 29 30  2  0  0  0  0
 32 31  1  0  0  0  0
M  END
>  <MODEL>
6

>  <REMARK>
 VINA RESULT:      -9.7      2.356      6.743
  Name = 
  3 active torsions:
  status: ('A' for Active; 'I' for Inactive)
    1  A    between atoms: C_13  and  C_29
    2  A    between atoms: C_15  and  C_26
    3  A    between atoms: C_16  and  C_27
                            x       y       z     vdW  Elec       q    Type
                         _______ _______ _______ _____ _____    ______ ____

>  <TORSDO>
F 3

$$$$
=
 OpenBabel10262421083D

 32 37  0  0  1  0  0  0  0  0999 V2000
  189.1080  177.3790  141.5630 C   0  0  2  0  0  3  0  0  0  0  0  0
  189.3470  177.4810  139.0890 C   0  0  0  0  0  0  0  0  0  0  0  0
  189.7970  177.8590  142.8420 C   0  0  0  0  0  2  0  0  0  0  0  0
  190.0100  177.7610  140.3890 C   0  0  2  0  0  3  0  0  0  0  0  0
  190.1110  177.0940  137.9820 C   0  0  0  0  0  0  0  0  0  0  0  0
  185.3120  177.3890  136.3770 C   0  0  0  0  0  2  0  0  0  0  0  0
  187.9750  177.7250  138.9750 C   0  0  0  0  0  0  0  0  0  0  0  0
  187.5000  177.1500  135.3530 O   0  0  0  0  0  0  0  0  0  0  0  0
  188.1260  177.2380  136.6000 C   0  0  0  0  0  0  0  0  0  0  0  0
  191.3440  177.0270  140.4720 C   0  0  1  0  0  3  0  0  0  0  0  0
  189.4940  176.9680  136.7310 C   0  0  0  0  0  3  0  0  0  0  0  0
  192.1330  177.3520  139.3440 O   0  0  0  0  0  0  0  0  0  0  0  0
  192.0510  177.4530  141.7590 C   0  0  0  0  0  2  0  0  0  0  0  0
  187.2150  178.0440  140.1540 N   0  0  0  0  0  0  0  0  0  0  0  0
  187.7040  177.9380  141.3630 C   0  0  0  0  0  0  0  0  0  0  0  0
  187.3600  177.5930  137.7250 C   0  0  0  0  0  0  0  0  0  0  0  0
  191.5730  176.7570  138.1770 C   0  0  1  0  0  3  0  0  0  0  0  0
  191.1630  177.1750  142.9800 C   0  0  0  0  0  2  0  0  0  0  0  0
  186.1870  177.6750  135.1540 C   0  0  0  0  0  2  0  0  0  0  0  0
  185.9850  177.7990  137.5700 O   0  0  0  0  0  0  0  0  0  0  0  0
  184.7980  179.1900  143.4750 C   0  0  0  0  0  0  0  0  0  0  0  0
  183.6420  179.8840  143.3420 F   0  0  0  0  0  0  0  0  0  0  0  0
  186.8090  178.2200  142.5060 C   0  0  0  0  0  0  0  0  0  0  0  0
  185.1810  178.7270  144.7350 C   0  0  0  0  0  3  0  0  0  0  0  0
  187.1860  177.7750  143.7810 C   0  0  0  0  0  3  0  0  0  0  0  0
  185.6120  178.9520  142.3610 C   0  0  0  0  0  0  0  0  0  0  0  0
  185.2350  179.4660  141.1240 O   0  0  0  0  0  1  0  0  0  0  0  0
  186.3800  178.0200  144.8950 C   0  0  0  0  0  0  0  0  0  0  0  0
  188.0950  177.3350  146.5150 C   0  0  0  0  0  2  0  0  0  0  0  0
  186.8180  177.5250  146.2080 C   0  0  0  0  0  3  0  0  0  0  0  0
  191.8060  175.2490  138.1420 C   0  0  0  0  0  2  0  0  0  0  0  0
  193.2150  174.9480  137.6720 C   0  0  0  0  0  1  0  0  0  0  0  0
  1  3  1  1  0  0  0
  3 18  1  0  0  0  0
  4  2  1  6  0  0  0
  4 10  1  0  0  0  0
  4  1  1  0  0  0  0
  5 17  1  0  0  0  0
  5  2  2  0  0  0  0
  6 20  1  0  0  0  0
  7  2  1  0  0  0  0
  7 14  1  0  0  0  0
  8  9  1  0  0  0  0
  9 11  2  0  0  0  0
  9 16  1  0  0  0  0
 10 13  1  1  0  0  0
 11  5  1  0  0  0  0
 12 10  1  0  0  0  0
 13 18  1  0  0  0  0
 14 15  2  0  0  0  0
 15  1  1  0  0  0  0
 15 23  1  0  0  0  0
 16  7  2  0  0  0  0
 17 31  1  1  0  0  0
 17 12  1  0  0  0  0
 19  8  1  0  0  0  0
 19  6  1  0  0  0  0
 20 16  1  0  0  0  0
 21 24  1  0  0  0  0
 22 21  1  0  0  0  0
 23 25  2  0  0  0  0
 24 28  2  0  0  0  0
 25 28  1  0  0  0  0
 26 23  1  0  0  0  0
 26 21  2  0  0  0  0
 27 26  1  0  0  0  0
 28 30  1  0  0  0  0
 30 29  2  0  0  0  0
 32 31  1  0  0  0  0
M  END
>  <MODEL>
7

>  <REMARK>
 VINA RESULT:      -9.6      2.483      7.167
  Name = 
  3 active torsions:
  status: ('A' for Active; 'I' for Inactive)
    1  A    between atoms: C_13  and  C_29
    2  A    between atoms: C_15  and  C_26
    3  A    between atoms: C_16  and  C_27
                            x       y       z     vdW  Elec       q    Type
                         _______ _______ _______ _____ _____    ______ ____

>  <TORSDO>
F 3

$$$$
=
 OpenBabel10262421083D

 32 37  0  0  1  0  0  0  0  0999 V2000
  184.2930  178.1980  142.6780 C   0  0  2  0  0  3  0  0  0  0  0  0
  186.7620  178.3140  142.9650 C   0  0  0  0  0  0  0  0  0  0  0  0
  183.0100  178.8830  143.1540 C   0  0  0  0  0  2  0  0  0  0  0  0
  185.4520  178.8010  143.4720 C   0  0  2  0  0  3  0  0  0  0  0  0
  187.8350  178.1420  143.8460 C   0  0  0  0  0  0  0  0  0  0  0  0
  189.5800  177.0010  139.2260 C   0  0  0  0  0  2  0  0  0  0  0  0
  186.9210  178.1480  141.5860 C   0  0  0  0  0  0  0  0  0  0  0  0
  190.5350  177.3850  141.4240 O   0  0  0  0  0  0  0  0  0  0  0  0
  189.2750  177.6770  141.9540 C   0  0  0  0  0  0  0  0  0  0  0  0
  185.3100  178.4870  144.9580 C   0  0  1  0  0  3  0  0  0  0  0  0
  189.0980  177.8170  143.3360 C   0  0  0  0  0  3  0  0  0  0  0  0
  186.4250  179.0030  145.6580 O   0  0  0  0  0  0  0  0  0  0  0  0
  184.0180  179.1250  145.4660 C   0  0  0  0  0  2  0  0  0  0  0  0
  185.7730  178.2570  140.7250 N   0  0  0  0  0  0  0  0  0  0  0  0
  184.5490  178.3220  141.1800 C   0  0  0  0  0  0  0  0  0  0  0  0
  188.1830  177.8170  141.0790 C   0  0  0  0  0  0  0  0  0  0  0  0
  187.5890  178.2470  145.3350 C   0  0  1  0  0  3  0  0  0  0  0  0
  182.8140  178.6280  144.6530 C   0  0  0  0  0  2  0  0  0  0  0  0
  190.7860  177.5030  140.0230 C   0  0  0  0  0  2  0  0  0  0  0  0
  188.3820  177.6130  139.7100 O   0  0  0  0  0  0  0  0  0  0  0  0
  182.2240  179.3900  138.3650 C   0  0  0  0  0  0  0  0  0  0  0  0
  182.0800  180.3890  137.4610 F   0  0  0  0  0  0  0  0  0  0  0  0
  183.4390  178.3560  140.2030 C   0  0  0  0  0  0  0  0  0  0  0  0
  181.2910  178.3520  138.3980 C   0  0  0  0  0  3  0  0  0  0  0  0
  182.4850  177.3290  140.2320 C   0  0  0  0  0  3  0  0  0  0  0  0
  183.2910  179.4050  139.2710 C   0  0  0  0  0  0  0  0  0  0  0  0
  184.1810  180.4750  139.2540 O   0  0  0  0  0  1  0  0  0  0  0  0
  181.4140  177.3180  139.3350 C   0  0  0  0  0  0  0  0  0  0  0  0
  179.5590  176.0950  140.3830 C   0  0  0  0  0  2  0  0  0  0  0  0
  180.4470  176.2140  139.4030 C   0  0  0  0  0  3  0  0  0  0  0  0
  187.5730  176.8710  145.9950 C   0  0  0  0  0  2  0  0  0  0  0  0
  188.3070  176.9170  147.3200 C   0  0  0  0  0  1  0  0  0  0  0  0
  1  3  1  6  0  0  0
  1  4  1  0  0  0  0
  2  5  1  0  0  0  0
  3 18  1  0  0  0  0
  4  2  1  6  0  0  0
  4 10  1  0  0  0  0
  5 17  1  0  0  0  0
  6 20  1  0  0  0  0
  6 19  1  0  0  0  0
  7  2  2  0  0  0  0
  8  9  1  0  0  0  0
  9 11  1  0  0  0  0
 10 13  1  1  0  0  0
 10 12  1  0  0  0  0
 11  5  2  0  0  0  0
 14 15  2  0  0  0  0
 14  7  1  0  0  0  0
 15  1  1  0  0  0  0
 16  7  1  0  0  0  0
 16  9  2  0  0  0  0
 17 12  1  0  0  0  0
 17 31  1  6  0  0  0
 18 13  1  0  0  0  0
 19  8  1  0  0  0  0
 20 16  1  0  0  0  0
 21 24  2  0  0  0  0
 21 26  1  0  0  0  0
 22 21  1  0  0  0  0
 23 25  1  0  0  0  0
 23 15  1  0  0  0  0
 24 28  1  0  0  0  0
 26 23  2  0  0  0  0
 27 26  1  0  0  0  0
 28 30  1  0  0  0  0
 28 25  2  0  0  0  0
 30 29  2  0  0  0  0
 31 32  1  0  0  0  0
M  END
>  <MODEL>
8

>  <REMARK>
 VINA RESULT:      -9.6      2.970      6.385
  Name = 
  3 active torsions:
  status: ('A' for Active; 'I' for Inactive)
    1  A    between atoms: C_13  and  C_29
    2  A    between atoms: C_15  and  C_26
    3  A    between atoms: C_16  and  C_27
                            x       y       z     vdW  Elec       q    Type
                         _______ _______ _______ _____ _____    ______ ____

>  <TORSDO>
F 3

$$$$
=
 OpenBabel10262421083D

 32 37  0  0  1  0  0  0  0  0999 V2000
  185.9450  178.6930  142.7280 C   0  0  2  0  0  3  0  0  0  0  0  0
  185.7400  178.2640  140.2870 C   0  0  0  0  0  0  0  0  0  0  0  0
  185.2270  178.4040  144.0480 C   0  0  0  0  0  2  0  0  0  0  0  0
  185.0520  178.1750  141.6010 C   0  0  2  0  0  3  0  0  0  0  0  0
  185.0010  178.5150  139.1250 C   0  0  0  0  0  0  0  0  0  0  0  0
  189.8150  177.9090  137.6580 C   0  0  0  0  0  2  0  0  0  0  0  0
  187.1070  177.9790  140.2300 C   0  0  0  0  0  0  0  0  0  0  0  0
  187.6480  178.0530  136.5730 O   0  0  0  0  0  0  0  0  0  0  0  0
  187.0020  178.1450  137.8090 C   0  0  0  0  0  0  0  0  0  0  0  0
  183.7330  178.9410  141.5620 C   0  0  1  0  0  3  0  0  0  0  0  0
  185.6390  178.4590  137.8790 C   0  0  0  0  0  3  0  0  0  0  0  0
  182.9540  178.4830  140.4740 O   0  0  0  0  0  0  0  0  0  0  0  0
  182.9990  178.7060  142.8810 C   0  0  0  0  0  2  0  0  0  0  0  0
  187.8430  177.8060  141.4550 N   0  0  0  0  0  0  0  0  0  0  0  0
  187.3390  178.0840  142.6290 C   0  0  0  0  0  0  0  0  0  0  0  0
  187.7440  177.9300  138.9850 C   0  0  0  0  0  0  0  0  0  0  0  0
  183.5450  178.9040  139.2470 C   0  0  1  0  0  3  0  0  0  0  0  0
  183.8750  179.1270  144.0700 C   0  0  0  0  0  2  0  0  0  0  0  0
  188.9520  177.4800  136.4690 C   0  0  0  0  0  2  0  0  0  0  0  0
  189.1150  177.6770  138.8830 O   0  0  0  0  0  0  0  0  0  0  0  0
  190.3990  177.7890  144.8710 C   0  0  0  0  0  0  0  0  0  0  0  0
  191.7510  177.7830  144.7860 F   0  0  0  0  0  0  0  0  0  0  0  0
  188.2110  177.9400  143.8160 C   0  0  0  0  0  0  0  0  0  0  0  0
  189.7880  177.6410  146.1180 C   0  0  0  0  0  3  0  0  0  0  0  0
  187.6130  177.7750  145.0740 C   0  0  0  0  0  3  0  0  0  0  0  0
  189.6180  177.9260  143.7170 C   0  0  0  0  0  0  0  0  0  0  0  0
  190.2480  178.0210  142.4800 O   0  0  0  0  0  1  0  0  0  0  0  0
  188.3910  177.6300  146.2250 C   0  0  0  0  0  0  0  0  0  0  0  0
  188.2170  177.9370  148.6560 C   0  0  0  0  0  2  0  0  0  0  0  0
  187.7150  177.4690  147.5190 C   0  0  0  0  0  3  0  0  0  0  0  0
  183.3460  180.3980  139.0060 C   0  0  0  0  0  2  0  0  0  0  0  0
  181.9330  180.6680  138.5280 C   0  0  0  0  0  1  0  0  0  0  0  0
  1  3  1  1  0  0  0
  3 18  1  0  0  0  0
  4  2  1  6  0  0  0
  4  1  1  0  0  0  0
  5 17  1  0  0  0  0
  5  2  2  0  0  0  0
  6 20  1  0  0  0  0
  7  2  1  0  0  0  0
  7 14  1  0  0  0  0
  8  9  1  0  0  0  0
  9 11  2  0  0  0  0
  9 16  1  0  0  0  0
 10  4  1  0  0  0  0
 10 13  1  1  0  0  0
 11  5  1  0  0  0  0
 12 10  1  0  0  0  0
 13 18  1  0  0  0  0
 14 15  2  0  0  0  0
 15  1  1  0  0  0  0
 15 23  1  0  0  0  0
 16  7  2  0  0  0  0
 17 31  1  1  0  0  0
 17 12  1  0  0  0  0
 19  8  1  0  0  0  0
 19  6  1  0  0  0  0
 20 16  1  0  0  0  0
 21 24  1  0  0  0  0
 22 21  1  0  0  0  0
 23 25  2  0  0  0  0
 24 28  2  0  0  0  0
 25 28  1  0  0  0  0
 26 23  1  0  0  0  0
 26 21  2  0  0  0  0
 27 26  1  0  0  0  0
 28 30  1  0  0  0  0
 30 29  2  0  0  0  0
 32 31  1  0  0  0  0
M  END
>  <MODEL>
9

>  <REMARK>
 VINA RESULT:      -9.5      2.708      7.601
  Name = 
  3 active torsions:
  status: ('A' for Active; 'I' for Inactive)
    1  A    between atoms: C_13  and  C_29
    2  A    between atoms: C_15  and  C_26
    3  A    between atoms: C_16  and  C_27
                            x       y       z     vdW  Elec       q    Type
                         _______ _______ _______ _____ _____    ______ ____

>  <TORSDO>
F 3

$$$$
