=
 OpenBabel10262420083D

 27 31  0  0  0  0  0  0  0  0999 V2000
  186.5540  178.4270  141.0140 C   0  0  0  0  0  0  0  0  0  0  0  0
  188.8320  177.6730  141.6760 C   0  0  0  0  0  0  0  0  0  0  0  0
  187.1330  178.1740  143.3190 O   0  0  0  0  0  0  0  0  0  0  0  0
  191.5670  176.6590  144.6340 C   0  0  0  0  0  3  0  0  0  0  0  0
  192.1430  176.3960  146.9620 O   0  0  0  0  0  1  0  0  0  0  0  0
  190.0930  177.2490  141.3800 N   0  0  0  0  0  0  0  0  0  0  0  0
  188.9980  177.5000  145.3750 C   0  0  0  0  0  3  0  0  0  0  0  0
  189.9340  177.1560  146.3550 C   0  0  0  0  0  3  0  0  0  0  0  0
  189.3430  177.4260  144.0200 C   0  0  0  0  0  0  0  0  0  0  0  0
  187.8890  178.0070  140.6370 N   0  0  0  0  0  0  0  0  0  0  0  0
  191.2170  176.7360  145.9850 C   0  0  0  0  0  0  0  0  0  0  0  0
  190.6350  177.0010  143.6510 C   0  0  0  0  0  0  0  0  0  0  0  0
  185.5570  178.8860  139.9780 C   0  0  0  0  0  2  0  0  0  0  0  0
  188.4340  177.7600  143.0150 C   0  0  0  0  0  0  0  0  0  0  0  0
  184.8430  178.9790  142.7200 C   0  0  0  0  0  2  0  0  0  0  0  0
  190.9670  176.9260  142.3360 N   0  0  0  0  0  0  0  0  0  0  0  0
  183.8240  178.6570  141.6530 C   0  0  0  0  0  0  0  0  0  0  0  0
  184.1860  178.6030  140.4060 N   0  0  0  0  0  0  0  0  0  0  0  0
  186.2120  178.5060  142.3170 C   0  0  0  0  0  0  0  0  0  0  0  0
  188.9910  177.7150  136.5480 C   0  0  0  0  0  3  0  0  0  0  0  0
  188.2670  177.9070  139.2520 C   0  0  0  0  0  0  0  0  0  0  0  0
  188.0520  176.7160  138.5440 C   0  0  0  0  0  3  0  0  0  0  0  0
  188.4130  176.6200  137.1970 C   0  0  0  0  0  3  0  0  0  0  0  0
  189.2070  178.9060  137.2470 C   0  0  0  0  0  3  0  0  0  0  0  0
  188.8460  179.0030  138.5940 C   0  0  0  0  0  3  0  0  0  0  0  0
  182.4880  178.4160  141.9820 O   0  0  0  0  0  0  0  0  0  0  0  0
  181.8810  178.9650  143.1410 C   0  0  0  0  0  1  0  0  0  0  0  0
  1 19  2  0  0  0  0
  2 14  1  0  0  0  0
  4 11  2  0  0  0  0
  6  2  2  0  0  0  0
  6 16  1  0  0  0  0
  7  8  2  0  0  0  0
  9  7  1  0  0  0  0
 10  1  1  0  0  0  0
 10  2  1  0  0  0  0
 11  8  1  0  0  0  0
 11  5  1  0  0  0  0
 12  9  1  0  0  0  0
 12  4  1  0  0  0  0
 13 18  1  0  0  0  0
 13  1  1  0  0  0  0
 14  3  1  0  0  0  0
 14  9  2  0  0  0  0
 16 12  2  0  0  0  0
 17 26  1  0  0  0  0
 17 15  1  0  0  0  0
 18 17  2  0  0  0  0
 19 15  1  0  0  0  0
 19  3  1  0  0  0  0
 20 23  2  0  0  0  0
 20 24  1  0  0  0  0
 21 10  1  0  0  0  0
 22 21  2  0  0  0  0
 23 22  1  0  0  0  0
 24 25  2  0  0  0  0
 25 21  1  0  0  0  0
 26 27  1  0  0  0  0
M  END
>  <MODEL>
1

>  <REMARK>
 VINA RESULT:      -8.7      0.000      0.000
  Name = 
  2 active torsions:
  status: ('A' for Active; 'I' for Inactive)
    1  A    between atoms: C_9  and  N_15
    2  A    between atoms: O_10  and  C_22
                            x       y       z     vdW  Elec       q    Type
                         _______ _______ _______ _____ _____    ______ ____

>  <TORSDO>
F 2

$$$$
=
 OpenBabel10262420083D

 27 31  0  0  0  0  0  0  0  0999 V2000
  187.3080  177.9400  141.9190 C   0  0  0  0  0  0  0  0  0  0  0  0
  187.6850  177.6630  144.3640 C   0  0  0  0  0  0  0  0  0  0  0  0
  189.4570  177.3170  142.7580 O   0  0  0  0  0  0  0  0  0  0  0  0
  190.2270  176.8130  147.5370 C   0  0  0  0  0  3  0  0  0  0  0  0
  192.4020  176.1940  148.3790 O   0  0  0  0  0  1  0  0  0  0  0  0
  187.2630  177.7040  145.6590 N   0  0  0  0  0  0  0  0  0  0  0  0
  191.2240  176.7110  144.9190 C   0  0  0  0  0  3  0  0  0  0  0  0
  192.0620  176.4270  146.0020 C   0  0  0  0  0  3  0  0  0  0  0  0
  189.8830  177.0470  145.1420 C   0  0  0  0  0  0  0  0  0  0  0  0
  186.7940  177.9750  143.2730 N   0  0  0  0  0  0  0  0  0  0  0  0
  191.5650  176.4780  147.3090 C   0  0  0  0  0  0  0  0  0  0  0  0
  189.3850  177.0980  146.4600 C   0  0  0  0  0  0  0  0  0  0  0  0
  186.4010  178.1570  140.7330 C   0  0  0  0  0  2  0  0  0  0  0  0
  189.0170  177.3380  144.0860 C   0  0  0  0  0  0  0  0  0  0  0  0
  189.1300  177.5350  140.2890 C   0  0  0  0  0  2  0  0  0  0  0  0
  188.0850  177.4280  146.6730 N   0  0  0  0  0  0  0  0  0  0  0  0
  188.3790  178.4700  139.3720 C   0  0  0  0  0  0  0  0  0  0  0  0
  187.1330  178.7510  139.6130 N   0  0  0  0  0  0  0  0  0  0  0  0
  188.5980  177.6140  141.6930 C   0  0  0  0  0  0  0  0  0  0  0  0
  182.7500  179.0120  144.0420 C   0  0  0  0  0  3  0  0  0  0  0  0
  185.4240  178.3310  143.5330 C   0  0  0  0  0  0  0  0  0  0  0  0
  184.4770  178.3080  142.4980 C   0  0  0  0  0  3  0  0  0  0  0  0
  183.1450  178.6480  142.7520 C   0  0  0  0  0  3  0  0  0  0  0  0
  183.6870  179.0360  145.0790 C   0  0  0  0  0  3  0  0  0  0  0  0
  185.0190  178.6960  144.8260 C   0  0  0  0  0  3  0  0  0  0  0  0
  189.0000  179.0430  138.2600 O   0  0  0  0  0  0  0  0  0  0  0  0
  189.0250  178.4050  136.9920 C   0  0  0  0  0  1  0  0  0  0  0  0
  1 10  1  0  0  0  0
  2  6  1  0  0  0  0
  3 14  1  0  0  0  0
  6 16  2  0  0  0  0
  7  9  2  0  0  0  0
  7  8  1  0  0  0  0
  8 11  2  0  0  0  0
  9 12  1  0  0  0  0
 10 21  1  0  0  0  0
 10  2  1  0  0  0  0
 11  4  1  0  0  0  0
 11  5  1  0  0  0  0
 12 16  1  0  0  0  0
 12  4  2  0  0  0  0
 13  1  1  0  0  0  0
 14  2  2  0  0  0  0
 14  9  1  0  0  0  0
 15 19  1  0  0  0  0
 17 18  2  0  0  0  0
 17 15  1  0  0  0  0
 18 13  1  0  0  0  0
 19  1  2  0  0  0  0
 19  3  1  0  0  0  0
 20 24  1  0  0  0  0
 21 25  1  0  0  0  0
 22 23  1  0  0  0  0
 22 21  2  0  0  0  0
 23 20  2  0  0  0  0
 25 24  2  0  0  0  0
 26 17  1  0  0  0  0
 27 26  1  0  0  0  0
M  END
>  <MODEL>
2

>  <REMARK>
 VINA RESULT:      -8.7      2.204      5.075
  Name = 
  2 active torsions:
  status: ('A' for Active; 'I' for Inactive)
    1  A    between atoms: C_9  and  N_15
    2  A    between atoms: O_10  and  C_22
                            x       y       z     vdW  Elec       q    Type
                         _______ _______ _______ _____ _____    ______ ____

>  <TORSDO>
F 2

$$$$
=
 OpenBabel10262420083D

 27 31  0  0  0  0  0  0  0  0999 V2000
  190.0570  176.8830  144.3940 C   0  0  0  0  0  0  0  0  0  0  0  0
  188.1260  177.6860  143.0430 C   0  0  0  0  0  0  0  0  0  0  0  0
  187.9670  177.3900  145.4360 O   0  0  0  0  0  0  0  0  0  0  0  0
  184.1930  179.0020  142.8190 C   0  0  0  0  0  3  0  0  0  0  0  0
  182.0880  179.5220  143.8780 O   0  0  0  0  0  1  0  0  0  0  0  0
  187.5560  178.0610  141.8640 N   0  0  0  0  0  0  0  0  0  0  0  0
  185.2530  178.2750  145.3100 C   0  0  0  0  0  3  0  0  0  0  0  0
  183.9310  178.7190  145.2120 C   0  0  0  0  0  3  0  0  0  0  0  0
  186.0510  178.1920  144.1620 C   0  0  0  0  0  0  0  0  0  0  0  0
  189.4980  177.2440  143.1070 N   0  0  0  0  0  0  0  0  0  0  0  0
  183.4010  179.0820  143.9690 C   0  0  0  0  0  0  0  0  0  0  0  0
  185.5150  178.5600  142.9110 C   0  0  0  0  0  0  0  0  0  0  0  0
  191.4520  176.3190  144.5100 C   0  0  0  0  0  2  0  0  0  0  0  0
  187.3750  177.7540  144.2220 C   0  0  0  0  0  0  0  0  0  0  0  0
  189.8540  176.5440  146.8410 C   0  0  0  0  0  2  0  0  0  0  0  0
  186.2910  178.4820  141.8000 N   0  0  0  0  0  0  0  0  0  0  0  0
  191.3480  176.7530  146.8900 C   0  0  0  0  0  0  0  0  0  0  0  0
  192.0510  176.6620  145.8010 N   0  0  0  0  0  0  0  0  0  0  0  0
  189.2960  176.9560  145.5060 C   0  0  0  0  0  0  0  0  0  0  0  0
  191.8540  177.0780  139.5790 C   0  0  0  0  0  3  0  0  0  0  0  0
  190.2990  177.1830  141.9120 C   0  0  0  0  0  0  0  0  0  0  0  0
  189.7320  176.7590  140.7010 C   0  0  0  0  0  3  0  0  0  0  0  0
  190.5070  176.7060  139.5390 C   0  0  0  0  0  3  0  0  0  0  0  0
  192.4250  177.5030  140.7820 C   0  0  0  0  0  3  0  0  0  0  0  0
  191.6510  177.5570  141.9440 C   0  0  0  0  0  3  0  0  0  0  0  0
  191.9960  177.0420  148.0930 O   0  0  0  0  0  0  0  0  0  0  0  0
  192.8290  176.1010  148.7520 C   0  0  0  0  0  1  0  0  0  0  0  0
  1 13  1  0  0  0  0
  1 19  2  0  0  0  0
  2 10  1  0  0  0  0
  2 14  1  0  0  0  0
  3 19  1  0  0  0  0
  4 12  1  0  0  0  0
  4 11  2  0  0  0  0
  5 11  1  0  0  0  0
  6  2  2  0  0  0  0
  8  7  2  0  0  0  0
  9 14  2  0  0  0  0
  9  7  1  0  0  0  0
 10  1  1  0  0  0  0
 11  8  1  0  0  0  0
 12  9  1  0  0  0  0
 13 18  1  0  0  0  0
 14  3  1  0  0  0  0
 15 17  1  0  0  0  0
 16  6  1  0  0  0  0
 16 12  2  0  0  0  0
 17 26  1  0  0  0  0
 18 17  2  0  0  0  0
 19 15  1  0  0  0  0
 20 24  1  0  0  0  0
 21 25  1  0  0  0  0
 21 10  1  0  0  0  0
 22 21  2  0  0  0  0
 23 20  2  0  0  0  0
 23 22  1  0  0  0  0
 24 25  2  0  0  0  0
 26 27  1  0  0  0  0
M  END
>  <MODEL>
3

>  <REMARK>
 VINA RESULT:      -8.5      2.054      6.451
  Name = 
  2 active torsions:
  status: ('A' for Active; 'I' for Inactive)
    1  A    between atoms: C_9  and  N_15
    2  A    between atoms: O_10  and  C_22
                            x       y       z     vdW  Elec       q    Type
                         _______ _______ _______ _____ _____    ______ ____

>  <TORSDO>
F 2

$$$$
=
 OpenBabel10262420083D

 27 31  0  0  0  0  0  0  0  0999 V2000
  188.2790  177.8360  143.3570 C   0  0  0  0  0  0  0  0  0  0  0  0
  185.9920  178.2300  144.2560 C   0  0  0  0  0  0  0  0  0  0  0  0
  186.4280  178.1590  141.8810 O   0  0  0  0  0  0  0  0  0  0  0  0
  181.9400  178.8880  143.6180 C   0  0  0  0  0  3  0  0  0  0  0  0
  180.0730  179.2030  142.1230 O   0  0  0  0  0  1  0  0  0  0  0  0
  185.1100  178.3570  145.2870 N   0  0  0  0  0  0  0  0  0  0  0  0
  183.6490  178.6270  141.4110 C   0  0  0  0  0  3  0  0  0  0  0  0
  182.2830  178.8510  141.2190 C   0  0  0  0  0  3  0  0  0  0  0  0
  184.1670  178.5340  142.7090 C   0  0  0  0  0  0  0  0  0  0  0  0
  187.3940  177.9880  144.4930 N   0  0  0  0  0  0  0  0  0  0  0  0
  181.4290  178.9810  142.3200 C   0  0  0  0  0  0  0  0  0  0  0  0
  183.3050  178.6640  143.8160 C   0  0  0  0  0  0  0  0  0  0  0  0
  189.7690  177.6820  143.5410 C   0  0  0  0  0  2  0  0  0  0  0  0
  185.5260  178.3100  142.9390 C   0  0  0  0  0  0  0  0  0  0  0  0
  188.7080  177.8130  140.9150 C   0  0  0  0  0  2  0  0  0  0  0  0
  183.8090  178.5690  145.0740 N   0  0  0  0  0  0  0  0  0  0  0  0
  189.9030  176.9470  141.2370 C   0  0  0  0  0  0  0  0  0  0  0  0
  190.3540  176.8940  142.4550 N   0  0  0  0  0  0  0  0  0  0  0  0
  187.7910  177.9280  142.1020 C   0  0  0  0  0  0  0  0  0  0  0  0
  188.8650  177.6640  148.4620 C   0  0  0  0  0  3  0  0  0  0  0  0
  187.8960  177.8820  145.8380 C   0  0  0  0  0  0  0  0  0  0  0  0
  187.2340  178.5260  146.8940 C   0  0  0  0  0  3  0  0  0  0  0  0
  187.7170  178.4180  148.2010 C   0  0  0  0  0  3  0  0  0  0  0  0
  189.5290  177.0190  147.4160 C   0  0  0  0  0  3  0  0  0  0  0  0
  189.0470  177.1260  146.1090 C   0  0  0  0  0  3  0  0  0  0  0  0
  190.5390  176.1990  140.2450 O   0  0  0  0  0  0  0  0  0  0  0  0
  190.5810  176.6160  138.8890 C   0  0  0  0  0  1  0  0  0  0  0  0
  1 13  1  0  0  0  0
  1 10  1  0  0  0  0
  2 10  1  0  0  0  0
  2  6  1  0  0  0  0
  3 19  1  0  0  0  0
  3 14  1  0  0  0  0
  4 12  1  0  0  0  0
  5 11  1  0  0  0  0
  7  9  1  0  0  0  0
  8  7  2  0  0  0  0
  8 11  1  0  0  0  0
  9 14  1  0  0  0  0
  9 12  2  0  0  0  0
 10 21  1  0  0  0  0
 11  4  2  0  0  0  0
 12 16  1  0  0  0  0
 14  2  2  0  0  0  0
 15 17  1  0  0  0  0
 15 19  1  0  0  0  0
 16  6  2  0  0  0  0
 17 18  2  0  0  0  0
 18 13  1  0  0  0  0
 19  1  2  0  0  0  0
 21 25  2  0  0  0  0
 21 22  1  0  0  0  0
 22 23  2  0  0  0  0
 23 20  1  0  0  0  0
 24 20  2  0  0  0  0
 25 24  1  0  0  0  0
 26 17  1  0  0  0  0
 27 26  1  0  0  0  0
M  END
>  <MODEL>
4

>  <REMARK>
 VINA RESULT:      -8.4      2.426      7.759
  Name = 
  2 active torsions:
  status: ('A' for Active; 'I' for Inactive)
    1  A    between atoms: C_9  and  N_15
    2  A    between atoms: O_10  and  C_22
                            x       y       z     vdW  Elec       q    Type
                         _______ _______ _______ _____ _____    ______ ____

>  <TORSDO>
F 2

$$$$
=
 OpenBabel10262420083D

 27 31  0  0  0  0  0  0  0  0999 V2000
  189.0620  177.8580  140.5910 C   0  0  0  0  0  0  0  0  0  0  0  0
  187.4170  177.9560  142.4570 C   0  0  0  0  0  0  0  0  0  0  0  0
  186.7790  178.4320  140.1760 O   0  0  0  0  0  0  0  0  0  0  0  0
  183.5390  178.5860  143.8040 C   0  0  0  0  0  3  0  0  0  0  0  0
  181.2340  179.1560  143.3780 O   0  0  0  0  0  1  0  0  0  0  0  0
  187.0770  177.8160  143.7690 N   0  0  0  0  0  0  0  0  0  0  0  0
  184.1070  178.8890  141.0760 C   0  0  0  0  0  3  0  0  0  0  0  0
  182.8080  179.0980  141.5510 C   0  0  0  0  0  3  0  0  0  0  0  0
  185.1270  178.5280  141.9650 C   0  0  0  0  0  0  0  0  0  0  0  0
  188.7660  177.7190  142.0020 N   0  0  0  0  0  0  0  0  0  0  0  0
  182.5240  178.9470  142.9120 C   0  0  0  0  0  0  0  0  0  0  0  0
  184.8380  178.3760  143.3350 C   0  0  0  0  0  0  0  0  0  0  0  0
  190.4720  177.7230  140.0700 C   0  0  0  0  0  2  0  0  0  0  0  0
  186.4350  178.3100  141.5260 C   0  0  0  0  0  0  0  0  0  0  0  0
  188.3920  178.3950  138.2650 C   0  0  0  0  0  2  0  0  0  0  0  0
  185.8290  178.0220  144.1950 N   0  0  0  0  0  0  0  0  0  0  0  0
  189.5500  177.5260  137.8400 C   0  0  0  0  0  0  0  0  0  0  0  0
  190.4790  177.2190  138.6960 N   0  0  0  0  0  0  0  0  0  0  0  0
  188.0860  178.2090  139.7260 C   0  0  0  0  0  0  0  0  0  0  0  0
  191.7800  176.5840  144.7680 C   0  0  0  0  0  3  0  0  0  0  0  0
  189.7910  177.3350  142.9360 C   0  0  0  0  0  0  0  0  0  0  0  0
  190.3520  178.2850  143.8030 C   0  0  0  0  0  3  0  0  0  0  0  0
  191.3430  177.9110  144.7150 C   0  0  0  0  0  3  0  0  0  0  0  0
  191.2260  175.6320  143.9080 C   0  0  0  0  0  3  0  0  0  0  0  0
  190.2340  176.0050  142.9960 C   0  0  0  0  0  3  0  0  0  0  0  0
  189.6460  177.0420  136.5330 O   0  0  0  0  0  0  0  0  0  0  0  0
  188.8140  177.5150  135.4850 C   0  0  0  0  0  1  0  0  0  0  0  0
  1 10  1  0  0  0  0
  2  6  1  0  0  0  0
  3 14  1  0  0  0  0
  6 16  2  0  0  0  0
  7  8  2  0  0  0  0
  7  9  1  0  0  0  0
  8 11  1  0  0  0  0
  9 12  2  0  0  0  0
 10  2  1  0  0  0  0
 10 21  1  0  0  0  0
 11  5  1  0  0  0  0
 11  4  2  0  0  0  0
 12  4  1  0  0  0  0
 12 16  1  0  0  0  0
 13  1  1  0  0  0  0
 14  9  1  0  0  0  0
 14  2  2  0  0  0  0
 15 19  1  0  0  0  0
 17 15  1  0  0  0  0
 17 18  2  0  0  0  0
 18 13  1  0  0  0  0
 19  3  1  0  0  0  0
 19  1  2  0  0  0  0
 21 25  2  0  0  0  0
 21 22  1  0  0  0  0
 22 23  2  0  0  0  0
 23 20  1  0  0  0  0
 24 20  2  0  0  0  0
 25 24  1  0  0  0  0
 26 17  1  0  0  0  0
 27 26  1  0  0  0  0
M  END
>  <MODEL>
5

>  <REMARK>
 VINA RESULT:      -8.4      2.390      6.644
  Name = 
  2 active torsions:
  status: ('A' for Active; 'I' for Inactive)
    1  A    between atoms: C_9  and  N_15
    2  A    between atoms: O_10  and  C_22
                            x       y       z     vdW  Elec       q    Type
                         _______ _______ _______ _____ _____    ______ ____

>  <TORSDO>
F 2

$$$$
=
 OpenBabel10262420083D

 27 31  0  0  0  0  0  0  0  0999 V2000
  189.2900  177.4710  142.6450 C   0  0  0  0  0  0  0  0  0  0  0  0
  187.3090  177.8680  144.0980 C   0  0  0  0  0  0  0  0  0  0  0  0
  187.1620  177.9860  141.6890 O   0  0  0  0  0  0  0  0  0  0  0  0
  183.2650  178.7230  144.5110 C   0  0  0  0  0  3  0  0  0  0  0  0
  181.1160  179.2330  143.5400 O   0  0  0  0  0  1  0  0  0  0  0  0
  186.7060  177.9370  145.3180 N   0  0  0  0  0  0  0  0  0  0  0  0
  184.3810  178.5930  141.9430 C   0  0  0  0  0  3  0  0  0  0  0  0
  183.0230  178.8810  142.1040 C   0  0  0  0  0  3  0  0  0  0  0  0
  185.1880  178.3700  143.0660 C   0  0  0  0  0  0  0  0  0  0  0  0
  188.7120  177.5560  143.9700 N   0  0  0  0  0  0  0  0  0  0  0  0
  182.4650  178.9460  143.3860 C   0  0  0  0  0  0  0  0  0  0  0  0
  184.6230  178.4350  144.3550 C   0  0  0  0  0  0  0  0  0  0  0  0
  190.7700  177.2480  142.4510 C   0  0  0  0  0  2  0  0  0  0  0  0
  186.5480  178.0780  142.9430 C   0  0  0  0  0  0  0  0  0  0  0  0
  189.1230  177.6420  140.1780 C   0  0  0  0  0  2  0  0  0  0  0  0
  185.4060  178.2140  145.4430 N   0  0  0  0  0  0  0  0  0  0  0  0
  190.3100  176.7100  140.1350 C   0  0  0  0  0  0  0  0  0  0  0  0
  191.0350  176.5360  141.2000 N   0  0  0  0  0  0  0  0  0  0  0  0
  188.5230  177.6880  141.5560 C   0  0  0  0  0  0  0  0  0  0  0  0
  191.0680  176.8360  147.4270 C   0  0  0  0  0  3  0  0  0  0  0  0
  189.5130  177.3160  145.1420 C   0  0  0  0  0  0  0  0  0  0  0  0
  188.9940  177.5750  146.4190 C   0  0  0  0  0  3  0  0  0  0  0  0
  189.7690  177.3360  147.5580 C   0  0  0  0  0  3  0  0  0  0  0  0
  191.5910  176.5750  146.1580 C   0  0  0  0  0  3  0  0  0  0  0  0
  190.8170  176.8130  145.0190 C   0  0  0  0  0  3  0  0  0  0  0  0
  190.6490  176.0280  138.9650 O   0  0  0  0  0  0  0  0  0  0  0  0
  191.7960  176.3590  138.1980 C   0  0  0  0  0  1  0  0  0  0  0  0
  1 10  1  0  0  0  0
  2  6  1  0  0  0  0
  3 14  1  0  0  0  0
  6 16  2  0  0  0  0
  7  8  2  0  0  0  0
  7  9  1  0  0  0  0
  8 11  1  0  0  0  0
  9 12  2  0  0  0  0
 10  2  1  0  0  0  0
 10 21  1  0  0  0  0
 11  5  1  0  0  0  0
 11  4  2  0  0  0  0
 12  4  1  0  0  0  0
 12 16  1  0  0  0  0
 13  1  1  0  0  0  0
 14  9  1  0  0  0  0
 14  2  2  0  0  0  0
 15 19  1  0  0  0  0
 17 15  1  0  0  0  0
 17 18  2  0  0  0  0
 18 13  1  0  0  0  0
 19  3  1  0  0  0  0
 19  1  2  0  0  0  0
 20 23  1  0  0  0  0
 21 22  1  0  0  0  0
 22 23  2  0  0  0  0
 24 20  2  0  0  0  0
 25 21  2  0  0  0  0
 25 24  1  0  0  0  0
 26 17  1  0  0  0  0
 27 26  1  0  0  0  0
M  END
>  <MODEL>
6

>  <REMARK>
 VINA RESULT:      -8.4      2.480      7.265
  Name = 
  2 active torsions:
  status: ('A' for Active; 'I' for Inactive)
    1  A    between atoms: C_9  and  N_15
    2  A    between atoms: O_10  and  C_22
                            x       y       z     vdW  Elec       q    Type
                         _______ _______ _______ _____ _____    ______ ____

>  <TORSDO>
F 2

$$$$
=
 OpenBabel10262420083D

 27 31  0  0  0  0  0  0  0  0999 V2000
  189.0250  177.5230  145.1510 C   0  0  0  0  0  0  0  0  0  0  0  0
  188.1480  177.8170  142.8410 C   0  0  0  0  0  0  0  0  0  0  0  0
  190.4390  177.1760  143.2570 O   0  0  0  0  0  0  0  0  0  0  0  0
  188.7320  177.7030  138.7300 C   0  0  0  0  0  3  0  0  0  0  0  0
  190.1610  177.3410  136.8200 O   0  0  0  0  0  1  0  0  0  0  0  0
  187.1430  178.0890  141.9610 N   0  0  0  0  0  0  0  0  0  0  0  0
  190.8760  177.1060  140.4340 C   0  0  0  0  0  3  0  0  0  0  0  0
  191.0510  177.0750  139.0470 C   0  0  0  0  0  3  0  0  0  0  0  0
  189.6260  177.4360  140.9740 C   0  0  0  0  0  0  0  0  0  0  0  0
  187.9260  177.8470  144.2660 N   0  0  0  0  0  0  0  0  0  0  0  0
  189.9810  177.3730  138.1960 C   0  0  0  0  0  0  0  0  0  0  0  0
  188.5510  177.7350  140.1150 C   0  0  0  0  0  0  0  0  0  0  0  0
  188.8820  177.6350  146.6500 C   0  0  0  0  0  2  0  0  0  0  0  0
  189.4140  177.4760  142.3540 C   0  0  0  0  0  0  0  0  0  0  0  0
  191.3930  176.9090  145.5520 C   0  0  0  0  0  2  0  0  0  0  0  0
  187.3390  178.0510  140.6410 N   0  0  0  0  0  0  0  0  0  0  0  0
  190.9160  176.3380  146.8660 C   0  0  0  0  0  0  0  0  0  0  0  0
  189.7510  176.6760  147.3340 N   0  0  0  0  0  0  0  0  0  0  0  0
  190.2340  177.2070  144.6410 C   0  0  0  0  0  0  0  0  0  0  0  0
  184.0910  178.8040  145.8150 C   0  0  0  0  0  3  0  0  0  0  0  0
  186.6270  178.1760  144.7920 C   0  0  0  0  0  0  0  0  0  0  0  0
  185.6370  178.7100  143.9540 C   0  0  0  0  0  3  0  0  0  0  0  0
  184.3740  179.0230  144.4640 C   0  0  0  0  0  3  0  0  0  0  0  0
  185.0710  178.2710  146.6560 C   0  0  0  0  0  3  0  0  0  0  0  0
  186.3340  177.9570  146.1470 C   0  0  0  0  0  3  0  0  0  0  0  0
  191.7070  175.4490  147.5960 O   0  0  0  0  0  0  0  0  0  0  0  0
  192.8380  175.8750  148.3410 C   0  0  0  0  0  1  0  0  0  0  0  0
  1 13  1  0  0  0  0
  2 10  1  0  0  0  0
  3 19  1  0  0  0  0
  4 12  1  0  0  0  0
  5 11  1  0  0  0  0
  6  2  2  0  0  0  0
  7  9  1  0  0  0  0
  8  7  2  0  0  0  0
  9 14  2  0  0  0  0
 10 21  1  0  0  0  0
 10  1  1  0  0  0  0
 11  4  2  0  0  0  0
 11  8  1  0  0  0  0
 12 16  2  0  0  0  0
 12  9  1  0  0  0  0
 13 18  1  0  0  0  0
 14  2  1  0  0  0  0
 14  3  1  0  0  0  0
 15 17  1  0  0  0  0
 16  6  1  0  0  0  0
 17 18  2  0  0  0  0
 17 26  1  0  0  0  0
 19  1  2  0  0  0  0
 19 15  1  0  0  0  0
 20 24  1  0  0  0  0
 21 25  1  0  0  0  0
 22 23  1  0  0  0  0
 22 21  2  0  0  0  0
 23 20  2  0  0  0  0
 25 24  2  0  0  0  0
 26 27  1  0  0  0  0
M  END
>  <MODEL>
7

>  <REMARK>
 VINA RESULT:      -8.3      2.643      7.240
  Name = 
  2 active torsions:
  status: ('A' for Active; 'I' for Inactive)
    1  A    between atoms: C_9  and  N_15
    2  A    between atoms: O_10  and  C_22
                            x       y       z     vdW  Elec       q    Type
                         _______ _______ _______ _____ _____    ______ ____

>  <TORSDO>
F 2

$$$$
=
 OpenBabel10262420083D

 27 31  0  0  0  0  0  0  0  0999 V2000
  188.0540  178.0610  140.3300 C   0  0  0  0  0  0  0  0  0  0  0  0
  189.2380  177.4320  142.4270 C   0  0  0  0  0  0  0  0  0  0  0  0
  186.9660  178.2510  142.4490 O   0  0  0  0  0  0  0  0  0  0  0  0
  189.2470  176.9850  146.5570 C   0  0  0  0  0  3  0  0  0  0  0  0
  188.1400  177.1700  148.6920 O   0  0  0  0  0  1  0  0  0  0  0  0
  190.3210  176.9500  143.0990 N   0  0  0  0  0  0  0  0  0  0  0  0
  186.9480  177.9710  145.2920 C   0  0  0  0  0  3  0  0  0  0  0  0
  186.9730  177.8150  146.6810 C   0  0  0  0  0  3  0  0  0  0  0  0
  188.0740  177.6350  144.5300 C   0  0  0  0  0  0  0  0  0  0  0  0
  189.2450  177.5670  140.9910 N   0  0  0  0  0  0  0  0  0  0  0  0
  188.1210  177.3220  147.3130 C   0  0  0  0  0  0  0  0  0  0  0  0
  189.2280  177.1390  145.1690 C   0  0  0  0  0  0  0  0  0  0  0  0
  188.0350  178.3200  138.8430 C   0  0  0  0  0  2  0  0  0  0  0  0
  188.0850  177.7770  143.1400 C   0  0  0  0  0  0  0  0  0  0  0  0
  185.7380  178.9420  140.3830 C   0  0  0  0  0  2  0  0  0  0  0  0
  190.3170  176.8100  144.4270 N   0  0  0  0  0  0  0  0  0  0  0  0
  185.6200  178.4280  138.9680 C   0  0  0  0  0  0  0  0  0  0  0  0
  186.6910  178.1340  138.2940 N   0  0  0  0  0  0  0  0  0  0  0  0
  186.9650  178.3900  141.0550 C   0  0  0  0  0  0  0  0  0  0  0  0
  192.6830  176.4960  138.7430 C   0  0  0  0  0  3  0  0  0  0  0  0
  190.4120  177.2010  140.2320 C   0  0  0  0  0  0  0  0  0  0  0  0
  190.2950  176.3550  139.1190 C   0  0  0  0  0  3  0  0  0  0  0  0
  191.4270  176.0030  138.3770 C   0  0  0  0  0  3  0  0  0  0  0  0
  192.8070  177.3400  139.8500 C   0  0  0  0  0  3  0  0  0  0  0  0
  191.6760  177.6920  140.5910 C   0  0  0  0  0  3  0  0  0  0  0  0
  184.3720  178.2650  138.3630 O   0  0  0  0  0  0  0  0  0  0  0  0
  183.2470  179.0550  138.7160 C   0  0  0  0  0  1  0  0  0  0  0  0
  1 10  1  0  0  0  0
  1 19  2  0  0  0  0
  2  6  2  0  0  0  0
  2 14  1  0  0  0  0
  3 14  1  0  0  0  0
  4 11  2  0  0  0  0
  6 16  1  0  0  0  0
  7  8  2  0  0  0  0
  8 11  1  0  0  0  0
  9 12  1  0  0  0  0
  9  7  1  0  0  0  0
 10  2  1  0  0  0  0
 11  5  1  0  0  0  0
 12  4  1  0  0  0  0
 13  1  1  0  0  0  0
 14  9  2  0  0  0  0
 15 19  1  0  0  0  0
 16 12  2  0  0  0  0
 17 15  1  0  0  0  0
 18 13  1  0  0  0  0
 18 17  2  0  0  0  0
 19  3  1  0  0  0  0
 20 24  1  0  0  0  0
 21 25  1  0  0  0  0
 21 10  1  0  0  0  0
 22 21  2  0  0  0  0
 23 20  2  0  0  0  0
 23 22  1  0  0  0  0
 24 25  2  0  0  0  0
 26 27  1  0  0  0  0
 26 17  1  0  0  0  0
M  END
>  <MODEL>
8

>  <REMARK>
 VINA RESULT:      -8.1      2.345      2.913
  Name = 
  2 active torsions:
  status: ('A' for Active; 'I' for Inactive)
    1  A    between atoms: C_9  and  N_15
    2  A    between atoms: O_10  and  C_22
                            x       y       z     vdW  Elec       q    Type
                         _______ _______ _______ _____ _____    ______ ____

>  <TORSDO>
F 2

$$$$
=
 OpenBabel10262420083D

 27 31  0  0  0  0  0  0  0  0999 V2000
  186.0880  178.0780  144.4460 C   0  0  0  0  0  0  0  0  0  0  0  0
  188.3970  177.6730  143.6080 C   0  0  0  0  0  0  0  0  0  0  0  0
  186.5200  177.8920  142.1030 O   0  0  0  0  0  0  0  0  0  0  0  0
  191.0330  177.1450  140.4420 C   0  0  0  0  0  3  0  0  0  0  0  0
  191.4640  176.9680  138.0740 O   0  0  0  0  0  1  0  0  0  0  0  0
  189.7340  177.4970  143.8030 N   0  0  0  0  0  0  0  0  0  0  0  0
  188.3060  177.5140  139.9060 C   0  0  0  0  0  3  0  0  0  0  0  0
  189.2100  177.3320  138.8550 C   0  0  0  0  0  3  0  0  0  0  0  0
  188.7630  177.5110  141.2300 C   0  0  0  0  0  0  0  0  0  0  0  0
  187.4960  177.8700  144.7180 N   0  0  0  0  0  0  0  0  0  0  0  0
  190.5710  177.1480  139.1220 C   0  0  0  0  0  0  0  0  0  0  0  0
  190.1340  177.3260  141.4960 C   0  0  0  0  0  0  0  0  0  0  0  0
  185.0830  178.1880  145.5670 C   0  0  0  0  0  2  0  0  0  0  0  0
  187.8890  177.6900  142.3050 C   0  0  0  0  0  0  0  0  0  0  0  0
  184.1720  178.2530  142.8830 C   0  0  0  0  0  2  0  0  0  0  0  0
  190.5750  177.3270  142.7800 N   0  0  0  0  0  0  0  0  0  0  0  0
  183.5000  179.0700  143.9610 C   0  0  0  0  0  0  0  0  0  0  0  0
  183.9540  179.0340  145.1790 N   0  0  0  0  0  0  0  0  0  0  0  0
  185.6370  178.0790  143.1740 C   0  0  0  0  0  0  0  0  0  0  0  0
  188.9610  177.8780  148.7020 C   0  0  0  0  0  3  0  0  0  0  0  0
  187.9960  177.8760  146.0670 C   0  0  0  0  0  0  0  0  0  0  0  0
  187.3450  178.6240  147.0600 C   0  0  0  0  0  3  0  0  0  0  0  0
  187.8260  178.6250  148.3730 C   0  0  0  0  0  3  0  0  0  0  0  0
  189.6140  177.1300  147.7190 C   0  0  0  0  0  3  0  0  0  0  0  0
  189.1330  177.1280  146.4070 C   0  0  0  0  0  3  0  0  0  0  0  0
  182.3910  179.8690  143.6740 O   0  0  0  0  0  0  0  0  0  0  0  0
  181.2190  179.3500  143.0650 C   0  0  0  0  0  1  0  0  0  0  0  0
  1 10  1  0  0  0  0
  1 13  1  0  0  0  0
  2  6  1  0  0  0  0
  2 10  1  0  0  0  0
  3 14  1  0  0  0  0
  3 19  1  0  0  0  0
  4 12  1  0  0  0  0
  5 11  1  0  0  0  0
  7  9  1  0  0  0  0
  8 11  1  0  0  0  0
  8  7  2  0  0  0  0
  9 12  2  0  0  0  0
  9 14  1  0  0  0  0
 10 21  1  0  0  0  0
 11  4  2  0  0  0  0
 12 16  1  0  0  0  0
 14  2  2  0  0  0  0
 15 19  1  0  0  0  0
 15 17  1  0  0  0  0
 16  6  2  0  0  0  0
 17 18  2  0  0  0  0
 18 13  1  0  0  0  0
 19  1  2  0  0  0  0
 21 25  2  0  0  0  0
 21 22  1  0  0  0  0
 22 23  2  0  0  0  0
 23 20  1  0  0  0  0
 24 20  2  0  0  0  0
 25 24  1  0  0  0  0
 26 17  1  0  0  0  0
 27 26  1  0  0  0  0
M  END
>  <MODEL>
9

>  <REMARK>
 VINA RESULT:      -7.9      2.473      5.882
  Name = 
  2 active torsions:
  status: ('A' for Active; 'I' for Inactive)
    1  A    between atoms: C_9  and  N_15
    2  A    between atoms: O_10  and  C_22
                            x       y       z     vdW  Elec       q    Type
                         _______ _______ _______ _____ _____    ______ ____

>  <TORSDO>
F 2

$$$$
