=
 OpenBabel10262423173D

 34 40  0  0  1  0  0  0  0  0999 V2000
  192.1080  177.6080  140.3550 O   0  0  0  0  0  0  0  0  0  0  0  0
  189.7960  175.1640  137.5420 O   0  0  0  0  0  0  0  0  0  0  0  0
  188.4010  176.8160  138.6320 C   0  0  0  0  0  2  0  0  0  0  0  0
  190.9850  177.4940  139.7980 C   0  0  0  0  0  0  0  0  0  0  0  0
  187.7580  178.1410  141.6870 C   0  0  2  0  0  3  0  0  0  0  0  0
  187.5230  179.4280  141.1600 O   0  0  0  0  0  0  0  0  0  0  0  0
  189.2560  177.8180  141.7030 C   0  0  2  0  0  3  0  0  0  0  0  0
  188.5480  178.1580  139.3820 C   0  0  2  0  0  3  0  0  0  0  0  0
  189.7700  178.2150  140.3170 C   0  0  2  0  0  3  0  0  0  0  0  0
  187.3300  178.3440  140.2790 C   0  0  1  0  0  3  0  0  0  0  0  0
  189.6500  176.5220  137.7940 C   0  0  1  0  0  0  0  0  0  0  0  0
  190.9280  175.2500  138.3430 C   0  0  1  0  0  0  0  0  0  0  0  0
  190.8200  176.6770  138.6520 N   0  0  0  0  0  0  0  0  0  0  0  0
  189.4090  176.3200  142.0110 C   0  0  2  0  0  3  0  0  0  0  0  0
  189.7580  175.9740  143.4740 C   0  0  1  0  0  3  0  0  0  0  0  0
  190.8360  176.0060  142.4040 C   0  0  0  0  0  2  0  0  0  0  0  0
  190.8020  178.0810  144.0750 O   0  0  0  0  0  1  0  0  0  0  0  0
  189.8590  177.1480  144.3500 N   0  0  0  0  0  0  0  0  0  0  0  0
  190.4550  176.7580  147.1430 F   0  0  0  0  0  0  0  0  0  0  0  0
  186.6790  178.1160  146.0600 C   0  0  0  0  0  0  0  0  0  0  0  0
  187.6260  177.8490  145.0670 C   0  0  0  0  0  3  0  0  0  0  0  0
  188.9160  177.4150  145.4050 C   0  0  0  0  0  0  0  0  0  0  0  0
  188.2860  177.4910  147.7560 C   0  0  0  0  0  3  0  0  0  0  0  0
  189.2410  177.2310  146.7660 C   0  0  0  0  0  0  0  0  0  0  0  0
  187.0080  177.9340  147.4040 C   0  0  0  0  0  3  0  0  0  0  0  0
  185.3080  178.5640  145.6840 C   0  0  0  0  0  2  0  0  0  0  0  0
  184.5360  179.6280  143.7530 C   0  0  0  0  0  1  0  0  0  0  0  0
  185.1000  178.3880  144.2570 N   0  0  0  0  0  2  0  0  0  0  0  0
  192.1290  173.9900  136.5040 S   0  0  0  0  0  0  0  0  0  0  0  0
  192.1850  174.9480  137.5690 C   0  0  0  0  0  0  0  0  0  0  0  0
  193.5100  175.5480  137.9460 C   0  0  0  0  0  2  0  0  0  0  0  0
  194.6750  174.6860  137.4800 C   0  0  0  0  0  2  0  0  0  0  0  0
  195.2410  173.9010  138.6180 C   0  0  0  0  0  3  0  0  0  0  0  0
  196.2280  174.4080  139.3490 C   0  0  0  0  0  2  0  0  0  0  0  0
  2 11  1  0  0  0  0
  2 12  1  0  0  0  0
  4  1  2  0  0  0  0
  5  6  1  1  0  0  0
  5  7  1  0  0  0  0
  7 14  1  6  0  0  0
  8  3  1  1  0  0  0
  8 10  1  0  0  0  0
  8  9  1  0  0  0  0
  9  4  1  6  0  0  0
  9  7  1  0  0  0  0
 10  6  1  1  0  0  0
 10  5  1  0  0  0  0
 11 12  1  0  0  0  0
 11  3  1  1  0  0  0
 11 13  1  0  0  0  0
 12 30  1  6  0  0  0
 12 13  1  0  0  0  0
 13  4  1  0  0  0  0
 14 16  1  6  0  0  0
 14 15  1  0  0  0  0
 15 18  1  1  0  0  0
 16 15  1  0  0  0  0
 17 18  1  0  0  0  0
 18 22  1  0  0  0  0
 20 25  1  0  0  0  0
 21 22  1  0  0  0  0
 21 20  2  0  0  0  0
 22 24  2  0  0  0  0
 24 19  1  0  0  0  0
 24 23  1  0  0  0  0
 25 23  2  0  0  0  0
 26 20  1  0  0  0  0
 27 28  1  0  0  0  0
 28 26  1  0  0  0  0
 29 30  2  0  0  0  0
 30 31  1  0  0  0  0
 32 31  1  0  0  0  0
 32 33  1  0  0  0  0
 33 34  2  0  0  0  0
M  END
>  <MODEL>
1

>  <REMARK>
 VINA RESULT:      -7.7      0.000      0.000
  Name = 
  9 active torsions:
  status: ('A' for Active; 'I' for Inactive)
    1  A    between atoms: C_3  and  C_24
    2  A    between atoms: C_7  and  C_15
    3  A    between atoms: C_8  and  C_17
    4  A    between atoms: C_15  and  N_21
    5  A    between atoms: C_16  and  N_31
    6  A    between atoms: C_18  and  N_31
    7  A    between atoms: C_24  and  C_25
    8  A    between atoms: C_25  and  C_27
    9  A    between atoms: C_27  and  C_33
                            x       y       z     vdW  Elec       q    Type
                         _______ _______ _______ _____ _____    ______ ____

>  <TORSDO>
F 9

$$$$
=
 OpenBabel10262423173D

 34 40  0  0  1  0  0  0  0  0999 V2000
  191.0180  177.9590  139.7460 O   0  0  0  0  0  0  0  0  0  0  0  0
  188.3310  175.4170  137.3910 O   0  0  0  0  0  0  0  0  0  0  0  0
  187.0950  177.0350  138.7000 C   0  0  0  0  0  2  0  0  0  0  0  0
  189.8190  177.8050  139.3940 C   0  0  0  0  0  0  0  0  0  0  0  0
  186.9520  178.3690  141.8140 C   0  0  2  0  0  3  0  0  0  0  0  0
  186.5870  179.6430  141.3310 O   0  0  0  0  0  0  0  0  0  0  0  0
  188.4390  178.0940  141.5710 C   0  0  2  0  0  3  0  0  0  0  0  0
  187.3270  178.3880  139.4070 C   0  0  2  0  0  3  0  0  0  0  0  0
  188.6910  178.4930  140.1140 C   0  0  2  0  0  3  0  0  0  0  0  0
  186.2790  178.5450  140.5020 C   0  0  1  0  0  3  0  0  0  0  0  0
  188.1880  176.7720  137.6580 C   0  0  1  0  0  0  0  0  0  0  0  0
  189.5820  175.5450  137.9810 C   0  0  1  0  0  0  0  0  0  0  0  0
  189.4840  176.9720  138.2990 N   0  0  0  0  0  0  0  0  0  0  0  0
  188.6920  176.6040  141.8540 C   0  0  2  0  0  3  0  0  0  0  0  0
  189.2700  176.2810  143.2470 C   0  0  1  0  0  3  0  0  0  0  0  0
  190.1730  176.3450  142.0270 C   0  0  0  0  0  2  0  0  0  0  0  0
  190.3290  178.4200  143.6900 O   0  0  0  0  0  1  0  0  0  0  0  0
  189.4590  177.4630  144.0970 N   0  0  0  0  0  0  0  0  0  0  0  0
  190.4960  177.2830  146.7800 F   0  0  0  0  0  0  0  0  0  0  0  0
  186.4960  178.2680  146.2300 C   0  0  0  0  0  0  0  0  0  0  0  0
  187.3040  178.0220  145.1160 C   0  0  0  0  0  3  0  0  0  0  0  0
  188.6640  177.7130  145.2720 C   0  0  0  0  0  0  0  0  0  0  0  0
  188.3870  177.8720  147.6850 C   0  0  0  0  0  3  0  0  0  0  0  0
  189.2020  177.6330  146.5730 C   0  0  0  0  0  0  0  0  0  0  0  0
  187.0370  178.1890  147.5150 C   0  0  0  0  0  3  0  0  0  0  0  0
  185.0500  178.5810  146.0490 C   0  0  0  0  0  2  0  0  0  0  0  0
  183.9590  179.4520  144.1760 C   0  0  0  0  0  1  0  0  0  0  0  0
  184.6400  178.2750  144.6900 N   0  0  0  0  0  2  0  0  0  0  0  0
  192.0230  175.0750  137.5010 S   0  0  0  0  0  0  0  0  0  0  0  0
  190.6950  175.2760  137.0010 C   0  0  0  0  0  0  0  0  0  0  0  0
  190.4680  175.3100  135.5170 C   0  0  0  0  0  2  0  0  0  0  0  0
  190.7610  173.9640  134.8670 C   0  0  0  0  0  2  0  0  0  0  0  0
  189.7230  172.9580  135.2460 C   0  0  0  0  0  3  0  0  0  0  0  0
  189.6870  171.7800  134.6310 C   0  0  0  0  0  2  0  0  0  0  0  0
  2 11  1  0  0  0  0
  2 12  1  0  0  0  0
  4  1  2  0  0  0  0
  5  6  1  1  0  0  0
  7  5  1  0  0  0  0
  7 14  1  6  0  0  0
  8  3  1  1  0  0  0
  8  9  1  0  0  0  0
  8 10  1  0  0  0  0
  9  4  1  6  0  0  0
  9  7  1  0  0  0  0
 10  6  1  1  0  0  0
 10  5  1  0  0  0  0
 11 12  1  0  0  0  0
 11 13  1  0  0  0  0
 11  3  1  1  0  0  0
 12 30  1  6  0  0  0
 12 13  1  0  0  0  0
 13  4  1  0  0  0  0
 14 16  1  6  0  0  0
 14 15  1  0  0  0  0
 15 18  1  1  0  0  0
 16 15  1  0  0  0  0
 17 18  1  0  0  0  0
 18 22  1  0  0  0  0
 20 25  1  0  0  0  0
 21 22  1  0  0  0  0
 21 20  2  0  0  0  0
 22 24  2  0  0  0  0
 24 19  1  0  0  0  0
 24 23  1  0  0  0  0
 25 23  2  0  0  0  0
 26 20  1  0  0  0  0
 27 28  1  0  0  0  0
 28 26  1  0  0  0  0
 30 29  2  0  0  0  0
 31 30  1  0  0  0  0
 32 33  1  0  0  0  0
 32 31  1  0  0  0  0
 34 33  2  0  0  0  0
M  END
>  <MODEL>
2

>  <REMARK>
 VINA RESULT:      -6.9      1.824      2.315
  Name = 
  9 active torsions:
  status: ('A' for Active; 'I' for Inactive)
    1  A    between atoms: C_3  and  C_24
    2  A    between atoms: C_7  and  C_15
    3  A    between atoms: C_8  and  C_17
    4  A    between atoms: C_15  and  N_21
    5  A    between atoms: C_16  and  N_31
    6  A    between atoms: C_18  and  N_31
    7  A    between atoms: C_24  and  C_25
    8  A    between atoms: C_25  and  C_27
    9  A    between atoms: C_27  and  C_33
                            x       y       z     vdW  Elec       q    Type
                         _______ _______ _______ _____ _____    ______ ____

>  <TORSDO>
F 9

$$$$
=
 OpenBabel10262423173D

 34 40  0  0  1  0  0  0  0  0999 V2000
  186.5600  179.7170  141.3440 O   0  0  0  0  0  0  0  0  0  0  0  0
  182.6800  177.6750  141.3000 O   0  0  0  0  0  0  0  0  0  0  0  0
  183.3500  178.2530  143.5530 C   0  0  0  0  0  2  0  0  0  0  0  0
  185.5770  179.3950  142.0600 C   0  0  0  0  0  0  0  0  0  0  0  0
  186.0350  178.1700  145.6220 C   0  0  2  0  0  3  0  0  0  0  0  0
  185.6800  179.3810  146.2520 O   0  0  0  0  0  0  0  0  0  0  0  0
  186.6180  178.4250  144.2290 C   0  0  2  0  0  3  0  0  0  0  0  0
  184.3040  179.2290  144.2750 C   0  0  2  0  0  3  0  0  0  0  0  0
  185.6570  179.4130  143.5630 C   0  0  2  0  0  3  0  0  0  0  0  0
  184.6320  178.6560  145.6480 C   0  0  1  0  0  3  0  0  0  0  0  0
  183.0700  178.7240  142.1220 C   0  0  1  0  0  0  0  0  0  0  0  0
  183.8800  177.8950  140.6360 C   0  0  1  0  0  0  0  0  0  0  0  0
  184.3490  178.9990  141.4760 N   0  0  0  0  0  0  0  0  0  0  0  0
  186.7090  177.0720  143.5040 C   0  0  2  0  0  3  0  0  0  0  0  0
  188.1390  176.5670  143.2170 C   0  0  1  0  0  3  0  0  0  0  0  0
  187.3220  177.2490  142.1320 C   0  0  0  0  0  2  0  0  0  0  0  0
  189.4110  178.6280  143.0620 O   0  0  0  0  0  1  0  0  0  0  0  0
  189.1920  177.4600  143.7140 N   0  0  0  0  0  0  0  0  0  0  0  0
  191.4820  175.7190  143.8850 F   0  0  0  0  0  0  0  0  0  0  0  0
  190.1180  177.5960  147.3340 C   0  0  0  0  0  0  0  0  0  0  0  0
  189.4540  177.8130  146.1220 C   0  0  0  0  0  3  0  0  0  0  0  0
  189.9080  177.2130  144.9390 C   0  0  0  0  0  0  0  0  0  0  0  0
  191.6930  176.1480  146.2060 C   0  0  0  0  0  3  0  0  0  0  0  0
  191.0370  176.3680  144.9900 C   0  0  0  0  0  0  0  0  0  0  0  0
  191.2350  176.7610  147.3760 C   0  0  0  0  0  3  0  0  0  0  0  0
  189.6140  178.2300  148.5850 C   0  0  0  0  0  2  0  0  0  0  0  0
  187.5590  177.1490  148.8390 C   0  0  0  0  0  1  0  0  0  0  0  0
  188.1760  178.4210  148.5040 N   0  0  0  0  0  2  0  0  0  0  0  0
  184.7400  178.2260  138.2780 S   0  0  0  0  0  0  0  0  0  0  0  0
  183.6600  178.3420  139.2130 C   0  0  0  0  0  0  0  0  0  0  0  0
  182.3790  178.9940  138.7780 C   0  0  0  0  0  2  0  0  0  0  0  0
  182.5070  180.5100  138.7170 C   0  0  0  0  0  2  0  0  0  0  0  0
  181.1700  181.1450  138.5160 C   0  0  0  0  0  3  0  0  0  0  0  0
  181.0590  182.2330  137.7610 C   0  0  0  0  0  2  0  0  0  0  0  0
  1  4  2  0  0  0  0
  2 11  1  0  0  0  0
  5 10  1  0  0  0  0
  5  6  1  1  0  0  0
  7 14  1  6  0  0  0
  7  5  1  0  0  0  0
  8  3  1  6  0  0  0
  8 10  1  0  0  0  0
  9  4  1  6  0  0  0
  9  7  1  0  0  0  0
  9  8  1  0  0  0  0
 10  6  1  1  0  0  0
 11  3  1  1  0  0  0
 12 30  1  6  0  0  0
 12  2  1  0  0  0  0
 12 13  1  0  0  0  0
 12 11  1  0  0  0  0
 13  4  1  0  0  0  0
 13 11  1  0  0  0  0
 14 16  1  6  0  0  0
 15 14  1  0  0  0  0
 15 18  1  1  0  0  0
 16 15  1  0  0  0  0
 17 18  1  0  0  0  0
 18 22  1  0  0  0  0
 19 24  1  0  0  0  0
 20 25  1  0  0  0  0
 20 26  1  0  0  0  0
 21 20  2  0  0  0  0
 22 24  2  0  0  0  0
 22 21  1  0  0  0  0
 23 25  2  0  0  0  0
 24 23  1  0  0  0  0
 28 26  1  0  0  0  0
 28 27  1  0  0  0  0
 29 30  2  0  0  0  0
 31 30  1  0  0  0  0
 32 31  1  0  0  0  0
 33 32  1  0  0  0  0
 34 33  2  0  0  0  0
M  END
>  <MODEL>
3

>  <REMARK>
 VINA RESULT:      -6.8      4.329      7.234
  Name = 
  9 active torsions:
  status: ('A' for Active; 'I' for Inactive)
    1  A    between atoms: C_3  and  C_24
    2  A    between atoms: C_7  and  C_15
    3  A    between atoms: C_8  and  C_17
    4  A    between atoms: C_15  and  N_21
    5  A    between atoms: C_16  and  N_31
    6  A    between atoms: C_18  and  N_31
    7  A    between atoms: C_24  and  C_25
    8  A    between atoms: C_25  and  C_27
    9  A    between atoms: C_27  and  C_33
                            x       y       z     vdW  Elec       q    Type
                         _______ _______ _______ _____ _____    ______ ____

>  <TORSDO>
F 9

$$$$
=
 OpenBabel10262423173D

 34 40  0  0  1  0  0  0  0  0999 V2000
  186.4810  179.7600  141.3310 O   0  0  0  0  0  0  0  0  0  0  0  0
  182.5800  177.7570  141.3270 O   0  0  0  0  0  0  0  0  0  0  0  0
  183.2670  178.3510  143.5710 C   0  0  0  0  0  2  0  0  0  0  0  0
  185.4980  179.4560  142.0550 C   0  0  0  0  0  0  0  0  0  0  0  0
  185.9620  178.2630  145.6270 C   0  0  2  0  0  3  0  0  0  0  0  0
  185.6210  179.4830  146.2460 O   0  0  0  0  0  0  0  0  0  0  0  0
  186.5400  178.4970  144.2280 C   0  0  2  0  0  3  0  0  0  0  0  0
  184.2340  179.3250  144.2770 C   0  0  2  0  0  3  0  0  0  0  0  0
  185.5860  179.4880  143.5570 C   0  0  2  0  0  3  0  0  0  0  0  0
  184.5630  178.7620  145.6550 C   0  0  1  0  0  3  0  0  0  0  0  0
  182.9850  178.8110  142.1360 C   0  0  1  0  0  0  0  0  0  0  0  0
  183.7790  177.9590  140.6550 C   0  0  1  0  0  0  0  0  0  0  0  0
  184.2630  179.0660  141.4810 N   0  0  0  0  0  0  0  0  0  0  0  0
  186.6140  177.1360  143.5170 C   0  0  2  0  0  3  0  0  0  0  0  0
  188.0370  176.6200  143.2160 C   0  0  1  0  0  3  0  0  0  0  0  0
  187.2100  177.2950  142.1360 C   0  0  0  0  0  2  0  0  0  0  0  0
  189.2970  178.6870  143.0440 O   0  0  0  0  0  1  0  0  0  0  0  0
  189.1020  177.5120  143.6900 N   0  0  0  0  0  0  0  0  0  0  0  0
  191.4640  175.8620  143.7550 F   0  0  0  0  0  0  0  0  0  0  0  0
  190.1040  177.5710  147.2920 C   0  0  0  0  0  0  0  0  0  0  0  0
  189.4040  177.7980  146.1030 C   0  0  0  0  0  3  0  0  0  0  0  0
  189.8550  177.2560  144.8900 C   0  0  0  0  0  0  0  0  0  0  0  0
  191.7100  176.2250  146.0830 C   0  0  0  0  0  3  0  0  0  0  0  0
  191.0180  176.4570  144.8890 C   0  0  0  0  0  0  0  0  0  0  0  0
  191.2560  176.7810  147.2820 C   0  0  0  0  0  3  0  0  0  0  0  0
  189.6050  178.1430  148.5740 C   0  0  0  0  0  2  0  0  0  0  0  0
  187.5090  177.1410  148.8270 C   0  0  0  0  0  1  0  0  0  0  0  0
  188.1760  178.3870  148.4870 N   0  0  0  0  0  2  0  0  0  0  0  0
  182.4380  179.2390  138.9310 S   0  0  0  0  0  0  0  0  0  0  0  0
  183.5560  178.3930  139.2290 C   0  0  0  0  0  0  0  0  0  0  0  0
  184.4120  177.8860  138.1030 C   0  0  0  0  0  2  0  0  0  0  0  0
  185.8800  178.2370  138.3040 C   0  0  0  0  0  2  0  0  0  0  0  0
  186.6780  177.8890  137.0900 C   0  0  0  0  0  3  0  0  0  0  0  0
  187.6500  178.6980  136.6820 C   0  0  0  0  0  2  0  0  0  0  0  0
  1  4  2  0  0  0  0
  2 11  1  0  0  0  0
  5 10  1  0  0  0  0
  5  6  1  1  0  0  0
  7 14  1  6  0  0  0
  7  5  1  0  0  0  0
  8  3  1  6  0  0  0
  8 10  1  0  0  0  0
  9  4  1  6  0  0  0
  9  7  1  0  0  0  0
  9  8  1  0  0  0  0
 10  6  1  1  0  0  0
 11  3  1  1  0  0  0
 12 30  1  6  0  0  0
 12  2  1  0  0  0  0
 12 13  1  0  0  0  0
 12 11  1  0  0  0  0
 13  4  1  0  0  0  0
 13 11  1  0  0  0  0
 14 16  1  6  0  0  0
 15 14  1  0  0  0  0
 15 18  1  1  0  0  0
 16 15  1  0  0  0  0
 17 18  1  0  0  0  0
 18 22  1  0  0  0  0
 19 24  1  0  0  0  0
 20 26  1  0  0  0  0
 21 20  2  0  0  0  0
 22 21  1  0  0  0  0
 23 25  2  0  0  0  0
 24 22  2  0  0  0  0
 24 23  1  0  0  0  0
 25 20  1  0  0  0  0
 28 26  1  0  0  0  0
 28 27  1  0  0  0  0
 29 30  2  0  0  0  0
 31 32  1  0  0  0  0
 31 30  1  0  0  0  0
 33 32  1  0  0  0  0
 34 33  2  0  0  0  0
M  END
>  <MODEL>
4

>  <REMARK>
 VINA RESULT:      -6.7      4.310      6.312
  Name = 
  9 active torsions:
  status: ('A' for Active; 'I' for Inactive)
    1  A    between atoms: C_3  and  C_24
    2  A    between atoms: C_7  and  C_15
    3  A    between atoms: C_8  and  C_17
    4  A    between atoms: C_15  and  N_21
    5  A    between atoms: C_16  and  N_31
    6  A    between atoms: C_18  and  N_31
    7  A    between atoms: C_24  and  C_25
    8  A    between atoms: C_25  and  C_27
    9  A    between atoms: C_27  and  C_33
                            x       y       z     vdW  Elec       q    Type
                         _______ _______ _______ _____ _____    ______ ____

>  <TORSDO>
F 9

$$$$
=
 OpenBabel10262423173D

 34 40  0  0  1  0  0  0  0  0999 V2000
  187.6910  176.0090  143.8800 O   0  0  0  0  0  0  0  0  0  0  0  0
  186.7630  179.2820  146.6470 O   0  0  0  0  0  0  0  0  0  0  0  0
  185.2790  179.2940  144.7340 C   0  0  0  0  0  2  0  0  0  0  0  0
  186.8600  176.9210  144.1270 C   0  0  0  0  0  0  0  0  0  0  0  0
  185.3090  178.9980  141.3560 C   0  0  2  0  0  3  0  0  0  0  0  0
  184.0690  178.3260  141.3310 O   0  0  0  0  0  0  0  0  0  0  0  0
  186.4270  178.0720  141.8430 C   0  0  2  0  0  3  0  0  0  0  0  0
  184.7780  178.3290  143.6380 C   0  0  2  0  0  3  0  0  0  0  0  0
  185.8700  177.3880  143.0940 C   0  0  2  0  0  3  0  0  0  0  0  0
  184.3120  179.1550  142.4460 C   0  0  1  0  0  3  0  0  0  0  0  0
  185.8630  178.5150  145.9180 C   0  0  1  0  0  0  0  0  0  0  0  0
  187.7240  178.3870  146.1910 C   0  0  1  0  0  0  0  0  0  0  0  0
  186.8240  177.5490  145.3970 N   0  0  0  0  0  0  0  0  0  0  0  0
  187.6680  178.9380  142.1170 C   0  0  2  0  0  3  0  0  0  0  0  0
  188.6680  179.0530  140.9480 C   0  0  1  0  0  3  0  0  0  0  0  0
  188.9190  178.0880  142.0940 C   0  0  0  0  0  2  0  0  0  0  0  0
  187.0480  178.6250  139.1930 O   0  0  0  0  0  1  0  0  0  0  0  0
  188.2520  178.3310  139.7400 N   0  0  0  0  0  0  0  0  0  0  0  0
  187.2930  176.2640  137.9760 F   0  0  0  0  0  0  0  0  0  0  0  0
  191.3860  176.6500  138.5860 C   0  0  0  0  0  0  0  0  0  0  0  0
  190.5060  177.5140  139.2450 C   0  0  0  0  0  3  0  0  0  0  0  0
  189.1220  177.4230  139.0380 C   0  0  0  0  0  0  0  0  0  0  0  0
  189.5090  175.5630  137.5160 C   0  0  0  0  0  3  0  0  0  0  0  0
  188.6250  176.4310  138.1670 C   0  0  0  0  0  0  0  0  0  0  0  0
  190.8860  175.6720  137.7240 C   0  0  0  0  0  3  0  0  0  0  0  0
  192.8530  176.7500  138.8280 C   0  0  0  0  0  2  0  0  0  0  0  0
  194.2460  175.0730  137.9870 C   0  0  0  0  0  1  0  0  0  0  0  0
  193.5830  176.3210  137.6470 N   0  0  0  0  0  2  0  0  0  0  0  0
  187.9250  177.8840  148.6640 S   0  0  0  0  0  0  0  0  0  0  0  0
  188.3460  177.6090  147.3220 C   0  0  0  0  0  0  0  0  0  0  0  0
  189.4590  176.6280  147.0900 C   0  0  0  0  0  2  0  0  0  0  0  0
  190.3650  177.0600  145.9450 C   0  0  0  0  0  2  0  0  0  0  0  0
  191.7300  176.4740  146.1000 C   0  0  0  0  0  3  0  0  0  0  0  0
  192.0500  175.8250  147.2150 C   0  0  0  0  0  2  0  0  0  0  0  0
  1  4  2  0  0  0  0
  4 13  1  0  0  0  0
  5  6  1  6  0  0  0
  5  7  1  0  0  0  0
  5 10  1  0  0  0  0
  7 14  1  1  0  0  0
  7  9  1  0  0  0  0
  8  3  1  1  0  0  0
  9  8  1  0  0  0  0
  9  4  1  1  0  0  0
 10  6  1  6  0  0  0
 10  8  1  0  0  0  0
 11  3  1  6  0  0  0
 11 12  1  0  0  0  0
 11  2  1  0  0  0  0
 12  2  1  0  0  0  0
 12 30  1  1  0  0  0
 13 11  1  0  0  0  0
 13 12  1  0  0  0  0
 14 16  1  1  0  0  0
 15 18  1  6  0  0  0
 15 16  1  0  0  0  0
 15 14  1  0  0  0  0
 17 18  1  0  0  0  0
 19 24  1  0  0  0  0
 20 26  1  0  0  0  0
 20 21  1  0  0  0  0
 22 21  2  0  0  0  0
 22 18  1  0  0  0  0
 23 25  1  0  0  0  0
 23 24  2  0  0  0  0
 24 22  1  0  0  0  0
 25 20  2  0  0  0  0
 28 27  1  0  0  0  0
 28 26  1  0  0  0  0
 30 29  2  0  0  0  0
 31 30  1  0  0  0  0
 32 33  1  0  0  0  0
 32 31  1  0  0  0  0
 33 34  2  0  0  0  0
M  END
>  <MODEL>
5

>  <REMARK>
 VINA RESULT:      -6.6      3.508      8.118
  Name = 
  9 active torsions:
  status: ('A' for Active; 'I' for Inactive)
    1  A    between atoms: C_3  and  C_24
    2  A    between atoms: C_7  and  C_15
    3  A    between atoms: C_8  and  C_17
    4  A    between atoms: C_15  and  N_21
    5  A    between atoms: C_16  and  N_31
    6  A    between atoms: C_18  and  N_31
    7  A    between atoms: C_24  and  C_25
    8  A    between atoms: C_25  and  C_27
    9  A    between atoms: C_27  and  C_33
                            x       y       z     vdW  Elec       q    Type
                         _______ _______ _______ _____ _____    ______ ____

>  <TORSDO>
F 9

$$$$
=
 OpenBabel10262423173D

 34 40  0  0  1  0  0  0  0  0999 V2000
  187.6420  176.0130  143.8680 O   0  0  0  0  0  0  0  0  0  0  0  0
  186.6830  179.2450  146.6720 O   0  0  0  0  0  0  0  0  0  0  0  0
  185.1600  179.2250  144.7910 C   0  0  0  0  0  2  0  0  0  0  0  0
  186.7910  176.9000  144.1380 C   0  0  0  0  0  0  0  0  0  0  0  0
  185.1270  178.9480  141.4110 C   0  0  2  0  0  3  0  0  0  0  0  0
  183.9060  178.2420  141.4080 O   0  0  0  0  0  0  0  0  0  0  0  0
  186.2800  178.0500  141.8700 C   0  0  2  0  0  3  0  0  0  0  0  0
  184.6630  178.2530  143.7000 C   0  0  2  0  0  3  0  0  0  0  0  0
  185.7680  177.3450  143.1290 C   0  0  2  0  0  3  0  0  0  0  0  0
  184.1490  179.0720  142.5220 C   0  0  1  0  0  3  0  0  0  0  0  0
  185.7890  178.4570  145.9580 C   0  0  1  0  0  0  0  0  0  0  0  0
  187.6580  178.3800  146.1920 C   0  0  1  0  0  0  0  0  0  0  0  0
  186.7650  177.5210  145.4110 N   0  0  0  0  0  0  0  0  0  0  0  0
  187.5020  178.9490  142.1230 C   0  0  2  0  0  3  0  0  0  0  0  0
  188.4950  179.0650  140.9480 C   0  0  1  0  0  3  0  0  0  0  0  0
  188.7720  178.1270  142.1110 C   0  0  0  0  0  2  0  0  0  0  0  0
  186.9180  178.6280  139.1570 O   0  0  0  0  0  1  0  0  0  0  0  0
  188.0910  178.3110  139.7550 N   0  0  0  0  0  0  0  0  0  0  0  0
  190.9250  178.1360  140.2520 F   0  0  0  0  0  0  0  0  0  0  0  0
  189.1920  175.5150  137.5300 C   0  0  0  0  0  0  0  0  0  0  0  0
  188.3950  176.4660  138.1750 C   0  0  0  0  0  3  0  0  0  0  0  0
  188.9490  177.3450  139.1180 C   0  0  0  0  0  0  0  0  0  0  0  0
  191.1260  176.3250  138.7380 C   0  0  0  0  0  3  0  0  0  0  0  0
  190.3300  177.2720  139.3920 C   0  0  0  0  0  0  0  0  0  0  0  0
  190.5590  175.4470  137.8100 C   0  0  0  0  0  3  0  0  0  0  0  0
  188.5920  174.5970  136.5220 C   0  0  0  0  0  2  0  0  0  0  0  0
  187.9140  172.4720  137.2180 C   0  0  0  0  0  1  0  0  0  0  0  0
  189.0550  173.2390  136.7460 N   0  0  0  0  0  2  0  0  0  0  0  0
  187.9300  177.8760  148.6580 S   0  0  0  0  0  0  0  0  0  0  0  0
  188.3240  177.6130  147.3060 C   0  0  0  0  0  0  0  0  0  0  0  0
  189.4530  176.6580  147.0440 C   0  0  0  0  0  2  0  0  0  0  0  0
  190.2940  177.0880  145.8490 C   0  0  0  0  0  2  0  0  0  0  0  0
  191.7090  176.6360  146.0090 C   0  0  0  0  0  3  0  0  0  0  0  0
  192.0440  175.8500  147.0270 C   0  0  0  0  0  2  0  0  0  0  0  0
  1  4  2  0  0  0  0
  4 13  1  0  0  0  0
  5  6  1  6  0  0  0
  5  7  1  0  0  0  0
  5 10  1  0  0  0  0
  7 14  1  1  0  0  0
  7  9  1  0  0  0  0
  8  3  1  1  0  0  0
  9  8  1  0  0  0  0
  9  4  1  1  0  0  0
 10  6  1  6  0  0  0
 10  8  1  0  0  0  0
 11  3  1  6  0  0  0
 11 12  1  0  0  0  0
 11  2  1  0  0  0  0
 12  2  1  0  0  0  0
 12 30  1  1  0  0  0
 13 11  1  0  0  0  0
 13 12  1  0  0  0  0
 14 16  1  1  0  0  0
 15 18  1  6  0  0  0
 15 16  1  0  0  0  0
 15 14  1  0  0  0  0
 17 18  1  0  0  0  0
 20 25  2  0  0  0  0
 20 21  1  0  0  0  0
 21 22  2  0  0  0  0
 22 24  1  0  0  0  0
 22 18  1  0  0  0  0
 23 24  2  0  0  0  0
 24 19  1  0  0  0  0
 25 23  1  0  0  0  0
 26 28  1  0  0  0  0
 26 20  1  0  0  0  0
 28 27  1  0  0  0  0
 30 29  2  0  0  0  0
 31 30  1  0  0  0  0
 32 33  1  0  0  0  0
 32 31  1  0  0  0  0
 33 34  2  0  0  0  0
M  END
>  <MODEL>
6

>  <REMARK>
 VINA RESULT:      -6.4      3.624      7.888
  Name = 
  9 active torsions:
  status: ('A' for Active; 'I' for Inactive)
    1  A    between atoms: C_3  and  C_24
    2  A    between atoms: C_7  and  C_15
    3  A    between atoms: C_8  and  C_17
    4  A    between atoms: C_15  and  N_21
    5  A    between atoms: C_16  and  N_31
    6  A    between atoms: C_18  and  N_31
    7  A    between atoms: C_24  and  C_25
    8  A    between atoms: C_25  and  C_27
    9  A    between atoms: C_27  and  C_33
                            x       y       z     vdW  Elec       q    Type
                         _______ _______ _______ _____ _____    ______ ____

>  <TORSDO>
F 9

$$$$
=
 OpenBabel10262423173D

 34 40  0  0  1  0  0  0  0  0999 V2000
  182.8250  176.0370  138.8770 O   0  0  0  0  0  0  0  0  0  0  0  0
  179.8130  174.9960  135.8660 O   0  0  0  0  0  0  0  0  0  0  0  0
  180.1850  177.3860  135.9550 C   0  0  0  0  0  2  0  0  0  0  0  0
  182.1300  176.5030  137.9370 C   0  0  0  0  0  0  0  0  0  0  0  0
  180.5260  179.9340  138.1660 C   0  0  2  0  0  3  0  0  0  0  0  0
  181.4710  180.6030  137.3610 O   0  0  0  0  0  0  0  0  0  0  0  0
  181.1550  178.7220  138.8600 C   0  0  2  0  0  3  0  0  0  0  0  0
  181.2600  178.3840  136.4350 C   0  0  2  0  0  3  0  0  0  0  0  0
  181.9280  177.9840  137.7640 C   0  0  2  0  0  3  0  0  0  0  0  0
  180.5880  179.7270  136.6970 C   0  0  1  0  0  3  0  0  0  0  0  0
  180.7830  175.9860  135.7790 C   0  0  1  0  0  0  0  0  0  0  0  0
  180.4640  174.6150  137.0320 C   0  0  1  0  0  0  0  0  0  0  0  0
  181.5050  175.6440  136.9990 N   0  0  0  0  0  0  0  0  0  0  0  0
  180.0160  177.8910  139.4750 C   0  0  2  0  0  3  0  0  0  0  0  0
  179.6820  178.2100  140.9470 C   0  0  1  0  0  3  0  0  0  0  0  0
  180.5460  177.0140  140.5880 C   0  0  0  0  0  2  0  0  0  0  0  0
  180.0300  180.5590  141.4490 O   0  0  0  0  0  1  0  0  0  0  0  0
  180.4970  179.2890  141.5190 N   0  0  0  0  0  0  0  0  0  0  0  0
  180.5440  178.9530  144.3800 F   0  0  0  0  0  0  0  0  0  0  0  0
  184.1210  178.7630  142.2720 C   0  0  0  0  0  0  0  0  0  0  0  0
  182.9270  178.9980  141.5840 C   0  0  0  0  0  3  0  0  0  0  0  0
  181.7030  179.0410  142.2670 C   0  0  0  0  0  0  0  0  0  0  0  0
  182.8930  178.6380  144.3510 C   0  0  0  0  0  3  0  0  0  0  0  0
  181.6940  178.8640  143.6660 C   0  0  0  0  0  0  0  0  0  0  0  0
  184.1040  178.5870  143.6570 C   0  0  0  0  0  3  0  0  0  0  0  0
  185.4160  178.7340  141.5340 C   0  0  0  0  0  2  0  0  0  0  0  0
  185.4690  178.3560  139.2290 C   0  0  0  0  0  1  0  0  0  0  0  0
  185.2670  179.3790  140.2410 N   0  0  0  0  0  2  0  0  0  0  0  0
  180.4070  172.1470  137.5950 S   0  0  0  0  0  0  0  0  0  0  0  0
  181.0540  173.2320  136.9180 C   0  0  0  0  0  0  0  0  0  0  0  0
  182.3500  172.9810  136.2010 C   0  0  0  0  0  2  0  0  0  0  0  0
  183.1490  171.8590  136.8500 C   0  0  0  0  0  2  0  0  0  0  0  0
  184.5800  172.2540  137.0110 C   0  0  0  0  0  3  0  0  0  0  0  0
  184.8890  173.4040  137.6000 C   0  0  0  0  0  2  0  0  0  0  0  0
  2 12  1  0  0  0  0
  4  1  2  0  0  0  0
  5  6  1  6  0  0  0
  5  7  1  0  0  0  0
  7 14  1  6  0  0  0
  8  3  1  1  0  0  0
  8 10  1  0  0  0  0
  8  9  1  0  0  0  0
  9  4  1  1  0  0  0
  9  7  1  0  0  0  0
 10  6  1  6  0  0  0
 10  5  1  0  0  0  0
 11  2  1  0  0  0  0
 11  3  1  1  0  0  0
 11 13  1  0  0  0  0
 11 12  1  0  0  0  0
 12 30  1  6  0  0  0
 13 12  1  0  0  0  0
 13  4  1  0  0  0  0
 14 16  1  1  0  0  0
 14 15  1  0  0  0  0
 15 18  1  1  0  0  0
 16 15  1  0  0  0  0
 17 18  1  0  0  0  0
 18 22  1  0  0  0  0
 20 25  1  0  0  0  0
 21 22  1  0  0  0  0
 21 20  2  0  0  0  0
 22 24  2  0  0  0  0
 24 23  1  0  0  0  0
 24 19  1  0  0  0  0
 25 23  2  0  0  0  0
 26 20  1  0  0  0  0
 27 28  1  0  0  0  0
 28 26  1  0  0  0  0
 30 29  2  0  0  0  0
 31 32  1  0  0  0  0
 31 30  1  0  0  0  0
 32 33  1  0  0  0  0
 33 34  2  0  0  0  0
M  END
>  <MODEL>
7

>  <REMARK>
 VINA RESULT:      -6.2      6.654      9.060
  Name = 
  9 active torsions:
  status: ('A' for Active; 'I' for Inactive)
    1  A    between atoms: C_3  and  C_24
    2  A    between atoms: C_7  and  C_15
    3  A    between atoms: C_8  and  C_17
    4  A    between atoms: C_15  and  N_21
    5  A    between atoms: C_16  and  N_31
    6  A    between atoms: C_18  and  N_31
    7  A    between atoms: C_24  and  C_25
    8  A    between atoms: C_25  and  C_27
    9  A    between atoms: C_27  and  C_33
                            x       y       z     vdW  Elec       q    Type
                         _______ _______ _______ _____ _____    ______ ____

>  <TORSDO>
F 9

$$$$
=
 OpenBabel10262423173D

 34 40  0  0  1  0  0  0  0  0999 V2000
  187.3290  176.0460  143.2120 O   0  0  0  0  0  0  0  0  0  0  0  0
  190.5460  178.5560  144.8170 O   0  0  0  0  0  0  0  0  0  0  0  0
  188.6020  178.5810  146.2600 C   0  0  0  0  0  2  0  0  0  0  0  0
  187.6860  176.7150  144.2170 C   0  0  0  0  0  0  0  0  0  0  0  0
  185.2250  178.8610  146.1490 C   0  0  2  0  0  3  0  0  0  0  0  0
  185.0420  177.9630  147.2220 O   0  0  0  0  0  0  0  0  0  0  0  0
  185.6010  178.1150  144.8650 C   0  0  2  0  0  3  0  0  0  0  0  0
  187.3460  177.7290  146.5420 C   0  0  2  0  0  3  0  0  0  0  0  0
  186.7030  177.1340  145.2760 C   0  0  2  0  0  3  0  0  0  0  0  0
  186.2840  178.6280  147.1640 C   0  0  1  0  0  3  0  0  0  0  0  0
  189.6680  177.7530  145.5340 C   0  0  1  0  0  0  0  0  0  0  0  0
  189.9920  177.9650  143.6890 C   0  0  1  0  0  0  0  0  0  0  0  0
  189.0380  177.1030  144.3900 N   0  0  0  0  0  0  0  0  0  0  0  0
  186.0600  179.1590  143.8340 C   0  0  2  0  0  3  0  0  0  0  0  0
  184.9710  179.6550  142.8610 C   0  0  1  0  0  3  0  0  0  0  0  0
  185.9690  178.5920  142.4340 C   0  0  0  0  0  2  0  0  0  0  0  0
  183.1330  179.1180  144.3530 O   0  0  0  0  0  1  0  0  0  0  0  0
  183.6490  179.0620  143.1010 N   0  0  0  0  0  0  0  0  0  0  0  0
  180.7690  179.1620  143.1440 F   0  0  0  0  0  0  0  0  0  0  0  0
  182.6740  177.4060  139.8940 C   0  0  0  0  0  0  0  0  0  0  0  0
  183.4390  177.9240  140.9440 C   0  0  0  0  0  3  0  0  0  0  0  0
  182.8230  178.5450  142.0400 C   0  0  0  0  0  0  0  0  0  0  0  0
  180.6540  178.0950  141.0320 C   0  0  0  0  0  3  0  0  0  0  0  0
  181.4150  178.6230  142.0810 C   0  0  0  0  0  0  0  0  0  0  0  0
  181.2810  177.4890  139.9400 C   0  0  0  0  0  3  0  0  0  0  0  0
  183.3420  176.7370  138.7420 C   0  0  0  0  0  2  0  0  0  0  0  0
  185.3130  177.6430  137.8740 C   0  0  0  0  0  1  0  0  0  0  0  0
  183.8640  177.7330  137.8210 N   0  0  0  0  0  2  0  0  0  0  0  0
  191.6810  176.0800  143.5960 S   0  0  0  0  0  0  0  0  0  0  0  0
  191.0070  177.1530  142.9260 C   0  0  0  0  0  0  0  0  0  0  0  0
  191.4030  177.5010  141.5190 C   0  0  0  0  0  2  0  0  0  0  0  0
  190.5560  176.7600  140.4930 C   0  0  0  0  0  2  0  0  0  0  0  0
  189.8410  177.7230  139.6020 C   0  0  0  0  0  3  0  0  0  0  0  0
  188.6830  178.2470  139.9880 C   0  0  0  0  0  2  0  0  0  0  0  0
  1  4  2  0  0  0  0
  2 11  1  0  0  0  0
  4 13  1  0  0  0  0
  5 10  1  0  0  0  0
  5  6  1  1  0  0  0
  7 14  1  6  0  0  0
  7  9  1  0  0  0  0
  7  5  1  0  0  0  0
  8  3  1  6  0  0  0
  8 10  1  0  0  0  0
  9  4  1  6  0  0  0
  9  8  1  0  0  0  0
 10  6  1  1  0  0  0
 11  3  1  6  0  0  0
 12 30  1  1  0  0  0
 12 13  1  0  0  0  0
 12  2  1  0  0  0  0
 12 11  1  0  0  0  0
 13 11  1  0  0  0  0
 14 16  1  6  0  0  0
 15 18  1  1  0  0  0
 15 14  1  0  0  0  0
 16 15  1  0  0  0  0
 18 17  1  0  0  0  0
 20 25  2  0  0  0  0
 20 21  1  0  0  0  0
 21 22  2  0  0  0  0
 22 24  1  0  0  0  0
 22 18  1  0  0  0  0
 23 24  2  0  0  0  0
 24 19  1  0  0  0  0
 25 23  1  0  0  0  0
 26 20  1  0  0  0  0
 28 27  1  0  0  0  0
 28 26  1  0  0  0  0
 30 29  2  0  0  0  0
 31 30  1  0  0  0  0
 32 31  1  0  0  0  0
 33 34  2  0  0  0  0
 33 32  1  0  0  0  0
M  END
>  <MODEL>
8

>  <REMARK>
 VINA RESULT:      -6.1      3.744      7.027
  Name = 
  9 active torsions:
  status: ('A' for Active; 'I' for Inactive)
    1  A    between atoms: C_3  and  C_24
    2  A    between atoms: C_7  and  C_15
    3  A    between atoms: C_8  and  C_17
    4  A    between atoms: C_15  and  N_21
    5  A    between atoms: C_16  and  N_31
    6  A    between atoms: C_18  and  N_31
    7  A    between atoms: C_24  and  C_25
    8  A    between atoms: C_25  and  C_27
    9  A    between atoms: C_27  and  C_33
                            x       y       z     vdW  Elec       q    Type
                         _______ _______ _______ _____ _____    ______ ____

>  <TORSDO>
F 9

$$$$
=
 OpenBabel10262423173D

 34 40  0  0  1  0  0  0  0  0999 V2000
  182.6060  180.3210  139.0600 O   0  0  0  0  0  0  0  0  0  0  0  0
  180.2470  176.7300  138.1830 O   0  0  0  0  0  0  0  0  0  0  0  0
  179.9670  177.4320  140.4830 C   0  0  0  0  0  2  0  0  0  0  0  0
  181.7300  179.5460  139.5250 C   0  0  0  0  0  0  0  0  0  0  0  0
  181.7510  178.4830  143.1670 C   0  0  2  0  0  3  0  0  0  0  0  0
  180.7320  179.3610  143.5930 O   0  0  0  0  0  0  0  0  0  0  0  0
  182.4940  179.0500  141.9530 C   0  0  2  0  0  3  0  0  0  0  0  0
  180.1460  178.6980  141.3480 C   0  0  2  0  0  3  0  0  0  0  0  0
  181.3980  179.5200  140.9930 C   0  0  2  0  0  3  0  0  0  0  0  0
  180.3290  178.2680  142.7980 C   0  0  1  0  0  3  0  0  0  0  0  0
  179.8860  177.7960  138.9960 C   0  0  1  0  0  0  0  0  0  0  0  0
  181.3410  177.5120  137.8320 C   0  0  1  0  0  0  0  0  0  0  0  0
  181.0170  178.6620  138.6780 N   0  0  0  0  0  0  0  0  0  0  0  0
  183.3770  177.9300  141.3790 C   0  0  2  0  0  3  0  0  0  0  0  0
  184.8090  177.8560  141.9480 C   0  0  1  0  0  3  0  0  0  0  0  0
  184.5380  178.5180  140.6080 C   0  0  0  0  0  2  0  0  0  0  0  0
  184.7750  180.1560  142.7220 O   0  0  0  0  0  1  0  0  0  0  0  0
  185.0890  178.8630  142.9790 N   0  0  0  0  0  0  0  0  0  0  0  0
  183.5130  179.2370  145.3630 F   0  0  0  0  0  0  0  0  0  0  0  0
  187.3470  177.6690  145.7090 C   0  0  0  0  0  0  0  0  0  0  0  0
  186.8540  178.0120  144.4460 C   0  0  0  0  0  3  0  0  0  0  0  0
  185.5550  178.5190  144.2980 C   0  0  0  0  0  0  0  0  0  0  0  0
  185.2560  178.3600  146.7080 C   0  0  0  0  0  3  0  0  0  0  0  0
  184.7550  178.6980  145.4460 C   0  0  0  0  0  0  0  0  0  0  0  0
  186.5490  177.8460  146.8400 C   0  0  0  0  0  3  0  0  0  0  0  0
  188.7350  177.1450  145.8510 C   0  0  0  0  0  2  0  0  0  0  0  0
  190.5140  176.7570  147.3160 C   0  0  0  0  0  1  0  0  0  0  0  0
  189.2620  177.4780  147.1640 N   0  0  0  0  0  2  0  0  0  0  0  0
  182.3980  177.4470  135.5320 S   0  0  0  0  0  0  0  0  0  0  0  0
  181.3200  177.8810  136.3710 C   0  0  0  0  0  0  0  0  0  0  0  0
  180.2560  178.7720  135.7940 C   0  0  0  0  0  2  0  0  0  0  0  0
  180.8440  179.8420  134.8850 C   0  0  0  0  0  2  0  0  0  0  0  0
  180.3870  181.2010  135.3030 C   0  0  0  0  0  3  0  0  0  0  0  0
  180.5520  181.5980  136.5600 C   0  0  0  0  0  2  0  0  0  0  0  0
  1  4  2  0  0  0  0
  2 11  1  0  0  0  0
  5  6  1  1  0  0  0
  7 14  1  6  0  0  0
  7  5  1  0  0  0  0
  8  3  1  6  0  0  0
  8 10  1  0  0  0  0
  9  4  1  6  0  0  0
  9  8  1  0  0  0  0
  9  7  1  0  0  0  0
 10  5  1  0  0  0  0
 10  6  1  1  0  0  0
 11  3  1  1  0  0  0
 12 30  1  6  0  0  0
 12  2  1  0  0  0  0
 12 13  1  0  0  0  0
 12 11  1  0  0  0  0
 13 11  1  0  0  0  0
 13  4  1  0  0  0  0
 14 16  1  6  0  0  0
 14 15  1  0  0  0  0
 15 18  1  1  0  0  0
 16 15  1  0  0  0  0
 17 18  1  0  0  0  0
 18 22  1  0  0  0  0
 19 24  1  0  0  0  0
 20 26  1  0  0  0  0
 20 25  1  0  0  0  0
 21 20  2  0  0  0  0
 22 21  1  0  0  0  0
 22 24  2  0  0  0  0
 23 25  2  0  0  0  0
 24 23  1  0  0  0  0
 26 28  1  0  0  0  0
 28 27  1  0  0  0  0
 29 30  2  0  0  0  0
 31 30  1  0  0  0  0
 32 33  1  0  0  0  0
 32 31  1  0  0  0  0
 33 34  2  0  0  0  0
M  END
>  <MODEL>
9

>  <REMARK>
 VINA RESULT:      -6.1      5.925      8.795
  Name = 
  9 active torsions:
  status: ('A' for Active; 'I' for Inactive)
    1  A    between atoms: C_3  and  C_24
    2  A    between atoms: C_7  and  C_15
    3  A    between atoms: C_8  and  C_17
    4  A    between atoms: C_15  and  N_21
    5  A    between atoms: C_16  and  N_31
    6  A    between atoms: C_18  and  N_31
    7  A    between atoms: C_24  and  C_25
    8  A    between atoms: C_25  and  C_27
    9  A    between atoms: C_27  and  C_33
                            x       y       z     vdW  Elec       q    Type
                         _______ _______ _______ _____ _____    ______ ____

>  <TORSDO>
F 9

$$$$
