=
 OpenBabel10262420493D

 28 31  0  0  1  0  0  0  0  0999 V2000
  184.3440  178.6450  139.3770 C   0  0  0  0  0  2  0  0  0  0  0  0
  182.7090  179.0090  143.1940 C   0  0  0  0  0  3  0  0  0  0  0  0
  185.7090  178.4660  142.8380 C   0  0  0  0  0  3  0  0  0  0  0  0
  182.4850  178.3200  140.8700 C   0  0  2  0  0  3  0  0  0  0  0  0
  184.3790  178.5660  144.9520 C   0  0  0  0  0  0  0  0  0  0  0  0
  183.3330  178.6770  142.0600 C   0  0  0  0  0  0  0  0  0  0  0  0
  185.3810  178.8730  140.4830 C   0  0  0  0  0  2  0  0  0  0  0  0
  185.4390  178.1590  144.2570 C   0  0  0  0  0  3  0  0  0  0  0  0
  181.1250  177.6300  138.5810 C   0  0  2  0  0  3  0  0  0  0  0  0
  183.3270  177.6980  139.8300 N   0  0  1  0  0  0  0  0  0  0  0  0
  184.8160  178.7390  141.8750 C   0  0  0  0  0  0  0  0  0  0  0  0
  181.0530  179.4440  138.6820 S   0  0  0  0  0  0  0  0  0  0  0  0
  184.2580  178.1850  146.2470 F   0  0  0  0  0  0  0  0  0  0  0  0
  183.4020  179.5450  144.4010 C   0  0  0  0  0  2  0  0  0  0  0  0
  181.7350  179.5710  140.3740 C   0  0  0  0  0  2  0  0  0  0  0  0
  182.5860  177.1600  138.6760 C   0  0  1  0  0  3  0  0  0  0  0  0
  178.9350  177.5740  137.1210 O   0  0  0  0  0  1  0  0  0  0  0  0
  181.0670  178.0720  135.8420 O   0  0  0  0  0  1  0  0  0  0  0  0
  180.3700  177.0730  137.0320 S   0  0  0  0  0  3  0  0  0  0  0  0
  182.7010  175.6280  138.6230 C   0  0  2  0  0  3  0  0  0  0  0  0
  183.9450  176.0630  136.3160 C   0  0  0  0  0  1  0  0  0  0  0  0
  183.0660  173.7680  136.9240 C   0  0  0  0  0  2  0  0  0  0  0  0
  183.5270  175.1140  137.4340 C   0  0  2  0  0  0  0  0  0  0  0  0
  184.3740  173.8740  137.6960 C   0  0  2  0  0  3  0  0  0  0  0  0
  185.4470  173.7980  136.8060 O   0  0  0  0  0  1  0  0  0  0  0  0
  181.3170  174.9930  138.6780 C   0  0  0  0  0  2  0  0  0  0  0  0
  179.6520  174.4490  139.9160 O   0  0  0  0  0  1  0  0  0  0  0  0
  180.8930  174.8790  140.0020 O   0  0  0  0  0  0  0  0  0  0  0  0
  1  7  1  0  0  0  0
  2 14  1  0  0  0  0
  3  8  1  0  0  0  0
  4 15  1  6  0  0  0
  4  6  1  0  0  0  0
  5 13  1  0  0  0  0
  6  2  2  0  0  0  0
  7 11  1  0  0  0  0
  8  5  2  0  0  0  0
  9 19  1  6  0  0  0
  9 16  1  0  0  0  0
  9 12  1  0  0  0  0
 10  1  1  6  0  0  0
 10  4  1  0  0  0  0
 11  6  1  0  0  0  0
 11  3  2  0  0  0  0
 12 15  1  0  0  0  0
 14  5  1  0  0  0  0
 16 20  1  1  0  0  0
 16 10  1  0  0  0  0
 18 19  1  0  0  0  0
 19 17  1  0  0  0  0
 20 26  1  6  0  0  0
 22 23  1  0  0  0  0
 22 24  1  0  0  0  0
 23 21  1  6  0  0  0
 23 24  1  0  0  0  0
 23 20  1  0  0  0  0
 24 25  1  6  0  0  0
 26 28  1  0  0  0  0
 27 28  1  0  0  0  0
M  END
>  <MODEL>
1

>  <REMARK>
 VINA RESULT:      -5.6      0.000      0.000
  Name = 
  5 active torsions:
  status: ('A' for Active; 'I' for Inactive)
    1  A    between atoms: C_1  and  C_7
    2  A    between atoms: C_1  and  C_26
    3  A    between atoms: C_1  and  C_27
    4  A    between atoms: O_11  and  C_26
    5  A    between atoms: C_16  and  S_21
                            x       y       z     vdW  Elec       q    Type
                         _______ _______ _______ _____ _____    ______ ____

>  <TORSDO>
F 5

$$$$
=
 OpenBabel10262420493D

 28 31  0  0  1  0  0  0  0  0999 V2000
  191.5610  177.4320  139.1020 C   0  0  0  0  0  2  0  0  0  0  0  0
  188.5200  177.6720  141.9430 C   0  0  0  0  0  3  0  0  0  0  0  0
  191.3520  176.8290  142.7720 C   0  0  0  0  0  3  0  0  0  0  0  0
  189.2320  177.1970  139.6630 C   0  0  2  0  0  3  0  0  0  0  0  0
  189.2760  176.9080  144.1610 C   0  0  0  0  0  0  0  0  0  0  0  0
  189.5340  177.3630  141.1280 C   0  0  0  0  0  0  0  0  0  0  0  0
  192.0590  177.4550  140.5510 C   0  0  0  0  0  2  0  0  0  0  0  0
  190.4980  176.4430  143.9130 C   0  0  0  0  0  3  0  0  0  0  0  0
  188.9000  176.8460  136.9560 C   0  0  2  0  0  3  0  0  0  0  0  0
  190.3850  176.5710  138.9890 N   0  0  1  0  0  0  0  0  0  0  0  0
  190.9600  177.2740  141.5690 C   0  0  0  0  0  0  0  0  0  0  0  0
  188.9170  178.6430  137.2320 S   0  0  0  0  0  0  0  0  0  0  0  0
  188.6040  176.4420  145.2410 F   0  0  0  0  0  0  0  0  0  0  0  0
  188.6850  178.0300  143.3810 C   0  0  0  0  0  2  0  0  0  0  0  0
  188.8430  178.5590  139.0580 C   0  0  0  0  0  2  0  0  0  0  0  0
  190.1540  176.2110  137.5790 C   0  0  1  0  0  3  0  0  0  0  0  0
  187.9000  177.5870  134.6360 O   0  0  0  0  0  1  0  0  0  0  0  0
  190.3540  176.9480  134.5950 O   0  0  0  0  0  1  0  0  0  0  0  0
  188.8190  176.5010  135.1800 S   0  0  0  0  0  3  0  0  0  0  0  0
  190.1760  174.6850  137.3970 C   0  0  2  0  0  3  0  0  0  0  0  0
  190.9220  173.3880  135.2010 C   0  0  0  0  0  1  0  0  0  0  0  0
  192.4950  173.6620  137.1670 C   0  0  0  0  0  2  0  0  0  0  0  0
  191.2780  174.1950  136.4460 C   0  0  2  0  0  0  0  0  0  0  0  0
  192.5710  175.0020  136.4500 C   0  0  2  0  0  3  0  0  0  0  0  0
  193.2660  174.8490  135.2480 O   0  0  0  0  0  1  0  0  0  0  0  0
  188.7970  174.1830  136.9860 C   0  0  0  0  0  2  0  0  0  0  0  0
  187.3490  172.6330  137.3000 O   0  0  0  0  0  1  0  0  0  0  0  0
  188.6470  172.8430  137.3410 O   0  0  0  0  0  0  0  0  0  0  0  0
  1  7  1  0  0  0  0
  2 14  1  0  0  0  0
  3  8  1  0  0  0  0
  4 15  1  6  0  0  0
  4  6  1  0  0  0  0
  5 13  1  0  0  0  0
  6 11  1  0  0  0  0
  6  2  2  0  0  0  0
  7 11  1  0  0  0  0
  8  5  2  0  0  0  0
  9 19  1  6  0  0  0
  9 12  1  0  0  0  0
  9 16  1  0  0  0  0
 10  1  1  6  0  0  0
 10  4  1  0  0  0  0
 11  3  2  0  0  0  0
 12 15  1  0  0  0  0
 14  5  1  0  0  0  0
 16 20  1  1  0  0  0
 16 10  1  0  0  0  0
 17 19  1  0  0  0  0
 18 19  1  0  0  0  0
 20 26  1  6  0  0  0
 23 21  1  6  0  0  0
 23 24  1  0  0  0  0
 23 22  1  0  0  0  0
 23 20  1  0  0  0  0
 24 25  1  6  0  0  0
 24 22  1  0  0  0  0
 26 28  1  0  0  0  0
 27 28  1  0  0  0  0
M  END
>  <MODEL>
2

>  <REMARK>
 VINA RESULT:      -5.5      6.169      7.454
  Name = 
  5 active torsions:
  status: ('A' for Active; 'I' for Inactive)
    1  A    between atoms: C_1  and  C_7
    2  A    between atoms: C_1  and  C_26
    3  A    between atoms: C_1  and  C_27
    4  A    between atoms: O_11  and  C_26
    5  A    between atoms: C_16  and  S_21
                            x       y       z     vdW  Elec       q    Type
                         _______ _______ _______ _____ _____    ______ ____

>  <TORSDO>
F 5

$$$$
=
 OpenBabel10262420493D

 28 31  0  0  1  0  0  0  0  0999 V2000
  180.6660  179.6630  135.7520 C   0  0  0  0  0  2  0  0  0  0  0  0
  179.5610  182.6330  138.4610 C   0  0  0  0  0  3  0  0  0  0  0  0
  180.8610  183.3830  135.7840 C   0  0  0  0  0  3  0  0  0  0  0  0
  180.3820  180.3810  138.0310 C   0  0  2  0  0  3  0  0  0  0  0  0
  180.2420  184.8730  137.6920 C   0  0  0  0  0  0  0  0  0  0  0  0
  180.1400  181.7990  137.5910 C   0  0  0  0  0  0  0  0  0  0  0  0
  180.6030  181.0700  135.1470 C   0  0  0  0  0  2  0  0  0  0  0  0
  180.9610  184.6070  136.6030 C   0  0  0  0  0  3  0  0  0  0  0  0
  180.9190  177.7530  138.6350 C   0  0  2  0  0  3  0  0  0  0  0  0
  181.2850  179.7130  137.0750 N   0  0  1  0  0  0  0  0  0  0  0  0
  180.4650  182.1630  136.1770 C   0  0  0  0  0  0  0  0  0  0  0  0
  179.1430  177.8290  138.2560 S   0  0  0  0  0  0  0  0  0  0  0  0
  180.4610  186.0350  138.3540 F   0  0  0  0  0  0  0  0  0  0  0  0
  179.1060  184.0110  138.1180 C   0  0  0  0  0  2  0  0  0  0  0  0
  179.0350  179.6540  138.2010 C   0  0  0  0  0  2  0  0  0  0  0  0
  181.7260  178.3670  137.4800 C   0  0  1  0  0  3  0  0  0  0  0  0
  180.4680  175.5580  140.0170 O   0  0  0  0  0  1  0  0  0  0  0  0
  180.8600  175.2050  137.5360 O   0  0  0  0  0  1  0  0  0  0  0  0
  181.4100  176.0330  138.9190 S   0  0  0  0  0  3  0  0  0  0  0  0
  183.2370  178.3520  137.7630 C   0  0  2  0  0  3  0  0  0  0  0  0
  183.3530  176.7560  135.6410 C   0  0  0  0  0  1  0  0  0  0  0  0
  184.9060  176.4360  137.6160 C   0  0  0  0  0  2  0  0  0  0  0  0
  184.0230  177.3970  136.8520 C   0  0  2  0  0  0  0  0  0  0  0  0
  185.5360  177.5830  136.8380 C   0  0  2  0  0  3  0  0  0  0  0  0
  186.0950  177.0920  135.6560 O   0  0  0  0  0  1  0  0  0  0  0  0
  183.4940  178.0800  139.2400 C   0  0  0  0  0  2  0  0  0  0  0  0
  184.4490  179.9980  139.1540 O   0  0  0  0  0  1  0  0  0  0  0  0
  183.6630  179.2810  139.9280 O   0  0  0  0  0  0  0  0  0  0  0  0
  3 11  2  0  0  0  0
  3  8  1  0  0  0  0
  4 15  1  6  0  0  0
  5 14  1  0  0  0  0
  5 13  1  0  0  0  0
  6  4  1  0  0  0  0
  6  2  2  0  0  0  0
  7  1  1  0  0  0  0
  7 11  1  0  0  0  0
  8  5  2  0  0  0  0
  9 19  1  6  0  0  0
 10  1  1  6  0  0  0
 10 16  1  0  0  0  0
 10  4  1  0  0  0  0
 11  6  1  0  0  0  0
 12  9  1  0  0  0  0
 14  2  1  0  0  0  0
 15 12  1  0  0  0  0
 16 20  1  1  0  0  0
 16  9  1  0  0  0  0
 18 19  1  0  0  0  0
 19 17  1  0  0  0  0
 20 26  1  1  0  0  0
 23 21  1  6  0  0  0
 23 22  1  0  0  0  0
 23 20  1  0  0  0  0
 24 25  1  6  0  0  0
 24 23  1  0  0  0  0
 24 22  1  0  0  0  0
 26 28  1  0  0  0  0
 27 28  1  0  0  0  0
M  END
>  <MODEL>
3

>  <REMARK>
 VINA RESULT:      -5.1      4.262      6.015
  Name = 
  5 active torsions:
  status: ('A' for Active; 'I' for Inactive)
    1  A    between atoms: C_1  and  C_7
    2  A    between atoms: C_1  and  C_26
    3  A    between atoms: C_1  and  C_27
    4  A    between atoms: O_11  and  C_26
    5  A    between atoms: C_16  and  S_21
                            x       y       z     vdW  Elec       q    Type
                         _______ _______ _______ _____ _____    ______ ____

>  <TORSDO>
F 5

$$$$
=
 OpenBabel10262420493D

 28 31  0  0  1  0  0  0  0  0999 V2000
  187.2860  176.6110  135.2710 C   0  0  0  0  0  2  0  0  0  0  0  0
  184.6370  174.3690  137.5800 C   0  0  0  0  0  3  0  0  0  0  0  0
  184.1140  177.3510  137.0760 C   0  0  0  0  0  3  0  0  0  0  0  0
  186.9110  174.8200  136.8330 C   0  0  2  0  0  3  0  0  0  0  0  0
  182.8470  175.7680  138.5370 C   0  0  0  0  0  0  0  0  0  0  0  0
  185.4830  175.2500  137.0360 C   0  0  0  0  0  0  0  0  0  0  0  0
  185.9220  177.2770  135.4800 C   0  0  0  0  0  2  0  0  0  0  0  0
  183.2210  177.0000  138.1980 C   0  0  0  0  0  3  0  0  0  0  0  0
  189.5610  174.2400  136.3810 C   0  0  2  0  0  3  0  0  0  0  0  0
  187.7420  175.9970  136.5170 N   0  0  1  0  0  0  0  0  0  0  0  0
  185.0730  176.5940  136.5230 C   0  0  0  0  0  0  0  0  0  0  0  0
  188.6330  173.4360  135.0400 S   0  0  0  0  0  0  0  0  0  0  0  0
  182.0360  175.6000  139.6090 F   0  0  0  0  0  0  0  0  0  0  0  0
  183.1660  174.5850  137.6900 C   0  0  0  0  0  2  0  0  0  0  0  0
  186.9730  173.7260  135.7520 C   0  0  0  0  0  2  0  0  0  0  0  0
  189.1900  175.7300  136.4510 C   0  0  1  0  0  3  0  0  0  0  0  0
  191.8530  173.4770  137.4260 O   0  0  0  0  0  1  0  0  0  0  0  0
  191.4470  172.7040  135.0450 O   0  0  0  0  0  1  0  0  0  0  0  0
  191.3380  174.0320  136.1050 S   0  0  0  0  0  3  0  0  0  0  0  0
  189.9270  176.4530  137.5890 C   0  0  2  0  0  3  0  0  0  0  0  0
  189.0770  178.9480  137.2460 C   0  0  0  0  0  1  0  0  0  0  0  0
  189.4840  178.0030  139.5600 C   0  0  0  0  0  2  0  0  0  0  0  0
  189.1880  177.6950  138.1090 C   0  0  2  0  0  0  0  0  0  0  0  0
  188.1240  177.4420  139.1710 C   0  0  2  0  0  3  0  0  0  0  0  0
  187.1750  178.4670  139.1900 O   0  0  0  0  0  1  0  0  0  0  0  0
  191.3590  176.7700  137.1730 C   0  0  0  0  0  2  0  0  0  0  0  0
  193.4200  176.7500  137.7650 O   0  0  0  0  0  1  0  0  0  0  0  0
  192.2080  176.6920  138.2760 O   0  0  0  0  0  0  0  0  0  0  0  0
  1  7  1  0  0  0  0
  2 14  1  0  0  0  0
  3  8  1  0  0  0  0
  4 15  1  6  0  0  0
  4  6  1  0  0  0  0
  5 13  1  0  0  0  0
  6  2  2  0  0  0  0
  7 11  1  0  0  0  0
  8  5  2  0  0  0  0
  9 19  1  6  0  0  0
  9 16  1  0  0  0  0
 10  1  1  6  0  0  0
 10  4  1  0  0  0  0
 11  6  1  0  0  0  0
 11  3  2  0  0  0  0
 12 15  1  0  0  0  0
 12  9  1  0  0  0  0
 14  5  1  0  0  0  0
 16 10  1  0  0  0  0
 16 20  1  1  0  0  0
 18 19  1  0  0  0  0
 19 17  1  0  0  0  0
 20 26  1  6  0  0  0
 20 23  1  0  0  0  0
 23 21  1  6  0  0  0
 23 24  1  0  0  0  0
 23 22  1  0  0  0  0
 24 25  1  6  0  0  0
 24 22  1  0  0  0  0
 26 28  1  0  0  0  0
 27 28  1  0  0  0  0
M  END
>  <MODEL>
4

>  <REMARK>
 VINA RESULT:      -5.0      5.429      8.453
  Name = 
  5 active torsions:
  status: ('A' for Active; 'I' for Inactive)
    1  A    between atoms: C_1  and  C_7
    2  A    between atoms: C_1  and  C_26
    3  A    between atoms: C_1  and  C_27
    4  A    between atoms: O_11  and  C_26
    5  A    between atoms: C_16  and  S_21
                            x       y       z     vdW  Elec       q    Type
                         _______ _______ _______ _____ _____    ______ ____

>  <TORSDO>
F 5

$$$$
=
 OpenBabel10262420493D

 28 31  0  0  1  0  0  0  0  0999 V2000
  183.6740  177.0920  135.3550 C   0  0  0  0  0  2  0  0  0  0  0  0
  187.0540  177.5140  137.7590 C   0  0  0  0  0  3  0  0  0  0  0  0
  187.3360  177.3130  134.7090 C   0  0  0  0  0  3  0  0  0  0  0  0
  184.8020  176.6470  137.4340 C   0  0  2  0  0  3  0  0  0  0  0  0
  189.1340  177.3940  136.4420 C   0  0  0  0  0  0  0  0  0  0  0  0
  186.0970  177.1830  136.8860 C   0  0  0  0  0  0  0  0  0  0  0  0
  184.9340  177.5170  134.5940 C   0  0  0  0  0  2  0  0  0  0  0  0
  188.6970  177.0720  135.2270 C   0  0  0  0  0  3  0  0  0  0  0  0
  182.3650  175.6450  138.2230 C   0  0  2  0  0  3  0  0  0  0  0  0
  184.0050  176.0620  136.3390 N   0  0  1  0  0  0  0  0  0  0  0  0
  186.1970  177.4100  135.4110 C   0  0  0  0  0  0  0  0  0  0  0  0
  182.2860  177.4400  138.5030 S   0  0  0  0  0  0  0  0  0  0  0  0
  190.4100  177.0900  136.7820 F   0  0  0  0  0  0  0  0  0  0  0  0
  188.3180  178.2090  137.3840 C   0  0  0  0  0  2  0  0  0  0  0  0
  184.0600  177.7620  138.1940 C   0  0  0  0  0  2  0  0  0  0  0  0
  182.7830  175.3620  136.7700 C   0  0  1  0  0  3  0  0  0  0  0  0
  180.3310  175.5570  139.8910 O   0  0  0  0  0  1  0  0  0  0  0  0
  179.7050  175.5830  137.4340 O   0  0  0  0  0  1  0  0  0  0  0  0
  180.7560  174.8990  138.5860 S   0  0  0  0  0  3  0  0  0  0  0  0
  182.8920  173.8550  136.4880 C   0  0  2  0  0  3  0  0  0  0  0  0
  185.2620  173.7070  135.2960 C   0  0  0  0  0  1  0  0  0  0  0  0
  184.4670  171.8930  136.8740 C   0  0  0  0  0  2  0  0  0  0  0  0
  184.3380  173.3390  136.4530 C   0  0  2  0  0  0  0  0  0  0  0  0
  184.9570  172.9950  137.8020 C   0  0  2  0  0  3  0  0  0  0  0  0
  186.3510  173.0610  137.7510 O   0  0  0  0  0  1  0  0  0  0  0  0
  182.1240  173.5000  135.2200 C   0  0  0  0  0  2  0  0  0  0  0  0
  181.0110  172.0100  136.2890 O   0  0  0  0  0  1  0  0  0  0  0  0
  180.8340  173.0790  135.5420 O   0  0  0  0  0  0  0  0  0  0  0  0
  3  8  1  0  0  0  0
  3 11  2  0  0  0  0
  4 15  1  6  0  0  0
  5 13  1  0  0  0  0
  5 14  1  0  0  0  0
  6  4  1  0  0  0  0
  6  2  2  0  0  0  0
  7  1  1  0  0  0  0
  7 11  1  0  0  0  0
  8  5  2  0  0  0  0
  9 12  1  0  0  0  0
  9 19  1  6  0  0  0
 10  1  1  6  0  0  0
 10 16  1  0  0  0  0
 10  4  1  0  0  0  0
 11  6  1  0  0  0  0
 14  2  1  0  0  0  0
 15 12  1  0  0  0  0
 16 20  1  1  0  0  0
 16  9  1  0  0  0  0
 18 19  1  0  0  0  0
 19 17  1  0  0  0  0
 20 26  1  6  0  0  0
 22 24  1  0  0  0  0
 23 21  1  6  0  0  0
 23 20  1  0  0  0  0
 23 22  1  0  0  0  0
 23 24  1  0  0  0  0
 24 25  1  6  0  0  0
 26 28  1  0  0  0  0
 28 27  1  0  0  0  0
M  END
>  <MODEL>
5

>  <REMARK>
 VINA RESULT:      -4.9      3.945      5.474
  Name = 
  5 active torsions:
  status: ('A' for Active; 'I' for Inactive)
    1  A    between atoms: C_1  and  C_7
    2  A    between atoms: C_1  and  C_26
    3  A    between atoms: C_1  and  C_27
    4  A    between atoms: O_11  and  C_26
    5  A    between atoms: C_16  and  S_21
                            x       y       z     vdW  Elec       q    Type
                         _______ _______ _______ _____ _____    ______ ____

>  <TORSDO>
F 5

$$$$
=
 OpenBabel10262420493D

 28 31  0  0  1  0  0  0  0  0999 V2000
  189.2860  179.0480  139.1120 C   0  0  0  0  0  2  0  0  0  0  0  0
  189.0220  175.0620  137.9210 C   0  0  0  0  0  3  0  0  0  0  0  0
  187.4660  177.2370  136.4150 C   0  0  0  0  0  3  0  0  0  0  0  0
  189.2730  176.7130  139.6940 C   0  0  2  0  0  3  0  0  0  0  0  0
  187.4030  174.7600  136.0880 C   0  0  0  0  0  0  0  0  0  0  0  0
  188.8530  176.3330  138.2990 C   0  0  0  0  0  0  0  0  0  0  0  0
  188.7070  178.8520  137.7070 C   0  0  0  0  0  2  0  0  0  0  0  0
  186.8530  175.9670  135.9760 C   0  0  0  0  0  3  0  0  0  0  0  0
  189.9680  177.6160  142.1960 C   0  0  2  0  0  3  0  0  0  0  0  0
  188.7380  178.0470  140.0250 N   0  0  1  0  0  0  0  0  0  0  0  0
  188.3690  177.4170  137.3890 C   0  0  0  0  0  0  0  0  0  0  0  0
  191.5180  177.5030  141.2530 S   0  0  0  0  0  0  0  0  0  0  0  0
  186.7070  173.6800  135.6570 F   0  0  0  0  0  0  0  0  0  0  0  0
  188.8130  174.5720  136.5290 C   0  0  0  0  0  2  0  0  0  0  0  0
  190.8060  176.6280  139.8130 C   0  0  0  0  0  2  0  0  0  0  0  0
  188.9470  178.4660  141.4220 C   0  0  1  0  0  3  0  0  0  0  0  0
  190.8120  177.1570  144.6470 O   0  0  0  0  0  1  0  0  0  0  0  0
  191.6800  179.2950  143.5940 O   0  0  0  0  0  1  0  0  0  0  0  0
  190.2950  178.3310  143.8270 S   0  0  0  0  0  3  0  0  0  0  0  0
  187.6060  178.5710  142.1650 C   0  0  2  0  0  3  0  0  0  0  0  0
  188.0090  176.1120  143.0890 C   0  0  0  0  0  1  0  0  0  0  0  0
  186.0390  177.5020  143.8640 C   0  0  0  0  0  2  0  0  0  0  0  0
  187.4270  177.5110  143.2630 C   0  0  2  0  0  0  0  0  0  0  0  0
  187.2090  178.0430  144.6740 C   0  0  2  0  0  3  0  0  0  0  0  0
  187.5860  177.1000  145.6340 O   0  0  0  0  0  1  0  0  0  0  0  0
  186.4510  178.5690  141.1710 C   0  0  0  0  0  2  0  0  0  0  0  0
  184.9310  179.7530  140.2300 O   0  0  0  0  0  1  0  0  0  0  0  0
  185.7150  179.7480  141.2860 O   0  0  0  0  0  0  0  0  0  0  0  0
  2  6  2  0  0  0  0
  3 11  2  0  0  0  0
  4 15  1  6  0  0  0
  4 10  1  0  0  0  0
  5 14  1  0  0  0  0
  6  4  1  0  0  0  0
  7  1  1  0  0  0  0
  8  5  2  0  0  0  0
  8  3  1  0  0  0  0
  9 19  1  1  0  0  0
 10  1  1  6  0  0  0
 10 16  1  0  0  0  0
 11  7  1  0  0  0  0
 11  6  1  0  0  0  0
 12  9  1  0  0  0  0
 13  5  1  0  0  0  0
 14  2  1  0  0  0  0
 15 12  1  0  0  0  0
 16 20  1  1  0  0  0
 16  9  1  0  0  0  0
 18 19  1  0  0  0  0
 19 17  1  0  0  0  0
 20 26  1  6  0  0  0
 20 23  1  0  0  0  0
 22 24  1  0  0  0  0
 23 21  1  6  0  0  0
 23 22  1  0  0  0  0
 23 24  1  0  0  0  0
 24 25  1  1  0  0  0
 26 28  1  0  0  0  0
 27 28  1  0  0  0  0
M  END
>  <MODEL>
6

>  <REMARK>
 VINA RESULT:      -4.9      6.141      8.844
  Name = 
  5 active torsions:
  status: ('A' for Active; 'I' for Inactive)
    1  A    between atoms: C_1  and  C_7
    2  A    between atoms: C_1  and  C_26
    3  A    between atoms: C_1  and  C_27
    4  A    between atoms: O_11  and  C_26
    5  A    between atoms: C_16  and  S_21
                            x       y       z     vdW  Elec       q    Type
                         _______ _______ _______ _____ _____    ______ ____

>  <TORSDO>
F 5

$$$$
=
 OpenBabel10262420493D

 28 31  0  0  1  0  0  0  0  0999 V2000
  184.5430  175.9310  135.2240 C   0  0  0  0  0  2  0  0  0  0  0  0
  183.0720  176.3050  139.1060 C   0  0  0  0  0  3  0  0  0  0  0  0
  182.3040  178.3540  136.9540 C   0  0  0  0  0  3  0  0  0  0  0  0
  184.8600  175.6420  137.5920 C   0  0  2  0  0  3  0  0  0  0  0  0
  181.7550  178.3690  139.3920 C   0  0  0  0  0  0  0  0  0  0  0  0
  183.6120  176.4290  137.8900 C   0  0  0  0  0  0  0  0  0  0  0  0
  183.3490  176.8830  135.3520 C   0  0  0  0  0  2  0  0  0  0  0  0
  181.9310  178.9950  138.2300 C   0  0  0  0  0  3  0  0  0  0  0  0
  187.1400  174.3000  136.8440 C   0  0  2  0  0  3  0  0  0  0  0  0
  185.4660  176.1320  136.3400 N   0  0  1  0  0  0  0  0  0  0  0  0
  182.9940  177.2170  136.7790 C   0  0  0  0  0  0  0  0  0  0  0  0
  185.7880  173.0880  136.7480 S   0  0  0  0  0  0  0  0  0  0  0  0
  181.4320  179.0980  140.4870 F   0  0  0  0  0  0  0  0  0  0  0  0
  181.7540  176.8840  139.4960 C   0  0  0  0  0  2  0  0  0  0  0  0
  184.5290  174.1390  137.5580 C   0  0  0  0  0  2  0  0  0  0  0  0
  186.7810  175.5480  136.0210 C   0  0  1  0  0  3  0  0  0  0  0  0
  189.6130  173.6190  137.4380 O   0  0  0  0  0  1  0  0  0  0  0  0
  188.3120  171.8930  136.1100 O   0  0  0  0  0  1  0  0  0  0  0  0
  188.6750  173.5520  136.2400 S   0  0  0  0  0  3  0  0  0  0  0  0
  187.8820  176.6180  136.0910 C   0  0  2  0  0  3  0  0  0  0  0  0
  186.4920  178.7730  136.7880 C   0  0  0  0  0  1  0  0  0  0  0  0
  188.8240  178.3630  137.6880 C   0  0  0  0  0  2  0  0  0  0  0  0
  187.5800  177.7470  137.0880 C   0  0  2  0  0  0  0  0  0  0  0  0
  187.9400  177.4660  138.5430 C   0  0  2  0  0  3  0  0  0  0  0  0
  187.1810  178.2530  139.4120 O   0  0  0  0  0  1  0  0  0  0  0  0
  188.1890  177.1510  134.6970 C   0  0  0  0  0  2  0  0  0  0  0  0
  190.1840  176.4470  135.0470 O   0  0  0  0  0  1  0  0  0  0  0  0
  189.5360  177.5020  134.6020 O   0  0  0  0  0  0  0  0  0  0  0  0
  1  7  1  0  0  0  0
  2 14  1  0  0  0  0
  3  8  1  0  0  0  0
  4 15  1  6  0  0  0
  4  6  1  0  0  0  0
  5 14  1  0  0  0  0
  5 13  1  0  0  0  0
  6  2  2  0  0  0  0
  7 11  1  0  0  0  0
  8  5  2  0  0  0  0
  9 19  1  6  0  0  0
 10  1  1  6  0  0  0
 10  4  1  0  0  0  0
 11  3  2  0  0  0  0
 11  6  1  0  0  0  0
 12  9  1  0  0  0  0
 12 15  1  0  0  0  0
 16 20  1  1  0  0  0
 16 10  1  0  0  0  0
 16  9  1  0  0  0  0
 18 19  1  0  0  0  0
 19 17  1  0  0  0  0
 20 26  1  6  0  0  0
 20 23  1  0  0  0  0
 22 24  1  0  0  0  0
 23 21  1  6  0  0  0
 23 22  1  0  0  0  0
 23 24  1  0  0  0  0
 24 25  1  1  0  0  0
 28 26  1  0  0  0  0
 28 27  1  0  0  0  0
M  END
>  <MODEL>
7

>  <REMARK>
 VINA RESULT:      -4.9      4.776      7.023
  Name = 
  5 active torsions:
  status: ('A' for Active; 'I' for Inactive)
    1  A    between atoms: C_1  and  C_7
    2  A    between atoms: C_1  and  C_26
    3  A    between atoms: C_1  and  C_27
    4  A    between atoms: O_11  and  C_26
    5  A    between atoms: C_16  and  S_21
                            x       y       z     vdW  Elec       q    Type
                         _______ _______ _______ _____ _____    ______ ____

>  <TORSDO>
F 5

$$$$
=
 OpenBabel10262420493D

 28 31  0  0  1  0  0  0  0  0999 V2000
  187.8070  175.6970  135.2590 C   0  0  0  0  0  2  0  0  0  0  0  0
  186.1600  172.0730  136.4970 C   0  0  0  0  0  3  0  0  0  0  0  0
  184.3420  174.4530  135.8270 C   0  0  0  0  0  3  0  0  0  0  0  0
  187.9660  173.7030  136.5970 C   0  0  2  0  0  3  0  0  0  0  0  0
  183.7130  172.2200  136.7550 C   0  0  0  0  0  0  0  0  0  0  0  0
  186.5410  173.3360  136.2810 C   0  0  0  0  0  0  0  0  0  0  0  0
  186.3080  175.5600  134.9710 C   0  0  0  0  0  2  0  0  0  0  0  0
  183.4720  173.5150  136.5640 C   0  0  0  0  0  3  0  0  0  0  0  0
  190.5200  174.5830  137.1110 C   0  0  2  0  0  3  0  0  0  0  0  0
  188.1130  175.1700  136.5880 N   0  0  1  0  0  0  0  0  0  0  0  0
  185.6700  174.3750  135.6510 C   0  0  0  0  0  0  0  0  0  0  0  0
  190.6050  173.6850  135.5330 S   0  0  0  0  0  0  0  0  0  0  0  0
  182.8280  171.4880  137.4730 F   0  0  0  0  0  0  0  0  0  0  0  0
  184.8400  171.5180  136.0800 C   0  0  0  0  0  2  0  0  0  0  0  0
  188.9140  172.9930  135.6120 C   0  0  0  0  0  2  0  0  0  0  0  0
  189.4270  175.6620  137.0380 C   0  0  1  0  0  3  0  0  0  0  0  0
  193.0650  174.1290  137.6060 O   0  0  0  0  0  1  0  0  0  0  0  0
  192.6060  176.0490  136.0140 O   0  0  0  0  0  1  0  0  0  0  0  0
  192.1310  175.3240  137.4800 S   0  0  0  0  0  3  0  0  0  0  0  0
  189.2940  176.4350  138.3600 C   0  0  2  0  0  3  0  0  0  0  0  0
  189.0560  178.8220  137.2170 C   0  0  0  0  0  1  0  0  0  0  0  0
  188.1490  178.3790  139.5400 C   0  0  0  0  0  2  0  0  0  0  0  0
  188.5640  177.7790  138.2150 C   0  0  2  0  0  0  0  0  0  0  0  0
  187.0940  177.7860  138.6170 C   0  0  2  0  0  3  0  0  0  0  0  0
  186.4010  178.8180  137.9790 O   0  0  0  0  0  1  0  0  0  0  0  0
  190.6590  176.5910  139.0190 C   0  0  0  0  0  2  0  0  0  0  0  0
  191.2740  177.3410  140.9320 O   0  0  0  0  0  1  0  0  0  0  0  0
  190.5570  176.3780  140.3940 O   0  0  0  0  0  0  0  0  0  0  0  0
  3  8  1  0  0  0  0
  4 15  1  6  0  0  0
  5 13  1  0  0  0  0
  6  2  2  0  0  0  0
  6  4  1  0  0  0  0
  7  1  1  0  0  0  0
  7 11  1  0  0  0  0
  8  5  2  0  0  0  0
  9 19  1  6  0  0  0
 10  1  1  6  0  0  0
 10  4  1  0  0  0  0
 10 16  1  0  0  0  0
 11  3  2  0  0  0  0
 11  6  1  0  0  0  0
 12 15  1  0  0  0  0
 12  9  1  0  0  0  0
 14  2  1  0  0  0  0
 14  5  1  0  0  0  0
 16  9  1  0  0  0  0
 16 20  1  1  0  0  0
 18 19  1  0  0  0  0
 19 17  1  0  0  0  0
 20 26  1  6  0  0  0
 23 21  1  6  0  0  0
 23 20  1  0  0  0  0
 23 24  1  0  0  0  0
 23 22  1  0  0  0  0
 24 25  1  6  0  0  0
 24 22  1  0  0  0  0
 26 28  1  0  0  0  0
 28 27  1  0  0  0  0
M  END
>  <MODEL>
8

>  <REMARK>
 VINA RESULT:      -4.7      6.063      9.229
  Name = 
  5 active torsions:
  status: ('A' for Active; 'I' for Inactive)
    1  A    between atoms: C_1  and  C_7
    2  A    between atoms: C_1  and  C_26
    3  A    between atoms: C_1  and  C_27
    4  A    between atoms: O_11  and  C_26
    5  A    between atoms: C_16  and  S_21
                            x       y       z     vdW  Elec       q    Type
                         _______ _______ _______ _____ _____    ______ ____

>  <TORSDO>
F 5

$$$$
=
 OpenBabel10262420493D

 28 31  0  0  1  0  0  0  0  0999 V2000
  185.5270  179.7120  141.7030 C   0  0  0  0  0  2  0  0  0  0  0  0
  187.3450  176.7870  144.0510 C   0  0  0  0  0  3  0  0  0  0  0  0
  188.7540  177.8580  141.5440 C   0  0  0  0  0  3  0  0  0  0  0  0
  185.3240  177.7860  143.1310 C   0  0  2  0  0  3  0  0  0  0  0  0
  189.4640  176.0060  143.0630 C   0  0  0  0  0  0  0  0  0  0  0  0
  186.8120  177.5670  143.1050 C   0  0  0  0  0  0  0  0  0  0  0  0
  187.0270  179.5390  141.4380 C   0  0  0  0  0  2  0  0  0  0  0  0
  189.4850  176.6210  141.8830 C   0  0  0  0  0  3  0  0  0  0  0  0
  182.6280  178.3120  142.9940 C   0  0  2  0  0  3  0  0  0  0  0  0
  184.8920  178.4040  141.8640 N   0  0  1  0  0  0  0  0  0  0  0  0
  187.6170  178.3140  142.0900 C   0  0  0  0  0  0  0  0  0  0  0  0
  183.2830  179.3800  144.3120 S   0  0  0  0  0  0  0  0  0  0  0  0
  190.1740  174.8620  143.2190 F   0  0  0  0  0  0  0  0  0  0  0  0
  188.8110  176.6100  144.2580 C   0  0  0  0  0  2  0  0  0  0  0  0
  184.9450  178.6170  144.3710 C   0  0  0  0  0  2  0  0  0  0  0  0
  183.4330  178.5260  141.7020 C   0  0  1  0  0  3  0  0  0  0  0  0
  180.1940  178.1450  143.9810 O   0  0  0  0  0  1  0  0  0  0  0  0
  180.7650  180.3670  142.9010 O   0  0  0  0  0  1  0  0  0  0  0  0
  180.8740  178.6770  142.7280 S   0  0  0  0  0  3  0  0  0  0  0  0
  182.9360  177.6240  140.5600 C   0  0  2  0  0  3  0  0  0  0  0  0
  183.0250  179.4770  138.6570 C   0  0  0  0  0  1  0  0  0  0  0  0
  183.2630  177.0160  138.1100 C   0  0  0  0  0  2  0  0  0  0  0  0
  183.3920  178.0880  139.1690 C   0  0  2  0  0  0  0  0  0  0  0  0
  184.6420  177.4120  138.6170 C   0  0  2  0  0  3  0  0  0  0  0  0
  185.2750  178.2170  137.6660 O   0  0  0  0  0  1  0  0  0  0  0  0
  181.4240  177.4550  140.6420 C   0  0  0  0  0  2  0  0  0  0  0  0
  180.1170  176.3900  139.3170 O   0  0  0  0  0  1  0  0  0  0  0  0
  181.0590  176.1800  140.2110 O   0  0  0  0  0  0  0  0  0  0  0  0
  2 14  1  0  0  0  0
  3  8  1  0  0  0  0
  3 11  2  0  0  0  0
  4 15  1  1  0  0  0
  5 13  1  0  0  0  0
  5 14  1  0  0  0  0
  6  4  1  0  0  0  0
  6  2  2  0  0  0  0
  7  1  1  0  0  0  0
  7 11  1  0  0  0  0
  8  5  2  0  0  0  0
  9 19  1  6  0  0  0
  9 12  1  0  0  0  0
 10  1  1  1  0  0  0
 10  4  1  0  0  0  0
 11  6  1  0  0  0  0
 12 15  1  0  0  0  0
 16 20  1  6  0  0  0
 16 10  1  0  0  0  0
 16  9  1  0  0  0  0
 19 18  1  0  0  0  0
 19 17  1  0  0  0  0
 20 26  1  6  0  0  0
 22 24  1  0  0  0  0
 22 23  1  0  0  0  0
 23 21  1  6  0  0  0
 23 20  1  0  0  0  0
 24 25  1  6  0  0  0
 24 23  1  0  0  0  0
 27 28  1  0  0  0  0
 28 26  1  0  0  0  0
M  END
>  <MODEL>
9

>  <REMARK>
 VINA RESULT:      -4.7      3.273      4.565
  Name = 
  5 active torsions:
  status: ('A' for Active; 'I' for Inactive)
    1  A    between atoms: C_1  and  C_7
    2  A    between atoms: C_1  and  C_26
    3  A    between atoms: C_1  and  C_27
    4  A    between atoms: O_11  and  C_26
    5  A    between atoms: C_16  and  S_21
                            x       y       z     vdW  Elec       q    Type
                         _______ _______ _______ _____ _____    ______ ____

>  <TORSDO>
F 5

$$$$
