=
 OpenBabel10262421113D

 32 37  0  0  1  0  0  0  0  0999 V2000
  187.2230  178.1400  140.9690 C   0  0  1  0  0  3  0  0  0  0  0  0
  188.2610  177.8110  138.6320 C   0  0  2  0  0  3  0  0  0  0  0  0
  186.3330  179.1590  141.6880 C   0  0  0  0  0  2  0  0  0  0  0  0
  187.1540  178.4600  139.4830 C   0  0  1  0  0  3  0  0  0  0  0  0
  187.7850  176.5120  137.9800 C   0  0  2  0  0  3  0  0  0  0  0  0
  192.9520  176.1530  138.1520 C   0  0  0  0  0  2  0  0  0  0  0  0
  189.5830  177.6570  139.4140 C   0  0  1  0  0  3  0  0  0  0  0  0
  191.2980  175.2150  136.9420 C   0  0  0  0  0  2  0  0  0  0  0  0
  190.2350  175.9780  137.6860 C   0  0  0  0  0  0  0  0  0  0  0  0
  185.7440  178.0810  139.0460 C   0  0  2  0  0  3  0  0  0  0  0  0
  188.8790  175.9090  137.2290 N   0  0  0  0  0  2  0  0  0  0  0  0
  185.6520  177.9260  137.5330 C   0  0  0  0  0  2  0  0  0  0  0  0
  184.7750  179.0880  139.6520 C   0  0  0  0  0  2  0  0  0  0  0  0
  189.3690  177.1300  140.7010 O   0  0  0  0  0  0  0  0  0  0  0  0
  188.6800  178.1150  141.4340 C   0  0  2  0  0  3  0  0  0  0  0  0
  190.5980  176.8260  138.6710 C   0  0  0  0  0  0  0  0  0  0  0  0
  186.5780  176.7830  137.0530 C   0  0  2  0  0  3  0  0  0  0  0  0
  184.8800  179.0330  141.1900 C   0  0  0  0  0  2  0  0  0  0  0  0
  192.3870  174.9200  137.7840 O   0  0  0  0  0  0  0  0  0  0  0  0
  192.0280  176.8690  139.1420 C   0  0  0  0  0  2  0  0  0  0  0  0
  190.1460  177.3660  144.8630 C   0  0  0  0  0  0  0  0  0  0  0  0
  191.4740  177.1710  145.5060 C   0  0  0  0  0  1  0  0  0  0  0  0
  188.7870  177.8170  142.9000 C   0  0  0  0  0  0  0  0  0  0  0  0
  188.9890  177.2750  145.6430 C   0  0  0  0  0  3  0  0  0  0  0  0
  187.6320  177.7260  143.6900 C   0  0  0  0  0  3  0  0  0  0  0  0
  190.0480  177.6390  143.4910 C   0  0  0  0  0  0  0  0  0  0  0  0
  191.1720  177.7290  142.7340 F   0  0  0  0  0  0  0  0  0  0  0  0
  187.7330  177.4590  145.0590 C   0  0  0  0  0  0  0  0  0  0  0  0
  185.5060  178.4200  145.4990 C   0  0  0  0  0  1  0  0  0  0  0  0
  186.5010  177.3440  145.8890 C   0  0  0  0  0  2  0  0  0  0  0  0
  185.7840  175.5050  136.8080 C   0  0  0  0  0  2  0  0  0  0  0  0
  185.9640  175.0520  135.4990 O   0  0  0  0  0  1  0  0  0  0  0  0
  1 15  1  0  0  0  0
  1  3  1  1  0  0  0
  2  7  1  0  0  0  0
  2  4  1  0  0  0  0
  4  1  1  0  0  0  0
  5  2  1  0  0  0  0
  6 20  1  0  0  0  0
  7 14  1  0  0  0  0
  8  9  1  0  0  0  0
  8 19  1  0  0  0  0
  9 16  2  0  0  0  0
 10  4  1  0  0  0  0
 10 13  1  0  0  0  0
 11  9  1  0  0  0  0
 11  5  1  0  0  0  0
 12 10  1  0  0  0  0
 13 18  1  0  0  0  0
 14 15  1  0  0  0  0
 15 23  1  0  0  0  0
 16 20  1  0  0  0  0
 16  7  1  0  0  0  0
 17 12  1  0  0  0  0
 17  5  1  0  0  0  0
 18  3  1  0  0  0  0
 19  6  1  0  0  0  0
 21 22  1  0  0  0  0
 21 24  1  0  0  0  0
 23 26  1  0  0  0  0
 23 25  2  0  0  0  0
 25 28  1  0  0  0  0
 26 21  2  0  0  0  0
 27 26  1  0  0  0  0
 28 24  2  0  0  0  0
 28 30  1  0  0  0  0
 29 30  1  0  0  0  0
 31 17  1  0  0  0  0
 32 31  1  0  0  0  0
M  END
>  <MODEL>
1

>  <REMARK>
 VINA RESULT:      -9.4      0.000      0.000
  Name = 
  3 active torsions:
  status: ('A' for Active; 'I' for Inactive)
    1  A    between atoms: C_13  and  C_29
    2  A    between atoms: C_15  and  C_26
    3  A    between atoms: C_16  and  C_27
                            x       y       z     vdW  Elec       q    Type
                         _______ _______ _______ _____ _____    ______ ____

>  <TORSDO>
F 3

$$$$
=
 OpenBabel10262421113D

 32 37  0  0  1  0  0  0  0  0999 V2000
  184.9730  178.5140  142.3340 C   0  0  1  0  0  3  0  0  0  0  0  0
  183.9950  178.7020  139.9570 C   0  0  2  0  0  3  0  0  0  0  0  0
  184.8550  179.2430  143.6770 C   0  0  0  0  0  2  0  0  0  0  0  0
  183.8350  179.0130  141.4560 C   0  0  1  0  0  3  0  0  0  0  0  0
  183.2340  177.4370  139.5570 C   0  0  2  0  0  3  0  0  0  0  0  0
  186.9120  178.0270  135.9550 C   0  0  0  0  0  2  0  0  0  0  0  0
  185.4740  178.6930  139.5170 C   0  0  1  0  0  3  0  0  0  0  0  0
  184.9270  176.9690  136.0900 C   0  0  0  0  0  2  0  0  0  0  0  0
  184.7150  177.4130  137.5130 C   0  0  0  0  0  0  0  0  0  0  0  0
  182.5620  178.4400  142.0680 C   0  0  2  0  0  3  0  0  0  0  0  0
  183.4560  177.1550  138.1440 N   0  0  0  0  0  2  0  0  0  0  0  0
  181.4030  178.4760  141.0800 C   0  0  0  0  0  2  0  0  0  0  0  0
  182.3070  179.1580  143.3870 C   0  0  0  0  0  2  0  0  0  0  0  0
  186.2800  177.9670  140.4130 O   0  0  0  0  0  0  0  0  0  0  0  0
  186.3110  178.6980  141.6160 C   0  0  2  0  0  3  0  0  0  0  0  0
  185.6550  178.1740  138.1140 C   0  0  0  0  0  0  0  0  0  0  0  0
  181.7240  177.6010  139.8440 C   0  0  2  0  0  3  0  0  0  0  0  0
  183.5000  178.9170  144.3350 C   0  0  0  0  0  2  0  0  0  0  0  0
  186.2950  176.7710  135.8230 O   0  0  0  0  0  0  0  0  0  0  0  0
  186.9770  178.4180  137.4340 C   0  0  0  0  0  2  0  0  0  0  0  0
  189.8220  177.7130  142.6980 C   0  0  0  0  0  0  0  0  0  0  0  0
  191.1930  177.6120  142.1300 C   0  0  0  0  0  1  0  0  0  0  0  0
  187.4600  178.2310  142.4600 C   0  0  0  0  0  0  0  0  0  0  0  0
  189.6110  177.3720  144.0380 C   0  0  0  0  0  3  0  0  0  0  0  0
  187.2580  177.8890  143.8040 C   0  0  0  0  0  3  0  0  0  0  0  0
  188.7470  178.1450  141.9070 C   0  0  0  0  0  0  0  0  0  0  0  0
  188.9530  178.4780  140.6060 F   0  0  0  0  0  0  0  0  0  0  0  0
  188.3310  177.4640  144.5930 C   0  0  0  0  0  0  0  0  0  0  0  0
  186.8610  177.7660  146.5490 C   0  0  0  0  0  1  0  0  0  0  0  0
  188.1060  177.0830  146.0150 C   0  0  0  0  0  2  0  0  0  0  0  0
  181.0400  176.2420  139.9470 C   0  0  0  0  0  2  0  0  0  0  0  0
  179.8710  176.3300  140.7060 O   0  0  0  0  0  1  0  0  0  0  0  0
  1  3  1  1  0  0  0
  2  4  1  0  0  0  0
  3 18  1  0  0  0  0
  4 10  1  0  0  0  0
  4  1  1  0  0  0  0
  5 17  1  0  0  0  0
  5  2  1  0  0  0  0
  6 20  1  0  0  0  0
  7  2  1  0  0  0  0
  7 14  1  0  0  0  0
  8  9  1  0  0  0  0
  9 16  2  0  0  0  0
  9 11  1  0  0  0  0
 10 13  1  0  0  0  0
 11  5  1  0  0  0  0
 12 10  1  0  0  0  0
 13 18  1  0  0  0  0
 14 15  1  0  0  0  0
 15  1  1  0  0  0  0
 15 23  1  0  0  0  0
 16  7  1  0  0  0  0
 17 31  1  0  0  0  0
 17 12  1  0  0  0  0
 19  6  1  0  0  0  0
 19  8  1  0  0  0  0
 20 16  1  0  0  0  0
 21 24  1  0  0  0  0
 22 21  1  0  0  0  0
 23 25  2  0  0  0  0
 24 28  2  0  0  0  0
 25 28  1  0  0  0  0
 26 23  1  0  0  0  0
 26 21  2  0  0  0  0
 27 26  1  0  0  0  0
 28 30  1  0  0  0  0
 30 29  1  0  0  0  0
 31 32  1  0  0  0  0
M  END
>  <MODEL>
2

>  <REMARK>
 VINA RESULT:      -9.0      2.692      4.397
  Name = 
  3 active torsions:
  status: ('A' for Active; 'I' for Inactive)
    1  A    between atoms: C_13  and  C_29
    2  A    between atoms: C_15  and  C_26
    3  A    between atoms: C_16  and  C_27
                            x       y       z     vdW  Elec       q    Type
                         _______ _______ _______ _____ _____    ______ ____

>  <TORSDO>
F 3

$$$$
=
 OpenBabel10262421113D

 32 37  0  0  1  0  0  0  0  0999 V2000
  181.5000  179.5860  140.4060 C   0  0  1  0  0  3  0  0  0  0  0  0
  183.5770  178.2400  141.1280 C   0  0  2  0  0  3  0  0  0  0  0  0
  179.9760  179.4540  140.4760 C   0  0  0  0  0  2  0  0  0  0  0  0
  182.0810  178.5330  141.3390 C   0  0  1  0  0  3  0  0  0  0  0  0
  184.4520  179.0290  142.1020 C   0  0  2  0  0  3  0  0  0  0  0  0
  187.5400  177.8770  138.1040 C   0  0  0  0  0  2  0  0  0  0  0  0
  184.0010  178.4020  139.6530 C   0  0  1  0  0  3  0  0  0  0  0  0
  187.8260  178.4240  140.2710 C   0  0  0  0  0  2  0  0  0  0  0  0
  186.3440  178.5580  140.4990 C   0  0  0  0  0  0  0  0  0  0  0  0
  181.7420  179.0030  142.7500 C   0  0  2  0  0  3  0  0  0  0  0  0
  185.8580  178.7580  141.8310 N   0  0  0  0  0  2  0  0  0  0  0  0
  182.6130  178.3120  143.7910 C   0  0  0  0  0  2  0  0  0  0  0  0
  180.2410  178.8410  142.9530 C   0  0  0  0  0  2  0  0  0  0  0  0
  183.4940  179.5890  139.0920 O   0  0  0  0  0  0  0  0  0  0  0  0
  182.0970  179.4320  139.0050 C   0  0  2  0  0  3  0  0  0  0  0  0
  185.4960  178.3360  139.4720 C   0  0  0  0  0  0  0  0  0  0  0  0
  184.1030  178.6610  143.5630 C   0  0  2  0  0  3  0  0  0  0  0  0
  179.4920  179.7060  141.9180 C   0  0  0  0  0  2  0  0  0  0  0  0
  188.1690  178.7990  138.9580 O   0  0  0  0  0  0  0  0  0  0  0  0
  186.0320  178.1420  138.0780 C   0  0  0  0  0  2  0  0  0  0  0  0
  180.2760  180.9730  136.0430 C   0  0  0  0  0  0  0  0  0  0  0  0
  179.5010  180.5450  134.8460 C   0  0  0  0  0  1  0  0  0  0  0  0
  181.5350  180.4460  138.0520 C   0  0  0  0  0  0  0  0  0  0  0  0
  180.4730  182.3370  136.2770 C   0  0  0  0  0  3  0  0  0  0  0  0
  181.7270  181.8160  138.2810 C   0  0  0  0  0  3  0  0  0  0  0  0
  180.8050  180.0240  136.9300 C   0  0  0  0  0  0  0  0  0  0  0  0
  180.6110  178.6990  136.7030 F   0  0  0  0  0  0  0  0  0  0  0  0
  181.1940  182.7590  137.3980 C   0  0  0  0  0  0  0  0  0  0  0  0
  181.1040  185.0030  136.3790 C   0  0  0  0  0  1  0  0  0  0  0  0
  181.4180  184.2130  137.6360 C   0  0  0  0  0  2  0  0  0  0  0  0
  184.5590  179.7540  144.5220 C   0  0  0  0  0  2  0  0  0  0  0  0
  184.5160  179.3040  145.8440 O   0  0  0  0  0  1  0  0  0  0  0  0
  1  3  1  6  0  0  0
  1  4  1  0  0  0  0
  2  4  1  0  0  0  0
  2  5  1  0  0  0  0
  3 18  1  0  0  0  0
  4 10  1  0  0  0  0
  5 17  1  0  0  0  0
  6 19  1  0  0  0  0
  7  2  1  0  0  0  0
  8  9  1  0  0  0  0
  9 11  1  0  0  0  0
 10 13  1  0  0  0  0
 10 12  1  0  0  0  0
 11  5  1  0  0  0  0
 14  7  1  0  0  0  0
 15 14  1  0  0  0  0
 15  1  1  0  0  0  0
 16  7  1  0  0  0  0
 16  9  2  0  0  0  0
 17 12  1  0  0  0  0
 17 31  1  0  0  0  0
 18 13  1  0  0  0  0
 19  8  1  0  0  0  0
 20  6  1  0  0  0  0
 20 16  1  0  0  0  0
 21 24  2  0  0  0  0
 21 26  1  0  0  0  0
 22 21  1  0  0  0  0
 23 25  1  0  0  0  0
 23 15  1  0  0  0  0
 24 28  1  0  0  0  0
 26 23  2  0  0  0  0
 27 26  1  0  0  0  0
 28 30  1  0  0  0  0
 28 25  2  0  0  0  0
 29 30  1  0  0  0  0
 31 32  1  0  0  0  0
M  END
>  <MODEL>
3

>  <REMARK>
 VINA RESULT:      -8.7      4.856      8.724
  Name = 
  3 active torsions:
  status: ('A' for Active; 'I' for Inactive)
    1  A    between atoms: C_13  and  C_29
    2  A    between atoms: C_15  and  C_26
    3  A    between atoms: C_16  and  C_27
                            x       y       z     vdW  Elec       q    Type
                         _______ _______ _______ _____ _____    ______ ____

>  <TORSDO>
F 3

$$$$
=
 OpenBabel10262421113D

 32 37  0  0  1  0  0  0  0  0999 V2000
  185.5800  178.3360  143.0100 C   0  0  1  0  0  3  0  0  0  0  0  0
  185.2410  178.7990  140.4970 C   0  0  2  0  0  3  0  0  0  0  0  0
  185.1550  178.9460  144.3490 C   0  0  0  0  0  2  0  0  0  0  0  0
  184.7200  178.9810  141.9330 C   0  0  1  0  0  3  0  0  0  0  0  0
  184.5610  177.6250  139.7920 C   0  0  2  0  0  3  0  0  0  0  0  0
  189.0480  178.3150  137.2930 C   0  0  0  0  0  2  0  0  0  0  0  0
  186.7830  178.7400  140.4380 C   0  0  1  0  0  3  0  0  0  0  0  0
  187.0550  177.3720  136.8230 C   0  0  0  0  0  2  0  0  0  0  0  0
  186.5080  177.6960  138.1870 C   0  0  0  0  0  0  0  0  0  0  0  0
  183.3140  178.4340  142.1490 C   0  0  2  0  0  3  0  0  0  0  0  0
  185.1220  177.4600  138.4570 N   0  0  0  0  0  2  0  0  0  0  0  0
  182.4440  178.6300  140.9140 C   0  0  0  0  0  2  0  0  0  0  0  0
  182.7610  179.0430  143.4310 C   0  0  0  0  0  2  0  0  0  0  0  0
  187.3090  177.8870  141.4260 O   0  0  0  0  0  0  0  0  0  0  0  0
  187.0630  178.5030  142.6680 C   0  0  2  0  0  3  0  0  0  0  0  0
  187.2930  178.3410  139.0780 C   0  0  0  0  0  0  0  0  0  0  0  0
  183.0340  177.8530  139.7120 C   0  0  2  0  0  3  0  0  0  0  0  0
  183.6660  178.6440  144.6140 C   0  0  0  0  0  2  0  0  0  0  0  0
  188.4390  177.1160  136.8840 O   0  0  0  0  0  0  0  0  0  0  0  0
  188.7510  178.5640  138.7750 C   0  0  0  0  0  2  0  0  0  0  0  0
  190.0100  176.7750  144.3410 C   0  0  0  0  0  0  0  0  0  0  0  0
  191.3280  176.1860  143.9800 C   0  0  0  0  0  1  0  0  0  0  0  0
  187.9430  177.8910  143.7170 C   0  0  0  0  0  0  0  0  0  0  0  0
  189.5970  176.7600  145.6760 C   0  0  0  0  0  3  0  0  0  0  0  0
  187.5390  177.8730  145.0590 C   0  0  0  0  0  3  0  0  0  0  0  0
  189.1850  177.3420  143.3580 C   0  0  0  0  0  0  0  0  0  0  0  0
  189.5860  177.3590  142.0600 F   0  0  0  0  0  0  0  0  0  0  0  0
  188.3650  177.3130  146.0370 C   0  0  0  0  0  0  0  0  0  0  0  0
  188.8660  178.0960  148.3210 C   0  0  0  0  0  1  0  0  0  0  0  0
  187.9210  177.2800  147.4590 C   0  0  0  0  0  2  0  0  0  0  0  0
  182.2980  176.5360  139.5020 C   0  0  0  0  0  2  0  0  0  0  0  0
  181.8160  176.4390  138.1950 O   0  0  0  0  0  1  0  0  0  0  0  0
  1  3  1  1  0  0  0
  2  4  1  0  0  0  0
  3 18  1  0  0  0  0
  4 10  1  0  0  0  0
  4  1  1  0  0  0  0
  5  2  1  0  0  0  0
  6 20  1  0  0  0  0
  7  2  1  0  0  0  0
  7 14  1  0  0  0  0
  8 19  1  0  0  0  0
  8  9  1  0  0  0  0
  9 11  1  0  0  0  0
  9 16  2  0  0  0  0
 10 13  1  0  0  0  0
 11  5  1  0  0  0  0
 12 10  1  0  0  0  0
 13 18  1  0  0  0  0
 14 15  1  0  0  0  0
 15  1  1  0  0  0  0
 15 23  1  0  0  0  0
 16  7  1  0  0  0  0
 17  5  1  0  0  0  0
 17 12  1  0  0  0  0
 19  6  1  0  0  0  0
 20 16  1  0  0  0  0
 21 24  1  0  0  0  0
 22 21  1  0  0  0  0
 23 25  2  0  0  0  0
 24 28  2  0  0  0  0
 25 28  1  0  0  0  0
 26 23  1  0  0  0  0
 26 21  2  0  0  0  0
 27 26  1  0  0  0  0
 28 30  1  0  0  0  0
 30 29  1  0  0  0  0
 31 17  1  0  0  0  0
 32 31  1  0  0  0  0
M  END
>  <MODEL>
4

>  <REMARK>
 VINA RESULT:      -8.6      2.203      3.432
  Name = 
  3 active torsions:
  status: ('A' for Active; 'I' for Inactive)
    1  A    between atoms: C_13  and  C_29
    2  A    between atoms: C_15  and  C_26
    3  A    between atoms: C_16  and  C_27
                            x       y       z     vdW  Elec       q    Type
                         _______ _______ _______ _____ _____    ______ ____

>  <TORSDO>
F 3

$$$$
=
 OpenBabel10262421113D

 32 37  0  0  1  0  0  0  0  0999 V2000
  185.2260  178.1220  139.9660 C   0  0  1  0  0  3  0  0  0  0  0  0
  186.8090  178.7380  141.9050 C   0  0  2  0  0  3  0  0  0  0  0  0
  184.9180  178.6100  138.5470 C   0  0  0  0  0  2  0  0  0  0  0  0
  186.5260  178.7890  140.3930 C   0  0  1  0  0  3  0  0  0  0  0  0
  187.7350  177.5780  142.2700 C   0  0  2  0  0  3  0  0  0  0  0  0
  185.1660  178.7090  146.6250 C   0  0  0  0  0  2  0  0  0  0  0  0
  185.5130  178.7770  142.7430 C   0  0  1  0  0  3  0  0  0  0  0  0
  187.1040  177.6830  146.1030 C   0  0  0  0  0  2  0  0  0  0  0  0
  186.8830  177.8780  144.6270 C   0  0  0  0  0  0  0  0  0  0  0  0
  187.6160  178.1440  139.5440 C   0  0  2  0  0  3  0  0  0  0  0  0
  187.9330  177.5400  143.7130 N   0  0  0  0  0  2  0  0  0  0  0  0
  188.9980  178.3730  140.1430 C   0  0  0  0  0  2  0  0  0  0  0  0
  187.4460  178.6280  138.1100 C   0  0  0  0  0  2  0  0  0  0  0  0
  184.5420  177.8900  142.2410 O   0  0  0  0  0  0  0  0  0  0  0  0
  184.1300  178.4010  140.9960 C   0  0  2  0  0  3  0  0  0  0  0  0
  185.7640  178.5040  144.2040 C   0  0  0  0  0  0  0  0  0  0  0  0
  189.0920  177.7190  141.5420 C   0  0  2  0  0  3  0  0  0  0  0  0
  186.0570  178.2020  137.5910 C   0  0  0  0  0  2  0  0  0  0  0  0
  185.8800  177.5070  146.7760 O   0  0  0  0  0  0  0  0  0  0  0  0
  184.6680  178.8360  145.1830 C   0  0  0  0  0  2  0  0  0  0  0  0
  180.4050  177.6640  140.7660 C   0  0  0  0  0  0  0  0  0  0  0  0
  179.1190  178.1550  141.3310 C   0  0  0  0  0  1  0  0  0  0  0  0
  182.8270  177.7720  140.6000 C   0  0  0  0  0  0  0  0  0  0  0  0
  180.3910  176.6070  139.8510 C   0  0  0  0  0  3  0  0  0  0  0  0
  182.8020  176.7120  139.6820 C   0  0  0  0  0  3  0  0  0  0  0  0
  181.6230  178.2500  141.1410 C   0  0  0  0  0  0  0  0  0  0  0  0
  181.6380  179.2780  142.0290 F   0  0  0  0  0  0  0  0  0  0  0  0
  181.5870  176.1330  139.3050 C   0  0  0  0  0  0  0  0  0  0  0  0
  182.9380  174.8230  137.7130 C   0  0  0  0  0  1  0  0  0  0  0  0
  181.5690  174.9960  138.3440 C   0  0  0  0  0  2  0  0  0  0  0  0
  189.8110  176.3780  141.4690 C   0  0  0  0  0  2  0  0  0  0  0  0
  190.5550  176.2770  140.2910 O   0  0  0  0  0  1  0  0  0  0  0  0
  1  3  1  6  0  0  0
  1  4  1  0  0  0  0
  1 15  1  0  0  0  0
  2  5  1  0  0  0  0
  2  7  1  0  0  0  0
  4  2  1  0  0  0  0
  5 11  1  0  0  0  0
  6 19  1  0  0  0  0
  7 16  1  0  0  0  0
  8 19  1  0  0  0  0
  9  8  1  0  0  0  0
 10 12  1  0  0  0  0
 10  4  1  0  0  0  0
 11  9  1  0  0  0  0
 12 17  1  0  0  0  0
 13 10  1  0  0  0  0
 14  7  1  0  0  0  0
 15 14  1  0  0  0  0
 16  9  2  0  0  0  0
 16 20  1  0  0  0  0
 17  5  1  0  0  0  0
 18 13  1  0  0  0  0
 18  3  1  0  0  0  0
 20  6  1  0  0  0  0
 21 26  1  0  0  0  0
 21 22  1  0  0  0  0
 23 15  1  0  0  0  0
 23 26  2  0  0  0  0
 24 21  2  0  0  0  0
 25 23  1  0  0  0  0
 26 27  1  0  0  0  0
 28 25  2  0  0  0  0
 28 24  1  0  0  0  0
 29 30  1  0  0  0  0
 30 28  1  0  0  0  0
 31 17  1  0  0  0  0
 32 31  1  0  0  0  0
M  END
>  <MODEL>
5

>  <REMARK>
 VINA RESULT:      -8.3      3.522      7.510
  Name = 
  3 active torsions:
  status: ('A' for Active; 'I' for Inactive)
    1  A    between atoms: C_13  and  C_29
    2  A    between atoms: C_15  and  C_26
    3  A    between atoms: C_16  and  C_27
                            x       y       z     vdW  Elec       q    Type
                         _______ _______ _______ _____ _____    ______ ____

>  <TORSDO>
F 3

$$$$
=
 OpenBabel10262421113D

 32 37  0  0  1  0  0  0  0  0999 V2000
  185.3910  178.2580  140.1830 C   0  0  1  0  0  3  0  0  0  0  0  0
  186.9650  177.8260  138.1870 C   0  0  2  0  0  3  0  0  0  0  0  0
  184.2600  179.2220  140.5550 C   0  0  0  0  0  2  0  0  0  0  0  0
  185.6320  178.4110  138.6880 C   0  0  1  0  0  3  0  0  0  0  0  0
  186.7890  176.4160  137.6230 C   0  0  2  0  0  3  0  0  0  0  0  0
  191.7870  176.7540  138.9480 C   0  0  0  0  0  2  0  0  0  0  0  0
  188.0820  177.9280  139.2480 C   0  0  1  0  0  3  0  0  0  0  0  0
  190.5620  175.4870  137.5430 C   0  0  0  0  0  2  0  0  0  0  0  0
  189.2830  176.1780  137.9350 C   0  0  0  0  0  0  0  0  0  0  0  0
  184.4060  177.8070  138.0110 C   0  0  2  0  0  3  0  0  0  0  0  0
  188.0820  175.8860  137.2100 N   0  0  0  0  0  2  0  0  0  0  0  0
  184.6800  177.4850  136.5470 C   0  0  0  0  0  2  0  0  0  0  0  0
  183.2250  178.7370  138.2580 C   0  0  0  0  0  2  0  0  0  0  0  0
  187.6350  177.5140  140.5170 O   0  0  0  0  0  0  0  0  0  0  0  0
  186.6980  178.4720  140.9500 C   0  0  2  0  0  3  0  0  0  0  0  0
  189.3200  177.1640  138.8560 C   0  0  0  0  0  0  0  0  0  0  0  0
  185.8050  176.4290  136.4310 C   0  0  2  0  0  3  0  0  0  0  0  0
  182.9810  178.8560  139.7760 C   0  0  0  0  0  2  0  0  0  0  0  0
  191.4530  175.4250  138.6310 O   0  0  0  0  0  0  0  0  0  0  0  0
  190.5920  177.4410  139.6140 C   0  0  0  0  0  2  0  0  0  0  0  0
  187.3540  177.7690  144.6300 C   0  0  0  0  0  0  0  0  0  0  0  0
  188.4500  177.2780  145.5090 C   0  0  0  0  0  1  0  0  0  0  0  0
  186.4960  178.3440  142.4310 C   0  0  0  0  0  0  0  0  0  0  0  0
  186.1260  178.1190  145.2000 C   0  0  0  0  0  3  0  0  0  0  0  0
  185.2680  178.6950  143.0110 C   0  0  0  0  0  3  0  0  0  0  0  0
  187.5420  177.8820  143.2450 C   0  0  0  0  0  0  0  0  0  0  0  0
  188.7360  177.5440  142.6910 F   0  0  0  0  0  0  0  0  0  0  0  0
  185.0850  178.5860  144.3930 C   0  0  0  0  0  0  0  0  0  0  0  0
  182.7260  179.1240  143.9170 C   0  0  0  0  0  1  0  0  0  0  0  0
  183.7730  178.9430  145.0010 C   0  0  0  0  0  2  0  0  0  0  0  0
  185.2250  175.0410  136.1900 C   0  0  0  0  0  2  0  0  0  0  0  0
  185.8460  174.4250  135.1010 O   0  0  0  0  0  1  0  0  0  0  0  0
  1  3  1  1  0  0  0
  1 15  1  0  0  0  0
  2  4  1  0  0  0  0
  2  7  1  0  0  0  0
  4  1  1  0  0  0  0
  5  2  1  0  0  0  0
  6 20  1  0  0  0  0
  7 14  1  0  0  0  0
  8  9  1  0  0  0  0
  8 19  1  0  0  0  0
  9 16  2  0  0  0  0
 10 13  1  0  0  0  0
 10  4  1  0  0  0  0
 11  5  1  0  0  0  0
 11  9  1  0  0  0  0
 12 10  1  0  0  0  0
 13 18  1  0  0  0  0
 14 15  1  0  0  0  0
 15 23  1  0  0  0  0
 16  7  1  0  0  0  0
 16 20  1  0  0  0  0
 17 12  1  0  0  0  0
 17  5  1  0  0  0  0
 18  3  1  0  0  0  0
 19  6  1  0  0  0  0
 21 24  1  0  0  0  0
 21 22  1  0  0  0  0
 23 25  2  0  0  0  0
 23 26  1  0  0  0  0
 25 28  1  0  0  0  0
 26 21  2  0  0  0  0
 27 26  1  0  0  0  0
 28 30  1  0  0  0  0
 28 24  2  0  0  0  0
 29 30  1  0  0  0  0
 31 17  1  0  0  0  0
 32 31  1  0  0  0  0
M  END
>  <MODEL>
6

>  <REMARK>
 VINA RESULT:      -8.2      1.325      2.061
  Name = 
  3 active torsions:
  status: ('A' for Active; 'I' for Inactive)
    1  A    between atoms: C_13  and  C_29
    2  A    between atoms: C_15  and  C_26
    3  A    between atoms: C_16  and  C_27
                            x       y       z     vdW  Elec       q    Type
                         _______ _______ _______ _____ _____    ______ ____

>  <TORSDO>
F 3

$$$$
=
 OpenBabel10262421113D

 32 37  0  0  1  0  0  0  0  0999 V2000
  187.2440  177.7860  144.0300 C   0  0  1  0  0  3  0  0  0  0  0  0
  189.5010  176.8860  143.1660 C   0  0  2  0  0  3  0  0  0  0  0  0
  186.2660  177.5010  145.1730 C   0  0  0  0  0  2  0  0  0  0  0  0
  188.5350  177.0470  144.3540 C   0  0  1  0  0  3  0  0  0  0  0  0
  190.5780  177.9710  143.1610 C   0  0  2  0  0  3  0  0  0  0  0  0
  190.2870  176.2990  138.2650 C   0  0  0  0  0  2  0  0  0  0  0  0
  188.7550  176.7550  141.8210 C   0  0  1  0  0  3  0  0  0  0  0  0
  191.8230  177.3550  139.5320 C   0  0  0  0  0  2  0  0  0  0  0  0
  190.9170  177.3670  140.7340 C   0  0  0  0  0  0  0  0  0  0  0  0
  189.1430  177.7840  145.5420 C   0  0  2  0  0  3  0  0  0  0  0  0
  191.4350  177.8090  141.9940 N   0  0  0  0  0  2  0  0  0  0  0  0
  190.6210  177.4530  145.7060 C   0  0  0  0  0  2  0  0  0  0  0  0
  188.2780  177.5030  146.7650 C   0  0  0  0  0  2  0  0  0  0  0  0
  187.7350  177.7170  141.6950 O   0  0  0  0  0  0  0  0  0  0  0  0
  186.7450  177.3870  142.6400 C   0  0  2  0  0  3  0  0  0  0  0  0
  189.6850  176.8220  140.6370 C   0  0  0  0  0  0  0  0  0  0  0  0
  191.4150  177.9090  144.4590 C   0  0  2  0  0  3  0  0  0  0  0  0
  186.8480  178.0170  146.5040 C   0  0  0  0  0  2  0  0  0  0  0  0
  191.0790  177.4580  138.3400 O   0  0  0  0  0  0  0  0  0  0  0  0
  189.1590  176.3780  139.2980 C   0  0  0  0  0  2  0  0  0  0  0  0
  184.0580  179.2140  140.6630 C   0  0  0  0  0  0  0  0  0  0  0  0
  183.8220  179.7330  139.2880 C   0  0  0  0  0  1  0  0  0  0  0  0
  185.4640  178.0850  142.2910 C   0  0  0  0  0  0  0  0  0  0  0  0
  183.0660  179.3780  141.6350 C   0  0  0  0  0  3  0  0  0  0  0  0
  184.4630  178.2530  143.2590 C   0  0  0  0  0  3  0  0  0  0  0  0
  185.2580  178.5660  140.9890 C   0  0  0  0  0  0  0  0  0  0  0  0
  186.2210  178.4040  140.0440 F   0  0  0  0  0  0  0  0  0  0  0  0
  183.2650  178.8940  142.9310 C   0  0  0  0  0  0  0  0  0  0  0  0
  180.8360  178.9700  143.3440 C   0  0  0  0  0  1  0  0  0  0  0  0
  182.2130  179.0860  143.9680 C   0  0  0  0  0  2  0  0  0  0  0  0
  192.1180  179.2360  144.7170 C   0  0  0  0  0  2  0  0  0  0  0  0
  191.3060  180.3090  144.3430 O   0  0  0  0  0  1  0  0  0  0  0  0
  1  4  1  0  0  0  0
  1  3  1  1  0  0  0
  2  4  1  0  0  0  0
  3 18  1  0  0  0  0
  4 10  1  0  0  0  0
  5  2  1  0  0  0  0
  5 17  1  0  0  0  0
  6 19  1  0  0  0  0
  6 20  1  0  0  0  0
  7  2  1  0  0  0  0
  8  9  1  0  0  0  0
  9 11  1  0  0  0  0
 10 12  1  0  0  0  0
 10 13  1  0  0  0  0
 11  5  1  0  0  0  0
 14  7  1  0  0  0  0
 14 15  1  0  0  0  0
 15  1  1  0  0  0  0
 16  9  2  0  0  0  0
 16  7  1  0  0  0  0
 17 31  1  0  0  0  0
 17 12  1  0  0  0  0
 18 13  1  0  0  0  0
 19  8  1  0  0  0  0
 20 16  1  0  0  0  0
 21 26  2  0  0  0  0
 21 24  1  0  0  0  0
 22 21  1  0  0  0  0
 23 15  1  0  0  0  0
 23 25  2  0  0  0  0
 24 28  2  0  0  0  0
 26 23  1  0  0  0  0
 27 26  1  0  0  0  0
 28 25  1  0  0  0  0
 28 30  1  0  0  0  0
 29 30  1  0  0  0  0
 32 31  1  0  0  0  0
M  END
>  <MODEL>
7

>  <REMARK>
 VINA RESULT:      -8.0      2.522      6.042
  Name = 
  3 active torsions:
  status: ('A' for Active; 'I' for Inactive)
    1  A    between atoms: C_13  and  C_29
    2  A    between atoms: C_15  and  C_26
    3  A    between atoms: C_16  and  C_27
                            x       y       z     vdW  Elec       q    Type
                         _______ _______ _______ _____ _____    ______ ____

>  <TORSDO>
F 3

$$$$
=
 OpenBabel10262421113D

 32 37  0  0  1  0  0  0  0  0999 V2000
  185.6160  178.3470  140.9760 C   0  0  1  0  0  3  0  0  0  0  0  0
  185.8380  178.2730  138.4080 C   0  0  2  0  0  3  0  0  0  0  0  0
  184.9430  179.2220  142.0380 C   0  0  0  0  0  2  0  0  0  0  0  0
  185.0320  178.7510  139.6300 C   0  0  1  0  0  3  0  0  0  0  0  0
  185.2720  176.9770  137.8290 C   0  0  2  0  0  3  0  0  0  0  0  0
  190.2110  177.1380  136.2720 C   0  0  0  0  0  2  0  0  0  0  0  0
  187.3520  178.2070  138.6980 C   0  0  1  0  0  3  0  0  0  0  0  0
  188.3250  176.1140  135.5860 C   0  0  0  0  0  2  0  0  0  0  0  0
  187.5160  176.7150  136.7030 C   0  0  0  0  0  0  0  0  0  0  0  0
  183.5900  178.2570  139.6430 C   0  0  2  0  0  3  0  0  0  0  0  0
  186.0950  176.5370  136.7100 N   0  0  0  0  0  2  0  0  0  0  0  0
  183.0110  178.1900  138.2360 C   0  0  0  0  0  2  0  0  0  0  0  0
  182.8050  179.1200  140.6240 C   0  0  0  0  0  2  0  0  0  0  0  0
  187.6200  177.5800  139.9290 O   0  0  0  0  0  0  0  0  0  0  0  0
  187.1430  178.4410  140.9350 C   0  0  2  0  0  3  0  0  0  0  0  0
  188.1210  177.5330  137.5910 C   0  0  0  0  0  0  0  0  0  0  0  0
  183.8080  177.1800  137.3760 C   0  0  2  0  0  3  0  0  0  0  0  0
  183.4210  178.9790  142.0310 C   0  0  0  0  0  2  0  0  0  0  0  0
  189.6520  175.8780  135.9950 O   0  0  0  0  0  0  0  0  0  0  0  0
  189.6190  177.6910  137.5710 C   0  0  0  0  0  2  0  0  0  0  0  0
  189.7210  177.6450  143.6170 C   0  0  0  0  0  0  0  0  0  0  0  0
  191.1980  177.5610  143.7750 C   0  0  0  0  0  1  0  0  0  0  0  0
  187.7540  178.0640  142.2520 C   0  0  0  0  0  0  0  0  0  0  0  0
  188.9000  177.3740  144.7150 C   0  0  0  0  0  3  0  0  0  0  0  0
  186.9390  177.7920  143.3600 C   0  0  0  0  0  3  0  0  0  0  0  0
  189.1500  177.9920  142.3830 C   0  0  0  0  0  0  0  0  0  0  0  0
  189.9480  178.2590  141.3160 F   0  0  0  0  0  0  0  0  0  0  0  0
  187.5100  177.4510  144.5900 C   0  0  0  0  0  0  0  0  0  0  0  0
  186.6770  178.2880  146.7540 C   0  0  0  0  0  1  0  0  0  0  0  0
  186.6380  177.1450  145.7580 C   0  0  0  0  0  2  0  0  0  0  0  0
  183.0770  175.8460  137.2850 C   0  0  0  0  0  2  0  0  0  0  0  0
  183.4360  175.0100  138.3440 O   0  0  0  0  0  1  0  0  0  0  0  0
  1  3  1  1  0  0  0
  2  7  1  0  0  0  0
  2  4  1  0  0  0  0
  4 10  1  0  0  0  0
  4  1  1  0  0  0  0
  5  2  1  0  0  0  0
  6 20  1  0  0  0  0
  7 14  1  0  0  0  0
  8 19  1  0  0  0  0
  8  9  1  0  0  0  0
  9 11  1  0  0  0  0
  9 16  2  0  0  0  0
 10 13  1  0  0  0  0
 11  5  1  0  0  0  0
 12 10  1  0  0  0  0
 13 18  1  0  0  0  0
 14 15  1  0  0  0  0
 15  1  1  0  0  0  0
 15 23  1  0  0  0  0
 16  7  1  0  0  0  0
 17  5  1  0  0  0  0
 17 12  1  0  0  0  0
 18  3  1  0  0  0  0
 19  6  1  0  0  0  0
 20 16  1  0  0  0  0
 21 22  1  0  0  0  0
 21 24  1  0  0  0  0
 23 26  1  0  0  0  0
 23 25  2  0  0  0  0
 25 28  1  0  0  0  0
 26 21  2  0  0  0  0
 27 26  1  0  0  0  0
 28 24  2  0  0  0  0
 28 30  1  0  0  0  0
 30 29  1  0  0  0  0
 31 17  1  0  0  0  0
 31 32  1  0  0  0  0
M  END
>  <MODEL>
8

>  <REMARK>
 VINA RESULT:      -7.9      1.776      2.313
  Name = 
  3 active torsions:
  status: ('A' for Active; 'I' for Inactive)
    1  A    between atoms: C_13  and  C_29
    2  A    between atoms: C_15  and  C_26
    3  A    between atoms: C_16  and  C_27
                            x       y       z     vdW  Elec       q    Type
                         _______ _______ _______ _____ _____    ______ ____

>  <TORSDO>
F 3

$$$$
=
 OpenBabel10262421113D

 32 37  0  0  1  0  0  0  0  0999 V2000
  187.3300  177.9880  139.2030 C   0  0  1  0  0  3  0  0  0  0  0  0
  187.8440  178.5360  141.6690 C   0  0  2  0  0  3  0  0  0  0  0  0
  187.8770  178.3460  137.8180 C   0  0  0  0  0  2  0  0  0  0  0  0
  188.3620  178.4510  140.2220 C   0  0  1  0  0  3  0  0  0  0  0  0
  188.1880  177.2800  142.4680 C   0  0  2  0  0  3  0  0  0  0  0  0
  184.1310  179.3910  144.9040 C   0  0  0  0  0  2  0  0  0  0  0  0
  186.3490  178.9150  141.7330 C   0  0  1  0  0  3  0  0  0  0  0  0
  185.7930  177.9700  145.4490 C   0  0  0  0  0  2  0  0  0  0  0  0
  186.3770  178.0190  144.0630 C   0  0  0  0  0  0  0  0  0  0  0  0
  189.5550  177.5170  140.0520 C   0  0  2  0  0  3  0  0  0  0  0  0
  187.6360  177.3840  143.8120 N   0  0  0  0  0  2  0  0  0  0  0  0
  190.4740  177.5610  141.2660 C   0  0  0  0  0  2  0  0  0  0  0  0
  190.2240  177.8440  138.7230 C   0  0  0  0  0  2  0  0  0  0  0  0
  185.5830  178.1670  140.8200 O   0  0  0  0  0  0  0  0  0  0  0  0
  185.9610  178.5890  139.5310 C   0  0  2  0  0  3  0  0  0  0  0  0
  185.7810  178.7840  143.1230 C   0  0  0  0  0  0  0  0  0  0  0  0
  189.7200  177.0780  142.5280 C   0  0  2  0  0  3  0  0  0  0  0  0
  189.2150  177.6200  137.5770 C   0  0  0  0  0  2  0  0  0  0  0  0
  184.3920  178.1060  145.4110 O   0  0  0  0  0  0  0  0  0  0  0  0
  184.4500  179.4290  143.4070 C   0  0  0  0  0  2  0  0  0  0  0  0
  182.6860  178.3850  137.6080 C   0  0  0  0  0  0  0  0  0  0  0  0
  181.3400  179.0190  137.5980 C   0  0  0  0  0  1  0  0  0  0  0  0
  184.9200  178.1660  138.5370 C   0  0  0  0  0  0  0  0  0  0  0  0
  182.9780  177.3870  136.6730 C   0  0  0  0  0  3  0  0  0  0  0  0
  185.2050  177.1670  137.5950 C   0  0  0  0  0  3  0  0  0  0  0  0
  183.6570  178.7770  138.5410 C   0  0  0  0  0  0  0  0  0  0  0  0
  183.3740  179.7480  139.4480 F   0  0  0  0  0  0  0  0  0  0  0  0
  184.2380  176.7820  136.6620 C   0  0  0  0  0  0  0  0  0  0  0  0
  186.0370  175.4790  135.5930 C   0  0  0  0  0  1  0  0  0  0  0  0
  184.5400  175.7070  135.6750 C   0  0  0  0  0  2  0  0  0  0  0  0
  190.0650  175.6280  142.8470 C   0  0  0  0  0  2  0  0  0  0  0  0
  191.2450  175.5510  143.5900 O   0  0  0  0  0  1  0  0  0  0  0  0
  1  3  1  6  0  0  0
  1 15  1  0  0  0  0
  1  4  1  0  0  0  0
  2  7  1  0  0  0  0
  2  5  1  0  0  0  0
  4  2  1  0  0  0  0
  5 17  1  0  0  0  0
  5 11  1  0  0  0  0
  6 19  1  0  0  0  0
  7 16  1  0  0  0  0
  9  8  1  0  0  0  0
 10  4  1  0  0  0  0
 10 12  1  0  0  0  0
 11  9  1  0  0  0  0
 12 17  1  0  0  0  0
 13 10  1  0  0  0  0
 14  7  1  0  0  0  0
 15 14  1  0  0  0  0
 16 20  1  0  0  0  0
 16  9  2  0  0  0  0
 17 31  1  0  0  0  0
 18  3  1  0  0  0  0
 18 13  1  0  0  0  0
 19  8  1  0  0  0  0
 20  6  1  0  0  0  0
 21 26  1  0  0  0  0
 22 21  1  0  0  0  0
 23 26  2  0  0  0  0
 23 15  1  0  0  0  0
 24 21  2  0  0  0  0
 25 23  1  0  0  0  0
 26 27  1  0  0  0  0
 28 24  1  0  0  0  0
 28 25  2  0  0  0  0
 29 30  1  0  0  0  0
 30 28  1  0  0  0  0
 31 32  1  0  0  0  0
M  END
>  <MODEL>
9

>  <REMARK>
 VINA RESULT:      -7.9      3.027      7.772
  Name = 
  3 active torsions:
  status: ('A' for Active; 'I' for Inactive)
    1  A    between atoms: C_13  and  C_29
    2  A    between atoms: C_15  and  C_26
    3  A    between atoms: C_16  and  C_27
                            x       y       z     vdW  Elec       q    Type
                         _______ _______ _______ _____ _____    ______ ____

>  <TORSDO>
F 3

$$$$
