=
 OpenBabel10262421473D

 30 32  0  0  1  0  0  0  0  0999 V2000
  189.0310  177.3790  140.2260 C   0  0  1  0  0  3  0  0  0  0  0  0
  189.6570  177.9930  138.9600 C   0  0  2  0  0  3  0  0  0  0  0  0
  191.4350  176.8020  137.8200 O   0  0  0  0  0  0  0  0  0  0  0  0
  189.1280  175.7970  137.7900 C   0  0  2  0  0  3  0  0  0  0  0  0
  188.7390  178.7050  137.9710 C   0  0  2  0  0  3  0  0  0  0  0  0
  187.6300  176.1360  137.5640 C   0  0  0  0  0  2  0  0  0  0  0  0
  193.1410  175.8920  136.6010 O   0  0  0  0  0  1  0  0  0  0  0  0
  191.7560  176.0180  136.6960 C   0  0  1  0  0  3  0  0  0  0  0  0
  189.2260  175.1280  135.4670 O   0  0  0  0  0  1  0  0  0  0  0  0
  191.1300  174.6320  136.8170 C   0  0  0  0  0  2  0  0  0  0  0  0
  190.0430  177.0510  137.8330 C   0  0  1  0  0  0  0  0  0  0  0  0
  187.0890  177.8760  137.9460 S   0  0  0  0  0  0  0  0  0  0  0  0
  189.6130  174.7660  136.7610 C   0  0  1  0  0  3  0  0  0  0  0  0
  189.5500  178.0900  136.8370 C   0  0  0  0  0  2  0  0  0  0  0  0
  189.9870  176.6250  140.9140 O   0  0  0  0  0  0  0  0  0  0  0  0
  190.9960  177.5310  141.2500 C   0  0  0  0  0  2  0  0  0  0  0  0
  191.5690  177.1910  142.6140 C   0  0  1  0  0  3  0  0  0  0  0  0
  191.2710  178.5600  143.7720 S   0  0  0  0  0  1  0  0  0  0  0  0
  190.9610  176.0330  143.0980 O   0  0  0  0  0  0  0  0  0  0  0  0
  191.7590  175.6300  144.1690 C   0  0  0  0  0  1  0  0  0  0  0  0
  188.4500  178.4580  141.1410 C   0  0  0  0  0  2  0  0  0  0  0  0
  187.4140  177.7570  142.4680 S   0  0  0  0  0  0  0  0  0  0  0  0
  185.9810  178.7800  142.0190 C   0  0  0  0  0  2  0  0  0  0  0  0
  184.7780  178.4110  142.8710 C   0  0  0  0  0  2  0  0  0  0  0  0
  184.5120  179.4630  143.9380 C   0  0  0  0  0  2  0  0  0  0  0  0
  184.3910  178.8690  145.1960 O   0  0  0  0  0  0  0  0  0  0  0  0
  185.6340  179.0600  145.8040 C   0  0  0  0  0  2  0  0  0  0  0  0
  186.2080  177.7220  146.2410 C   0  0  0  0  0  2  0  0  0  0  0  0
  188.1750  177.4680  147.7570 C   0  0  0  0  0  1  0  0  0  0  0  0
  187.7240  177.7780  146.3430 C   0  0  0  0  0  2  0  0  0  0  0  0
  1 15  1  0  0  0  0
  1 21  1  1  0  0  0
  2  1  1  1  0  0  0
  3 11  1  0  0  0  0
  4  6  1  6  0  0  0
  4 11  1  0  0  0  0
  5 14  1  6  0  0  0
  5  2  1  0  0  0  0
  6 12  1  0  0  0  0
  8  7  1  1  0  0  0
  8 10  1  0  0  0  0
  8  3  1  0  0  0  0
 11 14  1  6  0  0  0
 11  2  1  0  0  0  0
 12  5  1  0  0  0  0
 13  9  1  6  0  0  0
 13 10  1  0  0  0  0
 13  4  1  0  0  0  0
 15 16  1  0  0  0  0
 16 17  1  0  0  0  0
 17 19  1  0  0  0  0
 17 18  1  1  0  0  0
 19 20  1  0  0  0  0
 21 22  1  0  0  0  0
 23 22  1  0  0  0  0
 23 24  1  0  0  0  0
 24 25  1  0  0  0  0
 25 26  1  0  0  0  0
 26 27  1  0  0  0  0
 27 28  1  0  0  0  0
 28 30  1  0  0  0  0
 30 29  1  0  0  0  0
M  END
>  <MODEL>
1

>  <REMARK>
 VINA RESULT:      -6.1      0.000      0.000
  Name = 
  14 active torsions:
  status: ('A' for Active; 'I' for Inactive)
    1  A    between atoms: C_1  and  C_4
    2  A    between atoms: C_4  and  O_10
    3  A    between atoms: C_4  and  C_23
    4  A    between atoms: C_7  and  O_15
    5  A    between atoms: C_7  and  C_25
    6  A    between atoms: C_8  and  O_12
    7  A    between atoms: C_8  and  C_13
    8  A    between atoms: C_9  and  O_12
    9  A    between atoms: C_9  and  C_21
   10  A    between atoms: O_10  and  C_25
   11  A    between atoms: C_13  and  C_30
   12  A    between atoms: C_17  and  C_21
   13  A    between atoms: C_23  and  S_27
   14  A    between atoms: S_27  and  C_30
                            x       y       z     vdW  Elec       q    Type
                         _______ _______ _______ _____ _____    ______ ____

>  <TORSDO>
F 14

$$$$
=
 OpenBabel10262421473D

 30 32  0  0  1  0  0  0  0  0999 V2000
  188.7220  177.4300  142.6000 C   0  0  1  0  0  3  0  0  0  0  0  0
  189.4170  178.4820  143.4840 C   0  0  2  0  0  3  0  0  0  0  0  0
  189.1270  178.3870  145.8890 O   0  0  0  0  0  0  0  0  0  0  0  0
  190.4250  176.5390  144.7800 C   0  0  2  0  0  3  0  0  0  0  0  0
  190.8290  178.9240  143.1100 C   0  0  2  0  0  3  0  0  0  0  0  0
  191.5400  176.2590  143.7350 C   0  0  0  0  0  2  0  0  0  0  0  0
  188.9730  178.5260  148.1660 O   0  0  0  0  0  1  0  0  0  0  0  0
  189.7410  178.0420  147.1080 C   0  0  1  0  0  3  0  0  0  0  0  0
  192.1370  176.4360  146.4870 O   0  0  0  0  0  1  0  0  0  0  0  0
  189.8710  176.5270  147.2300 C   0  0  0  0  0  2  0  0  0  0  0  0
  189.9780  178.0250  144.8200 C   0  0  1  0  0  0  0  0  0  0  0  0
  191.7490  177.5050  142.3680 S   0  0  0  0  0  0  0  0  0  0  0  0
  190.8390  176.0250  146.1660 C   0  0  1  0  0  3  0  0  0  0  0  0
  191.1760  178.9360  144.5940 C   0  0  0  0  0  2  0  0  0  0  0  0
  187.6180  176.8960  143.2710 O   0  0  0  0  0  0  0  0  0  0  0  0
  186.5430  177.7180  142.9180 C   0  0  0  0  0  2  0  0  0  0  0  0
  185.9280  178.3340  144.1630 C   0  0  1  0  0  3  0  0  0  0  0  0
  184.1680  178.6850  143.8770 S   0  0  0  0  0  1  0  0  0  0  0  0
  186.0570  177.4470  145.2320 O   0  0  0  0  0  0  0  0  0  0  0  0
  185.6750  178.1830  146.3540 C   0  0  0  0  0  1  0  0  0  0  0  0
  188.2910  178.0260  141.2590 C   0  0  0  0  0  2  0  0  0  0  0  0
  189.0460  177.1610  139.8420 S   0  0  0  0  0  0  0  0  0  0  0  0
  189.2600  178.6990  138.8970 C   0  0  0  0  0  2  0  0  0  0  0  0
  188.7010  178.5420  137.4930 C   0  0  0  0  0  2  0  0  0  0  0  0
  187.3210  177.9010  137.5150 C   0  0  0  0  0  2  0  0  0  0  0  0
  186.3440  178.8500  137.8230 O   0  0  0  0  0  0  0  0  0  0  0  0
  185.3290  178.1270  138.4540 C   0  0  0  0  0  2  0  0  0  0  0  0
  184.7550  178.9370  139.6060 C   0  0  0  0  0  2  0  0  0  0  0  0
  182.6560  178.8490  138.2560 C   0  0  0  0  0  1  0  0  0  0  0  0
  183.5100  179.6990  139.1780 C   0  0  0  0  0  2  0  0  0  0  0  0
  1 21  1  6  0  0  0
  1 15  1  0  0  0  0
  2  1  1  6  0  0  0
  2 11  1  0  0  0  0
  3  8  1  0  0  0  0
  4  6  1  6  0  0  0
  4 11  1  0  0  0  0
  4 13  1  0  0  0  0
  5  2  1  0  0  0  0
  5 14  1  1  0  0  0
  8 10  1  0  0  0  0
  8  7  1  1  0  0  0
 11 14  1  1  0  0  0
 11  3  1  0  0  0  0
 12  5  1  0  0  0  0
 12  6  1  0  0  0  0
 13  9  1  1  0  0  0
 13 10  1  0  0  0  0
 16 15  1  0  0  0  0
 16 17  1  0  0  0  0
 17 18  1  6  0  0  0
 17 19  1  0  0  0  0
 19 20  1  0  0  0  0
 22 21  1  0  0  0  0
 23 22  1  0  0  0  0
 24 25  1  0  0  0  0
 24 23  1  0  0  0  0
 25 26  1  0  0  0  0
 26 27  1  0  0  0  0
 27 28  1  0  0  0  0
 29 30  1  0  0  0  0
 30 28  1  0  0  0  0
M  END
>  <MODEL>
2

>  <REMARK>
 VINA RESULT:      -5.7      2.958      7.489
  Name = 
  14 active torsions:
  status: ('A' for Active; 'I' for Inactive)
    1  A    between atoms: C_1  and  C_4
    2  A    between atoms: C_4  and  O_10
    3  A    between atoms: C_4  and  C_23
    4  A    between atoms: C_7  and  O_15
    5  A    between atoms: C_7  and  C_25
    6  A    between atoms: C_8  and  O_12
    7  A    between atoms: C_8  and  C_13
    8  A    between atoms: C_9  and  O_12
    9  A    between atoms: C_9  and  C_21
   10  A    between atoms: O_10  and  C_25
   11  A    between atoms: C_13  and  C_30
   12  A    between atoms: C_17  and  C_21
   13  A    between atoms: C_23  and  S_27
   14  A    between atoms: S_27  and  C_30
                            x       y       z     vdW  Elec       q    Type
                         _______ _______ _______ _____ _____    ______ ____

>  <TORSDO>
F 14

$$$$
=
 OpenBabel10262421473D

 30 32  0  0  1  0  0  0  0  0999 V2000
  188.7820  177.3860  142.6650 C   0  0  1  0  0  3  0  0  0  0  0  0
  189.4700  178.4460  143.5450 C   0  0  2  0  0  3  0  0  0  0  0  0
  189.1630  178.3700  145.9490 O   0  0  0  0  0  0  0  0  0  0  0  0
  190.4700  176.5140  144.8630 C   0  0  2  0  0  3  0  0  0  0  0  0
  190.8840  178.8860  143.1770 C   0  0  2  0  0  3  0  0  0  0  0  0
  191.5920  176.2260  143.8290 C   0  0  0  0  0  2  0  0  0  0  0  0
  188.9920  178.5280  148.2230 O   0  0  0  0  0  1  0  0  0  0  0  0
  189.7680  178.0350  147.1750 C   0  0  1  0  0  3  0  0  0  0  0  0
  192.1690  176.4260  146.5840 O   0  0  0  0  0  1  0  0  0  0  0  0
  189.8990  176.5220  147.3100 C   0  0  0  0  0  2  0  0  0  0  0  0
  190.0220  178.0000  144.8880 C   0  0  1  0  0  0  0  0  0  0  0  0
  191.8100  177.4620  142.4530 S   0  0  0  0  0  0  0  0  0  0  0  0
  190.8750  176.0120  146.2570 C   0  0  1  0  0  3  0  0  0  0  0  0
  191.2200  178.9100  144.6630 C   0  0  0  0  0  2  0  0  0  0  0  0
  187.6640  176.8690  143.3250 O   0  0  0  0  0  0  0  0  0  0  0  0
  186.6090  177.7190  142.9790 C   0  0  0  0  0  2  0  0  0  0  0  0
  185.9790  178.3050  144.2310 C   0  0  1  0  0  3  0  0  0  0  0  0
  184.2190  178.6490  143.9380 S   0  0  0  0  0  1  0  0  0  0  0  0
  186.1060  177.3970  145.2830 O   0  0  0  0  0  0  0  0  0  0  0  0
  185.7720  178.1250  146.4250 C   0  0  0  0  0  1  0  0  0  0  0  0
  188.3750  177.9660  141.3090 C   0  0  0  0  0  2  0  0  0  0  0  0
  189.1970  177.1190  139.9190 S   0  0  0  0  0  0  0  0  0  0  0  0
  189.1820  178.6100  138.8780 C   0  0  0  0  0  2  0  0  0  0  0  0
  188.5330  178.3140  137.5360 C   0  0  0  0  0  2  0  0  0  0  0  0
  187.2220  177.5620  137.7100 C   0  0  0  0  0  2  0  0  0  0  0  0
  186.9640  176.7600  136.5950 O   0  0  0  0  0  0  0  0  0  0  0  0
  187.3400  175.4720  136.9860 C   0  0  0  0  0  2  0  0  0  0  0  0
  186.3350  174.4590  136.4600 C   0  0  0  0  0  2  0  0  0  0  0  0
  184.8940  172.8720  137.7400 C   0  0  0  0  0  1  0  0  0  0  0  0
  186.3130  173.2060  137.3230 C   0  0  0  0  0  2  0  0  0  0  0  0
  1 21  1  6  0  0  0
  1 15  1  0  0  0  0
  2  1  1  6  0  0  0
  2 11  1  0  0  0  0
  3  8  1  0  0  0  0
  4  6  1  6  0  0  0
  4 11  1  0  0  0  0
  4 13  1  0  0  0  0
  5  2  1  0  0  0  0
  5 14  1  1  0  0  0
  8 10  1  0  0  0  0
  8  7  1  1  0  0  0
 11 14  1  1  0  0  0
 11  3  1  0  0  0  0
 12  5  1  0  0  0  0
 12  6  1  0  0  0  0
 13  9  1  1  0  0  0
 13 10  1  0  0  0  0
 16 15  1  0  0  0  0
 16 17  1  0  0  0  0
 17 18  1  6  0  0  0
 17 19  1  0  0  0  0
 19 20  1  0  0  0  0
 22 21  1  0  0  0  0
 23 22  1  0  0  0  0
 24 25  1  0  0  0  0
 24 23  1  0  0  0  0
 26 27  1  0  0  0  0
 26 25  1  0  0  0  0
 28 27  1  0  0  0  0
 28 30  1  0  0  0  0
 30 29  1  0  0  0  0
M  END
>  <MODEL>
3

>  <REMARK>
 VINA RESULT:      -5.4      2.589      7.869
  Name = 
  14 active torsions:
  status: ('A' for Active; 'I' for Inactive)
    1  A    between atoms: C_1  and  C_4
    2  A    between atoms: C_4  and  O_10
    3  A    between atoms: C_4  and  C_23
    4  A    between atoms: C_7  and  O_15
    5  A    between atoms: C_7  and  C_25
    6  A    between atoms: C_8  and  O_12
    7  A    between atoms: C_8  and  C_13
    8  A    between atoms: C_9  and  O_12
    9  A    between atoms: C_9  and  C_21
   10  A    between atoms: O_10  and  C_25
   11  A    between atoms: C_13  and  C_30
   12  A    between atoms: C_17  and  C_21
   13  A    between atoms: C_23  and  S_27
   14  A    between atoms: S_27  and  C_30
                            x       y       z     vdW  Elec       q    Type
                         _______ _______ _______ _____ _____    ______ ____

>  <TORSDO>
F 14

$$$$
=
 OpenBabel10262421473D

 30 32  0  0  1  0  0  0  0  0999 V2000
  188.7720  177.3300  142.7520 C   0  0  1  0  0  3  0  0  0  0  0  0
  189.4250  178.4150  143.6280 C   0  0  2  0  0  3  0  0  0  0  0  0
  189.0800  178.3660  146.0280 O   0  0  0  0  0  0  0  0  0  0  0  0
  190.4410  176.5220  144.9900 C   0  0  2  0  0  3  0  0  0  0  0  0
  190.8360  178.8780  143.2770 C   0  0  2  0  0  3  0  0  0  0  0  0
  191.5850  176.2420  143.9770 C   0  0  0  0  0  2  0  0  0  0  0  0
  188.8700  178.5510  148.2970 O   0  0  0  0  0  1  0  0  0  0  0  0
  189.6720  178.0610  147.2680 C   0  0  1  0  0  3  0  0  0  0  0  0
  192.1140  176.4920  146.7380 O   0  0  0  0  0  1  0  0  0  0  0  0
  189.8300  176.5520  147.4270 C   0  0  0  0  0  2  0  0  0  0  0  0
  189.9630  177.9990  144.9860 C   0  0  1  0  0  0  0  0  0  0  0  0
  191.8010  177.4620  142.5880 S   0  0  0  0  0  0  0  0  0  0  0  0
  190.8330  176.0470  146.3960 C   0  0  1  0  0  3  0  0  0  0  0  0
  191.1470  178.9290  144.7680 C   0  0  0  0  0  2  0  0  0  0  0  0
  187.6090  176.8560  143.3660 O   0  0  0  0  0  0  0  0  0  0  0  0
  186.5980  177.7300  142.9580 C   0  0  0  0  0  2  0  0  0  0  0  0
  185.9160  178.3410  144.1700 C   0  0  1  0  0  3  0  0  0  0  0  0
  184.1630  178.6520  143.8060 S   0  0  0  0  0  1  0  0  0  0  0  0
  186.0190  177.4650  145.2500 O   0  0  0  0  0  0  0  0  0  0  0  0
  185.6170  178.2140  146.3570 C   0  0  0  0  0  1  0  0  0  0  0  0
  188.4550  177.8590  141.3530 C   0  0  0  0  0  2  0  0  0  0  0  0
  189.4690  177.0610  140.0640 S   0  0  0  0  0  0  0  0  0  0  0  0
  189.1070  178.3580  138.8430 C   0  0  0  0  0  2  0  0  0  0  0  0
  187.8080  178.0540  138.1150 C   0  0  0  0  0  2  0  0  0  0  0  0
  187.7830  176.6210  137.6040 C   0  0  0  0  0  2  0  0  0  0  0  0
  188.7890  176.4190  136.6560 O   0  0  0  0  0  0  0  0  0  0  0  0
  189.1050  175.0620  136.7520 C   0  0  0  0  0  2  0  0  0  0  0  0
  190.5660  174.8970  137.1400 C   0  0  0  0  0  2  0  0  0  0  0  0
  192.4500  176.4140  137.7570 C   0  0  0  0  0  1  0  0  0  0  0  0
  191.3870  176.1060  136.7200 C   0  0  0  0  0  2  0  0  0  0  0  0
  1 21  1  6  0  0  0
  1 15  1  0  0  0  0
  2  1  1  6  0  0  0
  2 11  1  0  0  0  0
  3  8  1  0  0  0  0
  4  6  1  6  0  0  0
  4 13  1  0  0  0  0
  5  2  1  0  0  0  0
  5 14  1  1  0  0  0
  8 10  1  0  0  0  0
  8  7  1  1  0  0  0
 11 14  1  1  0  0  0
 11  4  1  0  0  0  0
 11  3  1  0  0  0  0
 12  5  1  0  0  0  0
 12  6  1  0  0  0  0
 13  9  1  1  0  0  0
 13 10  1  0  0  0  0
 16 15  1  0  0  0  0
 16 17  1  0  0  0  0
 17 18  1  6  0  0  0
 17 19  1  0  0  0  0
 19 20  1  0  0  0  0
 22 21  1  0  0  0  0
 23 22  1  0  0  0  0
 24 23  1  0  0  0  0
 25 24  1  0  0  0  0
 26 27  1  0  0  0  0
 26 25  1  0  0  0  0
 27 28  1  0  0  0  0
 30 28  1  0  0  0  0
 30 29  1  0  0  0  0
M  END
>  <MODEL>
4

>  <REMARK>
 VINA RESULT:      -5.4      2.347      7.982
  Name = 
  14 active torsions:
  status: ('A' for Active; 'I' for Inactive)
    1  A    between atoms: C_1  and  C_4
    2  A    between atoms: C_4  and  O_10
    3  A    between atoms: C_4  and  C_23
    4  A    between atoms: C_7  and  O_15
    5  A    between atoms: C_7  and  C_25
    6  A    between atoms: C_8  and  O_12
    7  A    between atoms: C_8  and  C_13
    8  A    between atoms: C_9  and  O_12
    9  A    between atoms: C_9  and  C_21
   10  A    between atoms: O_10  and  C_25
   11  A    between atoms: C_13  and  C_30
   12  A    between atoms: C_17  and  C_21
   13  A    between atoms: C_23  and  S_27
   14  A    between atoms: S_27  and  C_30
                            x       y       z     vdW  Elec       q    Type
                         _______ _______ _______ _____ _____    ______ ____

>  <TORSDO>
F 14

$$$$
=
 OpenBabel10262421473D

 30 32  0  0  1  0  0  0  0  0999 V2000
  187.5660  178.2960  141.8120 C   0  0  1  0  0  3  0  0  0  0  0  0
  188.4300  177.0320  141.9730 C   0  0  2  0  0  3  0  0  0  0  0  0
  190.8110  177.1610  141.5320 O   0  0  0  0  0  0  0  0  0  0  0  0
  189.9090  178.3990  143.5280 C   0  0  2  0  0  3  0  0  0  0  0  0
  188.1290  176.0920  143.1370 C   0  0  2  0  0  3  0  0  0  0  0  0
  188.9630  178.2600  144.7520 C   0  0  0  0  0  2  0  0  0  0  0  0
  193.0590  177.0250  141.1370 O   0  0  0  0  0  1  0  0  0  0  0  0
  192.0890  177.2070  142.1210 C   0  0  1  0  0  3  0  0  0  0  0  0
  191.7350  177.7850  144.9920 O   0  0  0  0  0  1  0  0  0  0  0  0
  192.3110  178.5510  142.8080 C   0  0  0  0  0  2  0  0  0  0  0  0
  189.8270  177.1990  142.5470 C   0  0  1  0  0  0  0  0  0  0  0  0
  187.5410  177.0700  144.5890 S   0  0  0  0  0  0  0  0  0  0  0  0
  191.3490  178.6730  143.9830 C   0  0  1  0  0  3  0  0  0  0  0  0
  189.6300  175.9050  143.3220 C   0  0  0  0  0  2  0  0  0  0  0  0
  188.0360  179.0640  140.7420 O   0  0  0  0  0  0  0  0  0  0  0  0
  187.9850  178.2150  139.6330 C   0  0  0  0  0  2  0  0  0  0  0  0
  189.0450  178.6150  138.6210 C   0  0  1  0  0  3  0  0  0  0  0  0
  189.8220  177.1310  137.9160 S   0  0  0  0  0  1  0  0  0  0  0  0
  188.4550  179.3610  137.6000 O   0  0  0  0  0  0  0  0  0  0  0  0
  188.1810  178.4340  136.5940 C   0  0  0  0  0  1  0  0  0  0  0  0
  186.0930  177.9410  141.6010 C   0  0  0  0  0  2  0  0  0  0  0  0
  184.9790  179.3130  142.0510 S   0  0  0  0  0  0  0  0  0  0  0  0
  184.2210  178.3760  143.4120 C   0  0  0  0  0  2  0  0  0  0  0  0
  183.9030  179.2970  144.5780 C   0  0  0  0  0  2  0  0  0  0  0  0
  184.3150  178.6750  145.9040 C   0  0  0  0  0  2  0  0  0  0  0  0
  185.5230  179.2190  146.3480 O   0  0  0  0  0  0  0  0  0  0  0  0
  185.9740  178.3350  147.3300 C   0  0  0  0  0  2  0  0  0  0  0  0
  187.1370  178.9550  148.0890 C   0  0  0  0  0  2  0  0  0  0  0  0
  189.3740  177.8460  148.0940 C   0  0  0  0  0  1  0  0  0  0  0  0
  188.0030  177.8880  148.7410 C   0  0  0  0  0  2  0  0  0  0  0  0
  1 21  1  6  0  0  0
  2  1  1  1  0  0  0
  2 11  1  0  0  0  0
  2  5  1  0  0  0  0
  3  8  1  0  0  0  0
  3 11  1  0  0  0  0
  4 13  1  0  0  0  0
  4  6  1  1  0  0  0
  5 14  1  1  0  0  0
  5 12  1  0  0  0  0
  8  7  1  6  0  0  0
  8 10  1  0  0  0  0
 10 13  1  0  0  0  0
 11 14  1  1  0  0  0
 11  4  1  0  0  0  0
 12  6  1  0  0  0  0
 13  9  1  1  0  0  0
 15  1  1  0  0  0  0
 16 15  1  0  0  0  0
 17 18  1  6  0  0  0
 17 16  1  0  0  0  0
 19 17  1  0  0  0  0
 20 19  1  0  0  0  0
 21 22  1  0  0  0  0
 22 23  1  0  0  0  0
 23 24  1  0  0  0  0
 24 25  1  0  0  0  0
 25 26  1  0  0  0  0
 26 27  1  0  0  0  0
 27 28  1  0  0  0  0
 28 30  1  0  0  0  0
 29 30  1  0  0  0  0
M  END
>  <MODEL>
5

>  <REMARK>
 VINA RESULT:      -5.1      2.569      5.214
  Name = 
  14 active torsions:
  status: ('A' for Active; 'I' for Inactive)
    1  A    between atoms: C_1  and  C_4
    2  A    between atoms: C_4  and  O_10
    3  A    between atoms: C_4  and  C_23
    4  A    between atoms: C_7  and  O_15
    5  A    between atoms: C_7  and  C_25
    6  A    between atoms: C_8  and  O_12
    7  A    between atoms: C_8  and  C_13
    8  A    between atoms: C_9  and  O_12
    9  A    between atoms: C_9  and  C_21
   10  A    between atoms: O_10  and  C_25
   11  A    between atoms: C_13  and  C_30
   12  A    between atoms: C_17  and  C_21
   13  A    between atoms: C_23  and  S_27
   14  A    between atoms: S_27  and  C_30
                            x       y       z     vdW  Elec       q    Type
                         _______ _______ _______ _____ _____    ______ ____

>  <TORSDO>
F 14

$$$$
=
 OpenBabel10262421473D

 30 32  0  0  1  0  0  0  0  0999 V2000
  188.2950  176.9710  138.5180 C   0  0  1  0  0  3  0  0  0  0  0  0
  189.1680  177.3290  137.3010 C   0  0  2  0  0  3  0  0  0  0  0  0
  191.5450  176.8540  137.3670 O   0  0  0  0  0  0  0  0  0  0  0  0
  189.9500  174.9080  137.3120 C   0  0  2  0  0  3  0  0  0  0  0  0
  188.5930  177.1040  135.9050 C   0  0  2  0  0  3  0  0  0  0  0  0
  188.6790  174.3650  136.6040 C   0  0  0  0  0  2  0  0  0  0  0  0
  193.8040  176.5400  137.2100 O   0  0  0  0  0  1  0  0  0  0  0  0
  192.5580  175.9940  136.9030 C   0  0  1  0  0  3  0  0  0  0  0  0
  191.2590  173.6150  135.7410 O   0  0  0  0  0  1  0  0  0  0  0  0
  192.4340  174.6210  137.5570 C   0  0  0  0  0  2  0  0  0  0  0  0
  190.2890  176.3740  136.9290 C   0  0  1  0  0  0  0  0  0  0  0  0
  187.4910  175.6230  135.9180 S   0  0  0  0  0  0  0  0  0  0  0  0
  191.1410  173.9650  137.0900 C   0  0  1  0  0  3  0  0  0  0  0  0
  189.9670  176.6160  135.4620 C   0  0  0  0  0  2  0  0  0  0  0  0
  189.1060  176.6340  139.6050 O   0  0  0  0  0  0  0  0  0  0  0  0
  189.0160  177.7220  140.4790 C   0  0  0  0  0  2  0  0  0  0  0  0
  189.8260  177.4500  141.7350 C   0  0  1  0  0  3  0  0  0  0  0  0
  191.5970  177.3810  141.3290 S   0  0  0  0  0  1  0  0  0  0  0  0
  189.6010  178.4680  142.6610 O   0  0  0  0  0  0  0  0  0  0  0  0
  190.6880  178.4040  143.5340 C   0  0  0  0  0  1  0  0  0  0  0  0
  187.3590  178.1220  138.8900 C   0  0  0  0  0  2  0  0  0  0  0  0
  185.7920  178.0700  137.9580 S   0  0  0  0  0  0  0  0  0  0  0  0
  184.7880  178.3490  139.4470 C   0  0  0  0  0  2  0  0  0  0  0  0
  185.6350  178.9560  140.5530 C   0  0  0  0  0  2  0  0  0  0  0  0
  185.2700  178.3760  141.9110 C   0  0  0  0  0  2  0  0  0  0  0  0
  186.3840  178.3560  142.7530 O   0  0  0  0  0  0  0  0  0  0  0  0
  185.8610  178.1850  144.0370 C   0  0  0  0  0  2  0  0  0  0  0  0
  186.8250  177.3700  144.8840 C   0  0  0  0  0  2  0  0  0  0  0  0
  185.3600  178.4400  146.5990 C   0  0  0  0  0  1  0  0  0  0  0  0
  186.6400  177.6620  146.3650 C   0  0  0  0  0  2  0  0  0  0  0  0
  1 21  1  1  0  0  0
  1 15  1  0  0  0  0
  2  1  1  1  0  0  0
  4  6  1  6  0  0  0
  5 14  1  6  0  0  0
  5 12  1  0  0  0  0
  5  2  1  0  0  0  0
  8  7  1  1  0  0  0
  8  3  1  0  0  0  0
  8 10  1  0  0  0  0
 11 14  1  6  0  0  0
 11  2  1  0  0  0  0
 11  4  1  0  0  0  0
 11  3  1  0  0  0  0
 12  6  1  0  0  0  0
 13  9  1  6  0  0  0
 13  4  1  0  0  0  0
 13 10  1  0  0  0  0
 15 16  1  0  0  0  0
 16 17  1  0  0  0  0
 17 18  1  6  0  0  0
 17 19  1  0  0  0  0
 19 20  1  0  0  0  0
 22 21  1  0  0  0  0
 22 23  1  0  0  0  0
 23 24  1  0  0  0  0
 24 25  1  0  0  0  0
 25 26  1  0  0  0  0
 26 27  1  0  0  0  0
 27 28  1  0  0  0  0
 28 30  1  0  0  0  0
 30 29  1  0  0  0  0
M  END
>  <MODEL>
6

>  <REMARK>
 VINA RESULT:      -5.1      1.799      2.331
  Name = 
  14 active torsions:
  status: ('A' for Active; 'I' for Inactive)
    1  A    between atoms: C_1  and  C_4
    2  A    between atoms: C_4  and  O_10
    3  A    between atoms: C_4  and  C_23
    4  A    between atoms: C_7  and  O_15
    5  A    between atoms: C_7  and  C_25
    6  A    between atoms: C_8  and  O_12
    7  A    between atoms: C_8  and  C_13
    8  A    between atoms: C_9  and  O_12
    9  A    between atoms: C_9  and  C_21
   10  A    between atoms: O_10  and  C_25
   11  A    between atoms: C_13  and  C_30
   12  A    between atoms: C_17  and  C_21
   13  A    between atoms: C_23  and  S_27
   14  A    between atoms: S_27  and  C_30
                            x       y       z     vdW  Elec       q    Type
                         _______ _______ _______ _____ _____    ______ ____

>  <TORSDO>
F 14

$$$$
=
 OpenBabel10262421473D

 30 32  0  0  1  0  0  0  0  0999 V2000
  183.5350  178.6390  139.7790 C   0  0  1  0  0  3  0  0  0  0  0  0
  182.4140  179.6560  140.0650 C   0  0  2  0  0  3  0  0  0  0  0  0
  181.8100  181.2640  138.3550 O   0  0  0  0  0  0  0  0  0  0  0  0
  181.3030  178.8370  137.9290 C   0  0  2  0  0  3  0  0  0  0  0  0
  181.1900  179.1850  140.8450 C   0  0  2  0  0  3  0  0  0  0  0  0
  180.7060  177.5610  138.5810 C   0  0  0  0  0  2  0  0  0  0  0  0
  181.0930  182.8950  136.9220 O   0  0  0  0  0  1  0  0  0  0  0  0
  180.8490  181.6020  137.3820 C   0  0  1  0  0  3  0  0  0  0  0  0
  179.1190  179.2490  136.9710 O   0  0  0  0  0  1  0  0  0  0  0  0
  180.9110  180.6280  136.2100 C   0  0  0  0  0  2  0  0  0  0  0  0
  181.4760  180.0150  138.9250 C   0  0  1  0  0  0  0  0  0  0  0  0
  180.8310  177.4210  140.4340 S   0  0  0  0  0  0  0  0  0  0  0  0
  180.4890  179.2450  136.6920 C   0  0  1  0  0  3  0  0  0  0  0  0
  180.3240  180.0300  139.9190 C   0  0  0  0  0  2  0  0  0  0  0  0
  184.5410  179.2380  139.0160 O   0  0  0  0  0  0  0  0  0  0  0  0
  184.8930  178.2810  138.0590 C   0  0  0  0  0  2  0  0  0  0  0  0
  186.3990  178.0760  138.0570 C   0  0  1  0  0  3  0  0  0  0  0  0
  186.8130  176.5270  137.2020 S   0  0  0  0  0  1  0  0  0  0  0  0
  187.0110  179.1460  137.4040 O   0  0  0  0  0  0  0  0  0  0  0  0
  188.0460  178.5690  136.6670 C   0  0  0  0  0  1  0  0  0  0  0  0
  184.1180  178.0730  141.0750 C   0  0  0  0  0  2  0  0  0  0  0  0
  185.5250  179.0570  141.6880 S   0  0  0  0  0  0  0  0  0  0  0  0
  184.9860  178.9220  143.4190 C   0  0  0  0  0  2  0  0  0  0  0  0
  185.9630  178.0710  144.2140 C   0  0  0  0  0  2  0  0  0  0  0  0
  186.9750  177.3930  143.3030 C   0  0  0  0  0  2  0  0  0  0  0  0
  188.1080  177.0110  144.0250 O   0  0  0  0  0  0  0  0  0  0  0  0
  188.0470  177.7520  145.2070 C   0  0  0  0  0  2  0  0  0  0  0  0
  189.3560  177.6200  145.9690 C   0  0  0  0  0  2  0  0  0  0  0  0
  187.8840  177.5940  147.9860 C   0  0  0  0  0  1  0  0  0  0  0  0
  189.1330  177.0170  147.3480 C   0  0  0  0  0  2  0  0  0  0  0  0
  1 21  1  1  0  0  0
  2  1  1  6  0  0  0
  2  5  1  0  0  0  0
  3 11  1  0  0  0  0
  4  6  1  1  0  0  0
  4 11  1  0  0  0  0
  5 14  1  6  0  0  0
  6 12  1  0  0  0  0
  8  7  1  6  0  0  0
  8  3  1  0  0  0  0
 10 13  1  0  0  0  0
 10  8  1  0  0  0  0
 11 14  1  1  0  0  0
 11  2  1  0  0  0  0
 12  5  1  0  0  0  0
 13  9  1  1  0  0  0
 13  4  1  0  0  0  0
 15  1  1  0  0  0  0
 16 15  1  0  0  0  0
 17 18  1  6  0  0  0
 17 16  1  0  0  0  0
 19 17  1  0  0  0  0
 20 19  1  0  0  0  0
 21 22  1  0  0  0  0
 22 23  1  0  0  0  0
 23 24  1  0  0  0  0
 25 26  1  0  0  0  0
 25 24  1  0  0  0  0
 26 27  1  0  0  0  0
 27 28  1  0  0  0  0
 28 30  1  0  0  0  0
 30 29  1  0  0  0  0
M  END
>  <MODEL>
7

>  <REMARK>
 VINA RESULT:      -4.9      5.058      7.633
  Name = 
  14 active torsions:
  status: ('A' for Active; 'I' for Inactive)
    1  A    between atoms: C_1  and  C_4
    2  A    between atoms: C_4  and  O_10
    3  A    between atoms: C_4  and  C_23
    4  A    between atoms: C_7  and  O_15
    5  A    between atoms: C_7  and  C_25
    6  A    between atoms: C_8  and  O_12
    7  A    between atoms: C_8  and  C_13
    8  A    between atoms: C_9  and  O_12
    9  A    between atoms: C_9  and  C_21
   10  A    between atoms: O_10  and  C_25
   11  A    between atoms: C_13  and  C_30
   12  A    between atoms: C_17  and  C_21
   13  A    between atoms: C_23  and  S_27
   14  A    between atoms: S_27  and  C_30
                            x       y       z     vdW  Elec       q    Type
                         _______ _______ _______ _____ _____    ______ ____

>  <TORSDO>
F 14

$$$$
=
 OpenBabel10262421473D

 30 32  0  0  1  0  0  0  0  0999 V2000
  184.5390  178.7100  139.6700 C   0  0  1  0  0  3  0  0  0  0  0  0
  183.4730  177.6550  140.0180 C   0  0  2  0  0  3  0  0  0  0  0  0
  181.7930  178.1740  141.6870 O   0  0  0  0  0  0  0  0  0  0  0  0
  181.7300  179.4380  139.5120 C   0  0  2  0  0  3  0  0  0  0  0  0
  182.8930  176.8110  138.8860 C   0  0  2  0  0  3  0  0  0  0  0  0
  181.8170  179.2620  137.9720 C   0  0  0  0  0  2  0  0  0  0  0  0
  180.1390  178.4140  143.2470 O   0  0  0  0  0  1  0  0  0  0  0  0
  180.4440  178.5220  141.8910 C   0  0  1  0  0  3  0  0  0  0  0  0
  179.3220  179.3410  139.2890 O   0  0  0  0  0  1  0  0  0  0  0  0
  180.1860  179.9520  141.4270 C   0  0  0  0  0  2  0  0  0  0  0  0
  182.0620  178.1410  140.3000 C   0  0  1  0  0  0  0  0  0  0  0  0
  182.8080  177.8180  137.3410 S   0  0  0  0  0  0  0  0  0  0  0  0
  180.3690  180.0240  139.9160 C   0  0  1  0  0  3  0  0  0  0  0  0
  181.5280  176.9280  139.5530 C   0  0  0  0  0  2  0  0  0  0  0  0
  184.6980  179.5990  140.7370 O   0  0  0  0  0  0  0  0  0  0  0  0
  185.6880  179.0310  141.5430 C   0  0  0  0  0  2  0  0  0  0  0  0
  185.1040  178.6370  142.8890 C   0  0  1  0  0  3  0  0  0  0  0  0
  186.3770  177.8370  143.9090 S   0  0  0  0  0  1  0  0  0  0  0  0
  184.6340  179.7770  143.5420 O   0  0  0  0  0  0  0  0  0  0  0  0
  183.6150  179.3160  144.3760 C   0  0  0  0  0  1  0  0  0  0  0  0
  185.8780  178.0570  139.3220 C   0  0  0  0  0  2  0  0  0  0  0  0
  186.3230  178.2840  137.5680 S   0  0  0  0  0  0  0  0  0  0  0  0
  188.1050  178.1690  137.9080 C   0  0  0  0  0  2  0  0  0  0  0  0
  188.3560  178.0920  139.4040 C   0  0  0  0  0  2  0  0  0  0  0  0
  189.4780  177.1160  139.7280 C   0  0  0  0  0  2  0  0  0  0  0  0
  189.6530  177.0080  141.1090 O   0  0  0  0  0  0  0  0  0  0  0  0
  191.0340  177.0870  141.3030 C   0  0  0  0  0  2  0  0  0  0  0  0
  191.3460  177.1390  142.7900 C   0  0  0  0  0  2  0  0  0  0  0  0
  191.2480  179.3500  143.9450 C   0  0  0  0  0  1  0  0  0  0  0  0
  190.4500  178.1370  143.5070 C   0  0  0  0  0  2  0  0  0  0  0  0
  1 21  1  1  0  0  0
  1 15  1  0  0  0  0
  2  1  1  6  0  0  0
  2 11  1  0  0  0  0
  3  8  1  0  0  0  0
  4  6  1  6  0  0  0
  4 13  1  0  0  0  0
  4 11  1  0  0  0  0
  5 14  1  1  0  0  0
  5  2  1  0  0  0  0
  8  7  1  1  0  0  0
 10  8  1  0  0  0  0
 11 14  1  6  0  0  0
 11  3  1  0  0  0  0
 12  6  1  0  0  0  0
 12  5  1  0  0  0  0
 13  9  1  6  0  0  0
 13 10  1  0  0  0  0
 15 16  1  0  0  0  0
 16 17  1  0  0  0  0
 17 19  1  0  0  0  0
 17 18  1  1  0  0  0
 19 20  1  0  0  0  0
 22 23  1  0  0  0  0
 22 21  1  0  0  0  0
 23 24  1  0  0  0  0
 24 25  1  0  0  0  0
 25 26  1  0  0  0  0
 26 27  1  0  0  0  0
 27 28  1  0  0  0  0
 28 30  1  0  0  0  0
 30 29  1  0  0  0  0
M  END
>  <MODEL>
8

>  <REMARK>
 VINA RESULT:      -4.7      3.561      7.904
  Name = 
  14 active torsions:
  status: ('A' for Active; 'I' for Inactive)
    1  A    between atoms: C_1  and  C_4
    2  A    between atoms: C_4  and  O_10
    3  A    between atoms: C_4  and  C_23
    4  A    between atoms: C_7  and  O_15
    5  A    between atoms: C_7  and  C_25
    6  A    between atoms: C_8  and  O_12
    7  A    between atoms: C_8  and  C_13
    8  A    between atoms: C_9  and  O_12
    9  A    between atoms: C_9  and  C_21
   10  A    between atoms: O_10  and  C_25
   11  A    between atoms: C_13  and  C_30
   12  A    between atoms: C_17  and  C_21
   13  A    between atoms: C_23  and  S_27
   14  A    between atoms: S_27  and  C_30
                            x       y       z     vdW  Elec       q    Type
                         _______ _______ _______ _____ _____    ______ ____

>  <TORSDO>
F 14

$$$$
=
 OpenBabel10262421473D

 30 32  0  0  1  0  0  0  0  0999 V2000
  188.1710  177.4990  138.2500 C   0  0  1  0  0  3  0  0  0  0  0  0
  188.2210  176.2090  137.4100 C   0  0  2  0  0  3  0  0  0  0  0  0
  186.4210  174.5970  137.6070 O   0  0  0  0  0  0  0  0  0  0  0  0
  185.9040  176.8260  136.5620 C   0  0  2  0  0  3  0  0  0  0  0  0
  188.7360  176.2980  135.9760 C   0  0  2  0  0  3  0  0  0  0  0  0
  186.4230  177.8630  135.5290 C   0  0  0  0  0  2  0  0  0  0  0  0
  184.8700  172.9180  137.6490 O   0  0  0  0  0  1  0  0  0  0  0  0
  185.2730  174.0740  136.9820 C   0  0  1  0  0  3  0  0  0  0  0  0
  184.5190  175.9110  134.8010 O   0  0  0  0  0  1  0  0  0  0  0  0
  184.1390  175.0950  137.0100 C   0  0  0  0  0  2  0  0  0  0  0  0
  186.9130  175.6820  136.8450 C   0  0  1  0  0  0  0  0  0  0  0  0
  188.2610  177.9270  135.2460 S   0  0  0  0  0  0  0  0  0  0  0  0
  184.5260  176.2890  136.1470 C   0  0  1  0  0  3  0  0  0  0  0  0
  187.6510  175.3090  135.5680 C   0  0  0  0  0  2  0  0  0  0  0  0
  187.4100  177.2890  139.4040 O   0  0  0  0  0  0  0  0  0  0  0  0
  187.0600  178.5670  139.8490 C   0  0  0  0  0  2  0  0  0  0  0  0
  185.5650  178.6370  140.1080 C   0  0  1  0  0  3  0  0  0  0  0  0
  185.2540  178.9240  141.8750 S   0  0  0  0  0  1  0  0  0  0  0  0
  185.0140  179.6810  139.3640 O   0  0  0  0  0  0  0  0  0  0  0  0
  183.6900  179.3010  139.1430 C   0  0  0  0  0  1  0  0  0  0  0  0
  189.5760  177.9770  138.6220 C   0  0  0  0  0  2  0  0  0  0  0  0
  190.6840  176.5960  139.0600 S   0  0  0  0  0  0  0  0  0  0  0  0
  191.0760  177.3020  140.6880 C   0  0  0  0  0  2  0  0  0  0  0  0
  190.1260  176.7610  141.7440 C   0  0  0  0  0  2  0  0  0  0  0  0
  189.7090  177.8490  142.7230 C   0  0  0  0  0  2  0  0  0  0  0  0
  190.6470  177.9720  143.7510 O   0  0  0  0  0  0  0  0  0  0  0  0
  189.9010  178.3340  144.8750 C   0  0  0  0  0  2  0  0  0  0  0  0
  189.1240  177.1320  145.3890 C   0  0  0  0  0  2  0  0  0  0  0  0
  186.6620  177.5430  145.3310 C   0  0  0  0  0  1  0  0  0  0  0  0
  187.9090  177.5640  146.1950 C   0  0  0  0  0  2  0  0  0  0  0  0
  1 21  1  1  0  0  0
  1 15  1  0  0  0  0
  2  1  1  6  0  0  0
  4  6  1  6  0  0  0
  4 11  1  0  0  0  0
  5 14  1  6  0  0  0
  5  2  1  0  0  0  0
  8 10  1  0  0  0  0
  8  3  1  0  0  0  0
  8  7  1  1  0  0  0
 11 14  1  6  0  0  0
 11  2  1  0  0  0  0
 11  3  1  0  0  0  0
 12  6  1  0  0  0  0
 12  5  1  0  0  0  0
 13  9  1  6  0  0  0
 13  4  1  0  0  0  0
 13 10  1  0  0  0  0
 15 16  1  0  0  0  0
 16 17  1  0  0  0  0
 17 18  1  1  0  0  0
 19 17  1  0  0  0  0
 20 19  1  0  0  0  0
 21 22  1  0  0  0  0
 22 23  1  0  0  0  0
 23 24  1  0  0  0  0
 24 25  1  0  0  0  0
 25 26  1  0  0  0  0
 26 27  1  0  0  0  0
 27 28  1  0  0  0  0
 28 30  1  0  0  0  0
 29 30  1  0  0  0  0
M  END
>  <MODEL>
9

>  <REMARK>
 VINA RESULT:      -4.7      2.858      5.217
  Name = 
  14 active torsions:
  status: ('A' for Active; 'I' for Inactive)
    1  A    between atoms: C_1  and  C_4
    2  A    between atoms: C_4  and  O_10
    3  A    between atoms: C_4  and  C_23
    4  A    between atoms: C_7  and  O_15
    5  A    between atoms: C_7  and  C_25
    6  A    between atoms: C_8  and  O_12
    7  A    between atoms: C_8  and  C_13
    8  A    between atoms: C_9  and  O_12
    9  A    between atoms: C_9  and  C_21
   10  A    between atoms: O_10  and  C_25
   11  A    between atoms: C_13  and  C_30
   12  A    between atoms: C_17  and  C_21
   13  A    between atoms: C_23  and  S_27
   14  A    between atoms: S_27  and  C_30
                            x       y       z     vdW  Elec       q    Type
                         _______ _______ _______ _____ _____    ______ ____

>  <TORSDO>
F 14

$$$$
