=
 OpenBabel10262421223D

 32 38  0  0  1  0  0  0  0  0999 V2000
  182.1490  178.2110  140.8190 C   0  0  1  0  0  3  0  0  0  0  0  0
  186.6920  178.0280  142.8320 C   0  0  2  0  0  3  0  0  0  0  0  0
  189.4870  177.5940  138.7990 C   0  0  0  0  0  3  0  0  0  0  0  0
  190.5350  177.0960  139.5740 C   0  0  0  0  0  3  0  0  0  0  0  0
  187.8420  177.6990  145.1170 C   0  0  0  0  0  0  0  0  0  0  0  0
  189.0120  177.4330  145.8220 C   0  0  0  0  0  0  0  0  0  0  0  0
  184.3640  179.0010  142.5430 C   0  0  1  0  0  3  0  0  0  0  0  0
  185.7960  178.8830  140.6070 C   0  0  0  0  0  2  0  0  0  0  0  0
  191.2800  176.9430  146.1390 C   0  0  1  0  0  3  0  0  0  0  0  0
  183.4820  178.8150  140.3830 C   0  0  0  0  0  2  0  0  0  0  0  0
  188.3380  178.0940  139.4160 C   0  0  0  0  0  3  0  0  0  0  0  0
  187.0380  178.7170  141.5040 C   0  0  2  0  0  3  0  0  0  0  0  0
  188.2190  178.0800  140.8150 C   0  0  0  0  0  0  0  0  0  0  0  0
  189.1770  177.5820  143.0740 C   0  0  0  0  0  0  0  0  0  0  0  0
  190.5480  176.9850  147.4990 C   0  0  0  0  0  3  0  0  0  0  0  0
  181.9560  178.0320  142.3300 C   0  0  1  0  0  3  0  0  0  0  0  0
  184.5730  178.3670  141.2330 N   0  0  2  0  0  0  0  0  0  0  0  0
  189.1410  177.2830  147.2200 N   0  0  0  0  0  0  0  0  0  0  0  0
  183.1480  178.3870  143.2360 C   0  0  0  0  0  2  0  0  0  0  0  0
  181.3990  179.2550  141.6320 C   0  0  2  0  0  3  0  0  0  0  0  0
  190.4360  177.0990  140.9670 C   0  0  0  0  0  3  0  0  0  0  0  0
  189.2850  177.5940  141.5970 C   0  0  0  0  0  0  0  0  0  0  0  0
  190.2840  177.3070  143.8270 N   0  0  0  0  0  0  0  0  0  0  0  0
  185.5750  178.8440  143.4800 C   0  0  0  0  0  2  0  0  0  0  0  0
  186.6390  177.8120  145.8060 O   0  0  0  0  0  1  0  0  0  0  0  0
  191.8110  175.5430  145.8980 C   0  0  0  0  0  1  0  0  0  0  0  0
  187.9200  177.8250  143.7050 C   0  0  0  0  0  0  0  0  0  0  0  0
  190.1920  177.2480  145.1790 C   0  0  0  0  0  0  0  0  0  0  0  0
  179.9690  179.0830  141.4330 N   0  0  0  0  0  2  0  0  0  0  0  0
  179.3220  180.3060  141.8790 C   0  0  2  0  0  3  0  0  0  0  0  0
  179.2730  181.2940  140.7310 C   0  0  0  0  0  1  0  0  0  0  0  0
  180.0450  180.8610  142.9360 O   0  0  0  0  0  1  0  0  0  0  0  0
  1 10  1  1  0  0  0
  1 20  1  0  0  0  0
  1 16  1  0  0  0  0
  2 24  1  1  0  0  0
  2 27  1  0  0  0  0
  3 11  2  0  0  0  0
  3  4  1  0  0  0  0
  4 21  2  0  0  0  0
  5 25  1  0  0  0  0
  5  6  1  0  0  0  0
  6 18  1  0  0  0  0
  7 19  1  1  0  0  0
  7 24  1  0  0  0  0
  8 17  1  0  0  0  0
  9 26  1  6  0  0  0
  9 15  1  0  0  0  0
 11 13  1  0  0  0  0
 12  8  1  6  0  0  0
 12  2  1  0  0  0  0
 13 12  1  0  0  0  0
 13 22  2  0  0  0  0
 14 27  1  0  0  0  0
 14 23  2  0  0  0  0
 16 19  1  1  0  0  0
 17 10  1  6  0  0  0
 17  7  1  0  0  0  0
 18 15  2  0  0  0  0
 20 29  1  6  0  0  0
 20 16  1  0  0  0  0
 21 22  1  0  0  0  0
 22 14  1  0  0  0  0
 23 28  1  0  0  0  0
 27  5  2  0  0  0  0
 28  6  2  0  0  0  0
 28  9  1  0  0  0  0
 29 30  1  0  0  0  0
 30 31  1  6  0  0  0
 30 32  1  0  0  0  0
M  END
>  <MODEL>
1

>  <REMARK>
 VINA RESULT:     -10.0      0.000      0.000
  Name = 
  2 active torsions:
  status: ('A' for Active; 'I' for Inactive)
    1  A    between atoms: C_1  and  N_10
    2  A    between atoms: N_10  and  C_24
                            x       y       z     vdW  Elec       q    Type
                         _______ _______ _______ _____ _____    ______ ____

>  <TORSDO>
F 2

$$$$
=
 OpenBabel10262421223D

 32 38  0  0  1  0  0  0  0  0999 V2000
  187.9480  179.0340  137.3810 C   0  0  1  0  0  3  0  0  0  0  0  0
  187.9840  177.8970  142.2220 C   0  0  2  0  0  3  0  0  0  0  0  0
  183.4010  179.1570  143.5140 C   0  0  0  0  0  3  0  0  0  0  0  0
  183.7920  179.2240  144.8520 C   0  0  0  0  0  3  0  0  0  0  0  0
  189.6370  177.3170  144.1150 C   0  0  0  0  0  0  0  0  0  0  0  0
  189.8630  177.1710  145.4810 C   0  0  0  0  0  0  0  0  0  0  0  0
  188.4180  177.4220  139.7660 C   0  0  1  0  0  3  0  0  0  0  0  0
  186.1620  177.9280  140.4440 C   0  0  0  0  0  2  0  0  0  0  0  0
  189.3640  177.1930  147.7690 C   0  0  1  0  0  3  0  0  0  0  0  0
  186.8920  178.4060  138.2890 C   0  0  0  0  0  2  0  0  0  0  0  0
  184.2850  178.6650  142.5520 C   0  0  0  0  0  3  0  0  0  0  0  0
  186.5060  177.6170  141.9140 C   0  0  2  0  0  3  0  0  0  0  0  0
  185.5780  178.2560  142.9160 C   0  0  0  0  0  0  0  0  0  0  0  0
  187.3230  177.8700  144.6700 C   0  0  0  0  0  0  0  0  0  0  0  0
  190.8510  176.8340  147.5500 C   0  0  0  0  0  3  0  0  0  0  0  0
  189.4080  178.7550  137.7590 C   0  0  1  0  0  3  0  0  0  0  0  0
  187.3220  178.3970  139.6780 N   0  0  2  0  0  0  0  0  0  0  0  0
  191.0890  176.8520  146.1050 N   0  0  0  0  0  0  0  0  0  0  0  0
  189.6590  177.9600  139.0530 C   0  0  0  0  0  2  0  0  0  0  0  0
  188.7210  177.9120  136.7070 C   0  0  2  0  0  3  0  0  0  0  0  0
  185.0680  178.7980  145.2290 C   0  0  0  0  0  3  0  0  0  0  0  0
  185.9660  178.3070  144.2700 C   0  0  0  0  0  0  0  0  0  0  0  0
  187.6190  177.7260  145.9970 N   0  0  0  0  0  0  0  0  0  0  0  0
  188.8090  177.0950  141.2180 C   0  0  0  0  0  2  0  0  0  0  0  0
  190.6970  177.1730  143.2270 O   0  0  0  0  0  1  0  0  0  0  0  0
  189.2690  178.5030  148.5280 C   0  0  0  0  0  1  0  0  0  0  0  0
  188.3220  177.6310  143.6800 C   0  0  0  0  0  0  0  0  0  0  0  0
  188.8690  177.3700  146.3820 C   0  0  0  0  0  0  0  0  0  0  0  0
  189.1500  178.3480  135.3880 N   0  0  0  0  0  2  0  0  0  0  0  0
  189.5200  177.1570  134.6400 C   0  0  2  0  0  3  0  0  0  0  0  0
  188.3520  176.1930  134.6200 C   0  0  0  0  0  1  0  0  0  0  0  0
  190.6170  176.5430  135.2480 O   0  0  0  0  0  1  0  0  0  0  0  0
  1 16  1  0  0  0  0
  1 10  1  1  0  0  0
  2 24  1  6  0  0  0
  2 27  1  0  0  0  0
  3  4  1  0  0  0  0
  4 21  2  0  0  0  0
  5  6  1  0  0  0  0
  6 18  1  0  0  0  0
  6 28  2  0  0  0  0
  7 19  1  6  0  0  0
  7 24  1  0  0  0  0
  9 26  1  1  0  0  0
 11 13  1  0  0  0  0
 11  3  2  0  0  0  0
 12  8  1  6  0  0  0
 12  2  1  0  0  0  0
 12 13  1  0  0  0  0
 13 22  2  0  0  0  0
 14 23  2  0  0  0  0
 15  9  1  0  0  0  0
 16 19  1  1  0  0  0
 17 10  1  6  0  0  0
 17  7  1  0  0  0  0
 17  8  1  0  0  0  0
 18 15  2  0  0  0  0
 20 29  1  6  0  0  0
 20  1  1  0  0  0  0
 20 16  1  0  0  0  0
 22 14  1  0  0  0  0
 22 21  1  0  0  0  0
 23 28  1  0  0  0  0
 25  5  1  0  0  0  0
 27  5  2  0  0  0  0
 27 14  1  0  0  0  0
 28  9  1  0  0  0  0
 30 31  1  1  0  0  0
 30 32  1  0  0  0  0
 30 29  1  0  0  0  0
M  END
>  <MODEL>
2

>  <REMARK>
 VINA RESULT:      -9.5      3.194      6.355
  Name = 
  2 active torsions:
  status: ('A' for Active; 'I' for Inactive)
    1  A    between atoms: C_1  and  N_10
    2  A    between atoms: N_10  and  C_24
                            x       y       z     vdW  Elec       q    Type
                         _______ _______ _______ _____ _____    ______ ____

>  <TORSDO>
F 2

$$$$
=
 OpenBabel10262421223D

 32 38  0  0  1  0  0  0  0  0999 V2000
  180.9120  180.6390  139.4910 C   0  0  1  0  0  3  0  0  0  0  0  0
  185.1340  178.7360  141.3010 C   0  0  2  0  0  3  0  0  0  0  0  0
  184.1230  178.6280  146.1200 C   0  0  0  0  0  3  0  0  0  0  0  0
  185.4860  178.5580  146.4100 C   0  0  0  0  0  3  0  0  0  0  0  0
  187.5640  178.2530  140.5840 C   0  0  0  0  0  0  0  0  0  0  0  0
  188.8650  177.9340  140.9630 C   0  0  0  0  0  0  0  0  0  0  0  0
  183.1690  178.8040  139.6950 C   0  0  1  0  0  3  0  0  0  0  0  0
  182.7040  178.6340  142.0540 C   0  0  0  0  0  2  0  0  0  0  0  0
  190.6350  177.4470  142.4170 C   0  0  1  0  0  3  0  0  0  0  0  0
  181.1800  179.6330  140.6080 C   0  0  0  0  0  2  0  0  0  0  0  0
  183.6830  178.5320  144.7990 C   0  0  0  0  0  3  0  0  0  0  0  0
  184.1470  178.1690  142.3310 C   0  0  2  0  0  3  0  0  0  0  0  0
  184.6060  178.3870  143.7500 C   0  0  0  0  0  0  0  0  0  0  0  0
  186.9650  178.1350  142.9500 C   0  0  0  0  0  0  0  0  0  0  0  0
  191.1410  177.4960  140.9580 C   0  0  0  0  0  3  0  0  0  0  0  0
  181.9310  180.6560  138.3460 C   0  0  1  0  0  3  0  0  0  0  0  0
  182.6040  179.4900  140.8660 N   0  0  2  0  0  0  0  0  0  0  0  0
  189.9870  177.8160  140.1140 N   0  0  0  0  0  0  0  0  0  0  0  0
  183.1570  179.7350  138.4830 C   0  0  0  0  0  2  0  0  0  0  0  0
  180.6480  179.8650  138.2090 C   0  0  2  0  0  3  0  0  0  0  0  0
  186.4120  178.3900  145.3760 C   0  0  0  0  0  3  0  0  0  0  0  0
  185.9810  178.2980  144.0440 C   0  0  0  0  0  0  0  0  0  0  0  0
  188.2650  177.8430  143.2530 N   0  0  0  0  0  0  0  0  0  0  0  0
  184.6180  178.3370  139.9200 C   0  0  0  0  0  2  0  0  0  0  0  0
  187.2870  178.5190  139.2480 O   0  0  0  0  0  1  0  0  0  0  0  0
  191.3040  178.5470  143.2180 C   0  0  0  0  0  1  0  0  0  0  0  0
  186.5660  178.3140  141.5920 C   0  0  0  0  0  0  0  0  0  0  0  0
  189.1880  177.7350  142.2650 C   0  0  0  0  0  0  0  0  0  0  0  0
  179.7120  180.6090  137.3820 N   0  0  0  0  0  2  0  0  0  0  0  0
  180.4950  181.3660  136.4200 C   0  0  2  0  0  3  0  0  0  0  0  0
  179.8620  182.7290  136.2190 C   0  0  0  0  0  1  0  0  0  0  0  0
  180.5250  180.6860  135.2010 O   0  0  0  0  0  1  0  0  0  0  0  0
  1 10  1  1  0  0  0
  2 24  1  6  0  0  0
  2 27  1  0  0  0  0
  2 12  1  0  0  0  0
  3  4  1  0  0  0  0
  5  6  2  0  0  0  0
  5 27  1  0  0  0  0
  6 28  1  0  0  0  0
  7 19  1  6  0  0  0
  7 24  1  0  0  0  0
  7 17  1  0  0  0  0
  9 26  1  1  0  0  0
 11  3  2  0  0  0  0
 12  8  1  1  0  0  0
 12 13  1  0  0  0  0
 13 22  2  0  0  0  0
 13 11  1  0  0  0  0
 14 23  1  0  0  0  0
 14 22  1  0  0  0  0
 15  9  1  0  0  0  0
 16 19  1  1  0  0  0
 16  1  1  0  0  0  0
 17 10  1  6  0  0  0
 17  8  1  0  0  0  0
 18 15  2  0  0  0  0
 18  6  1  0  0  0  0
 20 29  1  6  0  0  0
 20 16  1  0  0  0  0
 20  1  1  0  0  0  0
 21  4  2  0  0  0  0
 22 21  1  0  0  0  0
 25  5  1  0  0  0  0
 27 14  2  0  0  0  0
 28  9  1  0  0  0  0
 28 23  2  0  0  0  0
 30 31  1  6  0  0  0
 30 29  1  0  0  0  0
 32 30  1  0  0  0  0
M  END
>  <MODEL>
3

>  <REMARK>
 VINA RESULT:      -9.3      2.852      4.968
  Name = 
  2 active torsions:
  status: ('A' for Active; 'I' for Inactive)
    1  A    between atoms: C_1  and  N_10
    2  A    between atoms: N_10  and  C_24
                            x       y       z     vdW  Elec       q    Type
                         _______ _______ _______ _____ _____    ______ ____

>  <TORSDO>
F 2

$$$$
=
 OpenBabel10262421223D

 32 38  0  0  1  0  0  0  0  0999 V2000
  191.2220  177.8280  144.9280 C   0  0  1  0  0  3  0  0  0  0  0  0
  187.3240  178.0030  141.8460 C   0  0  2  0  0  3  0  0  0  0  0  0
  189.5930  178.2160  137.4790 C   0  0  0  0  0  3  0  0  0  0  0  0
  188.4320  178.7250  136.8950 C   0  0  0  0  0  3  0  0  0  0  0  0
  184.7760  178.4040  141.8840 C   0  0  0  0  0  0  0  0  0  0  0  0
  183.6140  178.6760  141.1680 C   0  0  0  0  0  0  0  0  0  0  0  0
  188.6410  177.0660  143.8040 C   0  0  1  0  0  3  0  0  0  0  0  0
  189.6860  177.0760  141.6310 C   0  0  0  0  0  2  0  0  0  0  0  0
  182.2860  179.1330  139.2940 C   0  0  1  0  0  3  0  0  0  0  0  0
  190.9670  177.1810  143.5690 C   0  0  0  0  0  2  0  0  0  0  0  0
  189.5710  177.7660  138.8000 C   0  0  0  0  0  3  0  0  0  0  0  0
  188.3170  177.2540  140.9460 C   0  0  2  0  0  3  0  0  0  0  0  0
  188.3910  177.8390  139.5580 C   0  0  0  0  0  0  0  0  0  0  0  0
  185.9610  178.4100  139.7470 C   0  0  0  0  0  0  0  0  0  0  0  0
  181.4260  179.1610  140.5770 C   0  0  0  0  0  3  0  0  0  0  0  0
  189.9820  178.0730  145.7970 C   0  0  1  0  0  3  0  0  0  0  0  0
  189.7180  177.6420  142.9850 N   0  0  2  0  0  0  0  0  0  0  0  0
  182.3220  178.8800  141.7010 N   0  0  0  0  0  0  0  0  0  0  0  0
  188.6140  177.7320  145.1790 C   0  0  0  0  0  2  0  0  0  0  0  0
  190.8260  176.8340  146.0090 C   0  0  2  0  0  3  0  0  0  0  0  0
  187.2460  178.7810  137.6330 C   0  0  0  0  0  3  0  0  0  0  0  0
  187.2150  178.3360  138.9630 C   0  0  0  0  0  0  0  0  0  0  0  0
  184.7850  178.6940  139.1100 N   0  0  0  0  0  0  0  0  0  0  0  0
  187.2520  177.2380  143.1650 C   0  0  0  0  0  2  0  0  0  0  0  0
  184.7270  178.3430  143.2720 O   0  0  0  0  0  1  0  0  0  0  0  0
  182.2890  180.5110  138.6610 C   0  0  0  0  0  1  0  0  0  0  0  0
  185.9840  178.2180  141.1600 C   0  0  0  0  0  0  0  0  0  0  0  0
  183.6350  178.8100  139.8190 C   0  0  0  0  0  0  0  0  0  0  0  0
  191.6740  177.0260  147.1730 N   0  0  0  0  0  2  0  0  0  0  0  0
  192.0830  175.7080  147.6310 C   0  0  2  0  0  3  0  0  0  0  0  0
  193.1270  175.8550  148.7190 C   0  0  0  0  0  1  0  0  0  0  0  0
  192.6240  174.9880  146.5640 O   0  0  0  0  0  1  0  0  0  0  0  0
  1 10  1  6  0  0  0
  1 16  1  0  0  0  0
  1 20  1  0  0  0  0
  2 24  1  1  0  0  0
  3 11  1  0  0  0  0
  4  3  2  0  0  0  0
  4 21  1  0  0  0  0
  5 25  1  0  0  0  0
  6 18  1  0  0  0  0
  6  5  1  0  0  0  0
  7 24  1  6  0  0  0
  7 19  1  0  0  0  0
  9 26  1  1  0  0  0
  9 28  1  0  0  0  0
  9 15  1  0  0  0  0
 11 13  2  0  0  0  0
 12  8  1  1  0  0  0
 12  2  1  0  0  0  0
 13 12  1  0  0  0  0
 14 27  1  0  0  0  0
 15 18  2  0  0  0  0
 16 19  1  6  0  0  0
 16 20  1  0  0  0  0
 17  8  1  6  0  0  0
 17 10  1  0  0  0  0
 17  7  1  0  0  0  0
 20 29  1  1  0  0  0
 21 22  2  0  0  0  0
 22 13  1  0  0  0  0
 22 14  1  0  0  0  0
 23 14  2  0  0  0  0
 23 28  1  0  0  0  0
 27  2  1  0  0  0  0
 27  5  2  0  0  0  0
 28  6  2  0  0  0  0
 29 30  1  0  0  0  0
 30 31  1  1  0  0  0
 32 30  1  0  0  0  0
M  END
>  <MODEL>
4

>  <REMARK>
 VINA RESULT:      -9.2      1.978      8.244
  Name = 
  2 active torsions:
  status: ('A' for Active; 'I' for Inactive)
    1  A    between atoms: C_1  and  N_10
    2  A    between atoms: N_10  and  C_24
                            x       y       z     vdW  Elec       q    Type
                         _______ _______ _______ _____ _____    ______ ____

>  <TORSDO>
F 2

$$$$
=
 OpenBabel10262421223D

 32 38  0  0  1  0  0  0  0  0999 V2000
  190.8730  175.8210  147.6410 C   0  0  1  0  0  3  0  0  0  0  0  0
  188.9790  177.5310  143.3730 C   0  0  2  0  0  3  0  0  0  0  0  0
  184.3140  178.3920  144.6970 C   0  0  0  0  0  3  0  0  0  0  0  0
  183.9240  178.3670  143.3570 C   0  0  0  0  0  3  0  0  0  0  0  0
  189.5490  177.6720  140.8610 C   0  0  0  0  0  0  0  0  0  0  0  0
  189.1070  177.9100  139.5630 C   0  0  0  0  0  0  0  0  0  0  0  0
  190.7210  177.4370  145.2190 C   0  0  1  0  0  3  0  0  0  0  0  0
  188.4500  177.9710  145.8240 C   0  0  0  0  0  2  0  0  0  0  0  0
  187.5870  178.4160  137.8560 C   0  0  1  0  0  3  0  0  0  0  0  0
  189.8760  176.9390  147.3430 C   0  0  0  0  0  2  0  0  0  0  0  0
  185.6690  178.3490  145.0310 C   0  0  0  0  0  3  0  0  0  0  0  0
  188.1160  178.3260  144.3620 C   0  0  2  0  0  3  0  0  0  0  0  0
  186.6470  178.2590  144.0290 C   0  0  0  0  0  0  0  0  0  0  0  0
  187.2750  178.1680  141.6060 C   0  0  0  0  0  0  0  0  0  0  0  0
  188.9810  178.1190  137.2580 C   0  0  0  0  0  3  0  0  0  0  0  0
  191.9190  175.5480  146.5530 C   0  0  1  0  0  3  0  0  0  0  0  0
  189.5220  176.9750  145.9340 N   0  0  2  0  0  0  0  0  0  0  0  0
  189.8690  177.8020  138.3790 N   0  0  0  0  0  0  0  0  0  0  0  0
  191.8000  176.3550  145.2470 C   0  0  0  0  0  2  0  0  0  0  0  0
  192.2610  176.4350  147.7310 C   0  0  2  0  0  3  0  0  0  0  0  0
  184.8910  178.3010  142.3500 C   0  0  0  0  0  3  0  0  0  0  0  0
  186.2540  178.2520  142.6750 C   0  0  0  0  0  0  0  0  0  0  0  0
  186.9060  178.3700  140.3060 N   0  0  0  0  0  0  0  0  0  0  0  0
  190.4380  177.7860  143.7470 C   0  0  0  0  0  2  0  0  0  0  0  0
  190.8580  177.2540  141.0730 O   0  0  0  0  0  1  0  0  0  0  0  0
  186.5980  177.3740  137.3650 C   0  0  0  0  0  1  0  0  0  0  0  0
  188.6280  177.8460  141.9280 C   0  0  0  0  0  0  0  0  0  0  0  0
  187.8200  178.2530  139.3110 C   0  0  0  0  0  0  0  0  0  0  0  0
  193.0600  175.6810  148.6820 N   0  0  0  0  0  2  0  0  0  0  0  0
  193.3070  176.5490  149.8220 C   0  0  2  0  0  3  0  0  0  0  0  0
  192.6230  177.8820  149.5940 C   0  0  0  0  0  1  0  0  0  0  0  0
  194.6800  176.7530  149.9680 O   0  0  0  0  0  1  0  0  0  0  0  0
  1 10  1  6  0  0  0
  1 20  1  0  0  0  0
  2 24  1  6  0  0  0
  2 12  1  0  0  0  0
  3 11  1  0  0  0  0
  4  3  2  0  0  0  0
  5 25  1  0  0  0  0
  5 27  1  0  0  0  0
  6  5  2  0  0  0  0
  7 24  1  6  0  0  0
  7 19  1  0  0  0  0
  7 17  1  0  0  0  0
  9 26  1  6  0  0  0
  9 28  1  0  0  0  0
 12  8  1  1  0  0  0
 13 12  1  0  0  0  0
 13 11  2  0  0  0  0
 14 27  2  0  0  0  0
 14 22  1  0  0  0  0
 15  9  1  0  0  0  0
 15 18  2  0  0  0  0
 16 19  1  6  0  0  0
 16  1  1  0  0  0  0
 16 20  1  0  0  0  0
 17  8  1  1  0  0  0
 17 10  1  0  0  0  0
 18  6  1  0  0  0  0
 20 29  1  1  0  0  0
 21 22  2  0  0  0  0
 21  4  1  0  0  0  0
 22 13  1  0  0  0  0
 23 14  1  0  0  0  0
 27  2  1  0  0  0  0
 28  6  1  0  0  0  0
 28 23  2  0  0  0  0
 29 30  1  0  0  0  0
 30 31  1  6  0  0  0
 30 32  1  0  0  0  0
M  END
>  <MODEL>
5

>  <REMARK>
 VINA RESULT:      -9.1      3.315      9.000
  Name = 
  2 active torsions:
  status: ('A' for Active; 'I' for Inactive)
    1  A    between atoms: C_1  and  N_10
    2  A    between atoms: N_10  and  C_24
                            x       y       z     vdW  Elec       q    Type
                         _______ _______ _______ _____ _____    ______ ____

>  <TORSDO>
F 2

$$$$
=
 OpenBabel10262421223D

 32 38  0  0  1  0  0  0  0  0999 V2000
  187.6560  177.1560  145.0530 C   0  0  1  0  0  3  0  0  0  0  0  0
  184.2580  178.1720  141.5690 C   0  0  2  0  0  3  0  0  0  0  0  0
  180.2450  178.8490  144.3430 C   0  0  0  0  0  3  0  0  0  0  0  0
  179.4330  178.6280  143.2310 C   0  0  0  0  0  3  0  0  0  0  0  0
  183.9290  178.0370  139.0140 C   0  0  0  0  0  0  0  0  0  0  0  0
  183.0530  178.0770  137.9330 C   0  0  0  0  0  0  0  0  0  0  0  0
  186.5180  178.4390  142.6950 C   0  0  1  0  0  3  0  0  0  0  0  0
  184.5380  178.8770  143.9990 C   0  0  0  0  0  2  0  0  0  0  0  0
  181.0000  178.2520  136.8210 C   0  0  1  0  0  3  0  0  0  0  0  0
  186.4990  178.1520  145.0180 C   0  0  0  0  0  2  0  0  0  0  0  0
  181.6290  178.9480  144.1890 C   0  0  0  0  0  3  0  0  0  0  0  0
  183.6940  179.0210  142.7180 C   0  0  2  0  0  3  0  0  0  0  0  0
  182.2160  178.8050  142.9220 C   0  0  0  0  0  0  0  0  0  0  0  0
  181.9990  178.4560  140.4520 C   0  0  0  0  0  0  0  0  0  0  0  0
  182.1350  177.9850  135.8070 C   0  0  0  0  0  3  0  0  0  0  0  0
  188.2980  176.8260  143.7000 C   0  0  1  0  0  3  0  0  0  0  0  0
  185.6890  177.9850  143.8210 N   0  0  2  0  0  0  0  0  0  0  0  0
  183.3780  177.8770  136.5740 N   0  0  0  0  0  0  0  0  0  0  0  0
  187.6570  177.4510  142.4480 C   0  0  0  0  0  2  0  0  0  0  0  0
  188.9160  177.8770  144.5980 C   0  0  2  0  0  3  0  0  0  0  0  0
  180.0040  178.5070  141.9610 C   0  0  0  0  0  3  0  0  0  0  0  0
  181.3940  178.5990  141.7960 C   0  0  0  0  0  0  0  0  0  0  0  0
  181.1930  178.4650  139.3480 N   0  0  0  0  0  0  0  0  0  0  0  0
  185.7190  178.5790  141.3870 C   0  0  0  0  0  2  0  0  0  0  0  0
  185.2710  177.7470  138.7960 O   0  0  0  0  0  1  0  0  0  0  0  0
  180.0270  177.0870  136.8030 C   0  0  0  0  0  1  0  0  0  0  0  0
  183.4080  178.2770  140.3130 C   0  0  0  0  0  0  0  0  0  0  0  0
  181.7250  178.2910  138.1130 C   0  0  0  0  0  0  0  0  0  0  0  0
  190.0680  177.3090  145.2790 N   0  0  0  0  0  2  0  0  0  0  0  0
  191.2560  177.8260  144.6200 C   0  0  2  0  0  3  0  0  0  0  0  0
  190.9300  179.1550  143.9680 C   0  0  0  0  0  1  0  0  0  0  0  0
  191.6810  176.9240  143.6430 O   0  0  0  0  0  1  0  0  0  0  0  0
  1 10  1  6  0  0  0
  2 24  1  6  0  0  0
  2 12  1  0  0  0  0
  4  3  2  0  0  0  0
  5 27  1  0  0  0  0
  6 28  1  0  0  0  0
  6  5  2  0  0  0  0
  7 24  1  6  0  0  0
  7 17  1  0  0  0  0
  9 26  1  1  0  0  0
  9 28  1  0  0  0  0
 11  3  1  0  0  0  0
 12 13  1  0  0  0  0
 12  8  1  1  0  0  0
 13 11  2  0  0  0  0
 14 22  1  0  0  0  0
 15 18  2  0  0  0  0
 15  9  1  0  0  0  0
 16 19  1  6  0  0  0
 16 20  1  0  0  0  0
 16  1  1  0  0  0  0
 17  8  1  1  0  0  0
 17 10  1  0  0  0  0
 18  6  1  0  0  0  0
 19  7  1  0  0  0  0
 20  1  1  0  0  0  0
 20 29  1  1  0  0  0
 21  4  1  0  0  0  0
 22 21  2  0  0  0  0
 22 13  1  0  0  0  0
 23 14  1  0  0  0  0
 25  5  1  0  0  0  0
 27 14  2  0  0  0  0
 27  2  1  0  0  0  0
 28 23  2  0  0  0  0
 30 31  1  6  0  0  0
 30 29  1  0  0  0  0
 32 30  1  0  0  0  0
M  END
>  <MODEL>
6

>  <REMARK>
 VINA RESULT:      -8.8      2.738      9.146
  Name = 
  2 active torsions:
  status: ('A' for Active; 'I' for Inactive)
    1  A    between atoms: C_1  and  N_10
    2  A    between atoms: N_10  and  C_24
                            x       y       z     vdW  Elec       q    Type
                         _______ _______ _______ _____ _____    ______ ____

>  <TORSDO>
F 2

$$$$
=
 OpenBabel10262421223D

 32 38  0  0  1  0  0  0  0  0999 V2000
  183.1110  177.6420  138.2030 C   0  0  1  0  0  3  0  0  0  0  0  0
  186.2590  178.0990  142.0250 C   0  0  2  0  0  3  0  0  0  0  0  0
  190.5770  177.3510  139.7780 C   0  0  0  0  0  3  0  0  0  0  0  0
  191.1680  177.0480  141.0050 C   0  0  0  0  0  3  0  0  0  0  0  0
  186.2560  178.1740  144.6040 C   0  0  0  0  0  0  0  0  0  0  0  0
  186.9860  178.1000  145.7870 C   0  0  0  0  0  0  0  0  0  0  0  0
  184.3010  178.8330  140.5840 C   0  0  1  0  0  3  0  0  0  0  0  0
  186.4530  178.5710  139.5310 C   0  0  0  0  0  2  0  0  0  0  0  0
  188.8710  177.8420  147.1510 C   0  0  1  0  0  3  0  0  0  0  0  0
  184.4910  178.2870  138.3160 C   0  0  0  0  0  2  0  0  0  0  0  0
  189.2680  177.8350  139.7340 C   0  0  0  0  0  3  0  0  0  0  0  0
  187.1590  178.6280  140.9000 C   0  0  2  0  0  3  0  0  0  0  0  0
  188.5300  178.0010  140.9160 C   0  0  0  0  0  0  0  0  0  0  0  0
  188.3710  177.8910  143.4130 C   0  0  0  0  0  0  0  0  0  0  0  0
  187.6040  178.0080  148.0190 C   0  0  0  0  0  3  0  0  0  0  0  0
  182.2590  177.6540  139.4780 C   0  0  1  0  0  3  0  0  0  0  0  0
  185.0860  178.0470  139.6210 N   0  0  2  0  0  0  0  0  0  0  0  0
  186.4710  178.1510  147.1010 N   0  0  0  0  0  0  0  0  0  0  0  0
  182.9100  178.2230  140.7520 C   0  0  0  0  0  2  0  0  0  0  0  0
  182.0630  178.7220  138.4240 C   0  0  2  0  0  3  0  0  0  0  0  0
  190.4510  177.2310  142.1900 C   0  0  0  0  0  3  0  0  0  0  0  0
  189.1340  177.7120  142.1560 C   0  0  0  0  0  0  0  0  0  0  0  0
  189.0220  177.8100  144.6120 N   0  0  0  0  0  0  0  0  0  0  0  0
  184.9600  178.9010  141.9730 C   0  0  0  0  0  2  0  0  0  0  0  0
  184.8710  178.2820  144.6600 O   0  0  0  0  0  1  0  0  0  0  0  0
  189.4700  176.4690  147.3940 C   0  0  0  0  0  1  0  0  0  0  0  0
  186.9620  178.1140  143.3730 C   0  0  0  0  0  0  0  0  0  0  0  0
  188.3310  177.9270  145.7730 C   0  0  0  0  0  0  0  0  0  0  0  0
  180.8790  178.4110  137.6400 N   0  0  0  0  0  2  0  0  0  0  0  0
  180.7740  179.4200  136.5990 C   0  0  2  0  0  3  0  0  0  0  0  0
  180.7710  180.7960  137.2330 C   0  0  0  0  0  1  0  0  0  0  0  0
  179.5880  179.2360  135.8860 O   0  0  0  0  0  1  0  0  0  0  0  0
  1 10  1  1  0  0  0
  1 20  1  0  0  0  0
  1 16  1  0  0  0  0
  2 24  1  1  0  0  0
  2 27  1  0  0  0  0
  3  4  1  0  0  0  0
  4 21  2  0  0  0  0
  5 25  1  0  0  0  0
  5  6  1  0  0  0  0
  6 18  1  0  0  0  0
  7 19  1  1  0  0  0
  7 24  1  0  0  0  0
  8 17  1  0  0  0  0
  9 26  1  6  0  0  0
  9 15  1  0  0  0  0
 11  3  2  0  0  0  0
 11 13  1  0  0  0  0
 12  8  1  6  0  0  0
 12 13  1  0  0  0  0
 12  2  1  0  0  0  0
 13 22  2  0  0  0  0
 14 23  2  0  0  0  0
 16 19  1  1  0  0  0
 17 10  1  6  0  0  0
 17  7  1  0  0  0  0
 18 15  2  0  0  0  0
 20 29  1  6  0  0  0
 20 16  1  0  0  0  0
 22 21  1  0  0  0  0
 22 14  1  0  0  0  0
 23 28  1  0  0  0  0
 27 14  1  0  0  0  0
 27  5  2  0  0  0  0
 28  6  2  0  0  0  0
 28  9  1  0  0  0  0
 30 31  1  1  0  0  0
 30 29  1  0  0  0  0
 32 30  1  0  0  0  0
M  END
>  <MODEL>
7

>  <REMARK>
 VINA RESULT:      -8.8      2.277      2.670
  Name = 
  2 active torsions:
  status: ('A' for Active; 'I' for Inactive)
    1  A    between atoms: C_1  and  N_10
    2  A    between atoms: N_10  and  C_24
                            x       y       z     vdW  Elec       q    Type
                         _______ _______ _______ _____ _____    ______ ____

>  <TORSDO>
F 2

$$$$
=
 OpenBabel10262421223D

 32 38  0  0  1  0  0  0  0  0999 V2000
  183.3930  179.5430  144.7180 C   0  0  1  0  0  3  0  0  0  0  0  0
  187.7080  177.7920  142.9750 C   0  0  2  0  0  3  0  0  0  0  0  0
  190.2100  177.1230  147.1640 C   0  0  0  0  0  3  0  0  0  0  0  0
  191.4110  177.1270  146.4530 C   0  0  0  0  0  3  0  0  0  0  0  0
  189.0130  177.5690  140.7610 C   0  0  0  0  0  0  0  0  0  0  0  0
  190.2250  177.3130  140.1270 C   0  0  0  0  0  0  0  0  0  0  0  0
  185.1750  177.8730  143.1250 C   0  0  1  0  0  3  0  0  0  0  0  0
  186.4200  177.4320  145.1410 C   0  0  0  0  0  2  0  0  0  0  0  0
  192.5060  176.8160  139.9430 C   0  0  1  0  0  3  0  0  0  0  0  0
  184.3330  178.4530  145.2300 C   0  0  0  0  0  2  0  0  0  0  0  0
  188.9930  177.1290  146.4800 C   0  0  0  0  0  3  0  0  0  0  0  0
  187.6660  177.0510  144.3190 C   0  0  2  0  0  3  0  0  0  0  0  0
  188.9650  177.1590  145.0770 C   0  0  0  0  0  0  0  0  0  0  0  0
  190.1640  177.1690  142.8790 C   0  0  0  0  0  0  0  0  0  0  0  0
  191.8970  177.0500  138.5420 C   0  0  0  0  0  3  0  0  0  0  0  0
  183.3740  179.7530  143.1990 C   0  0  1  0  0  3  0  0  0  0  0  0
  185.5560  178.3930  144.4460 N   0  0  2  0  0  0  0  0  0  0  0  0
  190.4800  177.3650  138.7390 N   0  0  0  0  0  0  0  0  0  0  0  0
  184.3600  178.9180  142.3630 C   0  0  0  0  0  2  0  0  0  0  0  0
  182.3240  178.8850  143.8600 C   0  0  2  0  0  3  0  0  0  0  0  0
  191.3950  177.1350  145.0560 C   0  0  0  0  0  3  0  0  0  0  0  0
  190.1780  177.1460  144.3590 C   0  0  0  0  0  0  0  0  0  0  0  0
  191.3250  176.9460  142.1920 N   0  0  0  0  0  0  0  0  0  0  0  0
  186.3910  177.4970  142.2600 C   0  0  0  0  0  2  0  0  0  0  0  0
  187.9110  177.9460  140.0030 O   0  0  0  0  0  1  0  0  0  0  0  0
  193.5550  177.8780  140.2180 C   0  0  0  0  0  1  0  0  0  0  0  0
  188.9560  177.4520  142.1750 C   0  0  0  0  0  0  0  0  0  0  0  0
  191.3390  177.0080  140.8380 C   0  0  0  0  0  0  0  0  0  0  0  0
  181.0850  179.6350  143.9760 N   0  0  0  0  0  2  0  0  0  0  0  0
  180.2290  179.2260  142.8740 C   0  0  2  0  0  3  0  0  0  0  0  0
  179.4870  180.4350  142.3390 C   0  0  0  0  0  1  0  0  0  0  0  0
  179.3080  178.2780  143.3220 O   0  0  0  0  0  1  0  0  0  0  0  0
  1 10  1  6  0  0  0
  2 24  1  6  0  0  0
  2 12  1  0  0  0  0
  4  3  2  0  0  0  0
  5 27  1  0  0  0  0
  6  5  2  0  0  0  0
  6 28  1  0  0  0  0
  7 24  1  6  0  0  0
  7 17  1  0  0  0  0
  9 26  1  1  0  0  0
  9 28  1  0  0  0  0
 11  3  1  0  0  0  0
 12 13  1  0  0  0  0
 12  8  1  1  0  0  0
 13 11  2  0  0  0  0
 14 22  1  0  0  0  0
 15 18  2  0  0  0  0
 15  9  1  0  0  0  0
 16 19  1  6  0  0  0
 16 20  1  0  0  0  0
 16  1  1  0  0  0  0
 17  8  1  1  0  0  0
 17 10  1  0  0  0  0
 18  6  1  0  0  0  0
 19  7  1  0  0  0  0
 20 29  1  1  0  0  0
 20  1  1  0  0  0  0
 21  4  1  0  0  0  0
 22 21  2  0  0  0  0
 22 13  1  0  0  0  0
 23 14  1  0  0  0  0
 25  5  1  0  0  0  0
 27 14  2  0  0  0  0
 27  2  1  0  0  0  0
 28 23  2  0  0  0  0
 30 31  1  1  0  0  0
 30 32  1  0  0  0  0
 30 29  1  0  0  0  0
M  END
>  <MODEL>
8

>  <REMARK>
 VINA RESULT:      -8.5      2.066      4.685
  Name = 
  2 active torsions:
  status: ('A' for Active; 'I' for Inactive)
    1  A    between atoms: C_1  and  N_10
    2  A    between atoms: N_10  and  C_24
                            x       y       z     vdW  Elec       q    Type
                         _______ _______ _______ _____ _____    ______ ____

>  <TORSDO>
F 2

$$$$
=
 OpenBabel10262421223D

 32 38  0  0  1  0  0  0  0  0999 V2000
  186.7390  177.2780  144.7490 C   0  0  1  0  0  3  0  0  0  0  0  0
  189.0790  177.3200  140.3620 C   0  0  2  0  0  3  0  0  0  0  0  0
  185.2860  177.9450  137.2830 C   0  0  0  0  0  3  0  0  0  0  0  0
  186.0570  177.4560  136.2270 C   0  0  0  0  0  3  0  0  0  0  0  0
  191.3700  176.7450  139.3260 C   0  0  0  0  0  0  0  0  0  0  0  0
  192.1200  176.5100  138.1780 C   0  0  0  0  0  0  0  0  0  0  0  0
  188.7530  178.0280  142.7790 C   0  0  1  0  0  3  0  0  0  0  0  0
  186.9550  178.4280  141.2240 C   0  0  0  0  0  2  0  0  0  0  0  0
  192.5480  176.2610  135.8890 C   0  0  1  0  0  3  0  0  0  0  0  0
  186.5240  178.1100  143.4870 C   0  0  0  0  0  2  0  0  0  0  0  0
  185.8750  178.1820  138.5260 C   0  0  0  0  0  3  0  0  0  0  0  0
  187.9170  178.2660  140.0310 C   0  0  2  0  0  3  0  0  0  0  0  0
  187.2370  177.9110  138.7320 C   0  0  0  0  0  0  0  0  0  0  0  0
  189.4590  177.1530  137.8600 C   0  0  0  0  0  0  0  0  0  0  0  0
  193.8290  175.9750  136.7050 C   0  0  0  0  0  3  0  0  0  0  0  0
  188.1780  176.8160  145.0110 C   0  0  1  0  0  3  0  0  0  0  0  0
  187.3800  177.6620  142.4010 N   0  0  2  0  0  0  0  0  0  0  0  0
  193.4810  176.1370  138.1190 N   0  0  0  0  0  0  0  0  0  0  0  0
  189.2290  177.1560  143.9400 C   0  0  0  0  0  2  0  0  0  0  0  0
  187.6440  178.0620  145.6870 C   0  0  2  0  0  3  0  0  0  0  0  0
  187.4180  177.2040  136.4140 C   0  0  0  0  0  3  0  0  0  0  0  0
  188.0190  177.4340  137.6610 C   0  0  0  0  0  0  0  0  0  0  0  0
  190.2500  176.8920  136.7760 N   0  0  0  0  0  0  0  0  0  0  0  0
  189.7530  177.8630  141.6210 C   0  0  0  0  0  2  0  0  0  0  0  0
  191.9620  176.5850  140.5740 O   0  0  0  0  0  1  0  0  0  0  0  0
  192.1280  175.0010  135.1550 C   0  0  0  0  0  1  0  0  0  0  0  0
  190.0100  177.1230  139.1760 C   0  0  0  0  0  0  0  0  0  0  0  0
  191.5600  176.5890  136.9450 C   0  0  0  0  0  0  0  0  0  0  0  0
  187.2970  177.7490  147.0630 N   0  0  0  0  0  2  0  0  0  0  0  0
  188.3730  178.2480  147.9030 C   0  0  2  0  0  3  0  0  0  0  0  0
  189.6140  177.4060  147.6820 C   0  0  0  0  0  1  0  0  0  0  0  0
  187.9960  178.1720  149.2450 O   0  0  0  0  0  1  0  0  0  0  0  0
  1 10  1  6  0  0  0
  1 16  1  0  0  0  0
  1 20  1  0  0  0  0
  2 24  1  1  0  0  0
  3 11  1  0  0  0  0
  4 21  1  0  0  0  0
  4  3  2  0  0  0  0
  5 25  1  0  0  0  0
  6  5  2  0  0  0  0
  7 24  1  6  0  0  0
  7 19  1  0  0  0  0
  9 26  1  1  0  0  0
  9 15  1  0  0  0  0
  9 28  1  0  0  0  0
 11 13  2  0  0  0  0
 12  2  1  0  0  0  0
 12  8  1  1  0  0  0
 13 12  1  0  0  0  0
 14 27  2  0  0  0  0
 15 18  2  0  0  0  0
 16 19  1  6  0  0  0
 16 20  1  0  0  0  0
 17  8  1  6  0  0  0
 17  7  1  0  0  0  0
 17 10  1  0  0  0  0
 18  6  1  0  0  0  0
 20 29  1  1  0  0  0
 21 22  2  0  0  0  0
 22 14  1  0  0  0  0
 22 13  1  0  0  0  0
 23 28  2  0  0  0  0
 23 14  1  0  0  0  0
 27  5  1  0  0  0  0
 27  2  1  0  0  0  0
 28  6  1  0  0  0  0
 29 30  1  0  0  0  0
 30 31  1  1  0  0  0
 30 32  1  0  0  0  0
M  END
>  <MODEL>
9

>  <REMARK>
 VINA RESULT:      -8.4      3.772      7.224
  Name = 
  2 active torsions:
  status: ('A' for Active; 'I' for Inactive)
    1  A    between atoms: C_1  and  N_10
    2  A    between atoms: N_10  and  C_24
                            x       y       z     vdW  Elec       q    Type
                         _______ _______ _______ _____ _____    ______ ____

>  <TORSDO>
F 2

$$$$
