=
 OpenBabel10262423023D

 37 42  0  0  1  0  0  0  0  0999 V2000
  183.1010  177.8630  137.5420 C   0  0  1  0  0  3  0  0  0  0  0  0
  178.9330  180.2630  139.2160 C   0  0  0  0  0  2  0  0  0  0  0  0
  181.9630  178.1900  141.7880 C   0  0  2  0  0  3  0  0  0  0  0  0
  185.0940  177.9770  140.8540 C   0  0  2  0  0  3  0  0  0  0  0  0
  180.2750  180.1150  141.4300 C   0  0  1  0  0  3  0  0  0  0  0  0
  183.1510  178.9190  141.1100 C   0  0  1  0  0  3  0  0  0  0  0  0
  180.7810  177.2350  136.6370 S   0  0  0  0  0  0  0  0  0  0  0  0
  180.6120  178.6130  141.1880 C   0  0  1  0  0  3  0  0  0  0  0  0
  184.4880  178.9220  141.8790 C   0  0  1  0  0  3  0  0  0  0  0  0
  180.9440  180.9180  140.4830 O   0  0  0  0  0  0  0  0  0  0  0  0
  180.3430  177.9380  139.8360 C   0  0  0  0  0  2  0  0  0  0  0  0
  180.6040  180.8700  137.5890 O   0  0  0  0  0  1  0  0  0  0  0  0
  183.1530  180.1780  144.3440 C   0  0  0  0  0  1  0  0  0  0  0  0
  181.5810  177.9000  137.6370 C   0  0  0  0  0  0  0  0  0  0  0  0
  180.9560  177.9770  143.9290 O   0  0  0  0  0  0  0  0  0  0  0  0
  180.9200  178.7580  138.6910 C   0  0  1  0  0  3  0  0  0  0  0  0
  186.2870  178.6330  140.1730 C   0  0  0  0  0  1  0  0  0  0  0  0
  181.9570  178.2850  143.3010 C   0  0  0  0  0  0  0  0  0  0  0  0
  183.7730  178.0020  140.0670 C   0  0  1  0  0  3  0  0  0  0  0  0
  179.5350  180.9710  140.4420 C   0  0  1  0  0  3  0  0  0  0  0  0
  184.4230  178.2510  143.2540 C   0  0  2  0  0  3  0  0  0  0  0  0
  179.9240  179.7860  138.1470 C   0  0  1  0  0  3  0  0  0  0  0  0
  183.7870  178.6030  138.6710 C   0  0  0  0  0  0  0  0  0  0  0  0
  184.1300  179.8780  138.4620 C   0  0  0  0  0  2  0  0  0  0  0  0
  183.1880  178.6830  144.0540 C   0  0  1  0  0  3  0  0  0  0  0  0
  186.7780  177.3120  143.4740 C   0  0  0  0  0  2  0  0  0  0  0  0
  185.7520  178.3290  144.0160 C   0  0  2  0  0  3  0  0  0  0  0  0
  185.5990  178.2790  145.5160 C   0  0  0  0  0  3  0  0  0  0  0  0
  186.5550  178.0230  147.6310 F   0  0  0  0  0  0  0  0  0  0  0  0
  188.0170  177.9040  145.6320 C   0  0  0  0  0  2  0  0  0  0  0  0
  186.6800  178.1040  146.2810 C   0  0  0  0  0  0  0  0  0  0  0  0
  187.8710  176.9050  144.4830 C   0  0  0  0  0  2  0  0  0  0  0  0
  185.1950  176.4840  137.2090 C   0  0  0  0  0  1  0  0  0  0  0  0
  183.6770  176.4530  137.2880 C   0  0  1  0  0  3  0  0  0  0  0  0
  183.1910  175.4160  138.2970 C   0  0  0  0  0  2  0  0  0  0  0  0
  182.6110  174.1960  137.5990 C   0  0  0  0  0  2  0  0  0  0  0  0
  183.7080  173.2110  137.2460 C   0  0  0  0  0  1  0  0  0  0  0  0
  1 34  1  1  0  0  0
  1 14  1  0  0  0  0
  1 23  1  0  0  0  0
  2 20  1  0  0  0  0
  3 18  1  1  0  0  0
  4 17  1  6  0  0  0
  4  9  1  0  0  0  0
  5 10  1  6  0  0  0
  6  3  1  0  0  0  0
  6  9  1  0  0  0  0
  7 14  2  0  0  0  0
  8  5  1  0  0  0  0
  8  3  1  0  0  0  0
  9 21  1  0  0  0  0
 11  8  1  0  0  0  0
 12 22  1  0  0  0  0
 14 16  1  0  0  0  0
 16 11  1  0  0  0  0
 18 15  2  0  0  0  0
 18 25  1  0  0  0  0
 19  4  1  0  0  0  0
 19  6  1  0  0  0  0
 20 10  1  0  0  0  0
 20  5  1  0  0  0  0
 21 27  1  0  0  0  0
 21 25  1  0  0  0  0
 22 16  1  0  0  0  0
 22  2  1  0  0  0  0
 23 19  1  0  0  0  0
 24 23  2  0  0  0  0
 25 13  1  0  0  0  0
 26 27  1  0  0  0  0
 26 32  1  0  0  0  0
 27 28  1  0  0  0  0
 28 31  2  0  0  0  0
 30 31  1  0  0  0  0
 31 29  1  0  0  0  0
 32 30  1  0  0  0  0
 33 34  1  0  0  0  0
 34 35  1  0  0  0  0
 36 35  1  0  0  0  0
 37 36  1  0  0  0  0
M  END
>  <MODEL>
1

>  <REMARK>
 VINA RESULT:      -6.3      0.000      0.000
  Name = 
  4 active torsions:
  status: ('A' for Active; 'I' for Inactive)
    1  A    between atoms: C_1  and  C_17
    2  A    between atoms: C_6  and  C_31
    3  A    between atoms: C_11  and  C_26
    4  A    between atoms: C_17  and  C_26
                            x       y       z     vdW  Elec       q    Type
                         _______ _______ _______ _____ _____    ______ ____

>  <TORSDO>
F 4

$$$$
=
 OpenBabel10262423023D

 37 42  0  0  1  0  0  0  0  0999 V2000
  181.0320  179.1320  138.8510 C   0  0  1  0  0  3  0  0  0  0  0  0
  180.4550  175.0890  135.8100 C   0  0  0  0  0  2  0  0  0  0  0  0
  184.2430  177.4210  136.3620 C   0  0  2  0  0  3  0  0  0  0  0  0
  184.8800  178.9440  139.1890 C   0  0  2  0  0  3  0  0  0  0  0  0
  183.0430  175.1690  135.9490 C   0  0  1  0  0  3  0  0  0  0  0  0
  184.1560  177.3430  137.9080 C   0  0  1  0  0  3  0  0  0  0  0  0
  179.1880  179.0960  137.0630 S   0  0  0  0  0  0  0  0  0  0  0  0
  183.0640  176.7040  135.6830 C   0  0  1  0  0  3  0  0  0  0  0  0
  185.4560  177.6300  138.6860 C   0  0  1  0  0  3  0  0  0  0  0  0
  182.4750  174.9050  137.2120 O   0  0  0  0  0  0  0  0  0  0  0  0
  181.7780  177.5420  135.7230 C   0  0  0  0  0  2  0  0  0  0  0  0
  179.7600  175.5190  138.0760 O   0  0  0  0  0  1  0  0  0  0  0  0
  186.9510  175.4340  137.1450 C   0  0  0  0  0  1  0  0  0  0  0  0
  180.4100  178.5390  137.5940 C   0  0  0  0  0  0  0  0  0  0  0  0
  185.6810  176.7470  134.5950 O   0  0  0  0  0  0  0  0  0  0  0  0
  180.9910  177.2780  136.9970 C   0  0  1  0  0  3  0  0  0  0  0  0
  184.7970  178.9340  140.7100 C   0  0  0  0  0  1  0  0  0  0  0  0
  185.5740  176.9730  135.7900 C   0  0  0  0  0  0  0  0  0  0  0  0
  183.5710  178.6410  138.4430 C   0  0  1  0  0  3  0  0  0  0  0  0
  181.7820  174.3690  136.1060 C   0  0  1  0  0  3  0  0  0  0  0  0
  186.6770  177.8860  137.7980 C   0  0  2  0  0  3  0  0  0  0  0  0
  179.9940  176.1260  136.8410 C   0  0  1  0  0  3  0  0  0  0  0  0
  182.3100  178.4370  139.2690 C   0  0  0  0  0  0  0  0  0  0  0  0
  182.2180  177.4540  140.1710 C   0  0  0  0  0  2  0  0  0  0  0  0
  186.7900  176.8670  136.6570 C   0  0  1  0  0  3  0  0  0  0  0  0
  189.2180  177.7450  137.7840 C   0  0  0  0  0  2  0  0  0  0  0  0
  187.9630  178.1040  138.6050 C   0  0  2  0  0  3  0  0  0  0  0  0
  187.9420  177.4630  139.9710 C   0  0  0  0  0  3  0  0  0  0  0  0
  189.0790  176.7770  141.8920 F   0  0  0  0  0  0  0  0  0  0  0  0
  190.3550  177.8730  140.0710 C   0  0  0  0  0  2  0  0  0  0  0  0
  189.0740  177.3800  140.6750 C   0  0  0  0  0  0  0  0  0  0  0  0
  190.4530  177.3730  138.6280 C   0  0  0  0  0  2  0  0  0  0  0  0
  181.1520  181.2010  137.3990 C   0  0  0  0  0  1  0  0  0  0  0  0
  181.1480  180.6720  138.8240 C   0  0  1  0  0  3  0  0  0  0  0  0
  180.0890  181.3670  139.6770 C   0  0  0  0  0  2  0  0  0  0  0  0
  179.3230  180.3680  140.5290 C   0  0  0  0  0  2  0  0  0  0  0  0
  179.6810  180.5320  141.9940 C   0  0  0  0  0  1  0  0  0  0  0  0
  1 34  1  6  0  0  0
  1 23  1  0  0  0  0
  2 20  1  0  0  0  0
  2 22  1  0  0  0  0
  3 18  1  6  0  0  0
  3  6  1  0  0  0  0
  4 17  1  1  0  0  0
  5 20  1  0  0  0  0
  5 10  1  1  0  0  0
  6 19  1  0  0  0  0
  6  9  1  0  0  0  0
  7 14  2  0  0  0  0
  8 11  1  0  0  0  0
  8  5  1  0  0  0  0
  8  3  1  0  0  0  0
  9  4  1  0  0  0  0
 11 16  1  0  0  0  0
 14  1  1  0  0  0  0
 15 18  2  0  0  0  0
 16 14  1  0  0  0  0
 18 25  1  0  0  0  0
 19  4  1  0  0  0  0
 19 23  1  0  0  0  0
 20 10  1  0  0  0  0
 21 27  1  0  0  0  0
 21  9  1  0  0  0  0
 22 16  1  0  0  0  0
 22 12  1  0  0  0  0
 23 24  2  0  0  0  0
 25 13  1  0  0  0  0
 25 21  1  0  0  0  0
 26 27  1  0  0  0  0
 26 32  1  0  0  0  0
 27 28  1  0  0  0  0
 28 31  2  0  0  0  0
 30 31  1  0  0  0  0
 31 29  1  0  0  0  0
 32 30  1  0  0  0  0
 33 34  1  0  0  0  0
 34 35  1  0  0  0  0
 35 36  1  0  0  0  0
 36 37  1  0  0  0  0
M  END
>  <MODEL>
2

>  <REMARK>
 VINA RESULT:      -5.4      3.202      6.006
  Name = 
  4 active torsions:
  status: ('A' for Active; 'I' for Inactive)
    1  A    between atoms: C_1  and  C_17
    2  A    between atoms: C_6  and  C_31
    3  A    between atoms: C_11  and  C_26
    4  A    between atoms: C_17  and  C_26
                            x       y       z     vdW  Elec       q    Type
                         _______ _______ _______ _____ _____    ______ ____

>  <TORSDO>
F 4

$$$$
=
 OpenBabel10262423023D

 37 42  0  0  1  0  0  0  0  0999 V2000
  190.2300  177.6060  138.2060 C   0  0  1  0  0  3  0  0  0  0  0  0
  192.7050  174.0530  135.5270 C   0  0  0  0  0  2  0  0  0  0  0  0
  188.5050  173.7150  137.0570 C   0  0  2  0  0  3  0  0  0  0  0  0
  186.6420  176.3780  137.4480 C   0  0  2  0  0  3  0  0  0  0  0  0
  190.2720  173.2050  135.2400 C   0  0  1  0  0  3  0  0  0  0  0  0
  188.1000  175.0930  136.4740 C   0  0  1  0  0  3  0  0  0  0  0  0
  192.5080  176.7240  139.0000 S   0  0  0  0  0  0  0  0  0  0  0  0
  189.9760  173.3750  136.7600 C   0  0  1  0  0  3  0  0  0  0  0  0
  186.5900  175.3590  136.3210 C   0  0  1  0  0  3  0  0  0  0  0  0
  190.4440  174.4670  134.6360 O   0  0  0  0  0  0  0  0  0  0  0  0
  190.9410  174.1280  137.6850 C   0  0  0  0  0  2  0  0  0  0  0  0
  192.5030  176.4370  135.2490 O   0  0  0  0  0  1  0  0  0  0  0  0
  186.2420  172.8330  134.6080 C   0  0  0  0  0  1  0  0  0  0  0  0
  191.3490  176.5750  138.1520 C   0  0  0  0  0  0  0  0  0  0  0  0
  187.9250  171.4200  136.8480 O   0  0  0  0  0  0  0  0  0  0  0  0
  191.3100  175.4850  137.1050 C   0  0  1  0  0  3  0  0  0  0  0  0
  186.2250  177.7500  136.9360 C   0  0  0  0  0  1  0  0  0  0  0  0
  187.5800  172.5790  136.6690 C   0  0  0  0  0  0  0  0  0  0  0  0
  188.1550  176.1400  137.5760 C   0  0  1  0  0  3  0  0  0  0  0  0
  191.5640  173.6120  134.5930 C   0  0  1  0  0  3  0  0  0  0  0  0
  185.7000  174.1750  136.7100 C   0  0  2  0  0  3  0  0  0  0  0  0
  192.5460  175.4200  136.2030 C   0  0  1  0  0  3  0  0  0  0  0  0
  189.0880  177.2970  137.2600 C   0  0  0  0  0  0  0  0  0  0  0  0
  189.1120  177.8650  136.0500 C   0  0  0  0  0  2  0  0  0  0  0  0
  186.2100  172.8490  136.1310 C   0  0  1  0  0  3  0  0  0  0  0  0
  183.9840  175.4700  135.3470 C   0  0  0  0  0  2  0  0  0  0  0  0
  184.2080  174.4530  136.4850 C   0  0  2  0  0  3  0  0  0  0  0  0
  183.4550  174.7950  137.7460 C   0  0  0  0  0  3  0  0  0  0  0  0
  181.5340  175.6250  138.7830 F   0  0  0  0  0  0  0  0  0  0  0  0
  181.6150  175.5310  136.3070 C   0  0  0  0  0  2  0  0  0  0  0  0
  182.2140  175.2810  137.6590 C   0  0  0  0  0  0  0  0  0  0  0  0
  182.6480  176.2340  135.4240 C   0  0  0  0  0  2  0  0  0  0  0  0
  188.4090  178.6350  139.6300 C   0  0  0  0  0  1  0  0  0  0  0  0
  189.7670  177.9520  139.6380 C   0  0  1  0  0  3  0  0  0  0  0  0
  189.7830  176.7500  140.5800 C   0  0  0  0  0  2  0  0  0  0  0  0
  188.9870  177.0300  141.8460 C   0  0  0  0  0  2  0  0  0  0  0  0
  189.4340  176.1160  142.9700 C   0  0  0  0  0  1  0  0  0  0  0  0
  1 34  1  1  0  0  0
  2 22  1  0  0  0  0
  3 18  1  6  0  0  0
  4 17  1  6  0  0  0
  4 19  1  0  0  0  0
  5 10  1  6  0  0  0
  5  8  1  0  0  0  0
  6  3  1  0  0  0  0
  6 19  1  0  0  0  0
  8  3  1  0  0  0  0
  8 11  1  0  0  0  0
  9  6  1  0  0  0  0
  9 21  1  0  0  0  0
  9  4  1  0  0  0  0
 12 22  1  0  0  0  0
 13 25  1  0  0  0  0
 14  1  1  0  0  0  0
 14  7  2  0  0  0  0
 16 11  1  0  0  0  0
 16 14  1  0  0  0  0
 18 15  2  0  0  0  0
 20 10  1  0  0  0  0
 20  5  1  0  0  0  0
 20  2  1  0  0  0  0
 22 16  1  0  0  0  0
 23 19  1  0  0  0  0
 23  1  1  0  0  0  0
 24 23  2  0  0  0  0
 25 18  1  0  0  0  0
 25 21  1  0  0  0  0
 26 32  1  0  0  0  0
 26 27  1  0  0  0  0
 27 21  1  0  0  0  0
 27 28  1  0  0  0  0
 30 31  1  0  0  0  0
 31 28  2  0  0  0  0
 31 29  1  0  0  0  0
 32 30  1  0  0  0  0
 33 34  1  0  0  0  0
 34 35  1  0  0  0  0
 35 36  1  0  0  0  0
 36 37  1  0  0  0  0
M  END
>  <MODEL>
3

>  <REMARK>
 VINA RESULT:      -5.2      5.915      9.983
  Name = 
  4 active torsions:
  status: ('A' for Active; 'I' for Inactive)
    1  A    between atoms: C_1  and  C_17
    2  A    between atoms: C_6  and  C_31
    3  A    between atoms: C_11  and  C_26
    4  A    between atoms: C_17  and  C_26
                            x       y       z     vdW  Elec       q    Type
                         _______ _______ _______ _____ _____    ______ ____

>  <TORSDO>
F 4

$$$$
=
 OpenBabel10262423023D

 37 42  0  0  1  0  0  0  0  0999 V2000
  181.5880  179.7260  138.9490 C   0  0  1  0  0  3  0  0  0  0  0  0
  178.9310  175.5490  140.1410 C   0  0  0  0  0  2  0  0  0  0  0  0
  182.1410  175.7990  137.0230 C   0  0  2  0  0  3  0  0  0  0  0  0
  184.6030  177.9370  137.3170 C   0  0  2  0  0  3  0  0  0  0  0  0
  180.9060  174.4630  138.8590 C   0  0  1  0  0  3  0  0  0  0  0  0
  183.1390  176.4800  137.9950 C   0  0  1  0  0  3  0  0  0  0  0  0
  179.0200  179.7520  138.8910 S   0  0  0  0  0  0  0  0  0  0  0  0
  180.7930  175.4990  137.7000 C   0  0  1  0  0  3  0  0  0  0  0  0
  184.6270  176.4430  137.5930 C   0  0  1  0  0  3  0  0  0  0  0  0
  181.3530  175.0990  140.0350 O   0  0  0  0  0  0  0  0  0  0  0  0
  179.9190  176.7540  137.8290 C   0  0  0  0  0  2  0  0  0  0  0  0
  180.0010  177.2260  141.5000 O   0  0  0  0  0  1  0  0  0  0  0  0
  184.5710  173.3790  137.3880 C   0  0  0  0  0  1  0  0  0  0  0  0
  180.2500  178.9970  138.9360 C   0  0  0  0  0  0  0  0  0  0  0  0
  181.9430  173.8160  135.7310 O   0  0  0  0  0  0  0  0  0  0  0  0
  180.2150  177.4980  139.1220 C   0  0  1  0  0  3  0  0  0  0  0  0
  185.5890  178.6570  138.2280 C   0  0  0  0  0  1  0  0  0  0  0  0
  182.6960  174.5780  136.3170 C   0  0  0  0  0  0  0  0  0  0  0  0
  183.1300  177.9820  137.7520 C   0  0  1  0  0  3  0  0  0  0  0  0
  180.0700  174.5160  140.1060 C   0  0  1  0  0  3  0  0  0  0  0  0
  184.9100  175.6640  136.3050 C   0  0  2  0  0  3  0  0  0  0  0  0
  179.3430  177.0190  140.2870 C   0  0  1  0  0  3  0  0  0  0  0  0
  182.7770  178.7890  138.9910 C   0  0  0  0  0  0  0  0  0  0  0  0
  183.2940  178.4940  140.1880 C   0  0  0  0  0  2  0  0  0  0  0  0
  184.1700  174.3220  136.2620 C   0  0  1  0  0  3  0  0  0  0  0  0
  186.7390  174.3570  135.1120 C   0  0  0  0  0  2  0  0  0  0  0  0
  186.4060  175.5940  135.9710 C   0  0  2  0  0  3  0  0  0  0  0  0
  187.3070  175.7470  137.1710 C   0  0  0  0  0  3  0  0  0  0  0  0
  189.4280  175.5750  138.1320 F   0  0  0  0  0  0  0  0  0  0  0  0
  189.1400  174.9670  135.7460 C   0  0  0  0  0  2  0  0  0  0  0  0
  188.6090  175.4740  137.0530 C   0  0  0  0  0  0  0  0  0  0  0  0
  188.2030  173.8830  135.2120 C   0  0  0  0  0  2  0  0  0  0  0  0
  180.9290  180.4690  136.6220 C   0  0  0  0  0  1  0  0  0  0  0  0
  181.7100  180.8290  137.8760 C   0  0  1  0  0  3  0  0  0  0  0  0
  181.3290  182.2140  138.3930 C   0  0  0  0  0  2  0  0  0  0  0  0
  180.7910  183.0930  137.2750 C   0  0  0  0  0  2  0  0  0  0  0  0
  181.5490  184.4050  137.2160 C   0  0  0  0  0  1  0  0  0  0  0  0
  1 34  1  6  0  0  0
  1 23  1  0  0  0  0
  2 22  1  0  0  0  0
  3 18  1  1  0  0  0
  3  8  1  0  0  0  0
  3  6  1  0  0  0  0
  4  9  1  0  0  0  0
  4 19  1  0  0  0  0
  4 17  1  1  0  0  0
  5 10  1  1  0  0  0
  5 20  1  0  0  0  0
  7 14  2  0  0  0  0
  8 11  1  0  0  0  0
  8  5  1  0  0  0  0
  9  6  1  0  0  0  0
 10 20  1  0  0  0  0
 11 16  1  0  0  0  0
 14  1  1  0  0  0  0
 14 16  1  0  0  0  0
 15 18  2  0  0  0  0
 16 22  1  0  0  0  0
 19  6  1  0  0  0  0
 19 23  1  0  0  0  0
 20  2  1  0  0  0  0
 21  9  1  0  0  0  0
 22 12  1  0  0  0  0
 23 24  2  0  0  0  0
 25 21  1  0  0  0  0
 25 18  1  0  0  0  0
 25 13  1  0  0  0  0
 26 32  1  0  0  0  0
 26 27  1  0  0  0  0
 27 21  1  0  0  0  0
 27 28  1  0  0  0  0
 30 31  1  0  0  0  0
 31 28  2  0  0  0  0
 31 29  1  0  0  0  0
 32 30  1  0  0  0  0
 33 34  1  0  0  0  0
 34 35  1  0  0  0  0
 36 35  1  0  0  0  0
 37 36  1  0  0  0  0
M  END
>  <MODEL>
4

>  <REMARK>
 VINA RESULT:      -5.0      3.697      6.717
  Name = 
  4 active torsions:
  status: ('A' for Active; 'I' for Inactive)
    1  A    between atoms: C_1  and  C_17
    2  A    between atoms: C_6  and  C_31
    3  A    between atoms: C_11  and  C_26
    4  A    between atoms: C_17  and  C_26
                            x       y       z     vdW  Elec       q    Type
                         _______ _______ _______ _____ _____    ______ ____

>  <TORSDO>
F 4

$$$$
=
 OpenBabel10262423023D

 37 42  0  0  1  0  0  0  0  0999 V2000
  181.9750  177.5530  137.2270 C   0  0  1  0  0  3  0  0  0  0  0  0
  186.0410  175.3620  135.0830 C   0  0  0  0  0  2  0  0  0  0  0  0
  186.1390  178.2960  138.4700 C   0  0  2  0  0  3  0  0  0  0  0  0
  183.6460  178.5060  140.5820 C   0  0  2  0  0  3  0  0  0  0  0  0
  187.1100  176.2140  137.2860 C   0  0  1  0  0  3  0  0  0  0  0  0
  185.0770  177.5110  139.2820 C   0  0  1  0  0  3  0  0  0  0  0  0
  182.3630  177.7190  134.6940 S   0  0  0  0  0  0  0  0  0  0  0  0
  186.4510  177.6170  137.1260 C   0  0  1  0  0  3  0  0  0  0  0  0
  184.9900  177.8270  140.7890 C   0  0  1  0  0  3  0  0  0  0  0  0
  186.1220  175.2420  137.5440 O   0  0  0  0  0  0  0  0  0  0  0  0
  185.3590  177.8750  136.0800 C   0  0  0  0  0  2  0  0  0  0  0  0
  183.9170  174.4770  135.7990 O   0  0  0  0  0  1  0  0  0  0  0  0
  187.9690  177.1800  141.1720 C   0  0  0  0  0  1  0  0  0  0  0  0
  182.8780  177.4180  136.0090 C   0  0  0  0  0  0  0  0  0  0  0  0
  188.4010  178.9980  138.6520 O   0  0  0  0  0  0  0  0  0  0  0  0
  184.2600  176.8270  136.1650 C   0  0  1  0  0  3  0  0  0  0  0  0
  182.5660  177.7900  141.3830 C   0  0  0  0  0  1  0  0  0  0  0  0
  187.4030  178.6150  139.2430 C   0  0  0  0  0  0  0  0  0  0  0  0
  183.7150  178.1590  139.0860 C   0  0  1  0  0  3  0  0  0  0  0  0
  186.8560  175.0650  136.3530 C   0  0  1  0  0  3  0  0  0  0  0  0
  186.0310  178.8370  141.2800 C   0  0  2  0  0  3  0  0  0  0  0  0
  184.5400  175.6110  135.2760 C   0  0  1  0  0  3  0  0  0  0  0  0
  182.6710  177.2060  138.5260 C   0  0  0  0  0  0  0  0  0  0  0  0
  182.5520  175.9540  138.9810 C   0  0  0  0  0  2  0  0  0  0  0  0
  187.4340  178.5380  140.7370 C   0  0  1  0  0  3  0  0  0  0  0  0
  186.7310  178.0030  143.5800 C   0  0  0  0  0  2  0  0  0  0  0  0
  185.9560  179.0790  142.7930 C   0  0  2  0  0  3  0  0  0  0  0  0
  184.5550  179.2990  143.3070 C   0  0  0  0  0  3  0  0  0  0  0  0
  183.0680  179.4530  145.1010 F   0  0  0  0  0  0  0  0  0  0  0  0
  185.4620  179.0020  145.5630 C   0  0  0  0  0  2  0  0  0  0  0  0
  184.3290  179.2890  144.6240 C   0  0  0  0  0  0  0  0  0  0  0  0
  186.2600  177.8080  145.0350 C   0  0  0  0  0  2  0  0  0  0  0  0
  179.9740  178.7710  138.1840 C   0  0  0  0  0  1  0  0  0  0  0  0
  181.1930  178.8840  137.2830 C   0  0  1  0  0  3  0  0  0  0  0  0
  182.0660  180.0760  137.6690 C   0  0  0  0  0  2  0  0  0  0  0  0
  181.3340  181.0120  138.6180 C   0  0  0  0  0  2  0  0  0  0  0  0
  181.1280  182.3700  137.9750 C   0  0  0  0  0  1  0  0  0  0  0  0
  1 34  1  1  0  0  0
  1 23  1  0  0  0  0
  2 22  1  0  0  0  0
  2 20  1  0  0  0  0
  3 18  1  1  0  0  0
  3  6  1  0  0  0  0
  4  9  1  0  0  0  0
  4 17  1  1  0  0  0
  5 10  1  1  0  0  0
  6  9  1  0  0  0  0
  7 14  2  0  0  0  0
  8  5  1  0  0  0  0
  8  3  1  0  0  0  0
  9 21  1  0  0  0  0
 11 16  1  0  0  0  0
 11  8  1  0  0  0  0
 14 16  1  0  0  0  0
 14  1  1  0  0  0  0
 15 18  2  0  0  0  0
 18 25  1  0  0  0  0
 19  6  1  0  0  0  0
 19  4  1  0  0  0  0
 20  5  1  0  0  0  0
 20 10  1  0  0  0  0
 21 27  1  0  0  0  0
 22 12  1  0  0  0  0
 22 16  1  0  0  0  0
 23 24  2  0  0  0  0
 23 19  1  0  0  0  0
 25 13  1  0  0  0  0
 25 21  1  0  0  0  0
 26 32  1  0  0  0  0
 27 28  1  0  0  0  0
 27 26  1  0  0  0  0
 28 31  2  0  0  0  0
 31 29  1  0  0  0  0
 31 30  1  0  0  0  0
 32 30  1  0  0  0  0
 34 35  1  0  0  0  0
 34 33  1  0  0  0  0
 35 36  1  0  0  0  0
 37 36  1  0  0  0  0
M  END
>  <MODEL>
5

>  <REMARK>
 VINA RESULT:      -4.7      2.861      5.503
  Name = 
  4 active torsions:
  status: ('A' for Active; 'I' for Inactive)
    1  A    between atoms: C_1  and  C_17
    2  A    between atoms: C_6  and  C_31
    3  A    between atoms: C_11  and  C_26
    4  A    between atoms: C_17  and  C_26
                            x       y       z     vdW  Elec       q    Type
                         _______ _______ _______ _____ _____    ______ ____

>  <TORSDO>
F 4

$$$$
=
 OpenBabel10262423023D

 37 42  0  0  1  0  0  0  0  0999 V2000
  188.1200  178.1060  139.3430 C   0  0  1  0  0  3  0  0  0  0  0  0
  189.9710  175.2670  135.5430 C   0  0  0  0  0  2  0  0  0  0  0  0
  185.8220  175.0020  137.2180 C   0  0  2  0  0  3  0  0  0  0  0  0
  184.3690  177.6270  138.5280 C   0  0  2  0  0  3  0  0  0  0  0  0
  187.4330  174.8580  135.2020 C   0  0  1  0  0  3  0  0  0  0  0  0
  185.5960  176.5310  137.1070 C   0  0  1  0  0  3  0  0  0  0  0  0
  190.2760  176.7470  139.6600 S   0  0  0  0  0  0  0  0  0  0  0  0
  187.2180  174.5890  136.7220 C   0  0  1  0  0  3  0  0  0  0  0  0
  184.1340  177.0180  137.1560 C   0  0  1  0  0  3  0  0  0  0  0  0
  187.7620  176.2130  134.9930 O   0  0  0  0  0  0  0  0  0  0  0  0
  188.3120  174.8960  137.7530 C   0  0  0  0  0  2  0  0  0  0  0  0
  190.0990  177.6280  136.0070 O   0  0  0  0  0  1  0  0  0  0  0  0
  183.3720  175.2030  134.7980 C   0  0  0  0  0  1  0  0  0  0  0  0
  189.0790  177.0110  138.8970 C   0  0  0  0  0  0  0  0  0  0  0  0
  184.9140  172.9730  136.3780 O   0  0  0  0  0  0  0  0  0  0  0  0
  188.8490  176.3080  137.5790 C   0  0  1  0  0  3  0  0  0  0  0  0
  184.1340  179.1310  138.4850 C   0  0  0  0  0  1  0  0  0  0  0  0
  184.7310  174.1640  136.5800 C   0  0  0  0  0  0  0  0  0  0  0  0
  185.8370  177.1740  138.4640 C   0  0  1  0  0  3  0  0  0  0  0  0
  188.7480  175.2800  134.6100 C   0  0  1  0  0  3  0  0  0  0  0  0
  183.1000  175.8920  137.2400 C   0  0  2  0  0  3  0  0  0  0  0  0
  190.0320  176.3700  136.6070 C   0  0  1  0  0  3  0  0  0  0  0  0
  186.9140  178.2470  138.4390 C   0  0  0  0  0  0  0  0  0  0  0  0
  186.9760  179.1520  137.4550 C   0  0  0  0  0  2  0  0  0  0  0  0
  183.3960  174.7550  136.2530 C   0  0  1  0  0  3  0  0  0  0  0  0
  181.5360  177.7370  136.4480 C   0  0  0  0  0  2  0  0  0  0  0  0
  181.6560  176.4090  137.2230 C   0  0  2  0  0  3  0  0  0  0  0  0
  181.0080  176.4530  138.5850 C   0  0  0  0  0  3  0  0  0  0  0  0
  179.2670  177.1730  139.9660 F   0  0  0  0  0  0  0  0  0  0  0  0
  179.2380  177.8080  137.5690 C   0  0  0  0  0  2  0  0  0  0  0  0
  179.8470  177.0960  138.7400 C   0  0  0  0  0  0  0  0  0  0  0  0
  180.3260  178.6050  136.8470 C   0  0  0  0  0  2  0  0  0  0  0  0
  188.9860  178.2830  141.7130 C   0  0  0  0  0  1  0  0  0  0  0  0
  187.7610  178.0510  140.8440 C   0  0  1  0  0  3  0  0  0  0  0  0
  186.6200  178.9930  141.2230 C   0  0  0  0  0  2  0  0  0  0  0  0
  185.8970  178.5110  142.4700 C   0  0  0  0  0  2  0  0  0  0  0  0
  184.5520  177.9100  142.1090 C   0  0  0  0  0  1  0  0  0  0  0  0
  1 34  1  1  0  0  0
  2 22  1  0  0  0  0
  3 18  1  6  0  0  0
  4 17  1  6  0  0  0
  5 10  1  1  0  0  0
  5  8  1  0  0  0  0
  6  9  1  0  0  0  0
  6  3  1  0  0  0  0
  6 19  1  0  0  0  0
  8  3  1  0  0  0  0
  8 11  1  0  0  0  0
  9 21  1  0  0  0  0
  9  4  1  0  0  0  0
 12 22  1  0  0  0  0
 13 25  1  0  0  0  0
 14  1  1  0  0  0  0
 14  7  2  0  0  0  0
 15 18  2  0  0  0  0
 16 11  1  0  0  0  0
 16 14  1  0  0  0  0
 19  4  1  0  0  0  0
 20 10  1  0  0  0  0
 20  5  1  0  0  0  0
 20  2  1  0  0  0  0
 22 16  1  0  0  0  0
 23 19  1  0  0  0  0
 23  1  1  0  0  0  0
 24 23  2  0  0  0  0
 25 18  1  0  0  0  0
 25 21  1  0  0  0  0
 26 32  1  0  0  0  0
 26 27  1  0  0  0  0
 27 21  1  0  0  0  0
 27 28  1  0  0  0  0
 28 31  2  0  0  0  0
 30 31  1  0  0  0  0
 31 29  1  0  0  0  0
 32 30  1  0  0  0  0
 34 35  1  0  0  0  0
 34 33  1  0  0  0  0
 35 36  1  0  0  0  0
 37 36  1  0  0  0  0
M  END
>  <MODEL>
6

>  <REMARK>
 VINA RESULT:      -4.4      4.279      8.384
  Name = 
  4 active torsions:
  status: ('A' for Active; 'I' for Inactive)
    1  A    between atoms: C_1  and  C_17
    2  A    between atoms: C_6  and  C_31
    3  A    between atoms: C_11  and  C_26
    4  A    between atoms: C_17  and  C_26
                            x       y       z     vdW  Elec       q    Type
                         _______ _______ _______ _____ _____    ______ ____

>  <TORSDO>
F 4

$$$$
=
 OpenBabel10262423023D

 37 42  0  0  1  0  0  0  0  0999 V2000
  189.6500  177.1520  137.5710 C   0  0  1  0  0  3  0  0  0  0  0  0
  190.0520  172.6220  135.2820 C   0  0  0  0  0  2  0  0  0  0  0  0
  186.4020  174.1790  137.3670 C   0  0  2  0  0  3  0  0  0  0  0  0
  185.7910  177.3920  137.5060 C   0  0  2  0  0  3  0  0  0  0  0  0
  187.4720  172.7970  135.4620 C   0  0  1  0  0  3  0  0  0  0  0  0
  186.4460  175.5260  136.6020 C   0  0  1  0  0  3  0  0  0  0  0  0
  191.5320  175.5270  138.2160 S   0  0  0  0  0  0  0  0  0  0  0  0
  187.5520  173.2450  136.9520 C   0  0  1  0  0  3  0  0  0  0  0  0
  185.1480  176.3580  136.5960 C   0  0  1  0  0  3  0  0  0  0  0  0
  187.9920  173.8050  134.6250 O   0  0  0  0  0  0  0  0  0  0  0  0
  188.8850  173.6470  137.5970 C   0  0  0  0  0  2  0  0  0  0  0  0
  190.7170  174.8380  134.6080 O   0  0  0  0  0  1  0  0  0  0  0  0
  183.5590  174.0060  135.4230 C   0  0  0  0  0  1  0  0  0  0  0  0
  190.2660  175.7590  137.5610 C   0  0  0  0  0  0  0  0  0  0  0  0
  184.9700  172.3040  137.6480 O   0  0  0  0  0  0  0  0  0  0  0  0
  189.6230  174.6650  136.7410 C   0  0  1  0  0  3  0  0  0  0  0  0
  185.8360  178.7480  136.8140 C   0  0  0  0  0  1  0  0  0  0  0  0
  185.0610  173.4740  137.3090 C   0  0  0  0  0  0  0  0  0  0  0  0
  187.0970  176.5820  137.4830 C   0  0  1  0  0  3  0  0  0  0  0  0
  188.6770  172.5730  134.5950 C   0  0  1  0  0  3  0  0  0  0  0  0
  183.9670  175.6840  137.3010 C   0  0  2  0  0  3  0  0  0  0  0  0
  190.5510  174.0050  135.7160 C   0  0  1  0  0  3  0  0  0  0  0  0
  188.3220  177.2220  136.8490 C   0  0  0  0  0  0  0  0  0  0  0  0
  188.3320  177.5890  135.5630 C   0  0  0  0  0  2  0  0  0  0  0  0
  183.8200  174.2090  136.9090 C   0  0  1  0  0  3  0  0  0  0  0  0
  182.5980  177.3160  135.9070 C   0  0  0  0  0  2  0  0  0  0  0  0
  182.6770  176.5110  137.2200 C   0  0  2  0  0  3  0  0  0  0  0  0
  182.4110  177.3460  138.4480 C   0  0  0  0  0  3  0  0  0  0  0  0
  181.2240  179.0610  139.4990 F   0  0  0  0  0  0  0  0  0  0  0  0
  180.7050  178.5160  137.1370 C   0  0  0  0  0  2  0  0  0  0  0  0
  181.4550  178.2780  138.4130 C   0  0  0  0  0  0  0  0  0  0  0  0
  181.6970  178.5650  135.9740 C   0  0  0  0  0  2  0  0  0  0  0  0
  189.3110  179.3000  138.8640 C   0  0  0  0  0  1  0  0  0  0  0  0
  189.6300  177.8170  138.9650 C   0  0  1  0  0  3  0  0  0  0  0  0
  188.7030  177.1120  139.9520 C   0  0  0  0  0  2  0  0  0  0  0  0
  188.0150  178.1080  140.8720 C   0  0  0  0  0  2  0  0  0  0  0  0
  188.1690  177.6900  142.3220 C   0  0  0  0  0  1  0  0  0  0  0  0
  1 34  1  1  0  0  0
  2 22  1  0  0  0  0
  3 18  1  6  0  0  0
  4 17  1  6  0  0  0
  5 10  1  6  0  0  0
  5  8  1  0  0  0  0
  6  3  1  0  0  0  0
  6 19  1  0  0  0  0
  8  3  1  0  0  0  0
  8 11  1  0  0  0  0
  9  6  1  0  0  0  0
  9 21  1  0  0  0  0
  9  4  1  0  0  0  0
 12 22  1  0  0  0  0
 13 25  1  0  0  0  0
 14  1  1  0  0  0  0
 14  7  2  0  0  0  0
 16 14  1  0  0  0  0
 16 11  1  0  0  0  0
 18 15  2  0  0  0  0
 19  4  1  0  0  0  0
 20 10  1  0  0  0  0
 20  2  1  0  0  0  0
 20  5  1  0  0  0  0
 22 16  1  0  0  0  0
 23 19  1  0  0  0  0
 23  1  1  0  0  0  0
 24 23  2  0  0  0  0
 25 21  1  0  0  0  0
 25 18  1  0  0  0  0
 26 32  1  0  0  0  0
 26 27  1  0  0  0  0
 27 21  1  0  0  0  0
 27 28  1  0  0  0  0
 30 31  1  0  0  0  0
 31 28  2  0  0  0  0
 31 29  1  0  0  0  0
 32 30  1  0  0  0  0
 33 34  1  0  0  0  0
 34 35  1  0  0  0  0
 35 36  1  0  0  0  0
 36 37  1  0  0  0  0
M  END
>  <MODEL>
7

>  <REMARK>
 VINA RESULT:      -4.4      4.943      8.941
  Name = 
  4 active torsions:
  status: ('A' for Active; 'I' for Inactive)
    1  A    between atoms: C_1  and  C_17
    2  A    between atoms: C_6  and  C_31
    3  A    between atoms: C_11  and  C_26
    4  A    between atoms: C_17  and  C_26
                            x       y       z     vdW  Elec       q    Type
                         _______ _______ _______ _____ _____    ______ ____

>  <TORSDO>
F 4

$$$$
=
 OpenBabel10262423023D

 37 42  0  0  1  0  0  0  0  0999 V2000
  182.1560  178.6060  139.0550 C   0  0  1  0  0  3  0  0  0  0  0  0
  184.1940  175.8380  135.2980 C   0  0  0  0  0  2  0  0  0  0  0  0
  186.4790  178.3400  138.2320 C   0  0  2  0  0  3  0  0  0  0  0  0
  185.3280  178.8560  141.2530 C   0  0  2  0  0  3  0  0  0  0  0  0
  186.3050  176.2280  136.7520 C   0  0  1  0  0  3  0  0  0  0  0  0
  185.7480  177.7180  139.4490 C   0  0  1  0  0  3  0  0  0  0  0  0
  181.3880  178.9360  136.6260 S   0  0  0  0  0  0  0  0  0  0  0  0
  185.9870  177.7470  136.9010 C   0  0  1  0  0  3  0  0  0  0  0  0
  186.4240  177.8950  140.8230 C   0  0  1  0  0  3  0  0  0  0  0  0
  185.3450  175.4630  137.4460 O   0  0  0  0  0  0  0  0  0  0  0  0
  184.6330  178.3280  136.4740 C   0  0  0  0  0  2  0  0  0  0  0  0
  182.4800  175.3490  136.9200 O   0  0  0  0  0  1  0  0  0  0  0  0
  189.0180  176.6080  139.7970 C   0  0  0  0  0  1  0  0  0  0  0  0
  182.3550  178.4070  137.5580 C   0  0  0  0  0  0  0  0  0  0  0  0
  188.6740  178.5340  137.3440 O   0  0  0  0  0  0  0  0  0  0  0  0
  183.4820  177.5280  137.0650 C   0  0  1  0  0  3  0  0  0  0  0  0
  184.5920  178.3060  142.4680 C   0  0  0  0  0  1  0  0  0  0  0  0
  187.9910  178.3120  138.3320 C   0  0  0  0  0  0  0  0  0  0  0  0
  184.6340  178.6510  139.8970 C   0  0  1  0  0  3  0  0  0  0  0  0
  185.4010  175.2540  136.0520 C   0  0  1  0  0  3  0  0  0  0  0  0
  187.7760  178.6130  140.7710 C   0  0  2  0  0  3  0  0  0  0  0  0
  183.0430  176.3740  136.1590 C   0  0  1  0  0  3  0  0  0  0  0  0
  183.2620  177.9960  139.8900 C   0  0  0  0  0  0  0  0  0  0  0  0
  183.0760  176.7580  140.3600 C   0  0  0  0  0  2  0  0  0  0  0  0
  188.6730  178.0830  139.6450 C   0  0  1  0  0  3  0  0  0  0  0  0
  189.9860  178.6600  142.0330 C   0  0  0  0  0  2  0  0  0  0  0  0
  188.4480  178.7160  142.1450 C   0  0  2  0  0  3  0  0  0  0  0  0
  187.8920  177.7580  143.1690 C   0  0  0  0  0  3  0  0  0  0  0  0
  188.0680  176.7000  145.2440 F   0  0  0  0  0  0  0  0  0  0  0  0
  189.8340  178.3000  144.5600 C   0  0  0  0  0  2  0  0  0  0  0  0
  188.5380  177.5830  144.3250 C   0  0  0  0  0  0  0  0  0  0  0  0
  190.7060  178.1800  143.3080 C   0  0  0  0  0  2  0  0  0  0  0  0
  182.2610  181.0440  138.3850 C   0  0  0  0  0  1  0  0  0  0  0  0
  181.8130  180.0590  139.4520 C   0  0  1  0  0  3  0  0  0  0  0  0
  180.3410  180.2510  139.8080 C   0  0  0  0  0  2  0  0  0  0  0  0
  179.9200  179.3250  140.9390 C   0  0  0  0  0  2  0  0  0  0  0  0
  180.0570  180.0230  142.2780 C   0  0  0  0  0  1  0  0  0  0  0  0
  1 34  1  6  0  0  0
  1 23  1  0  0  0  0
  2 20  1  0  0  0  0
  2 22  1  0  0  0  0
  3 18  1  1  0  0  0
  3  6  1  0  0  0  0
  4 17  1  1  0  0  0
  5  8  1  0  0  0  0
  5 10  1  1  0  0  0
  6 19  1  0  0  0  0
  6  9  1  0  0  0  0
  7 14  2  0  0  0  0
  8  3  1  0  0  0  0
  9  4  1  0  0  0  0
 11  8  1  0  0  0  0
 11 16  1  0  0  0  0
 14  1  1  0  0  0  0
 15 18  2  0  0  0  0
 16 14  1  0  0  0  0
 18 25  1  0  0  0  0
 19  4  1  0  0  0  0
 20  5  1  0  0  0  0
 20 10  1  0  0  0  0
 21  9  1  0  0  0  0
 21 27  1  0  0  0  0
 22 12  1  0  0  0  0
 22 16  1  0  0  0  0
 23 19  1  0  0  0  0
 23 24  2  0  0  0  0
 25 13  1  0  0  0  0
 25 21  1  0  0  0  0
 26 27  1  0  0  0  0
 26 32  1  0  0  0  0
 27 28  1  0  0  0  0
 28 31  2  0  0  0  0
 31 30  1  0  0  0  0
 31 29  1  0  0  0  0
 32 30  1  0  0  0  0
 33 34  1  0  0  0  0
 34 35  1  0  0  0  0
 35 36  1  0  0  0  0
 36 37  1  0  0  0  0
M  END
>  <MODEL>
8

>  <REMARK>
 VINA RESULT:      -4.0      2.740      5.447
  Name = 
  4 active torsions:
  status: ('A' for Active; 'I' for Inactive)
    1  A    between atoms: C_1  and  C_17
    2  A    between atoms: C_6  and  C_31
    3  A    between atoms: C_11  and  C_26
    4  A    between atoms: C_17  and  C_26
                            x       y       z     vdW  Elec       q    Type
                         _______ _______ _______ _____ _____    ______ ____

>  <TORSDO>
F 4

$$$$
=
 OpenBabel10262423023D

 37 42  0  0  1  0  0  0  0  0999 V2000
  186.2880  178.6600  140.2330 C   0  0  1  0  0  3  0  0  0  0  0  0
  189.5070  177.8610  136.3680 C   0  0  0  0  0  2  0  0  0  0  0  0
  185.8870  175.3880  137.3050 C   0  0  2  0  0  3  0  0  0  0  0  0
  183.2800  176.7170  138.7720 C   0  0  2  0  0  3  0  0  0  0  0  0
  187.4980  176.4290  135.5720 C   0  0  1  0  0  3  0  0  0  0  0  0
  184.9680  176.6320  137.4050 C   0  0  1  0  0  3  0  0  0  0  0  0
  188.8060  178.3950  140.6650 S   0  0  0  0  0  0  0  0  0  0  0  0
  187.3400  175.7720  136.9760 C   0  0  1  0  0  3  0  0  0  0  0  0
  183.4510  176.3780  137.3010 C   0  0  1  0  0  3  0  0  0  0  0  0
  187.1540  177.7940  135.6350 O   0  0  0  0  0  0  0  0  0  0  0  0
  188.0870  176.3120  138.2020 C   0  0  0  0  0  2  0  0  0  0  0  0
  188.4650  179.8610  137.2170 O   0  0  0  0  0  1  0  0  0  0  0  0
  183.7980  174.9690  134.5940 C   0  0  0  0  0  1  0  0  0  0  0  0
  187.6800  178.2430  139.7750 C   0  0  0  0  0  0  0  0  0  0  0  0
  186.1110  173.4020  136.0210 O   0  0  0  0  0  0  0  0  0  0  0  0
  187.8970  177.8150  138.3420 C   0  0  1  0  0  3  0  0  0  0  0  0
  182.3600  177.9200  138.9320 C   0  0  0  0  0  1  0  0  0  0  0  0
  185.3710  174.3060  136.3790 C   0  0  0  0  0  0  0  0  0  0  0  0
  184.7860  177.0060  138.8690 C   0  0  1  0  0  3  0  0  0  0  0  0
  188.4870  177.5170  135.2690 C   0  0  1  0  0  3  0  0  0  0  0  0
  183.0750  174.9170  137.0400 C   0  0  2  0  0  3  0  0  0  0  0  0
  188.9670  178.6130  137.5910 C   0  0  1  0  0  3  0  0  0  0  0  0
  185.2210  178.4290  139.1840 C   0  0  0  0  0  0  0  0  0  0  0  0
  184.9080  179.4500  138.3800 C   0  0  0  0  0  2  0  0  0  0  0  0
  183.9390  174.2800  135.9440 C   0  0  1  0  0  3  0  0  0  0  0  0
  181.2300  173.2820  136.4070 C   0  0  0  0  0  2  0  0  0  0  0  0
  181.5630  174.7120  136.8790 C   0  0  2  0  0  3  0  0  0  0  0  0
  180.8870  175.7820  136.0590 C   0  0  0  0  0  3  0  0  0  0  0  0
  179.0160  176.5400  134.8840 F   0  0  0  0  0  0  0  0  0  0  0  0
  178.9310  174.3110  135.9680 C   0  0  0  0  0  2  0  0  0  0  0  0
  179.6280  175.6000  135.6510 C   0  0  0  0  0  0  0  0  0  0  0  0
  179.8780  173.1460  135.6790 C   0  0  0  0  0  2  0  0  0  0  0  0
  187.1020  177.5100  142.3350 C   0  0  0  0  0  1  0  0  0  0  0  0
  185.9040  178.1270  141.6310 C   0  0  1  0  0  3  0  0  0  0  0  0
  185.2210  179.1760  142.5050 C   0  0  0  0  0  2  0  0  0  0  0  0
  183.7690  178.8120  142.7720 C   0  0  0  0  0  2  0  0  0  0  0  0
  183.3920  179.1390  144.2040 C   0  0  0  0  0  1  0  0  0  0  0  0
  1 34  1  1  0  0  0
  2 22  1  0  0  0  0
  3 18  1  6  0  0  0
  3  6  1  0  0  0  0
  4 19  1  0  0  0  0
  4 17  1  6  0  0  0
  5 10  1  1  0  0  0
  5  8  1  0  0  0  0
  6 19  1  0  0  0  0
  8  3  1  0  0  0  0
  8 11  1  0  0  0  0
  9  6  1  0  0  0  0
  9  4  1  0  0  0  0
 11 16  1  0  0  0  0
 12 22  1  0  0  0  0
 13 25  1  0  0  0  0
 14  1  1  0  0  0  0
 14  7  2  0  0  0  0
 15 18  2  0  0  0  0
 16 14  1  0  0  0  0
 19 23  1  0  0  0  0
 20  5  1  0  0  0  0
 20 10  1  0  0  0  0
 20  2  1  0  0  0  0
 21  9  1  0  0  0  0
 22 16  1  0  0  0  0
 23  1  1  0  0  0  0
 24 23  2  0  0  0  0
 25 18  1  0  0  0  0
 25 21  1  0  0  0  0
 26 27  1  0  0  0  0
 27 21  1  0  0  0  0
 28 27  1  0  0  0  0
 29 31  1  0  0  0  0
 31 30  1  0  0  0  0
 31 28  2  0  0  0  0
 32 30  1  0  0  0  0
 32 26  1  0  0  0  0
 34 33  1  0  0  0  0
 34 35  1  0  0  0  0
 35 36  1  0  0  0  0
 36 37  1  0  0  0  0
M  END
>  <MODEL>
9

>  <REMARK>
 VINA RESULT:      -4.0      4.318      8.576
  Name = 
  4 active torsions:
  status: ('A' for Active; 'I' for Inactive)
    1  A    between atoms: C_1  and  C_17
    2  A    between atoms: C_6  and  C_31
    3  A    between atoms: C_11  and  C_26
    4  A    between atoms: C_17  and  C_26
                            x       y       z     vdW  Elec       q    Type
                         _______ _______ _______ _____ _____    ______ ____

>  <TORSDO>
F 4

$$$$
