=
 OpenBabel10252414563D

 34 39  0  0  1  0  0  0  0  0999 V2000
  186.9790  178.3920  138.8620 C   0  0  2  0  0  3  0  0  0  0  0  0
  189.6410  178.6180  138.9500 C   0  0  1  0  0  3  0  0  0  0  0  0
  188.2130  177.6860  140.9580 C   0  0  2  0  0  3  0  0  0  0  0  0
  189.6770  177.2080  143.1320 C   0  0  2  0  0  3  0  0  0  0  0  0
  189.5100  178.7610  137.5660 O   0  0  0  0  0  1  0  0  0  0  0  0
  190.8590  177.4930  140.8230 C   0  0  0  0  0  2  0  0  0  0  0  0
  188.2820  178.5210  139.6790 C   0  0  2  0  0  3  0  0  0  0  0  0
  189.4990  175.9760  142.2660 C   0  0  0  0  0  2  0  0  0  0  0  0
  187.2380  178.3870  141.8970 C   0  0  2  0  0  3  0  0  0  0  0  0
  185.7590  178.1450  139.7800 C   0  0  0  0  0  2  0  0  0  0  0  0
  190.6250  177.5070  139.3100 C   0  0  1  0  0  3  0  0  0  0  0  0
  188.3970  177.5150  143.9390 C   0  0  0  0  0  2  0  0  0  0  0  0
  187.0730  177.5460  143.1620 C   0  0  1  0  0  3  0  0  0  0  0  0
  189.5580  177.3460  141.6130 C   0  0  2  0  0  0  0  0  0  0  0  0
  185.9060  178.7440  141.1910 C   0  0  0  0  0  2  0  0  0  0  0  0
  183.6900  178.7790  144.4120 C   0  0  0  0  0  0  0  0  0  0  0  0
  183.9600  178.9630  145.7720 C   0  0  0  0  0  3  0  0  0  0  0  0
  185.9760  178.0430  144.0570 C   0  0  0  0  0  0  0  0  0  0  0  0
  185.2350  178.6880  146.2740 C   0  0  0  0  0  3  0  0  0  0  0  0
  184.6940  178.3210  143.5560 C   0  0  0  0  0  3  0  0  0  0  0  0
  186.2410  178.2290  145.4190 C   0  0  0  0  0  3  0  0  0  0  0  0
  182.4540  179.0450  143.9250 F   0  0  0  0  0  0  0  0  0  0  0  0
  186.2560  177.5660  136.6190 C   0  0  0  0  0  1  0  0  0  0  0  0
  187.0640  177.2470  137.8620 C   0  0  0  0  0  2  0  0  0  0  0  0
  190.1770  176.1470  138.7690 C   0  0  0  0  0  2  0  0  0  0  0  0
  190.9910  174.2640  137.3060 C   0  0  0  0  0  0  0  0  0  0  0  0
  191.2340  175.5020  137.9280 C   0  0  0  0  0  0  0  0  0  0  0  0
  193.4480  175.5710  136.9350 C   0  0  0  0  0  3  0  0  0  0  0  0
  193.2170  174.3350  136.3290 C   0  0  0  0  0  3  0  0  0  0  0  0
  191.9940  173.6850  136.5120 C   0  0  0  0  0  3  0  0  0  0  0  0
  192.4580  176.1540  137.7300 C   0  0  0  0  0  3  0  0  0  0  0  0
  189.7540  173.6340  137.4820 O   0  0  0  0  0  0  0  0  0  0  0  0
  188.9210  173.2510  136.3960 C   0  0  0  0  0  2  0  0  0  0  0  0
  188.4410  174.4890  135.6690 C   0  0  0  0  0  1  0  0  0  0  0  0
  1 24  1  6  0  0  0
  1  7  1  0  0  0  0
  1 10  1  0  0  0  0
  2  5  1  6  0  0  0
  2 11  1  0  0  0  0
  2  7  1  0  0  0  0
  3 14  1  0  0  0  0
  3  9  1  0  0  0  0
  4 12  1  0  0  0  0
  6 14  1  0  0  0  0
  7  3  1  0  0  0  0
  8  4  1  0  0  0  0
  9 13  1  0  0  0  0
 10 15  1  0  0  0  0
 11  6  1  0  0  0  0
 13 12  1  0  0  0  0
 13 18  1  0  0  0  0
 14  8  1  0  0  0  0
 14  4  1  0  0  0  0
 15  9  1  0  0  0  0
 16 17  1  0  0  0  0
 17 19  2  0  0  0  0
 18 21  2  0  0  0  0
 20 18  1  0  0  0  0
 20 16  2  0  0  0  0
 21 19  1  0  0  0  0
 22 16  1  0  0  0  0
 23 24  1  0  0  0  0
 25 11  1  0  0  0  0
 26 32  1  0  0  0  0
 26 27  1  0  0  0  0
 27 25  1  0  0  0  0
 28 31  1  0  0  0  0
 29 30  1  0  0  0  0
 29 28  2  0  0  0  0
 30 26  2  0  0  0  0
 31 27  2  0  0  0  0
 33 32  1  0  0  0  0
 34 33  1  0  0  0  0
M  END
>  <MODEL>
1

>  <REMARK>
 VINA RESULT:      -8.5      0.000      0.000
  Name = 
  6 active torsions:
  status: ('A' for Active; 'I' for Inactive)
    1  A    between atoms: C_1  and  C_19
    2  A    between atoms: O_3  and  C_13
    3  A    between atoms: O_3  and  C_17
    4  A    between atoms: C_11  and  C_14
    5  A    between atoms: C_11  and  C_25
    6  A    between atoms: C_12  and  C_28
                            x       y       z     vdW  Elec       q    Type
                         _______ _______ _______ _____ _____    ______ ____

>  <TORSDO>
F 6

$$$$
=
 OpenBabel10252414563D

 34 39  0  0  1  0  0  0  0  0999 V2000
  186.7760  178.5460  139.7250 C   0  0  2  0  0  3  0  0  0  0  0  0
  189.3850  178.7000  139.1650 C   0  0  1  0  0  3  0  0  0  0  0  0
  188.4550  177.6400  141.3900 C   0  0  2  0  0  3  0  0  0  0  0  0
  190.3860  176.9490  143.0910 C   0  0  2  0  0  3  0  0  0  0  0  0
  188.9240  178.9590  137.8720 O   0  0  0  0  0  1  0  0  0  0  0  0
  190.9760  177.3960  140.5890 C   0  0  0  0  0  2  0  0  0  0  0  0
  188.2440  178.5750  140.2000 C   0  0  2  0  0  3  0  0  0  0  0  0
  189.9480  175.7980  142.2090 C   0  0  0  0  0  2  0  0  0  0  0  0
  187.7720  178.2850  142.5920 C   0  0  2  0  0  3  0  0  0  0  0  0
  185.8100  178.2530  140.8970 C   0  0  0  0  0  2  0  0  0  0  0  0
  190.3780  177.5400  139.1860 C   0  0  1  0  0  3  0  0  0  0  0  0
  189.3590  177.2200  144.2110 C   0  0  0  0  0  2  0  0  0  0  0  0
  187.8860  177.3460  143.7920 C   0  0  1  0  0  3  0  0  0  0  0  0
  189.9040  177.2150  141.6640 C   0  0  2  0  0  0  0  0  0  0  0  0
  186.3240  178.7300  142.2670 C   0  0  0  0  0  2  0  0  0  0  0  0
  186.8410  178.3190  147.3260 C   0  0  0  0  0  0  0  0  0  0  0  0
  185.4950  178.6400  147.1260 C   0  0  0  0  0  3  0  0  0  0  0  0
  187.0660  177.7940  144.9660 C   0  0  0  0  0  0  0  0  0  0  0  0
  184.9350  178.5380  145.8500 C   0  0  0  0  0  3  0  0  0  0  0  0
  187.6260  177.8970  146.2500 C   0  0  0  0  0  3  0  0  0  0  0  0
  185.7180  178.1160  144.7720 C   0  0  0  0  0  3  0  0  0  0  0  0
  187.3850  178.4180  148.5630 F   0  0  0  0  0  0  0  0  0  0  0  0
  185.4490  177.8990  137.7110 C   0  0  0  0  0  1  0  0  0  0  0  0
  186.5620  177.4840  138.6530 C   0  0  0  0  0  2  0  0  0  0  0  0
  189.7520  176.2400  138.6750 C   0  0  0  0  0  2  0  0  0  0  0  0
  190.0080  175.6380  136.2420 C   0  0  0  0  0  0  0  0  0  0  0  0
  190.5350  175.6460  137.5460 C   0  0  0  0  0  0  0  0  0  0  0  0
  192.5640  174.5880  136.7370 C   0  0  0  0  0  3  0  0  0  0  0  0
  192.0380  174.5630  135.4440 C   0  0  0  0  0  3  0  0  0  0  0  0
  190.7670  175.0870  135.1970 C   0  0  0  0  0  3  0  0  0  0  0  0
  191.8160  175.1310  137.7840 C   0  0  0  0  0  3  0  0  0  0  0  0
  188.7410  176.1840  136.0050 O   0  0  0  0  0  0  0  0  0  0  0  0
  187.6610  175.4270  135.4780 C   0  0  0  0  0  2  0  0  0  0  0  0
  187.1430  174.4820  136.5410 C   0  0  0  0  0  1  0  0  0  0  0  0
  1 24  1  6  0  0  0
  1  7  1  0  0  0  0
  1 10  1  0  0  0  0
  2  5  1  6  0  0  0
  2 11  1  0  0  0  0
  2  7  1  0  0  0  0
  3 14  1  0  0  0  0
  3  9  1  0  0  0  0
  4 12  1  0  0  0  0
  6 14  1  0  0  0  0
  7  3  1  0  0  0  0
  8  4  1  0  0  0  0
  9 13  1  0  0  0  0
 10 15  1  0  0  0  0
 11  6  1  0  0  0  0
 13 12  1  0  0  0  0
 13 18  1  0  0  0  0
 14  8  1  0  0  0  0
 14  4  1  0  0  0  0
 15  9  1  0  0  0  0
 16 22  1  0  0  0  0
 17 16  1  0  0  0  0
 18 20  1  0  0  0  0
 19 17  2  0  0  0  0
 20 16  2  0  0  0  0
 21 18  2  0  0  0  0
 21 19  1  0  0  0  0
 23 24  1  0  0  0  0
 25 11  1  0  0  0  0
 26 27  1  0  0  0  0
 27 31  2  0  0  0  0
 27 25  1  0  0  0  0
 28 31  1  0  0  0  0
 29 28  2  0  0  0  0
 30 29  1  0  0  0  0
 30 26  2  0  0  0  0
 32 26  1  0  0  0  0
 33 32  1  0  0  0  0
 33 34  1  0  0  0  0
M  END
>  <MODEL>
2

>  <REMARK>
 VINA RESULT:      -8.0      1.643      1.989
  Name = 
  6 active torsions:
  status: ('A' for Active; 'I' for Inactive)
    1  A    between atoms: C_1  and  C_19
    2  A    between atoms: O_3  and  C_13
    3  A    between atoms: O_3  and  C_17
    4  A    between atoms: C_11  and  C_14
    5  A    between atoms: C_11  and  C_25
    6  A    between atoms: C_12  and  C_28
                            x       y       z     vdW  Elec       q    Type
                         _______ _______ _______ _____ _____    ______ ____

>  <TORSDO>
F 6

$$$$
=
 OpenBabel10252414563D

 34 39  0  0  1  0  0  0  0  0999 V2000
  186.8080  178.6320  140.3500 C   0  0  2  0  0  3  0  0  0  0  0  0
  189.3080  178.7070  139.4080 C   0  0  1  0  0  3  0  0  0  0  0  0
  188.6720  177.5740  141.6990 C   0  0  2  0  0  3  0  0  0  0  0  0
  190.7990  176.7180  143.0540 C   0  0  2  0  0  3  0  0  0  0  0  0
  188.6720  179.0510  138.2120 O   0  0  0  0  0  1  0  0  0  0  0  0
  191.0290  177.2670  140.5140 C   0  0  0  0  0  2  0  0  0  0  0  0
  188.3300  178.5770  140.5970 C   0  0  2  0  0  3  0  0  0  0  0  0
  190.1790  175.6320  142.1980 C   0  0  0  0  0  2  0  0  0  0  0  0
  188.2090  178.1830  143.0180 C   0  0  2  0  0  3  0  0  0  0  0  0
  186.0150  178.3200  141.6410 C   0  0  0  0  0  2  0  0  0  0  0  0
  190.2350  177.5080  139.2260 C   0  0  1  0  0  3  0  0  0  0  0  0
  189.9660  176.9730  144.3280 C   0  0  0  0  0  2  0  0  0  0  0  0
  188.4550  177.1810  144.1440 C   0  0  1  0  0  3  0  0  0  0  0  0
  190.1230  177.0760  141.7300 C   0  0  2  0  0  0  0  0  0  0  0  0
  186.7510  178.7050  142.9370 C   0  0  0  0  0  2  0  0  0  0  0  0
  185.9090  178.1330  146.8150 C   0  0  0  0  0  0  0  0  0  0  0  0
  186.7480  178.3820  147.9050 C   0  0  0  0  0  3  0  0  0  0  0  0
  187.8430  177.6010  145.4470 C   0  0  0  0  0  0  0  0  0  0  0  0
  188.1320  178.2410  147.7680 C   0  0  0  0  0  3  0  0  0  0  0  0
  186.4530  177.7440  145.5880 C   0  0  0  0  0  3  0  0  0  0  0  0
  188.6780  177.8520  146.5430 C   0  0  0  0  0  3  0  0  0  0  0  0
  184.5670  178.2690  146.9470 F   0  0  0  0  0  0  0  0  0  0  0  0
  185.3450  178.2540  138.3620 C   0  0  0  0  0  1  0  0  0  0  0  0
  186.3850  177.6370  139.2770 C   0  0  0  0  0  2  0  0  0  0  0  0
  189.4770  176.2630  138.7590 C   0  0  0  0  0  2  0  0  0  0  0  0
  190.7850  175.1460  136.9170 C   0  0  0  0  0  0  0  0  0  0  0  0
  189.7170  175.9720  137.3100 C   0  0  0  0  0  0  0  0  0  0  0  0
  189.0490  176.2180  134.9890 C   0  0  0  0  0  3  0  0  0  0  0  0
  190.1180  175.4120  134.5940 C   0  0  0  0  0  3  0  0  0  0  0  0
  190.9810  174.8770  135.5530 C   0  0  0  0  0  3  0  0  0  0  0  0
  188.8470  176.4940  136.3430 C   0  0  0  0  0  3  0  0  0  0  0  0
  191.6300  174.6010  137.8900 O   0  0  0  0  0  0  0  0  0  0  0  0
  193.0160  174.9070  137.9670 C   0  0  0  0  0  2  0  0  0  0  0  0
  193.2370  176.3470  137.5560 C   0  0  0  0  0  1  0  0  0  0  0  0
  1 24  1  6  0  0  0
  1  7  1  0  0  0  0
  1 10  1  0  0  0  0
  2  5  1  6  0  0  0
  2  7  1  0  0  0  0
  3 14  1  0  0  0  0
  3  9  1  0  0  0  0
  4 12  1  0  0  0  0
  6 14  1  0  0  0  0
  7  3  1  0  0  0  0
  8  4  1  0  0  0  0
  9 13  1  0  0  0  0
 10 15  1  0  0  0  0
 11  2  1  0  0  0  0
 11  6  1  0  0  0  0
 13 12  1  0  0  0  0
 13 18  1  0  0  0  0
 14  8  1  0  0  0  0
 14  4  1  0  0  0  0
 15  9  1  0  0  0  0
 16 22  1  0  0  0  0
 16 17  1  0  0  0  0
 18 20  1  0  0  0  0
 18 21  2  0  0  0  0
 19 17  2  0  0  0  0
 20 16  2  0  0  0  0
 21 19  1  0  0  0  0
 23 24  1  0  0  0  0
 25 11  1  0  0  0  0
 26 27  1  0  0  0  0
 26 32  1  0  0  0  0
 27 25  1  0  0  0  0
 28 31  1  0  0  0  0
 29 28  2  0  0  0  0
 29 30  1  0  0  0  0
 30 26  2  0  0  0  0
 31 27  2  0  0  0  0
 32 33  1  0  0  0  0
 34 33  1  0  0  0  0
M  END
>  <MODEL>
3

>  <REMARK>
 VINA RESULT:      -7.7      1.566      2.525
  Name = 
  6 active torsions:
  status: ('A' for Active; 'I' for Inactive)
    1  A    between atoms: C_1  and  C_19
    2  A    between atoms: O_3  and  C_13
    3  A    between atoms: O_3  and  C_17
    4  A    between atoms: C_11  and  C_14
    5  A    between atoms: C_11  and  C_25
    6  A    between atoms: C_12  and  C_28
                            x       y       z     vdW  Elec       q    Type
                         _______ _______ _______ _____ _____    ______ ____

>  <TORSDO>
F 6

$$$$
=
 OpenBabel10252414563D

 34 39  0  0  1  0  0  0  0  0999 V2000
  179.9050  179.0340  142.1300 C   0  0  2  0  0  3  0  0  0  0  0  0
  180.4530  180.4060  139.9030 C   0  0  1  0  0  3  0  0  0  0  0  0
  182.2400  178.9310  141.1560 C   0  0  2  0  0  3  0  0  0  0  0  0
  184.6750  179.1330  140.0950 C   0  0  2  0  0  3  0  0  0  0  0  0
  179.0620  180.4840  139.8040 O   0  0  0  0  0  1  0  0  0  0  0  0
  182.6030  179.9210  138.7180 C   0  0  0  0  0  2  0  0  0  0  0  0
  180.9300  179.7180  141.2010 C   0  0  2  0  0  3  0  0  0  0  0  0
  183.8970  177.9530  139.5470 C   0  0  0  0  0  2  0  0  0  0  0  0
  182.9260  179.1280  142.5040 C   0  0  2  0  0  3  0  0  0  0  0  0
  180.6040  178.2720  143.2790 C   0  0  0  0  0  2  0  0  0  0  0  0
  181.0760  179.8390  138.6290 C   0  0  1  0  0  3  0  0  0  0  0  0
  185.2090  178.8430  141.5130 C   0  0  0  0  0  2  0  0  0  0  0  0
  184.2050  178.2930  142.5380 C   0  0  1  0  0  3  0  0  0  0  0  0
  183.1540  179.2130  139.9560 C   0  0  2  0  0  0  0  0  0  0  0  0
  181.9640  178.8670  143.6900 C   0  0  0  0  0  2  0  0  0  0  0  0
  186.7410  177.7990  145.3400 C   0  0  0  0  0  0  0  0  0  0  0  0
  185.9930  178.2010  146.4500 C   0  0  0  0  0  3  0  0  0  0  0  0
  184.8430  178.2530  143.8950 C   0  0  0  0  0  0  0  0  0  0  0  0
  184.6720  178.6280  146.2840 C   0  0  0  0  0  3  0  0  0  0  0  0
  186.1700  177.8240  144.0650 C   0  0  0  0  0  3  0  0  0  0  0  0
  184.0980  178.6540  145.0100 C   0  0  0  0  0  3  0  0  0  0  0  0
  188.0220  177.3860  145.4990 F   0  0  0  0  0  0  0  0  0  0  0  0
  179.6800  176.6750  141.3410 C   0  0  0  0  0  1  0  0  0  0  0  0
  179.0350  178.0470  141.3620 C   0  0  0  0  0  2  0  0  0  0  0  0
  180.5780  178.4230  138.3290 C   0  0  0  0  0  2  0  0  0  0  0  0
  181.6120  176.5670  136.9740 C   0  0  0  0  0  0  0  0  0  0  0  0
  181.1410  177.8900  137.0490 C   0  0  0  0  0  0  0  0  0  0  0  0
  181.6700  178.2130  134.7020 C   0  0  0  0  0  3  0  0  0  0  0  0
  182.1540  176.9060  134.6280 C   0  0  0  0  0  3  0  0  0  0  0  0
  182.1240  176.0850  135.7590 C   0  0  0  0  0  3  0  0  0  0  0  0
  181.1620  178.7020  135.9070 C   0  0  0  0  0  3  0  0  0  0  0  0
  181.5580  175.7500  138.1100 O   0  0  0  0  0  0  0  0  0  0  0  0
  180.8060  174.5450  138.1580 C   0  0  0  0  0  2  0  0  0  0  0  0
  179.3340  174.8630  138.0100 C   0  0  0  0  0  1  0  0  0  0  0  0
  1 24  1  6  0  0  0
  1 10  1  0  0  0  0
  2  5  1  6  0  0  0
  2  7  1  0  0  0  0
  3  7  1  0  0  0  0
  3  9  1  0  0  0  0
  4 12  1  0  0  0  0
  6 14  1  0  0  0  0
  7  1  1  0  0  0  0
  8 14  1  0  0  0  0
  8  4  1  0  0  0  0
  9 13  1  0  0  0  0
  9 15  1  0  0  0  0
 10 15  1  0  0  0  0
 11  6  1  0  0  0  0
 11  2  1  0  0  0  0
 12 13  1  0  0  0  0
 13 18  1  0  0  0  0
 14  4  1  0  0  0  0
 14  3  1  0  0  0  0
 16 22  1  0  0  0  0
 16 17  1  0  0  0  0
 18 20  1  0  0  0  0
 18 21  2  0  0  0  0
 19 17  2  0  0  0  0
 20 16  2  0  0  0  0
 21 19  1  0  0  0  0
 23 24  1  0  0  0  0
 25 11  1  0  0  0  0
 26 27  1  0  0  0  0
 26 32  1  0  0  0  0
 27 25  1  0  0  0  0
 28 31  1  0  0  0  0
 29 28  2  0  0  0  0
 29 30  1  0  0  0  0
 30 26  2  0  0  0  0
 31 27  2  0  0  0  0
 32 33  1  0  0  0  0
 34 33  1  0  0  0  0
M  END
>  <MODEL>
4

>  <REMARK>
 VINA RESULT:      -7.3      5.536      7.731
  Name = 
  6 active torsions:
  status: ('A' for Active; 'I' for Inactive)
    1  A    between atoms: C_1  and  C_19
    2  A    between atoms: O_3  and  C_13
    3  A    between atoms: O_3  and  C_17
    4  A    between atoms: C_11  and  C_14
    5  A    between atoms: C_11  and  C_25
    6  A    between atoms: C_12  and  C_28
                            x       y       z     vdW  Elec       q    Type
                         _______ _______ _______ _____ _____    ______ ____

>  <TORSDO>
F 6

$$$$
=
 OpenBabel10252414563D

 34 39  0  0  1  0  0  0  0  0999 V2000
  185.3460  177.4210  136.9330 C   0  0  2  0  0  3  0  0  0  0  0  0
  187.6930  178.6880  136.7500 C   0  0  1  0  0  3  0  0  0  0  0  0
  186.6160  177.9880  139.0500 C   0  0  2  0  0  3  0  0  0  0  0  0
  188.0010  178.8660  141.1490 C   0  0  2  0  0  3  0  0  0  0  0  0
  187.6090  178.3040  135.4100 O   0  0  0  0  0  1  0  0  0  0  0  0
  189.1270  178.8160  138.7960 C   0  0  0  0  0  2  0  0  0  0  0  0
  186.4360  178.3110  137.5670 C   0  0  2  0  0  3  0  0  0  0  0  0
  188.3800  177.4540  140.7510 C   0  0  0  0  0  2  0  0  0  0  0  0
  185.3830  178.5160  139.7750 C   0  0  2  0  0  3  0  0  0  0  0  0
  184.2640  177.0320  137.9670 C   0  0  0  0  0  2  0  0  0  0  0  0
  189.0080  178.2390  137.3830 C   0  0  1  0  0  3  0  0  0  0  0  0
  186.6530  178.8940  141.9010 C   0  0  0  0  0  2  0  0  0  0  0  0
  185.4780  178.1450  141.2540 C   0  0  1  0  0  3  0  0  0  0  0  0
  187.9390  178.4390  139.6820 C   0  0  2  0  0  0  0  0  0  0  0  0
  184.0680  178.0680  139.0890 C   0  0  0  0  0  2  0  0  0  0  0  0
  183.0460  178.9180  144.0850 C   0  0  0  0  0  0  0  0  0  0  0  0
  181.8370  178.9820  143.3870 C   0  0  0  0  0  3  0  0  0  0  0  0
  184.2170  178.4360  142.0140 C   0  0  0  0  0  0  0  0  0  0  0  0
  181.8160  178.7730  142.0050 C   0  0  0  0  0  3  0  0  0  0  0  0
  184.2340  178.6450  143.4020 C   0  0  0  0  0  3  0  0  0  0  0  0
  183.0030  178.5000  141.3200 C   0  0  0  0  0  3  0  0  0  0  0  0
  183.0670  179.1210  145.4250 F   0  0  0  0  0  0  0  0  0  0  0  0
  185.2810  174.9250  136.9800 C   0  0  0  0  0  1  0  0  0  0  0  0
  185.9420  176.1410  136.3610 C   0  0  0  0  0  2  0  0  0  0  0  0
  189.1680  176.7160  137.3510 C   0  0  0  0  0  2  0  0  0  0  0  0
  191.5970  176.2170  137.7990 C   0  0  0  0  0  0  0  0  0  0  0  0
  190.5300  176.3050  136.8870 C   0  0  0  0  0  0  0  0  0  0  0  0
  191.9950  175.5680  135.0970 C   0  0  0  0  0  3  0  0  0  0  0  0
  193.0600  175.4950  135.9960 C   0  0  0  0  0  3  0  0  0  0  0  0
  192.8620  175.8160  137.3410 C   0  0  0  0  0  3  0  0  0  0  0  0
  190.7330  175.9680  135.5420 C   0  0  0  0  0  3  0  0  0  0  0  0
  191.3800  176.5230  139.1470 O   0  0  0  0  0  0  0  0  0  0  0  0
  192.2830  177.3050  139.9160 C   0  0  0  0  0  2  0  0  0  0  0  0
  191.7900  177.3850  141.3450 C   0  0  0  0  0  1  0  0  0  0  0  0
  1 24  1  1  0  0  0
  1  7  1  0  0  0  0
  1 10  1  0  0  0  0
  2  5  1  6  0  0  0
  2 11  1  0  0  0  0
  2  7  1  0  0  0  0
  3 14  1  0  0  0  0
  3  9  1  0  0  0  0
  4 12  1  0  0  0  0
  6 14  1  0  0  0  0
  7  3  1  0  0  0  0
  8  4  1  0  0  0  0
  9 13  1  0  0  0  0
 10 15  1  0  0  0  0
 11  6  1  0  0  0  0
 13 12  1  0  0  0  0
 13 18  1  0  0  0  0
 14  8  1  0  0  0  0
 14  4  1  0  0  0  0
 15  9  1  0  0  0  0
 16 22  1  0  0  0  0
 17 16  2  0  0  0  0
 18 20  2  0  0  0  0
 19 17  1  0  0  0  0
 20 16  1  0  0  0  0
 21 19  2  0  0  0  0
 21 18  1  0  0  0  0
 24 23  1  0  0  0  0
 25 11  1  0  0  0  0
 26 32  1  0  0  0  0
 27 25  1  0  0  0  0
 27 26  2  0  0  0  0
 28 31  2  0  0  0  0
 28 29  1  0  0  0  0
 29 30  2  0  0  0  0
 30 26  1  0  0  0  0
 31 27  1  0  0  0  0
 32 33  1  0  0  0  0
 33 34  1  0  0  0  0
M  END
>  <MODEL>
5

>  <REMARK>
 VINA RESULT:      -7.0      1.894      3.178
  Name = 
  6 active torsions:
  status: ('A' for Active; 'I' for Inactive)
    1  A    between atoms: C_1  and  C_19
    2  A    between atoms: O_3  and  C_13
    3  A    between atoms: O_3  and  C_17
    4  A    between atoms: C_11  and  C_14
    5  A    between atoms: C_11  and  C_25
    6  A    between atoms: C_12  and  C_28
                            x       y       z     vdW  Elec       q    Type
                         _______ _______ _______ _____ _____    ______ ____

>  <TORSDO>
F 6

$$$$
=
 OpenBabel10252414563D

 34 39  0  0  1  0  0  0  0  0999 V2000
  190.3290  177.8520  139.2100 C   0  0  2  0  0  3  0  0  0  0  0  0
  188.9470  178.5410  137.0280 C   0  0  1  0  0  3  0  0  0  0  0  0
  190.4720  176.3960  137.1420 C   0  0  2  0  0  3  0  0  0  0  0  0
  190.6530  175.1310  134.8050 C   0  0  2  0  0  3  0  0  0  0  0  0
  188.2750  179.3810  137.9190 O   0  0  0  0  0  1  0  0  0  0  0  0
  188.7380  176.8620  135.1850 C   0  0  0  0  0  2  0  0  0  0  0  0
  190.1250  177.7840  137.6810 C   0  0  2  0  0  3  0  0  0  0  0  0
  189.5650  174.5610  135.6930 C   0  0  0  0  0  2  0  0  0  0  0  0
  191.9890  176.2550  137.2170 C   0  0  2  0  0  3  0  0  0  0  0  0
  191.4570  176.9000  139.6710 C   0  0  0  0  0  2  0  0  0  0  0  0
  187.9780  177.6460  136.2590 C   0  0  1  0  0  3  0  0  0  0  0  0
  192.0530  174.6780  135.2720 C   0  0  0  0  0  2  0  0  0  0  0  0
  192.3810  174.8500  136.7630 C   0  0  1  0  0  3  0  0  0  0  0  0
  189.8910  176.0430  135.7670 C   0  0  2  0  0  0  0  0  0  0  0  0
  192.5420  176.6520  138.6080 C   0  0  0  0  0  2  0  0  0  0  0  0
  196.1830  174.8790  136.5050 C   0  0  0  0  0  0  0  0  0  0  0  0
  196.5230  173.9330  137.4770 C   0  0  0  0  0  3  0  0  0  0  0  0
  193.8300  174.5400  136.9970 C   0  0  0  0  0  0  0  0  0  0  0  0
  195.5190  173.2910  138.2080 C   0  0  0  0  0  3  0  0  0  0  0  0
  194.8410  175.1820  136.2640 C   0  0  0  0  0  3  0  0  0  0  0  0
  194.1760  173.5940  137.9690 C   0  0  0  0  0  3  0  0  0  0  0  0
  197.1560  175.5010  135.7960 F   0  0  0  0  0  0  0  0  0  0  0  0
  189.2840  177.5220  141.4530 C   0  0  0  0  0  1  0  0  0  0  0  0
  189.0540  177.4800  139.9550 C   0  0  0  0  0  2  0  0  0  0  0  0
  187.1720  176.7390  137.1930 C   0  0  0  0  0  2  0  0  0  0  0  0
  184.9640  177.7120  137.9170 C   0  0  0  0  0  0  0  0  0  0  0  0
  185.6970  176.9210  137.0150 C   0  0  0  0  0  0  0  0  0  0  0  0
  183.6770  176.5040  135.7350 C   0  0  0  0  0  3  0  0  0  0  0  0
  182.9430  177.2750  136.6370 C   0  0  0  0  0  3  0  0  0  0  0  0
  183.5830  177.8780  137.7230 C   0  0  0  0  0  3  0  0  0  0  0  0
  185.0500  176.3300  135.9220 C   0  0  0  0  0  3  0  0  0  0  0  0
  185.6210  178.3270  138.9900 O   0  0  0  0  0  0  0  0  0  0  0  0
  184.9320  179.0030  140.0320 C   0  0  0  0  0  2  0  0  0  0  0  0
  185.7850  179.0010  141.2830 C   0  0  0  0  0  1  0  0  0  0  0  0
  1 10  1  0  0  0  0
  1 24  1  1  0  0  0
  2  7  1  0  0  0  0
  2  5  1  1  0  0  0
  3  9  1  0  0  0  0
  3  7  1  0  0  0  0
  4 12  1  0  0  0  0
  4  8  1  0  0  0  0
  4 14  1  0  0  0  0
  6 14  1  0  0  0  0
  6 11  1  0  0  0  0
  7  1  1  0  0  0  0
  8 14  1  0  0  0  0
  9 15  1  0  0  0  0
 11  2  1  0  0  0  0
 11 25  1  0  0  0  0
 12 13  1  0  0  0  0
 13 18  1  0  0  0  0
 13  9  1  0  0  0  0
 14  3  1  0  0  0  0
 15 10  1  0  0  0  0
 16 17  1  0  0  0  0
 17 19  2  0  0  0  0
 18 21  2  0  0  0  0
 20 16  2  0  0  0  0
 20 18  1  0  0  0  0
 21 19  1  0  0  0  0
 22 16  1  0  0  0  0
 24 23  1  0  0  0  0
 26 32  1  0  0  0  0
 27 25  1  0  0  0  0
 27 26  2  0  0  0  0
 28 31  2  0  0  0  0
 28 29  1  0  0  0  0
 29 30  2  0  0  0  0
 30 26  1  0  0  0  0
 31 27  1  0  0  0  0
 32 33  1  0  0  0  0
 33 34  1  0  0  0  0
M  END
>  <MODEL>
6

>  <REMARK>
 VINA RESULT:      -6.7      3.766      8.803
  Name = 
  6 active torsions:
  status: ('A' for Active; 'I' for Inactive)
    1  A    between atoms: C_1  and  C_19
    2  A    between atoms: O_3  and  C_13
    3  A    between atoms: O_3  and  C_17
    4  A    between atoms: C_11  and  C_14
    5  A    between atoms: C_11  and  C_25
    6  A    between atoms: C_12  and  C_28
                            x       y       z     vdW  Elec       q    Type
                         _______ _______ _______ _____ _____    ______ ____

>  <TORSDO>
F 6

$$$$
=
 OpenBabel10252414563D

 34 39  0  0  1  0  0  0  0  0999 V2000
  187.8340  177.0130  137.6720 C   0  0  2  0  0  3  0  0  0  0  0  0
  188.7310  178.7200  139.5220 C   0  0  1  0  0  3  0  0  0  0  0  0
  186.2170  177.9440  139.3850 C   0  0  2  0  0  3  0  0  0  0  0  0
  184.6500  179.2030  141.1330 C   0  0  2  0  0  3  0  0  0  0  0  0
  189.9810  178.2530  139.1110 O   0  0  0  0  0  1  0  0  0  0  0  0
  187.2380  179.2520  141.4580 C   0  0  0  0  0  2  0  0  0  0  0  0
  187.5650  178.1410  138.6900 C   0  0  2  0  0  3  0  0  0  0  0  0
  185.1640  177.8780  141.6600 C   0  0  0  0  0  2  0  0  0  0  0  0
  185.1350  178.2500  138.3540 C   0  0  2  0  0  3  0  0  0  0  0  0
  186.5170  176.4700  137.0710 C   0  0  0  0  0  2  0  0  0  0  0  0
  188.5490  178.5850  141.0330 C   0  0  1  0  0  3  0  0  0  0  0  0
  183.5120  178.9960  140.1100 C   0  0  0  0  0  2  0  0  0  0  0  0
  183.7660  177.9880  138.9790 C   0  0  1  0  0  3  0  0  0  0  0  0
  186.0280  178.6910  140.7110 C   0  0  2  0  0  0  0  0  0  0  0  0
  185.3780  177.5050  137.0180 C   0  0  0  0  0  2  0  0  0  0  0  0
  181.0860  179.3270  136.6220 C   0  0  0  0  0  0  0  0  0  0  0  0
  180.5550  178.1360  136.1190 C   0  0  0  0  0  3  0  0  0  0  0  0
  182.6450  178.0580  137.9840 C   0  0  0  0  0  0  0  0  0  0  0  0
  181.0660  176.9070  136.5470 C   0  0  0  0  0  3  0  0  0  0  0  0
  182.1280  179.2900  137.5520 C   0  0  0  0  0  3  0  0  0  0  0  0
  182.1080  176.8680  137.4770 C   0  0  0  0  0  3  0  0  0  0  0  0
  180.5910  180.5180  136.2070 F   0  0  0  0  0  0  0  0  0  0  0  0
  189.5680  175.2470  137.3390 C   0  0  0  0  0  1  0  0  0  0  0  0
  188.5790  175.8510  138.3170 C   0  0  0  0  0  2  0  0  0  0  0  0
  188.6460  177.1280  141.4930 C   0  0  0  0  0  2  0  0  0  0  0  0
  188.9470  177.0950  143.9940 C   0  0  0  0  0  0  0  0  0  0  0  0
  189.5060  176.9800  142.7090 C   0  0  0  0  0  0  0  0  0  0  0  0
  191.6800  176.5320  143.6920 C   0  0  0  0  0  3  0  0  0  0  0  0
  191.1330  176.6610  144.9690 C   0  0  0  0  0  3  0  0  0  0  0  0
  189.7720  176.9400  145.1200 C   0  0  0  0  0  3  0  0  0  0  0  0
  190.8690  176.6880  142.5660 C   0  0  0  0  0  3  0  0  0  0  0  0
  187.5790  177.3550  144.1310 O   0  0  0  0  0  0  0  0  0  0  0  0
  186.9440  177.5030  145.3940 C   0  0  0  0  0  2  0  0  0  0  0  0
  185.6980  178.3480  145.2350 C   0  0  0  0  0  1  0  0  0  0  0  0
  1 24  1  1  0  0  0
  1  7  1  0  0  0  0
  2  5  1  6  0  0  0
  2 11  1  0  0  0  0
  3 14  1  0  0  0  0
  4  8  1  0  0  0  0
  7  3  1  0  0  0  0
  7  2  1  0  0  0  0
  9 13  1  0  0  0  0
  9  3  1  0  0  0  0
 10  1  1  0  0  0  0
 11  6  1  0  0  0  0
 11 25  1  0  0  0  0
 12  4  1  0  0  0  0
 13 12  1  0  0  0  0
 14  4  1  0  0  0  0
 14  6  1  0  0  0  0
 14  8  1  0  0  0  0
 15 10  1  0  0  0  0
 15  9  1  0  0  0  0
 16 20  1  0  0  0  0
 17 19  1  0  0  0  0
 17 16  2  0  0  0  0
 18 13  1  0  0  0  0
 19 21  2  0  0  0  0
 20 18  2  0  0  0  0
 21 18  1  0  0  0  0
 22 16  1  0  0  0  0
 23 24  1  0  0  0  0
 25 27  1  0  0  0  0
 26 32  1  0  0  0  0
 26 30  1  0  0  0  0
 27 26  2  0  0  0  0
 28 29  1  0  0  0  0
 29 30  2  0  0  0  0
 31 27  1  0  0  0  0
 31 28  2  0  0  0  0
 32 33  1  0  0  0  0
 34 33  1  0  0  0  0
M  END
>  <MODEL>
7

>  <REMARK>
 VINA RESULT:      -6.7      2.998      6.422
  Name = 
  6 active torsions:
  status: ('A' for Active; 'I' for Inactive)
    1  A    between atoms: C_1  and  C_19
    2  A    between atoms: O_3  and  C_13
    3  A    between atoms: O_3  and  C_17
    4  A    between atoms: C_11  and  C_14
    5  A    between atoms: C_11  and  C_25
    6  A    between atoms: C_12  and  C_28
                            x       y       z     vdW  Elec       q    Type
                         _______ _______ _______ _____ _____    ______ ____

>  <TORSDO>
F 6

$$$$
=
 OpenBabel10252414563D

 34 39  0  0  1  0  0  0  0  0999 V2000
  184.4590  178.6200  141.7670 C   0  0  2  0  0  3  0  0  0  0  0  0
  186.1240  179.4120  139.8310 C   0  0  1  0  0  3  0  0  0  0  0  0
  186.9230  178.0650  141.9490 C   0  0  2  0  0  3  0  0  0  0  0  0
  189.5690  177.7760  142.0530 C   0  0  2  0  0  3  0  0  0  0  0  0
  184.9380  179.6120  139.1200 O   0  0  0  0  0  1  0  0  0  0  0  0
  188.4370  178.4600  139.8030 C   0  0  0  0  0  2  0  0  0  0  0  0
  185.8840  178.9750  141.2940 C   0  0  2  0  0  3  0  0  0  0  0  0
  188.8790  176.5940  141.4020 C   0  0  0  0  0  2  0  0  0  0  0  0
  187.0160  178.4760  143.4150 C   0  0  2  0  0  3  0  0  0  0  0  0
  184.4660  178.0560  143.2060 C   0  0  0  0  0  2  0  0  0  0  0  0
  187.0970  178.5200  139.0640 C   0  0  1  0  0  3  0  0  0  0  0  0
  189.4060  177.7470  143.5870 C   0  0  0  0  0  2  0  0  0  0  0  0
  187.9860  177.5390  144.1340 C   0  0  1  0  0  3  0  0  0  0  0  0
  188.2850  177.9830  141.2480 C   0  0  2  0  0  0  0  0  0  0  0  0
  185.6200  178.5800  144.0800 C   0  0  0  0  0  2  0  0  0  0  0  0
  189.1550  177.8610  147.7470 C   0  0  0  0  0  0  0  0  0  0  0  0
  187.9410  178.0910  148.4000 C   0  0  0  0  0  3  0  0  0  0  0  0
  187.9880  177.7270  145.6220 C   0  0  0  0  0  0  0  0  0  0  0  0
  186.7520  178.1400  147.6670 C   0  0  0  0  0  3  0  0  0  0  0  0
  189.1800  177.6790  146.3620 C   0  0  0  0  0  3  0  0  0  0  0  0
  186.7750  177.9580  146.2820 C   0  0  0  0  0  3  0  0  0  0  0  0
  190.3080  177.8140  148.4570 F   0  0  0  0  0  0  0  0  0  0  0  0
  182.3580  177.9310  140.6070 C   0  0  0  0  0  1  0  0  0  0  0  0
  183.8140  177.5870  140.8520 C   0  0  0  0  0  2  0  0  0  0  0  0
  186.5100  177.1330  138.7910 C   0  0  0  0  0  2  0  0  0  0  0  0
  187.5230  176.1460  136.7060 C   0  0  0  0  0  0  0  0  0  0  0  0
  186.4590  176.8230  137.3280 C   0  0  0  0  0  0  0  0  0  0  0  0
  185.2580  176.8800  135.2190 C   0  0  0  0  0  3  0  0  0  0  0  0
  186.3190  176.2230  134.5940 C   0  0  0  0  0  3  0  0  0  0  0  0
  187.4460  175.8550  135.3340 C   0  0  0  0  0  3  0  0  0  0  0  0
  185.3270  177.1770  136.5820 C   0  0  0  0  0  3  0  0  0  0  0  0
  188.6370  175.7660  137.4640 O   0  0  0  0  0  0  0  0  0  0  0  0
  189.9520  176.2260  137.1850 C   0  0  0  0  0  2  0  0  0  0  0  0
  190.8380  175.9770  138.3870 C   0  0  0  0  0  1  0  0  0  0  0  0
  1 24  1  6  0  0  0
  1 10  1  0  0  0  0
  2  5  1  6  0  0  0
  2  7  1  0  0  0  0
  3  9  1  0  0  0  0
  4 12  1  0  0  0  0
  6 14  1  0  0  0  0
  7  1  1  0  0  0  0
  7  3  1  0  0  0  0
  8  4  1  0  0  0  0
  9 15  1  0  0  0  0
  9 13  1  0  0  0  0
 10 15  1  0  0  0  0
 11  6  1  0  0  0  0
 11  2  1  0  0  0  0
 12 13  1  0  0  0  0
 13 18  1  0  0  0  0
 14  8  1  0  0  0  0
 14  3  1  0  0  0  0
 14  4  1  0  0  0  0
 16 17  1  0  0  0  0
 16 22  1  0  0  0  0
 18 21  2  0  0  0  0
 18 20  1  0  0  0  0
 19 17  2  0  0  0  0
 20 16  2  0  0  0  0
 21 19  1  0  0  0  0
 23 24  1  0  0  0  0
 25 11  1  0  0  0  0
 26 27  1  0  0  0  0
 26 32  1  0  0  0  0
 27 25  1  0  0  0  0
 28 31  1  0  0  0  0
 29 28  2  0  0  0  0
 29 30  1  0  0  0  0
 30 26  2  0  0  0  0
 31 27  2  0  0  0  0
 33 32  1  0  0  0  0
 33 34  1  0  0  0  0
M  END
>  <MODEL>
8

>  <REMARK>
 VINA RESULT:      -6.6      2.437      4.376
  Name = 
  6 active torsions:
  status: ('A' for Active; 'I' for Inactive)
    1  A    between atoms: C_1  and  C_19
    2  A    between atoms: O_3  and  C_13
    3  A    between atoms: O_3  and  C_17
    4  A    between atoms: C_11  and  C_14
    5  A    between atoms: C_11  and  C_25
    6  A    between atoms: C_12  and  C_28
                            x       y       z     vdW  Elec       q    Type
                         _______ _______ _______ _____ _____    ______ ____

>  <TORSDO>
F 6

$$$$
=
 OpenBabel10252414563D

 34 39  0  0  1  0  0  0  0  0999 V2000
  186.4470  177.9060  142.0860 C   0  0  2  0  0  3  0  0  0  0  0  0
  187.8150  176.2150  143.6390 C   0  0  1  0  0  3  0  0  0  0  0  0
  188.8790  177.4320  141.5600 C   0  0  2  0  0  3  0  0  0  0  0  0
  191.3690  176.6320  141.0560 C   0  0  2  0  0  3  0  0  0  0  0  0
  186.7410  176.4060  144.5120 O   0  0  0  0  0  1  0  0  0  0  0  0
  190.3020  176.1260  143.3820 C   0  0  0  0  0  2  0  0  0  0  0  0
  187.6290  176.9330  142.2840 C   0  0  2  0  0  3  0  0  0  0  0  0
  191.3210  177.8750  141.9210 C   0  0  0  0  0  2  0  0  0  0  0  0
  188.6310  177.2530  140.0660 C   0  0  2  0  0  3  0  0  0  0  0  0
  186.5390  178.6360  140.7260 C   0  0  0  0  0  2  0  0  0  0  0  0
  189.1510  176.5020  144.3210 C   0  0  1  0  0  3  0  0  0  0  0  0
  191.0710  176.9640  139.5780 C   0  0  0  0  0  2  0  0  0  0  0  0
  189.8230  177.8140  139.2930 C   0  0  1  0  0  3  0  0  0  0  0  0
  190.2130  176.8420  142.0350 C   0  0  2  0  0  0  0  0  0  0  0  0
  187.2610  177.8300  139.6300 C   0  0  0  0  0  2  0  0  0  0  0  0
  189.9040  177.0010  135.5700 C   0  0  0  0  0  0  0  0  0  0  0  0
  189.1080  178.0300  135.0560 C   0  0  0  0  0  3  0  0  0  0  0  0
  189.5860  177.8750  137.8120 C   0  0  0  0  0  0  0  0  0  0  0  0
  188.5520  178.9800  135.9170 C   0  0  0  0  0  3  0  0  0  0  0  0
  190.1430  176.9230  136.9440 C   0  0  0  0  0  3  0  0  0  0  0  0
  188.7900  178.9030  137.2920 C   0  0  0  0  0  3  0  0  0  0  0  0
  190.4430  176.0800  134.7350 F   0  0  0  0  0  0  0  0  0  0  0  0
  184.9710  179.2470  143.5900 C   0  0  0  0  0  1  0  0  0  0  0  0
  186.4050  178.9560  143.1890 C   0  0  0  0  0  2  0  0  0  0  0  0
  189.2420  177.9470  144.8180 C   0  0  0  0  0  2  0  0  0  0  0  0
  189.7620  177.7860  147.2780 C   0  0  0  0  0  0  0  0  0  0  0  0
  188.8410  178.0720  146.2550 C   0  0  0  0  0  0  0  0  0  0  0  0
  187.1690  178.6510  147.9170 C   0  0  0  0  0  3  0  0  0  0  0  0
  188.0750  178.3510  148.9360 C   0  0  0  0  0  3  0  0  0  0  0  0
  189.3660  177.9230  148.6180 C   0  0  0  0  0  3  0  0  0  0  0  0
  187.5520  178.5140  146.5810 C   0  0  0  0  0  3  0  0  0  0  0  0
  191.0590  177.3750  146.9450 O   0  0  0  0  0  0  0  0  0  0  0  0
  191.6990  176.2660  147.5610 C   0  0  0  0  0  2  0  0  0  0  0  0
  192.2800  175.3640  146.4940 C   0  0  0  0  0  1  0  0  0  0  0  0
  1  7  1  0  0  0  0
  1 24  1  1  0  0  0
  2 11  1  0  0  0  0
  2  5  1  1  0  0  0
  3 14  1  0  0  0  0
  3  7  1  0  0  0  0
  4  8  1  0  0  0  0
  4 14  1  0  0  0  0
  6 11  1  0  0  0  0
  7  2  1  0  0  0  0
  8 14  1  0  0  0  0
  9  3  1  0  0  0  0
 10  1  1  0  0  0  0
 11 25  1  0  0  0  0
 12  4  1  0  0  0  0
 13 12  1  0  0  0  0
 13  9  1  0  0  0  0
 14  6  1  0  0  0  0
 15  9  1  0  0  0  0
 15 10  1  0  0  0  0
 16 20  1  0  0  0  0
 17 16  2  0  0  0  0
 17 19  1  0  0  0  0
 18 13  1  0  0  0  0
 19 21  2  0  0  0  0
 20 18  2  0  0  0  0
 21 18  1  0  0  0  0
 22 16  1  0  0  0  0
 24 23  1  0  0  0  0
 25 27  1  0  0  0  0
 26 30  1  0  0  0  0
 27 31  1  0  0  0  0
 27 26  2  0  0  0  0
 28 29  1  0  0  0  0
 30 29  2  0  0  0  0
 31 28  2  0  0  0  0
 32 26  1  0  0  0  0
 32 33  1  0  0  0  0
 34 33  1  0  0  0  0
M  END
>  <MODEL>
9

>  <REMARK>
 VINA RESULT:      -6.6      3.747      8.256
  Name = 
  6 active torsions:
  status: ('A' for Active; 'I' for Inactive)
    1  A    between atoms: C_1  and  C_19
    2  A    between atoms: O_3  and  C_13
    3  A    between atoms: O_3  and  C_17
    4  A    between atoms: C_11  and  C_14
    5  A    between atoms: C_11  and  C_25
    6  A    between atoms: C_12  and  C_28
                            x       y       z     vdW  Elec       q    Type
                         _______ _______ _______ _____ _____    ______ ____

>  <TORSDO>
F 6

$$$$
