=
 OpenBabel10262422463D

 37 44  0  0  1  0  0  0  0  0999 V2000
  180.5020  178.8450  140.0660 C   0  0  0  0  0  2  0  0  0  0  0  0
  184.7200  178.1830  140.4060 C   0  0  0  0  0  0  0  0  0  0  0  0
  179.6830  180.1180  140.0640 C   0  0  1  0  0  3  0  0  0  0  0  0
  183.1210  178.5380  143.8210 C   0  0  0  0  0  2  0  0  0  0  0  0
  184.7800  177.8610  137.9850 C   0  0  0  0  0  0  0  0  0  0  0  0
  183.8780  178.0700  141.4320 C   0  0  0  0  0  0  0  0  0  0  0  0
  179.9360  178.5080  142.9130 C   0  0  1  0  0  3  0  0  0  0  0  0
  184.1340  177.7260  139.1630 C   0  0  2  0  0  3  0  0  0  0  0  0
  184.2500  178.2790  142.8640 C   0  0  0  0  0  0  0  0  0  0  0  0
  186.1250  178.4780  137.9890 C   0  0  0  0  0  3  0  0  0  0  0  0
  178.9700  180.2140  141.3970 C   0  0  0  0  0  2  0  0  0  0  0  0
  182.7600  177.2750  139.5200 C   0  0  0  0  0  0  0  0  0  0  0  0
  182.7230  175.7530  139.4980 C   0  0  0  0  0  2  0  0  0  0  0  0
  186.9320  177.7730  141.3140 C   0  0  0  0  0  3  0  0  0  0  0  0
  186.7380  178.8590  139.1190 C   0  0  0  0  0  3  0  0  0  0  0  0
  181.7620  176.5380  138.6390 C   0  0  0  0  0  2  0  0  0  0  0  0
  179.8870  180.0090  142.6060 C   0  0  2  0  0  3  0  0  0  0  0  0
  182.2630  179.7040  143.3720 C   0  0  0  0  0  2  0  0  0  0  0  0
  186.1200  178.7000  140.4880 C   0  0  0  0  0  0  0  0  0  0  0  0
  182.4690  177.7310  140.9630 C   0  0  2  0  0  3  0  0  0  0  0  0
  185.5010  178.0560  143.3730 C   0  0  0  0  0  0  0  0  0  0  0  0
  181.1900  179.2200  142.4010 C   0  0  1  0  0  0  0  0  0  0  0  0
  179.9260  178.3050  144.4190 C   0  0  0  0  0  1  0  0  0  0  0  0
  181.6290  178.9540  141.0040 N   0  0  2  0  0  0  0  0  0  0  0  0
  186.6460  177.5200  142.5900 C   0  0  0  0  0  3  0  0  0  0  0  0
  185.2090  179.2010  145.5280 C   0  0  0  0  0  3  0  0  0  0  0  0
  185.7840  178.2150  144.8220 C   0  0  0  0  0  0  0  0  0  0  0  0
  186.7870  177.3460  145.4790 C   0  0  0  0  0  3  0  0  0  0  0  0
  188.2100  176.8150  147.2800 O   0  0  0  0  0  1  0  0  0  0  0  0
  186.8950  178.9430  147.3570 C   0  0  0  0  0  2  0  0  0  0  0  0
  187.2840  177.6560  146.6810 C   0  0  0  0  0  0  0  0  0  0  0  0
  185.4600  179.3390  147.0040 C   0  0  0  0  0  2  0  0  0  0  0  0
  184.4880  176.3230  136.0850 C   0  0  0  0  0  3  0  0  0  0  0  0
  184.2350  177.4840  136.6720 C   0  0  0  0  0  3  0  0  0  0  0  0
  183.9360  176.0370  134.8460 O   0  0  0  0  0  1  0  0  0  0  0  0
  179.8430  181.9850  138.8850 C   0  0  0  0  0  1  0  0  0  0  0  0
  180.5000  181.2340  139.8610 O   0  0  0  0  0  0  0  0  0  0  0  0
  2 19  1  0  0  0  0
  2  6  2  0  0  0  0
  3 37  1  1  0  0  0
  3  1  1  0  0  0  0
  3 11  1  0  0  0  0
  5 10  2  0  0  0  0
  6  9  1  0  0  0  0
  7 23  1  1  0  0  0
  8  5  1  6  0  0  0
  8 12  1  0  0  0  0
  8  2  1  0  0  0  0
  9 21  2  0  0  0  0
  9  4  1  0  0  0  0
 10 15  1  0  0  0  0
 12 20  1  0  0  0  0
 13 12  1  0  0  0  0
 14 25  2  0  0  0  0
 15 19  2  0  0  0  0
 16 13  1  0  0  0  0
 16 12  1  0  0  0  0
 17 11  1  6  0  0  0
 17  7  1  0  0  0  0
 18  4  1  0  0  0  0
 19 14  1  0  0  0  0
 20 24  1  0  0  0  0
 20  6  1  6  0  0  0
 21 27  1  0  0  0  0
 22 17  1  0  0  0  0
 22  7  1  0  0  0  0
 22 18  1  1  0  0  0
 24  1  1  6  0  0  0
 24 22  1  0  0  0  0
 25 21  1  0  0  0  0
 26 32  1  0  0  0  0
 27 28  1  0  0  0  0
 27 26  2  0  0  0  0
 28 31  2  0  0  0  0
 31 29  1  0  0  0  0
 31 30  1  0  0  0  0
 32 30  1  0  0  0  0
 33 34  2  0  0  0  0
 34  5  1  0  0  0  0
 35 33  1  0  0  0  0
 36 37  1  0  0  0  0
M  END
>  <MODEL>
1

>  <REMARK>
 VINA RESULT:      -7.7      0.000      0.000
  Name = 
  3 active torsions:
  status: ('A' for Active; 'I' for Inactive)
    1  A    between atoms: C_5  and  O_23
    2  A    between atoms: C_6  and  C_31
    3  A    between atoms: C_9  and  C_30
                            x       y       z     vdW  Elec       q    Type
                         _______ _______ _______ _____ _____    ______ ____

>  <TORSDO>
F 3

$$$$
=
 OpenBabel10262422463D

 37 44  0  0  1  0  0  0  0  0999 V2000
  180.8240  176.7640  138.0110 C   0  0  0  0  0  2  0  0  0  0  0  0
  183.7890  178.3070  140.6900 C   0  0  0  0  0  0  0  0  0  0  0  0
  180.3750  175.3480  137.7180 C   0  0  1  0  0  3  0  0  0  0  0  0
  185.3460  177.2530  137.4020 C   0  0  0  0  0  2  0  0  0  0  0  0
  181.9790  178.8830  142.2270 C   0  0  0  0  0  0  0  0  0  0  0  0
  184.0050  178.1230  139.3880 C   0  0  0  0  0  0  0  0  0  0  0  0
  182.5790  176.6700  135.6770 C   0  0  1  0  0  3  0  0  0  0  0  0
  182.4370  178.7490  140.9630 C   0  0  0  0  0  0  0  0  0  0  0  0
  185.3430  177.8540  138.7790 C   0  0  0  0  0  0  0  0  0  0  0  0
  182.9020  178.5830  143.3440 C   0  0  0  0  0  3  0  0  0  0  0  0
  180.9220  174.9590  136.3600 C   0  0  0  0  0  2  0  0  0  0  0  0
  181.7790  178.8440  139.6310 C   0  0  0  0  0  0  0  0  0  0  0  0
  181.6330  180.3130  139.2610 C   0  0  0  0  0  2  0  0  0  0  0  0
  185.8890  179.1010  141.6080 C   0  0  0  0  0  3  0  0  0  0  0  0
  184.1810  178.2320  143.1450 C   0  0  0  0  0  3  0  0  0  0  0  0
  180.4120  179.4290  139.3060 C   0  0  0  0  0  2  0  0  0  0  0  0
  182.4190  175.2360  136.1920 C   0  0  2  0  0  3  0  0  0  0  0  0
  184.5270  175.9790  137.3450 C   0  0  0  0  0  2  0  0  0  0  0  0
  184.7990  178.1070  141.7730 C   0  0  1  0  0  3  0  0  0  0  0  0
  182.7090  178.1870  138.5920 C   0  0  2  0  0  3  0  0  0  0  0  0
  186.5280  178.2960  139.3030 C   0  0  0  0  0  0  0  0  0  0  0  0
  183.0610  176.3110  137.0830 C   0  0  1  0  0  0  0  0  0  0  0  0
  183.6950  176.7080  134.6450 C   0  0  0  0  0  1  0  0  0  0  0  0
  182.2750  176.8110  138.2440 N   0  0  2  0  0  0  0  0  0  0  0  0
  186.6480  179.1500  140.5140 C   0  0  0  0  0  3  0  0  0  0  0  0
  188.1290  178.7280  137.4890 C   0  0  0  0  0  3  0  0  0  0  0  0
  187.8170  178.0530  138.6060 C   0  0  0  0  0  0  0  0  0  0  0  0
  188.7240  176.9840  139.0830 C   0  0  0  0  0  3  0  0  0  0  0  0
  190.5700  175.5480  138.7940 O   0  0  0  0  0  1  0  0  0  0  0  0
  189.8980  177.0550  136.9130 C   0  0  0  0  0  2  0  0  0  0  0  0
  189.7240  176.5380  138.3160 C   0  0  0  0  0  0  0  0  0  0  0  0
  189.4510  178.5150  136.8050 C   0  0  0  0  0  2  0  0  0  0  0  0
  180.2480  179.5950  143.8260 C   0  0  0  0  0  3  0  0  0  0  0  0
  180.6070  179.2640  142.5940 C   0  0  0  0  0  3  0  0  0  0  0  0
  178.9340  179.9450  144.0960 O   0  0  0  0  0  1  0  0  0  0  0  0
  179.8090  174.4320  139.6530 C   0  0  0  0  0  1  0  0  0  0  0  0
  180.8320  174.4690  138.7040 O   0  0  0  0  0  0  0  0  0  0  0  0
  2  8  1  0  0  0  0
  2 19  1  0  0  0  0
  3  1  1  0  0  0  0
  3 37  1  1  0  0  0
  4  9  1  0  0  0  0
  5 34  1  0  0  0  0
  5 10  1  0  0  0  0
  6  2  2  0  0  0  0
  7 23  1  6  0  0  0
  7 17  1  0  0  0  0
  7 22  1  0  0  0  0
  8  5  2  0  0  0  0
  9 21  2  0  0  0  0
  9  6  1  0  0  0  0
 11  3  1  0  0  0  0
 12  8  1  0  0  0  0
 13 16  1  0  0  0  0
 13 12  1  0  0  0  0
 15 10  2  0  0  0  0
 16 12  1  0  0  0  0
 17 11  1  1  0  0  0
 17 22  1  0  0  0  0
 18  4  1  0  0  0  0
 19 14  1  6  0  0  0
 19 15  1  0  0  0  0
 20  6  1  1  0  0  0
 20 12  1  0  0  0  0
 21 25  1  0  0  0  0
 22 18  1  1  0  0  0
 22 24  1  0  0  0  0
 24  1  1  6  0  0  0
 24 20  1  0  0  0  0
 25 14  2  0  0  0  0
 26 27  2  0  0  0  0
 27 28  1  0  0  0  0
 27 21  1  0  0  0  0
 30 31  1  0  0  0  0
 31 29  1  0  0  0  0
 31 28  2  0  0  0  0
 32 30  1  0  0  0  0
 32 26  1  0  0  0  0
 33 35  1  0  0  0  0
 34 33  2  0  0  0  0
 37 36  1  0  0  0  0
M  END
>  <MODEL>
2

>  <REMARK>
 VINA RESULT:      -6.7      2.754      6.614
  Name = 
  3 active torsions:
  status: ('A' for Active; 'I' for Inactive)
    1  A    between atoms: C_5  and  O_23
    2  A    between atoms: C_6  and  C_31
    3  A    between atoms: C_9  and  C_30
                            x       y       z     vdW  Elec       q    Type
                         _______ _______ _______ _____ _____    ______ ____

>  <TORSDO>
F 3

$$$$
=
 OpenBabel10262422463D

 37 44  0  0  1  0  0  0  0  0999 V2000
  182.1220  177.0070  137.0360 C   0  0  0  0  0  2  0  0  0  0  0  0
  184.2790  178.3450  140.4860 C   0  0  0  0  0  0  0  0  0  0  0  0
  181.7220  175.6210  136.5770 C   0  0  1  0  0  3  0  0  0  0  0  0
  186.6500  177.3110  137.7190 C   0  0  0  0  0  2  0  0  0  0  0  0
  182.1360  178.9600  141.4840 C   0  0  0  0  0  0  0  0  0  0  0  0
  184.8420  178.1860  139.2890 C   0  0  0  0  0  0  0  0  0  0  0  0
  184.4520  176.8970  135.2760 C   0  0  1  0  0  3  0  0  0  0  0  0
  182.9210  178.8390  140.3920 C   0  0  0  0  0  0  0  0  0  0  0  0
  186.2860  177.8740  139.0630 C   0  0  0  0  0  0  0  0  0  0  0  0
  182.7010  178.5900  142.8000 C   0  0  0  0  0  3  0  0  0  0  0  0
  182.6110  175.2430  135.4100 C   0  0  0  0  0  2  0  0  0  0  0  0
  182.6620  178.9990  138.9340 C   0  0  0  0  0  0  0  0  0  0  0  0
  182.6770  180.4820  138.5940 C   0  0  0  0  0  2  0  0  0  0  0  0
  186.0690  179.0200  141.9780 C   0  0  0  0  0  3  0  0  0  0  0  0
  183.9720  178.1880  142.9500 C   0  0  0  0  0  3  0  0  0  0  0  0
  181.4610  179.6520  138.2660 C   0  0  0  0  0  2  0  0  0  0  0  0
  184.1040  175.4580  135.6720 C   0  0  2  0  0  3  0  0  0  0  0  0
  185.8340  176.0760  137.3900 C   0  0  0  0  0  2  0  0  0  0  0  0
  184.9420  178.0720  141.7980 C   0  0  1  0  0  3  0  0  0  0  0  0
  183.8200  178.3290  138.1690 C   0  0  2  0  0  3  0  0  0  0  0  0
  187.2930  178.2490  139.9110 C   0  0  0  0  0  0  0  0  0  0  0  0
  184.5110  176.4790  136.7460 C   0  0  1  0  0  0  0  0  0  0  0  0
  185.8110  176.9120  134.5950 C   0  0  0  0  0  1  0  0  0  0  0  0
  183.4510  176.9830  137.6630 N   0  0  2  0  0  0  0  0  0  0  0  0
  187.1030  179.0640  141.1390 C   0  0  0  0  0  3  0  0  0  0  0  0
  189.1040  177.7680  138.3200 C   0  0  0  0  0  3  0  0  0  0  0  0
  188.7160  177.9680  139.5880 C   0  0  0  0  0  0  0  0  0  0  0  0
  189.7020  177.8030  140.6810 C   0  0  0  0  0  3  0  0  0  0  0  0
  191.8110  177.1290  141.4880 O   0  0  0  0  0  1  0  0  0  0  0  0
  191.2400  176.7160  139.0870 C   0  0  0  0  0  2  0  0  0  0  0  0
  190.8990  177.2560  140.4490 C   0  0  0  0  0  0  0  0  0  0  0  0
  190.5490  177.5250  137.9850 C   0  0  0  0  0  2  0  0  0  0  0  0
  180.2740  180.4070  142.1910 C   0  0  0  0  0  3  0  0  0  0  0  0
  180.7290  179.3920  141.4720 C   0  0  0  0  0  3  0  0  0  0  0  0
  178.9330  180.7570  142.1270 O   0  0  0  0  0  1  0  0  0  0  0  0
  181.4420  173.4800  137.0700 C   0  0  0  0  0  1  0  0  0  0  0  0
  181.8560  174.6960  137.6170 O   0  0  0  0  0  0  0  0  0  0  0  0
  2 19  1  0  0  0  0
  3  1  1  0  0  0  0
  3 37  1  1  0  0  0
  4  9  1  0  0  0  0
  5 10  1  0  0  0  0
  6  2  2  0  0  0  0
  7 23  1  6  0  0  0
  7 17  1  0  0  0  0
  7 22  1  0  0  0  0
  8  2  1  0  0  0  0
  8  5  2  0  0  0  0
  9  6  1  0  0  0  0
  9 21  2  0  0  0  0
 10 15  2  0  0  0  0
 11  3  1  0  0  0  0
 12  8  1  0  0  0  0
 13 12  1  0  0  0  0
 16 13  1  0  0  0  0
 16 12  1  0  0  0  0
 17 11  1  1  0  0  0
 17 22  1  0  0  0  0
 18  4  1  0  0  0  0
 19 14  1  1  0  0  0
 19 15  1  0  0  0  0
 20 12  1  0  0  0  0
 20  6  1  1  0  0  0
 21 25  1  0  0  0  0
 22 18  1  1  0  0  0
 22 24  1  0  0  0  0
 24  1  1  6  0  0  0
 24 20  1  0  0  0  0
 25 14  2  0  0  0  0
 26 27  2  0  0  0  0
 27 21  1  0  0  0  0
 27 28  1  0  0  0  0
 30 31  1  0  0  0  0
 31 28  2  0  0  0  0
 31 29  1  0  0  0  0
 32 26  1  0  0  0  0
 32 30  1  0  0  0  0
 34  5  1  0  0  0  0
 34 33  2  0  0  0  0
 35 33  1  0  0  0  0
 36 37  1  0  0  0  0
M  END
>  <MODEL>
3

>  <REMARK>
 VINA RESULT:      -6.0      2.640      6.504
  Name = 
  3 active torsions:
  status: ('A' for Active; 'I' for Inactive)
    1  A    between atoms: C_5  and  O_23
    2  A    between atoms: C_6  and  C_31
    3  A    between atoms: C_9  and  C_30
                            x       y       z     vdW  Elec       q    Type
                         _______ _______ _______ _____ _____    ______ ____

>  <TORSDO>
F 3

$$$$
=
 OpenBabel10262422463D

 37 44  0  0  1  0  0  0  0  0999 V2000
  187.1180  178.8240  140.1060 C   0  0  0  0  0  2  0  0  0  0  0  0
  187.3010  175.7120  137.1690 C   0  0  0  0  0  0  0  0  0  0  0  0
  186.8190  178.7880  141.5900 C   0  0  1  0  0  3  0  0  0  0  0  0
  183.7410  176.9080  137.6620 C   0  0  0  0  0  2  0  0  0  0  0  0
  189.7350  175.7920  137.3570 C   0  0  0  0  0  0  0  0  0  0  0  0
  186.2360  176.4940  137.3400 C   0  0  0  0  0  0  0  0  0  0  0  0
  184.3350  179.5410  139.5800 C   0  0  1  0  0  3  0  0  0  0  0  0
  188.5440  176.4280  137.3710 C   0  0  2  0  0  3  0  0  0  0  0  0
  184.8310  176.0990  137.0180 C   0  0  0  0  0  0  0  0  0  0  0  0
  189.7510  174.3330  137.1110 C   0  0  0  0  0  3  0  0  0  0  0  0
  185.4280  179.3520  141.7970 C   0  0  0  0  0  2  0  0  0  0  0  0
  188.1440  177.8250  137.6950 C   0  0  0  0  0  0  0  0  0  0  0  0
  188.4300  178.7090  136.4900 C   0  0  0  0  0  2  0  0  0  0  0  0
  186.6930  174.1300  135.4330 C   0  0  0  0  0  3  0  0  0  0  0  0
  188.6340  173.6360  136.8550 C   0  0  0  0  0  3  0  0  0  0  0  0
  189.0420  179.0460  137.8270 C   0  0  0  0  0  2  0  0  0  0  0  0
  184.3660  178.7340  140.8830 C   0  0  2  0  0  3  0  0  0  0  0  0
  183.8940  176.9540  139.1690 C   0  0  0  0  0  2  0  0  0  0  0  0
  187.2630  174.2650  136.7970 C   0  0  0  0  0  0  0  0  0  0  0  0
  186.6220  177.8400  137.9380 C   0  0  2  0  0  3  0  0  0  0  0  0
  184.4910  175.1990  136.0440 C   0  0  0  0  0  0  0  0  0  0  0  0
  184.8290  178.0940  139.5650 C   0  0  1  0  0  0  0  0  0  0  0  0
  182.8940  179.6950  139.1230 C   0  0  0  0  0  1  0  0  0  0  0  0
  186.2870  177.8500  139.3850 N   0  0  2  0  0  0  0  0  0  0  0  0
  185.4600  174.5350  135.1330 C   0  0  0  0  0  3  0  0  0  0  0  0
  182.3560  175.7330  134.9490 C   0  0  0  0  0  3  0  0  0  0  0  0
  183.0690  174.9060  135.7280 C   0  0  0  0  0  0  0  0  0  0  0  0
  182.3970  173.7480  136.3610 C   0  0  0  0  0  3  0  0  0  0  0  0
  180.4610  172.5300  136.9300 O   0  0  0  0  0  1  0  0  0  0  0  0
  180.2130  174.7260  135.7570 C   0  0  0  0  0  2  0  0  0  0  0  0
  181.0650  173.6340  136.3450 C   0  0  0  0  0  0  0  0  0  0  0  0
  180.9300  175.4170  134.5940 C   0  0  0  0  0  2  0  0  0  0  0  0
  192.1360  175.7460  137.9040 C   0  0  0  0  0  3  0  0  0  0  0  0
  191.0370  176.4280  137.6140 C   0  0  0  0  0  3  0  0  0  0  0  0
  193.3280  176.4160  138.1330 O   0  0  0  0  0  1  0  0  0  0  0  0
  188.2030  177.3600  142.5630 C   0  0  0  0  0  1  0  0  0  0  0  0
  186.8990  177.4820  142.0810 O   0  0  0  0  0  0  0  0  0  0  0  0
  1  3  1  0  0  0  0
  2  6  2  0  0  0  0
  3 11  1  0  0  0  0
  3 37  1  6  0  0  0
  4 18  1  0  0  0  0
  5  8  1  0  0  0  0
  5 34  1  0  0  0  0
  7 23  1  6  0  0  0
  7 17  1  0  0  0  0
  8  2  1  1  0  0  0
  8 12  1  0  0  0  0
  9  6  1  0  0  0  0
  9  4  1  0  0  0  0
 10  5  2  0  0  0  0
 12 16  1  0  0  0  0
 12 20  1  0  0  0  0
 13 12  1  0  0  0  0
 13 16  1  0  0  0  0
 14 19  1  0  0  0  0
 15 10  1  0  0  0  0
 17 11  1  1  0  0  0
 19 15  2  0  0  0  0
 19  2  1  0  0  0  0
 20  6  1  1  0  0  0
 20 24  1  0  0  0  0
 21  9  2  0  0  0  0
 22 18  1  6  0  0  0
 22  7  1  0  0  0  0
 22 17  1  0  0  0  0
 24 22  1  0  0  0  0
 24  1  1  1  0  0  0
 25 14  2  0  0  0  0
 25 21  1  0  0  0  0
 26 27  2  0  0  0  0
 27 21  1  0  0  0  0
 27 28  1  0  0  0  0
 30 31  1  0  0  0  0
 31 28  2  0  0  0  0
 31 29  1  0  0  0  0
 32 26  1  0  0  0  0
 32 30  1  0  0  0  0
 33 35  1  0  0  0  0
 34 33  2  0  0  0  0
 37 36  1  0  0  0  0
M  END
>  <MODEL>
4

>  <REMARK>
 VINA RESULT:      -5.9      3.619      8.052
  Name = 
  3 active torsions:
  status: ('A' for Active; 'I' for Inactive)
    1  A    between atoms: C_5  and  O_23
    2  A    between atoms: C_6  and  C_31
    3  A    between atoms: C_9  and  C_30
                            x       y       z     vdW  Elec       q    Type
                         _______ _______ _______ _____ _____    ______ ____

>  <TORSDO>
F 3

$$$$
=
 OpenBabel10262422463D

 37 44  0  0  1  0  0  0  0  0999 V2000
  185.3820  178.5310  138.4320 C   0  0  0  0  0  2  0  0  0  0  0  0
  186.0430  174.6180  136.8190 C   0  0  0  0  0  0  0  0  0  0  0  0
  185.0680  178.9980  139.8370 C   0  0  1  0  0  3  0  0  0  0  0  0
  182.3430  175.4160  136.9760 C   0  0  0  0  0  2  0  0  0  0  0  0
  188.4390  175.0910  136.8750 C   0  0  0  0  0  0  0  0  0  0  0  0
  184.8760  175.2560  136.7340 C   0  0  0  0  0  0  0  0  0  0  0  0
  182.5340  178.6220  137.7840 C   0  0  1  0  0  3  0  0  0  0  0  0
  187.1700  175.5200  136.7010 C   0  0  0  0  0  0  0  0  0  0  0  0
  183.5450  174.5850  136.6300 C   0  0  0  0  0  0  0  0  0  0  0  0
  188.6620  173.6590  137.1750 C   0  0  0  0  0  3  0  0  0  0  0  0
  183.6090  179.4040  139.8760 C   0  0  0  0  0  2  0  0  0  0  0  0
  186.5740  176.8710  136.5110 C   0  0  0  0  0  0  0  0  0  0  0  0
  186.7520  177.2850  135.0570 C   0  0  0  0  0  2  0  0  0  0  0  0
  185.6880  172.4460  135.7990 C   0  0  0  0  0  3  0  0  0  0  0  0
  187.6580  172.7720  137.2310 C   0  0  0  0  0  3  0  0  0  0  0  0
  187.2900  178.1650  136.1570 C   0  0  0  0  0  2  0  0  0  0  0  0
  182.6580  178.3570  139.2890 C   0  0  2  0  0  3  0  0  0  0  0  0
  182.4660  176.0290  138.3560 C   0  0  0  0  0  2  0  0  0  0  0  0
  186.2130  173.1440  136.9990 C   0  0  1  0  0  3  0  0  0  0  0  0
  185.0610  176.7670  136.7880 C   0  0  2  0  0  3  0  0  0  0  0  0
  183.3490  173.3540  136.0610 C   0  0  0  0  0  0  0  0  0  0  0  0
  183.2260  177.3500  138.2770 C   0  0  1  0  0  0  0  0  0  0  0  0
  181.0930  178.4020  137.3560 C   0  0  0  0  0  1  0  0  0  0  0  0
  184.7060  177.2580  138.1440 N   0  0  2  0  0  0  0  0  0  0  0  0
  184.4160  172.5420  135.4180 C   0  0  0  0  0  3  0  0  0  0  0  0
  181.5380  172.3510  134.7360 C   0  0  0  0  0  3  0  0  0  0  0  0
  181.9870  172.7770  135.9270 C   0  0  0  0  0  0  0  0  0  0  0  0
  181.0730  172.7630  137.0920 C   0  0  0  0  0  3  0  0  0  0  0  0
  178.9330  172.5160  138.0460 O   0  0  0  0  0  1  0  0  0  0  0  0
  179.1760  172.3840  135.5590 C   0  0  0  0  0  2  0  0  0  0  0  0
  179.7640  172.5400  136.9360 C   0  0  0  0  0  0  0  0  0  0  0  0
  180.1770  171.7280  134.6050 C   0  0  0  0  0  2  0  0  0  0  0  0
  190.6030  175.8870  137.7390 C   0  0  0  0  0  3  0  0  0  0  0  0
  189.6340  175.9470  136.8360 C   0  0  0  0  0  3  0  0  0  0  0  0
  191.7020  176.7270  137.6350 O   0  0  0  0  0  1  0  0  0  0  0  0
  185.5030  178.6480  141.9800 C   0  0  0  0  0  1  0  0  0  0  0  0
  185.3220  177.9840  140.7650 O   0  0  0  0  0  0  0  0  0  0  0  0
  1  3  1  0  0  0  0
  2 19  1  0  0  0  0
  3 11  1  0  0  0  0
  3 37  1  1  0  0  0
  4 18  1  0  0  0  0
  5 10  1  0  0  0  0
  6  2  2  0  0  0  0
  7 23  1  6  0  0  0
  7 22  1  0  0  0  0
  7 17  1  0  0  0  0
  8  2  1  0  0  0  0
  8  5  2  0  0  0  0
  9  6  1  0  0  0  0
  9  4  1  0  0  0  0
 10 15  2  0  0  0  0
 12  8  1  0  0  0  0
 12 20  1  0  0  0  0
 13 16  1  0  0  0  0
 13 12  1  0  0  0  0
 16 12  1  0  0  0  0
 17 11  1  1  0  0  0
 19 14  1  6  0  0  0
 19 15  1  0  0  0  0
 20  6  1  1  0  0  0
 20 24  1  0  0  0  0
 21  9  2  0  0  0  0
 22 18  1  6  0  0  0
 22 17  1  0  0  0  0
 24 22  1  0  0  0  0
 24  1  1  6  0  0  0
 25 14  2  0  0  0  0
 25 21  1  0  0  0  0
 26 27  2  0  0  0  0
 27 21  1  0  0  0  0
 27 28  1  0  0  0  0
 30 31  1  0  0  0  0
 31 28  2  0  0  0  0
 31 29  1  0  0  0  0
 32 26  1  0  0  0  0
 32 30  1  0  0  0  0
 34  5  1  0  0  0  0
 34 33  2  0  0  0  0
 35 33  1  0  0  0  0
 37 36  1  0  0  0  0
M  END
>  <MODEL>
5

>  <REMARK>
 VINA RESULT:      -5.6      3.904      8.130
  Name = 
  3 active torsions:
  status: ('A' for Active; 'I' for Inactive)
    1  A    between atoms: C_5  and  O_23
    2  A    between atoms: C_6  and  C_31
    3  A    between atoms: C_9  and  C_30
                            x       y       z     vdW  Elec       q    Type
                         _______ _______ _______ _____ _____    ______ ____

>  <TORSDO>
F 3

$$$$
