=
 OpenBabel10252414573D

 34 37  0  0  1  0  0  0  0  0999 V2000
  179.8560  179.3460  142.1530 C   0  0  2  0  0  3  0  0  0  0  0  0
  180.0870  177.2210  140.7720 C   0  0  0  0  0  0  0  0  0  0  0  0
  180.4870  177.4040  136.2430 C   0  0  0  0  0  2  0  0  0  0  0  0
  182.0140  178.8640  140.8620 C   0  0  1  0  0  3  0  0  0  0  0  0
  182.1700  180.1350  138.3560 C   0  0  0  0  0  1  0  0  0  0  0  0
  180.0840  179.2860  144.5250 O   0  0  0  0  0  0  0  0  0  0  0  0
  178.9720  176.8260  141.2080 O   0  0  0  0  0  0  0  0  0  0  0  0
  182.3290  176.6340  139.7650 C   0  0  0  0  0  2  0  0  0  0  0  0
  180.6350  175.9190  135.9470 C   0  0  0  0  0  2  0  0  0  0  0  0
  181.0420  175.1610  137.1970 C   0  0  0  0  0  2  0  0  0  0  0  0
  180.4900  178.6620  140.9380 C   0  0  2  0  0  3  0  0  0  0  0  0
  181.7690  178.1710  135.9330 C   0  0  0  0  0  2  0  0  0  0  0  0
  182.0470  178.6800  138.3510 N   0  0  0  0  0  0  0  0  0  0  0  0
  179.7280  180.7120  141.9030 O   0  0  0  0  0  1  0  0  0  0  0  0
  180.4220  175.0260  139.5990 C   0  0  0  0  0  2  0  0  0  0  0  0
  182.7210  178.4060  142.1510 C   0  0  2  0  0  3  0  0  0  0  0  0
  180.6460  179.1410  143.4090 C   0  0  0  0  0  0  0  0  0  0  0  0
  180.9200  176.3320  140.0100 N   0  0  0  0  0  0  0  0  0  0  0  0
  182.7490  178.2530  137.1160 C   0  0  1  0  0  3  0  0  0  0  0  0
  182.5920  178.1450  139.6210 C   0  0  1  0  0  3  0  0  0  0  0  0
  182.0500  178.8840  143.3550 N   0  0  0  0  0  2  0  0  0  0  0  0
  179.8850  175.0970  138.1810 C   0  0  0  0  0  2  0  0  0  0  0  0
  183.7380  177.0660  137.2230 C   0  0  0  0  0  3  0  0  0  0  0  0
  185.0710  177.5500  137.7620 C   0  0  0  0  0  1  0  0  0  0  0  0
  184.0030  176.4070  135.8780 C   0  0  0  0  0  1  0  0  0  0  0  0
  184.6240  179.4390  141.1860 O   0  0  0  0  0  0  0  0  0  0  0  0
  184.1690  178.8000  142.1720 C   0  0  0  0  0  0  0  0  0  0  0  0
  185.6230  178.5890  145.6700 C   0  0  0  0  0  0  0  0  0  0  0  0
  186.7780  177.8370  145.4400 C   0  0  0  0  0  3  0  0  0  0  0  0
  185.0640  178.4690  143.3060 C   0  0  0  0  0  0  0  0  0  0  0  0
  187.0790  177.4000  144.1470 C   0  0  0  0  0  3  0  0  0  0  0  0
  184.7710  178.9030  144.6090 C   0  0  0  0  0  3  0  0  0  0  0  0
  186.2260  177.7150  143.0860 C   0  0  0  0  0  3  0  0  0  0  0  0
  185.3150  179.0360  146.9850 N   0  0  0  0  0  1  0  0  0  0  0  0
  1 14  1  6  0  0  0
  1 17  1  0  0  0  0
  2 11  1  0  0  0  0
  2  7  2  0  0  0  0
  4 11  1  0  0  0  0
  4 16  1  0  0  0  0
  8 18  1  0  0  0  0
  9  3  1  0  0  0  0
  9 10  1  0  0  0  0
 10 22  1  0  0  0  0
 11  1  1  0  0  0  0
 12  3  1  0  0  0  0
 12 19  1  0  0  0  0
 13  5  1  0  0  0  0
 13 20  1  0  0  0  0
 15 18  1  0  0  0  0
 16 27  1  0  0  0  0
 16 21  1  0  0  0  0
 17  6  2  0  0  0  0
 18  2  1  0  0  0  0
 19 23  1  0  0  0  0
 19 13  1  0  0  0  0
 20  8  1  0  0  0  0
 20  4  1  0  0  0  0
 21 17  1  0  0  0  0
 22 15  1  0  0  0  0
 23 24  1  0  0  0  0
 25 23  1  0  0  0  0
 26 27  2  0  0  0  0
 27 30  1  0  0  0  0
 28 34  1  0  0  0  0
 29 28  1  0  0  0  0
 30 32  1  0  0  0  0
 31 29  2  0  0  0  0
 32 28  2  0  0  0  0
 33 30  2  0  0  0  0
 33 31  1  0  0  0  0
M  END
>  <MODEL>
1

>  <REMARK>
 VINA RESULT:      -8.4      0.000      0.000
  Name = 
  3 active torsions:
  status: ('A' for Active; 'I' for Inactive)
    1  A    between atoms: C_12  and  C_28
    2  A    between atoms: C_13  and  C_29
    3  A    between atoms: C_21  and  C_28
                            x       y       z     vdW  Elec       q    Type
                         _______ _______ _______ _____ _____    ______ ____

>  <TORSDO>
F 3

$$$$
=
 OpenBabel10252414573D

 34 37  0  0  1  0  0  0  0  0999 V2000
  179.8290  179.3360  142.1590 C   0  0  2  0  0  3  0  0  0  0  0  0
  180.0500  177.2140  140.7720 C   0  0  0  0  0  0  0  0  0  0  0  0
  180.4580  177.4090  136.2440 C   0  0  0  0  0  2  0  0  0  0  0  0
  181.9860  178.8440  140.8700 C   0  0  1  0  0  3  0  0  0  0  0  0
  182.1550  180.1220  138.3680 C   0  0  0  0  0  1  0  0  0  0  0  0
  180.0530  179.2660  144.5310 O   0  0  0  0  0  0  0  0  0  0  0  0
  178.9310  176.8240  141.2050 O   0  0  0  0  0  0  0  0  0  0  0  0
  182.2890  176.6160  139.7670 C   0  0  0  0  0  2  0  0  0  0  0  0
  180.5980  175.9240  135.9440 C   0  0  0  0  0  2  0  0  0  0  0  0
  180.9980  175.1590  137.1920 C   0  0  0  0  0  2  0  0  0  0  0  0
  180.4610  178.6510  140.9430 C   0  0  2  0  0  3  0  0  0  0  0  0
  181.7460  178.1680  135.9390 C   0  0  0  0  0  2  0  0  0  0  0  0
  182.0230  178.6680  138.3590 N   0  0  0  0  0  0  0  0  0  0  0  0
  179.7100  180.7040  141.9130 O   0  0  0  0  0  1  0  0  0  0  0  0
  180.3730  175.0200  139.5930 C   0  0  0  0  0  2  0  0  0  0  0  0
  182.6880  178.3770  142.1590 C   0  0  2  0  0  3  0  0  0  0  0  0
  180.6160  179.1220  143.4150 C   0  0  0  0  0  0  0  0  0  0  0  0
  180.8780  176.3220  140.0090 N   0  0  0  0  0  0  0  0  0  0  0  0
  182.7250  178.2400  137.1240 C   0  0  1  0  0  3  0  0  0  0  0  0
  182.5620  178.1260  139.6280 C   0  0  1  0  0  3  0  0  0  0  0  0
  182.0180  178.8560  143.3640 N   0  0  0  0  0  2  0  0  0  0  0  0
  179.8390  175.0990  138.1740 C   0  0  0  0  0  2  0  0  0  0  0  0
  183.7060  177.0460  137.2280 C   0  0  0  0  0  3  0  0  0  0  0  0
  185.0420  177.5220  137.7670 C   0  0  0  0  0  1  0  0  0  0  0  0
  183.9650  176.3870  135.8820 C   0  0  0  0  0  1  0  0  0  0  0  0
  184.5940  179.4190  141.2100 O   0  0  0  0  0  0  0  0  0  0  0  0
  184.1390  178.7620  142.1840 C   0  0  0  0  0  0  0  0  0  0  0  0
  187.0520  177.3420  144.1560 C   0  0  0  0  0  0  0  0  0  0  0  0
  186.7130  177.7260  145.4560 C   0  0  0  0  0  3  0  0  0  0  0  0
  185.0350  178.4030  143.3080 C   0  0  0  0  0  0  0  0  0  0  0  0
  185.5380  178.4470  145.6870 C   0  0  0  0  0  3  0  0  0  0  0  0
  186.2170  177.6790  143.0880 C   0  0  0  0  0  3  0  0  0  0  0  0
  184.7040  178.7840  144.6170 C   0  0  0  0  0  3  0  0  0  0  0  0
  188.2460  176.6070  143.9190 N   0  0  0  0  0  1  0  0  0  0  0  0
  1 14  1  6  0  0  0
  1 17  1  0  0  0  0
  2 11  1  0  0  0  0
  2  7  2  0  0  0  0
  4 11  1  0  0  0  0
  4 16  1  0  0  0  0
  8 18  1  0  0  0  0
  9  3  1  0  0  0  0
  9 10  1  0  0  0  0
 10 22  1  0  0  0  0
 11  1  1  0  0  0  0
 12  3  1  0  0  0  0
 12 19  1  0  0  0  0
 13  5  1  0  0  0  0
 13 20  1  0  0  0  0
 15 18  1  0  0  0  0
 16 27  1  0  0  0  0
 16 21  1  0  0  0  0
 17  6  2  0  0  0  0
 18  2  1  0  0  0  0
 19 23  1  0  0  0  0
 19 13  1  0  0  0  0
 20  8  1  0  0  0  0
 20  4  1  0  0  0  0
 21 17  1  0  0  0  0
 22 15  1  0  0  0  0
 23 24  1  0  0  0  0
 25 23  1  0  0  0  0
 26 27  2  0  0  0  0
 27 30  1  0  0  0  0
 28 29  1  0  0  0  0
 29 31  2  0  0  0  0
 30 33  2  0  0  0  0
 32 30  1  0  0  0  0
 32 28  2  0  0  0  0
 33 31  1  0  0  0  0
 34 28  1  0  0  0  0
M  END
>  <MODEL>
2

>  <REMARK>
 VINA RESULT:      -8.1      0.840      1.181
  Name = 
  3 active torsions:
  status: ('A' for Active; 'I' for Inactive)
    1  A    between atoms: C_12  and  C_28
    2  A    between atoms: C_13  and  C_29
    3  A    between atoms: C_21  and  C_28
                            x       y       z     vdW  Elec       q    Type
                         _______ _______ _______ _____ _____    ______ ____

>  <TORSDO>
F 3

$$$$
=
 OpenBabel10252414573D

 34 37  0  0  1  0  0  0  0  0999 V2000
  182.8800  177.0620  135.9160 C   0  0  2  0  0  3  0  0  0  0  0  0
  184.7190  175.3900  136.4670 C   0  0  0  0  0  0  0  0  0  0  0  0
  188.8520  175.7550  134.5990 C   0  0  0  0  0  2  0  0  0  0  0  0
  184.9840  177.8090  137.1710 C   0  0  1  0  0  3  0  0  0  0  0  0
  186.9580  178.9650  135.5310 C   0  0  0  0  0  1  0  0  0  0  0  0
  180.8770  177.1350  137.2050 O   0  0  0  0  0  0  0  0  0  0  0  0
  183.9950  174.4590  136.0190 O   0  0  0  0  0  0  0  0  0  0  0  0
  186.6280  176.0950  137.9650 C   0  0  0  0  0  2  0  0  0  0  0  0
  189.5360  174.5810  135.2810 C   0  0  0  0  0  2  0  0  0  0  0  0
  188.7700  174.1590  136.5220 C   0  0  0  0  0  2  0  0  0  0  0  0
  184.3740  176.8230  136.1590 C   0  0  2  0  0  3  0  0  0  0  0  0
  189.4360  177.0890  135.0530 C   0  0  0  0  0  2  0  0  0  0  0  0
  187.2720  177.6700  136.1300 N   0  0  0  0  0  0  0  0  0  0  0  0
  182.7180  178.1470  135.0550 O   0  0  0  0  0  1  0  0  0  0  0  0
  186.4290  173.7150  137.2240 C   0  0  0  0  0  2  0  0  0  0  0  0
  184.2260  177.8020  138.5110 C   0  0  2  0  0  3  0  0  0  0  0  0
  182.1220  177.3130  137.1820 C   0  0  0  0  0  0  0  0  0  0  0  0
  185.9370  175.0850  137.1640 N   0  0  0  0  0  0  0  0  0  0  0  0
  188.7460  177.6840  136.2930 C   0  0  1  0  0  3  0  0  0  0  0  0
  186.4860  177.5110  137.3770 C   0  0  1  0  0  3  0  0  0  0  0  0
  182.7780  177.8480  138.3330 N   0  0  0  0  0  2  0  0  0  0  0  0
  187.4630  173.4860  136.1360 C   0  0  0  0  0  2  0  0  0  0  0  0
  189.3270  177.2120  137.6480 C   0  0  0  0  0  3  0  0  0  0  0  0
  189.2970  178.3520  138.6490 C   0  0  0  0  0  1  0  0  0  0  0  0
  190.7700  176.7450  137.5320 C   0  0  0  0  0  1  0  0  0  0  0  0
  184.5560  180.0960  139.0090 O   0  0  0  0  0  0  0  0  0  0  0  0
  184.6720  178.9110  139.4190 C   0  0  0  0  0  0  0  0  0  0  0  0
  187.1320  178.3040  142.2430 C   0  0  0  0  0  0  0  0  0  0  0  0
  186.2680  178.1580  143.3310 C   0  0  0  0  0  3  0  0  0  0  0  0
  185.2310  178.6540  140.7670 C   0  0  0  0  0  0  0  0  0  0  0  0
  184.8870  178.2580  143.1410 C   0  0  0  0  0  3  0  0  0  0  0  0
  186.6170  178.5510  140.9680 C   0  0  0  0  0  3  0  0  0  0  0  0
  184.3720  178.5060  141.8660 C   0  0  0  0  0  3  0  0  0  0  0  0
  188.5380  178.2010  142.4320 N   0  0  0  0  0  1  0  0  0  0  0  0
  1 14  1  6  0  0  0
  1 11  1  0  0  0  0
  1 17  1  0  0  0  0
  2 18  1  0  0  0  0
  3 12  1  0  0  0  0
  3  9  1  0  0  0  0
  4 20  1  0  0  0  0
  4 16  1  0  0  0  0
  5 13  1  0  0  0  0
  7  2  2  0  0  0  0
  9 10  1  0  0  0  0
 11  2  1  0  0  0  0
 11  4  1  0  0  0  0
 12 19  1  0  0  0  0
 13 19  1  0  0  0  0
 13 20  1  0  0  0  0
 16 27  1  0  0  0  0
 17  6  2  0  0  0  0
 17 21  1  0  0  0  0
 18 15  1  0  0  0  0
 18  8  1  0  0  0  0
 19 23  1  0  0  0  0
 20  8  1  0  0  0  0
 21 16  1  0  0  0  0
 22 10  1  0  0  0  0
 22 15  1  0  0  0  0
 23 24  1  0  0  0  0
 25 23  1  0  0  0  0
 26 27  2  0  0  0  0
 27 30  1  0  0  0  0
 28 34  1  0  0  0  0
 28 29  1  0  0  0  0
 30 32  1  0  0  0  0
 30 33  2  0  0  0  0
 31 29  2  0  0  0  0
 32 28  2  0  0  0  0
 33 31  1  0  0  0  0
M  END
>  <MODEL>
3

>  <REMARK>
 VINA RESULT:      -7.1      3.798      5.922
  Name = 
  3 active torsions:
  status: ('A' for Active; 'I' for Inactive)
    1  A    between atoms: C_12  and  C_28
    2  A    between atoms: C_13  and  C_29
    3  A    between atoms: C_21  and  C_28
                            x       y       z     vdW  Elec       q    Type
                         _______ _______ _______ _____ _____    ______ ____

>  <TORSDO>
F 3

$$$$
=
 OpenBabel10252414573D

 34 37  0  0  1  0  0  0  0  0999 V2000
  184.3530  177.8140  140.0810 C   0  0  2  0  0  3  0  0  0  0  0  0
  184.2880  176.9130  137.7020 C   0  0  0  0  0  0  0  0  0  0  0  0
  181.5690  173.4390  136.5870 C   0  0  0  0  0  2  0  0  0  0  0  0
  182.2270  178.0240  138.6690 C   0  0  1  0  0  3  0  0  0  0  0  0
  180.3180  176.0130  139.1480 C   0  0  0  0  0  1  0  0  0  0  0  0
  185.4300  179.8840  140.5690 O   0  0  0  0  0  0  0  0  0  0  0  0
  185.5180  176.6440  137.7780 O   0  0  0  0  0  0  0  0  0  0  0  0
  182.2860  177.4080  136.2420 C   0  0  0  0  0  2  0  0  0  0  0  0
  181.8810  173.3480  135.1010 C   0  0  0  0  0  2  0  0  0  0  0  0
  182.5120  174.6360  134.6040 C   0  0  0  0  0  2  0  0  0  0  0  0
  183.5070  177.2180  138.9520 C   0  0  2  0  0  3  0  0  0  0  0  0
  180.1340  173.8910  136.8350 C   0  0  0  0  0  2  0  0  0  0  0  0
  180.9740  176.0020  137.8440 N   0  0  0  0  0  0  0  0  0  0  0  0
  183.7900  177.4760  141.3120 O   0  0  0  0  0  1  0  0  0  0  0  0
  184.2800  176.2450  135.2810 C   0  0  0  0  0  2  0  0  0  0  0  0
  182.5330  179.5030  138.3710 C   0  0  2  0  0  3  0  0  0  0  0  0
  184.4800  179.3030  139.9830 C   0  0  0  0  0  0  0  0  0  0  0  0
  183.6050  176.8100  136.4420 N   0  0  0  0  0  0  0  0  0  0  0  0
  179.9660  175.4180  136.9260 C   0  0  1  0  0  3  0  0  0  0  0  0
  181.4240  177.3770  137.5180 C   0  0  1  0  0  3  0  0  0  0  0  0
  183.4820  180.0800  139.3190 N   0  0  0  0  0  2  0  0  0  0  0  0
  183.9280  174.7750  135.1400 C   0  0  0  0  0  2  0  0  0  0  0  0
  179.7290  176.1260  135.5700 C   0  0  0  0  0  3  0  0  0  0  0  0
  178.9420  177.4060  135.7860 C   0  0  0  0  0  1  0  0  0  0  0  0
  178.9420  175.2660  134.5940 C   0  0  0  0  0  1  0  0  0  0  0  0
  180.4100  180.1570  139.1990 O   0  0  0  0  0  0  0  0  0  0  0  0
  181.2870  180.3380  138.3120 C   0  0  0  0  0  0  0  0  0  0  0  0
  180.9450  183.6830  136.5530 C   0  0  0  0  0  0  0  0  0  0  0  0
  180.6330  183.2760  135.2540 C   0  0  0  0  0  3  0  0  0  0  0  0
  181.0650  181.3590  137.2610 C   0  0  0  0  0  0  0  0  0  0  0  0
  180.5360  181.9140  134.9540 C   0  0  0  0  0  3  0  0  0  0  0  0
  181.1600  182.7290  137.5510 C   0  0  0  0  0  3  0  0  0  0  0  0
  180.7520  180.9610  135.9530 C   0  0  0  0  0  3  0  0  0  0  0  0
  181.0430  185.0680  136.8620 N   0  0  0  0  0  1  0  0  0  0  0  0
  1 14  1  1  0  0  0
  2  7  2  0  0  0  0
  2 11  1  0  0  0  0
  3 12  1  0  0  0  0
  4 11  1  0  0  0  0
  8 18  1  0  0  0  0
  8 20  1  0  0  0  0
  9  3  1  0  0  0  0
 10  9  1  0  0  0  0
 10 22  1  0  0  0  0
 11  1  1  0  0  0  0
 12 19  1  0  0  0  0
 13  5  1  0  0  0  0
 15 18  1  0  0  0  0
 16  4  1  0  0  0  0
 16 21  1  0  0  0  0
 17  1  1  0  0  0  0
 17  6  2  0  0  0  0
 18  2  1  0  0  0  0
 19 13  1  0  0  0  0
 20 13  1  0  0  0  0
 20  4  1  0  0  0  0
 21 17  1  0  0  0  0
 22 15  1  0  0  0  0
 23 24  1  0  0  0  0
 23 19  1  0  0  0  0
 25 23  1  0  0  0  0
 27 16  1  0  0  0  0
 27 26  2  0  0  0  0
 28 34  1  0  0  0  0
 28 32  1  0  0  0  0
 29 28  2  0  0  0  0
 30 32  2  0  0  0  0
 30 27  1  0  0  0  0
 31 29  1  0  0  0  0
 31 33  2  0  0  0  0
 33 30  1  0  0  0  0
M  END
>  <MODEL>
4

>  <REMARK>
 VINA RESULT:      -5.9      3.323      6.507
  Name = 
  3 active torsions:
  status: ('A' for Active; 'I' for Inactive)
    1  A    between atoms: C_12  and  C_28
    2  A    between atoms: C_13  and  C_29
    3  A    between atoms: C_21  and  C_28
                            x       y       z     vdW  Elec       q    Type
                         _______ _______ _______ _____ _____    ______ ____

>  <TORSDO>
F 3

$$$$
=
 OpenBabel10252414573D

 34 37  0  0  1  0  0  0  0  0999 V2000
  181.8350  172.7810  136.1980 C   0  0  2  0  0  3  0  0  0  0  0  0
  181.2060  175.1380  135.4760 C   0  0  0  0  0  0  0  0  0  0  0  0
  179.4900  178.1210  138.4530 C   0  0  0  0  0  2  0  0  0  0  0  0
  183.1000  174.8050  137.1240 C   0  0  1  0  0  3  0  0  0  0  0  0
  182.2020  175.6760  139.6450 C   0  0  0  0  0  1  0  0  0  0  0  0
  183.1230  171.3730  134.7690 O   0  0  0  0  0  0  0  0  0  0  0  0
  180.3850  174.6570  134.6470 O   0  0  0  0  0  0  0  0  0  0  0  0
  182.6660  177.0800  136.1690 C   0  0  0  0  0  2  0  0  0  0  0  0
  179.3460  179.3280  137.5390 C   0  0  0  0  0  2  0  0  0  0  0  0
  180.2100  179.1710  136.3020 C   0  0  0  0  0  2  0  0  0  0  0  0
  181.7720  174.2670  136.5640 C   0  0  2  0  0  3  0  0  0  0  0  0
  180.5500  178.3490  139.5260 C   0  0  0  0  0  2  0  0  0  0  0  0
  181.9570  176.5660  138.5130 N   0  0  0  0  0  0  0  0  0  0  0  0
  181.7340  172.0120  137.3580 O   0  0  0  0  0  1  0  0  0  0  0  0
  180.7560  177.4480  134.5980 C   0  0  0  0  0  2  0  0  0  0  0  0
  184.2750  174.5510  136.1620 C   0  0  2  0  0  3  0  0  0  0  0  0
  183.0910  172.4190  135.4680 C   0  0  0  0  0  0  0  0  0  0  0  0
  181.5070  176.5430  135.4580 N   0  0  0  0  0  0  0  0  0  0  0  0
  181.9680  177.9270  139.1030 C   0  0  1  0  0  3  0  0  0  0  0  0
  182.9730  176.3070  137.4660 C   0  0  1  0  0  3  0  0  0  0  0  0
  184.2820  173.1890  135.6370 N   0  0  0  0  0  2  0  0  0  0  0  0
  179.6360  178.1040  135.3840 C   0  0  0  0  0  2  0  0  0  0  0  0
  182.7790  179.0230  138.3700 C   0  0  0  0  0  3  0  0  0  0  0  0
  184.2450  178.9260  138.7540 C   0  0  0  0  0  1  0  0  0  0  0  0
  182.3090  180.4270  138.7190 C   0  0  0  0  0  1  0  0  0  0  0  0
  186.1370  173.9970  137.5200 O   0  0  0  0  0  0  0  0  0  0  0  0
  185.6000  174.8720  136.7900 C   0  0  0  0  0  0  0  0  0  0  0  0
  187.6460  178.0100  137.3910 C   0  0  0  0  0  0  0  0  0  0  0  0
  187.5760  178.6250  136.1380 C   0  0  0  0  0  3  0  0  0  0  0  0
  186.2880  176.1670  136.5720 C   0  0  0  0  0  0  0  0  0  0  0  0
  186.8640  178.0150  135.1010 C   0  0  0  0  0  3  0  0  0  0  0  0
  187.0050  176.7870  137.6060 C   0  0  0  0  0  3  0  0  0  0  0  0
  186.2230  176.7920  135.3180 C   0  0  0  0  0  3  0  0  0  0  0  0
  188.3690  178.6290  138.4480 N   0  0  0  0  0  1  0  0  0  0  0  0
  1 11  1  0  0  0  0
  1 14  1  1  0  0  0
  2 11  1  0  0  0  0
  3 12  1  0  0  0  0
  4 20  1  0  0  0  0
  6 17  2  0  0  0  0
  7  2  2  0  0  0  0
  8 20  1  0  0  0  0
  9  3  1  0  0  0  0
 10  9  1  0  0  0  0
 11  4  1  0  0  0  0
 13 19  1  0  0  0  0
 13  5  1  0  0  0  0
 15 22  1  0  0  0  0
 15 18  1  0  0  0  0
 16 27  1  0  0  0  0
 16  4  1  0  0  0  0
 17 21  1  0  0  0  0
 17  1  1  0  0  0  0
 18  2  1  0  0  0  0
 18  8  1  0  0  0  0
 19 12  1  0  0  0  0
 20 13  1  0  0  0  0
 21 16  1  0  0  0  0
 22 10  1  0  0  0  0
 23 25  1  0  0  0  0
 23 24  1  0  0  0  0
 23 19  1  0  0  0  0
 27 26  2  0  0  0  0
 28 32  1  0  0  0  0
 28 34  1  0  0  0  0
 29 28  2  0  0  0  0
 30 27  1  0  0  0  0
 30 32  2  0  0  0  0
 31 33  2  0  0  0  0
 31 29  1  0  0  0  0
 33 30  1  0  0  0  0
M  END
>  <MODEL>
5

>  <REMARK>
 VINA RESULT:      -5.8      4.577      6.796
  Name = 
  3 active torsions:
  status: ('A' for Active; 'I' for Inactive)
    1  A    between atoms: C_12  and  C_28
    2  A    between atoms: C_13  and  C_29
    3  A    between atoms: C_21  and  C_28
                            x       y       z     vdW  Elec       q    Type
                         _______ _______ _______ _____ _____    ______ ____

>  <TORSDO>
F 3

$$$$
=
 OpenBabel10252414573D

 34 37  0  0  1  0  0  0  0  0999 V2000
  185.1870  174.0750  137.0730 C   0  0  2  0  0  3  0  0  0  0  0  0
  183.3370  175.3830  135.9150 C   0  0  0  0  0  0  0  0  0  0  0  0
  179.6520  176.7550  138.2060 C   0  0  0  0  0  2  0  0  0  0  0  0
  184.7030  176.5020  137.7320 C   0  0  1  0  0  3  0  0  0  0  0  0
  183.0510  176.7780  139.9940 C   0  0  0  0  0  1  0  0  0  0  0  0
  187.2910  173.7380  136.0040 O   0  0  0  0  0  0  0  0  0  0  0  0
  183.1610  174.4180  135.1220 O   0  0  0  0  0  0  0  0  0  0  0  0
  183.0910  177.8560  136.3740 C   0  0  0  0  0  2  0  0  0  0  0  0
  178.9310  177.4980  137.0910 C   0  0  0  0  0  2  0  0  0  0  0  0
  179.8890  177.8420  135.9660 C   0  0  0  0  0  2  0  0  0  0  0  0
  184.1350  175.1840  137.1750 C   0  0  2  0  0  3  0  0  0  0  0  0
  180.1290  177.7060  139.3000 C   0  0  0  0  0  2  0  0  0  0  0  0
  182.4900  177.1960  138.7120 N   0  0  0  0  0  0  0  0  0  0  0  0
  185.4050  173.5240  138.3360 O   0  0  0  0  0  1  0  0  0  0  0  0
  181.6790  176.7600  134.6260 C   0  0  0  0  0  2  0  0  0  0  0  0
  185.9110  176.9980  136.9170 C   0  0  2  0  0  3  0  0  0  0  0  0
  186.4870  174.5620  136.5110 C   0  0  0  0  0  0  0  0  0  0  0  0
  182.6760  176.6370  135.6810 N   0  0  0  0  0  0  0  0  0  0  0  0
  181.5370  178.2780  139.0610 C   0  0  1  0  0  3  0  0  0  0  0  0
  183.5960  177.5780  137.8030 C   0  0  1  0  0  3  0  0  0  0  0  0
  186.8690  175.9330  136.6330 N   0  0  0  0  0  2  0  0  0  0  0  0
  180.2860  176.5880  135.2040 C   0  0  0  0  0  2  0  0  0  0  0  0
  181.5760  179.5740  138.2140 C   0  0  0  0  0  3  0  0  0  0  0  0
  182.6950  180.4750  138.7010 C   0  0  0  0  0  1  0  0  0  0  0  0
  180.2810  180.3660  138.3040 C   0  0  0  0  0  1  0  0  0  0  0  0
  186.7990  179.1960  136.8960 O   0  0  0  0  0  0  0  0  0  0  0  0
  186.6030  178.1550  137.5780 C   0  0  0  0  0  0  0  0  0  0  0  0
  188.6920  177.5100  140.6780 C   0  0  0  0  0  0  0  0  0  0  0  0
  187.8650  178.0290  141.6770 C   0  0  0  0  0  3  0  0  0  0  0  0
  187.0470  178.1100  138.9910 C   0  0  0  0  0  0  0  0  0  0  0  0
  186.6300  178.5890  141.3380 C   0  0  0  0  0  3  0  0  0  0  0  0
  188.2850  177.5500  139.3420 C   0  0  0  0  0  3  0  0  0  0  0  0
  186.2240  178.6290  140.0010 C   0  0  0  0  0  3  0  0  0  0  0  0
  189.9490  176.9390  141.0210 N   0  0  0  0  0  1  0  0  0  0  0  0
  1 11  1  0  0  0  0
  1 14  1  1  0  0  0
  2 11  1  0  0  0  0
  3 12  1  0  0  0  0
  4 20  1  0  0  0  0
  6 17  2  0  0  0  0
  7  2  2  0  0  0  0
  8 20  1  0  0  0  0
  9  3  1  0  0  0  0
 10  9  1  0  0  0  0
 11  4  1  0  0  0  0
 13 19  1  0  0  0  0
 13  5  1  0  0  0  0
 15 22  1  0  0  0  0
 15 18  1  0  0  0  0
 16 27  1  0  0  0  0
 16  4  1  0  0  0  0
 17 21  1  0  0  0  0
 17  1  1  0  0  0  0
 18  2  1  0  0  0  0
 18  8  1  0  0  0  0
 19 12  1  0  0  0  0
 20 13  1  0  0  0  0
 21 16  1  0  0  0  0
 22 10  1  0  0  0  0
 23 25  1  0  0  0  0
 23 24  1  0  0  0  0
 23 19  1  0  0  0  0
 26 27  2  0  0  0  0
 27 30  1  0  0  0  0
 28 34  1  0  0  0  0
 28 29  1  0  0  0  0
 30 32  1  0  0  0  0
 30 33  2  0  0  0  0
 31 29  2  0  0  0  0
 32 28  2  0  0  0  0
 33 31  1  0  0  0  0
M  END
>  <MODEL>
6

>  <REMARK>
 VINA RESULT:      -5.6      3.834      5.847
  Name = 
  3 active torsions:
  status: ('A' for Active; 'I' for Inactive)
    1  A    between atoms: C_12  and  C_28
    2  A    between atoms: C_13  and  C_29
    3  A    between atoms: C_21  and  C_28
                            x       y       z     vdW  Elec       q    Type
                         _______ _______ _______ _____ _____    ______ ____

>  <TORSDO>
F 3

$$$$
=
 OpenBabel10252414573D

 34 37  0  0  1  0  0  0  0  0999 V2000
  188.9290  177.9720  137.1530 C   0  0  2  0  0  3  0  0  0  0  0  0
  189.5380  175.5260  136.8000 C   0  0  0  0  0  0  0  0  0  0  0  0
  193.3410  174.3540  134.5940 C   0  0  0  0  0  2  0  0  0  0  0  0
  191.0090  176.9770  138.2650 C   0  0  1  0  0  3  0  0  0  0  0  0
  193.4060  177.4500  136.8670 C   0  0  0  0  0  1  0  0  0  0  0  0
  187.1920  178.5870  138.6650 O   0  0  0  0  0  0  0  0  0  0  0  0
  188.4610  175.3580  136.1650 O   0  0  0  0  0  0  0  0  0  0  0  0
  191.4140  174.5080  138.1510 C   0  0  0  0  0  2  0  0  0  0  0  0
  193.2370  172.8410  134.7090 C   0  0  0  0  0  2  0  0  0  0  0  0
  192.2790  172.4510  135.8190 C   0  0  0  0  0  2  0  0  0  0  0  0
  190.0390  176.9190  137.0730 C   0  0  2  0  0  3  0  0  0  0  0  0
  194.5160  174.9010  135.3980 C   0  0  0  0  0  2  0  0  0  0  0  0
  192.9320  176.0690  136.9170 N   0  0  0  0  0  0  0  0  0  0  0  0
  189.4350  179.2120  136.7640 O   0  0  0  0  0  1  0  0  0  0  0  0
  190.0220  173.0660  136.6570 C   0  0  0  0  0  2  0  0  0  0  0  0
  190.2730  176.8630  139.6130 C   0  0  2  0  0  3  0  0  0  0  0  0
  188.3360  178.0830  138.5230 C   0  0  0  0  0  0  0  0  0  0  0  0
  190.3480  174.3950  137.1570 N   0  0  0  0  0  0  0  0  0  0  0  0
  194.1680  175.2510  136.8550 C   0  0  1  0  0  3  0  0  0  0  0  0
  192.0980  175.8880  138.1290 C   0  0  1  0  0  3  0  0  0  0  0  0
  189.0930  177.7190  139.6790 N   0  0  0  0  0  2  0  0  0  0  0  0
  190.8460  172.7620  135.4180 C   0  0  0  0  0  2  0  0  0  0  0  0
  194.3060  174.0770  137.8550 C   0  0  0  0  0  3  0  0  0  0  0  0
  195.0490  174.5390  139.0950 C   0  0  0  0  0  1  0  0  0  0  0  0
  195.0780  172.9040  137.2710 C   0  0  0  0  0  1  0  0  0  0  0  0
  192.3600  177.5050  140.5350 O   0  0  0  0  0  0  0  0  0  0  0  0
  191.1800  177.1380  140.7770 C   0  0  0  0  0  0  0  0  0  0  0  0
  188.9520  176.7500  143.8240 C   0  0  0  0  0  0  0  0  0  0  0  0
  189.8970  176.7450  144.8530 C   0  0  0  0  0  3  0  0  0  0  0  0
  190.7290  176.9990  142.1820 C   0  0  0  0  0  0  0  0  0  0  0  0
  191.2560  176.8680  144.5520 C   0  0  0  0  0  3  0  0  0  0  0  0
  189.3660  176.8760  142.4960 C   0  0  0  0  0  3  0  0  0  0  0  0
  191.6700  176.9930  143.2230 C   0  0  0  0  0  3  0  0  0  0  0  0
  187.5680  176.6270  144.1280 N   0  0  0  0  0  1  0  0  0  0  0  0
  1 14  1  1  0  0  0
  1 17  1  0  0  0  0
  2 11  1  0  0  0  0
  2 18  1  0  0  0  0
  3  9  1  0  0  0  0
  3 12  1  0  0  0  0
  4 16  1  0  0  0  0
  5 13  1  0  0  0  0
  7  2  2  0  0  0  0
  9 10  1  0  0  0  0
 11  1  1  0  0  0  0
 11  4  1  0  0  0  0
 12 19  1  0  0  0  0
 13 20  1  0  0  0  0
 15 18  1  0  0  0  0
 16 21  1  0  0  0  0
 16 27  1  0  0  0  0
 17  6  2  0  0  0  0
 17 21  1  0  0  0  0
 18  8  1  0  0  0  0
 19 13  1  0  0  0  0
 19 23  1  0  0  0  0
 20  8  1  0  0  0  0
 20  4  1  0  0  0  0
 22 10  1  0  0  0  0
 22 15  1  0  0  0  0
 23 24  1  0  0  0  0
 25 23  1  0  0  0  0
 26 27  2  0  0  0  0
 27 30  1  0  0  0  0
 28 34  1  0  0  0  0
 28 29  1  0  0  0  0
 30 32  1  0  0  0  0
 30 33  2  0  0  0  0
 31 29  2  0  0  0  0
 32 28  2  0  0  0  0
 33 31  1  0  0  0  0
M  END
>  <MODEL>
7

>  <REMARK>
 VINA RESULT:      -5.4      7.211      9.686
  Name = 
  3 active torsions:
  status: ('A' for Active; 'I' for Inactive)
    1  A    between atoms: C_12  and  C_28
    2  A    between atoms: C_13  and  C_29
    3  A    between atoms: C_21  and  C_28
                            x       y       z     vdW  Elec       q    Type
                         _______ _______ _______ _____ _____    ______ ____

>  <TORSDO>
F 3

$$$$
