=
 OpenBabel10262419483D

 25 28  0  0  1  0  0  0  0  0999 V2000
  187.1660  177.8560  145.4010 C   0  0  0  0  0  0  0  0  0  0  0  0
  188.4590  177.4450  145.0310 C   0  0  0  0  0  0  0  0  0  0  0  0
  187.7980  177.7640  147.7420 C   0  0  0  0  0  3  0  0  0  0  0  0
  186.0660  178.1590  144.5760 C   0  0  0  0  0  0  0  0  0  0  0  0
  183.6840  178.8340  143.2790 C   0  0  0  0  0  3  0  0  0  0  0  0
  189.0480  177.3660  147.3750 N   0  0  0  0  0  0  0  0  0  0  0  0
  184.9370  178.5360  145.3010 C   0  0  0  0  0  0  0  0  0  0  0  0
  183.7380  178.8770  144.6800 C   0  0  0  0  0  3  0  0  0  0  0  0
  190.7090  176.7900  145.7310 C   0  0  0  0  0  0  0  0  0  0  0  0
  191.7310  176.5280  146.7830 C   0  0  0  0  0  1  0  0  0  0  0  0
  188.8390  177.2710  143.6940 C   0  0  0  0  0  3  0  0  0  0  0  0
  184.8150  178.4560  142.5330 C   0  0  0  0  0  3  0  0  0  0  0  0
  186.8580  178.0090  146.7500 C   0  0  0  0  0  0  0  0  0  0  0  0
  185.2600  178.5070  146.9540 S   0  0  0  0  0  0  0  0  0  0  0  0
  191.0650  176.6240  144.3890 C   0  0  0  0  0  3  0  0  0  0  0  0
  186.0130  178.1160  143.1790 C   0  0  0  0  0  3  0  0  0  0  0  0
  190.1340  176.8580  143.3740 C   0  0  0  0  0  0  0  0  0  0  0  0
  189.4060  177.2000  146.0650 C   0  0  0  0  0  0  0  0  0  0  0  0
  190.5320  176.6960  141.9490 C   0  0  0  0  0  2  0  0  0  0  0  0
  189.3620  177.0290  141.0400 C   0  0  0  0  0  2  0  0  0  0  0  0
  189.8610  177.6600  139.7510 C   0  0  1  0  0  3  0  0  0  0  0  0
  190.2580  176.6670  138.8530 O   0  0  0  0  0  1  0  0  0  0  0  0
  188.7860  178.4960  139.1410 C   0  0  0  0  0  0  0  0  0  0  0  0
  189.0670  179.2650  138.0190 O   0  0  0  0  0  0  0  0  0  0  0  0
  187.6330  178.5250  139.6460 O   0  0  0  0  0  1  0  0  0  0  0  0
  1 13  1  0  0  0  0
  2  1  2  0  0  0  0
  2 18  1  0  0  0  0
  4  7  1  0  0  0  0
  4  1  1  0  0  0  0
  5  8  1  0  0  0  0
  6  3  1  0  0  0  0
  7 14  1  0  0  0  0
  8  7  2  0  0  0  0
  9 18  1  0  0  0  0
  9 10  1  0  0  0  0
 11  2  1  0  0  0  0
 12 16  1  0  0  0  0
 12  5  2  0  0  0  0
 13 14  1  0  0  0  0
 13  3  2  0  0  0  0
 15  9  2  0  0  0  0
 16  4  2  0  0  0  0
 17 11  2  0  0  0  0
 17 15  1  0  0  0  0
 18  6  2  0  0  0  0
 19 17  1  0  0  0  0
 20 19  1  0  0  0  0
 21 22  1  6  0  0  0
 21 20  1  0  0  0  0
 23 25  1  0  0  0  0
 23 21  1  0  0  0  0
 24 23  2  0  0  0  0
M  END
>  <MODEL>
1

>  <REMARK>
 VINA RESULT:     -10.2      0.000      0.000
  Name = 
  4 active torsions:
  status: ('A' for Active; 'I' for Inactive)
    1  A    between atoms: C_2  and  C_21
    2  A    between atoms: C_6  and  C_15
    3  A    between atoms: C_6  and  C_23
    4  A    between atoms: C_15  and  C_21
                            x       y       z     vdW  Elec       q    Type
                         _______ _______ _______ _____ _____    ______ ____

>  <TORSDO>
F 4

$$$$
=
 OpenBabel10262419483D

 25 28  0  0  1  0  0  0  0  0999 V2000
  187.5180  177.8790  145.8220 C   0  0  0  0  0  0  0  0  0  0  0  0
  186.6930  178.1560  144.7170 C   0  0  0  0  0  0  0  0  0  0  0  0
  185.6790  178.3670  147.3270 C   0  0  0  0  0  3  0  0  0  0  0  0
  188.8700  177.4820  145.8380 C   0  0  0  0  0  0  0  0  0  0  0  0
  191.5150  176.6930  146.2700 C   0  0  0  0  0  3  0  0  0  0  0  0
  184.8870  178.6330  146.2520 N   0  0  0  0  0  0  0  0  0  0  0  0
  189.3600  177.2960  147.1290 C   0  0  0  0  0  0  0  0  0  0  0  0
  190.6740  176.9040  147.3720 C   0  0  0  0  0  3  0  0  0  0  0  0
  184.4930  178.8230  143.8840 C   0  0  0  0  0  0  0  0  0  0  0  0
  183.0740  179.2250  144.1020 C   0  0  0  0  0  1  0  0  0  0  0  0
  187.1510  178.0650  143.3960 C   0  0  0  0  0  3  0  0  0  0  0  0
  191.0350  176.8760  144.9610 C   0  0  0  0  0  3  0  0  0  0  0  0
  186.9960  177.9890  147.1080 C   0  0  0  0  0  0  0  0  0  0  0  0
  188.1600  177.6110  148.2680 S   0  0  0  0  0  0  0  0  0  0  0  0
  184.9720  178.7240  142.5750 C   0  0  0  0  0  3  0  0  0  0  0  0
  189.7070  177.2720  144.7380 C   0  0  0  0  0  3  0  0  0  0  0  0
  186.2970  178.3530  142.3290 C   0  0  0  0  0  0  0  0  0  0  0  0
  185.3460  178.5410  144.9660 C   0  0  0  0  0  0  0  0  0  0  0  0
  186.7890  178.2330  140.9300 C   0  0  0  0  0  2  0  0  0  0  0  0
  188.2880  178.4640  140.8830 C   0  0  0  0  0  2  0  0  0  0  0  0
  188.8630  177.9250  139.5830 C   0  0  1  0  0  3  0  0  0  0  0  0
  189.1480  178.9770  138.7110 O   0  0  0  0  0  1  0  0  0  0  0  0
  190.1030  177.1420  139.8590 C   0  0  0  0  0  0  0  0  0  0  0  0
  190.4000  176.0290  139.0830 O   0  0  0  0  0  0  0  0  0  0  0  0
  190.8720  177.4710  140.8000 O   0  0  0  0  0  1  0  0  0  0  0  0
  1  4  1  0  0  0  0
  1 13  2  0  0  0  0
  2 18  1  0  0  0  0
  2  1  1  0  0  0  0
  4  7  1  0  0  0  0
  5  8  1  0  0  0  0
  6  3  2  0  0  0  0
  7  8  2  0  0  0  0
  7 14  1  0  0  0  0
  9 10  1  0  0  0  0
  9 18  2  0  0  0  0
 11  2  2  0  0  0  0
 12  5  2  0  0  0  0
 13  3  1  0  0  0  0
 13 14  1  0  0  0  0
 15  9  1  0  0  0  0
 16 12  1  0  0  0  0
 16  4  2  0  0  0  0
 17 15  2  0  0  0  0
 17 11  1  0  0  0  0
 18  6  1  0  0  0  0
 19 17  1  0  0  0  0
 20 19  1  0  0  0  0
 21 22  1  6  0  0  0
 21 23  1  0  0  0  0
 21 20  1  0  0  0  0
 23 25  1  0  0  0  0
 24 23  2  0  0  0  0
M  END
>  <MODEL>
2

>  <REMARK>
 VINA RESULT:     -10.0      1.543      4.703
  Name = 
  4 active torsions:
  status: ('A' for Active; 'I' for Inactive)
    1  A    between atoms: C_2  and  C_21
    2  A    between atoms: C_6  and  C_15
    3  A    between atoms: C_6  and  C_23
    4  A    between atoms: C_15  and  C_21
                            x       y       z     vdW  Elec       q    Type
                         _______ _______ _______ _____ _____    ______ ____

>  <TORSDO>
F 4

$$$$
=
 OpenBabel10262419483D

 25 28  0  0  1  0  0  0  0  0999 V2000
  189.3500  177.4740  144.0770 C   0  0  0  0  0  0  0  0  0  0  0  0
  188.3570  177.7500  145.0350 C   0  0  0  0  0  0  0  0  0  0  0  0
  190.9220  176.9420  145.8480 C   0  0  0  0  0  3  0  0  0  0  0  0
  189.2640  177.5380  142.6730 C   0  0  0  0  0  0  0  0  0  0  0  0
  189.4790  177.5490  139.8870 C   0  0  0  0  0  3  0  0  0  0  0  0
  189.9540  177.2110  146.7690 N   0  0  0  0  0  0  0  0  0  0  0  0
  190.4580  177.1900  142.0450 C   0  0  0  0  0  0  0  0  0  0  0  0
  190.5930  177.1880  140.6590 C   0  0  0  0  0  3  0  0  0  0  0  0
  187.7250  177.8720  147.3940 C   0  0  0  0  0  0  0  0  0  0  0  0
  188.0370  177.7300  148.8450 C   0  0  0  0  0  1  0  0  0  0  0  0
  187.0640  178.1550  144.6810 C   0  0  0  0  0  3  0  0  0  0  0  0
  188.2660  177.9030  140.5060 C   0  0  0  0  0  3  0  0  0  0  0  0
  190.6140  177.0740  144.5010 C   0  0  0  0  0  0  0  0  0  0  0  0
  191.6340  176.7990  143.1860 S   0  0  0  0  0  0  0  0  0  0  0  0
  186.4410  178.2750  147.0170 C   0  0  0  0  0  3  0  0  0  0  0  0
  188.1530  177.8990  141.9040 C   0  0  0  0  0  3  0  0  0  0  0  0
  186.1110  178.4220  145.6670 C   0  0  0  0  0  0  0  0  0  0  0  0
  188.6950  177.6070  146.4110 C   0  0  0  0  0  0  0  0  0  0  0  0
  184.7340  178.8320  145.2790 C   0  0  0  0  0  2  0  0  0  0  0  0
  184.7300  179.3570  143.8540 C   0  0  0  0  0  2  0  0  0  0  0  0
  183.7700  178.5460  142.9990 C   0  0  1  0  0  3  0  0  0  0  0  0
  182.4740  179.0480  143.1230 O   0  0  0  0  0  1  0  0  0  0  0  0
  184.1980  178.5900  141.5700 C   0  0  0  0  0  0  0  0  0  0  0  0
  185.1450  179.5220  141.1640 O   0  0  0  0  0  1  0  0  0  0  0  0
  183.6920  177.8040  140.7250 O   0  0  0  0  0  0  0  0  0  0  0  0
  1 13  1  0  0  0  0
  1  2  2  0  0  0  0
  2 18  1  0  0  0  0
  3  6  1  0  0  0  0
  4  1  1  0  0  0  0
  5 12  2  0  0  0  0
  5  8  1  0  0  0  0
  7  4  1  0  0  0  0
  7 14  1  0  0  0  0
  8  7  2  0  0  0  0
  9 10  1  0  0  0  0
 11  2  1  0  0  0  0
 11 17  2  0  0  0  0
 12 16  1  0  0  0  0
 13  3  2  0  0  0  0
 14 13  1  0  0  0  0
 15  9  2  0  0  0  0
 16  4  2  0  0  0  0
 17 15  1  0  0  0  0
 18  6  2  0  0  0  0
 18  9  1  0  0  0  0
 19 17  1  0  0  0  0
 20 19  1  0  0  0  0
 21 22  1  6  0  0  0
 21 20  1  0  0  0  0
 23 21  1  0  0  0  0
 24 23  1  0  0  0  0
 25 23  2  0  0  0  0
M  END
>  <MODEL>
3

>  <REMARK>
 VINA RESULT:      -9.8      2.456      5.183
  Name = 
  4 active torsions:
  status: ('A' for Active; 'I' for Inactive)
    1  A    between atoms: C_2  and  C_21
    2  A    between atoms: C_6  and  C_15
    3  A    between atoms: C_6  and  C_23
    4  A    between atoms: C_15  and  C_21
                            x       y       z     vdW  Elec       q    Type
                         _______ _______ _______ _____ _____    ______ ____

>  <TORSDO>
F 4

$$$$
=
 OpenBabel10262419483D

 25 28  0  0  1  0  0  0  0  0999 V2000
  186.9700  177.8990  144.8930 C   0  0  0  0  0  0  0  0  0  0  0  0
  188.1620  177.4710  144.2790 C   0  0  0  0  0  0  0  0  0  0  0  0
  188.0260  177.7380  147.0720 C   0  0  0  0  0  3  0  0  0  0  0  0
  185.7430  178.2450  144.2950 C   0  0  0  0  0  0  0  0  0  0  0  0
  183.1790  178.9990  143.4810 C   0  0  0  0  0  3  0  0  0  0  0  0
  189.1750  177.3240  146.4700 N   0  0  0  0  0  0  0  0  0  0  0  0
  184.7790  178.6260  145.2250 C   0  0  0  0  0  0  0  0  0  0  0  0
  183.4940  179.0060  144.8470 C   0  0  0  0  0  3  0  0  0  0  0  0
  190.4860  176.7540  144.5320 C   0  0  0  0  0  0  0  0  0  0  0  0
  191.6800  176.4460  145.3700 C   0  0  0  0  0  1  0  0  0  0  0  0
  188.2810  177.3230  142.8920 C   0  0  0  0  0  3  0  0  0  0  0  0
  184.1400  178.6170  142.5280 C   0  0  0  0  0  3  0  0  0  0  0  0
  186.9240  178.0260  146.2790 C   0  0  0  0  0  0  0  0  0  0  0  0
  185.4040  178.5510  146.7880 S   0  0  0  0  0  0  0  0  0  0  0  0
  190.5810  176.6150  143.1450 C   0  0  0  0  0  3  0  0  0  0  0  0
  185.4300  178.2370  142.9320 C   0  0  0  0  0  3  0  0  0  0  0  0
  189.4830  176.8910  142.3270 C   0  0  0  0  0  0  0  0  0  0  0  0
  189.2790  177.1820  145.1130 C   0  0  0  0  0  0  0  0  0  0  0  0
  189.6040  176.7570  140.8490 C   0  0  0  0  0  2  0  0  0  0  0  0
  190.8860  177.4130  140.3700 C   0  0  0  0  0  2  0  0  0  0  0  0
  191.3800  176.7350  139.1020 C   0  0  1  0  0  3  0  0  0  0  0  0
  190.7260  177.2630  137.9880 O   0  0  0  0  0  1  0  0  0  0  0  0
  192.8540  176.9240  138.9630 C   0  0  0  0  0  0  0  0  0  0  0  0
  193.4660  176.6780  137.7410 O   0  0  0  0  0  0  0  0  0  0  0  0
  193.5490  177.2860  139.9480 O   0  0  0  0  0  1  0  0  0  0  0  0
  1 13  1  0  0  0  0
  2  1  2  0  0  0  0
  2 18  1  0  0  0  0
  4  1  1  0  0  0  0
  4  7  1  0  0  0  0
  5  8  1  0  0  0  0
  6  3  1  0  0  0  0
  7 14  1  0  0  0  0
  8  7  2  0  0  0  0
  9 18  1  0  0  0  0
  9 10  1  0  0  0  0
 11  2  1  0  0  0  0
 12 16  1  0  0  0  0
 12  5  2  0  0  0  0
 13 14  1  0  0  0  0
 13  3  2  0  0  0  0
 15  9  2  0  0  0  0
 16  4  2  0  0  0  0
 17 11  2  0  0  0  0
 17 15  1  0  0  0  0
 18  6  2  0  0  0  0
 19 17  1  0  0  0  0
 20 19  1  0  0  0  0
 21 22  1  6  0  0  0
 21 20  1  0  0  0  0
 23 21  1  0  0  0  0
 23 25  1  0  0  0  0
 24 23  2  0  0  0  0
M  END
>  <MODEL>
4

>  <REMARK>
 VINA RESULT:      -9.4      1.409      2.044
  Name = 
  4 active torsions:
  status: ('A' for Active; 'I' for Inactive)
    1  A    between atoms: C_2  and  C_21
    2  A    between atoms: C_6  and  C_15
    3  A    between atoms: C_6  and  C_23
    4  A    between atoms: C_15  and  C_21
                            x       y       z     vdW  Elec       q    Type
                         _______ _______ _______ _____ _____    ______ ____

>  <TORSDO>
F 4

$$$$
=
 OpenBabel10262419483D

 25 28  0  0  1  0  0  0  0  0999 V2000
  189.5440  177.4810  144.1540 C   0  0  0  0  0  0  0  0  0  0  0  0
  188.9190  177.7590  142.9240 C   0  0  0  0  0  0  0  0  0  0  0  0
  191.6160  176.9800  142.9960 C   0  0  0  0  0  3  0  0  0  0  0  0
  189.0010  177.5360  145.4530 C   0  0  0  0  0  0  0  0  0  0  0  0
  188.2870  177.5270  148.1540 C   0  0  0  0  0  3  0  0  0  0  0  0
  191.0040  177.2510  141.8100 N   0  0  0  0  0  0  0  0  0  0  0  0
  189.9250  177.1920  146.4370 C   0  0  0  0  0  0  0  0  0  0  0  0
  189.5960  177.1790  147.7890 C   0  0  0  0  0  3  0  0  0  0  0  0
  189.1000  177.9050  140.4900 C   0  0  0  0  0  0  0  0  0  0  0  0
  189.8760  177.7890  139.2230 C   0  0  0  0  0  1  0  0  0  0  0  0
  187.5770  178.1510  142.8350 C   0  0  0  0  0  3  0  0  0  0  0  0
  187.3420  177.8760  147.1730 C   0  0  0  0  0  3  0  0  0  0  0  0
  190.8810  177.0970  144.1680 C   0  0  0  0  0  0  0  0  0  0  0  0
  191.4150  176.8190  145.7440 S   0  0  0  0  0  0  0  0  0  0  0  0
  187.7600  178.2960  140.4260 C   0  0  0  0  0  3  0  0  0  0  0  0
  187.6950  177.8820  145.8140 C   0  0  0  0  0  3  0  0  0  0  0  0
  186.9980  178.4140  141.5920 C   0  0  0  0  0  0  0  0  0  0  0  0
  189.6920  177.6320  141.7360 C   0  0  0  0  0  0  0  0  0  0  0  0
  185.5770  178.8490  141.5110 C   0  0  0  0  0  2  0  0  0  0  0  0
  184.8150  178.3710  142.7340 C   0  0  0  0  0  2  0  0  0  0  0  0
  183.5000  179.1230  142.8600 C   0  0  1  0  0  3  0  0  0  0  0  0
  182.5930  178.6710  141.9000 O   0  0  0  0  0  1  0  0  0  0  0  0
  182.9310  178.9310  144.2260 C   0  0  0  0  0  0  0  0  0  0  0  0
  181.6140  178.5140  144.3700 O   0  0  0  0  0  0  0  0  0  0  0  0
  183.6290  179.1630  145.2490 O   0  0  0  0  0  1  0  0  0  0  0  0
  1 13  2  0  0  0  0
  1  4  1  0  0  0  0
  2  1  1  0  0  0  0
  3 13  1  0  0  0  0
  4 16  2  0  0  0  0
  4  7  1  0  0  0  0
  6  3  2  0  0  0  0
  7  8  2  0  0  0  0
  8  5  1  0  0  0  0
  9 18  1  0  0  0  0
 10  9  1  0  0  0  0
 11  2  1  0  0  0  0
 12  5  2  0  0  0  0
 13 14  1  0  0  0  0
 14  7  1  0  0  0  0
 15  9  2  0  0  0  0
 15 17  1  0  0  0  0
 16 12  1  0  0  0  0
 17 11  2  0  0  0  0
 18  6  1  0  0  0  0
 18  2  2  0  0  0  0
 19 17  1  0  0  0  0
 19 20  1  0  0  0  0
 20 21  1  0  0  0  0
 21 22  1  6  0  0  0
 21 23  1  0  0  0  0
 23 24  2  0  0  0  0
 23 25  1  0  0  0  0
M  END
>  <MODEL>
5

>  <REMARK>
 VINA RESULT:      -9.4      3.247      5.879
  Name = 
  4 active torsions:
  status: ('A' for Active; 'I' for Inactive)
    1  A    between atoms: C_2  and  C_21
    2  A    between atoms: C_6  and  C_15
    3  A    between atoms: C_6  and  C_23
    4  A    between atoms: C_15  and  C_21
                            x       y       z     vdW  Elec       q    Type
                         _______ _______ _______ _____ _____    ______ ____

>  <TORSDO>
F 4

$$$$
=
 OpenBabel10262419483D

 25 28  0  0  1  0  0  0  0  0999 V2000
  186.1840  178.3970  142.6120 C   0  0  0  0  0  0  0  0  0  0  0  0
  187.3390  178.0950  141.8690 C   0  0  0  0  0  0  0  0  0  0  0  0
  185.0350  179.0480  140.5760 C   0  0  0  0  0  3  0  0  0  0  0  0
  185.9740  178.2900  144.0010 C   0  0  0  0  0  0  0  0  0  0  0  0
  185.1880  178.2160  146.6810 C   0  0  0  0  0  3  0  0  0  0  0  0
  186.1580  178.7540  139.8640 N   0  0  0  0  0  0  0  0  0  0  0  0
  184.6920  178.6800  144.3830 C   0  0  0  0  0  0  0  0  0  0  0  0
  184.2750  178.6530  145.7110 C   0  0  0  0  0  3  0  0  0  0  0  0
  188.4360  177.9940  139.6860 C   0  0  0  0  0  0  0  0  0  0  0  0
  188.4330  178.1780  138.2060 C   0  0  0  0  0  1  0  0  0  0  0  0
  188.5130  177.6180  142.4660 C   0  0  0  0  0  3  0  0  0  0  0  0
  186.4860  177.8190  146.3120 C   0  0  0  0  0  3  0  0  0  0  0  0
  185.0520  178.8670  141.9530 C   0  0  0  0  0  0  0  0  0  0  0  0
  183.7950  179.1590  143.0390 S   0  0  0  0  0  0  0  0  0  0  0  0
  189.5950  177.5180  140.3030 C   0  0  0  0  0  3  0  0  0  0  0  0
  186.8860  177.8540  144.9670 C   0  0  0  0  0  3  0  0  0  0  0  0
  189.6380  177.3350  141.6880 C   0  0  0  0  0  0  0  0  0  0  0  0
  187.2990  178.2880  140.4590 C   0  0  0  0  0  0  0  0  0  0  0  0
  190.8730  176.8090  142.3310 C   0  0  0  0  0  2  0  0  0  0  0  0
  190.5940  176.4490  143.7790 C   0  0  0  0  0  2  0  0  0  0  0  0
  191.5780  177.1560  144.6950 C   0  0  1  0  0  3  0  0  0  0  0  0
  191.5490  178.5320  144.4610 O   0  0  0  0  0  1  0  0  0  0  0  0
  191.2400  176.8770  146.1210 C   0  0  0  0  0  0  0  0  0  0  0  0
  189.9250  176.9940  146.5520 O   0  0  0  0  0  0  0  0  0  0  0  0
  192.1400  176.5560  146.9420 O   0  0  0  0  0  1  0  0  0  0  0  0
  1  4  1  0  0  0  0
  2 11  1  0  0  0  0
  2  1  1  0  0  0  0
  3 13  1  0  0  0  0
  4  7  2  0  0  0  0
  4 16  1  0  0  0  0
  6 18  1  0  0  0  0
  6  3  2  0  0  0  0
  7  8  1  0  0  0  0
  8  5  2  0  0  0  0
  9 15  2  0  0  0  0
  9 18  1  0  0  0  0
 10  9  1  0  0  0  0
 12  5  1  0  0  0  0
 13  1  2  0  0  0  0
 13 14  1  0  0  0  0
 14  7  1  0  0  0  0
 15 17  1  0  0  0  0
 16 12  2  0  0  0  0
 17 19  1  0  0  0  0
 17 11  2  0  0  0  0
 18  2  2  0  0  0  0
 19 20  1  0  0  0  0
 20 21  1  0  0  0  0
 21 22  1  1  0  0  0
 21 23  1  0  0  0  0
 23 24  2  0  0  0  0
 23 25  1  0  0  0  0
M  END
>  <MODEL>
6

>  <REMARK>
 VINA RESULT:      -9.4      3.281      5.332
  Name = 
  4 active torsions:
  status: ('A' for Active; 'I' for Inactive)
    1  A    between atoms: C_2  and  C_21
    2  A    between atoms: C_6  and  C_15
    3  A    between atoms: C_6  and  C_23
    4  A    between atoms: C_15  and  C_21
                            x       y       z     vdW  Elec       q    Type
                         _______ _______ _______ _____ _____    ______ ____

>  <TORSDO>
F 4

$$$$
=
 OpenBabel10262419483D

 25 28  0  0  1  0  0  0  0  0999 V2000
  187.3830  177.8820  145.6900 C   0  0  0  0  0  0  0  0  0  0  0  0
  186.5920  178.1960  144.5690 C   0  0  0  0  0  0  0  0  0  0  0  0
  185.4930  178.3050  147.1520 C   0  0  0  0  0  3  0  0  0  0  0  0
  188.7350  177.4900  145.7340 C   0  0  0  0  0  0  0  0  0  0  0  0
  191.3700  176.6970  146.2210 C   0  0  0  0  0  3  0  0  0  0  0  0
  184.7340  178.6070  146.0620 N   0  0  0  0  0  0  0  0  0  0  0  0
  189.1850  177.2580  147.0320 C   0  0  0  0  0  0  0  0  0  0  0  0
  190.4930  176.8630  147.3020 C   0  0  0  0  0  3  0  0  0  0  0  0
  184.4160  178.8840  143.6920 C   0  0  0  0  0  0  0  0  0  0  0  0
  182.9880  179.2710  143.8790 C   0  0  0  0  0  1  0  0  0  0  0  0
  187.0920  178.1580  143.2620 C   0  0  0  0  0  3  0  0  0  0  0  0
  190.9310  176.9270  144.9040 C   0  0  0  0  0  3  0  0  0  0  0  0
  186.8200  177.9410  146.9610 C   0  0  0  0  0  0  0  0  0  0  0  0
  187.9480  177.5240  148.1430 S   0  0  0  0  0  0  0  0  0  0  0  0
  184.9370  178.8370  142.3960 C   0  0  0  0  0  3  0  0  0  0  0  0
  189.6090  177.3260  144.6540 C   0  0  0  0  0  3  0  0  0  0  0  0
  186.2710  178.4810  142.1800 C   0  0  0  0  0  0  0  0  0  0  0  0
  185.2350  178.5660  144.7900 C   0  0  0  0  0  0  0  0  0  0  0  0
  186.8080  178.4170  140.7930 C   0  0  0  0  0  2  0  0  0  0  0  0
  188.0640  177.5650  140.7600 C   0  0  0  0  0  2  0  0  0  0  0  0
  189.0910  178.1800  139.8240 C   0  0  1  0  0  3  0  0  0  0  0  0
  190.3690  177.7170  140.1410 O   0  0  0  0  0  1  0  0  0  0  0  0
  188.7630  177.8370  138.4090 C   0  0  0  0  0  0  0  0  0  0  0  0
  189.2970  178.5950  137.3760 O   0  0  0  0  0  0  0  0  0  0  0  0
  187.9900  176.8780  138.1460 O   0  0  0  0  0  1  0  0  0  0  0  0
  1  4  1  0  0  0  0
  1 13  2  0  0  0  0
  2 18  1  0  0  0  0
  2  1  1  0  0  0  0
  4  7  1  0  0  0  0
  5  8  1  0  0  0  0
  6  3  2  0  0  0  0
  7  8  2  0  0  0  0
  7 14  1  0  0  0  0
  9 10  1  0  0  0  0
  9 18  2  0  0  0  0
 11  2  2  0  0  0  0
 12  5  2  0  0  0  0
 13  3  1  0  0  0  0
 13 14  1  0  0  0  0
 15  9  1  0  0  0  0
 16 12  1  0  0  0  0
 16  4  2  0  0  0  0
 17 15  2  0  0  0  0
 17 11  1  0  0  0  0
 18  6  1  0  0  0  0
 19 17  1  0  0  0  0
 20 19  1  0  0  0  0
 21 22  1  1  0  0  0
 21 20  1  0  0  0  0
 23 21  1  0  0  0  0
 24 23  2  0  0  0  0
 25 23  1  0  0  0  0
M  END
>  <MODEL>
7

>  <REMARK>
 VINA RESULT:      -9.2      1.604      4.583
  Name = 
  4 active torsions:
  status: ('A' for Active; 'I' for Inactive)
    1  A    between atoms: C_2  and  C_21
    2  A    between atoms: C_6  and  C_15
    3  A    between atoms: C_6  and  C_23
    4  A    between atoms: C_15  and  C_21
                            x       y       z     vdW  Elec       q    Type
                         _______ _______ _______ _____ _____    ______ ____

>  <TORSDO>
F 4

$$$$
=
 OpenBabel10262419483D

 25 28  0  0  1  0  0  0  0  0999 V2000
  185.8130  178.2560  144.6460 C   0  0  0  0  0  0  0  0  0  0  0  0
  187.1420  177.8890  144.9240 C   0  0  0  0  0  0  0  0  0  0  0  0
  185.3960  178.5750  147.0150 C   0  0  0  0  0  3  0  0  0  0  0  0
  185.1640  178.3450  143.3990 C   0  0  0  0  0  0  0  0  0  0  0  0
  183.5530  178.6330  141.1340 C   0  0  0  0  0  3  0  0  0  0  0  0
  186.6840  178.2190  147.2760 N   0  0  0  0  0  0  0  0  0  0  0  0
  183.8340  178.7450  143.5120 C   0  0  0  0  0  0  0  0  0  0  0  0
  183.0100  178.8960  142.4000 C   0  0  0  0  0  3  0  0  0  0  0  0
  188.8860  177.5190  146.5980 C   0  0  0  0  0  0  0  0  0  0  0  0
  189.3680  177.4990  148.0080 C   0  0  0  0  0  1  0  0  0  0  0  0
  188.0510  177.5380  143.9180 C   0  0  0  0  0  3  0  0  0  0  0  0
  184.8930  178.2280  141.0030 C   0  0  0  0  0  3  0  0  0  0  0  0
  184.9630  178.5930  145.6960 C   0  0  0  0  0  0  0  0  0  0  0  0
  183.4280  178.9970  145.1270 S   0  0  0  0  0  0  0  0  0  0  0  0
  189.7750  177.1740  145.5770 C   0  0  0  0  0  3  0  0  0  0  0  0
  185.7070  178.0820  142.1370 C   0  0  0  0  0  3  0  0  0  0  0  0
  189.3610  177.1780  144.2420 C   0  0  0  0  0  0  0  0  0  0  0  0
  187.5630  177.8780  146.2840 C   0  0  0  0  0  0  0  0  0  0  0  0
  190.3240  176.8270  143.1630 C   0  0  0  0  0  2  0  0  0  0  0  0
  189.5740  176.4580  141.8960 C   0  0  0  0  0  2  0  0  0  0  0  0
  190.0750  177.2910  140.7270 C   0  0  1  0  0  3  0  0  0  0  0  0
  190.9200  176.5280  139.9200 O   0  0  0  0  0  1  0  0  0  0  0  0
  188.9210  177.7910  139.9250 C   0  0  0  0  0  0  0  0  0  0  0  0
  188.3300  179.0040  140.2520 O   0  0  0  0  0  1  0  0  0  0  0  0
  188.4670  177.1130  138.9650 O   0  0  0  0  0  0  0  0  0  0  0  0
  1  2  2  0  0  0  0
  1 13  1  0  0  0  0
  2 18  1  0  0  0  0
  3  6  1  0  0  0  0
  4  7  1  0  0  0  0
  4  1  1  0  0  0  0
  5  8  1  0  0  0  0
  7 14  1  0  0  0  0
  8  7  2  0  0  0  0
  9 10  1  0  0  0  0
 11 17  2  0  0  0  0
 11  2  1  0  0  0  0
 12  5  2  0  0  0  0
 12 16  1  0  0  0  0
 13  3  2  0  0  0  0
 14 13  1  0  0  0  0
 15  9  2  0  0  0  0
 16  4  2  0  0  0  0
 17 15  1  0  0  0  0
 18  9  1  0  0  0  0
 18  6  2  0  0  0  0
 19 17  1  0  0  0  0
 20 19  1  0  0  0  0
 21 22  1  6  0  0  0
 21 20  1  0  0  0  0
 23 24  1  0  0  0  0
 23 21  1  0  0  0  0
 25 23  2  0  0  0  0
M  END
>  <MODEL>
8

>  <REMARK>
 VINA RESULT:      -9.0      1.313      1.874
  Name = 
  4 active torsions:
  status: ('A' for Active; 'I' for Inactive)
    1  A    between atoms: C_2  and  C_21
    2  A    between atoms: C_6  and  C_15
    3  A    between atoms: C_6  and  C_23
    4  A    between atoms: C_15  and  C_21
                            x       y       z     vdW  Elec       q    Type
                         _______ _______ _______ _____ _____    ______ ____

>  <TORSDO>
F 4

$$$$
=
 OpenBabel10262419483D

 25 28  0  0  1  0  0  0  0  0999 V2000
  187.3350  178.1300  141.5640 C   0  0  0  0  0  0  0  0  0  0  0  0
  186.8100  178.1630  142.8690 C   0  0  0  0  0  0  0  0  0  0  0  0
  185.1840  178.8150  140.6730 C   0  0  0  0  0  3  0  0  0  0  0  0
  188.6380  177.8010  141.1440 C   0  0  0  0  0  0  0  0  0  0  0  0
  191.0910  177.2170  139.9400 C   0  0  0  0  0  3  0  0  0  0  0  0
  184.6840  178.8450  141.9390 N   0  0  0  0  0  0  0  0  0  0  0  0
  188.7940  177.8790  139.7620 C   0  0  0  0  0  0  0  0  0  0  0  0
  190.0050  177.5930  139.1370 C   0  0  0  0  0  3  0  0  0  0  0  0
  184.8890  178.5800  144.3230 C   0  0  0  0  0  0  0  0  0  0  0  0
  183.4660  178.9680  144.5390 C   0  0  0  0  0  1  0  0  0  0  0  0
  187.5790  177.8470  143.9960 C   0  0  0  0  0  3  0  0  0  0  0  0
  190.9500  177.1340  141.3370 C   0  0  0  0  0  3  0  0  0  0  0  0
  186.5130  178.4560  140.4890 C   0  0  0  0  0  0  0  0  0  0  0  0
  187.3520  178.3490  139.0300 S   0  0  0  0  0  0  0  0  0  0  0  0
  185.6760  178.2620  145.4330 C   0  0  0  0  0  3  0  0  0  0  0  0
  189.7210  177.4260  141.9470 C   0  0  0  0  0  3  0  0  0  0  0  0
  187.0140  177.8910  145.2730 C   0  0  0  0  0  0  0  0  0  0  0  0
  185.4450  178.5340  143.0330 C   0  0  0  0  0  0  0  0  0  0  0  0
  187.8460  177.5730  146.4650 C   0  0  0  0  0  2  0  0  0  0  0  0
  189.3060  177.8720  146.1750 C   0  0  0  0  0  2  0  0  0  0  0  0
  190.1980  177.1350  147.1620 C   0  0  1  0  0  3  0  0  0  0  0  0
  189.5200  176.0400  147.6980 O   0  0  0  0  0  1  0  0  0  0  0  0
  191.4440  176.6760  146.4800 C   0  0  0  0  0  0  0  0  0  0  0  0
  191.5480  176.7760  145.0990 O   0  0  0  0  0  0  0  0  0  0  0  0
  192.3920  176.1820  147.1440 O   0  0  0  0  0  1  0  0  0  0  0  0
  1  2  2  0  0  0  0
  2 18  1  0  0  0  0
  2 11  1  0  0  0  0
  3  6  1  0  0  0  0
  4  1  1  0  0  0  0
  4 16  1  0  0  0  0
  5 12  1  0  0  0  0
  6 18  2  0  0  0  0
  7  4  2  0  0  0  0
  8  7  1  0  0  0  0
  8  5  2  0  0  0  0
  9 10  1  0  0  0  0
  9 15  2  0  0  0  0
 11 17  2  0  0  0  0
 12 16  2  0  0  0  0
 13  3  2  0  0  0  0
 13  1  1  0  0  0  0
 14  7  1  0  0  0  0
 14 13  1  0  0  0  0
 17 15  1  0  0  0  0
 17 19  1  0  0  0  0
 18  9  1  0  0  0  0
 20 19  1  0  0  0  0
 20 21  1  0  0  0  0
 21 22  1  6  0  0  0
 23 25  1  0  0  0  0
 23 21  1  0  0  0  0
 24 23  2  0  0  0  0
M  END
>  <MODEL>
9

>  <REMARK>
 VINA RESULT:      -9.0      3.669      6.617
  Name = 
  4 active torsions:
  status: ('A' for Active; 'I' for Inactive)
    1  A    between atoms: C_2  and  C_21
    2  A    between atoms: C_6  and  C_15
    3  A    between atoms: C_6  and  C_23
    4  A    between atoms: C_15  and  C_21
                            x       y       z     vdW  Elec       q    Type
                         _______ _______ _______ _____ _____    ______ ____

>  <TORSDO>
F 4

$$$$
