=
 OpenBabel10262420133D

 27 31  0  0  0  0  0  0  0  0999 V2000
  189.8160  177.4200  142.8290 C   0  0  0  0  0  3  0  0  0  0  0  0
  187.7080  177.6100  144.2520 C   0  0  0  0  0  0  0  0  0  0  0  0
  186.9780  178.2680  141.8920 C   0  0  0  0  0  3  0  0  0  0  0  0
  187.0060  177.4130  145.4310 C   0  0  0  0  0  3  0  0  0  0  0  0
  189.2070  178.2320  139.2170 C   0  0  0  0  0  0  0  0  0  0  0  0
  189.1300  177.4340  144.0910 N   0  0  0  0  0  0  0  0  0  0  0  0
  185.5600  178.0230  143.9270 N   0  0  0  0  0  0  0  0  0  0  0  0
  189.3540  177.7250  141.6160 C   0  0  0  0  0  0  0  0  0  0  0  0
  186.7690  177.9850  143.3130 C   0  0  0  0  0  0  0  0  0  0  0  0
  188.0280  178.4220  139.8410 N   0  0  0  0  0  0  0  0  0  0  0  0
  185.7070  177.6750  145.1960 N   0  0  0  0  0  0  0  0  0  0  0  0
  190.3780  177.6910  140.2810 S   0  0  0  0  0  0  0  0  0  0  0  0
  188.0880  178.1490  141.1730 C   0  0  0  0  0  0  0  0  0  0  0  0
  183.2370  178.7900  144.2180 C   0  0  0  0  0  3  0  0  0  0  0  0
  181.7480  179.0450  142.3270 C   0  0  0  0  0  3  0  0  0  0  0  0
  182.7660  178.6240  141.4710 C   0  0  0  0  0  3  0  0  0  0  0  0
  184.0190  178.2850  141.9880 C   0  0  0  0  0  3  0  0  0  0  0  0
  184.2710  178.3610  143.3680 C   0  0  0  0  0  0  0  0  0  0  0  0
  181.9830  179.1290  143.7020 C   0  0  0  0  0  3  0  0  0  0  0  0
  191.5590  176.7370  147.4780 C   0  0  0  0  0  3  0  0  0  0  0  0
  189.9590  177.2160  145.2500 C   0  0  0  0  0  0  0  0  0  0  0  0
  191.2560  176.6950  145.1240 C   0  0  0  0  0  3  0  0  0  0  0  0
  192.0200  176.4730  146.2270 N   0  0  0  0  0  0  0  0  0  0  0  0
  190.2730  177.2470  147.6570 C   0  0  0  0  0  3  0  0  0  0  0  0
  189.4720  177.4820  146.5400 C   0  0  0  0  0  3  0  0  0  0  0  0
  189.0080  179.6850  137.3740 O   0  0  0  0  0  1  0  0  0  0  0  0
  189.4010  178.4030  137.7520 C   0  0  0  0  0  2  0  0  0  0  0  0
  1  6  1  0  0  0  0
  2  4  1  0  0  0  0
  3  9  1  0  0  0  0
  5 10  2  0  0  0  0
  5 12  1  0  0  0  0
  6  2  1  0  0  0  0
  6 21  1  0  0  0  0
  7 11  1  0  0  0  0
  8  1  2  0  0  0  0
  9  7  1  0  0  0  0
  9  2  2  0  0  0  0
 10 13  1  0  0  0  0
 11  4  2  0  0  0  0
 12  8  1  0  0  0  0
 13  8  1  0  0  0  0
 13  3  2  0  0  0  0
 15 19  2  0  0  0  0
 16 17  2  0  0  0  0
 16 15  1  0  0  0  0
 17 18  1  0  0  0  0
 18  7  1  0  0  0  0
 18 14  2  0  0  0  0
 19 14  1  0  0  0  0
 20 24  1  0  0  0  0
 21 25  1  0  0  0  0
 22 21  2  0  0  0  0
 22 23  1  0  0  0  0
 23 20  2  0  0  0  0
 25 24  2  0  0  0  0
 26 27  1  0  0  0  0
 27  5  1  0  0  0  0
M  END
>  <MODEL>
1

>  <REMARK>
 VINA RESULT:      -9.9      0.000      0.000
  Name = 
  3 active torsions:
  status: ('A' for Active; 'I' for Inactive)
    1  A    between atoms: C_9  and  N_15
    2  A    between atoms: C_13  and  C_22
    3  A    between atoms: C_14  and  N_17
                            x       y       z     vdW  Elec       q    Type
                         _______ _______ _______ _____ _____    ______ ____

>  <TORSDO>
F 3

$$$$
=
 OpenBabel10262420133D

 27 31  0  0  0  0  0  0  0  0999 V2000
  188.1390  177.3420  145.5690 C   0  0  0  0  0  3  0  0  0  0  0  0
  188.1000  177.6650  143.0390 C   0  0  0  0  0  0  0  0  0  0  0  0
  190.5210  177.0590  143.5940 C   0  0  0  0  0  3  0  0  0  0  0  0
  187.4310  177.8520  141.8400 C   0  0  0  0  0  3  0  0  0  0  0  0
  191.5230  176.3530  146.8540 C   0  0  0  0  0  0  0  0  0  0  0  0
  187.5020  177.7510  144.3480 N   0  0  0  0  0  0  0  0  0  0  0  0
  189.5030  177.4180  141.3480 N   0  0  0  0  0  0  0  0  0  0  0  0
  189.4060  176.9820  145.7780 C   0  0  0  0  0  0  0  0  0  0  0  0
  189.4070  177.3830  142.7000 C   0  0  0  0  0  0  0  0  0  0  0  0
  191.6710  176.5330  145.5270 N   0  0  0  0  0  0  0  0  0  0  0  0
  188.3140  177.6960  140.8360 N   0  0  0  0  0  0  0  0  0  0  0  0
  189.9370  176.5970  147.3270 S   0  0  0  0  0  0  0  0  0  0  0  0
  190.5090  176.8850  144.9110 C   0  0  0  0  0  0  0  0  0  0  0  0
  190.5140  176.5330  139.2830 C   0  0  0  0  0  3  0  0  0  0  0  0
  192.8870  176.7380  138.8540 C   0  0  0  0  0  3  0  0  0  0  0  0
  193.0490  177.3950  140.0740 C   0  0  0  0  0  3  0  0  0  0  0  0
  191.9440  177.6210  140.8980 C   0  0  0  0  0  3  0  0  0  0  0  0
  190.6620  177.1910  140.5160 C   0  0  0  0  0  0  0  0  0  0  0  0
  191.6180  176.3070  138.4570 C   0  0  0  0  0  3  0  0  0  0  0  0
  183.5380  179.1490  144.7900 C   0  0  0  0  0  3  0  0  0  0  0  0
  186.1540  178.2440  144.4870 C   0  0  0  0  0  0  0  0  0  0  0  0
  185.6570  178.6500  145.7360 C   0  0  0  0  0  3  0  0  0  0  0  0
  184.3770  179.0910  145.8580 N   0  0  0  0  0  0  0  0  0  0  0  0
  183.9810  178.7480  143.5300 C   0  0  0  0  0  3  0  0  0  0  0  0
  185.2900  178.2910  143.3810 C   0  0  0  0  0  3  0  0  0  0  0  0
  192.8140  176.8560  148.7580 O   0  0  0  0  0  1  0  0  0  0  0  0
  192.6210  175.9100  147.7530 C   0  0  0  0  0  2  0  0  0  0  0  0
  1  8  2  0  0  0  0
  2  6  1  0  0  0  0
  3 13  2  0  0  0  0
  4  2  1  0  0  0  0
  5 12  1  0  0  0  0
  5 27  1  0  0  0  0
  6 21  1  0  0  0  0
  6  1  1  0  0  0  0
  7  9  1  0  0  0  0
  8 12  1  0  0  0  0
  9  2  2  0  0  0  0
  9  3  1  0  0  0  0
 10  5  2  0  0  0  0
 11  7  1  0  0  0  0
 11  4  2  0  0  0  0
 13 10  1  0  0  0  0
 13  8  1  0  0  0  0
 14 18  1  0  0  0  0
 15 16  2  0  0  0  0
 16 17  1  0  0  0  0
 18 17  2  0  0  0  0
 18  7  1  0  0  0  0
 19 15  1  0  0  0  0
 19 14  2  0  0  0  0
 20 23  1  0  0  0  0
 21 22  1  0  0  0  0
 22 23  2  0  0  0  0
 24 20  2  0  0  0  0
 25 24  1  0  0  0  0
 25 21  2  0  0  0  0
 27 26  1  0  0  0  0
M  END
>  <MODEL>
2

>  <REMARK>
 VINA RESULT:      -9.6      3.278      7.288
  Name = 
  3 active torsions:
  status: ('A' for Active; 'I' for Inactive)
    1  A    between atoms: C_9  and  N_15
    2  A    between atoms: C_13  and  C_22
    3  A    between atoms: C_14  and  N_17
                            x       y       z     vdW  Elec       q    Type
                         _______ _______ _______ _____ _____    ______ ____

>  <TORSDO>
F 3

$$$$
=
 OpenBabel10262420133D

 27 31  0  0  0  0  0  0  0  0999 V2000
  188.7650  177.5330  139.6410 C   0  0  0  0  0  3  0  0  0  0  0  0
  189.9150  177.1110  141.8790 C   0  0  0  0  0  0  0  0  0  0  0  0
  187.6330  178.0970  142.4790 C   0  0  0  0  0  3  0  0  0  0  0  0
  190.9400  176.5820  142.6470 C   0  0  0  0  0  3  0  0  0  0  0  0
  185.3050  178.9310  140.0270 C   0  0  0  0  0  0  0  0  0  0  0  0
  189.9100  177.1930  140.4390 N   0  0  0  0  0  0  0  0  0  0  0  0
  189.3920  177.2410  144.0230 N   0  0  0  0  0  0  0  0  0  0  0  0
  187.5760  177.9940  140.0290 C   0  0  0  0  0  0  0  0  0  0  0  0
  188.9440  177.5130  142.7720 C   0  0  0  0  0  0  0  0  0  0  0  0
  185.7950  178.8100  141.2760 N   0  0  0  0  0  0  0  0  0  0  0  0
  190.5880  176.6800  143.9430 N   0  0  0  0  0  0  0  0  0  0  0  0
  186.4000  178.3810  138.8890 S   0  0  0  0  0  0  0  0  0  0  0  0
  187.0550  178.2940  141.3000 C   0  0  0  0  0  0  0  0  0  0  0  0
  189.5120  177.5910  146.4590 C   0  0  0  0  0  3  0  0  0  0  0  0
  187.5180  177.9540  147.7800 C   0  0  0  0  0  3  0  0  0  0  0  0
  186.7380  177.8490  146.6280 C   0  0  0  0  0  3  0  0  0  0  0  0
  187.3450  177.6140  145.3920 C   0  0  0  0  0  3  0  0  0  0  0  0
  188.7400  177.4790  145.2900 C   0  0  0  0  0  0  0  0  0  0  0  0
  188.9070  177.8260  147.6960 C   0  0  0  0  0  3  0  0  0  0  0  0
  193.4320  176.3430  138.2630 C   0  0  0  0  0  3  0  0  0  0  0  0
  191.1110  176.8840  139.7020 C   0  0  0  0  0  0  0  0  0  0  0  0
  192.3440  177.4520  140.0580 C   0  0  0  0  0  3  0  0  0  0  0  0
  193.4650  177.1710  139.3410 N   0  0  0  0  0  0  0  0  0  0  0  0
  192.2290  175.7610  137.8640 C   0  0  0  0  0  3  0  0  0  0  0  0
  191.0670  176.0360  138.5840 C   0  0  0  0  0  3  0  0  0  0  0  0
  184.0010  180.5540  138.9260 O   0  0  0  0  0  1  0  0  0  0  0  0
  183.9310  179.4130  139.7230 C   0  0  0  0  0  2  0  0  0  0  0  0
  1  8  2  0  0  0  0
  1  6  1  0  0  0  0
  2  4  1  0  0  0  0
  2  9  2  0  0  0  0
  3  9  1  0  0  0  0
  4 11  2  0  0  0  0
  5 10  2  0  0  0  0
  6  2  1  0  0  0  0
  7 18  1  0  0  0  0
  8 13  1  0  0  0  0
  9  7  1  0  0  0  0
 10 13  1  0  0  0  0
 11  7  1  0  0  0  0
 12  5  1  0  0  0  0
 12  8  1  0  0  0  0
 13  3  2  0  0  0  0
 14 19  1  0  0  0  0
 16 15  1  0  0  0  0
 17 16  2  0  0  0  0
 18 17  1  0  0  0  0
 18 14  2  0  0  0  0
 19 15  2  0  0  0  0
 20 23  1  0  0  0  0
 21 22  1  0  0  0  0
 21  6  1  0  0  0  0
 23 22  2  0  0  0  0
 24 20  2  0  0  0  0
 24 25  1  0  0  0  0
 25 21  2  0  0  0  0
 26 27  1  0  0  0  0
 27  5  1  0  0  0  0
M  END
>  <MODEL>
3

>  <REMARK>
 VINA RESULT:      -9.5      2.606      5.623
  Name = 
  3 active torsions:
  status: ('A' for Active; 'I' for Inactive)
    1  A    between atoms: C_9  and  N_15
    2  A    between atoms: C_13  and  C_22
    3  A    between atoms: C_14  and  N_17
                            x       y       z     vdW  Elec       q    Type
                         _______ _______ _______ _____ _____    ______ ____

>  <TORSDO>
F 3

$$$$
=
 OpenBabel10262420133D

 27 31  0  0  0  0  0  0  0  0999 V2000
  186.7430  178.0860  140.8150 C   0  0  0  0  0  3  0  0  0  0  0  0
  189.0780  177.3780  141.5600 C   0  0  0  0  0  0  0  0  0  0  0  0
  187.7970  177.8270  143.7260 C   0  0  0  0  0  3  0  0  0  0  0  0
  190.3410  176.8680  141.3050 C   0  0  0  0  0  3  0  0  0  0  0  0
  184.4490  178.7860  143.7010 C   0  0  0  0  0  0  0  0  0  0  0  0
  188.1200  177.7700  140.5560 N   0  0  0  0  0  0  0  0  0  0  0  0
  190.1150  176.9520  143.4650 N   0  0  0  0  0  0  0  0  0  0  0  0
  186.1230  178.2520  141.9840 C   0  0  0  0  0  0  0  0  0  0  0  0
  188.9560  177.4130  142.9340 C   0  0  0  0  0  0  0  0  0  0  0  0
  185.6420  178.4770  144.2450 N   0  0  0  0  0  0  0  0  0  0  0  0
  190.9410  176.6230  142.4840 N   0  0  0  0  0  0  0  0  0  0  0  0
  184.4970  178.6820  142.0320 S   0  0  0  0  0  0  0  0  0  0  0  0
  186.5860  178.1790  143.3100 C   0  0  0  0  0  0  0  0  0  0  0  0
  191.6800  176.1590  145.1940 C   0  0  0  0  0  3  0  0  0  0  0  0
  191.2300  176.4870  147.5490 C   0  0  0  0  0  3  0  0  0  0  0  0
  190.0320  177.1280  147.2280 C   0  0  0  0  0  3  0  0  0  0  0  0
  189.6590  177.2830  145.8910 C   0  0  0  0  0  3  0  0  0  0  0  0
  190.4760  176.7990  144.8560 C   0  0  0  0  0  0  0  0  0  0  0  0
  192.0550  176.0030  146.5310 C   0  0  0  0  0  3  0  0  0  0  0  0
  189.2490  177.9800  136.4880 C   0  0  0  0  0  3  0  0  0  0  0  0
  188.5190  177.8280  139.1710 C   0  0  0  0  0  0  0  0  0  0  0  0
  189.0560  179.0030  138.6220 C   0  0  0  0  0  3  0  0  0  0  0  0
  189.4080  179.0520  137.3090 N   0  0  0  0  0  0  0  0  0  0  0  0
  188.7100  176.7930  136.9840 C   0  0  0  0  0  3  0  0  0  0  0  0
  188.3420  176.7200  138.3270 C   0  0  0  0  0  3  0  0  0  0  0  0
  183.5310  179.0030  145.8590 O   0  0  0  0  0  1  0  0  0  0  0  0
  183.2330  179.0930  144.5000 C   0  0  0  0  0  2  0  0  0  0  0  0
  1  8  2  0  0  0  0
  2  9  2  0  0  0  0
  4  2  1  0  0  0  0
  4 11  2  0  0  0  0
  5 10  2  0  0  0  0
  5 27  1  0  0  0  0
  6  1  1  0  0  0  0
  6  2  1  0  0  0  0
  7 18  1  0  0  0  0
  8 12  1  0  0  0  0
  8 13  1  0  0  0  0
  9  7  1  0  0  0  0
  9  3  1  0  0  0  0
 11  7  1  0  0  0  0
 12  5  1  0  0  0  0
 13  3  2  0  0  0  0
 13 10  1  0  0  0  0
 14 19  1  0  0  0  0
 16 15  1  0  0  0  0
 17 16  2  0  0  0  0
 18 14  2  0  0  0  0
 18 17  1  0  0  0  0
 19 15  2  0  0  0  0
 20 24  2  0  0  0  0
 20 23  1  0  0  0  0
 21  6  1  0  0  0  0
 22 21  1  0  0  0  0
 23 22  2  0  0  0  0
 24 25  1  0  0  0  0
 25 21  2  0  0  0  0
 27 26  1  0  0  0  0
M  END
>  <MODEL>
4

>  <REMARK>
 VINA RESULT:      -9.4      2.646      7.312
  Name = 
  3 active torsions:
  status: ('A' for Active; 'I' for Inactive)
    1  A    between atoms: C_9  and  N_15
    2  A    between atoms: C_13  and  C_22
    3  A    between atoms: C_14  and  N_17
                            x       y       z     vdW  Elec       q    Type
                         _______ _______ _______ _____ _____    ______ ____

>  <TORSDO>
F 3

$$$$
=
 OpenBabel10262420133D

 27 31  0  0  0  0  0  0  0  0999 V2000
  184.4150  178.7450  141.5040 C   0  0  0  0  0  3  0  0  0  0  0  0
  184.4150  178.5740  144.0490 C   0  0  0  0  0  0  0  0  0  0  0  0
  186.8370  178.1440  143.3540 C   0  0  0  0  0  3  0  0  0  0  0  0
  183.8050  178.7200  145.2850 C   0  0  0  0  0  3  0  0  0  0  0  0
  187.8230  178.2510  140.0160 C   0  0  0  0  0  0  0  0  0  0  0  0
  183.7480  178.6760  142.7750 N   0  0  0  0  0  0  0  0  0  0  0  0
  185.9080  178.3170  145.6600 N   0  0  0  0  0  0  0  0  0  0  0  0
  185.7040  178.5630  141.2190 C   0  0  0  0  0  0  0  0  0  0  0  0
  185.7470  178.3280  144.3130 C   0  0  0  0  0  0  0  0  0  0  0  0
  187.9740  178.0850  141.3440 N   0  0  0  0  0  0  0  0  0  0  0  0
  184.7410  178.5560  146.2380 N   0  0  0  0  0  0  0  0  0  0  0  0
  186.2430  178.6380  139.6270 S   0  0  0  0  0  0  0  0  0  0  0  0
  186.8100  178.2510  142.0310 C   0  0  0  0  0  0  0  0  0  0  0  0
  187.1460  178.4530  147.7850 C   0  0  0  0  0  3  0  0  0  0  0  0
  189.4340  177.6860  147.9630 C   0  0  0  0  0  3  0  0  0  0  0  0
  189.4170  177.3270  146.6140 C   0  0  0  0  0  3  0  0  0  0  0  0
  188.2640  177.5320  145.8520 C   0  0  0  0  0  3  0  0  0  0  0  0
  187.1140  178.1000  146.4250 C   0  0  0  0  0  0  0  0  0  0  0  0
  188.2980  178.2480  148.5500 C   0  0  0  0  0  3  0  0  0  0  0  0
  179.5340  178.9600  142.6140 C   0  0  0  0  0  3  0  0  0  0  0  0
  182.3090  178.7540  142.7260 C   0  0  0  0  0  0  0  0  0  0  0  0
  181.6390  178.9960  141.5160 C   0  0  0  0  0  3  0  0  0  0  0  0
  180.2830  179.0900  141.4870 N   0  0  0  0  0  0  0  0  0  0  0  0
  180.1540  178.7280  143.8420 C   0  0  0  0  0  3  0  0  0  0  0  0
  181.5440  178.6290  143.8960 C   0  0  0  0  0  3  0  0  0  0  0  0
  189.0110  179.3710  138.3180 O   0  0  0  0  0  1  0  0  0  0  0  0
  188.9470  178.1830  139.0440 C   0  0  0  0  0  2  0  0  0  0  0  0
  1  6  1  0  0  0  0
  2  9  2  0  0  0  0
  2  4  1  0  0  0  0
  3  9  1  0  0  0  0
  4 11  2  0  0  0  0
  5 10  2  0  0  0  0
  6  2  1  0  0  0  0
  7 11  1  0  0  0  0
  7 18  1  0  0  0  0
  8  1  2  0  0  0  0
  8 13  1  0  0  0  0
  9  7  1  0  0  0  0
 10 13  1  0  0  0  0
 12  5  1  0  0  0  0
 12  8  1  0  0  0  0
 13  3  2  0  0  0  0
 14 19  1  0  0  0  0
 15 19  2  0  0  0  0
 16 15  1  0  0  0  0
 17 18  1  0  0  0  0
 17 16  2  0  0  0  0
 18 14  2  0  0  0  0
 20 24  1  0  0  0  0
 21  6  1  0  0  0  0
 21 25  1  0  0  0  0
 22 21  2  0  0  0  0
 23 22  1  0  0  0  0
 23 20  2  0  0  0  0
 24 25  2  0  0  0  0
 26 27  1  0  0  0  0
 27  5  1  0  0  0  0
M  END
>  <MODEL>
5

>  <REMARK>
 VINA RESULT:      -9.3      2.087      6.551
  Name = 
  3 active torsions:
  status: ('A' for Active; 'I' for Inactive)
    1  A    between atoms: C_9  and  N_15
    2  A    between atoms: C_13  and  C_22
    3  A    between atoms: C_14  and  N_17
                            x       y       z     vdW  Elec       q    Type
                         _______ _______ _______ _____ _____    ______ ____

>  <TORSDO>
F 3

$$$$
=
 OpenBabel10262420133D

 27 31  0  0  0  0  0  0  0  0999 V2000
  191.0870  177.1380  142.6560 C   0  0  0  0  0  3  0  0  0  0  0  0
  188.9830  177.7330  141.3420 C   0  0  0  0  0  0  0  0  0  0  0  0
  188.2280  177.5980  143.7810 C   0  0  0  0  0  3  0  0  0  0  0  0
  188.3350  178.1170  140.1780 C   0  0  0  0  0  3  0  0  0  0  0  0
  190.4740  176.9030  146.3500 C   0  0  0  0  0  0  0  0  0  0  0  0
  190.3620  177.3200  141.4290 N   0  0  0  0  0  0  0  0  0  0  0  0
  186.8840  178.2620  141.7900 N   0  0  0  0  0  0  0  0  0  0  0  0
  190.6340  177.1360  143.9100 C   0  0  0  0  0  0  0  0  0  0  0  0
  188.0460  177.8420  142.3480 C   0  0  0  0  0  0  0  0  0  0  0  0
  189.2760  177.1700  145.7940 N   0  0  0  0  0  0  0  0  0  0  0  0
  187.0630  178.4290  140.4890 N   0  0  0  0  0  0  0  0  0  0  0  0
  191.6810  176.8390  145.1930 S   0  0  0  0  0  0  0  0  0  0  0  0
  189.3420  177.3010  144.4400 C   0  0  0  0  0  0  0  0  0  0  0  0
  184.4260  178.3900  141.6910 C   0  0  0  0  0  3  0  0  0  0  0  0
  183.1170  179.0050  143.6320 C   0  0  0  0  0  3  0  0  0  0  0  0
  184.2880  179.1370  144.3780 C   0  0  0  0  0  3  0  0  0  0  0  0
  185.5280  178.8960  143.7800 C   0  0  0  0  0  3  0  0  0  0  0  0
  185.6140  178.5220  142.4290 C   0  0  0  0  0  0  0  0  0  0  0  0
  183.1850  178.6300  142.2870 C   0  0  0  0  0  3  0  0  0  0  0  0
  192.5870  176.7230  137.8850 C   0  0  0  0  0  3  0  0  0  0  0  0
  191.1190  177.0970  140.2220 C   0  0  0  0  0  0  0  0  0  0  0  0
  192.4730  177.4590  140.1400 C   0  0  0  0  0  3  0  0  0  0  0  0
  193.1690  177.2640  138.9880 N   0  0  0  0  0  0  0  0  0  0  0  0
  191.2420  176.3560  137.9140 C   0  0  0  0  0  3  0  0  0  0  0  0
  190.5080  176.5470  139.0840 C   0  0  0  0  0  3  0  0  0  0  0  0
  192.0590  176.7580  148.0860 O   0  0  0  0  0  1  0  0  0  0  0  0
  190.6920  176.7700  147.8150 C   0  0  0  0  0  2  0  0  0  0  0  0
  1  8  2  0  0  0  0
  2  6  1  0  0  0  0
  2  9  2  0  0  0  0
  3 13  2  0  0  0  0
  4 11  2  0  0  0  0
  4  2  1  0  0  0  0
  5 27  1  0  0  0  0
  6  1  1  0  0  0  0
  7  9  1  0  0  0  0
  7 18  1  0  0  0  0
  8 13  1  0  0  0  0
  8 12  1  0  0  0  0
  9  3  1  0  0  0  0
 10  5  2  0  0  0  0
 11  7  1  0  0  0  0
 12  5  1  0  0  0  0
 13 10  1  0  0  0  0
 14 19  2  0  0  0  0
 14 18  1  0  0  0  0
 15 16  2  0  0  0  0
 17 16  1  0  0  0  0
 18 17  2  0  0  0  0
 19 15  1  0  0  0  0
 20 24  2  0  0  0  0
 20 23  1  0  0  0  0
 21  6  1  0  0  0  0
 22 21  1  0  0  0  0
 23 22  2  0  0  0  0
 24 25  1  0  0  0  0
 25 21  2  0  0  0  0
 27 26  1  0  0  0  0
M  END
>  <MODEL>
6

>  <REMARK>
 VINA RESULT:      -9.3      3.133      5.634
  Name = 
  3 active torsions:
  status: ('A' for Active; 'I' for Inactive)
    1  A    between atoms: C_9  and  N_15
    2  A    between atoms: C_13  and  C_22
    3  A    between atoms: C_14  and  N_17
                            x       y       z     vdW  Elec       q    Type
                         _______ _______ _______ _____ _____    ______ ____

>  <TORSDO>
F 3

$$$$
=
 OpenBabel10262420133D

 27 31  0  0  0  0  0  0  0  0999 V2000
  190.2310  177.3530  141.2810 C   0  0  0  0  0  3  0  0  0  0  0  0
  187.7970  178.0250  140.9170 C   0  0  0  0  0  0  0  0  0  0  0  0
  188.0050  177.6160  143.4320 C   0  0  0  0  0  3  0  0  0  0  0  0
  186.7670  178.5120  140.1270 C   0  0  0  0  0  3  0  0  0  0  0  0
  191.0370  176.7150  144.8900 C   0  0  0  0  0  0  0  0  0  0  0  0
  189.1030  177.6430  140.4400 N   0  0  0  0  0  0  0  0  0  0  0  0
  186.0240  178.4470  142.1690 N   0  0  0  0  0  0  0  0  0  0  0  0
  190.2780  177.2070  142.6060 C   0  0  0  0  0  0  0  0  0  0  0  0
  187.3050  178.0030  142.2060 C   0  0  0  0  0  0  0  0  0  0  0  0
  189.7220  177.0070  144.8520 N   0  0  0  0  0  0  0  0  0  0  0  0
  185.7080  178.7540  140.9210 N   0  0  0  0  0  0  0  0  0  0  0  0
  191.7240  176.8060  143.3670 S   0  0  0  0  0  0  0  0  0  0  0  0
  189.2800  177.2810  143.5940 C   0  0  0  0  0  0  0  0  0  0  0  0
  185.5610  178.6140  144.5820 C   0  0  0  0  0  3  0  0  0  0  0  0
  183.3090  178.9220  145.4160 C   0  0  0  0  0  3  0  0  0  0  0  0
  182.8260  178.9180  144.1070 C   0  0  0  0  0  3  0  0  0  0  0  0
  183.7110  178.7610  143.0360 C   0  0  0  0  0  3  0  0  0  0  0  0
  185.0890  178.6050  143.2590 C   0  0  0  0  0  0  0  0  0  0  0  0
  184.6780  178.7710  145.6550 C   0  0  0  0  0  3  0  0  0  0  0  0
  189.7740  177.4310  136.2720 C   0  0  0  0  0  3  0  0  0  0  0  0
  189.3520  177.5680  139.0210 C   0  0  0  0  0  0  0  0  0  0  0  0
  189.1180  178.6730  138.1870 C   0  0  0  0  0  3  0  0  0  0  0  0
  189.3350  178.5820  136.8480 N   0  0  0  0  0  0  0  0  0  0  0  0
  190.0110  176.3030  137.0580 C   0  0  0  0  0  3  0  0  0  0  0  0
  189.7950  176.3730  138.4330 C   0  0  0  0  0  3  0  0  0  0  0  0
  190.9790  176.7310  147.2440 O   0  0  0  0  0  1  0  0  0  0  0  0
  191.7840  176.4360  146.1450 C   0  0  0  0  0  2  0  0  0  0  0  0
  1  8  2  0  0  0  0
  2  9  2  0  0  0  0
  3 13  2  0  0  0  0
  4  2  1  0  0  0  0
  4 11  2  0  0  0  0
  5 27  1  0  0  0  0
  6  2  1  0  0  0  0
  6  1  1  0  0  0  0
  7  9  1  0  0  0  0
  7 18  1  0  0  0  0
  8 12  1  0  0  0  0
  8 13  1  0  0  0  0
  9  3  1  0  0  0  0
 10  5  2  0  0  0  0
 11  7  1  0  0  0  0
 12  5  1  0  0  0  0
 13 10  1  0  0  0  0
 14 19  1  0  0  0  0
 15 19  2  0  0  0  0
 16 15  1  0  0  0  0
 17 18  1  0  0  0  0
 17 16  2  0  0  0  0
 18 14  2  0  0  0  0
 20 23  2  0  0  0  0
 20 24  1  0  0  0  0
 21  6  1  0  0  0  0
 22 21  2  0  0  0  0
 23 22  1  0  0  0  0
 24 25  2  0  0  0  0
 25 21  1  0  0  0  0
 27 26  1  0  0  0  0
M  END
>  <MODEL>
7

>  <REMARK>
 VINA RESULT:      -9.2      2.587      5.799
  Name = 
  3 active torsions:
  status: ('A' for Active; 'I' for Inactive)
    1  A    between atoms: C_9  and  N_15
    2  A    between atoms: C_13  and  C_22
    3  A    between atoms: C_14  and  N_17
                            x       y       z     vdW  Elec       q    Type
                         _______ _______ _______ _____ _____    ______ ____

>  <TORSDO>
F 3

$$$$
=
 OpenBabel10262420133D

 27 31  0  0  0  0  0  0  0  0999 V2000
  186.6790  178.3670  139.9920 C   0  0  0  0  0  3  0  0  0  0  0  0
  185.7180  178.4120  142.3540 C   0  0  0  0  0  0  0  0  0  0  0  0
  188.1580  177.7020  142.6430 C   0  0  0  0  0  3  0  0  0  0  0  0
  184.7170  178.7180  143.2620 C   0  0  0  0  0  3  0  0  0  0  0  0
  190.3140  177.4360  139.9200 C   0  0  0  0  0  0  0  0  0  0  0  0
  185.5870  178.4670  140.9200 N   0  0  0  0  0  0  0  0  0  0  0  0
  186.4690  178.1540  144.4180 N   0  0  0  0  0  0  0  0  0  0  0  0
  187.9520  178.0430  140.2220 C   0  0  0  0  0  0  0  0  0  0  0  0
  186.8190  178.0670  143.1110 C   0  0  0  0  0  0  0  0  0  0  0  0
  189.9410  177.3690  141.2140 N   0  0  0  0  0  0  0  0  0  0  0  0
  185.2080  178.5480  144.5030 N   0  0  0  0  0  0  0  0  0  0  0  0
  189.0460  177.9330  138.9480 S   0  0  0  0  0  0  0  0  0  0  0  0
  188.6340  177.7000  141.4030 C   0  0  0  0  0  0  0  0  0  0  0  0
  186.7830  178.2450  146.8600 C   0  0  0  0  0  3  0  0  0  0  0  0
  188.7910  177.3900  147.9050 C   0  0  0  0  0  3  0  0  0  0  0  0
  189.2890  177.0320  146.6520 C   0  0  0  0  0  3  0  0  0  0  0  0
  188.5330  177.2800  145.5030 C   0  0  0  0  0  3  0  0  0  0  0  0
  187.2720  177.8920  145.5900 C   0  0  0  0  0  0  0  0  0  0  0  0
  187.5370  177.9970  148.0100 C   0  0  0  0  0  3  0  0  0  0  0  0
  181.7850  179.0200  139.1600 C   0  0  0  0  0  3  0  0  0  0  0  0
  184.2880  178.6740  140.3280 C   0  0  0  0  0  0  0  0  0  0  0  0
  183.2140  177.8210  140.6280 C   0  0  0  0  0  3  0  0  0  0  0  0
  181.9990  178.0120  140.0460 N   0  0  0  0  0  0  0  0  0  0  0  0
  182.8230  179.8880  138.8220 C   0  0  0  0  0  3  0  0  0  0  0  0
  184.0770  179.7100  139.4060 C   0  0  0  0  0  3  0  0  0  0  0  0
  192.6080  177.5550  140.4370 O   0  0  0  0  0  1  0  0  0  0  0  0
  191.7000  177.1820  139.4470 C   0  0  0  0  0  2  0  0  0  0  0  0
  1  8  2  0  0  0  0
  1  6  1  0  0  0  0
  2  9  2  0  0  0  0
  2  4  1  0  0  0  0
  3  9  1  0  0  0  0
  4 11  2  0  0  0  0
  5 10  2  0  0  0  0
  6  2  1  0  0  0  0
  7 11  1  0  0  0  0
  7 18  1  0  0  0  0
  8 13  1  0  0  0  0
  9  7  1  0  0  0  0
 10 13  1  0  0  0  0
 12  5  1  0  0  0  0
 12  8  1  0  0  0  0
 13  3  2  0  0  0  0
 14 19  1  0  0  0  0
 15 19  2  0  0  0  0
 16 15  1  0  0  0  0
 17 18  1  0  0  0  0
 17 16  2  0  0  0  0
 18 14  2  0  0  0  0
 20 23  1  0  0  0  0
 21 22  1  0  0  0  0
 21  6  1  0  0  0  0
 23 22  2  0  0  0  0
 24 20  2  0  0  0  0
 24 25  1  0  0  0  0
 25 21  2  0  0  0  0
 27  5  1  0  0  0  0
 27 26  1  0  0  0  0
M  END
>  <MODEL>
8

>  <REMARK>
 VINA RESULT:      -9.1      2.224      6.312
  Name = 
  3 active torsions:
  status: ('A' for Active; 'I' for Inactive)
    1  A    between atoms: C_9  and  N_15
    2  A    between atoms: C_13  and  C_22
    3  A    between atoms: C_14  and  N_17
                            x       y       z     vdW  Elec       q    Type
                         _______ _______ _______ _____ _____    ______ ____

>  <TORSDO>
F 3

$$$$
=
 OpenBabel10262420133D

 27 31  0  0  0  0  0  0  0  0999 V2000
  188.4430  177.5610  145.3310 C   0  0  0  0  0  3  0  0  0  0  0  0
  190.1910  177.2030  143.5070 C   0  0  0  0  0  0  0  0  0  0  0  0
  188.0140  177.6830  142.2560 C   0  0  0  0  0  3  0  0  0  0  0  0
  191.5000  177.0360  143.0840 C   0  0  0  0  0  3  0  0  0  0  0  0
  185.0520  178.3810  143.9500 C   0  0  0  0  0  0  0  0  0  0  0  0
  189.7490  177.1700  144.8800 N   0  0  0  0  0  0  0  0  0  0  0  0
  190.2920  177.3480  141.3040 N   0  0  0  0  0  0  0  0  0  0  0  0
  187.3570  177.8540  144.6140 C   0  0  0  0  0  0  0  0  0  0  0  0
  189.4480  177.4080  142.3630 C   0  0  0  0  0  0  0  0  0  0  0  0
  185.8450  178.1730  142.8810 N   0  0  0  0  0  0  0  0  0  0  0  0
  191.5220  177.1280  141.7410 N   0  0  0  0  0  0  0  0  0  0  0  0
  185.9080  178.2320  145.3800 S   0  0  0  0  0  0  0  0  0  0  0  0
  187.1280  177.8770  143.2270 C   0  0  0  0  0  0  0  0  0  0  0  0
  190.5430  176.5970  138.9710 C   0  0  0  0  0  3  0  0  0  0  0  0
  189.4290  177.7400  137.1520 C   0  0  0  0  0  3  0  0  0  0  0  0
  188.8730  178.6410  138.0600 C   0  0  0  0  0  3  0  0  0  0  0  0
  189.1530  178.5200  139.4240 C   0  0  0  0  0  3  0  0  0  0  0  0
  189.9930  177.4980  139.8980 C   0  0  0  0  0  0  0  0  0  0  0  0
  190.2640  176.7170  137.6070 C   0  0  0  0  0  3  0  0  0  0  0  0
  192.4590  176.0030  147.9070 C   0  0  0  0  0  3  0  0  0  0  0  0
  190.6640  176.7540  145.9140 C   0  0  0  0  0  0  0  0  0  0  0  0
  190.7380  177.4440  147.1350 C   0  0  0  0  0  3  0  0  0  0  0  0
  191.6210  177.0570  148.0930 N   0  0  0  0  0  0  0  0  0  0  0  0
  192.4300  175.2910  146.7080 C   0  0  0  0  0  3  0  0  0  0  0  0
  191.5330  175.6710  145.7100 C   0  0  0  0  0  3  0  0  0  0  0  0
  183.1450  179.1260  145.1140 O   0  0  0  0  0  1  0  0  0  0  0  0
  183.6220  178.7760  143.8520 C   0  0  0  0  0  2  0  0  0  0  0  0
  2  6  1  0  0  0  0
  3  9  1  0  0  0  0
  3 13  2  0  0  0  0
  4  2  1  0  0  0  0
  5 12  1  0  0  0  0
  6  1  1  0  0  0  0
  6 21  1  0  0  0  0
  7 11  1  0  0  0  0
  7  9  1  0  0  0  0
  8  1  2  0  0  0  0
  8 12  1  0  0  0  0
  9  2  2  0  0  0  0
 10 13  1  0  0  0  0
 10  5  2  0  0  0  0
 11  4  2  0  0  0  0
 13  8  1  0  0  0  0
 14 18  1  0  0  0  0
 15 19  1  0  0  0  0
 15 16  2  0  0  0  0
 16 17  1  0  0  0  0
 17 18  2  0  0  0  0
 18  7  1  0  0  0  0
 19 14  2  0  0  0  0
 20 23  1  0  0  0  0
 21 22  1  0  0  0  0
 22 23  2  0  0  0  0
 24 20  2  0  0  0  0
 25 21  2  0  0  0  0
 25 24  1  0  0  0  0
 27  5  1  0  0  0  0
 27 26  1  0  0  0  0
M  END
>  <MODEL>
9

>  <REMARK>
 VINA RESULT:      -9.1      2.686      5.619
  Name = 
  3 active torsions:
  status: ('A' for Active; 'I' for Inactive)
    1  A    between atoms: C_9  and  N_15
    2  A    between atoms: C_13  and  C_22
    3  A    between atoms: C_14  and  N_17
                            x       y       z     vdW  Elec       q    Type
                         _______ _______ _______ _____ _____    ______ ____

>  <TORSDO>
F 3

$$$$
