=
 OpenBabel10262421463D

 30 33  0  0  1  0  0  0  0  0999 V2000
  183.3690  178.7170  139.3220 C   0  0  2  0  0  3  0  0  0  0  0  0
  181.5590  177.0990  139.9040 C   0  0  2  0  0  3  0  0  0  0  0  0
  182.5840  180.0350  139.2010 C   0  0  0  0  0  2  0  0  0  0  0  0
  179.1440  179.0070  138.0490 N   0  0  0  0  0  0  0  0  0  0  0  0
  179.2530  178.0020  140.9080 C   0  0  1  0  0  3  0  0  0  0  0  0
  180.2810  179.0830  138.7940 C   0  0  0  0  0  0  0  0  0  0  0  0
  181.1720  180.7020  137.2370 C   0  0  0  0  0  3  0  0  0  0  0  0
  181.3290  179.9270  138.3880 C   0  0  0  0  0  0  0  0  0  0  0  0
  180.4680  178.1910  139.9930 C   0  0  2  0  0  0  0  0  0  0  0  0
  179.3070  176.8010  141.6170 O   0  0  0  0  0  1  0  0  0  0  0  0
  178.9780  179.7540  136.9240 C   0  0  0  0  0  3  0  0  0  0  0  0
  179.9900  180.6170  136.4980 C   0  0  0  0  0  3  0  0  0  0  0  0
  182.6290  177.4880  138.9510 N   0  0  0  0  0  0  0  0  0  0  0  0
  180.0170  180.2210  141.2600 O   0  0  0  0  0  1  0  0  0  0  0  0
  180.4050  178.8820  141.3580 C   0  0  1  0  0  3  0  0  0  0  0  0
  185.5760  178.5860  140.5590 C   0  0  0  0  0  0  0  0  0  0  0  0
  186.3090  178.5050  141.7480 C   0  0  0  0  0  3  0  0  0  0  0  0
  186.4530  178.6350  139.0370 Cl  0  0  0  0  0  0  0  0  0  0  0  0
  183.5210  178.5970  141.8440 C   0  0  0  0  0  3  0  0  0  0  0  0
  183.6180  178.4840  144.2210 F   0  0  0  0  0  0  0  0  0  0  0  0
  184.1690  178.6290  140.6010 C   0  0  0  0  0  0  0  0  0  0  0  0
  185.6520  178.4700  142.9800 C   0  0  0  0  0  3  0  0  0  0  0  0
  184.2560  178.5160  143.0280 C   0  0  0  0  0  0  0  0  0  0  0  0
  183.6040  176.4070  138.7870 C   0  0  0  0  0  2  0  0  0  0  0  0
  185.2680  175.9510  137.1830 O   0  0  0  0  0  0  0  0  0  0  0  0
  184.1670  176.4280  137.4050 C   0  0  0  0  0  3  0  0  0  0  0  0
  180.8840  175.7990  139.4440 C   0  0  0  0  0  2  0  0  0  0  0  0
  180.8520  176.2090  137.0270 O   0  0  0  0  0  0  0  0  0  0  0  0
  180.1610  176.0090  138.2000 N   0  0  0  0  0  0  0  0  0  0  0  0
  178.9310  175.8140  138.1640 O   0  0  0  0  0  0  0  0  0  0  0  0
  1 21  1  1  0  0  0
  2 27  1  6  0  0  0
  2  9  1  0  0  0  0
  3  1  1  0  0  0  0
  4  6  1  0  0  0  0
  5 15  1  0  0  0  0
  5 10  1  1  0  0  0
  7  8  1  0  0  0  0
  8  6  2  0  0  0  0
  8  3  1  0  0  0  0
  9  6  1  6  0  0  0
  9  5  1  0  0  0  0
  9 15  1  0  0  0  0
 11  4  2  0  0  0  0
 12 11  1  0  0  0  0
 12  7  2  0  0  0  0
 13  1  1  0  0  0  0
 13  2  1  0  0  0  0
 15 14  1  6  0  0  0
 16 21  2  0  0  0  0
 16 17  1  0  0  0  0
 17 22  2  0  0  0  0
 18 16  1  0  0  0  0
 19 23  2  0  0  0  0
 21 19  1  0  0  0  0
 22 23  1  0  0  0  0
 23 20  1  0  0  0  0
 24 13  1  0  0  0  0
 25 26  2  0  0  0  0
 26 24  1  0  0  0  0
 28 29  2  0  0  0  0
 29 27  1  0  0  0  0
 30 29  2  0  0  0  0
M  END
>  <MODEL>
1

>  <REMARK>
 VINA RESULT:      -5.1      0.000      0.000
  Name = 
  5 active torsions:
  status: ('A' for Active; 'I' for Inactive)
    1  A    between atoms: C_1  and  C_22
    2  A    between atoms: C_4  and  C_25
    3  A    between atoms: C_10  and  N_23
    4  A    between atoms: C_10  and  C_26
    5  A    between atoms: N_11  and  C_25
                            x       y       z     vdW  Elec       q    Type
                         _______ _______ _______ _____ _____    ______ ____

>  <TORSDO>
F 5

$$$$
=
 OpenBabel10262421463D

 30 33  0  0  1  0  0  0  0  0999 V2000
  181.8530  177.7560  140.4350 C   0  0  2  0  0  3  0  0  0  0  0  0
  182.1730  178.2980  138.0190 C   0  0  2  0  0  3  0  0  0  0  0  0
  181.7720  176.2200  140.4020 C   0  0  0  0  0  2  0  0  0  0  0  0
  180.2880  175.4010  137.0340 N   0  0  0  0  0  0  0  0  0  0  0  0
  183.0640  176.4120  136.3490 C   0  0  1  0  0  3  0  0  0  0  0  0
  181.1210  175.9120  137.9830 C   0  0  0  0  0  0  0  0  0  0  0  0
  179.7620  174.8930  139.7000 C   0  0  0  0  0  3  0  0  0  0  0  0
  180.8600  175.6770  139.3430 C   0  0  0  0  0  0  0  0  0  0  0  0
  182.2610  176.8150  137.5900 C   0  0  2  0  0  0  0  0  0  0  0  0
  183.6830  177.5060  135.7410 O   0  0  0  0  0  1  0  0  0  0  0  0
  179.2130  174.6380  137.3670 C   0  0  0  0  0  3  0  0  0  0  0  0
  178.9310  174.3680  138.7090 C   0  0  0  0  0  3  0  0  0  0  0  0
  181.3360  178.4560  139.2350 N   0  0  0  0  0  0  0  0  0  0  0  0
  183.6380  174.8610  138.0500 O   0  0  0  0  0  1  0  0  0  0  0  0
  183.6650  176.2200  137.7290 C   0  0  1  0  0  3  0  0  0  0  0  0
  183.2860  178.7590  142.2690 C   0  0  0  0  0  0  0  0  0  0  0  0
  184.5170  179.2230  142.7430 C   0  0  0  0  0  3  0  0  0  0  0  0
  181.8990  178.8130  143.3470 Cl  0  0  0  0  0  0  0  0  0  0  0  0
  184.3210  178.2310  140.1410 C   0  0  0  0  0  3  0  0  0  0  0  0
  186.6410  178.6630  139.8210 F   0  0  0  0  0  0  0  0  0  0  0  0
  183.1790  178.2600  140.9550 C   0  0  0  0  0  0  0  0  0  0  0  0
  185.6460  179.1920  141.9210 C   0  0  0  0  0  3  0  0  0  0  0  0
  185.5470  178.6950  140.6190 C   0  0  0  0  0  0  0  0  0  0  0  0
  181.1670  179.8700  139.5750 C   0  0  0  0  0  2  0  0  0  0  0  0
  179.9820  180.8120  141.3810 O   0  0  0  0  0  0  0  0  0  0  0  0
  179.9540  180.0520  140.4260 C   0  0  0  0  0  3  0  0  0  0  0  0
  181.5680  179.0880  136.8500 C   0  0  0  0  0  2  0  0  0  0  0  0
  179.1880  178.6550  137.2460 O   0  0  0  0  0  0  0  0  0  0  0  0
  180.2970  178.5110  136.4450 N   0  0  0  0  0  0  0  0  0  0  0  0
  180.1680  178.0590  135.2900 O   0  0  0  0  0  0  0  0  0  0  0  0
  1 21  1  6  0  0  0
  2 27  1  6  0  0  0
  2 13  1  0  0  0  0
  3  1  1  0  0  0  0
  4 11  2  0  0  0  0
  4  6  1  0  0  0  0
  5 10  1  6  0  0  0
  5  9  1  0  0  0  0
  5 15  1  0  0  0  0
  6  8  2  0  0  0  0
  8  7  1  0  0  0  0
  8  3  1  0  0  0  0
  9 15  1  0  0  0  0
  9  6  1  1  0  0  0
  9  2  1  0  0  0  0
 11 12  1  0  0  0  0
 12  7  2  0  0  0  0
 13 24  1  0  0  0  0
 13  1  1  0  0  0  0
 15 14  1  1  0  0  0
 16 17  1  0  0  0  0
 16 18  1  0  0  0  0
 19 23  2  0  0  0  0
 19 21  1  0  0  0  0
 20 23  1  0  0  0  0
 21 16  2  0  0  0  0
 22 17  2  0  0  0  0
 23 22  1  0  0  0  0
 24 26  1  0  0  0  0
 26 25  2  0  0  0  0
 29 27  1  0  0  0  0
 29 28  2  0  0  0  0
 30 29  2  0  0  0  0
M  END
>  <MODEL>
2

>  <REMARK>
 VINA RESULT:      -4.6      2.253      4.647
  Name = 
  5 active torsions:
  status: ('A' for Active; 'I' for Inactive)
    1  A    between atoms: C_1  and  C_22
    2  A    between atoms: C_4  and  C_25
    3  A    between atoms: C_10  and  N_23
    4  A    between atoms: C_10  and  C_26
    5  A    between atoms: N_11  and  C_25
                            x       y       z     vdW  Elec       q    Type
                         _______ _______ _______ _____ _____    ______ ____

>  <TORSDO>
F 5

$$$$
=
 OpenBabel10262421463D

 30 33  0  0  1  0  0  0  0  0999 V2000
  181.6460  177.6360  140.9880 C   0  0  2  0  0  3  0  0  0  0  0  0
  181.4460  178.7010  138.7380 C   0  0  2  0  0  3  0  0  0  0  0  0
  181.7660  176.1470  140.6190 C   0  0  0  0  0  2  0  0  0  0  0  0
  179.8180  175.7850  137.4110 N   0  0  0  0  0  0  0  0  0  0  0  0
  182.2630  177.3690  136.5700 C   0  0  1  0  0  3  0  0  0  0  0  0
  180.7330  176.2280  138.3160 C   0  0  0  0  0  0  0  0  0  0  0  0
  179.8570  174.6670  139.9400 C   0  0  0  0  0  3  0  0  0  0  0  0
  180.7570  175.6820  139.6120 C   0  0  0  0  0  0  0  0  0  0  0  0
  181.6520  177.3710  137.9750 C   0  0  2  0  0  0  0  0  0  0  0  0
  182.6090  178.6520  136.1420 O   0  0  0  0  0  1  0  0  0  0  0  0
  178.9320  174.7980  137.7170 C   0  0  0  0  0  3  0  0  0  0  0  0
  178.9370  174.2200  138.9890 C   0  0  0  0  0  3  0  0  0  0  0  0
  180.8300  178.4650  140.0680 N   0  0  0  0  0  0  0  0  0  0  0  0
  183.3380  175.6270  137.7700 O   0  0  0  0  0  1  0  0  0  0  0  0
  183.1250  177.0080  137.7660 C   0  0  1  0  0  3  0  0  0  0  0  0
  183.1400  178.7300  142.7170 C   0  0  0  0  0  0  0  0  0  0  0  0
  184.3650  179.2890  143.0960 C   0  0  0  0  0  3  0  0  0  0  0  0
  181.8500  178.6520  143.9080 Cl  0  0  0  0  0  0  0  0  0  0  0  0
  184.0320  178.3200  140.5000 C   0  0  0  0  0  3  0  0  0  0  0  0
  186.2730  178.9500  139.9980 F   0  0  0  0  0  0  0  0  0  0  0  0
  182.9650  178.2420  141.4070 C   0  0  0  0  0  0  0  0  0  0  0  0
  185.4190  179.3640  142.1830 C   0  0  0  0  0  3  0  0  0  0  0  0
  185.2520  178.8790  140.8840 C   0  0  0  0  0  0  0  0  0  0  0  0
  180.5380  179.7320  140.7430 C   0  0  0  0  0  2  0  0  0  0  0  0
  179.0220  179.9690  142.5300 O   0  0  0  0  0  0  0  0  0  0  0  0
  179.1770  179.6860  141.3530 C   0  0  0  0  0  3  0  0  0  0  0  0
  180.5380  179.5960  137.8830 C   0  0  0  0  0  2  0  0  0  0  0  0
  182.2940  181.2430  138.3440 O   0  0  0  0  0  0  0  0  0  0  0  0
  181.1670  180.8840  137.6420 N   0  0  0  0  0  0  0  0  0  0  0  0
  180.8020  181.5740  136.6700 O   0  0  0  0  0  0  0  0  0  0  0  0
  1 21  1  6  0  0  0
  2 27  1  6  0  0  0
  2 13  1  0  0  0  0
  3  1  1  0  0  0  0
  4 11  2  0  0  0  0
  4  6  1  0  0  0  0
  5 10  1  1  0  0  0
  5 15  1  0  0  0  0
  5  9  1  0  0  0  0
  6  8  2  0  0  0  0
  8  7  1  0  0  0  0
  8  3  1  0  0  0  0
  9  6  1  1  0  0  0
  9  2  1  0  0  0  0
 11 12  1  0  0  0  0
 12  7  2  0  0  0  0
 13 24  1  0  0  0  0
 13  1  1  0  0  0  0
 15 14  1  6  0  0  0
 15  9  1  0  0  0  0
 16 17  1  0  0  0  0
 16 18  1  0  0  0  0
 19 23  2  0  0  0  0
 19 21  1  0  0  0  0
 20 23  1  0  0  0  0
 21 16  2  0  0  0  0
 22 17  2  0  0  0  0
 23 22  1  0  0  0  0
 24 26  1  0  0  0  0
 26 25  2  0  0  0  0
 29 27  1  0  0  0  0
 29 28  2  0  0  0  0
 30 29  2  0  0  0  0
M  END
>  <MODEL>
3

>  <REMARK>
 VINA RESULT:      -4.6      2.454      4.855
  Name = 
  5 active torsions:
  status: ('A' for Active; 'I' for Inactive)
    1  A    between atoms: C_1  and  C_22
    2  A    between atoms: C_4  and  C_25
    3  A    between atoms: C_10  and  N_23
    4  A    between atoms: C_10  and  C_26
    5  A    between atoms: N_11  and  C_25
                            x       y       z     vdW  Elec       q    Type
                         _______ _______ _______ _____ _____    ______ ____

>  <TORSDO>
F 5

$$$$
=
 OpenBabel10262421463D

 30 33  0  0  1  0  0  0  0  0999 V2000
  182.9290  177.6260  137.8880 C   0  0  2  0  0  3  0  0  0  0  0  0
  181.3620  175.8250  138.6200 C   0  0  2  0  0  3  0  0  0  0  0  0
  183.6670  176.9430  136.7230 C   0  0  0  0  0  2  0  0  0  0  0  0
  183.6850  173.2770  137.6040 N   0  0  0  0  0  0  0  0  0  0  0  0
  180.7750  173.8240  136.9490 C   0  0  1  0  0  3  0  0  0  0  0  0
  183.2320  174.5340  137.3400 C   0  0  0  0  0  0  0  0  0  0  0  0
  185.5080  175.2560  136.9670 C   0  0  0  0  0  3  0  0  0  0  0  0
  184.1460  175.5560  137.0300 C   0  0  0  0  0  0  0  0  0  0  0  0
  181.7690  174.8620  137.4800 C   0  0  2  0  0  0  0  0  0  0  0  0
  179.5350  173.9070  137.5830 O   0  0  0  0  0  1  0  0  0  0  0  0
  185.0090  172.9700  137.5500 C   0  0  0  0  0  3  0  0  0  0  0  0
  185.9460  173.9560  137.2280 C   0  0  0  0  0  3  0  0  0  0  0  0
  182.4820  176.7310  138.9820 N   0  0  0  0  0  0  0  0  0  0  0  0
  181.7830  174.8210  135.0460 O   0  0  0  0  0  1  0  0  0  0  0  0
  181.0100  175.1080  136.1730 C   0  0  1  0  0  3  0  0  0  0  0  0
  181.9760  179.9730  137.8570 C   0  0  0  0  0  0  0  0  0  0  0  0
  181.0260  180.9020  137.4190 C   0  0  0  0  0  3  0  0  0  0  0  0
  183.2400  180.5200  138.9490 Cl  0  0  0  0  0  0  0  0  0  0  0  0
  180.8830  178.2560  136.5400 C   0  0  0  0  0  3  0  0  0  0  0  0
  178.9520  178.8060  135.2590 F   0  0  0  0  0  0  0  0  0  0  0  0
  181.9070  178.6350  137.4200 C   0  0  0  0  0  0  0  0  0  0  0  0
  180.0090  180.5110  136.5460 C   0  0  0  0  0  3  0  0  0  0  0  0
  179.9370  179.1870  136.1060 C   0  0  0  0  0  0  0  0  0  0  0  0
  182.1300  177.5660  140.1320 C   0  0  0  0  0  2  0  0  0  0  0  0
  183.2350  178.3890  142.0440 O   0  0  0  0  0  0  0  0  0  0  0  0
  183.3410  177.8320  140.9620 C   0  0  0  0  0  3  0  0  0  0  0  0
  180.9570  174.9720  139.8310 C   0  0  0  0  0  2  0  0  0  0  0  0
  179.2560  175.0210  141.5940 O   0  0  0  0  0  0  0  0  0  0  0  0
  179.6480  175.3670  140.3220 N   0  0  0  0  0  0  0  0  0  0  0  0
  178.9650  176.1790  139.6670 O   0  0  0  0  0  0  0  0  0  0  0  0
  1 21  1  6  0  0  0
  1 13  1  0  0  0  0
  2 13  1  0  0  0  0
  2 27  1  1  0  0  0
  3  8  1  0  0  0  0
  3  1  1  0  0  0  0
  5  9  1  0  0  0  0
  5 10  1  1  0  0  0
  6  4  2  0  0  0  0
  7  8  2  0  0  0  0
  7 12  1  0  0  0  0
  8  6  1  0  0  0  0
  9  6  1  6  0  0  0
  9  2  1  0  0  0  0
 11  4  1  0  0  0  0
 12 11  2  0  0  0  0
 13 24  1  0  0  0  0
 15 14  1  6  0  0  0
 15  5  1  0  0  0  0
 15  9  1  0  0  0  0
 16 18  1  0  0  0  0
 17 16  2  0  0  0  0
 19 21  2  0  0  0  0
 20 23  1  0  0  0  0
 21 16  1  0  0  0  0
 22 17  1  0  0  0  0
 23 19  1  0  0  0  0
 23 22  2  0  0  0  0
 24 26  1  0  0  0  0
 26 25  2  0  0  0  0
 27 29  1  0  0  0  0
 29 28  2  0  0  0  0
 30 29  2  0  0  0  0
M  END
>  <MODEL>
4

>  <REMARK>
 VINA RESULT:      -4.1      2.908      5.816
  Name = 
  5 active torsions:
  status: ('A' for Active; 'I' for Inactive)
    1  A    between atoms: C_1  and  C_22
    2  A    between atoms: C_4  and  C_25
    3  A    between atoms: C_10  and  N_23
    4  A    between atoms: C_10  and  C_26
    5  A    between atoms: N_11  and  C_25
                            x       y       z     vdW  Elec       q    Type
                         _______ _______ _______ _____ _____    ______ ____

>  <TORSDO>
F 5

$$$$
=
 OpenBabel10262421463D

 30 33  0  0  1  0  0  0  0  0999 V2000
  180.5830  178.2830  138.8150 C   0  0  2  0  0  3  0  0  0  0  0  0
  182.1700  177.4170  137.0920 C   0  0  2  0  0  3  0  0  0  0  0  0
  179.4600  178.8680  137.9400 C   0  0  0  0  0  2  0  0  0  0  0  0
  181.1800  179.9800  134.7750 N   0  0  0  0  0  0  0  0  0  0  0  0
  181.2980  176.9550  134.6090 C   0  0  1  0  0  3  0  0  0  0  0  0
  180.7570  179.1880  135.7980 C   0  0  0  0  0  0  0  0  0  0  0  0
  179.5620  181.0670  136.7360 C   0  0  0  0  0  3  0  0  0  0  0  0
  179.9470  179.7270  136.8120 C   0  0  0  0  0  0  0  0  0  0  0  0
  181.2370  177.7640  135.9080 C   0  0  2  0  0  0  0  0  0  0  0  0
  182.2280  175.9170  134.6750 O   0  0  0  0  0  1  0  0  0  0  0  0
  180.8150  181.2890  134.6890 C   0  0  0  0  0  3  0  0  0  0  0  0
  179.9970  181.8550  135.6690 C   0  0  0  0  0  3  0  0  0  0  0  0
  181.9470  178.3370  138.2360 N   0  0  0  0  0  0  0  0  0  0  0  0
  178.9970  177.2140  135.1280 O   0  0  0  0  0  1  0  0  0  0  0  0
  180.1940  176.6820  135.6140 C   0  0  1  0  0  3  0  0  0  0  0  0
  179.6890  176.9310  140.7620 C   0  0  0  0  0  0  0  0  0  0  0  0
  179.3390  175.7080  141.3440 C   0  0  0  0  0  3  0  0  0  0  0  0
  179.4690  178.3990  141.7040 Cl  0  0  0  0  0  0  0  0  0  0  0  0
  180.3480  175.7650  138.7420 C   0  0  0  0  0  3  0  0  0  0  0  0
  180.1450  173.3950  138.6310 F   0  0  0  0  0  0  0  0  0  0  0  0
  180.2030  176.9670  139.4510 C   0  0  0  0  0  0  0  0  0  0  0  0
  179.4920  174.5180  140.6280 C   0  0  0  0  0  3  0  0  0  0  0  0
  179.9970  174.5470  139.3260 C   0  0  0  0  0  0  0  0  0  0  0  0
  182.9050  178.0750  139.3130 C   0  0  0  0  0  2  0  0  0  0  0  0
  184.5570  179.7530  139.3770 O   0  0  0  0  0  0  0  0  0  0  0  0
  183.4850  179.3580  139.8070 C   0  0  0  0  0  3  0  0  0  0  0  0
  183.6170  177.5280  136.5940 C   0  0  0  0  0  2  0  0  0  0  0  0
  185.7570  176.3900  136.9640 O   0  0  0  0  0  0  0  0  0  0  0  0
  184.3820  176.3510  136.9730 N   0  0  0  0  0  0  0  0  0  0  0  0
  183.7960  175.3780  137.4870 O   0  0  0  0  0  0  0  0  0  0  0  0
  1 21  1  6  0  0  0
  2 27  1  6  0  0  0
  2 13  1  0  0  0  0
  3  1  1  0  0  0  0
  4  6  1  0  0  0  0
  5 10  1  1  0  0  0
  5 15  1  0  0  0  0
  5  9  1  0  0  0  0
  6  8  2  0  0  0  0
  7  8  1  0  0  0  0
  8  3  1  0  0  0  0
  9  6  1  6  0  0  0
  9  2  1  0  0  0  0
 11  4  2  0  0  0  0
 11 12  1  0  0  0  0
 12  7  2  0  0  0  0
 13  1  1  0  0  0  0
 13 24  1  0  0  0  0
 15 14  1  6  0  0  0
 15  9  1  0  0  0  0
 16 17  1  0  0  0  0
 16 18  1  0  0  0  0
 19 23  2  0  0  0  0
 19 21  1  0  0  0  0
 20 23  1  0  0  0  0
 21 16  2  0  0  0  0
 22 17  2  0  0  0  0
 23 22  1  0  0  0  0
 24 26  1  0  0  0  0
 25 26  2  0  0  0  0
 27 29  1  0  0  0  0
 28 29  2  0  0  0  0
 29 30  2  0  0  0  0
M  END
>  <MODEL>
5

>  <REMARK>
 VINA RESULT:      -4.0      3.187      5.098
  Name = 
  5 active torsions:
  status: ('A' for Active; 'I' for Inactive)
    1  A    between atoms: C_1  and  C_22
    2  A    between atoms: C_4  and  C_25
    3  A    between atoms: C_10  and  N_23
    4  A    between atoms: C_10  and  C_26
    5  A    between atoms: N_11  and  C_25
                            x       y       z     vdW  Elec       q    Type
                         _______ _______ _______ _____ _____    ______ ____

>  <TORSDO>
F 5

$$$$
=
 OpenBabel10262421463D

 30 33  0  0  1  0  0  0  0  0999 V2000
  180.5720  178.4240  139.5450 C   0  0  2  0  0  3  0  0  0  0  0  0
  182.5100  177.0150  138.8410 C   0  0  2  0  0  3  0  0  0  0  0  0
  181.2710  179.5390  140.3440 C   0  0  0  0  0  2  0  0  0  0  0  0
  184.3400  177.9060  141.8030 N   0  0  0  0  0  0  0  0  0  0  0  0
  184.9700  178.0580  138.8410 C   0  0  1  0  0  3  0  0  0  0  0  0
  183.4220  178.3390  140.8950 C   0  0  0  0  0  0  0  0  0  0  0  0
  182.1320  179.3140  142.6900 C   0  0  0  0  0  3  0  0  0  0  0  0
  182.2860  179.0420  141.3290 C   0  0  0  0  0  0  0  0  0  0  0  0
  183.5620  177.9780  139.4390 C   0  0  2  0  0  0  0  0  0  0  0  0
  185.1240  177.2180  137.7370 O   0  0  0  0  0  1  0  0  0  0  0  0
  184.2020  178.1610  143.1330 C   0  0  0  0  0  3  0  0  0  0  0  0
  183.0940  178.8720  143.6000 C   0  0  0  0  0  3  0  0  0  0  0  0
  181.2270  177.0940  139.5840 N   0  0  0  0  0  0  0  0  0  0  0  0
  184.2640  180.2960  139.1910 O   0  0  0  0  0  1  0  0  0  0  0  0
  183.9460  179.1250  138.5000 C   0  0  1  0  0  3  0  0  0  0  0  0
  179.3730  180.0680  138.0350 C   0  0  0  0  0  0  0  0  0  0  0  0
  178.9580  180.4840  136.7660 C   0  0  0  0  0  3  0  0  0  0  0  0
  178.9450  181.0580  139.4230 Cl  0  0  0  0  0  0  0  0  0  0  0  0
  180.4420  178.1350  137.0350 C   0  0  0  0  0  3  0  0  0  0  0  0
  180.3420  177.8230  134.6760 F   0  0  0  0  0  0  0  0  0  0  0  0
  180.1190  178.8810  138.1780 C   0  0  0  0  0  0  0  0  0  0  0  0
  179.2820  179.7300  135.6360 C   0  0  0  0  0  3  0  0  0  0  0  0
  180.0250  178.5550  135.7710 C   0  0  0  0  0  0  0  0  0  0  0  0
  180.2690  176.1060  139.0840 C   0  0  0  0  0  2  0  0  0  0  0  0
  179.6890  174.2720  140.4450 O   0  0  0  0  0  0  0  0  0  0  0  0
  179.5510  175.4650  140.2250 C   0  0  0  0  0  3  0  0  0  0  0  0
  183.0810  175.5920  138.9170 C   0  0  0  0  0  2  0  0  0  0  0  0
  184.1060  173.9650  137.3980 O   0  0  0  0  0  0  0  0  0  0  0  0
  183.2770  175.0460  137.5840 N   0  0  0  0  0  0  0  0  0  0  0  0
  182.5480  175.4310  136.6490 O   0  0  0  0  0  0  0  0  0  0  0  0
  1 21  1  6  0  0  0
  1 13  1  0  0  0  0
  1  3  1  0  0  0  0
  2 27  1  1  0  0  0
  2  9  1  0  0  0  0
  2 13  1  0  0  0  0
  3  8  1  0  0  0  0
  4 11  1  0  0  0  0
  5 10  1  6  0  0  0
  5  9  1  0  0  0  0
  6  8  1  0  0  0  0
  6  4  2  0  0  0  0
  7 12  1  0  0  0  0
  8  7  2  0  0  0  0
  9  6  1  1  0  0  0
 11 12  2  0  0  0  0
 15  5  1  0  0  0  0
 15 14  1  1  0  0  0
 15  9  1  0  0  0  0
 16 21  1  0  0  0  0
 16 18  1  0  0  0  0
 17 16  2  0  0  0  0
 19 21  2  0  0  0  0
 20 23  1  0  0  0  0
 22 23  2  0  0  0  0
 22 17  1  0  0  0  0
 23 19  1  0  0  0  0
 24 13  1  0  0  0  0
 24 26  1  0  0  0  0
 26 25  2  0  0  0  0
 28 29  2  0  0  0  0
 29 27  1  0  0  0  0
 30 29  2  0  0  0  0
M  END
>  <MODEL>
6

>  <REMARK>
 VINA RESULT:      -3.9      2.981      5.877
  Name = 
  5 active torsions:
  status: ('A' for Active; 'I' for Inactive)
    1  A    between atoms: C_1  and  C_22
    2  A    between atoms: C_4  and  C_25
    3  A    between atoms: C_10  and  N_23
    4  A    between atoms: C_10  and  C_26
    5  A    between atoms: N_11  and  C_25
                            x       y       z     vdW  Elec       q    Type
                         _______ _______ _______ _____ _____    ______ ____

>  <TORSDO>
F 5

$$$$
=
 OpenBabel10262421463D

 30 33  0  0  1  0  0  0  0  0999 V2000
  183.7540  177.8470  138.0560 C   0  0  2  0  0  3  0  0  0  0  0  0
  184.0400  175.5740  137.0620 C   0  0  2  0  0  3  0  0  0  0  0  0
  185.0230  178.5650  137.5630 C   0  0  0  0  0  2  0  0  0  0  0  0
  187.6180  175.8460  137.2620 N   0  0  0  0  0  0  0  0  0  0  0  0
  185.6990  175.2360  134.9950 C   0  0  1  0  0  3  0  0  0  0  0  0
  186.4610  176.5440  137.0930 C   0  0  0  0  0  0  0  0  0  0  0  0
  187.3170  178.2800  138.5390 C   0  0  0  0  0  3  0  0  0  0  0  0
  186.2840  177.7750  137.7470 C   0  0  0  0  0  0  0  0  0  0  0  0
  185.3270  175.9570  136.2940 C   0  0  2  0  0  0  0  0  0  0  0  0
  184.7480  174.2830  134.6280 O   0  0  0  0  0  1  0  0  0  0  0  0
  188.6320  176.3240  138.0330 C   0  0  0  0  0  3  0  0  0  0  0  0
  188.5000  177.5530  138.6850 C   0  0  0  0  0  3  0  0  0  0  0  0
  183.8880  176.3900  138.2930 N   0  0  0  0  0  0  0  0  0  0  0  0
  186.0310  177.5510  134.5940 O   0  0  0  0  0  1  0  0  0  0  0  0
  185.0570  176.6100  134.9360 C   0  0  1  0  0  3  0  0  0  0  0  0
  181.8690  179.4800  137.6120 C   0  0  0  0  0  0  0  0  0  0  0  0
  180.7220  179.8620  136.9080 C   0  0  0  0  0  3  0  0  0  0  0  0
  182.4710  180.5450  138.8740 Cl  0  0  0  0  0  0  0  0  0  0  0  0
  181.9970  177.4610  136.2770 C   0  0  0  0  0  3  0  0  0  0  0  0
  180.3620  177.0570  134.5940 F   0  0  0  0  0  0  0  0  0  0  0  0
  182.5150  178.2670  137.3010 C   0  0  0  0  0  0  0  0  0  0  0  0
  180.2140  179.0480  135.8940 C   0  0  0  0  0  3  0  0  0  0  0  0
  180.8530  177.8460  135.5780 C   0  0  0  0  0  0  0  0  0  0  0  0
  182.7280  175.9520  139.0730 C   0  0  0  0  0  2  0  0  0  0  0  0
  181.5890  177.3530  140.5860 O   0  0  0  0  0  0  0  0  0  0  0  0
  182.6200  176.7540  140.3270 C   0  0  0  0  0  3  0  0  0  0  0  0
  184.1350  174.0840  137.4200 C   0  0  0  0  0  2  0  0  0  0  0  0
  183.0150  171.9690  136.8900 O   0  0  0  0  0  0  0  0  0  0  0  0
  183.0380  173.3420  136.8200 N   0  0  0  0  0  0  0  0  0  0  0  0
  182.0290  173.9550  136.4170 O   0  0  0  0  0  0  0  0  0  0  0  0
  1 21  1  6  0  0  0
  1 13  1  0  0  0  0
  2 27  1  1  0  0  0
  2 13  1  0  0  0  0
  3  8  1  0  0  0  0
  3  1  1  0  0  0  0
  4 11  1  0  0  0  0
  5 10  1  6  0  0  0
  5  9  1  0  0  0  0
  6  4  2  0  0  0  0
  6  8  1  0  0  0  0
  7 12  1  0  0  0  0
  8  7  2  0  0  0  0
  9  2  1  0  0  0  0
  9  6  1  1  0  0  0
 11 12  2  0  0  0  0
 13 24  1  0  0  0  0
 15 14  1  1  0  0  0
 15  5  1  0  0  0  0
 15  9  1  0  0  0  0
 16 18  1  0  0  0  0
 17 16  2  0  0  0  0
 19 21  2  0  0  0  0
 20 23  1  0  0  0  0
 21 16  1  0  0  0  0
 22 17  1  0  0  0  0
 23 22  2  0  0  0  0
 23 19  1  0  0  0  0
 24 26  1  0  0  0  0
 26 25  2  0  0  0  0
 29 28  2  0  0  0  0
 29 27  1  0  0  0  0
 30 29  2  0  0  0  0
M  END
>  <MODEL>
7

>  <REMARK>
 VINA RESULT:      -3.8      3.387      6.611
  Name = 
  5 active torsions:
  status: ('A' for Active; 'I' for Inactive)
    1  A    between atoms: C_1  and  C_22
    2  A    between atoms: C_4  and  C_25
    3  A    between atoms: C_10  and  N_23
    4  A    between atoms: C_10  and  C_26
    5  A    between atoms: N_11  and  C_25
                            x       y       z     vdW  Elec       q    Type
                         _______ _______ _______ _____ _____    ______ ____

>  <TORSDO>
F 5

$$$$
=
 OpenBabel10262421463D

 30 33  0  0  1  0  0  0  0  0999 V2000
  182.7690  179.0650  140.1610 C   0  0  2  0  0  3  0  0  0  0  0  0
  182.3860  176.6680  139.5760 C   0  0  2  0  0  3  0  0  0  0  0  0
  181.3660  179.6640  139.9590 C   0  0  0  0  0  2  0  0  0  0  0  0
  179.7990  177.5640  137.2480 N   0  0  0  0  0  0  0  0  0  0  0  0
  179.9040  175.6780  139.6190 C   0  0  1  0  0  3  0  0  0  0  0  0
  180.4090  177.9110  138.4140 C   0  0  0  0  0  0  0  0  0  0  0  0
  180.3410  180.2300  137.7400 C   0  0  0  0  0  3  0  0  0  0  0  0
  180.7060  179.2600  138.6750 C   0  0  0  0  0  0  0  0  0  0  0  0
  180.8620  176.8500  139.3820 C   0  0  2  0  0  0  0  0  0  0  0  0
  180.5710  174.5260  140.0400 O   0  0  0  0  0  1  0  0  0  0  0  0
  179.4400  178.4990  136.3260 C   0  0  0  0  0  3  0  0  0  0  0  0
  179.7040  179.8510  136.5570 C   0  0  0  0  0  3  0  0  0  0  0  0
  183.1180  177.9250  139.2790 N   0  0  0  0  0  0  0  0  0  0  0  0
  178.9310  177.5630  140.6810 O   0  0  0  0  0  1  0  0  0  0  0  0
  180.0640  176.7470  140.6850 C   0  0  1  0  0  3  0  0  0  0  0  0
  182.1770  179.1730  142.6220 C   0  0  0  0  0  0  0  0  0  0  0  0
  182.5130  179.0040  143.9690 C   0  0  0  0  0  3  0  0  0  0  0  0
  180.5620  179.7430  142.2270 Cl  0  0  0  0  0  0  0  0  0  0  0  0
  184.3940  178.4240  141.9910 C   0  0  0  0  0  3  0  0  0  0  0  0
  185.9560  177.8120  143.6810 F   0  0  0  0  0  0  0  0  0  0  0  0
  183.1230  178.8860  141.6190 C   0  0  0  0  0  0  0  0  0  0  0  0
  183.7830  178.5470  144.3270 C   0  0  0  0  0  3  0  0  0  0  0  0
  184.7240  178.2560  143.3360 C   0  0  0  0  0  0  0  0  0  0  0  0
  184.5650  177.7210  139.3590 C   0  0  0  0  0  2  0  0  0  0  0  0
  186.4820  178.6280  138.3320 O   0  0  0  0  0  0  0  0  0  0  0  0
  185.2630  178.6040  138.3790 C   0  0  0  0  0  3  0  0  0  0  0  0
  182.8470  175.5490  138.6310 C   0  0  0  0  0  2  0  0  0  0  0  0
  183.0250  176.8220  136.5440 O   0  0  0  0  0  0  0  0  0  0  0  0
  182.4210  175.8210  137.2680 N   0  0  0  0  0  0  0  0  0  0  0  0
  181.6510  175.0250  136.6950 O   0  0  0  0  0  0  0  0  0  0  0  0
  1 21  1  1  0  0  0
  2 27  1  6  0  0  0
  3  1  1  0  0  0  0
  4  6  1  0  0  0  0
  5 10  1  1  0  0  0
  5 15  1  0  0  0  0
  6  8  2  0  0  0  0
  7  8  1  0  0  0  0
  8  3  1  0  0  0  0
  9  6  1  6  0  0  0
  9  2  1  0  0  0  0
  9  5  1  0  0  0  0
  9 15  1  0  0  0  0
 11 12  1  0  0  0  0
 11  4  2  0  0  0  0
 12  7  2  0  0  0  0
 13 24  1  0  0  0  0
 13  2  1  0  0  0  0
 13  1  1  0  0  0  0
 15 14  1  6  0  0  0
 16 17  1  0  0  0  0
 17 22  2  0  0  0  0
 18 16  1  0  0  0  0
 19 23  2  0  0  0  0
 21 19  1  0  0  0  0
 21 16  2  0  0  0  0
 23 20  1  0  0  0  0
 23 22  1  0  0  0  0
 25 26  2  0  0  0  0
 26 24  1  0  0  0  0
 28 29  2  0  0  0  0
 29 27  1  0  0  0  0
 30 29  2  0  0  0  0
M  END
>  <MODEL>
8

>  <REMARK>
 VINA RESULT:      -3.8      2.011      2.516
  Name = 
  5 active torsions:
  status: ('A' for Active; 'I' for Inactive)
    1  A    between atoms: C_1  and  C_22
    2  A    between atoms: C_4  and  C_25
    3  A    between atoms: C_10  and  N_23
    4  A    between atoms: C_10  and  C_26
    5  A    between atoms: N_11  and  C_25
                            x       y       z     vdW  Elec       q    Type
                         _______ _______ _______ _____ _____    ______ ____

>  <TORSDO>
F 5

$$$$
=
 OpenBabel10262421463D

 30 33  0  0  1  0  0  0  0  0999 V2000
  184.6420  179.0650  139.1840 C   0  0  2  0  0  3  0  0  0  0  0  0
  184.7700  176.8380  138.0630 C   0  0  2  0  0  3  0  0  0  0  0  0
  183.1210  179.2760  139.2890 C   0  0  0  0  0  2  0  0  0  0  0  0
  181.6860  177.4460  136.3210 N   0  0  0  0  0  0  0  0  0  0  0  0
  182.6550  175.2070  138.1210 C   0  0  1  0  0  3  0  0  0  0  0  0
  182.3800  177.6940  137.4660 C   0  0  0  0  0  0  0  0  0  0  0  0
  181.6270  179.9900  137.4040 C   0  0  0  0  0  3  0  0  0  0  0  0
  182.3740  178.9850  138.0220 C   0  0  0  0  0  0  0  0  0  0  0  0
  183.2390  176.6230  138.0840 C   0  0  2  0  0  0  0  0  0  0  0  0
  183.6470  174.2260  138.1670 O   0  0  0  0  0  1  0  0  0  0  0  0
  180.9560  178.4160  135.7060 C   0  0  0  0  0  3  0  0  0  0  0  0
  180.9130  179.7070  136.2380 C   0  0  0  0  0  3  0  0  0  0  0  0
  185.1070  178.2840  138.0140 N   0  0  0  0  0  0  0  0  0  0  0  0
  181.4400  176.4740  139.7170 O   0  0  0  0  0  1  0  0  0  0  0  0
  182.7230  176.0260  139.3970 C   0  0  1  0  0  3  0  0  0  0  0  0
  184.4700  178.4960  141.6470 C   0  0  0  0  0  0  0  0  0  0  0  0
  185.0600  178.1460  142.8660 C   0  0  0  0  0  3  0  0  0  0  0  0
  182.7230  178.6830  141.5860 Cl  0  0  0  0  0  0  0  0  0  0  0  0
  186.6600  178.5150  140.6080 C   0  0  0  0  0  3  0  0  0  0  0  0
  188.5860  178.0050  141.9120 F   0  0  0  0  0  0  0  0  0  0  0  0
  185.2720  178.6880  140.5050 C   0  0  0  0  0  0  0  0  0  0  0  0
  186.4440  177.9810  142.9570 C   0  0  0  0  0  3  0  0  0  0  0  0
  187.2440  178.1660  141.8260 C   0  0  0  0  0  0  0  0  0  0  0  0
  186.5520  178.4810  137.8850 C   0  0  0  0  0  2  0  0  0  0  0  0
  187.7300  178.4220  135.8450 O   0  0  0  0  0  0  0  0  0  0  0  0
  186.8820  178.9840  136.5190 C   0  0  0  0  0  3  0  0  0  0  0  0
  185.3270  176.1210  136.8250 C   0  0  0  0  0  2  0  0  0  0  0  0
  186.2830  173.8650  136.9000 O   0  0  0  0  0  0  0  0  0  0  0  0
  186.3910  175.2040  137.1990 N   0  0  0  0  0  0  0  0  0  0  0  0
  187.4770  175.6580  137.6110 O   0  0  0  0  0  0  0  0  0  0  0  0
  1  3  1  0  0  0  0
  1 21  1  1  0  0  0
  2 27  1  6  0  0  0
  2  9  1  0  0  0  0
  4  6  1  0  0  0  0
  5 10  1  1  0  0  0
  5 15  1  0  0  0  0
  6  8  2  0  0  0  0
  7  8  1  0  0  0  0
  8  3  1  0  0  0  0
  9  6  1  6  0  0  0
  9  5  1  0  0  0  0
  9 15  1  0  0  0  0
 11 12  1  0  0  0  0
 11  4  2  0  0  0  0
 12  7  2  0  0  0  0
 13  2  1  0  0  0  0
 13  1  1  0  0  0  0
 15 14  1  6  0  0  0
 16 17  1  0  0  0  0
 17 22  2  0  0  0  0
 18 16  1  0  0  0  0
 19 23  2  0  0  0  0
 21 19  1  0  0  0  0
 21 16  2  0  0  0  0
 23 20  1  0  0  0  0
 23 22  1  0  0  0  0
 24 13  1  0  0  0  0
 25 26  2  0  0  0  0
 26 24  1  0  0  0  0
 27 29  1  0  0  0  0
 28 29  2  0  0  0  0
 29 30  2  0  0  0  0
M  END
>  <MODEL>
9

>  <REMARK>
 VINA RESULT:      -3.7      2.523      3.949
  Name = 
  5 active torsions:
  status: ('A' for Active; 'I' for Inactive)
    1  A    between atoms: C_1  and  C_22
    2  A    between atoms: C_4  and  C_25
    3  A    between atoms: C_10  and  N_23
    4  A    between atoms: C_10  and  C_26
    5  A    between atoms: N_11  and  C_25
                            x       y       z     vdW  Elec       q    Type
                         _______ _______ _______ _____ _____    ______ ____

>  <TORSDO>
F 5

$$$$
