=
 OpenBabel10252414523D

 34 38  0  0  1  0  0  0  0  0999 V2000
  189.4450  177.4840  145.7760 C   0  0  2  0  0  3  0  0  0  0  0  0
  187.2380  178.2630  146.7620 C   0  0  1  0  0  3  0  0  0  0  0  0
  187.4520  177.9340  144.2650 C   0  0  1  0  0  3  0  0  0  0  0  0
  185.9690  179.2670  141.9580 C   0  0  0  0  0  2  0  0  0  0  0  0
  187.5290  177.7400  148.0220 O   0  0  0  0  0  1  0  0  0  0  0  0
  185.3290  178.8170  145.2240 C   0  0  0  0  0  2  0  0  0  0  0  0
  187.9100  177.4210  145.6530 C   0  0  1  0  0  3  0  0  0  0  0  0
  185.3140  178.1260  142.7670 C   0  0  1  0  0  3  0  0  0  0  0  0
  188.2060  177.2630  143.0880 C   0  0  1  0  0  3  0  0  0  0  0  0
  190.1090  176.7500  144.6170 C   0  0  0  0  0  2  0  0  0  0  0  0
  185.7190  178.3060  146.6030 C   0  0  0  0  0  2  0  0  0  0  0  0
  187.3820  179.2130  141.8740 O   0  0  0  0  0  0  0  0  0  0  0  0
  187.7760  177.8690  141.7300 C   0  0  1  0  0  3  0  0  0  0  0  0
  185.9110  177.8810  144.1710 C   0  0  1  0  0  3  0  0  0  0  0  0
  189.7130  177.4020  143.3070 C   0  0  0  0  0  2  0  0  0  0  0  0
  189.5400  178.2450  138.3740 C   0  0  0  0  0  0  0  0  0  0  0  0
  190.5660  177.3040  138.5040 C   0  0  0  0  0  3  0  0  0  0  0  0
  188.7320  177.6700  140.5890 C   0  0  0  0  0  0  0  0  0  0  0  0
  190.6780  176.5490  139.6750 C   0  0  0  0  0  3  0  0  0  0  0  0
  188.6260  178.4300  139.4160 C   0  0  0  0  0  3  0  0  0  0  0  0
  189.7640  176.7340  140.7170 C   0  0  0  0  0  3  0  0  0  0  0  0
  189.4330  178.9790  137.2410 F   0  0  0  0  0  0  0  0  0  0  0  0
  191.2510  176.7420  146.8260 C   0  0  0  0  0  1  0  0  0  0  0  0
  189.8710  176.9000  146.9730 O   0  0  0  0  0  0  0  0  0  0  0  0
  183.7960  178.2500  142.7560 C   0  0  0  0  0  2  0  0  0  0  0  0
  183.3310  178.9150  141.4740 C   0  0  0  0  0  2  0  0  0  0  0  0
  182.5180  177.9280  140.6600 C   0  0  0  0  0  2  0  0  0  0  0  0
  182.0980  175.5240  139.2180 O   0  0  0  0  0  0  0  0  0  0  0  0
  183.2950  177.4920  139.4610 C   0  0  0  0  0  0  0  0  0  0  0  0
  183.0240  176.2760  138.8120 C   0  0  0  0  0  0  0  0  0  0  0  0
  184.7780  176.6780  137.2590 C   0  0  0  0  0  3  0  0  0  0  0  0
  185.0820  177.8910  137.8800 C   0  0  0  0  0  2  0  0  0  0  0  0
  184.3360  178.2950  138.9880 C   0  0  0  0  0  3  0  0  0  0  0  0
  183.7650  175.9040  137.7330 N   0  0  0  0  0  0  0  0  0  0  0  0
  1 24  1  1  0  0  0
  2  5  1  1  0  0  0
  3  7  1  0  0  0  0
  4  8  1  0  0  0  0
  6 11  1  0  0  0  0
  7  1  1  0  0  0  0
  7  2  1  0  0  0  0
  8 14  1  0  0  0  0
  9 15  1  0  0  0  0
  9  3  1  0  0  0  0
 10  1  1  0  0  0  0
 11  2  1  0  0  0  0
 12  4  1  0  0  0  0
 13 12  1  0  0  0  0
 13  9  1  0  0  0  0
 14  3  1  0  0  0  0
 14  6  1  0  0  0  0
 15 10  1  0  0  0  0
 16 17  2  0  0  0  0
 16 20  1  0  0  0  0
 17 19  1  0  0  0  0
 18 21  1  0  0  0  0
 18 13  1  0  0  0  0
 19 21  2  0  0  0  0
 20 18  2  0  0  0  0
 22 16  1  0  0  0  0
 23 24  1  0  0  0  0
 25  8  1  0  0  0  0
 26 25  1  0  0  0  0
 27 26  1  0  0  0  0
 29 27  1  0  0  0  0
 30 28  2  0  0  0  0
 30 29  1  0  0  0  0
 31 34  2  0  0  0  0
 31 32  1  0  0  0  0
 32 33  1  0  0  0  0
 33 29  2  0  0  0  0
 34 30  1  0  0  0  0
M  END
>  <MODEL>
1

>  <REMARK>
 VINA RESULT:      -9.6      0.000      0.000
  Name = 
  6 active torsions:
  status: ('A' for Active; 'I' for Inactive)
    1  A    between atoms: C_1  and  O_19
    2  A    between atoms: C_3  and  C_13
    3  A    between atoms: C_3  and  C_17
    4  A    between atoms: C_12  and  C_28
    5  A    between atoms: C_17  and  C_29
    6  A    between atoms: C_18  and  C_29
                            x       y       z     vdW  Elec       q    Type
                         _______ _______ _______ _____ _____    ______ ____

>  <TORSDO>
F 6

$$$$
=
 OpenBabel10252414523D

 34 38  0  0  1  0  0  0  0  0999 V2000
  189.1840  177.5970  145.8650 C   0  0  2  0  0  3  0  0  0  0  0  0
  186.9490  178.3760  146.7850 C   0  0  1  0  0  3  0  0  0  0  0  0
  187.2250  178.0090  144.2990 C   0  0  1  0  0  3  0  0  0  0  0  0
  185.7890  179.2950  141.9360 C   0  0  0  0  0  2  0  0  0  0  0  0
  187.2130  177.8750  148.0600 O   0  0  0  0  0  1  0  0  0  0  0  0
  185.0740  178.8920  145.1920 C   0  0  0  0  0  2  0  0  0  0  0  0
  187.6530  177.5220  145.7060 C   0  0  1  0  0  3  0  0  0  0  0  0
  185.1230  178.1620  142.7480 C   0  0  1  0  0  3  0  0  0  0  0  0
  188.0120  177.3240  143.1520 C   0  0  1  0  0  3  0  0  0  0  0  0
  189.8810  176.8490  144.7340 C   0  0  0  0  0  2  0  0  0  0  0  0
  185.4340  178.4060  146.5880 C   0  0  0  0  0  2  0  0  0  0  0  0
  187.2040  179.2490  141.8870 O   0  0  0  0  0  0  0  0  0  0  0  0
  187.6110  177.9060  141.7740 C   0  0  1  0  0  3  0  0  0  0  0  0
  185.6870  177.9440  144.1690 C   0  0  1  0  0  3  0  0  0  0  0  0
  189.5120  177.4780  143.4050 C   0  0  0  0  0  2  0  0  0  0  0  0
  189.4750  178.2650  138.4710 C   0  0  0  0  0  0  0  0  0  0  0  0
  190.4820  177.3070  138.6260 C   0  0  0  0  0  3  0  0  0  0  0  0
  188.5960  177.6950  140.6600 C   0  0  0  0  0  0  0  0  0  0  0  0
  190.5490  176.5460  139.7970 C   0  0  0  0  0  3  0  0  0  0  0  0
  188.5350  178.4610  139.4870 C   0  0  0  0  0  3  0  0  0  0  0  0
  189.6080  176.7420  140.8140 C   0  0  0  0  0  3  0  0  0  0  0  0
  189.4120  179.0050  137.3380 F   0  0  0  0  0  0  0  0  0  0  0  0
  190.9550  176.8080  146.9380 C   0  0  0  0  0  1  0  0  0  0  0  0
  189.5850  177.0350  147.0810 O   0  0  0  0  0  0  0  0  0  0  0  0
  183.6050  178.2750  142.6980 C   0  0  0  0  0  2  0  0  0  0  0  0
  183.1420  178.5320  141.2760 C   0  0  0  0  0  2  0  0  0  0  0  0
  181.6620  178.8610  141.2790 C   0  0  0  0  0  2  0  0  0  0  0  0
  179.1160  178.1600  142.3080 O   0  0  0  0  0  0  0  0  0  0  0  0
  180.8700  177.6590  140.8810 C   0  0  0  0  0  0  0  0  0  0  0  0
  179.6160  177.3830  141.4510 C   0  0  0  0  0  0  0  0  0  0  0  0
  179.4310  175.3970  140.1590 C   0  0  0  0  0  3  0  0  0  0  0  0
  180.6760  175.6330  139.5740 C   0  0  0  0  0  2  0  0  0  0  0  0
  181.3970  176.7690  139.9410 C   0  0  0  0  0  3  0  0  0  0  0  0
  178.9320  176.2690  141.0760 N   0  0  0  0  0  0  0  0  0  0  0  0
  1 24  1  1  0  0  0
  2  5  1  1  0  0  0
  3  7  1  0  0  0  0
  4  8  1  0  0  0  0
  6 11  1  0  0  0  0
  7  1  1  0  0  0  0
  7  2  1  0  0  0  0
  8 14  1  0  0  0  0
  9 15  1  0  0  0  0
  9  3  1  0  0  0  0
 10  1  1  0  0  0  0
 11  2  1  0  0  0  0
 12  4  1  0  0  0  0
 13 12  1  0  0  0  0
 13  9  1  0  0  0  0
 14  3  1  0  0  0  0
 14  6  1  0  0  0  0
 15 10  1  0  0  0  0
 16 17  2  0  0  0  0
 16 20  1  0  0  0  0
 17 19  1  0  0  0  0
 18 21  1  0  0  0  0
 18 13  1  0  0  0  0
 19 21  2  0  0  0  0
 20 18  2  0  0  0  0
 22 16  1  0  0  0  0
 23 24  1  0  0  0  0
 25  8  1  0  0  0  0
 26 27  1  0  0  0  0
 26 25  1  0  0  0  0
 29 27  1  0  0  0  0
 29 30  1  0  0  0  0
 30 28  2  0  0  0  0
 31 34  2  0  0  0  0
 32 33  1  0  0  0  0
 32 31  1  0  0  0  0
 33 29  2  0  0  0  0
 34 30  1  0  0  0  0
M  END
>  <MODEL>
2

>  <REMARK>
 VINA RESULT:      -9.5      1.811      2.231
  Name = 
  6 active torsions:
  status: ('A' for Active; 'I' for Inactive)
    1  A    between atoms: C_1  and  O_19
    2  A    between atoms: C_3  and  C_13
    3  A    between atoms: C_3  and  C_17
    4  A    between atoms: C_12  and  C_28
    5  A    between atoms: C_17  and  C_29
    6  A    between atoms: C_18  and  C_29
                            x       y       z     vdW  Elec       q    Type
                         _______ _______ _______ _____ _____    ______ ____

>  <TORSDO>
F 6

$$$$
=
 OpenBabel10252414523D

 34 38  0  0  1  0  0  0  0  0999 V2000
  189.4530  177.4760  145.7820 C   0  0  2  0  0  3  0  0  0  0  0  0
  187.2480  178.2720  146.7590 C   0  0  1  0  0  3  0  0  0  0  0  0
  187.4670  177.9330  144.2630 C   0  0  1  0  0  3  0  0  0  0  0  0
  186.0000  179.2680  141.9470 C   0  0  0  0  0  2  0  0  0  0  0  0
  187.5310  177.7510  148.0210 O   0  0  0  0  0  1  0  0  0  0  0  0
  185.3470  178.8320  145.2120 C   0  0  0  0  0  2  0  0  0  0  0  0
  187.9180  177.4230  145.6540 C   0  0  1  0  0  3  0  0  0  0  0  0
  185.3350  178.1330  142.7580 C   0  0  1  0  0  3  0  0  0  0  0  0
  188.2220  177.2530  143.0910 C   0  0  1  0  0  3  0  0  0  0  0  0
  190.1160  176.7350  144.6270 C   0  0  0  0  0  2  0  0  0  0  0  0
  185.7290  178.3240  146.5940 C   0  0  0  0  0  2  0  0  0  0  0  0
  187.4130  179.2050  141.8670 O   0  0  0  0  0  0  0  0  0  0  0  0
  187.7990  177.8580  141.7300 C   0  0  1  0  0  3  0  0  0  0  0  0
  185.9270  177.8890  144.1640 C   0  0  1  0  0  3  0  0  0  0  0  0
  189.7280  177.3850  143.3140 C   0  0  0  0  0  2  0  0  0  0  0  0
  189.5670  178.2010  138.3720 C   0  0  0  0  0  0  0  0  0  0  0  0
  190.5960  177.2660  138.5140 C   0  0  0  0  0  3  0  0  0  0  0  0
  188.7580  177.6490  140.5930 C   0  0  0  0  0  0  0  0  0  0  0  0
  190.7100  176.5250  139.6950 C   0  0  0  0  0  3  0  0  0  0  0  0
  188.6510  178.3950  139.4100 C   0  0  0  0  0  3  0  0  0  0  0  0
  189.7930  176.7190  140.7330 C   0  0  0  0  0  3  0  0  0  0  0  0
  189.4580  178.9220  137.2300 F   0  0  0  0  0  0  0  0  0  0  0  0
  191.2540  176.7460  146.8480 C   0  0  0  0  0  1  0  0  0  0  0  0
  189.8710  176.8930  146.9820 O   0  0  0  0  0  0  0  0  0  0  0  0
  183.8180  178.2660  142.7410 C   0  0  0  0  0  2  0  0  0  0  0  0
  183.3390  178.6620  141.3580 C   0  0  0  0  0  2  0  0  0  0  0  0
  181.9170  178.1770  141.1580 C   0  0  0  0  0  2  0  0  0  0  0  0
  180.5040  179.2980  143.3440 O   0  0  0  0  0  0  0  0  0  0  0  0
  180.9860  179.3420  141.0790 C   0  0  0  0  0  0  0  0  0  0  0  0
  180.3180  179.8280  142.2160 C   0  0  0  0  0  0  0  0  0  0  0  0
  179.2270  181.4830  140.9060 C   0  0  0  0  0  3  0  0  0  0  0  0
  179.8660  181.0270  139.7520 C   0  0  0  0  0  2  0  0  0  0  0  0
  180.7470  179.9490  139.8430 C   0  0  0  0  0  3  0  0  0  0  0  0
  179.4640  180.8800  142.1020 N   0  0  0  0  0  0  0  0  0  0  0  0
  1 24  1  1  0  0  0
  2  5  1  1  0  0  0
  3  7  1  0  0  0  0
  4  8  1  0  0  0  0
  6 11  1  0  0  0  0
  7  1  1  0  0  0  0
  7  2  1  0  0  0  0
  8 14  1  0  0  0  0
  9 15  1  0  0  0  0
  9  3  1  0  0  0  0
 10  1  1  0  0  0  0
 11  2  1  0  0  0  0
 12  4  1  0  0  0  0
 13 12  1  0  0  0  0
 13  9  1  0  0  0  0
 14  3  1  0  0  0  0
 14  6  1  0  0  0  0
 15 10  1  0  0  0  0
 16 17  2  0  0  0  0
 16 20  1  0  0  0  0
 17 19  1  0  0  0  0
 18 21  1  0  0  0  0
 18 13  1  0  0  0  0
 19 21  2  0  0  0  0
 20 18  2  0  0  0  0
 22 16  1  0  0  0  0
 23 24  1  0  0  0  0
 25  8  1  0  0  0  0
 26 25  1  0  0  0  0
 27 26  1  0  0  0  0
 29 27  1  0  0  0  0
 29 30  1  0  0  0  0
 30 28  2  0  0  0  0
 31 34  2  0  0  0  0
 32 33  1  0  0  0  0
 32 31  1  0  0  0  0
 33 29  2  0  0  0  0
 34 30  1  0  0  0  0
M  END
>  <MODEL>
3

>  <REMARK>
 VINA RESULT:      -9.4      2.175      2.786
  Name = 
  6 active torsions:
  status: ('A' for Active; 'I' for Inactive)
    1  A    between atoms: C_1  and  O_19
    2  A    between atoms: C_3  and  C_13
    3  A    between atoms: C_3  and  C_17
    4  A    between atoms: C_12  and  C_28
    5  A    between atoms: C_17  and  C_29
    6  A    between atoms: C_18  and  C_29
                            x       y       z     vdW  Elec       q    Type
                         _______ _______ _______ _____ _____    ______ ____

>  <TORSDO>
F 6

$$$$
=
 OpenBabel10252414523D

 34 38  0  0  1  0  0  0  0  0999 V2000
  190.4760  177.1290  146.0940 C   0  0  2  0  0  3  0  0  0  0  0  0
  188.2460  177.9350  147.0050 C   0  0  1  0  0  3  0  0  0  0  0  0
  188.5280  177.5620  144.5200 C   0  0  1  0  0  3  0  0  0  0  0  0
  187.1170  178.8630  142.1510 C   0  0  0  0  0  2  0  0  0  0  0  0
  188.4990  177.4310  148.2810 O   0  0  0  0  0  1  0  0  0  0  0  0
  186.3840  178.4720  145.4040 C   0  0  0  0  0  2  0  0  0  0  0  0
  188.9450  177.0710  145.9290 C   0  0  1  0  0  3  0  0  0  0  0  0
  186.4340  177.7390  142.9600 C   0  0  1  0  0  3  0  0  0  0  0  0
  189.3120  176.8670  143.3760 C   0  0  1  0  0  3  0  0  0  0  0  0
  191.1680  176.3720  144.9660 C   0  0  0  0  0  2  0  0  0  0  0  0
  186.7330  177.9820  146.8020 C   0  0  0  0  0  2  0  0  0  0  0  0
  188.5320  178.8010  142.1070 O   0  0  0  0  0  0  0  0  0  0  0  0
  188.9230  177.4530  141.9970 C   0  0  1  0  0  3  0  0  0  0  0  0
  186.9910  177.5150  144.3840 C   0  0  1  0  0  3  0  0  0  0  0  0
  190.8130  177.0040  143.6350 C   0  0  0  0  0  2  0  0  0  0  0  0
  192.1850  177.2260  140.0410 C   0  0  0  0  0  0  0  0  0  0  0  0
  191.7260  176.7530  138.8090 C   0  0  0  0  0  3  0  0  0  0  0  0
  189.9100  177.2290  140.8870 C   0  0  0  0  0  0  0  0  0  0  0  0
  190.3620  176.5140  138.6150 C   0  0  0  0  0  3  0  0  0  0  0  0
  191.2800  177.4610  141.0800 C   0  0  0  0  0  3  0  0  0  0  0  0
  189.4560  176.7500  139.6540 C   0  0  0  0  0  3  0  0  0  0  0  0
  193.5070  177.4530  140.2310 F   0  0  0  0  0  0  0  0  0  0  0  0
  192.1110  175.9850  147.0590 C   0  0  0  0  0  1  0  0  0  0  0  0
  190.8650  176.5630  147.3120 O   0  0  0  0  0  0  0  0  0  0  0  0
  184.9180  177.8700  142.9040 C   0  0  0  0  0  2  0  0  0  0  0  0
  184.5210  179.0030  141.9770 C   0  0  0  0  0  2  0  0  0  0  0  0
  183.1980  178.6730  141.3150 C   0  0  0  0  0  2  0  0  0  0  0  0
  184.7460  179.7210  139.1840 O   0  0  0  0  0  0  0  0  0  0  0  0
  183.4370  177.9960  140.0050 C   0  0  0  0  0  0  0  0  0  0  0  0
  184.2130  178.5940  138.9980 C   0  0  0  0  0  0  0  0  0  0  0  0
  183.8350  176.7390  137.5610 C   0  0  0  0  0  3  0  0  0  0  0  0
  183.0520  176.1140  138.5340 C   0  0  0  0  0  2  0  0  0  0  0  0
  182.8530  176.7500  139.7600 C   0  0  0  0  0  3  0  0  0  0  0  0
  184.3930  177.9540  137.8120 N   0  0  0  0  0  0  0  0  0  0  0  0
  1 24  1  1  0  0  0
  2  5  1  1  0  0  0
  3  7  1  0  0  0  0
  4  8  1  0  0  0  0
  6 11  1  0  0  0  0
  7  1  1  0  0  0  0
  7  2  1  0  0  0  0
  8 14  1  0  0  0  0
  9 15  1  0  0  0  0
  9  3  1  0  0  0  0
 10  1  1  0  0  0  0
 11  2  1  0  0  0  0
 12  4  1  0  0  0  0
 13 12  1  0  0  0  0
 13  9  1  0  0  0  0
 14  3  1  0  0  0  0
 14  6  1  0  0  0  0
 15 10  1  0  0  0  0
 16 22  1  0  0  0  0
 16 20  1  0  0  0  0
 17 16  2  0  0  0  0
 18 20  2  0  0  0  0
 18 13  1  0  0  0  0
 19 17  1  0  0  0  0
 19 21  2  0  0  0  0
 21 18  1  0  0  0  0
 23 24  1  0  0  0  0
 25  8  1  0  0  0  0
 26 25  1  0  0  0  0
 27 26  1  0  0  0  0
 29 27  1  0  0  0  0
 30 28  2  0  0  0  0
 30 29  1  0  0  0  0
 31 34  2  0  0  0  0
 31 32  1  0  0  0  0
 32 33  1  0  0  0  0
 33 29  2  0  0  0  0
 34 30  1  0  0  0  0
M  END
>  <MODEL>
4

>  <REMARK>
 VINA RESULT:      -9.4      1.657      1.980
  Name = 
  6 active torsions:
  status: ('A' for Active; 'I' for Inactive)
    1  A    between atoms: C_1  and  O_19
    2  A    between atoms: C_3  and  C_13
    3  A    between atoms: C_3  and  C_17
    4  A    between atoms: C_12  and  C_28
    5  A    between atoms: C_17  and  C_29
    6  A    between atoms: C_18  and  C_29
                            x       y       z     vdW  Elec       q    Type
                         _______ _______ _______ _____ _____    ______ ____

>  <TORSDO>
F 6

$$$$
=
 OpenBabel10252414523D

 34 38  0  0  1  0  0  0  0  0999 V2000
  188.5550  177.2100  147.3920 C   0  0  2  0  0  3  0  0  0  0  0  0
  190.8470  176.5560  146.5130 C   0  0  1  0  0  3  0  0  0  0  0  0
  189.0680  177.3620  144.9080 C   0  0  1  0  0  3  0  0  0  0  0  0
  188.6490  176.7530  141.9490 C   0  0  0  0  0  2  0  0  0  0  0  0
  191.4630  176.7630  147.7480 O   0  0  0  0  0  1  0  0  0  0  0  0
  191.2750  176.6030  144.0370 C   0  0  0  0  0  2  0  0  0  0  0  0
  189.6410  177.5080  146.3390 C   0  0  1  0  0  3  0  0  0  0  0  0
  189.7070  177.7820  142.4040 C   0  0  1  0  0  3  0  0  0  0  0  0
  187.7500  178.1520  144.6950 C   0  0  1  0  0  3  0  0  0  0  0  0
  187.3190  178.0680  147.1500 C   0  0  0  0  0  2  0  0  0  0  0  0
  191.8930  176.7580  145.4180 C   0  0  0  0  0  2  0  0  0  0  0  0
  187.5240  176.6280  142.8010 O   0  0  0  0  0  0  0  0  0  0  0  0
  187.1730  177.9050  143.2800 C   0  0  1  0  0  3  0  0  0  0  0  0
  190.1760  177.6460  143.8700 C   0  0  1  0  0  3  0  0  0  0  0  0
  186.7460  177.7630  145.7800 C   0  0  0  0  0  2  0  0  0  0  0  0
  183.5360  178.7570  144.0280 C   0  0  0  0  0  0  0  0  0  0  0  0
  183.0000  178.8020  142.7370 C   0  0  0  0  0  3  0  0  0  0  0  0
  185.7110  178.2020  143.1060 C   0  0  0  0  0  0  0  0  0  0  0  0
  183.8180  178.5500  141.6310 C   0  0  0  0  0  3  0  0  0  0  0  0
  184.8900  178.4610  144.2120 C   0  0  0  0  0  3  0  0  0  0  0  0
  185.1720  178.2530  141.8160 C   0  0  0  0  0  3  0  0  0  0  0  0
  182.7450  179.0050  145.0990 F   0  0  0  0  0  0  0  0  0  0  0  0
  188.0390  178.2530  149.2780 C   0  0  0  0  0  1  0  0  0  0  0  0
  189.0300  177.4690  148.6810 O   0  0  0  0  0  0  0  0  0  0  0  0
  190.8470  177.8750  141.3980 C   0  0  0  0  0  2  0  0  0  0  0  0
  190.7900  176.7100  140.4290 C   0  0  0  0  0  2  0  0  0  0  0  0
  190.8910  177.2290  139.0080 C   0  0  0  0  0  2  0  0  0  0  0  0
  189.0560  179.3720  138.7370 O   0  0  0  0  0  0  0  0  0  0  0  0
  189.5590  177.1470  138.3380 C   0  0  0  0  0  0  0  0  0  0  0  0
  188.7070  178.2610  138.2570 C   0  0  0  0  0  0  0  0  0  0  0  0
  187.0690  176.9640  137.1230 C   0  0  0  0  0  3  0  0  0  0  0  0
  187.8840  175.8330  137.1890 C   0  0  0  0  0  2  0  0  0  0  0  0
  189.1340  175.9280  137.8020 C   0  0  0  0  0  3  0  0  0  0  0  0
  187.4930  178.1430  137.6540 N   0  0  0  0  0  0  0  0  0  0  0  0
  1 24  1  1  0  0  0
  2  5  1  1  0  0  0
  3  7  1  0  0  0  0
  4  8  1  0  0  0  0
  4 12  1  0  0  0  0
  6 11  1  0  0  0  0
  7  2  1  0  0  0  0
  7  1  1  0  0  0  0
  8 14  1  0  0  0  0
  9  3  1  0  0  0  0
  9 15  1  0  0  0  0
 10  1  1  0  0  0  0
 11  2  1  0  0  0  0
 12 13  1  0  0  0  0
 13  9  1  0  0  0  0
 14  6  1  0  0  0  0
 14  3  1  0  0  0  0
 15 10  1  0  0  0  0
 16 20  1  0  0  0  0
 16 22  1  0  0  0  0
 17 16  2  0  0  0  0
 18 13  1  0  0  0  0
 18 20  2  0  0  0  0
 19 21  2  0  0  0  0
 19 17  1  0  0  0  0
 21 18  1  0  0  0  0
 24 23  1  0  0  0  0
 25  8  1  0  0  0  0
 26 25  1  0  0  0  0
 27 26  1  0  0  0  0
 29 27  1  0  0  0  0
 30 29  1  0  0  0  0
 30 28  2  0  0  0  0
 31 32  1  0  0  0  0
 31 34  2  0  0  0  0
 32 33  1  0  0  0  0
 33 29  2  0  0  0  0
 34 30  1  0  0  0  0
M  END
>  <MODEL>
5

>  <REMARK>
 VINA RESULT:      -9.4      2.691      5.487
  Name = 
  6 active torsions:
  status: ('A' for Active; 'I' for Inactive)
    1  A    between atoms: C_1  and  O_19
    2  A    between atoms: C_3  and  C_13
    3  A    between atoms: C_3  and  C_17
    4  A    between atoms: C_12  and  C_28
    5  A    between atoms: C_17  and  C_29
    6  A    between atoms: C_18  and  C_29
                            x       y       z     vdW  Elec       q    Type
                         _______ _______ _______ _____ _____    ______ ____

>  <TORSDO>
F 6

$$$$
=
 OpenBabel10252414523D

 34 38  0  0  1  0  0  0  0  0999 V2000
  187.5890  177.9700  146.1150 C   0  0  2  0  0  3  0  0  0  0  0  0
  185.1860  178.7910  146.1300 C   0  0  1  0  0  3  0  0  0  0  0  0
  186.3120  178.2400  143.9350 C   0  0  1  0  0  3  0  0  0  0  0  0
  185.8190  179.3290  141.1290 C   0  0  0  0  0  2  0  0  0  0  0  0
  184.9770  178.3900  147.4500 O   0  0  0  0  0  1  0  0  0  0  0  0
  183.9990  179.1640  143.9460 C   0  0  0  0  0  2  0  0  0  0  0  0
  186.2100  177.8650  145.4340 C   0  0  1  0  0  3  0  0  0  0  0  0
  184.8920  178.2530  141.7360 C   0  0  1  0  0  3  0  0  0  0  0  0
  187.4410  177.4800  143.1910 C   0  0  1  0  0  3  0  0  0  0  0  0
  188.6270  177.1470  145.3600 C   0  0  0  0  0  2  0  0  0  0  0  0
  183.8370  178.7890  145.4120 C   0  0  0  0  0  2  0  0  0  0  0  0
  187.1600  179.2960  141.5840 O   0  0  0  0  0  0  0  0  0  0  0  0
  187.5590  177.9520  141.7220 C   0  0  1  0  0  3  0  0  0  0  0  0
  184.9170  178.1480  143.2770 C   0  0  1  0  0  3  0  0  0  0  0  0
  188.7590  177.6690  143.9430 C   0  0  0  0  0  2  0  0  0  0  0  0
  191.2580  177.2520  141.1380 C   0  0  0  0  0  0  0  0  0  0  0  0
  191.2840  177.0900  139.7490 C   0  0  0  0  0  3  0  0  0  0  0  0
  188.8690  177.6690  141.0440 C   0  0  0  0  0  0  0  0  0  0  0  0
  190.1050  177.2140  139.0080 C   0  0  0  0  0  3  0  0  0  0  0  0
  190.0520  177.5370  141.7850 C   0  0  0  0  0  3  0  0  0  0  0  0
  188.8990  177.5000  139.6560 C   0  0  0  0  0  3  0  0  0  0  0  0
  192.3990  177.1280  141.8560 F   0  0  0  0  0  0  0  0  0  0  0  0
  188.4960  178.2410  148.1190 C   0  0  0  0  0  1  0  0  0  0  0  0
  187.5280  177.5050  147.4320 O   0  0  0  0  0  0  0  0  0  0  0  0
  183.4900  178.3450  141.1470 C   0  0  0  0  0  2  0  0  0  0  0  0
  183.5350  179.0020  139.7810 C   0  0  0  0  0  2  0  0  0  0  0  0
  182.9180  178.0730  138.7540 C   0  0  0  0  0  2  0  0  0  0  0  0
  182.7210  175.3310  138.0600 O   0  0  0  0  0  0  0  0  0  0  0  0
  183.9850  177.2720  138.0830 C   0  0  0  0  0  0  0  0  0  0  0  0
  183.8050  175.9110  137.7840 C   0  0  0  0  0  0  0  0  0  0  0  0
  185.9970  175.7900  136.8730 C   0  0  0  0  0  3  0  0  0  0  0  0
  186.2170  177.1380  137.1590 C   0  0  0  0  0  2  0  0  0  0  0  0
  185.2050  177.8790  137.7700 C   0  0  0  0  0  3  0  0  0  0  0  0
  184.8070  175.2100  137.1880 N   0  0  0  0  0  0  0  0  0  0  0  0
  1 24  1  1  0  0  0
  2  5  1  1  0  0  0
  3  7  1  0  0  0  0
  4 12  1  0  0  0  0
  4  8  1  0  0  0  0
  6 11  1  0  0  0  0
  7  1  1  0  0  0  0
  7  2  1  0  0  0  0
  8 14  1  0  0  0  0
  9  3  1  0  0  0  0
  9 15  1  0  0  0  0
 10  1  1  0  0  0  0
 11  2  1  0  0  0  0
 12 13  1  0  0  0  0
 13  9  1  0  0  0  0
 14  3  1  0  0  0  0
 14  6  1  0  0  0  0
 15 10  1  0  0  0  0
 16 20  1  0  0  0  0
 16 22  1  0  0  0  0
 17 16  2  0  0  0  0
 18 13  1  0  0  0  0
 18 20  2  0  0  0  0
 19 21  2  0  0  0  0
 19 17  1  0  0  0  0
 21 18  1  0  0  0  0
 24 23  1  0  0  0  0
 25  8  1  0  0  0  0
 26 25  1  0  0  0  0
 27 26  1  0  0  0  0
 29 27  1  0  0  0  0
 30 28  2  0  0  0  0
 30 29  1  0  0  0  0
 31 32  1  0  0  0  0
 31 34  2  0  0  0  0
 32 33  1  0  0  0  0
 33 29  2  0  0  0  0
 34 30  1  0  0  0  0
M  END
>  <MODEL>
6

>  <REMARK>
 VINA RESULT:      -9.3      1.535      2.028
  Name = 
  6 active torsions:
  status: ('A' for Active; 'I' for Inactive)
    1  A    between atoms: C_1  and  O_19
    2  A    between atoms: C_3  and  C_13
    3  A    between atoms: C_3  and  C_17
    4  A    between atoms: C_12  and  C_28
    5  A    between atoms: C_17  and  C_29
    6  A    between atoms: C_18  and  C_29
                            x       y       z     vdW  Elec       q    Type
                         _______ _______ _______ _____ _____    ______ ____

>  <TORSDO>
F 6

$$$$
=
 OpenBabel10252414523D

 34 38  0  0  1  0  0  0  0  0999 V2000
  190.6030  177.1340  146.0610 C   0  0  2  0  0  3  0  0  0  0  0  0
  188.3690  177.9430  146.9610 C   0  0  1  0  0  3  0  0  0  0  0  0
  188.6630  177.5680  144.4780 C   0  0  1  0  0  3  0  0  0  0  0  0
  187.2650  178.8690  142.1010 C   0  0  0  0  0  2  0  0  0  0  0  0
  188.6150  177.4390  148.2380 O   0  0  0  0  0  1  0  0  0  0  0  0
  186.5150  178.4790  145.3510 C   0  0  0  0  0  2  0  0  0  0  0  0
  189.0720  177.0780  145.8890 C   0  0  1  0  0  3  0  0  0  0  0  0
  186.5770  177.7460  142.9070 C   0  0  1  0  0  3  0  0  0  0  0  0
  189.4520  176.8720  143.3380 C   0  0  1  0  0  3  0  0  0  0  0  0
  191.3000  176.3760  144.9380 C   0  0  0  0  0  2  0  0  0  0  0  0
  186.8560  177.9910  146.7500 C   0  0  0  0  0  2  0  0  0  0  0  0
  188.6800  178.8060  142.0640 O   0  0  0  0  0  0  0  0  0  0  0  0
  189.0700  177.4570  141.9570 C   0  0  1  0  0  3  0  0  0  0  0  0
  187.1260  177.5220  144.3340 C   0  0  1  0  0  3  0  0  0  0  0  0
  190.9510  177.0080  143.6050 C   0  0  0  0  0  2  0  0  0  0  0  0
  192.3380  177.2520  140.0100 C   0  0  0  0  0  0  0  0  0  0  0  0
  191.8890  176.7530  138.7840 C   0  0  0  0  0  3  0  0  0  0  0  0
  190.0630  177.2330  140.8520 C   0  0  0  0  0  0  0  0  0  0  0  0
  190.5290  176.4900  138.5910 C   0  0  0  0  0  3  0  0  0  0  0  0
  191.4280  177.4890  141.0440 C   0  0  0  0  0  3  0  0  0  0  0  0
  189.6180  176.7280  139.6250 C   0  0  0  0  0  3  0  0  0  0  0  0
  193.6560  177.5030  140.1980 F   0  0  0  0  0  0  0  0  0  0  0  0
  192.0560  175.7280  146.9690 C   0  0  0  0  0  1  0  0  0  0  0  0
  190.9850  176.5680  147.2820 O   0  0  0  0  0  0  0  0  0  0  0  0
  185.0610  177.8780  142.8430 C   0  0  0  0  0  2  0  0  0  0  0  0
  184.6560  178.7370  141.6610 C   0  0  0  0  0  2  0  0  0  0  0  0
  183.6480  177.9860  140.8130 C   0  0  0  0  0  2  0  0  0  0  0  0
  180.9830  178.3290  141.7160 O   0  0  0  0  0  0  0  0  0  0  0  0
  182.6550  178.9410  140.2350 C   0  0  0  0  0  0  0  0  0  0  0  0
  181.3480  179.0380  140.7410 C   0  0  0  0  0  0  0  0  0  0  0  0
  180.8110  180.6910  139.1200 C   0  0  0  0  0  3  0  0  0  0  0  0
  182.0980  180.6200  138.5840 C   0  0  0  0  0  2  0  0  0  0  0  0
  183.0210  179.7370  139.1460 C   0  0  0  0  0  3  0  0  0  0  0  0
  180.4660  179.9070  140.1760 N   0  0  0  0  0  0  0  0  0  0  0  0
  1 24  1  1  0  0  0
  2  5  1  1  0  0  0
  3  7  1  0  0  0  0
  4  8  1  0  0  0  0
  6 11  1  0  0  0  0
  7  1  1  0  0  0  0
  7  2  1  0  0  0  0
  8 14  1  0  0  0  0
  9 15  1  0  0  0  0
  9  3  1  0  0  0  0
 10  1  1  0  0  0  0
 11  2  1  0  0  0  0
 12  4  1  0  0  0  0
 13 12  1  0  0  0  0
 13  9  1  0  0  0  0
 14  3  1  0  0  0  0
 14  6  1  0  0  0  0
 15 10  1  0  0  0  0
 16 22  1  0  0  0  0
 16 20  1  0  0  0  0
 17 16  2  0  0  0  0
 18 20  2  0  0  0  0
 18 13  1  0  0  0  0
 19 17  1  0  0  0  0
 19 21  2  0  0  0  0
 21 18  1  0  0  0  0
 23 24  1  0  0  0  0
 25  8  1  0  0  0  0
 26 25  1  0  0  0  0
 27 26  1  0  0  0  0
 29 30  1  0  0  0  0
 29 27  1  0  0  0  0
 30 28  2  0  0  0  0
 31 34  2  0  0  0  0
 32 31  1  0  0  0  0
 32 33  1  0  0  0  0
 33 29  2  0  0  0  0
 34 30  1  0  0  0  0
M  END
>  <MODEL>
7

>  <REMARK>
 VINA RESULT:      -9.3      2.111      2.499
  Name = 
  6 active torsions:
  status: ('A' for Active; 'I' for Inactive)
    1  A    between atoms: C_1  and  O_19
    2  A    between atoms: C_3  and  C_13
    3  A    between atoms: C_3  and  C_17
    4  A    between atoms: C_12  and  C_28
    5  A    between atoms: C_17  and  C_29
    6  A    between atoms: C_18  and  C_29
                            x       y       z     vdW  Elec       q    Type
                         _______ _______ _______ _____ _____    ______ ____

>  <TORSDO>
F 6

$$$$
=
 OpenBabel10252414523D

 34 38  0  0  1  0  0  0  0  0999 V2000
  183.3760  178.7200  140.9520 C   0  0  2  0  0  3  0  0  0  0  0  0
  182.4180  178.6420  143.3030 C   0  0  1  0  0  3  0  0  0  0  0  0
  184.9130  178.4290  142.9550 C   0  0  1  0  0  3  0  0  0  0  0  0
  187.0340  177.0270  144.6390 C   0  0  0  0  0  2  0  0  0  0  0  0
  181.2580  179.3240  142.9350 O   0  0  0  0  0  1  0  0  0  0  0  0
  183.9580  178.2270  145.2460 C   0  0  0  0  0  2  0  0  0  0  0  0
  183.6130  179.0880  142.4300 C   0  0  1  0  0  3  0  0  0  0  0  0
  186.4940  178.4170  145.0410 C   0  0  1  0  0  3  0  0  0  0  0  0
  186.1380  178.6810  142.0370 C   0  0  1  0  0  3  0  0  0  0  0  0
  184.6010  179.0550  140.1090 C   0  0  0  0  0  2  0  0  0  0  0  0
  182.6710  178.8990  144.7880 C   0  0  0  0  0  2  0  0  0  0  0  0
  187.0300  176.7570  143.2480 O   0  0  0  0  0  0  0  0  0  0  0  0
  187.3890  177.9310  142.5570 C   0  0  1  0  0  3  0  0  0  0  0  0
  185.1210  178.7940  144.4410 C   0  0  1  0  0  3  0  0  0  0  0  0
  185.7940  178.2640  140.6070 C   0  0  0  0  0  2  0  0  0  0  0  0
  189.4890  178.1110  139.3840 C   0  0  0  0  0  0  0  0  0  0  0  0
  190.5540  177.2690  139.7200 C   0  0  0  0  0  3  0  0  0  0  0  0
  188.4780  177.6950  141.5510 C   0  0  0  0  0  0  0  0  0  0  0  0
  190.5840  176.6430  140.9690 C   0  0  0  0  0  3  0  0  0  0  0  0
  188.4540  178.3260  140.2980 C   0  0  0  0  0  3  0  0  0  0  0  0
  189.5480  176.8580  141.8840 C   0  0  0  0  0  3  0  0  0  0  0  0
  189.4620  178.7200  138.1750 F   0  0  0  0  0  0  0  0  0  0  0  0
  181.6630  178.5250  139.5590 C   0  0  0  0  0  1  0  0  0  0  0  0
  182.2790  179.4190  140.4370 O   0  0  0  0  0  0  0  0  0  0  0  0
  186.5870  178.6250  146.5460 C   0  0  0  0  0  2  0  0  0  0  0  0
  187.5450  177.6200  147.1580 C   0  0  0  0  0  2  0  0  0  0  0  0
  188.8690  178.2980  147.4500 C   0  0  0  0  0  2  0  0  0  0  0  0
  190.0390  178.6200  144.8870 O   0  0  0  0  0  0  0  0  0  0  0  0
  189.9930  177.4800  146.9030 C   0  0  2  0  0  3  0  0  0  0  0  0
  190.5060  177.7030  145.6140 C   0  0  0  0  0  0  0  0  0  0  0  0
  192.0550  175.9220  145.8890 C   0  0  0  0  0  3  0  0  0  0  0  0
  191.5690  175.6640  147.1720 C   0  0  0  0  0  3  0  0  0  0  0  0
  190.5310  176.4480  147.6770 C   0  0  0  0  0  3  0  0  0  0  0  0
  191.5190  176.9260  145.1440 N   0  0  0  0  0  0  0  0  0  0  0  0
  1 24  1  6  0  0  0
  1  7  1  0  0  0  0
  2  5  1  6  0  0  0
  2 11  1  0  0  0  0
  3 14  1  0  0  0  0
  4  8  1  0  0  0  0
  7  3  1  0  0  0  0
  7  2  1  0  0  0  0
  8 25  1  0  0  0  0
  9 13  1  0  0  0  0
  9  3  1  0  0  0  0
 10 15  1  0  0  0  0
 10  1  1  0  0  0  0
 11  6  1  0  0  0  0
 12  4  1  0  0  0  0
 13 12  1  0  0  0  0
 14  8  1  0  0  0  0
 14  6  1  0  0  0  0
 15  9  1  0  0  0  0
 16 17  2  0  0  0  0
 16 20  1  0  0  0  0
 17 19  1  0  0  0  0
 18 21  1  0  0  0  0
 18 13  1  0  0  0  0
 19 21  2  0  0  0  0
 20 18  2  0  0  0  0
 22 16  1  0  0  0  0
 23 24  1  0  0  0  0
 25 26  1  0  0  0  0
 26 27  1  0  0  0  0
 28 30  2  0  0  0  0
 29 27  1  0  0  0  0
 29 33  1  0  0  0  0
 30 29  1  0  0  0  0
 31 32  1  0  0  0  0
 32 33  2  0  0  0  0
 34 30  1  0  0  0  0
 34 31  2  0  0  0  0
M  END
>  <MODEL>
8

>  <REMARK>
 VINA RESULT:      -9.1      2.564      6.784
  Name = 
  6 active torsions:
  status: ('A' for Active; 'I' for Inactive)
    1  A    between atoms: C_1  and  O_19
    2  A    between atoms: C_3  and  C_13
    3  A    between atoms: C_3  and  C_17
    4  A    between atoms: C_12  and  C_28
    5  A    between atoms: C_17  and  C_29
    6  A    between atoms: C_18  and  C_29
                            x       y       z     vdW  Elec       q    Type
                         _______ _______ _______ _____ _____    ______ ____

>  <TORSDO>
F 6

$$$$
=
 OpenBabel10252414523D

 34 38  0  0  1  0  0  0  0  0999 V2000
  188.3070  177.5100  147.5070 C   0  0  2  0  0  3  0  0  0  0  0  0
  190.6150  176.8040  146.7160 C   0  0  1  0  0  3  0  0  0  0  0  0
  188.8680  177.5030  145.0290 C   0  0  1  0  0  3  0  0  0  0  0  0
  188.5050  176.7050  142.1080 C   0  0  0  0  0  2  0  0  0  0  0  0
  191.2080  177.0900  147.9470 O   0  0  0  0  0  1  0  0  0  0  0  0
  191.0910  176.6910  144.2510 C   0  0  0  0  0  2  0  0  0  0  0  0
  189.4130  177.7420  146.4590 C   0  0  1  0  0  3  0  0  0  0  0  0
  189.5550  177.7610  142.5160 C   0  0  1  0  0  3  0  0  0  0  0  0
  187.5540  178.2760  144.7400 C   0  0  1  0  0  3  0  0  0  0  0  0
  187.0770  178.3510  147.1870 C   0  0  0  0  0  2  0  0  0  0  0  0
  191.6820  176.9360  145.6310 C   0  0  0  0  0  2  0  0  0  0  0  0
  187.3640  176.6330  142.9450 O   0  0  0  0  0  0  0  0  0  0  0  0
  187.0050  177.9380  143.3330 C   0  0  1  0  0  3  0  0  0  0  0  0
  189.9960  177.7210  143.9960 C   0  0  1  0  0  3  0  0  0  0  0  0
  186.5300  177.9570  145.8300 C   0  0  0  0  0  2  0  0  0  0  0  0
  183.3400  178.7680  143.9640 C   0  0  0  0  0  0  0  0  0  0  0  0
  182.8440  178.7970  142.6570 C   0  0  0  0  0  3  0  0  0  0  0  0
  185.5460  178.2220  143.1130 C   0  0  0  0  0  0  0  0  0  0  0  0
  183.6960  178.5430  141.5790 C   0  0  0  0  0  3  0  0  0  0  0  0
  184.6900  178.4840  144.1920 C   0  0  0  0  0  3  0  0  0  0  0  0
  185.0460  178.2580  141.8070 C   0  0  0  0  0  3  0  0  0  0  0  0
  182.5150  179.0180  145.0090 F   0  0  0  0  0  0  0  0  0  0  0  0
  187.6130  177.8380  149.5870 C   0  0  0  0  0  1  0  0  0  0  0  0
  188.7580  177.8530  148.7860 O   0  0  0  0  0  0  0  0  0  0  0  0
  190.7140  177.7900  141.5280 C   0  0  0  0  0  2  0  0  0  0  0  0
  190.5130  176.7420  140.4510 C   0  0  0  0  0  2  0  0  0  0  0  0
  190.9650  177.2980  139.1150 C   0  0  0  0  0  2  0  0  0  0  0  0
  193.7770  177.3760  139.4660 O   0  0  0  0  0  0  0  0  0  0  0  0
  191.9420  176.3650  138.4770 C   0  0  0  0  0  0  0  0  0  0  0  0
  193.3240  176.4830  138.7010 C   0  0  0  0  0  0  0  0  0  0  0  0
  193.7460  174.6480  137.2500 C   0  0  0  0  0  3  0  0  0  0  0  0
  192.3810  174.5020  136.9980 C   0  0  0  0  0  2  0  0  0  0  0  0
  191.4780  175.3690  137.6140 C   0  0  0  0  0  3  0  0  0  0  0  0
  194.1850  175.6260  138.0880 N   0  0  0  0  0  0  0  0  0  0  0  0
  1 24  1  1  0  0  0
  2  5  1  1  0  0  0
  3  7  1  0  0  0  0
  4  8  1  0  0  0  0
  4 12  1  0  0  0  0
  6 11  1  0  0  0  0
  7  2  1  0  0  0  0
  7  1  1  0  0  0  0
  8 14  1  0  0  0  0
  9  3  1  0  0  0  0
  9 15  1  0  0  0  0
 10  1  1  0  0  0  0
 11  2  1  0  0  0  0
 12 13  1  0  0  0  0
 13  9  1  0  0  0  0
 14  6  1  0  0  0  0
 14  3  1  0  0  0  0
 15 10  1  0  0  0  0
 16 20  1  0  0  0  0
 16 22  1  0  0  0  0
 17 16  2  0  0  0  0
 18 13  1  0  0  0  0
 18 20  2  0  0  0  0
 19 21  2  0  0  0  0
 19 17  1  0  0  0  0
 21 18  1  0  0  0  0
 24 23  1  0  0  0  0
 25  8  1  0  0  0  0
 26 25  1  0  0  0  0
 27 26  1  0  0  0  0
 29 30  1  0  0  0  0
 29 27  1  0  0  0  0
 30 28  2  0  0  0  0
 31 34  2  0  0  0  0
 32 31  1  0  0  0  0
 32 33  1  0  0  0  0
 33 29  2  0  0  0  0
 34 30  1  0  0  0  0
M  END
>  <MODEL>
9

>  <REMARK>
 VINA RESULT:      -9.0      3.305      6.551
  Name = 
  6 active torsions:
  status: ('A' for Active; 'I' for Inactive)
    1  A    between atoms: C_1  and  O_19
    2  A    between atoms: C_3  and  C_13
    3  A    between atoms: C_3  and  C_17
    4  A    between atoms: C_12  and  C_28
    5  A    between atoms: C_17  and  C_29
    6  A    between atoms: C_18  and  C_29
                            x       y       z     vdW  Elec       q    Type
                         _______ _______ _______ _____ _____    ______ ____

>  <TORSDO>
F 6

$$$$
