=
 OpenBabel10262420013D

 27 31  0  0  1  0  0  0  0  0999 V2000
  182.1770  178.5410  138.6380 C   0  0  2  0  0  0  0  0  0  0  0  0
  182.1060  178.8930  141.1660 C   0  0  1  0  0  3  0  0  0  0  0  0
  184.3060  178.4490  140.0530 C   0  0  0  0  0  2  0  0  0  0  0  0
  184.0770  179.2290  145.0220 C   0  0  0  0  0  2  0  0  0  0  0  0
  186.1520  178.9080  146.0980 O   0  0  0  0  0  0  0  0  0  0  0  0
  181.2690  178.7960  142.4420 C   0  0  0  0  0  2  0  0  0  0  0  0
  185.5840  178.0350  142.7280 C   0  0  0  0  0  2  0  0  0  0  0  0
  185.3950  176.9340  137.6050 O   0  0  0  0  0  1  0  0  0  0  0  0
  185.9020  177.5890  144.1600 C   0  0  0  0  0  2  0  0  0  0  0  0
  183.6630  177.9000  136.2660 C   0  0  0  0  0  2  0  0  0  0  0  0
  183.4810  178.2130  141.3200 C   0  0  1  0  0  3  0  0  0  0  0  0
  181.3430  178.3670  139.9310 C   0  0  2  0  0  3  0  0  0  0  0  0
  185.4350  178.6060  145.1590 C   0  0  0  0  0  0  0  0  0  0  0  0
  183.3410  178.6550  143.8150 C   0  0  2  0  0  3  0  0  0  0  0  0
  182.3170  180.0360  138.3590 C   0  0  0  0  0  1  0  0  0  0  0  0
  184.2230  178.7470  142.5540 C   0  0  1  0  0  3  0  0  0  0  0  0
  184.4610  177.9690  137.5740 C   0  0  1  0  0  3  0  0  0  0  0  0
  182.0310  179.4010  143.6120 C   0  0  0  0  0  2  0  0  0  0  0  0
  182.3380  177.1680  136.4540 C   0  0  0  0  0  2  0  0  0  0  0  0
  181.4340  177.9290  137.4300 C   0  0  0  0  0  2  0  0  0  0  0  0
  183.5750  177.8970  138.8290 C   0  0  2  0  0  3  0  0  0  0  0  0
  179.6820  174.4250  140.5050 C   0  0  0  0  0  3  0  0  0  0  0  0
  180.7820  176.9750  140.1250 C   0  0  0  0  0  0  0  0  0  0  0  0
  181.5310  175.8280  139.8180 C   0  0  0  0  0  3  0  0  0  0  0  0
  180.9820  174.5570  140.0080 C   0  0  0  0  0  3  0  0  0  0  0  0
  178.9320  175.5640  140.8120 C   0  0  0  0  0  3  0  0  0  0  0  0
  179.4810  176.8350  140.6210 C   0  0  0  0  0  3  0  0  0  0  0  0
  1 15  1  6  0  0  0
  1 21  1  0  0  0  0
  1 12  1  0  0  0  0
  2 11  1  0  0  0  0
  2  6  1  1  0  0  0
  4 13  1  0  0  0  0
  6 18  1  0  0  0  0
  7  9  1  0  0  0  0
  9 13  1  0  0  0  0
 10 19  1  0  0  0  0
 10 17  1  0  0  0  0
 11  3  1  6  0  0  0
 11 16  1  0  0  0  0
 12 23  1  1  0  0  0
 12  2  1  0  0  0  0
 13  5  2  0  0  0  0
 14 18  1  6  0  0  0
 14  4  1  0  0  0  0
 16  7  1  1  0  0  0
 16 14  1  0  0  0  0
 17  8  1  1  0  0  0
 17 21  1  0  0  0  0
 19 20  1  0  0  0  0
 20  1  1  0  0  0  0
 21  3  1  1  0  0  0
 22 26  1  0  0  0  0
 23 27  1  0  0  0  0
 24 25  1  0  0  0  0
 24 23  2  0  0  0  0
 25 22  2  0  0  0  0
 27 26  2  0  0  0  0
M  END
>  <MODEL>
1

>  <REMARK>
 VINA RESULT:      -6.7      0.000      0.000
  Name = 
  1 active torsions:
  status: ('A' for Active; 'I' for Inactive)
    1  A    between atoms: C_9  and  C_15
                            x       y       z     vdW  Elec       q    Type
                         _______ _______ _______ _____ _____    ______ ____

>  <TORSDO>
F 1

$$$$
=
 OpenBabel10262420013D

 27 31  0  0  1  0  0  0  0  0999 V2000
  188.4870  177.8450  137.2580 C   0  0  2  0  0  0  0  0  0  0  0  0
  186.6440  178.4930  138.9030 C   0  0  1  0  0  3  0  0  0  0  0  0
  188.8520  177.7070  139.7860 C   0  0  0  0  0  2  0  0  0  0  0  0
  185.1830  179.0760  142.9510 C   0  0  0  0  0  2  0  0  0  0  0  0
  185.7250  178.6770  145.2130 O   0  0  0  0  0  0  0  0  0  0  0  0
  185.1400  178.6290  139.1400 C   0  0  0  0  0  2  0  0  0  0  0  0
  187.6800  177.4800  142.5320 C   0  0  0  0  0  2  0  0  0  0  0  0
  191.1350  175.8170  138.9550 O   0  0  0  0  0  1  0  0  0  0  0  0
  186.7760  177.1730  143.7310 C   0  0  0  0  0  2  0  0  0  0  0  0
  191.1120  176.7890  136.7690 C   0  0  0  0  0  2  0  0  0  0  0  0
  187.3410  177.7020  140.0270 C   0  0  1  0  0  3  0  0  0  0  0  0
  186.9600  177.9060  137.5100 C   0  0  2  0  0  3  0  0  0  0  0  0
  185.8900  178.3410  144.0530 C   0  0  0  0  0  0  0  0  0  0  0  0
  185.4900  178.4420  141.5980 C   0  0  2  0  0  3  0  0  0  0  0  0
  189.0130  179.2760  137.1680 C   0  0  0  0  0  1  0  0  0  0  0  0
  187.0130  178.2990  141.4030 C   0  0  1  0  0  3  0  0  0  0  0  0
  190.6950  176.9290  138.2380 C   0  0  1  0  0  3  0  0  0  0  0  0
  184.8820  179.2860  140.4880 C   0  0  0  0  0  2  0  0  0  0  0  0
  189.9820  176.2200  135.9160 C   0  0  0  0  0  2  0  0  0  0  0  0
  188.7840  177.1740  135.9000 C   0  0  0  0  0  2  0  0  0  0  0  0
  189.1780  177.0920  138.4250 C   0  0  2  0  0  3  0  0  0  0  0  0
  184.8340  174.2430  136.6840 C   0  0  0  0  0  3  0  0  0  0  0  0
  186.2330  176.6090  137.2300 C   0  0  0  0  0  0  0  0  0  0  0  0
  186.8000  175.3630  137.5410 C   0  0  0  0  0  3  0  0  0  0  0  0
  186.1020  174.1840  137.2680 C   0  0  0  0  0  3  0  0  0  0  0  0
  184.2640  175.4810  136.3730 C   0  0  0  0  0  3  0  0  0  0  0  0
  184.9630  176.6600  136.6450 C   0  0  0  0  0  3  0  0  0  0  0  0
  1 15  1  6  0  0  0
  1 12  1  0  0  0  0
  1 21  1  0  0  0  0
  2  6  1  1  0  0  0
  2 11  1  0  0  0  0
  4 13  1  0  0  0  0
  6 18  1  0  0  0  0
  7  9  1  0  0  0  0
  9 13  1  0  0  0  0
 10 17  1  0  0  0  0
 11  3  1  6  0  0  0
 11 16  1  0  0  0  0
 12 23  1  1  0  0  0
 12  2  1  0  0  0  0
 13  5  2  0  0  0  0
 14 18  1  6  0  0  0
 14  4  1  0  0  0  0
 16 14  1  0  0  0  0
 16  7  1  1  0  0  0
 17 21  1  0  0  0  0
 17  8  1  1  0  0  0
 19 10  1  0  0  0  0
 20 19  1  0  0  0  0
 20  1  1  0  0  0  0
 21  3  1  1  0  0  0
 22 25  1  0  0  0  0
 23 24  1  0  0  0  0
 25 24  2  0  0  0  0
 26 27  1  0  0  0  0
 26 22  2  0  0  0  0
 27 23  2  0  0  0  0
M  END
>  <MODEL>
2

>  <REMARK>
 VINA RESULT:      -6.4      3.657      5.409
  Name = 
  1 active torsions:
  status: ('A' for Active; 'I' for Inactive)
    1  A    between atoms: C_9  and  C_15
                            x       y       z     vdW  Elec       q    Type
                         _______ _______ _______ _____ _____    ______ ____

>  <TORSDO>
F 1

$$$$
=
 OpenBabel10262420013D

 27 31  0  0  1  0  0  0  0  0999 V2000
  181.5680  176.8680  138.7840 C   0  0  2  0  0  0  0  0  0  0  0  0
  180.5670  179.1060  139.4970 C   0  0  1  0  0  3  0  0  0  0  0  0
  181.1140  178.7230  137.0820 C   0  0  0  0  0  2  0  0  0  0  0  0
  179.0700  183.0770  138.5720 C   0  0  0  0  0  2  0  0  0  0  0  0
  178.9310  184.6680  136.8350 O   0  0  0  0  0  0  0  0  0  0  0  0
  180.3890  180.1180  140.6290 C   0  0  0  0  0  2  0  0  0  0  0  0
  180.7050  181.6350  136.5210 C   0  0  0  0  0  2  0  0  0  0  0  0
  183.1320  177.1260  135.3930 O   0  0  0  0  0  1  0  0  0  0  0  0
  180.7310  183.1680  136.5720 C   0  0  0  0  0  2  0  0  0  0  0  0
  182.6930  175.1960  136.7380 C   0  0  0  0  0  2  0  0  0  0  0  0
  181.0710  179.7680  138.1990 C   0  0  1  0  0  3  0  0  0  0  0  0
  181.4590  177.9180  139.9160 C   0  0  2  0  0  3  0  0  0  0  0  0
  179.5250  183.7040  137.2860 C   0  0  0  0  0  0  0  0  0  0  0  0
  179.9990  181.9350  138.9720 C   0  0  2  0  0  3  0  0  0  0  0  0
  180.1930  176.2300  138.5910 C   0  0  0  0  0  1  0  0  0  0  0  0
  180.1740  180.9480  137.8000 C   0  0  1  0  0  3  0  0  0  0  0  0
  182.2190  176.5870  136.2990 C   0  0  1  0  0  3  0  0  0  0  0  0
  179.4380  181.2240  140.1940 C   0  0  0  0  0  2  0  0  0  0  0  0
  183.4510  175.2530  138.0610 C   0  0  0  0  0  2  0  0  0  0  0  0
  182.5340  175.7340  139.1900 C   0  0  0  0  0  2  0  0  0  0  0  0
  182.0260  177.5600  137.4730 C   0  0  2  0  0  3  0  0  0  0  0  0
  185.2310  179.1260  141.6310 C   0  0  0  0  0  3  0  0  0  0  0  0
  182.7900  178.3460  140.4950 C   0  0  0  0  0  0  0  0  0  0  0  0
  183.8560  178.7490  139.6750 C   0  0  0  0  0  3  0  0  0  0  0  0
  185.0720  179.1380  140.2420 C   0  0  0  0  0  3  0  0  0  0  0  0
  184.1730  178.7260  142.4520 C   0  0  0  0  0  3  0  0  0  0  0  0
  182.9560  178.3360  141.8840 C   0  0  0  0  0  3  0  0  0  0  0  0
  1 15  1  6  0  0  0
  1 20  1  0  0  0  0
  1 12  1  0  0  0  0
  2 12  1  0  0  0  0
  2  6  1  1  0  0  0
  5 13  2  0  0  0  0
  7  9  1  0  0  0  0
  9 13  1  0  0  0  0
 10 19  1  0  0  0  0
 11  3  1  6  0  0  0
 11  2  1  0  0  0  0
 12 23  1  6  0  0  0
 13  4  1  0  0  0  0
 14  4  1  6  0  0  0
 14 18  1  0  0  0  0
 16  7  1  6  0  0  0
 16 11  1  0  0  0  0
 16 14  1  0  0  0  0
 17  8  1  6  0  0  0
 17 10  1  0  0  0  0
 17 21  1  0  0  0  0
 18  6  1  0  0  0  0
 19 20  1  0  0  0  0
 21  3  1  6  0  0  0
 21  1  1  0  0  0  0
 22 26  1  0  0  0  0
 23 27  1  0  0  0  0
 24 25  1  0  0  0  0
 24 23  2  0  0  0  0
 25 22  2  0  0  0  0
 27 26  2  0  0  0  0
M  END
>  <MODEL>
3

>  <REMARK>
 VINA RESULT:      -6.2      2.970      5.975
  Name = 
  1 active torsions:
  status: ('A' for Active; 'I' for Inactive)
    1  A    between atoms: C_9  and  C_15
                            x       y       z     vdW  Elec       q    Type
                         _______ _______ _______ _____ _____    ______ ____

>  <TORSDO>
F 1

$$$$
=
 OpenBabel10262420013D

 27 31  0  0  1  0  0  0  0  0999 V2000
  186.9240  176.7750  135.9660 C   0  0  2  0  0  0  0  0  0  0  0  0
  184.4400  177.2630  136.2970 C   0  0  1  0  0  3  0  0  0  0  0  0
  186.0730  177.9790  138.0560 C   0  0  0  0  0  2  0  0  0  0  0  0
  181.1640  178.9620  138.5870 C   0  0  0  0  0  2  0  0  0  0  0  0
  180.6390  179.9140  140.6810 O   0  0  0  0  0  0  0  0  0  0  0  0
  183.0060  176.8460  135.9690 C   0  0  0  0  0  2  0  0  0  0  0  0
  183.8110  178.5690  139.9270 C   0  0  0  0  0  2  0  0  0  0  0  0
  188.7850  177.0770  139.1990 O   0  0  0  0  0  1  0  0  0  0  0  0
  182.5230  178.4980  140.7550 C   0  0  0  0  0  2  0  0  0  0  0  0
  189.6140  176.8250  136.9690 C   0  0  0  0  0  2  0  0  0  0  0  0
  184.6580  177.4520  137.8110 C   0  0  1  0  0  3  0  0  0  0  0  0
  185.4780  176.2970  135.6860 C   0  0  2  0  0  3  0  0  0  0  0  0
  181.3910  179.1890  140.0530 C   0  0  0  0  0  0  0  0  0  0  0  0
  182.1840  177.9740  138.0310 C   0  0  2  0  0  3  0  0  0  0  0  0
  187.1540  178.0760  135.1980 C   0  0  0  0  0  1  0  0  0  0  0  0
  183.6150  178.4120  138.4010 C   0  0  1  0  0  3  0  0  0  0  0  0
  188.5370  177.4340  137.8740 C   0  0  1  0  0  3  0  0  0  0  0  0
  182.0260  177.8710  136.5210 C   0  0  0  0  0  2  0  0  0  0  0  0
  189.1490  175.5150  136.3440 C   0  0  0  0  0  2  0  0  0  0  0  0
  187.9460  175.7510  135.4250 C   0  0  0  0  0  2  0  0  0  0  0  0
  187.1110  177.0100  137.4880 C   0  0  2  0  0  3  0  0  0  0  0  0
  184.7460  172.1480  136.6230 C   0  0  0  0  0  3  0  0  0  0  0  0
  185.2250  174.8480  136.0380 C   0  0  0  0  0  0  0  0  0  0  0  0
  185.3000  174.3860  137.3620 C   0  0  0  0  0  3  0  0  0  0  0  0
  185.0610  173.0410  137.6520 C   0  0  0  0  0  3  0  0  0  0  0  0
  184.6700  172.6030  135.3040 C   0  0  0  0  0  3  0  0  0  0  0  0
  184.9100  173.9490  135.0130 C   0  0  0  0  0  3  0  0  0  0  0  0
  1 15  1  6  0  0  0
  1 21  1  0  0  0  0
  2  6  1  1  0  0  0
  2 11  1  0  0  0  0
  4 13  1  0  0  0  0
  6 18  1  0  0  0  0
  7  9  1  0  0  0  0
 10 17  1  0  0  0  0
 11  3  1  6  0  0  0
 11 16  1  0  0  0  0
 12  1  1  0  0  0  0
 12 23  1  1  0  0  0
 12  2  1  0  0  0  0
 13  5  2  0  0  0  0
 13  9  1  0  0  0  0
 14 18  1  6  0  0  0
 14 16  1  0  0  0  0
 14  4  1  0  0  0  0
 16  7  1  1  0  0  0
 17  8  1  1  0  0  0
 19 10  1  0  0  0  0
 20  1  1  0  0  0  0
 20 19  1  0  0  0  0
 21 17  1  0  0  0  0
 21  3  1  6  0  0  0
 22 25  1  0  0  0  0
 23 24  1  0  0  0  0
 24 25  2  0  0  0  0
 26 22  2  0  0  0  0
 27 26  1  0  0  0  0
 27 23  2  0  0  0  0
M  END
>  <MODEL>
4

>  <REMARK>
 VINA RESULT:      -6.0      3.471      5.976
  Name = 
  1 active torsions:
  status: ('A' for Active; 'I' for Inactive)
    1  A    between atoms: C_9  and  C_15
                            x       y       z     vdW  Elec       q    Type
                         _______ _______ _______ _____ _____    ______ ____

>  <TORSDO>
F 1

$$$$
=
 OpenBabel10262420013D

 27 31  0  0  1  0  0  0  0  0999 V2000
  188.6050  177.7210  136.9370 C   0  0  2  0  0  0  0  0  0  0  0  0
  187.4810  178.2550  139.1670 C   0  0  1  0  0  3  0  0  0  0  0  0
  189.7000  177.0900  139.1620 C   0  0  0  0  0  2  0  0  0  0  0  0
  187.4420  178.2500  143.5110 C   0  0  0  0  0  2  0  0  0  0  0  0
  188.5790  177.3950  145.3920 O   0  0  0  0  0  0  0  0  0  0  0  0
  186.1630  178.5050  139.9010 C   0  0  0  0  0  2  0  0  0  0  0  0
  189.4040  176.4990  142.0820 C   0  0  0  0  0  2  0  0  0  0  0  0
  191.2880  175.1490  137.3780 O   0  0  0  0  0  1  0  0  0  0  0  0
  188.8730  176.0790  143.4580 C   0  0  0  0  0  2  0  0  0  0  0  0
  190.7510  176.4960  135.4750 C   0  0  0  0  0  2  0  0  0  0  0  0
  188.3540  177.2040  139.8820 C   0  0  1  0  0  3  0  0  0  0  0  0
  187.2590  177.8980  137.6810 C   0  0  2  0  0  3  0  0  0  0  0  0
  188.3260  177.2580  144.2080 C   0  0  0  0  0  0  0  0  0  0  0  0
  187.2150  177.8420  142.0580 C   0  0  2  0  0  3  0  0  0  0  0  0
  189.2980  179.0800  136.8760 C   0  0  0  0  0  1  0  0  0  0  0  0
  188.5620  177.5740  141.3570 C   0  0  1  0  0  3  0  0  0  0  0  0
  190.8320  176.4120  137.0040 C   0  0  1  0  0  3  0  0  0  0  0  0
  186.4390  178.9320  141.3350 C   0  0  0  0  0  2  0  0  0  0  0  0
  189.3390  176.2130  134.9710 C   0  0  0  0  0  2  0  0  0  0  0  0
  188.3610  177.2780  135.4780 C   0  0  0  0  0  2  0  0  0  0  0  0
  189.4910  176.6990  137.6980 C   0  0  2  0  0  3  0  0  0  0  0  0
  184.4270  174.6910  137.1070 C   0  0  0  0  0  3  0  0  0  0  0  0
  186.2840  176.7570  137.4810 C   0  0  0  0  0  0  0  0  0  0  0  0
  186.7150  175.4230  137.4070 C   0  0  0  0  0  3  0  0  0  0  0  0
  185.7890  174.3940  137.2200 C   0  0  0  0  0  3  0  0  0  0  0  0
  183.9940  176.0180  137.1810 C   0  0  0  0  0  3  0  0  0  0  0  0
  184.9200  177.0480  137.3670 C   0  0  0  0  0  3  0  0  0  0  0  0
  1 15  1  6  0  0  0
  1 12  1  0  0  0  0
  1 21  1  0  0  0  0
  2 11  1  0  0  0  0
  2  6  1  1  0  0  0
  4 13  1  0  0  0  0
  6 18  1  0  0  0  0
  7  9  1  0  0  0  0
  9 13  1  0  0  0  0
 10 17  1  0  0  0  0
 11  3  1  6  0  0  0
 11 16  1  0  0  0  0
 12 23  1  1  0  0  0
 12  2  1  0  0  0  0
 13  5  2  0  0  0  0
 14 18  1  6  0  0  0
 14  4  1  0  0  0  0
 16 14  1  0  0  0  0
 16  7  1  1  0  0  0
 17  8  1  6  0  0  0
 17 21  1  0  0  0  0
 19 10  1  0  0  0  0
 19 20  1  0  0  0  0
 20  1  1  0  0  0  0
 21  3  1  1  0  0  0
 22 26  2  0  0  0  0
 22 25  1  0  0  0  0
 24 23  1  0  0  0  0
 25 24  2  0  0  0  0
 26 27  1  0  0  0  0
 27 23  2  0  0  0  0
M  END
>  <MODEL>
5

>  <REMARK>
 VINA RESULT:      -5.9      3.999      5.704
  Name = 
  1 active torsions:
  status: ('A' for Active; 'I' for Inactive)
    1  A    between atoms: C_9  and  C_15
                            x       y       z     vdW  Elec       q    Type
                         _______ _______ _______ _____ _____    ______ ____

>  <TORSDO>
F 1

$$$$
=
 OpenBabel10262420013D

 27 31  0  0  1  0  0  0  0  0999 V2000
  188.7780  177.2150  137.1480 C   0  0  2  0  0  0  0  0  0  0  0  0
  186.4160  177.2430  136.1760 C   0  0  1  0  0  3  0  0  0  0  0  0
  186.7610  177.8780  138.5750 C   0  0  0  0  0  2  0  0  0  0  0  0
  182.1510  177.9730  136.5510 C   0  0  0  0  0  2  0  0  0  0  0  0
  180.4640  178.4420  138.1320 O   0  0  0  0  0  0  0  0  0  0  0  0
  185.4670  176.6730  135.1210 C   0  0  0  0  0  2  0  0  0  0  0  0
  183.8050  177.7630  139.0370 C   0  0  0  0  0  2  0  0  0  0  0  0
  188.6810  177.2180  140.8890 O   0  0  0  0  0  1  0  0  0  0  0  0
  182.3300  177.3460  139.0690 C   0  0  0  0  0  2  0  0  0  0  0  0
  190.5330  177.5030  139.4020 C   0  0  0  0  0  2  0  0  0  0  0  0
  185.8110  177.1890  137.5930 C   0  0  1  0  0  3  0  0  0  0  0  0
  187.8080  176.5760  136.1240 C   0  0  2  0  0  3  0  0  0  0  0  0
  181.5690  177.9660  137.9340 C   0  0  0  0  0  0  0  0  0  0  0  0
  183.5060  177.2720  136.5340 C   0  0  2  0  0  3  0  0  0  0  0  0
  189.0550  178.6510  136.7090 C   0  0  0  0  0  1  0  0  0  0  0  0
  184.4270  177.8540  137.6250 C   0  0  1  0  0  3  0  0  0  0  0  0
  189.0440  177.7640  139.6590 C   0  0  1  0  0  3  0  0  0  0  0  0
  184.1410  177.4180  135.1590 C   0  0  0  0  0  2  0  0  0  0  0  0
  190.7450  176.2690  138.5310 C   0  0  0  0  0  2  0  0  0  0  0  0
  190.1340  176.4760  137.1420 C   0  0  0  0  0  2  0  0  0  0  0  0
  188.1310  177.2000  138.5580 C   0  0  2  0  0  3  0  0  0  0  0  0
  187.6790  172.2630  136.2420 C   0  0  0  0  0  3  0  0  0  0  0  0
  187.7490  175.0650  136.1850 C   0  0  0  0  0  0  0  0  0  0  0  0
  187.0500  174.3950  137.2020 C   0  0  0  0  0  3  0  0  0  0  0  0
  187.0160  172.9980  137.2290 C   0  0  0  0  0  3  0  0  0  0  0  0
  188.3750  172.9260  135.2280 C   0  0  0  0  0  3  0  0  0  0  0  0
  188.4100  174.3230  135.2000 C   0  0  0  0  0  3  0  0  0  0  0  0
  1 15  1  6  0  0  0
  1 21  1  0  0  0  0
  2  6  1  6  0  0  0
  2 11  1  0  0  0  0
  4 13  1  0  0  0  0
  6 18  1  0  0  0  0
  7  9  1  0  0  0  0
 10 17  1  0  0  0  0
 11 16  1  0  0  0  0
 11  3  1  1  0  0  0
 12  2  1  0  0  0  0
 12 23  1  1  0  0  0
 12  1  1  0  0  0  0
 13  5  2  0  0  0  0
 13  9  1  0  0  0  0
 14 18  1  6  0  0  0
 14  4  1  0  0  0  0
 14 16  1  0  0  0  0
 16  7  1  1  0  0  0
 17  8  1  1  0  0  0
 19 10  1  0  0  0  0
 20  1  1  0  0  0  0
 20 19  1  0  0  0  0
 21  3  1  6  0  0  0
 21 17  1  0  0  0  0
 22 25  1  0  0  0  0
 23 24  1  0  0  0  0
 24 25  2  0  0  0  0
 26 22  2  0  0  0  0
 27 26  1  0  0  0  0
 27 23  2  0  0  0  0
M  END
>  <MODEL>
6

>  <REMARK>
 VINA RESULT:      -5.7      4.213      7.519
  Name = 
  1 active torsions:
  status: ('A' for Active; 'I' for Inactive)
    1  A    between atoms: C_9  and  C_15
                            x       y       z     vdW  Elec       q    Type
                         _______ _______ _______ _____ _____    ______ ____

>  <TORSDO>
F 1

$$$$
=
 OpenBabel10262420013D

 27 31  0  0  1  0  0  0  0  0999 V2000
  181.1440  178.2670  140.1120 C   0  0  2  0  0  0  0  0  0  0  0  0
  182.2960  177.7430  137.8940 C   0  0  1  0  0  3  0  0  0  0  0  0
  183.6710  177.8890  139.9830 C   0  0  0  0  0  2  0  0  0  0  0  0
  185.8440  176.7880  135.5760 C   0  0  0  0  0  2  0  0  0  0  0  0
  188.1960  176.6700  135.7160 O   0  0  0  0  0  0  0  0  0  0  0  0
  182.2530  177.8840  136.3720 C   0  0  0  0  0  2  0  0  0  0  0  0
  186.1760  177.8780  138.3440 C   0  0  0  0  0  2  0  0  0  0  0  0
  183.6330  179.3780  142.6770 O   0  0  0  0  0  1  0  0  0  0  0  0
  187.2500  178.1550  137.2850 C   0  0  0  0  0  2  0  0  0  0  0  0
  181.3180  178.8230  142.9230 C   0  0  0  0  0  2  0  0  0  0  0  0
  183.6590  178.1660  138.4780 C   0  0  1  0  0  3  0  0  0  0  0  0
  181.1260  178.4820  138.5790 C   0  0  2  0  0  3  0  0  0  0  0  0
  187.1730  177.1590  136.1650 C   0  0  0  0  0  0  0  0  0  0  0  0
  184.7190  177.5680  136.2520 C   0  0  2  0  0  3  0  0  0  0  0  0
  180.8460  176.7950  140.3900 C   0  0  0  0  0  1  0  0  0  0  0  0
  184.8090  177.4230  137.7840 C   0  0  1  0  0  3  0  0  0  0  0  0
  182.6390  178.5220  142.2040 C   0  0  1  0  0  3  0  0  0  0  0  0
  183.3750  177.0720  135.7420 C   0  0  0  0  0  2  0  0  0  0  0  0
  180.4310  179.7530  142.1020 C   0  0  0  0  0  2  0  0  0  0  0  0
  180.0210  179.0850  140.7850 C   0  0  0  0  0  2  0  0  0  0  0  0
  182.5390  178.6480  140.6760 C   0  0  2  0  0  3  0  0  0  0  0  0
  180.7290  182.5970  137.3400 C   0  0  0  0  0  3  0  0  0  0  0  0
  181.0070  179.9300  138.1570 C   0  0  0  0  0  0  0  0  0  0  0  0
  181.9300  180.9000  138.5790 C   0  0  0  0  0  3  0  0  0  0  0  0
  181.7910  182.2290  138.1720 C   0  0  0  0  0  3  0  0  0  0  0  0
  179.8080  181.6350  136.9160 C   0  0  0  0  0  3  0  0  0  0  0  0
  179.9470  180.3060  137.3240 C   0  0  0  0  0  3  0  0  0  0  0  0
  1 15  1  1  0  0  0
  1 21  1  0  0  0  0
  1 20  1  0  0  0  0
  2  6  1  6  0  0  0
  2 11  1  0  0  0  0
  2 12  1  0  0  0  0
  4 13  1  0  0  0  0
  5 13  2  0  0  0  0
  9  7  1  0  0  0  0
 11  3  1  1  0  0  0
 12 23  1  1  0  0  0
 12  1  1  0  0  0  0
 13  9  1  0  0  0  0
 14  4  1  6  0  0  0
 14 16  1  0  0  0  0
 16  7  1  1  0  0  0
 16 11  1  0  0  0  0
 17  8  1  1  0  0  0
 17 10  1  0  0  0  0
 18 14  1  0  0  0  0
 18  6  1  0  0  0  0
 19 10  1  0  0  0  0
 20 19  1  0  0  0  0
 21  3  1  6  0  0  0
 21 17  1  0  0  0  0
 22 25  1  0  0  0  0
 23 24  1  0  0  0  0
 25 24  2  0  0  0  0
 26 27  1  0  0  0  0
 26 22  2  0  0  0  0
 27 23  2  0  0  0  0
M  END
>  <MODEL>
7

>  <REMARK>
 VINA RESULT:      -5.7      2.091      6.192
  Name = 
  1 active torsions:
  status: ('A' for Active; 'I' for Inactive)
    1  A    between atoms: C_9  and  C_15
                            x       y       z     vdW  Elec       q    Type
                         _______ _______ _______ _____ _____    ______ ____

>  <TORSDO>
F 1

$$$$
=
 OpenBabel10262420013D

 27 31  0  0  1  0  0  0  0  0999 V2000
  191.4780  175.1090  135.6420 C   0  0  2  0  0  0  0  0  0  0  0  0
  189.7280  176.4640  136.9150 C   0  0  1  0  0  3  0  0  0  0  0  0
  191.8360  175.7820  138.0840 C   0  0  0  0  0  2  0  0  0  0  0  0
  188.3600  178.5160  140.4900 C   0  0  0  0  0  2  0  0  0  0  0  0
  188.8620  178.8370  142.7730 O   0  0  0  0  0  0  0  0  0  0  0  0
  188.2490  176.8330  137.0430 C   0  0  0  0  0  2  0  0  0  0  0  0
  190.6580  176.6110  140.7080 C   0  0  0  0  0  2  0  0  0  0  0  0
  193.8860  173.4870  138.0040 O   0  0  0  0  0  1  0  0  0  0  0  0
  189.7290  176.8210  141.9100 C   0  0  0  0  0  2  0  0  0  0  0  0
  193.9640  173.6710  135.6200 C   0  0  0  0  0  2  0  0  0  0  0  0
  190.3350  176.0220  138.2610 C   0  0  1  0  0  3  0  0  0  0  0  0
  189.9700  175.4150  135.8070 C   0  0  2  0  0  3  0  0  0  0  0  0
  188.9830  178.1180  141.7960 C   0  0  0  0  0  0  0  0  0  0  0  0
  188.5870  177.4380  139.4340 C   0  0  2  0  0  3  0  0  0  0  0  0
  192.1630  176.3620  135.1010 C   0  0  0  0  0  1  0  0  0  0  0  0
  190.0830  177.0740  139.3500 C   0  0  1  0  0  3  0  0  0  0  0  0
  193.5720  174.3370  136.9450 C   0  0  1  0  0  3  0  0  0  0  0  0
  188.0740  177.9260  138.0870 C   0  0  0  0  0  2  0  0  0  0  0  0
  192.7740  172.9770  134.9660 C   0  0  0  0  0  2  0  0  0  0  0  0
  191.6910  173.9960  134.5940 C   0  0  0  0  0  2  0  0  0  0  0  0
  192.0850  174.7160  137.0160 C   0  0  2  0  0  3  0  0  0  0  0  0
  187.4600  171.9200  136.1460 C   0  0  0  0  0  3  0  0  0  0  0  0
  189.0990  174.1860  135.9490 C   0  0  0  0  0  0  0  0  0  0  0  0
  189.1280  173.3900  137.1040 C   0  0  0  0  0  3  0  0  0  0  0  0
  188.3110  172.2610  137.2020 C   0  0  0  0  0  3  0  0  0  0  0  0
  187.4270  172.7100  134.9940 C   0  0  0  0  0  3  0  0  0  0  0  0
  188.2450  173.8390  134.8960 C   0  0  0  0  0  3  0  0  0  0  0  0
  1 15  1  6  0  0  0
  1 12  1  0  0  0  0
  1 21  1  0  0  0  0
  2  6  1  1  0  0  0
  2 11  1  0  0  0  0
  4 13  1  0  0  0  0
  6 18  1  0  0  0  0
  7  9  1  0  0  0  0
 10 17  1  0  0  0  0
 11  3  1  6  0  0  0
 11 16  1  0  0  0  0
 12 23  1  1  0  0  0
 12  2  1  0  0  0  0
 13  9  1  0  0  0  0
 13  5  2  0  0  0  0
 14 18  1  6  0  0  0
 14  4  1  0  0  0  0
 16 14  1  0  0  0  0
 16  7  1  1  0  0  0
 17 21  1  0  0  0  0
 17  8  1  1  0  0  0
 19 10  1  0  0  0  0
 20 19  1  0  0  0  0
 20  1  1  0  0  0  0
 21  3  1  1  0  0  0
 22 25  1  0  0  0  0
 23 24  1  0  0  0  0
 24 25  2  0  0  0  0
 26 22  2  0  0  0  0
 27 26  1  0  0  0  0
 27 23  2  0  0  0  0
M  END
>  <MODEL>
8

>  <REMARK>
 VINA RESULT:      -5.5      6.865      8.859
  Name = 
  1 active torsions:
  status: ('A' for Active; 'I' for Inactive)
    1  A    between atoms: C_9  and  C_15
                            x       y       z     vdW  Elec       q    Type
                         _______ _______ _______ _____ _____    ______ ____

>  <TORSDO>
F 1

$$$$
=
 OpenBabel10262420013D

 27 31  0  0  1  0  0  0  0  0999 V2000
  181.7280  178.5030  139.3830 C   0  0  2  0  0  0  0  0  0  0  0  0
  183.8390  177.7720  138.1460 C   0  0  1  0  0  3  0  0  0  0  0  0
  182.0050  176.1080  138.5270 C   0  0  0  0  0  2  0  0  0  0  0  0
  186.1730  174.7790  136.0350 C   0  0  0  0  0  2  0  0  0  0  0  0
  186.2420  172.4770  135.5230 O   0  0  0  0  0  0  0  0  0  0  0  0
  185.3340  178.0090  137.9300 C   0  0  0  0  0  2  0  0  0  0  0  0
  183.8270  173.8930  137.6680 C   0  0  0  0  0  2  0  0  0  0  0  0
  179.7940  175.5350  140.5910 O   0  0  0  0  0  1  0  0  0  0  0  0
  185.0230  172.9510  137.4850 C   0  0  0  0  0  2  0  0  0  0  0  0
  179.1850  177.8480  140.5460 C   0  0  0  0  0  2  0  0  0  0  0  0
  183.5210  176.2920  138.4380 C   0  0  1  0  0  3  0  0  0  0  0  0
  183.2550  178.7050  139.2290 C   0  0  2  0  0  3  0  0  0  0  0  0
  185.8350  173.3380  136.2840 C   0  0  0  0  0  0  0  0  0  0  0  0
  185.6130  175.6620  137.1460 C   0  0  2  0  0  3  0  0  0  0  0  0
  181.0520  178.9810  138.0990 C   0  0  0  0  0  1  0  0  0  0  0  0
  184.1120  175.3790  137.3530 C   0  0  1  0  0  3  0  0  0  0  0  0
  179.9300  176.7050  139.8450 C   0  0  1  0  0  3  0  0  0  0  0  0
  185.8430  177.1260  136.8000 C   0  0  0  0  0  2  0  0  0  0  0  0
  180.1260  178.6900  141.4020 C   0  0  0  0  0  2  0  0  0  0  0  0
  181.1800  179.3800  140.5290 C   0  0  0  0  0  2  0  0  0  0  0  0
  181.4220  177.0010  139.6230 C   0  0  2  0  0  3  0  0  0  0  0  0
  185.4970  178.5970  142.9150 C   0  0  0  0  0  3  0  0  0  0  0  0
  184.0210  178.6600  140.5330 C   0  0  0  0  0  0  0  0  0  0  0  0
  183.4060  178.2840  141.7380 C   0  0  0  0  0  3  0  0  0  0  0  0
  184.1420  178.2530  142.9240 C   0  0  0  0  0  3  0  0  0  0  0  0
  186.1150  178.9710  141.7190 C   0  0  0  0  0  3  0  0  0  0  0  0
  185.3780  179.0030  140.5310 C   0  0  0  0  0  3  0  0  0  0  0  0
  1 15  1  6  0  0  0
  1 21  1  0  0  0  0
  1 20  1  0  0  0  0
  2  6  1  1  0  0  0
  2 11  1  0  0  0  0
  2 12  1  0  0  0  0
  4 13  1  0  0  0  0
  5 13  2  0  0  0  0
  9  7  1  0  0  0  0
 10 19  1  0  0  0  0
 11  3  1  6  0  0  0
 12  1  1  0  0  0  0
 12 23  1  1  0  0  0
 13  9  1  0  0  0  0
 14  4  1  6  0  0  0
 14 16  1  0  0  0  0
 16  7  1  1  0  0  0
 16 11  1  0  0  0  0
 17 10  1  0  0  0  0
 17  8  1  1  0  0  0
 18 14  1  0  0  0  0
 18  6  1  0  0  0  0
 20 19  1  0  0  0  0
 21  3  1  6  0  0  0
 21 17  1  0  0  0  0
 22 25  1  0  0  0  0
 23 24  1  0  0  0  0
 24 25  2  0  0  0  0
 26 22  2  0  0  0  0
 27 23  2  0  0  0  0
 27 26  1  0  0  0  0
M  END
>  <MODEL>
9

>  <REMARK>
 VINA RESULT:      -5.4      2.612      6.387
  Name = 
  1 active torsions:
  status: ('A' for Active; 'I' for Inactive)
    1  A    between atoms: C_9  and  C_15
                            x       y       z     vdW  Elec       q    Type
                         _______ _______ _______ _____ _____    ______ ____

>  <TORSDO>
F 1

$$$$
