=
 OpenBabel10262421583D

 30 30  0  0  1  0  0  0  0  0999 V2000
  189.3020  178.1080  148.1950 C   0  0  0  0  0  2  0  0  0  0  0  0
  189.7260  177.0460  147.1930 C   0  0  0  0  0  2  0  0  0  0  0  0
  191.2280  176.8280  147.2580 C   0  0  0  0  0  2  0  0  0  0  0  0
  191.7960  177.0340  145.9990 O   0  0  0  0  0  0  0  0  0  0  0  0
  190.7970  176.6630  145.0940 C   0  0  0  0  0  2  0  0  0  0  0  0
  190.9150  177.4400  143.7790 C   0  0  2  0  0  3  0  0  0  0  0  0
  190.3830  178.8330  143.9080 C   0  0  0  0  0  3  0  0  0  0  0  0
  191.1350  179.7600  144.1610 O   0  0  0  0  0  0  0  0  0  0  0  0
  190.2960  176.7230  142.5730 C   0  0  2  0  0  3  0  0  0  0  0  0
  190.4310  175.3360  142.6840 O   0  0  0  0  0  1  0  0  0  0  0  0
  190.9080  177.2130  141.2650 C   0  0  0  0  0  2  0  0  0  0  0  0
  189.9640  176.9860  140.0870 C   0  0  2  0  0  3  0  0  0  0  0  0
  190.7060  176.6940  138.7830 C   0  0  0  0  0  2  0  0  0  0  0  0
  190.9640  175.3280  138.6470 O   0  0  0  0  0  1  0  0  0  0  0  0
  189.0170  178.1380  139.9340 C   0  0  0  0  0  3  0  0  0  0  0  0
  187.9910  178.0300  139.2810 O   0  0  0  0  0  0  0  0  0  0  0  0
  187.8110  178.0100  148.4650 C   0  0  0  0  0  2  0  0  0  0  0  0
  187.0640  177.5710  147.2190 C   0  0  0  0  0  2  0  0  0  0  0  0
  186.0740  178.6520  146.8280 C   0  0  0  0  0  2  0  0  0  0  0  0
  185.7850  178.6120  145.3330 C   0  0  0  0  0  2  0  0  0  0  0  0
  186.7340  177.6750  144.5870 C   0  0  0  0  0  2  0  0  0  0  0  0
  186.6720  177.8730  143.0770 C   0  0  0  0  0  2  0  0  0  0  0  0
  185.3940  178.5800  142.6680 C   0  0  2  0  0  3  0  0  0  0  0  0
  185.2520  178.5190  141.2000 C   0  0  2  0  0  3  0  0  0  0  0  0
  185.7120  179.6790  141.8480 O   0  0  0  0  0  0  0  0  0  0  0  0
  183.7970  178.7040  140.8150 C   0  0  0  0  0  2  0  0  0  0  0  0
  183.6770  179.5130  139.1920 S   0  0  0  0  0  0  0  0  0  0  0  0
  184.6170  177.4120  137.9170 O   0  0  0  0  0  1  0  0  0  0  0  0
  183.3930  177.9450  138.3180 C   0  0  1  0  0  3  0  0  0  0  0  0
  182.5620  176.7740  139.4280 S   0  0  0  0  0  1  0  0  0  0  0  0
  1 17  1  0  0  0  0
  2  3  1  0  0  0  0
  2  1  1  0  0  0  0
  4  3  1  0  0  0  0
  5  4  1  0  0  0  0
  6  7  1  1  0  0  0
  6  5  1  0  0  0  0
  7  8  2  0  0  0  0
  9 10  1  1  0  0  0
  9  6  1  0  0  0  0
 11  9  1  0  0  0  0
 12 13  1  6  0  0  0
 12 11  1  0  0  0  0
 14 13  1  0  0  0  0
 15 12  1  0  0  0  0
 16 15  2  0  0  0  0
 18 17  1  0  0  0  0
 19 18  1  0  0  0  0
 20 19  1  0  0  0  0
 21 20  1  0  0  0  0
 22 21  1  0  0  0  0
 23 22  1  6  0  0  0
 24 26  1  1  0  0  0
 24 25  1  0  0  0  0
 24 23  1  0  0  0  0
 25 23  1  0  0  0  0
 27 26  1  0  0  0  0
 29 28  1  1  0  0  0
 29 27  1  0  0  0  0
 29 30  1  0  0  0  0
M  END
>  <MODEL>
1

>  <REMARK>
 VINA RESULT:      -6.1      0.000      0.000
  Name = 
  21 active torsions:
  status: ('A' for Active; 'I' for Inactive)
    1  A    between atoms: C_1  and  C_4
    2  A    between atoms: C_1  and  C_8
    3  A    between atoms: C_2  and  C_18
    4  A    between atoms: C_3  and  C_11
    5  A    between atoms: C_3  and  C_19
    6  A    between atoms: C_3  and  C_25
    7  A    between atoms: C_4  and  C_13
    8  A    between atoms: C_5  and  S_9
    9  A    between atoms: C_5  and  C_12
   10  A    between atoms: C_7  and  C_16
   11  A    between atoms: C_7  and  C_26
   12  A    between atoms: S_9  and  C_17
   13  A    between atoms: O_10  and  C_15
   14  A    between atoms: O_10  and  C_25
   15  A    between atoms: C_13  and  C_27
   16  A    between atoms: C_15  and  C_26
   17  A    between atoms: C_16  and  C_30
   18  A    between atoms: C_18  and  C_20
   19  A    between atoms: C_18  and  C_22
   20  A    between atoms: C_19  and  C_20
   21  A    between atoms: C_27  and  C_30
                            x       y       z     vdW  Elec       q    Type
                         _______ _______ _______ _____ _____    ______ ____

>  <TORSDO>
F 21

$$$$
=
 OpenBabel10262421583D

 30 30  0  0  1  0  0  0  0  0999 V2000
  186.8980  178.3340  147.6120 C   0  0  0  0  0  2  0  0  0  0  0  0
  188.0050  178.0650  146.6060 C   0  0  0  0  0  2  0  0  0  0  0  0
  188.8510  176.8870  147.0540 C   0  0  0  0  0  2  0  0  0  0  0  0
  189.9520  176.7380  146.2070 O   0  0  0  0  0  0  0  0  0  0  0  0
  189.7070  177.6190  145.1500 C   0  0  0  0  0  2  0  0  0  0  0  0
  190.6830  177.3880  143.9910 C   0  0  2  0  0  3  0  0  0  0  0  0
  191.4280  178.6370  143.6370 C   0  0  0  0  0  3  0  0  0  0  0  0
  191.1030  179.7090  144.1230 O   0  0  0  0  0  0  0  0  0  0  0  0
  190.0390  176.7600  142.7490 C   0  0  2  0  0  3  0  0  0  0  0  0
  190.4460  175.4340  142.5830 O   0  0  0  0  0  1  0  0  0  0  0  0
  190.3500  177.5710  141.4960 C   0  0  0  0  0  2  0  0  0  0  0  0
  189.6550  176.9910  140.2670 C   0  0  2  0  0  3  0  0  0  0  0  0
  190.6380  176.5680  139.1760 C   0  0  0  0  0  2  0  0  0  0  0  0
  191.9290  177.0200  139.4620 O   0  0  0  0  0  1  0  0  0  0  0  0
  188.6250  177.9430  139.7390 C   0  0  0  0  0  3  0  0  0  0  0  0
  188.9330  178.8550  138.9870 O   0  0  0  0  0  0  0  0  0  0  0  0
  185.6350  178.7810  146.8960 C   0  0  0  0  0  2  0  0  0  0  0  0
  185.6090  178.2620  145.4700 C   0  0  0  0  0  2  0  0  0  0  0  0
  184.3540  178.7650  144.7830 C   0  0  0  0  0  2  0  0  0  0  0  0
  184.3300  178.3510  143.3170 C   0  0  0  0  0  2  0  0  0  0  0  0
  185.7360  178.2040  142.7370 C   0  0  0  0  0  2  0  0  0  0  0  0
  185.9000  178.9570  141.4230 C   0  0  0  0  0  2  0  0  0  0  0  0
  184.5940  179.0100  140.6540 C   0  0  2  0  0  3  0  0  0  0  0  0
  184.8210  178.5380  139.2730 C   0  0  2  0  0  3  0  0  0  0  0  0
  184.7230  179.9080  139.5780 O   0  0  0  0  0  0  0  0  0  0  0  0
  183.5140  178.0650  138.6690 C   0  0  0  0  0  2  0  0  0  0  0  0
  183.7710  176.5140  137.7570 S   0  0  0  0  0  0  0  0  0  0  0  0
  186.3330  176.4300  137.1600 O   0  0  0  0  0  1  0  0  0  0  0  0
  185.1970  177.1710  136.8410 C   0  0  1  0  0  3  0  0  0  0  0  0
  184.8810  177.0480  135.0580 S   0  0  0  0  0  1  0  0  0  0  0  0
  2  3  1  0  0  0  0
  2  1  1  0  0  0  0
  4  3  1  0  0  0  0
  5  4  1  0  0  0  0
  6  7  1  6  0  0  0
  6  5  1  0  0  0  0
  7  8  2  0  0  0  0
  9 10  1  6  0  0  0
  9  6  1  0  0  0  0
 11  9  1  0  0  0  0
 12 13  1  6  0  0  0
 12 11  1  0  0  0  0
 13 14  1  0  0  0  0
 15 12  1  0  0  0  0
 16 15  2  0  0  0  0
 17  1  1  0  0  0  0
 18 17  1  0  0  0  0
 19 18  1  0  0  0  0
 20 19  1  0  0  0  0
 21 20  1  0  0  0  0
 22 21  1  0  0  0  0
 23 22  1  1  0  0  0
 24 26  1  6  0  0  0
 24 25  1  0  0  0  0
 24 23  1  0  0  0  0
 25 23  1  0  0  0  0
 27 26  1  0  0  0  0
 29 30  1  6  0  0  0
 29 28  1  0  0  0  0
 29 27  1  0  0  0  0
M  END
>  <MODEL>
2

>  <REMARK>
 VINA RESULT:      -5.7      1.553      2.103
  Name = 
  21 active torsions:
  status: ('A' for Active; 'I' for Inactive)
    1  A    between atoms: C_1  and  C_4
    2  A    between atoms: C_1  and  C_8
    3  A    between atoms: C_2  and  C_18
    4  A    between atoms: C_3  and  C_11
    5  A    between atoms: C_3  and  C_19
    6  A    between atoms: C_3  and  C_25
    7  A    between atoms: C_4  and  C_13
    8  A    between atoms: C_5  and  S_9
    9  A    between atoms: C_5  and  C_12
   10  A    between atoms: C_7  and  C_16
   11  A    between atoms: C_7  and  C_26
   12  A    between atoms: S_9  and  C_17
   13  A    between atoms: O_10  and  C_15
   14  A    between atoms: O_10  and  C_25
   15  A    between atoms: C_13  and  C_27
   16  A    between atoms: C_15  and  C_26
   17  A    between atoms: C_16  and  C_30
   18  A    between atoms: C_18  and  C_20
   19  A    between atoms: C_18  and  C_22
   20  A    between atoms: C_19  and  C_20
   21  A    between atoms: C_27  and  C_30
                            x       y       z     vdW  Elec       q    Type
                         _______ _______ _______ _____ _____    ______ ____

>  <TORSDO>
F 21

$$$$
=
 OpenBabel10262421583D

 30 30  0  0  1  0  0  0  0  0999 V2000
  185.7960  178.2070  146.0710 C   0  0  0  0  0  2  0  0  0  0  0  0
  186.4220  179.0890  147.1390 C   0  0  0  0  0  2  0  0  0  0  0  0
  187.2930  178.2590  148.0650 C   0  0  0  0  0  2  0  0  0  0  0  0
  187.9250  177.2410  147.3450 O   0  0  0  0  0  0  0  0  0  0  0  0
  189.2800  177.3720  147.6600 C   0  0  0  0  0  2  0  0  0  0  0  0
  190.1720  176.9380  146.4920 C   0  0  2  0  0  3  0  0  0  0  0  0
  191.4790  176.3860  146.9680 C   0  0  0  0  0  3  0  0  0  0  0  0
  192.0390  176.8740  147.9360 O   0  0  0  0  0  0  0  0  0  0  0  0
  190.3850  178.0260  145.4320 C   0  0  2  0  0  3  0  0  0  0  0  0
  189.1830  178.3630  144.8040 O   0  0  0  0  0  1  0  0  0  0  0  0
  191.4210  177.5950  144.4000 C   0  0  0  0  0  2  0  0  0  0  0  0
  190.7790  177.3240  143.0420 C   0  0  2  0  0  3  0  0  0  0  0  0
  190.4590  175.8450  142.8250 C   0  0  0  0  0  2  0  0  0  0  0  0
  189.0970  175.5940  143.0080 O   0  0  0  0  0  1  0  0  0  0  0  0
  191.6260  177.8710  141.9340 C   0  0  0  0  0  3  0  0  0  0  0  0
  192.2120  177.1290  141.1600 O   0  0  0  0  0  0  0  0  0  0  0  0
  184.3760  178.6610  145.7800 C   0  0  0  0  0  2  0  0  0  0  0  0
  184.0820  178.5980  144.2930 C   0  0  0  0  0  2  0  0  0  0  0  0
  185.0030  179.5590  143.5650 C   0  0  0  0  0  2  0  0  0  0  0  0
  185.4030  179.0060  142.2040 C   0  0  0  0  0  2  0  0  0  0  0  0
  186.6180  178.0820  142.2920 C   0  0  0  0  0  2  0  0  0  0  0  0
  187.8040  178.6090  141.4960 C   0  0  0  0  0  2  0  0  0  0  0  0
  187.6820  178.2520  140.0260 C   0  0  2  0  0  3  0  0  0  0  0  0
  188.9430  177.6370  139.5670 C   0  0  2  0  0  3  0  0  0  0  0  0
  188.6340  178.9800  139.2890 O   0  0  0  0  0  0  0  0  0  0  0  0
  188.6870  176.7970  138.3320 C   0  0  0  0  0  2  0  0  0  0  0  0
  189.3780  177.6160  136.8630 S   0  0  0  0  0  0  0  0  0  0  0  0
  191.6720  176.3270  136.8560 O   0  0  0  0  0  1  0  0  0  0  0  0
  190.3670  176.1650  136.3950 C   0  0  1  0  0  3  0  0  0  0  0  0
  189.6470  174.6750  137.1390 S   0  0  0  0  0  1  0  0  0  0  0  0
  1  2  1  0  0  0  0
  2  3  1  0  0  0  0
  4  5  1  0  0  0  0
  4  3  1  0  0  0  0
  6  7  1  1  0  0  0
  6  5  1  0  0  0  0
  7  8  2  0  0  0  0
  9 10  1  6  0  0  0
  9  6  1  0  0  0  0
 11  9  1  0  0  0  0
 12 15  1  6  0  0  0
 12 11  1  0  0  0  0
 13 14  1  0  0  0  0
 13 12  1  0  0  0  0
 16 15  2  0  0  0  0
 17  1  1  0  0  0  0
 18 17  1  0  0  0  0
 19 18  1  0  0  0  0
 20 21  1  0  0  0  0
 20 19  1  0  0  0  0
 22 21  1  0  0  0  0
 23 22  1  1  0  0  0
 24 26  1  6  0  0  0
 24 23  1  0  0  0  0
 25 24  1  0  0  0  0
 25 23  1  0  0  0  0
 27 26  1  0  0  0  0
 29 28  1  1  0  0  0
 29 27  1  0  0  0  0
 29 30  1  0  0  0  0
M  END
>  <MODEL>
3

>  <REMARK>
 VINA RESULT:      -5.6      2.571      4.472
  Name = 
  21 active torsions:
  status: ('A' for Active; 'I' for Inactive)
    1  A    between atoms: C_1  and  C_4
    2  A    between atoms: C_1  and  C_8
    3  A    between atoms: C_2  and  C_18
    4  A    between atoms: C_3  and  C_11
    5  A    between atoms: C_3  and  C_19
    6  A    between atoms: C_3  and  C_25
    7  A    between atoms: C_4  and  C_13
    8  A    between atoms: C_5  and  S_9
    9  A    between atoms: C_5  and  C_12
   10  A    between atoms: C_7  and  C_16
   11  A    between atoms: C_7  and  C_26
   12  A    between atoms: S_9  and  C_17
   13  A    between atoms: O_10  and  C_15
   14  A    between atoms: O_10  and  C_25
   15  A    between atoms: C_13  and  C_27
   16  A    between atoms: C_15  and  C_26
   17  A    between atoms: C_16  and  C_30
   18  A    between atoms: C_18  and  C_20
   19  A    between atoms: C_18  and  C_22
   20  A    between atoms: C_19  and  C_20
   21  A    between atoms: C_27  and  C_30
                            x       y       z     vdW  Elec       q    Type
                         _______ _______ _______ _____ _____    ______ ____

>  <TORSDO>
F 21

$$$$
=
 OpenBabel10262421583D

 30 30  0  0  1  0  0  0  0  0999 V2000
  185.8320  178.4640  146.2420 C   0  0  0  0  0  2  0  0  0  0  0  0
  185.0700  178.4910  144.9270 C   0  0  0  0  0  2  0  0  0  0  0  0
  183.6210  178.8790  145.1650 C   0  0  0  0  0  2  0  0  0  0  0  0
  183.1450  179.6340  144.0900 O   0  0  0  0  0  0  0  0  0  0  0  0
  182.1880  178.8180  143.4800 C   0  0  0  0  0  2  0  0  0  0  0  0
  181.7250  179.4030  142.1410 C   0  0  2  0  0  3  0  0  0  0  0  0
  180.2720  179.7610  142.1650 C   0  0  0  0  0  3  0  0  0  0  0  0
  179.9030  180.8070  142.6750 O   0  0  0  0  0  0  0  0  0  0  0  0
  182.0550  178.5220  140.9290 C   0  0  2  0  0  3  0  0  0  0  0  0
  181.0890  177.5290  140.7470 O   0  0  0  0  0  1  0  0  0  0  0  0
  183.4400  177.8990  141.0610 C   0  0  0  0  0  2  0  0  0  0  0  0
  184.3870  178.4070  139.9770 C   0  0  2  0  0  3  0  0  0  0  0  0
  185.7130  178.9150  140.5420 C   0  0  0  0  0  2  0  0  0  0  0  0
  185.5180  179.5900  141.7490 O   0  0  0  0  0  1  0  0  0  0  0  0
  183.7180  179.4460  139.1290 C   0  0  0  0  0  3  0  0  0  0  0  0
  184.2360  180.5350  138.9370 O   0  0  0  0  0  0  0  0  0  0  0  0
  187.0300  177.5370  146.1350 C   0  0  0  0  0  2  0  0  0  0  0  0
  188.2430  178.1390  146.8200 C   0  0  0  0  0  2  0  0  0  0  0  0
  188.8790  177.0910  147.7130 C   0  0  0  0  0  2  0  0  0  0  0  0
  190.0940  176.4640  147.0400 C   0  0  0  0  0  2  0  0  0  0  0  0
  190.6990  177.3790  145.9750 C   0  0  0  0  0  2  0  0  0  0  0  0
  190.8400  176.6830  144.6280 C   0  0  0  0  0  2  0  0  0  0  0  0
  190.1500  177.4690  143.5290 C   0  0  2  0  0  3  0  0  0  0  0  0
  190.5660  176.9390  142.2150 C   0  0  2  0  0  3  0  0  0  0  0  0
  191.1180  178.1200  142.7420 O   0  0  0  0  0  0  0  0  0  0  0  0
  189.5330  177.2940  141.1650 C   0  0  0  0  0  2  0  0  0  0  0  0
  190.2750  177.2270  139.5070 S   0  0  0  0  0  0  0  0  0  0  0  0
  188.9870  179.2320  138.3910 O   0  0  0  0  0  1  0  0  0  0  0  0
  188.7860  177.8880  138.7030 C   0  0  1  0  0  3  0  0  0  0  0  0
  188.4570  176.9610  137.1780 S   0  0  0  0  0  1  0  0  0  0  0  0
  2  3  1  0  0  0  0
  2  1  1  0  0  0  0
  4  3  1  0  0  0  0
  5  4  1  0  0  0  0
  6  7  1  1  0  0  0
  6  5  1  0  0  0  0
  7  8  2  0  0  0  0
  9 10  1  1  0  0  0
  9 11  1  0  0  0  0
  9  6  1  0  0  0  0
 12 15  1  1  0  0  0
 12 13  1  0  0  0  0
 12 11  1  0  0  0  0
 13 14  1  0  0  0  0
 16 15  2  0  0  0  0
 17  1  1  0  0  0  0
 17 18  1  0  0  0  0
 18 19  1  0  0  0  0
 20 19  1  0  0  0  0
 21 20  1  0  0  0  0
 22 21  1  0  0  0  0
 23 22  1  1  0  0  0
 24 26  1  6  0  0  0
 24 25  1  0  0  0  0
 24 23  1  0  0  0  0
 25 23  1  0  0  0  0
 27 26  1  0  0  0  0
 28 29  1  0  0  0  0
 29 30  1  6  0  0  0
 29 27  1  0  0  0  0
M  END
>  <MODEL>
4

>  <REMARK>
 VINA RESULT:      -5.5      2.741      6.717
  Name = 
  21 active torsions:
  status: ('A' for Active; 'I' for Inactive)
    1  A    between atoms: C_1  and  C_4
    2  A    between atoms: C_1  and  C_8
    3  A    between atoms: C_2  and  C_18
    4  A    between atoms: C_3  and  C_11
    5  A    between atoms: C_3  and  C_19
    6  A    between atoms: C_3  and  C_25
    7  A    between atoms: C_4  and  C_13
    8  A    between atoms: C_5  and  S_9
    9  A    between atoms: C_5  and  C_12
   10  A    between atoms: C_7  and  C_16
   11  A    between atoms: C_7  and  C_26
   12  A    between atoms: S_9  and  C_17
   13  A    between atoms: O_10  and  C_15
   14  A    between atoms: O_10  and  C_25
   15  A    between atoms: C_13  and  C_27
   16  A    between atoms: C_15  and  C_26
   17  A    between atoms: C_16  and  C_30
   18  A    between atoms: C_18  and  C_20
   19  A    between atoms: C_18  and  C_22
   20  A    between atoms: C_19  and  C_20
   21  A    between atoms: C_27  and  C_30
                            x       y       z     vdW  Elec       q    Type
                         _______ _______ _______ _____ _____    ______ ____

>  <TORSDO>
F 21

$$$$
=
 OpenBabel10262421583D

 30 30  0  0  1  0  0  0  0  0999 V2000
  186.0980  177.4980  145.2910 C   0  0  0  0  0  2  0  0  0  0  0  0
  187.4520  177.7970  144.6690 C   0  0  0  0  0  2  0  0  0  0  0  0
  187.4520  177.4190  143.1980 C   0  0  0  0  0  2  0  0  0  0  0  0
  188.6030  177.9120  142.5770 O   0  0  0  0  0  0  0  0  0  0  0  0
  189.4990  178.1420  143.6250 C   0  0  0  0  0  2  0  0  0  0  0  0
  190.9440  177.8600  143.1980 C   0  0  2  0  0  3  0  0  0  0  0  0
  191.0110  177.2730  141.8230 C   0  0  0  0  0  3  0  0  0  0  0  0
  192.0090  177.4210  141.1360 O   0  0  0  0  0  0  0  0  0  0  0  0
  191.7350  177.0100  144.2000 C   0  0  2  0  0  3  0  0  0  0  0  0
  191.4630  175.6490  144.0360 O   0  0  0  0  0  1  0  0  0  0  0  0
  191.4500  177.4400  145.6340 C   0  0  0  0  0  2  0  0  0  0  0  0
  190.9130  176.2790  146.4690 C   0  0  2  0  0  3  0  0  0  0  0  0
  189.5640  176.5910  147.1150 C   0  0  0  0  0  2  0  0  0  0  0  0
  189.6220  177.7760  147.8520 O   0  0  0  0  0  1  0  0  0  0  0  0
  191.9230  175.8450  147.4880 C   0  0  0  0  0  3  0  0  0  0  0  0
  192.6920  176.6450  147.9980 O   0  0  0  0  0  0  0  0  0  0  0  0
  185.5890  178.7100  146.0510 C   0  0  0  0  0  2  0  0  0  0  0  0
  184.4110  179.3430  145.3350 C   0  0  0  0  0  2  0  0  0  0  0  0
  183.9790  178.4370  144.1970 C   0  0  0  0  0  2  0  0  0  0  0  0
  182.6290  178.8680  143.6380 C   0  0  0  0  0  2  0  0  0  0  0  0
  182.5630  178.7260  142.1180 C   0  0  0  0  0  2  0  0  0  0  0  0
  183.9130  178.3610  141.5130 C   0  0  0  0  0  2  0  0  0  0  0  0
  183.9830  178.7540  140.0490 C   0  0  2  0  0  3  0  0  0  0  0  0
  185.3330  178.4610  139.5290 C   0  0  2  0  0  3  0  0  0  0  0  0
  184.9460  179.7650  139.8830 O   0  0  0  0  0  0  0  0  0  0  0  0
  185.2850  178.3150  138.0210 C   0  0  0  0  0  2  0  0  0  0  0  0
  186.5860  177.1780  137.4590 S   0  0  0  0  0  0  0  0  0  0  0  0
  188.1930  179.2520  137.2530 O   0  0  0  0  0  1  0  0  0  0  0  0
  187.3960  178.4460  136.4410 C   0  0  1  0  0  3  0  0  0  0  0  0
  188.4340  177.6460  135.1860 S   0  0  0  0  0  1  0  0  0  0  0  0
  1 17  1  0  0  0  0
  2  1  1  0  0  0  0
  3  2  1  0  0  0  0
  4  3  1  0  0  0  0
  4  5  1  0  0  0  0
  6  7  1  6  0  0  0
  6  5  1  0  0  0  0
  6  9  1  0  0  0  0
  8  7  2  0  0  0  0
  9 10  1  1  0  0  0
  9 11  1  0  0  0  0
 12 11  1  1  0  0  0
 12 13  1  0  0  0  0
 12 15  1  0  0  0  0
 13 14  1  0  0  0  0
 15 16  2  0  0  0  0
 18 17  1  0  0  0  0
 19 18  1  0  0  0  0
 20 19  1  0  0  0  0
 21 20  1  0  0  0  0
 22 21  1  0  0  0  0
 23 22  1  1  0  0  0
 24 26  1  6  0  0  0
 24 25  1  0  0  0  0
 24 23  1  0  0  0  0
 25 23  1  0  0  0  0
 27 26  1  0  0  0  0
 29 30  1  6  0  0  0
 29 28  1  0  0  0  0
 29 27  1  0  0  0  0
M  END
>  <MODEL>
5

>  <REMARK>
 VINA RESULT:      -5.5      2.285      4.948
  Name = 
  21 active torsions:
  status: ('A' for Active; 'I' for Inactive)
    1  A    between atoms: C_1  and  C_4
    2  A    between atoms: C_1  and  C_8
    3  A    between atoms: C_2  and  C_18
    4  A    between atoms: C_3  and  C_11
    5  A    between atoms: C_3  and  C_19
    6  A    between atoms: C_3  and  C_25
    7  A    between atoms: C_4  and  C_13
    8  A    between atoms: C_5  and  S_9
    9  A    between atoms: C_5  and  C_12
   10  A    between atoms: C_7  and  C_16
   11  A    between atoms: C_7  and  C_26
   12  A    between atoms: S_9  and  C_17
   13  A    between atoms: O_10  and  C_15
   14  A    between atoms: O_10  and  C_25
   15  A    between atoms: C_13  and  C_27
   16  A    between atoms: C_15  and  C_26
   17  A    between atoms: C_16  and  C_30
   18  A    between atoms: C_18  and  C_20
   19  A    between atoms: C_18  and  C_22
   20  A    between atoms: C_19  and  C_20
   21  A    between atoms: C_27  and  C_30
                            x       y       z     vdW  Elec       q    Type
                         _______ _______ _______ _____ _____    ______ ____

>  <TORSDO>
F 21

$$$$
=
 OpenBabel10262421583D

 30 30  0  0  1  0  0  0  0  0999 V2000
  185.8930  178.6220  147.1140 C   0  0  0  0  0  2  0  0  0  0  0  0
  187.1170  177.9050  146.5670 C   0  0  0  0  0  2  0  0  0  0  0  0
  187.9420  177.3280  147.7030 C   0  0  0  0  0  2  0  0  0  0  0  0
  189.1420  176.8110  147.2080 O   0  0  0  0  0  0  0  0  0  0  0  0
  189.5230  177.7010  146.2000 C   0  0  0  0  0  2  0  0  0  0  0  0
  190.3100  176.9910  145.0930 C   0  0  2  0  0  3  0  0  0  0  0  0
  191.7450  176.7950  145.4720 C   0  0  0  0  0  3  0  0  0  0  0  0
  192.0740  175.8600  146.1840 O   0  0  0  0  0  0  0  0  0  0  0  0
  190.1890  177.6550  143.7170 C   0  0  2  0  0  3  0  0  0  0  0  0
  190.7360  178.9410  143.7260 O   0  0  0  0  0  1  0  0  0  0  0  0
  188.7380  177.6980  143.2500 C   0  0  0  0  0  2  0  0  0  0  0  0
  188.6200  177.3870  141.7600 C   0  0  2  0  0  3  0  0  0  0  0  0
  189.9020  176.7930  141.1780 C   0  0  0  0  0  2  0  0  0  0  0  0
  190.4480  177.6340  140.2040 O   0  0  0  0  0  1  0  0  0  0  0  0
  188.1810  178.6000  140.9960 C   0  0  0  0  0  3  0  0  0  0  0  0
  187.3910  178.5110  140.0690 O   0  0  0  0  0  0  0  0  0  0  0  0
  184.7800  178.6250  146.0800 C   0  0  0  0  0  2  0  0  0  0  0  0
  185.3340  178.3730  144.6900 C   0  0  0  0  0  2  0  0  0  0  0  0
  184.2840  178.7530  143.6630 C   0  0  0  0  0  2  0  0  0  0  0  0
  182.9220  178.9420  144.3180 C   0  0  0  0  0  2  0  0  0  0  0  0
  181.7840  178.9190  143.2970 C   0  0  0  0  0  2  0  0  0  0  0  0
  182.2910  178.7610  141.8700 C   0  0  0  0  0  2  0  0  0  0  0  0
  181.2400  178.1220  140.9810 C   0  0  2  0  0  3  0  0  0  0  0  0
  181.7810  177.9730  139.6160 C   0  0  2  0  0  3  0  0  0  0  0  0
  180.8970  179.0150  139.9490 O   0  0  0  0  0  0  0  0  0  0  0  0
  181.0220  176.8890  138.8760 C   0  0  0  0  0  2  0  0  0  0  0  0
  181.8620  176.4920  137.3140 S   0  0  0  0  0  0  0  0  0  0  0  0
  183.7020  174.7550  138.0390 O   0  0  0  0  0  1  0  0  0  0  0  0
  183.4380  176.1200  138.1390 C   0  0  1  0  0  3  0  0  0  0  0  0
  184.7760  177.0500  137.3380 S   0  0  0  0  0  1  0  0  0  0  0  0
  2  1  1  0  0  0  0
  2  3  1  0  0  0  0
  4  3  1  0  0  0  0
  5  4  1  0  0  0  0
  6  7  1  1  0  0  0
  6  5  1  0  0  0  0
  7  8  2  0  0  0  0
  9 10  1  1  0  0  0
  9  6  1  0  0  0  0
 11  9  1  0  0  0  0
 12 15  1  6  0  0  0
 12 11  1  0  0  0  0
 13 12  1  0  0  0  0
 14 13  1  0  0  0  0
 16 15  2  0  0  0  0
 17  1  1  0  0  0  0
 18 17  1  0  0  0  0
 19 20  1  0  0  0  0
 19 18  1  0  0  0  0
 21 20  1  0  0  0  0
 22 21  1  0  0  0  0
 23 22  1  1  0  0  0
 24 26  1  6  0  0  0
 24 25  1  0  0  0  0
 24 23  1  0  0  0  0
 25 23  1  0  0  0  0
 27 29  1  0  0  0  0
 27 26  1  0  0  0  0
 28 29  1  0  0  0  0
 29 30  1  6  0  0  0
M  END
>  <MODEL>
6

>  <REMARK>
 VINA RESULT:      -5.4      2.058      3.337
  Name = 
  21 active torsions:
  status: ('A' for Active; 'I' for Inactive)
    1  A    between atoms: C_1  and  C_4
    2  A    between atoms: C_1  and  C_8
    3  A    between atoms: C_2  and  C_18
    4  A    between atoms: C_3  and  C_11
    5  A    between atoms: C_3  and  C_19
    6  A    between atoms: C_3  and  C_25
    7  A    between atoms: C_4  and  C_13
    8  A    between atoms: C_5  and  S_9
    9  A    between atoms: C_5  and  C_12
   10  A    between atoms: C_7  and  C_16
   11  A    between atoms: C_7  and  C_26
   12  A    between atoms: S_9  and  C_17
   13  A    between atoms: O_10  and  C_15
   14  A    between atoms: O_10  and  C_25
   15  A    between atoms: C_13  and  C_27
   16  A    between atoms: C_15  and  C_26
   17  A    between atoms: C_16  and  C_30
   18  A    between atoms: C_18  and  C_20
   19  A    between atoms: C_18  and  C_22
   20  A    between atoms: C_19  and  C_20
   21  A    between atoms: C_27  and  C_30
                            x       y       z     vdW  Elec       q    Type
                         _______ _______ _______ _____ _____    ______ ____

>  <TORSDO>
F 21

$$$$
=
 OpenBabel10262421583D

 30 30  0  0  1  0  0  0  0  0999 V2000
  184.8340  178.4070  143.7420 C   0  0  0  0  0  2  0  0  0  0  0  0
  183.7770  179.3840  144.2300 C   0  0  0  0  0  2  0  0  0  0  0  0
  182.3910  178.9000  143.8410 C   0  0  0  0  0  2  0  0  0  0  0  0
  182.2330  178.9630  142.4540 O   0  0  0  0  0  0  0  0  0  0  0  0
  180.9190  179.4000  142.2670 C   0  0  0  0  0  2  0  0  0  0  0  0
  180.3470  178.9010  140.9350 C   0  0  2  0  0  3  0  0  0  0  0  0
  179.8500  177.4930  141.0390 C   0  0  0  0  0  3  0  0  0  0  0  0
  179.5900  177.0080  142.1290 O   0  0  0  0  0  0  0  0  0  0  0  0
  181.3030  179.0620  139.7470 C   0  0  2  0  0  3  0  0  0  0  0  0
  180.6250  179.5080  138.6090 O   0  0  0  0  0  1  0  0  0  0  0  0
  182.0390  177.7610  139.4500 C   0  0  0  0  0  2  0  0  0  0  0  0
  183.5430  177.9870  139.3140 C   0  0  2  0  0  3  0  0  0  0  0  0
  183.9170  179.4690  139.2930 C   0  0  0  0  0  2  0  0  0  0  0  0
  184.9340  179.7420  140.2110 O   0  0  0  0  0  1  0  0  0  0  0  0
  184.0830  177.2680  138.1150 C   0  0  0  0  0  3  0  0  0  0  0  0
  183.7000  176.1440  137.8260 O   0  0  0  0  0  0  0  0  0  0  0  0
  185.8330  178.1180  144.8490 C   0  0  0  0  0  2  0  0  0  0  0  0
  185.3060  178.5930  146.1900 C   0  0  0  0  0  2  0  0  0  0  0  0
  186.4420  178.5940  147.1960 C   0  0  0  0  0  2  0  0  0  0  0  0
  187.6630  177.8710  146.6430 C   0  0  0  0  0  2  0  0  0  0  0  0
  188.4490  177.1490  147.7370 C   0  0  0  0  0  2  0  0  0  0  0  0
  189.8700  176.8140  147.3010 C   0  0  0  0  0  2  0  0  0  0  0  0
  190.2560  177.5800  146.0500 C   0  0  2  0  0  3  0  0  0  0  0  0
  190.8710  176.6530  145.0800 C   0  0  2  0  0  3  0  0  0  0  0  0
  191.6500  177.5130  145.8740 O   0  0  0  0  0  0  0  0  0  0  0  0
  190.7630  177.2240  143.6800 C   0  0  0  0  0  2  0  0  0  0  0  0
  189.9870  176.0130  142.5680 S   0  0  0  0  0  0  0  0  0  0  0  0
  190.5910  176.2620  140.0190 O   0  0  0  0  0  1  0  0  0  0  0  0
  190.2220  177.0600  141.1010 C   0  0  1  0  0  3  0  0  0  0  0  0
  188.6700  177.9170  140.7120 S   0  0  0  0  0  1  0  0  0  0  0  0
  1  2  1  0  0  0  0
  1 17  1  0  0  0  0
  3  2  1  0  0  0  0
  4  3  1  0  0  0  0
  5  4  1  0  0  0  0
  6  7  1  1  0  0  0
  6  5  1  0  0  0  0
  7  8  2  0  0  0  0
  9 10  1  6  0  0  0
  9  6  1  0  0  0  0
 11  9  1  0  0  0  0
 12 15  1  6  0  0  0
 12 11  1  0  0  0  0
 13 12  1  0  0  0  0
 13 14  1  0  0  0  0
 16 15  2  0  0  0  0
 17 18  1  0  0  0  0
 18 19  1  0  0  0  0
 20 19  1  0  0  0  0
 20 21  1  0  0  0  0
 22 21  1  0  0  0  0
 23 22  1  1  0  0  0
 24 26  1  6  0  0  0
 24 25  1  0  0  0  0
 24 23  1  0  0  0  0
 25 23  1  0  0  0  0
 27 26  1  0  0  0  0
 29 28  1  6  0  0  0
 29 27  1  0  0  0  0
 30 29  1  0  0  0  0
M  END
>  <MODEL>
7

>  <REMARK>
 VINA RESULT:      -5.3      2.939      7.700
  Name = 
  21 active torsions:
  status: ('A' for Active; 'I' for Inactive)
    1  A    between atoms: C_1  and  C_4
    2  A    between atoms: C_1  and  C_8
    3  A    between atoms: C_2  and  C_18
    4  A    between atoms: C_3  and  C_11
    5  A    between atoms: C_3  and  C_19
    6  A    between atoms: C_3  and  C_25
    7  A    between atoms: C_4  and  C_13
    8  A    between atoms: C_5  and  S_9
    9  A    between atoms: C_5  and  C_12
   10  A    between atoms: C_7  and  C_16
   11  A    between atoms: C_7  and  C_26
   12  A    between atoms: S_9  and  C_17
   13  A    between atoms: O_10  and  C_15
   14  A    between atoms: O_10  and  C_25
   15  A    between atoms: C_13  and  C_27
   16  A    between atoms: C_15  and  C_26
   17  A    between atoms: C_16  and  C_30
   18  A    between atoms: C_18  and  C_20
   19  A    between atoms: C_18  and  C_22
   20  A    between atoms: C_19  and  C_20
   21  A    between atoms: C_27  and  C_30
                            x       y       z     vdW  Elec       q    Type
                         _______ _______ _______ _____ _____    ______ ____

>  <TORSDO>
F 21

$$$$
=
 OpenBabel10262421583D

 30 30  0  0  1  0  0  0  0  0999 V2000
  191.5260  176.4060  144.6950 C   0  0  0  0  0  2  0  0  0  0  0  0
  190.4990  177.0290  143.7630 C   0  0  0  0  0  2  0  0  0  0  0  0
  189.9900  175.9970  142.7720 C   0  0  0  0  0  2  0  0  0  0  0  0
  189.0190  176.5670  141.9440 O   0  0  0  0  0  0  0  0  0  0  0  0
  189.7150  177.5060  141.1770 C   0  0  0  0  0  2  0  0  0  0  0  0
  190.0110  176.9730  139.7710 C   0  0  2  0  0  3  0  0  0  0  0  0
  191.4820  176.8970  139.5060 C   0  0  0  0  0  3  0  0  0  0  0  0
  192.2660  177.5400  140.1850 O   0  0  0  0  0  0  0  0  0  0  0  0
  189.2870  177.7310  138.6520 C   0  0  2  0  0  3  0  0  0  0  0  0
  189.0630  179.0640  139.0060 O   0  0  0  0  0  1  0  0  0  0  0  0
  187.9730  177.0510  138.2850 C   0  0  0  0  0  2  0  0  0  0  0  0
  187.7840  176.9780  136.7720 C   0  0  2  0  0  3  0  0  0  0  0  0
  186.8690  175.8300  136.3460 C   0  0  0  0  0  2  0  0  0  0  0  0
  187.0100  174.7330  137.1990 O   0  0  0  0  0  1  0  0  0  0  0  0
  189.1080  176.9140  136.0730 C   0  0  0  0  0  3  0  0  0  0  0  0
  189.3470  177.6210  135.1060 O   0  0  0  0  0  0  0  0  0  0  0  0
  191.2210  176.7770  146.1350 C   0  0  0  0  0  2  0  0  0  0  0  0
  189.9090  177.5320  146.2340 C   0  0  0  0  0  2  0  0  0  0  0  0
  189.3660  177.4010  147.6440 C   0  0  0  0  0  2  0  0  0  0  0  0
  187.8530  177.2340  147.6340 C   0  0  0  0  0  2  0  0  0  0  0  0
  187.1240  178.5750  147.7330 C   0  0  0  0  0  2  0  0  0  0  0  0
  185.8010  178.5700  146.9800 C   0  0  0  0  0  2  0  0  0  0  0  0
  186.0090  178.8450  145.5020 C   0  0  2  0  0  3  0  0  0  0  0  0
  184.7390  178.6260  144.7820 C   0  0  2  0  0  3  0  0  0  0  0  0
  185.7680  177.6680  144.7710 O   0  0  0  0  0  0  0  0  0  0  0  0
  184.7510  179.3900  143.4730 C   0  0  0  0  0  2  0  0  0  0  0  0
  184.1280  178.3370  142.1280 S   0  0  0  0  0  0  0  0  0  0  0  0
  186.4830  178.7520  141.0300 O   0  0  0  0  0  1  0  0  0  0  0  0
  185.1580  179.1550  140.8740 C   0  0  1  0  0  3  0  0  0  0  0  0
  184.5800  178.6920  139.2180 S   0  0  0  0  0  1  0  0  0  0  0  0
  1 17  1  0  0  0  0
  2  1  1  0  0  0  0
  3  2  1  0  0  0  0
  4  3  1  0  0  0  0
  5  4  1  0  0  0  0
  6  7  1  6  0  0  0
  6  5  1  0  0  0  0
  7  8  2  0  0  0  0
  9 10  1  1  0  0  0
  9  6  1  0  0  0  0
 11  9  1  0  0  0  0
 12 15  1  6  0  0  0
 12 11  1  0  0  0  0
 13 12  1  0  0  0  0
 13 14  1  0  0  0  0
 16 15  2  0  0  0  0
 17 18  1  0  0  0  0
 18 19  1  0  0  0  0
 20 19  1  0  0  0  0
 20 21  1  0  0  0  0
 22 21  1  0  0  0  0
 23 22  1  1  0  0  0
 24 26  1  6  0  0  0
 24 23  1  0  0  0  0
 25 24  1  0  0  0  0
 25 23  1  0  0  0  0
 27 26  1  0  0  0  0
 29 30  1  6  0  0  0
 29 28  1  0  0  0  0
 29 27  1  0  0  0  0
M  END
>  <MODEL>
8

>  <REMARK>
 VINA RESULT:      -5.3      2.145      4.006
  Name = 
  21 active torsions:
  status: ('A' for Active; 'I' for Inactive)
    1  A    between atoms: C_1  and  C_4
    2  A    between atoms: C_1  and  C_8
    3  A    between atoms: C_2  and  C_18
    4  A    between atoms: C_3  and  C_11
    5  A    between atoms: C_3  and  C_19
    6  A    between atoms: C_3  and  C_25
    7  A    between atoms: C_4  and  C_13
    8  A    between atoms: C_5  and  S_9
    9  A    between atoms: C_5  and  C_12
   10  A    between atoms: C_7  and  C_16
   11  A    between atoms: C_7  and  C_26
   12  A    between atoms: S_9  and  C_17
   13  A    between atoms: O_10  and  C_15
   14  A    between atoms: O_10  and  C_25
   15  A    between atoms: C_13  and  C_27
   16  A    between atoms: C_15  and  C_26
   17  A    between atoms: C_16  and  C_30
   18  A    between atoms: C_18  and  C_20
   19  A    between atoms: C_18  and  C_22
   20  A    between atoms: C_19  and  C_20
   21  A    between atoms: C_27  and  C_30
                            x       y       z     vdW  Elec       q    Type
                         _______ _______ _______ _____ _____    ______ ____

>  <TORSDO>
F 21

$$$$
=
 OpenBabel10262421583D

 30 30  0  0  1  0  0  0  0  0999 V2000
  185.4160  178.0830  142.9460 C   0  0  0  0  0  2  0  0  0  0  0  0
  185.4990  179.1840  141.9010 C   0  0  0  0  0  2  0  0  0  0  0  0
  184.3500  179.0630  140.9140 C   0  0  0  0  0  2  0  0  0  0  0  0
  184.7260  179.5900  139.6760 O   0  0  0  0  0  0  0  0  0  0  0  0
  185.6090  178.6470  139.1430 C   0  0  0  0  0  2  0  0  0  0  0  0
  185.1710  178.1980  137.7440 C   0  0  2  0  0  3  0  0  0  0  0  0
  184.1620  177.0950  137.8070 C   0  0  0  0  0  3  0  0  0  0  0  0
  182.9700  177.3410  137.7040 O   0  0  0  0  0  0  0  0  0  0  0  0
  186.3340  177.8280  136.8160 C   0  0  2  0  0  3  0  0  0  0  0  0
  185.8910  177.0770  135.7230 O   0  0  0  0  0  1  0  0  0  0  0  0
  187.4250  177.0770  137.5690 C   0  0  0  0  0  2  0  0  0  0  0  0
  188.8150  177.4380  137.0500 C   0  0  2  0  0  3  0  0  0  0  0  0
  189.1280  178.9280  137.1890 C   0  0  0  0  0  2  0  0  0  0  0  0
  188.9190  179.3640  138.5000 O   0  0  0  0  0  1  0  0  0  0  0  0
  188.9940  176.9690  135.6380 C   0  0  0  0  0  3  0  0  0  0  0  0
  189.2730  175.8070  135.3880 O   0  0  0  0  0  0  0  0  0  0  0  0
  185.8390  178.6150  144.3040 C   0  0  0  0  0  2  0  0  0  0  0  0
  184.6440  178.7440  145.2300 C   0  0  0  0  0  2  0  0  0  0  0  0
  185.0290  178.2420  146.6090 C   0  0  0  0  0  2  0  0  0  0  0  0
  186.3350  178.8720  147.0750 C   0  0  0  0  0  2  0  0  0  0  0  0
  187.2640  177.8540  147.7350 C   0  0  0  0  0  2  0  0  0  0  0  0
  188.7340  178.1880  147.5180 C   0  0  0  0  0  2  0  0  0  0  0  0
  189.4120  177.1450  146.6490 C   0  0  2  0  0  3  0  0  0  0  0  0
  189.7300  177.7370  145.3350 C   0  0  2  0  0  3  0  0  0  0  0  0
  188.6180  176.8950  145.5150 O   0  0  0  0  0  0  0  0  0  0  0  0
  190.8480  176.9570  144.6740 C   0  0  0  0  0  2  0  0  0  0  0  0
  191.4370  177.8350  143.1960 S   0  0  0  0  0  0  0  0  0  0  0  0
  190.2750  175.5260  142.7040 O   0  0  0  0  0  1  0  0  0  0  0  0
  190.5440  176.7330  142.0610 C   0  0  1  0  0  3  0  0  0  0  0  0
  188.9800  177.5100  141.5650 S   0  0  0  0  0  1  0  0  0  0  0  0
  1 17  1  0  0  0  0
  2  1  1  0  0  0  0
  3  2  1  0  0  0  0
  4  3  1  0  0  0  0
  5  4  1  0  0  0  0
  6  7  1  1  0  0  0
  6  5  1  0  0  0  0
  8  7  2  0  0  0  0
  9 10  1  6  0  0  0
  9 11  1  0  0  0  0
  9  6  1  0  0  0  0
 12 15  1  6  0  0  0
 12 13  1  0  0  0  0
 12 11  1  0  0  0  0
 13 14  1  0  0  0  0
 16 15  2  0  0  0  0
 17 18  1  0  0  0  0
 18 19  1  0  0  0  0
 19 20  1  0  0  0  0
 20 21  1  0  0  0  0
 22 21  1  0  0  0  0
 23 22  1  1  0  0  0
 24 26  1  6  0  0  0
 24 25  1  0  0  0  0
 24 23  1  0  0  0  0
 25 23  1  0  0  0  0
 27 26  1  0  0  0  0
 29 30  1  1  0  0  0
 29 28  1  0  0  0  0
 29 27  1  0  0  0  0
M  END
>  <MODEL>
9

>  <REMARK>
 VINA RESULT:      -5.3      2.752      6.668
  Name = 
  21 active torsions:
  status: ('A' for Active; 'I' for Inactive)
    1  A    between atoms: C_1  and  C_4
    2  A    between atoms: C_1  and  C_8
    3  A    between atoms: C_2  and  C_18
    4  A    between atoms: C_3  and  C_11
    5  A    between atoms: C_3  and  C_19
    6  A    between atoms: C_3  and  C_25
    7  A    between atoms: C_4  and  C_13
    8  A    between atoms: C_5  and  S_9
    9  A    between atoms: C_5  and  C_12
   10  A    between atoms: C_7  and  C_16
   11  A    between atoms: C_7  and  C_26
   12  A    between atoms: S_9  and  C_17
   13  A    between atoms: O_10  and  C_15
   14  A    between atoms: O_10  and  C_25
   15  A    between atoms: C_13  and  C_27
   16  A    between atoms: C_15  and  C_26
   17  A    between atoms: C_16  and  C_30
   18  A    between atoms: C_18  and  C_20
   19  A    between atoms: C_18  and  C_22
   20  A    between atoms: C_19  and  C_20
   21  A    between atoms: C_27  and  C_30
                            x       y       z     vdW  Elec       q    Type
                         _______ _______ _______ _____ _____    ______ ____

>  <TORSDO>
F 21

$$$$
