=
 OpenBabel10262421453D

 30 32  0  0  1  0  0  0  0  0999 V2000
  183.9550  178.5610  140.0730 C   0  0  1  0  0  3  0  0  0  0  0  0
  182.5120  179.1190  140.3060 C   0  0  2  0  0  3  0  0  0  0  0  0
  184.3930  177.6430  141.1200 N   0  0  0  0  0  2  0  0  0  0  0  0
  182.8600  179.4210  144.0350 C   0  0  0  0  0  2  0  0  0  0  0  0
  182.8900  178.5050  142.7990 C   0  0  2  0  0  3  0  0  0  0  0  0
  185.1160  177.7910  143.3550 O   0  0  0  0  0  0  0  0  0  0  0  0
  184.3450  178.4000  142.3520 C   0  0  1  0  0  3  0  0  0  0  0  0
  182.0370  179.0210  141.7130 N   0  0  0  0  0  0  0  0  0  0  0  0
  183.8690  178.9360  145.0720 C   0  0  0  0  0  2  0  0  0  0  0  0
  185.2230  178.7360  144.3880 C   0  0  0  0  0  2  0  0  0  0  0  0
  179.9900  178.8380  142.8880 N   0  0  0  0  0  2  0  0  0  0  0  0
  180.7290  179.5030  142.0560 C   0  0  0  0  0  0  0  0  0  0  0  0
  185.6700  178.0250  138.2790 C   0  0  1  0  0  3  0  0  0  0  0  0
  185.9940  176.9260  137.2570 C   0  0  0  0  0  2  0  0  0  0  0  0
  185.9270  179.2650  137.6950 O   0  0  0  0  0  1  0  0  0  0  0  0
  183.6190  176.5520  138.5560 C   0  0  0  0  0  2  0  0  0  0  0  0
  182.6180  175.9300  136.3690 C   0  0  0  0  0  1  0  0  0  0  0  0
  184.1920  177.9690  138.6790 C   0  0  1  0  0  3  0  0  0  0  0  0
  184.8810  176.6950  136.4180 O   0  0  0  0  0  0  0  0  0  0  0  0
  183.9110  175.9620  137.1560 C   0  0  1  0  0  3  0  0  0  0  0  0
  180.2740  180.7040  141.5100 O   0  0  0  0  0  0  0  0  0  0  0  0
  178.9370  180.8780  141.0620 C   0  0  0  0  0  1  0  0  0  0  0  0
  181.4700  178.7040  139.2120 C   0  0  1  0  0  3  0  0  0  0  0  0
  180.7680  176.3920  139.8370 C   0  0  0  0  0  1  0  0  0  0  0  0
  180.2810  177.8240  139.6310 C   0  0  2  0  0  3  0  0  0  0  0  0
  179.2820  177.8330  138.6510 O   0  0  0  0  0  0  0  0  0  0  0  0
  179.2650  176.5310  138.1570 C   0  0  0  0  0  1  0  0  0  0  0  0
  181.1080  179.8320  138.2350 C   0  0  0  0  0  2  0  0  0  0  0  0
  181.9240  181.1020  138.4640 C   0  0  0  0  0  2  0  0  0  0  0  0
  181.1270  182.3010  137.9920 C   0  0  0  0  0  1  0  0  0  0  0  0
  1  2  1  0  0  0  0
  1  3  1  1  0  0  0
  2 23  1  6  0  0  0
  2  8  1  0  0  0  0
  4  9  1  0  0  0  0
  5  4  1  1  0  0  0
  6 10  1  0  0  0  0
  7  3  1  6  0  0  0
  7  5  1  0  0  0  0
  7  6  1  0  0  0  0
  8 12  1  0  0  0  0
  8  5  1  0  0  0  0
 10  9  1  0  0  0  0
 12 11  2  0  0  0  0
 13 15  1  6  0  0  0
 13 18  1  0  0  0  0
 14 13  1  0  0  0  0
 18 16  1  1  0  0  0
 18  1  1  0  0  0  0
 19 20  1  0  0  0  0
 19 14  1  0  0  0  0
 20 17  1  6  0  0  0
 20 16  1  0  0  0  0
 21 12  1  0  0  0  0
 22 21  1  0  0  0  0
 23 28  1  1  0  0  0
 23 25  1  0  0  0  0
 25 24  1  6  0  0  0
 26 25  1  0  0  0  0
 27 26  1  0  0  0  0
 28 29  1  0  0  0  0
 30 29  1  0  0  0  0
M  END
>  <MODEL>
1

>  <REMARK>
 VINA RESULT:      -5.0      0.000      0.000
  Name = 
  7 active torsions:
  status: ('A' for Active; 'I' for Inactive)
    1  A    between atoms: C_1  and  C_22
    2  A    between atoms: C_4  and  C_23
    3  A    between atoms: O_7  and  C_30
    4  A    between atoms: C_10  and  C_15
    5  A    between atoms: C_10  and  C_23
    6  A    between atoms: O_11  and  C_25
    7  A    between atoms: C_23  and  C_25
                            x       y       z     vdW  Elec       q    Type
                         _______ _______ _______ _____ _____    ______ ____

>  <TORSDO>
F 7

$$$$
=
 OpenBabel10262421453D

 30 32  0  0  1  0  0  0  0  0999 V2000
  180.2880  177.7370  139.8850 C   0  0  1  0  0  3  0  0  0  0  0  0
  181.3300  177.9520  138.7380 C   0  0  2  0  0  3  0  0  0  0  0  0
  180.2650  176.3670  140.3920 N   0  0  0  0  0  2  0  0  0  0  0  0
  180.7610  174.6050  137.1280 C   0  0  0  0  0  2  0  0  0  0  0  0
  181.1780  175.3850  138.3870 C   0  0  2  0  0  3  0  0  0  0  0  0
  179.4770  174.2710  139.6680 O   0  0  0  0  0  0  0  0  0  0  0  0
  179.9340  175.5350  139.2570 C   0  0  1  0  0  3  0  0  0  0  0  0
  181.7510  176.7010  138.0510 N   0  0  0  0  0  0  0  0  0  0  0  0
  180.0340  173.3220  137.5230 C   0  0  0  0  0  2  0  0  0  0  0  0
  178.9310  173.6680  138.5240 C   0  0  0  0  0  2  0  0  0  0  0  0
  183.6300  175.8680  136.8760 N   0  0  0  0  0  2  0  0  0  0  0  0
  182.7020  176.7670  136.9780 C   0  0  0  0  0  0  0  0  0  0  0  0
  179.1410  179.6490  141.1030 C   0  0  1  0  0  3  0  0  0  0  0  0
  178.9400  180.1770  142.5300 C   0  0  0  0  0  2  0  0  0  0  0  0
  179.3270  180.7340  140.2480 O   0  0  0  0  0  1  0  0  0  0  0  0
  180.6750  178.0720  142.3730 C   0  0  0  0  0  2  0  0  0  0  0  0
  182.1620  179.2880  143.9500 C   0  0  0  0  0  1  0  0  0  0  0  0
  180.3820  178.7520  141.0310 C   0  0  1  0  0  3  0  0  0  0  0  0
  180.1900  180.3810  143.1560 O   0  0  0  0  0  0  0  0  0  0  0  0
  180.7210  179.1130  143.5170 C   0  0  1  0  0  3  0  0  0  0  0  0
  182.5980  177.7870  136.0300 O   0  0  0  0  0  0  0  0  0  0  0  0
  181.8020  177.6600  134.8600 C   0  0  0  0  0  1  0  0  0  0  0  0
  182.4830  178.9530  139.0860 C   0  0  1  0  0  3  0  0  0  0  0  0
  184.1140  178.2810  140.8510 C   0  0  0  0  0  1  0  0  0  0  0  0
  183.8890  178.3870  139.3460 C   0  0  2  0  0  3  0  0  0  0  0  0
  184.8710  179.2150  138.7910 O   0  0  0  0  0  0  0  0  0  0  0  0
  185.8260  178.3370  138.2860 C   0  0  0  0  0  1  0  0  0  0  0  0
  182.4640  180.2420  138.2520 C   0  0  0  0  0  2  0  0  0  0  0  0
  181.1730  180.4170  137.4570 C   0  0  0  0  0  2  0  0  0  0  0  0
  180.8630  181.8940  137.3230 C   0  0  0  0  0  1  0  0  0  0  0  0
  1  3  1  1  0  0  0
  1 18  1  0  0  0  0
  2 23  1  1  0  0  0
  2  1  1  0  0  0  0
  4  9  1  0  0  0  0
  5  4  1  6  0  0  0
  5  7  1  0  0  0  0
  7  6  1  1  0  0  0
  7  3  1  0  0  0  0
  8  5  1  0  0  0  0
  8  2  1  0  0  0  0
  9 10  1  0  0  0  0
 10  6  1  0  0  0  0
 11 12  2  0  0  0  0
 12  8  1  0  0  0  0
 13 15  1  6  0  0  0
 13 14  1  0  0  0  0
 14 19  1  0  0  0  0
 16 20  1  0  0  0  0
 18 13  1  0  0  0  0
 18 16  1  1  0  0  0
 19 20  1  0  0  0  0
 20 17  1  6  0  0  0
 21 12  1  0  0  0  0
 22 21  1  0  0  0  0
 23 28  1  6  0  0  0
 23 25  1  0  0  0  0
 25 24  1  1  0  0  0
 26 25  1  0  0  0  0
 27 26  1  0  0  0  0
 29 28  1  0  0  0  0
 30 29  1  0  0  0  0
M  END
>  <MODEL>
2

>  <REMARK>
 VINA RESULT:      -5.0      2.109      6.387
  Name = 
  7 active torsions:
  status: ('A' for Active; 'I' for Inactive)
    1  A    between atoms: C_1  and  C_22
    2  A    between atoms: C_4  and  C_23
    3  A    between atoms: O_7  and  C_30
    4  A    between atoms: C_10  and  C_15
    5  A    between atoms: C_10  and  C_23
    6  A    between atoms: O_11  and  C_25
    7  A    between atoms: C_23  and  C_25
                            x       y       z     vdW  Elec       q    Type
                         _______ _______ _______ _____ _____    ______ ____

>  <TORSDO>
F 7

$$$$
=
 OpenBabel10262421453D

 30 32  0  0  1  0  0  0  0  0999 V2000
  181.8060  179.2810  139.9010 C   0  0  1  0  0  3  0  0  0  0  0  0
  181.5370  178.1470  138.8580 C   0  0  2  0  0  3  0  0  0  0  0  0
  180.8450  180.3780  139.8190 N   0  0  0  0  0  2  0  0  0  0  0  0
  180.4890  180.4660  136.0950 C   0  0  0  0  0  2  0  0  0  0  0  0
  180.2380  179.9540  137.5230 C   0  0  2  0  0  3  0  0  0  0  0  0
  180.4150  182.1910  138.3810 O   0  0  0  0  0  0  0  0  0  0  0  0
  180.9620  180.9000  138.4750 C   0  0  1  0  0  3  0  0  0  0  0  0
  180.7060  178.5670  137.6970 N   0  0  0  0  0  0  0  0  0  0  0  0
  180.1330  181.9480  135.9990 C   0  0  0  0  0  2  0  0  0  0  0  0
  180.8280  182.6960  137.1380 C   0  0  0  0  0  2  0  0  0  0  0  0
  179.2070  177.5950  136.1440 N   0  0  0  0  0  2  0  0  0  0  0  0
  180.3920  177.6160  136.6690 C   0  0  0  0  0  0  0  0  0  0  0  0
  183.4030  178.9850  141.8540 C   0  0  1  0  0  3  0  0  0  0  0  0
  183.4190  179.1090  143.3850 C   0  0  0  0  0  2  0  0  0  0  0  0
  184.1570  177.8700  141.4900 O   0  0  0  0  0  1  0  0  0  0  0  0
  180.9390  179.4310  142.2840 C   0  0  0  0  0  2  0  0  0  0  0  0
  180.0370  178.0010  144.1050 C   0  0  0  0  0  1  0  0  0  0  0  0
  181.9700  178.7930  141.3460 C   0  0  1  0  0  3  0  0  0  0  0  0
  182.4020  178.3070  143.9500 O   0  0  0  0  0  0  0  0  0  0  0  0
  181.1550  178.9560  143.7400 C   0  0  1  0  0  3  0  0  0  0  0  0
  181.3800  176.7390  136.2190 O   0  0  0  0  0  0  0  0  0  0  0  0
  182.1790  177.0140  135.0760 C   0  0  0  0  0  1  0  0  0  0  0  0
  181.1710  176.7590  139.4850 C   0  0  1  0  0  3  0  0  0  0  0  0
  178.9430  176.8190  140.6080 C   0  0  0  0  0  1  0  0  0  0  0  0
  179.7110  176.2830  139.4040 C   0  0  2  0  0  3  0  0  0  0  0  0
  179.6400  174.8860  139.3980 O   0  0  0  0  0  0  0  0  0  0  0  0
  179.0240  174.5620  140.6040 C   0  0  0  0  0  1  0  0  0  0  0  0
  182.2100  175.6600  139.2210 C   0  0  0  0  0  2  0  0  0  0  0  0
  183.4640  176.1830  138.5260 C   0  0  0  0  0  2  0  0  0  0  0  0
  184.0680  175.0750  137.6860 C   0  0  0  0  0  1  0  0  0  0  0  0
  1  3  1  1  0  0  0
  1 18  1  0  0  0  0
  2 23  1  1  0  0  0
  2  1  1  0  0  0  0
  5  4  1  6  0  0  0
  5  8  1  0  0  0  0
  5  7  1  0  0  0  0
  7  6  1  1  0  0  0
  7  3  1  0  0  0  0
  8  2  1  0  0  0  0
  9  4  1  0  0  0  0
  9 10  1  0  0  0  0
 10  6  1  0  0  0  0
 11 12  2  0  0  0  0
 12  8  1  0  0  0  0
 13 15  1  1  0  0  0
 13 14  1  0  0  0  0
 14 19  1  0  0  0  0
 16 20  1  0  0  0  0
 18 13  1  0  0  0  0
 18 16  1  1  0  0  0
 20 19  1  0  0  0  0
 20 17  1  6  0  0  0
 21 12  1  0  0  0  0
 22 21  1  0  0  0  0
 23 28  1  6  0  0  0
 25 23  1  0  0  0  0
 25 24  1  1  0  0  0
 26 25  1  0  0  0  0
 26 27  1  0  0  0  0
 29 28  1  0  0  0  0
 30 29  1  0  0  0  0
M  END
>  <MODEL>
3

>  <REMARK>
 VINA RESULT:      -4.8      2.342      6.047
  Name = 
  7 active torsions:
  status: ('A' for Active; 'I' for Inactive)
    1  A    between atoms: C_1  and  C_22
    2  A    between atoms: C_4  and  C_23
    3  A    between atoms: O_7  and  C_30
    4  A    between atoms: C_10  and  C_15
    5  A    between atoms: C_10  and  C_23
    6  A    between atoms: O_11  and  C_25
    7  A    between atoms: C_23  and  C_25
                            x       y       z     vdW  Elec       q    Type
                         _______ _______ _______ _____ _____    ______ ____

>  <TORSDO>
F 7

$$$$
=
 OpenBabel10262421453D

 30 32  0  0  1  0  0  0  0  0999 V2000
  183.7620  178.6220  140.6450 C   0  0  1  0  0  3  0  0  0  0  0  0
  182.3440  179.1020  141.0970 C   0  0  2  0  0  3  0  0  0  0  0  0
  184.3920  177.7130  141.5990 N   0  0  0  0  0  2  0  0  0  0  0  0
  183.2190  179.3720  144.7410 C   0  0  0  0  0  2  0  0  0  0  0  0
  183.1120  178.4750  143.4950 C   0  0  2  0  0  3  0  0  0  0  0  0
  185.4270  177.8670  143.7070 O   0  0  0  0  0  0  0  0  0  0  0  0
  184.4890  178.4500  142.8390 C   0  0  1  0  0  3  0  0  0  0  0  0
  182.0860  178.9620  142.5560 N   0  0  0  0  0  0  0  0  0  0  0  0
  184.3910  178.9240  145.6100 C   0  0  0  0  0  2  0  0  0  0  0  0
  185.6380  178.8030  144.7320 C   0  0  0  0  0  2  0  0  0  0  0  0
  180.2440  178.6590  144.0110 N   0  0  0  0  0  2  0  0  0  0  0  0
  180.8200  179.3720  143.0950 C   0  0  0  0  0  0  0  0  0  0  0  0
  185.1850  178.3080  138.5650 C   0  0  1  0  0  3  0  0  0  0  0  0
  185.4610  177.2570  137.4800 C   0  0  0  0  0  2  0  0  0  0  0  0
  185.1710  179.5690  137.9700 O   0  0  0  0  0  1  0  0  0  0  0  0
  183.4230  176.5810  139.1710 C   0  0  0  0  0  2  0  0  0  0  0  0
  182.1370  175.8260  137.1850 C   0  0  0  0  0  1  0  0  0  0  0  0
  183.8220  178.0610  139.2190 C   0  0  1  0  0  3  0  0  0  0  0  0
  184.2550  176.8800  136.8470 O   0  0  0  0  0  0  0  0  0  0  0  0
  183.5350  176.0300  137.7300 C   0  0  1  0  0  3  0  0  0  0  0  0
  180.2330  180.5560  142.6460 O   0  0  0  0  0  0  0  0  0  0  0  0
  178.9490  180.5850  142.0380 C   0  0  0  0  0  1  0  0  0  0  0  0
  181.1740  178.6500  140.1580 C   0  0  1  0  0  3  0  0  0  0  0  0
  181.3090  180.7160  138.7640 C   0  0  0  0  0  1  0  0  0  0  0  0
  181.1360  179.2000  138.7230 C   0  0  2  0  0  3  0  0  0  0  0  0
  179.9200  178.8940  138.1020 O   0  0  0  0  0  0  0  0  0  0  0  0
  179.1560  180.0500  138.2360 C   0  0  0  0  0  1  0  0  0  0  0  0
  180.8210  177.1600  140.2730 C   0  0  0  0  0  2  0  0  0  0  0  0
  179.4210  176.9230  140.8340 C   0  0  0  0  0  2  0  0  0  0  0  0
  179.1040  175.4420  140.7790 C   0  0  0  0  0  1  0  0  0  0  0  0
  1  2  1  0  0  0  0
  1  3  1  1  0  0  0
  2 23  1  6  0  0  0
  2  8  1  0  0  0  0
  4  9  1  0  0  0  0
  5  4  1  1  0  0  0
  6 10  1  0  0  0  0
  7  3  1  6  0  0  0
  7  5  1  0  0  0  0
  7  6  1  0  0  0  0
  8 12  1  0  0  0  0
  8  5  1  0  0  0  0
 10  9  1  0  0  0  0
 12 11  2  0  0  0  0
 13 15  1  6  0  0  0
 13 18  1  0  0  0  0
 14 13  1  0  0  0  0
 18 16  1  1  0  0  0
 18  1  1  0  0  0  0
 19 14  1  0  0  0  0
 19 20  1  0  0  0  0
 20 17  1  6  0  0  0
 20 16  1  0  0  0  0
 21 12  1  0  0  0  0
 22 21  1  0  0  0  0
 23 28  1  6  0  0  0
 25 24  1  1  0  0  0
 25 23  1  0  0  0  0
 26 27  1  0  0  0  0
 26 25  1  0  0  0  0
 28 29  1  0  0  0  0
 30 29  1  0  0  0  0
M  END
>  <MODEL>
4

>  <REMARK>
 VINA RESULT:      -4.7      0.999      2.252
  Name = 
  7 active torsions:
  status: ('A' for Active; 'I' for Inactive)
    1  A    between atoms: C_1  and  C_22
    2  A    between atoms: C_4  and  C_23
    3  A    between atoms: O_7  and  C_30
    4  A    between atoms: C_10  and  C_15
    5  A    between atoms: C_10  and  C_23
    6  A    between atoms: O_11  and  C_25
    7  A    between atoms: C_23  and  C_25
                            x       y       z     vdW  Elec       q    Type
                         _______ _______ _______ _____ _____    ______ ____

>  <TORSDO>
F 7

$$$$
=
 OpenBabel10262421453D

 30 32  0  0  1  0  0  0  0  0999 V2000
  183.7800  177.7350  138.8260 C   0  0  1  0  0  3  0  0  0  0  0  0
  183.6550  176.4230  137.9850 C   0  0  2  0  0  3  0  0  0  0  0  0
  184.7990  178.6490  138.3170 N   0  0  0  0  0  2  0  0  0  0  0  0
  187.3380  176.0850  137.3270 C   0  0  0  0  0  2  0  0  0  0  0  0
  186.0680  176.9410  137.1820 C   0  0  2  0  0  3  0  0  0  0  0  0
  187.1490  178.7750  138.2950 O   0  0  0  0  0  0  0  0  0  0  0  0
  186.0430  177.9120  138.3580 C   0  0  1  0  0  3  0  0  0  0  0  0
  184.8500  176.1110  137.1540 N   0  0  0  0  0  0  0  0  0  0  0  0
  188.5590  176.9850  137.5070 C   0  0  0  0  0  2  0  0  0  0  0  0
  188.2680  177.9930  138.6200 C   0  0  0  0  0  2  0  0  0  0  0  0
  185.3660  174.9670  135.1470 N   0  0  0  0  0  2  0  0  0  0  0  0
  184.8580  174.9290  136.3390 C   0  0  0  0  0  0  0  0  0  0  0  0
  181.9700  178.2950  140.5170 C   0  0  1  0  0  3  0  0  0  0  0  0
  181.0680  179.4690  140.9240 C   0  0  0  0  0  2  0  0  0  0  0  0
  181.2320  177.1150  140.6050 O   0  0  0  0  0  1  0  0  0  0  0  0
  182.5280  179.9390  138.6630 C   0  0  0  0  0  2  0  0  0  0  0  0
  180.4860  180.9300  137.6510 C   0  0  0  0  0  1  0  0  0  0  0  0
  182.4540  178.4640  139.0730 C   0  0  1  0  0  3  0  0  0  0  0  0
  180.3230  179.9210  139.8120 O   0  0  0  0  0  0  0  0  0  0  0  0
  181.1930  180.6600  138.9640 C   0  0  1  0  0  3  0  0  0  0  0  0
  184.3440  173.7370  136.8510 O   0  0  0  0  0  0  0  0  0  0  0  0
  185.0710  172.9260  137.7630 C   0  0  0  0  0  1  0  0  0  0  0  0
  182.2710  176.2340  137.2750 C   0  0  1  0  0  3  0  0  0  0  0  0
  181.4990  177.9310  135.6160 C   0  0  0  0  0  1  0  0  0  0  0  0
  182.1660  176.5680  135.7780 C   0  0  2  0  0  3  0  0  0  0  0  0
  181.4100  175.6030  135.1030 O   0  0  0  0  0  0  0  0  0  0  0  0
  180.3210  176.3050  134.5940 C   0  0  0  0  0  1  0  0  0  0  0  0
  181.5230  174.9600  137.6930 C   0  0  0  0  0  2  0  0  0  0  0  0
  180.1000  175.2360  138.1730 C   0  0  0  0  0  2  0  0  0  0  0  0
  179.6480  174.1050  139.0750 C   0  0  0  0  0  1  0  0  0  0  0  0
  1  3  1  6  0  0  0
  1 18  1  0  0  0  0
  2 23  1  6  0  0  0
  2  1  1  0  0  0  0
  3  7  1  0  0  0  0
  4  9  1  0  0  0  0
  5  4  1  1  0  0  0
  5  7  1  0  0  0  0
  6 10  1  0  0  0  0
  7  6  1  6  0  0  0
  8  5  1  0  0  0  0
  8  2  1  0  0  0  0
  9 10  1  0  0  0  0
 11 12  2  0  0  0  0
 12 21  1  0  0  0  0
 12  8  1  0  0  0  0
 13 15  1  6  0  0  0
 13 14  1  0  0  0  0
 16 20  1  0  0  0  0
 18 16  1  1  0  0  0
 18 13  1  0  0  0  0
 19 14  1  0  0  0  0
 20 17  1  6  0  0  0
 20 19  1  0  0  0  0
 21 22  1  0  0  0  0
 23 28  1  6  0  0  0
 25 24  1  1  0  0  0
 25 23  1  0  0  0  0
 26 25  1  0  0  0  0
 27 26  1  0  0  0  0
 28 29  1  0  0  0  0
 29 30  1  0  0  0  0
M  END
>  <MODEL>
5

>  <REMARK>
 VINA RESULT:      -4.5      2.744      6.251
  Name = 
  7 active torsions:
  status: ('A' for Active; 'I' for Inactive)
    1  A    between atoms: C_1  and  C_22
    2  A    between atoms: C_4  and  C_23
    3  A    between atoms: O_7  and  C_30
    4  A    between atoms: C_10  and  C_15
    5  A    between atoms: C_10  and  C_23
    6  A    between atoms: O_11  and  C_25
    7  A    between atoms: C_23  and  C_25
                            x       y       z     vdW  Elec       q    Type
                         _______ _______ _______ _____ _____    ______ ____

>  <TORSDO>
F 7

$$$$
=
 OpenBabel10262421453D

 30 32  0  0  1  0  0  0  0  0999 V2000
  182.7710  178.0510  139.9140 C   0  0  1  0  0  3  0  0  0  0  0  0
  181.3510  178.1840  140.5570 C   0  0  2  0  0  3  0  0  0  0  0  0
  183.7760  177.5380  140.8410 N   0  0  0  0  0  2  0  0  0  0  0  0
  182.6000  179.3260  143.9110 C   0  0  0  0  0  2  0  0  0  0  0  0
  182.6010  178.2310  142.8310 C   0  0  2  0  0  3  0  0  0  0  0  0
  184.9960  178.3450  142.6850 O   0  0  0  0  0  0  0  0  0  0  0  0
  183.8130  178.4790  141.9390 C   0  0  1  0  0  3  0  0  0  0  0  0
  181.3540  178.2370  142.0440 N   0  0  0  0  0  0  0  0  0  0  0  0
  183.9620  179.3860  144.5980 C   0  0  0  0  0  2  0  0  0  0  0  0
  185.0510  179.4670  143.5260 C   0  0  0  0  0  2  0  0  0  0  0  0
  179.9150  177.6890  143.8420 N   0  0  0  0  0  2  0  0  0  0  0  0
  180.1110  178.3620  142.7520 C   0  0  0  0  0  0  0  0  0  0  0  0
  183.3460  178.1510  137.4420 C   0  0  1  0  0  3  0  0  0  0  0  0
  183.9550  177.2680  136.3430 C   0  0  0  0  0  2  0  0  0  0  0  0
  182.2930  178.8810  136.8940 O   0  0  0  0  0  1  0  0  0  0  0  0
  183.5520  175.9570  138.7070 C   0  0  0  0  0  2  0  0  0  0  0  0
  182.6680  174.0400  137.3960 C   0  0  0  0  0  1  0  0  0  0  0  0
  182.8000  177.2880  138.5840 C   0  0  1  0  0  3  0  0  0  0  0  0
  183.2410  176.0530  136.2420 O   0  0  0  0  0  0  0  0  0  0  0  0
  183.6050  175.2300  137.3430 C   0  0  1  0  0  3  0  0  0  0  0  0
  179.1330  179.2360  142.2740 O   0  0  0  0  0  0  0  0  0  0  0  0
  179.2550  180.6470  142.3830 C   0  0  0  0  0  1  0  0  0  0  0  0
  180.2570  177.2640  139.9150 C   0  0  1  0  0  3  0  0  0  0  0  0
  179.9220  174.8690  139.2990 C   0  0  0  0  0  1  0  0  0  0  0  0
  180.0870  175.8390  140.4650 C   0  0  2  0  0  3  0  0  0  0  0  0
  178.9640  175.7540  141.2960 O   0  0  0  0  0  0  0  0  0  0  0  0
  178.9580  174.4350  141.7430 C   0  0  0  0  0  1  0  0  0  0  0  0
  178.9370  177.9850  139.6070 C   0  0  0  0  0  2  0  0  0  0  0  0
  179.1210  179.2050  138.7080 C   0  0  0  0  0  2  0  0  0  0  0  0
  178.9440  178.7910  137.2610 C   0  0  0  0  0  1  0  0  0  0  0  0
  1  2  1  0  0  0  0
  1  3  1  1  0  0  0
  2 23  1  1  0  0  0
  2  8  1  0  0  0  0
  4  9  1  0  0  0  0
  5  4  1  1  0  0  0
  6 10  1  0  0  0  0
  7  3  1  6  0  0  0
  7  6  1  0  0  0  0
  7  5  1  0  0  0  0
  8 12  1  0  0  0  0
  8  5  1  0  0  0  0
 10  9  1  0  0  0  0
 12 11  2  0  0  0  0
 13 15  1  6  0  0  0
 13 18  1  0  0  0  0
 14 13  1  0  0  0  0
 18 16  1  1  0  0  0
 18  1  1  0  0  0  0
 19 14  1  0  0  0  0
 19 20  1  0  0  0  0
 20 17  1  1  0  0  0
 20 16  1  0  0  0  0
 21 22  1  0  0  0  0
 21 12  1  0  0  0  0
 23 28  1  1  0  0  0
 23 25  1  0  0  0  0
 25 24  1  6  0  0  0
 25 26  1  0  0  0  0
 26 27  1  0  0  0  0
 29 28  1  0  0  0  0
 30 29  1  0  0  0  0
M  END
>  <MODEL>
6

>  <REMARK>
 VINA RESULT:      -4.3      1.842      2.126
  Name = 
  7 active torsions:
  status: ('A' for Active; 'I' for Inactive)
    1  A    between atoms: C_1  and  C_22
    2  A    between atoms: C_4  and  C_23
    3  A    between atoms: O_7  and  C_30
    4  A    between atoms: C_10  and  C_15
    5  A    between atoms: C_10  and  C_23
    6  A    between atoms: O_11  and  C_25
    7  A    between atoms: C_23  and  C_25
                            x       y       z     vdW  Elec       q    Type
                         _______ _______ _______ _____ _____    ______ ____

>  <TORSDO>
F 7

$$$$
=
 OpenBabel10262421453D

 30 32  0  0  1  0  0  0  0  0999 V2000
  187.2670  178.2700  139.0990 C   0  0  1  0  0  3  0  0  0  0  0  0
  186.2770  178.6700  140.2420 C   0  0  2  0  0  3  0  0  0  0  0  0
  188.1040  177.1230  139.4380 N   0  0  0  0  0  2  0  0  0  0  0  0
  188.6800  177.9570  143.0410 C   0  0  0  0  0  2  0  0  0  0  0  0
  187.9080  177.4170  141.8250 C   0  0  2  0  0  3  0  0  0  0  0  0
  189.9640  176.6890  140.8150 O   0  0  0  0  0  0  0  0  0  0  0  0
  188.8410  177.5110  140.6210 C   0  0  1  0  0  3  0  0  0  0  0  0
  186.6620  178.1680  141.5890 N   0  0  0  0  0  0  0  0  0  0  0  0
  190.0320  177.2570  143.1570 C   0  0  0  0  0  2  0  0  0  0  0  0
  190.7380  177.3200  141.8020 C   0  0  0  0  0  2  0  0  0  0  0  0
  185.6150  177.5690  143.6260 N   0  0  0  0  0  2  0  0  0  0  0  0
  185.8350  178.4720  142.7220 C   0  0  0  0  0  0  0  0  0  0  0  0
  187.4800  178.6800  136.6020 C   0  0  1  0  0  3  0  0  0  0  0  0
  187.1820  177.9780  135.2690 C   0  0  0  0  0  2  0  0  0  0  0  0
  187.1810  180.0350  136.4680 O   0  0  0  0  0  1  0  0  0  0  0  0
  186.2380  176.6340  137.4520 C   0  0  0  0  0  2  0  0  0  0  0  0
  184.1370  176.2290  136.1890 C   0  0  0  0  0  1  0  0  0  0  0  0
  186.6150  178.0950  137.7230 C   0  0  1  0  0  3  0  0  0  0  0  0
  185.8190  177.6110  135.2050 O   0  0  0  0  0  0  0  0  0  0  0  0
  185.6230  176.4780  136.0410 C   0  0  1  0  0  3  0  0  0  0  0  0
  185.2970  179.7530  142.8570 O   0  0  0  0  0  0  0  0  0  0  0  0
  184.4950  180.1280  143.9690 C   0  0  0  0  0  1  0  0  0  0  0  0
  184.7620  178.5200  139.8730 C   0  0  1  0  0  3  0  0  0  0  0  0
  183.2220  176.5590  139.7780 C   0  0  0  0  0  1  0  0  0  0  0  0
  183.8980  177.5620  140.7090 C   0  0  2  0  0  3  0  0  0  0  0  0
  182.9170  178.2640  141.4180 O   0  0  0  0  0  0  0  0  0  0  0  0
  181.7130  177.7040  140.9980 C   0  0  0  0  0  1  0  0  0  0  0  0
  184.0730  179.8440  139.5140 C   0  0  0  0  0  2  0  0  0  0  0  0
  183.1020  179.7110  138.3430 C   0  0  0  0  0  2  0  0  0  0  0  0
  181.8810  180.5700  138.6050 C   0  0  0  0  0  1  0  0  0  0  0  0
  1  3  1  1  0  0  0
  1  2  1  0  0  0  0
  2 23  1  6  0  0  0
  2  8  1  0  0  0  0
  4  9  1  0  0  0  0
  5  4  1  1  0  0  0
  6 10  1  0  0  0  0
  7  3  1  6  0  0  0
  7  6  1  0  0  0  0
  7  5  1  0  0  0  0
  8  5  1  0  0  0  0
  8 12  1  0  0  0  0
 10  9  1  0  0  0  0
 12 21  1  0  0  0  0
 12 11  2  0  0  0  0
 13 15  1  6  0  0  0
 13 18  1  0  0  0  0
 14 13  1  0  0  0  0
 18 16  1  6  0  0  0
 18  1  1  0  0  0  0
 19 14  1  0  0  0  0
 19 20  1  0  0  0  0
 20 17  1  1  0  0  0
 20 16  1  0  0  0  0
 21 22  1  0  0  0  0
 23 28  1  1  0  0  0
 23 25  1  0  0  0  0
 25 24  1  6  0  0  0
 25 26  1  0  0  0  0
 27 26  1  0  0  0  0
 29 30  1  0  0  0  0
 29 28  1  0  0  0  0
M  END
>  <MODEL>
7

>  <REMARK>
 VINA RESULT:      -4.3      2.785      4.184
  Name = 
  7 active torsions:
  status: ('A' for Active; 'I' for Inactive)
    1  A    between atoms: C_1  and  C_22
    2  A    between atoms: C_4  and  C_23
    3  A    between atoms: O_7  and  C_30
    4  A    between atoms: C_10  and  C_15
    5  A    between atoms: C_10  and  C_23
    6  A    between atoms: O_11  and  C_25
    7  A    between atoms: C_23  and  C_25
                            x       y       z     vdW  Elec       q    Type
                         _______ _______ _______ _____ _____    ______ ____

>  <TORSDO>
F 7

$$$$
=
 OpenBabel10262421453D

 30 32  0  0  1  0  0  0  0  0999 V2000
  182.4500  177.9410  139.8000 C   0  0  1  0  0  3  0  0  0  0  0  0
  181.0630  178.2180  140.4690 C   0  0  2  0  0  3  0  0  0  0  0  0
  183.4320  177.3820  140.7250 N   0  0  0  0  0  2  0  0  0  0  0  0
  182.4880  179.3790  143.7450 C   0  0  0  0  0  2  0  0  0  0  0  0
  182.3700  178.2470  142.7100 C   0  0  2  0  0  3  0  0  0  0  0  0
  184.7630  178.1540  142.5060 O   0  0  0  0  0  0  0  0  0  0  0  0
  183.5760  178.3580  141.7820 C   0  0  1  0  0  3  0  0  0  0  0  0
  181.1090  178.3270  141.9520 N   0  0  0  0  0  0  0  0  0  0  0  0
  183.8680  179.3520  144.3980 C   0  0  0  0  0  2  0  0  0  0  0  0
  184.9320  179.3000  143.3000 C   0  0  0  0  0  2  0  0  0  0  0  0
  179.6760  177.9730  143.8030 N   0  0  0  0  0  2  0  0  0  0  0  0
  179.9000  178.5840  142.6820 C   0  0  0  0  0  0  0  0  0  0  0  0
  183.0630  177.8520  137.3370 C   0  0  1  0  0  3  0  0  0  0  0  0
  183.5470  176.8440  136.2850 C   0  0  0  0  0  2  0  0  0  0  0  0
  182.1370  178.7070  136.7410 O   0  0  0  0  0  1  0  0  0  0  0  0
  182.9260  175.7070  138.6910 C   0  0  0  0  0  2  0  0  0  0  0  0
  181.7820  173.8890  137.4410 C   0  0  0  0  0  1  0  0  0  0  0  0
  182.3810  177.1270  138.5030 C   0  0  1  0  0  3  0  0  0  0  0  0
  182.6620  175.7440  136.2190 O   0  0  0  0  0  0  0  0  0  0  0  0
  182.8860  174.9230  137.3580 C   0  0  1  0  0  3  0  0  0  0  0  0
  178.9850  179.5180  142.1910 O   0  0  0  0  0  0  0  0  0  0  0  0
  179.3030  180.8960  142.0570 C   0  0  0  0  0  1  0  0  0  0  0  0
  179.8810  177.3690  139.8900 C   0  0  1  0  0  3  0  0  0  0  0  0
  179.2430  176.7830  137.5490 C   0  0  0  0  0  1  0  0  0  0  0  0
  179.1750  177.8700  138.6180 C   0  0  2  0  0  3  0  0  0  0  0  0
  179.7860  179.0310  138.1330 O   0  0  0  0  0  0  0  0  0  0  0  0
  178.9320  180.0620  138.5140 C   0  0  0  0  0  1  0  0  0  0  0  0
  180.1260  175.8540  139.9220 C   0  0  0  0  0  2  0  0  0  0  0  0
  179.2770  175.1360  140.9690 C   0  0  0  0  0  2  0  0  0  0  0  0
  179.6740  173.6750  141.0180 C   0  0  0  0  0  1  0  0  0  0  0  0
  1  2  1  0  0  0  0
  1  3  1  1  0  0  0
  2 23  1  1  0  0  0
  2  8  1  0  0  0  0
  4  9  1  0  0  0  0
  5  4  1  1  0  0  0
  6 10  1  0  0  0  0
  7  3  1  6  0  0  0
  7  6  1  0  0  0  0
  7  5  1  0  0  0  0
  8 12  1  0  0  0  0
  8  5  1  0  0  0  0
 10  9  1  0  0  0  0
 12 11  2  0  0  0  0
 13 15  1  6  0  0  0
 13 18  1  0  0  0  0
 14 13  1  0  0  0  0
 18 16  1  1  0  0  0
 18  1  1  0  0  0  0
 19 14  1  0  0  0  0
 19 20  1  0  0  0  0
 20 17  1  1  0  0  0
 20 16  1  0  0  0  0
 21 12  1  0  0  0  0
 22 21  1  0  0  0  0
 23 28  1  6  0  0  0
 25 24  1  6  0  0  0
 25 23  1  0  0  0  0
 26 27  1  0  0  0  0
 26 25  1  0  0  0  0
 28 29  1  0  0  0  0
 29 30  1  0  0  0  0
M  END
>  <MODEL>
8

>  <REMARK>
 VINA RESULT:      -4.2      1.771      2.911
  Name = 
  7 active torsions:
  status: ('A' for Active; 'I' for Inactive)
    1  A    between atoms: C_1  and  C_22
    2  A    between atoms: C_4  and  C_23
    3  A    between atoms: O_7  and  C_30
    4  A    between atoms: C_10  and  C_15
    5  A    between atoms: C_10  and  C_23
    6  A    between atoms: O_11  and  C_25
    7  A    between atoms: C_23  and  C_25
                            x       y       z     vdW  Elec       q    Type
                         _______ _______ _______ _____ _____    ______ ____

>  <TORSDO>
F 7

$$$$
=
 OpenBabel10262421453D

 30 32  0  0  1  0  0  0  0  0999 V2000
  185.9900  178.3050  138.7890 C   0  0  1  0  0  3  0  0  0  0  0  0
  184.5390  177.9320  138.3390 C   0  0  2  0  0  3  0  0  0  0  0  0
  186.2950  177.8850  140.1540 N   0  0  0  0  0  2  0  0  0  0  0  0
  182.9570  178.6280  141.6740 C   0  0  0  0  0  2  0  0  0  0  0  0
  183.9930  177.8210  140.8730 C   0  0  2  0  0  3  0  0  0  0  0  0
  185.7450  178.5740  142.3360 O   0  0  0  0  0  0  0  0  0  0  0  0
  185.3260  178.5530  140.9950 C   0  0  1  0  0  3  0  0  0  0  0  0
  183.5980  177.6710  139.4610 N   0  0  0  0  0  0  0  0  0  0  0  0
  183.4750  178.8910  143.0860 C   0  0  0  0  0  2  0  0  0  0  0  0
  184.8870  179.4710  142.9930 C   0  0  0  0  0  2  0  0  0  0  0  0
  181.6390  176.4090  139.8770 N   0  0  0  0  0  2  0  0  0  0  0  0
  182.2350  177.3220  139.1770 C   0  0  0  0  0  0  0  0  0  0  0  0
  188.0550  179.0180  137.4920 C   0  0  1  0  0  3  0  0  0  0  0  0
  189.4290  178.4690  137.0810 C   0  0  0  0  0  2  0  0  0  0  0  0
  187.5320  179.7520  136.4290 O   0  0  0  0  0  1  0  0  0  0  0  0
  187.8330  176.6230  138.3110 C   0  0  0  0  0  2  0  0  0  0  0  0
  188.5500  174.9810  136.5900 C   0  0  0  0  0  1  0  0  0  0  0  0
  187.0920  177.8700  137.8150 C   0  0  1  0  0  3  0  0  0  0  0  0
  189.2790  177.2480  136.3870 O   0  0  0  0  0  0  0  0  0  0  0  0
  188.9660  176.2330  137.3330 C   0  0  1  0  0  3  0  0  0  0  0  0
  181.5500  177.9950  138.1640 O   0  0  0  0  0  0  0  0  0  0  0  0
  180.3810  177.4650  137.5540 C   0  0  0  0  0  1  0  0  0  0  0  0
  184.4690  176.9170  137.1470 C   0  0  1  0  0  3  0  0  0  0  0  0
  185.1360  174.5130  137.2180 C   0  0  0  0  0  1  0  0  0  0  0  0
  183.9810  175.4870  137.4330 C   0  0  2  0  0  3  0  0  0  0  0  0
  182.9230  175.1410  136.5860 O   0  0  0  0  0  0  0  0  0  0  0  0
  182.2980  174.0730  137.2240 C   0  0  0  0  0  1  0  0  0  0  0  0
  183.9270  177.5210  135.8440 C   0  0  0  0  0  2  0  0  0  0  0  0
  184.5800  176.9290  134.5980 C   0  0  0  0  0  2  0  0  0  0  0  0
  186.0710  177.1990  134.6380 C   0  0  0  0  0  1  0  0  0  0  0  0
  1  3  1  1  0  0  0
  2 23  1  6  0  0  0
  2  1  1  0  0  0  0
  2  8  1  0  0  0  0
  4  9  1  0  0  0  0
  5  7  1  0  0  0  0
  5  4  1  1  0  0  0
  6 10  1  0  0  0  0
  7  3  1  6  0  0  0
  7  6  1  0  0  0  0
  8  5  1  0  0  0  0
 10  9  1  0  0  0  0
 12  8  1  0  0  0  0
 12 11  2  0  0  0  0
 13 15  1  6  0  0  0
 13 18  1  0  0  0  0
 14 13  1  0  0  0  0
 18 16  1  1  0  0  0
 18  1  1  0  0  0  0
 19 14  1  0  0  0  0
 19 20  1  0  0  0  0
 20 17  1  6  0  0  0
 20 16  1  0  0  0  0
 21 12  1  0  0  0  0
 22 21  1  0  0  0  0
 23 28  1  6  0  0  0
 23 25  1  0  0  0  0
 25 24  1  6  0  0  0
 26 27  1  0  0  0  0
 26 25  1  0  0  0  0
 29 30  1  0  0  0  0
 29 28  1  0  0  0  0
M  END
>  <MODEL>
9

>  <REMARK>
 VINA RESULT:      -4.2      2.432      4.070
  Name = 
  7 active torsions:
  status: ('A' for Active; 'I' for Inactive)
    1  A    between atoms: C_1  and  C_22
    2  A    between atoms: C_4  and  C_23
    3  A    between atoms: O_7  and  C_30
    4  A    between atoms: C_10  and  C_15
    5  A    between atoms: C_10  and  C_23
    6  A    between atoms: O_11  and  C_25
    7  A    between atoms: C_23  and  C_25
                            x       y       z     vdW  Elec       q    Type
                         _______ _______ _______ _____ _____    ______ ____

>  <TORSDO>
F 7

$$$$
