=
 OpenBabel10262419113D

 34 40  0  0  1  0  0  0  0  0999 V2000
  189.0150  177.1250  146.3580 C   0  0  0  0  0  0  0  0  0  0  0  0
  190.8020  176.7640  144.7370 C   0  0  0  0  0  0  0  0  0  0  0  0
  188.4880  176.9190  143.9150 C   0  0  1  0  0  3  0  0  0  0  0  0
  188.3270  178.4050  141.8350 C   0  0  1  0  0  3  0  0  0  0  0  0
  191.3050  176.8150  147.1050 C   0  0  0  0  0  3  0  0  0  0  0  0
  191.7370  176.6970  145.7730 C   0  0  0  0  0  3  0  0  0  0  0  0
  190.3550  177.5450  142.5440 C   0  0  0  0  0  0  0  0  0  0  0  0
  189.4310  176.8480  145.0600 C   0  0  0  0  0  0  0  0  0  0  0  0
  189.1950  178.0570  140.6000 C   0  0  0  0  0  2  0  0  0  0  0  0
  189.9530  177.0750  147.3950 C   0  0  0  0  0  3  0  0  0  0  0  0
  187.0150  177.1770  144.2510 C   0  0  2  0  0  3  0  0  0  0  0  0
  187.6740  177.7070  146.5540 C   0  0  0  0  0  3  0  0  0  0  0  0
  191.2090  176.9780  143.3610 N   0  0  0  0  0  0  0  0  0  0  0  0
  186.9000  177.8640  141.8030 C   0  0  0  0  0  2  0  0  0  0  0  0
  186.3150  177.8930  143.1590 N   0  0  0  0  0  0  0  0  0  0  0  0
  190.5050  177.6810  141.1410 N   0  0  0  0  0  0  0  0  0  0  0  0
  189.0480  177.8580  142.9660 N   0  0  0  0  0  0  0  0  0  0  0  0
  186.8170  177.7930  145.5740 N   0  0  0  0  0  0  0  0  0  0  0  0
  182.7460  178.7340  142.3300 C   0  0  0  0  0  0  0  0  0  0  0  0
  182.2670  179.1320  143.5800 C   0  0  0  0  0  3  0  0  0  0  0  0
  184.9400  178.3060  143.2970 C   0  0  0  0  0  0  0  0  0  0  0  0
  183.1160  179.1220  144.6890 C   0  0  0  0  0  3  0  0  0  0  0  0
  184.0750  178.3260  142.1890 C   0  0  0  0  0  3  0  0  0  0  0  0
  184.4440  178.7140  144.5470 C   0  0  0  0  0  3  0  0  0  0  0  0
  181.8440  178.7450  141.1490 C   0  0  0  0  0  1  0  0  0  0  0  0
  191.4690  176.7830  139.1190 C   0  0  0  0  0  3  0  0  0  0  0  0
  191.6220  177.3080  140.3270 C   0  0  0  0  0  3  0  0  0  0  0  0
  192.6610  176.4190  138.3070 C   0  0  0  0  0  2  0  0  0  0  0  0
  192.4410  175.0710  137.6220 C   0  0  2  0  0  3  0  0  0  0  0  0
  193.7120  174.2170  137.6150 C   0  0  0  0  0  2  0  0  0  0  0  0
  193.9440  174.8170  135.2600 N   0  0  0  0  0  2  0  0  0  0  0  0
  192.8410  175.7550  135.4560 C   0  0  0  0  0  2  0  0  0  0  0  0
  191.8790  175.2010  136.3260 O   0  0  0  0  0  0  0  0  0  0  0  0
  194.6580  174.7120  136.5270 C   0  0  0  0  0  2  0  0  0  0  0  0
  1 12  1  0  0  0  0
  1 10  1  0  0  0  0
  2  8  1  0  0  0  0
  2  6  2  0  0  0  0
  3 11  1  0  0  0  0
  3  8  1  1  0  0  0
  4  9  1  6  0  0  0
  4 17  1  0  0  0  0
  5 10  2  0  0  0  0
  6  5  1  0  0  0  0
  7 17  1  0  0  0  0
  7 13  2  0  0  0  0
  8  1  2  0  0  0  0
  9 16  1  0  0  0  0
 11 18  1  1  0  0  0
 13  2  1  0  0  0  0
 14  4  1  0  0  0  0
 14 15  1  0  0  0  0
 15 21  1  0  0  0  0
 15 11  1  0  0  0  0
 16  7  1  0  0  0  0
 17  3  1  0  0  0  0
 18 12  2  0  0  0  0
 19 20  1  0  0  0  0
 20 22  2  0  0  0  0
 21 24  2  0  0  0  0
 23 19  2  0  0  0  0
 23 21  1  0  0  0  0
 24 22  1  0  0  0  0
 25 19  1  0  0  0  0
 26 27  2  0  0  0  0
 27 16  1  0  0  0  0
 28 26  1  0  0  0  0
 29 28  1  6  0  0  0
 30 29  1  0  0  0  0
 31 32  1  0  0  0  0
 31 34  1  0  0  0  0
 32 33  1  0  0  0  0
 33 29  1  0  0  0  0
 34 30  1  0  0  0  0
M  END
>  <MODEL>
1

>  <REMARK>
 VINA RESULT:     -10.7      0.000      0.000
  Name = 
  4 active torsions:
  status: ('A' for Active; 'I' for Inactive)
    1  A    between atoms: C_3  and  C_13
    2  A    between atoms: C_11  and  C_13
    3  A    between atoms: C_12  and  N_28
    4  A    between atoms: C_17  and  N_29
                            x       y       z     vdW  Elec       q    Type
                         _______ _______ _______ _____ _____    ______ ____

>  <TORSDO>
F 4

$$$$
=
 OpenBabel10262419113D

 34 40  0  0  1  0  0  0  0  0999 V2000
  190.6350  176.9870  145.5750 C   0  0  0  0  0  0  0  0  0  0  0  0
  188.3910  177.8530  145.9810 C   0  0  0  0  0  0  0  0  0  0  0  0
  189.3540  178.1020  143.7310 C   0  0  1  0  0  3  0  0  0  0  0  0
  187.6570  177.4990  141.9100 C   0  0  1  0  0  3  0  0  0  0  0  0
  189.6740  176.9090  147.8040 C   0  0  0  0  0  3  0  0  0  0  0  0
  188.4890  177.4950  147.3280 C   0  0  0  0  0  3  0  0  0  0  0  0
  186.9840  177.9570  144.0760 C   0  0  0  0  0  0  0  0  0  0  0  0
  189.5230  177.7080  145.1520 C   0  0  0  0  0  0  0  0  0  0  0  0
  186.3000  178.2450  141.8770 C   0  0  0  0  0  2  0  0  0  0  0  0
  190.7280  176.6130  146.9210 C   0  0  0  0  0  3  0  0  0  0  0  0
  190.5220  177.7970  142.7870 C   0  0  2  0  0  3  0  0  0  0  0  0
  191.5360  176.4260  144.5520 C   0  0  0  0  0  3  0  0  0  0  0  0
  187.1100  178.1470  145.3660 N   0  0  0  0  0  0  0  0  0  0  0  0
  188.7370  178.0690  140.9940 C   0  0  0  0  0  2  0  0  0  0  0  0
  190.0650  177.5630  141.3970 N   0  0  0  0  0  0  0  0  0  0  0  0
  185.8780  178.3440  143.2780 N   0  0  0  0  0  0  0  0  0  0  0  0
  188.0850  177.5610  143.2920 N   0  0  0  0  0  0  0  0  0  0  0  0
  191.4190  176.7430  143.2910 N   0  0  0  0  0  0  0  0  0  0  0  0
  191.4750  176.0460  138.2600 C   0  0  0  0  0  0  0  0  0  0  0  0
  192.8130  176.4320  138.3530 C   0  0  0  0  0  3  0  0  0  0  0  0
  190.9910  177.1810  140.3590 C   0  0  0  0  0  0  0  0  0  0  0  0
  193.2480  177.1880  139.4440 C   0  0  0  0  0  3  0  0  0  0  0  0
  190.5690  176.4170  139.2580 C   0  0  0  0  0  3  0  0  0  0  0  0
  192.3430  177.5580  140.4420 C   0  0  0  0  0  3  0  0  0  0  0  0
  191.0120  175.2410  137.0990 C   0  0  0  0  0  1  0  0  0  0  0  0
  183.4890  178.6490  143.1280 C   0  0  0  0  0  3  0  0  0  0  0  0
  184.6500  178.9480  143.6960 C   0  0  0  0  0  3  0  0  0  0  0  0
  182.2370  179.2970  143.6030 C   0  0  0  0  0  2  0  0  0  0  0  0
  181.0190  178.5750  143.0290 C   0  0  2  0  0  3  0  0  0  0  0  0
  181.1050  178.4260  141.5070 C   0  0  0  0  0  2  0  0  0  0  0  0
  179.4750  180.2390  141.3700 N   0  0  0  0  0  2  0  0  0  0  0  0
  179.6420  180.4130  142.8110 C   0  0  0  0  0  2  0  0  0  0  0  0
  179.7930  179.1580  143.4390 O   0  0  0  0  0  0  0  0  0  0  0  0
  180.7420  179.7490  140.8400 C   0  0  0  0  0  2  0  0  0  0  0  0
  1 10  1  0  0  0  0
  2  6  2  0  0  0  0
  3  8  1  1  0  0  0
  4 14  1  6  0  0  0
  4 17  1  0  0  0  0
  6  5  1  0  0  0  0
  7 13  2  0  0  0  0
  8  1  2  0  0  0  0
  8  2  1  0  0  0  0
  9  4  1  0  0  0  0
  9 16  1  0  0  0  0
 10  5  2  0  0  0  0
 11 18  1  1  0  0  0
 11  3  1  0  0  0  0
 12  1  1  0  0  0  0
 13  2  1  0  0  0  0
 14 15  1  0  0  0  0
 15 11  1  0  0  0  0
 16 27  1  0  0  0  0
 16  7  1  0  0  0  0
 17  3  1  0  0  0  0
 17  7  1  0  0  0  0
 18 12  2  0  0  0  0
 19 20  2  0  0  0  0
 19 23  1  0  0  0  0
 20 22  1  0  0  0  0
 21 24  1  0  0  0  0
 21 15  1  0  0  0  0
 22 24  2  0  0  0  0
 23 21  2  0  0  0  0
 25 19  1  0  0  0  0
 26 28  1  0  0  0  0
 26 27  2  0  0  0  0
 29 33  1  0  0  0  0
 29 28  1  6  0  0  0
 30 29  1  0  0  0  0
 31 32  1  0  0  0  0
 32 33  1  0  0  0  0
 34 31  1  0  0  0  0
 34 30  1  0  0  0  0
M  END
>  <MODEL>
2

>  <REMARK>
 VINA RESULT:     -10.3      3.057      8.569
  Name = 
  4 active torsions:
  status: ('A' for Active; 'I' for Inactive)
    1  A    between atoms: C_3  and  C_13
    2  A    between atoms: C_11  and  C_13
    3  A    between atoms: C_12  and  N_28
    4  A    between atoms: C_17  and  N_29
                            x       y       z     vdW  Elec       q    Type
                         _______ _______ _______ _____ _____    ______ ____

>  <TORSDO>
F 4

$$$$
=
 OpenBabel10262419113D

 34 40  0  0  1  0  0  0  0  0999 V2000
  187.7840  177.7120  145.6010 C   0  0  0  0  0  0  0  0  0  0  0  0
  189.4700  177.3410  143.8790 C   0  0  0  0  0  0  0  0  0  0  0  0
  187.1020  177.3730  143.2130 C   0  0  1  0  0  3  0  0  0  0  0  0
  186.7430  178.7540  141.0850 C   0  0  1  0  0  3  0  0  0  0  0  0
  190.1290  177.5210  146.2010 C   0  0  0  0  0  3  0  0  0  0  0  0
  190.4750  177.3570  144.8500 C   0  0  0  0  0  3  0  0  0  0  0  0
  188.8460  178.0030  141.6900 C   0  0  0  0  0  0  0  0  0  0  0  0
  188.1220  177.3900  144.2910 C   0  0  0  0  0  0  0  0  0  0  0  0
  187.5380  178.3810  139.8100 C   0  0  0  0  0  2  0  0  0  0  0  0
  188.7910  177.7440  146.5730 C   0  0  0  0  0  3  0  0  0  0  0  0
  185.6460  177.5910  143.6370 C   0  0  2  0  0  3  0  0  0  0  0  0
  186.4370  178.2520  145.8650 C   0  0  0  0  0  3  0  0  0  0  0  0
  189.7750  177.5070  142.4700 N   0  0  0  0  0  0  0  0  0  0  0  0
  185.3390  178.1590  141.1760 C   0  0  0  0  0  2  0  0  0  0  0  0
  184.8460  178.2300  142.5670 N   0  0  0  0  0  0  0  0  0  0  0  0
  188.8960  178.0790  140.2750 N   0  0  0  0  0  0  0  0  0  0  0  0
  187.5590  178.2870  142.1860 N   0  0  0  0  0  0  0  0  0  0  0  0
  185.5130  178.2600  144.9430 N   0  0  0  0  0  0  0  0  0  0  0  0
  181.2970  179.2870  141.9180 C   0  0  0  0  0  0  0  0  0  0  0  0
  180.7880  179.3310  143.2170 C   0  0  0  0  0  3  0  0  0  0  0  0
  183.4680  178.5980  142.7800 C   0  0  0  0  0  0  0  0  0  0  0  0
  181.6110  179.0130  144.3010 C   0  0  0  0  0  3  0  0  0  0  0  0
  182.6300  178.9250  141.7010 C   0  0  0  0  0  3  0  0  0  0  0  0
  182.9430  178.6510  144.0830 C   0  0  0  0  0  3  0  0  0  0  0  0
  180.4230  179.6260  140.7650 C   0  0  0  0  0  1  0  0  0  0  0  0
  189.7570  177.1100  138.2390 C   0  0  0  0  0  3  0  0  0  0  0  0
  189.9690  177.7100  139.4030 C   0  0  0  0  0  3  0  0  0  0  0  0
  190.9050  176.7530  137.3640 C   0  0  0  0  0  2  0  0  0  0  0  0
  191.8720  175.8340  138.1090 C   0  0  2  0  0  3  0  0  0  0  0  0
  193.3040  175.9560  137.5790 C   0  0  0  0  0  2  0  0  0  0  0  0
  192.9260  173.8230  136.4510 N   0  0  0  0  0  2  0  0  0  0  0  0
  191.5250  173.9320  136.8510 C   0  0  0  0  0  2  0  0  0  0  0  0
  191.4290  174.4870  138.1450 O   0  0  0  0  0  0  0  0  0  0  0  0
  193.4350  175.1780  136.2740 C   0  0  0  0  0  2  0  0  0  0  0  0
  1 12  1  0  0  0  0
  1 10  1  0  0  0  0
  2  8  1  0  0  0  0
  2  6  2  0  0  0  0
  3 11  1  0  0  0  0
  3  8  1  1  0  0  0
  4  9  1  6  0  0  0
  4 14  1  0  0  0  0
  4 17  1  0  0  0  0
  5 10  2  0  0  0  0
  6  5  1  0  0  0  0
  7 17  1  0  0  0  0
  7 13  2  0  0  0  0
  8  1  2  0  0  0  0
  9 16  1  0  0  0  0
 11 18  1  1  0  0  0
 13  2  1  0  0  0  0
 14 15  1  0  0  0  0
 15 21  1  0  0  0  0
 15 11  1  0  0  0  0
 16  7  1  0  0  0  0
 17  3  1  0  0  0  0
 18 12  2  0  0  0  0
 19 20  1  0  0  0  0
 20 22  2  0  0  0  0
 21 24  2  0  0  0  0
 23 19  2  0  0  0  0
 23 21  1  0  0  0  0
 24 22  1  0  0  0  0
 25 19  1  0  0  0  0
 26 27  2  0  0  0  0
 27 16  1  0  0  0  0
 28 26  1  0  0  0  0
 29 28  1  6  0  0  0
 29 33  1  0  0  0  0
 30 29  1  0  0  0  0
 31 32  1  0  0  0  0
 32 33  1  0  0  0  0
 34 31  1  0  0  0  0
 34 30  1  0  0  0  0
M  END
>  <MODEL>
3

>  <REMARK>
 VINA RESULT:      -9.6      1.347      1.722
  Name = 
  4 active torsions:
  status: ('A' for Active; 'I' for Inactive)
    1  A    between atoms: C_3  and  C_13
    2  A    between atoms: C_11  and  C_13
    3  A    between atoms: C_12  and  N_28
    4  A    between atoms: C_17  and  N_29
                            x       y       z     vdW  Elec       q    Type
                         _______ _______ _______ _____ _____    ______ ____

>  <TORSDO>
F 4

$$$$
=
 OpenBabel10262419113D

 34 40  0  0  1  0  0  0  0  0999 V2000
  190.4640  177.1230  140.6550 C   0  0  0  0  0  0  0  0  0  0  0  0
  188.6330  177.5780  139.1090 C   0  0  0  0  0  0  0  0  0  0  0  0
  188.0980  177.2050  141.4810 C   0  0  1  0  0  3  0  0  0  0  0  0
  186.4050  178.9220  142.3440 C   0  0  1  0  0  3  0  0  0  0  0  0
  190.8960  177.3580  138.2760 C   0  0  0  0  0  3  0  0  0  0  0  0
  189.5330  177.6030  138.0400 C   0  0  0  0  0  3  0  0  0  0  0  0
  186.7100  178.5690  140.0780 C   0  0  0  0  0  0  0  0  0  0  0  0
  189.1020  177.2080  140.3870 C   0  0  0  0  0  0  0  0  0  0  0  0
  185.0440  179.0590  141.6180 C   0  0  0  0  0  2  0  0  0  0  0  0
  191.3680  177.1630  139.5870 C   0  0  0  0  0  3  0  0  0  0  0  0
  188.6260  176.9650  142.9000 C   0  0  2  0  0  3  0  0  0  0  0  0
  190.9120  177.2520  142.0540 C   0  0  0  0  0  3  0  0  0  0  0  0
  187.3000  178.1380  138.9900 N   0  0  0  0  0  0  0  0  0  0  0  0
  186.4020  178.0070  143.5670 C   0  0  0  0  0  2  0  0  0  0  0  0
  187.7860  177.6300  143.9230 N   0  0  0  0  0  0  0  0  0  0  0  0
  185.3590  178.9860  140.1870 N   0  0  0  0  0  0  0  0  0  0  0  0
  187.3170  178.4150  141.3390 N   0  0  0  0  0  0  0  0  0  0  0  0
  190.0620  177.2570  143.0450 N   0  0  0  0  0  0  0  0  0  0  0  0
  189.7590  177.1550  147.0870 C   0  0  0  0  0  0  0  0  0  0  0  0
  188.8200  177.5340  148.0480 C   0  0  0  0  0  3  0  0  0  0  0  0
  188.1440  177.6010  145.3190 C   0  0  0  0  0  0  0  0  0  0  0  0
  187.5440  177.9440  147.6550 C   0  0  0  0  0  3  0  0  0  0  0  0
  189.4220  177.1860  145.7310 C   0  0  0  0  0  3  0  0  0  0  0  0
  187.2080  177.9750  146.2990 C   0  0  0  0  0  3  0  0  0  0  0  0
  191.1170  176.7180  147.5050 C   0  0  0  0  0  1  0  0  0  0  0  0
  183.1110  179.3940  139.4110 C   0  0  0  0  0  3  0  0  0  0  0  0
  184.3780  179.0980  139.1520 C   0  0  0  0  0  3  0  0  0  0  0  0
  182.1290  179.5080  138.2990 C   0  0  0  0  0  2  0  0  0  0  0  0
  180.8240  180.1160  138.8100 C   0  0  2  0  0  3  0  0  0  0  0  0
  179.6590  179.8630  137.8480 C   0  0  0  0  0  2  0  0  0  0  0  0
  179.8970  182.1930  137.1570 N   0  0  0  0  0  2  0  0  0  0  0  0
  181.1170  182.2400  137.9590 C   0  0  0  0  0  2  0  0  0  0  0  0
  180.9520  181.4890  139.1430 O   0  0  0  0  0  0  0  0  0  0  0  0
  179.7480  180.8270  136.6690 C   0  0  0  0  0  2  0  0  0  0  0  0
  1 12  1  0  0  0  0
  2  8  2  0  0  0  0
  3  8  1  6  0  0  0
  3 11  1  0  0  0  0
  4  9  1  6  0  0  0
  4 14  1  0  0  0  0
  5 10  1  0  0  0  0
  6  5  2  0  0  0  0
  6  2  1  0  0  0  0
  7 16  1  0  0  0  0
  7 17  1  0  0  0  0
  8  1  1  0  0  0  0
 10  1  2  0  0  0  0
 11 18  1  6  0  0  0
 11 15  1  0  0  0  0
 12 18  2  0  0  0  0
 13  2  1  0  0  0  0
 13  7  2  0  0  0  0
 14 15  1  0  0  0  0
 15 21  1  0  0  0  0
 16  9  1  0  0  0  0
 17  3  1  0  0  0  0
 17  4  1  0  0  0  0
 19 25  1  0  0  0  0
 19 20  1  0  0  0  0
 21 23  1  0  0  0  0
 21 24  2  0  0  0  0
 22 20  2  0  0  0  0
 23 19  2  0  0  0  0
 24 22  1  0  0  0  0
 27 26  2  0  0  0  0
 27 16  1  0  0  0  0
 28 26  1  0  0  0  0
 29 28  1  6  0  0  0
 29 33  1  0  0  0  0
 30 29  1  0  0  0  0
 31 32  1  0  0  0  0
 32 33  1  0  0  0  0
 34 31  1  0  0  0  0
 34 30  1  0  0  0  0
M  END
>  <MODEL>
4

>  <REMARK>
 VINA RESULT:      -9.5      3.549      8.335
  Name = 
  4 active torsions:
  status: ('A' for Active; 'I' for Inactive)
    1  A    between atoms: C_3  and  C_13
    2  A    between atoms: C_11  and  C_13
    3  A    between atoms: C_12  and  N_28
    4  A    between atoms: C_17  and  N_29
                            x       y       z     vdW  Elec       q    Type
                         _______ _______ _______ _____ _____    ______ ____

>  <TORSDO>
F 4

$$$$
=
 OpenBabel10262419113D

 34 40  0  0  1  0  0  0  0  0999 V2000
  188.4020  177.8410  139.1280 C   0  0  0  0  0  0  0  0  0  0  0  0
  189.3460  177.7820  141.3760 C   0  0  0  0  0  0  0  0  0  0  0  0
  187.0870  178.7100  141.0780 C   0  0  1  0  0  3  0  0  0  0  0  0
  185.4720  177.8450  142.8670 C   0  0  1  0  0  3  0  0  0  0  0  0
  190.6800  177.0750  139.4830 C   0  0  0  0  0  3  0  0  0  0  0  0
  190.5440  177.2730  140.8680 C   0  0  0  0  0  3  0  0  0  0  0  0
  187.7640  177.6850  143.1380 C   0  0  0  0  0  0  0  0  0  0  0  0
  188.3370  178.1810  140.4750 C   0  0  0  0  0  0  0  0  0  0  0  0
  185.8260  178.0590  144.3590 C   0  0  0  0  0  2  0  0  0  0  0  0
  189.5960  177.3150  138.6200 C   0  0  0  0  0  3  0  0  0  0  0  0
  185.9250  178.9910  140.1200 C   0  0  2  0  0  3  0  0  0  0  0  0
  187.1480  177.8050  138.3530 C   0  0  0  0  0  3  0  0  0  0  0  0
  189.0270  177.6990  142.7900 N   0  0  0  0  0  0  0  0  0  0  0  0
  184.5490  178.8980  142.2580 C   0  0  0  0  0  2  0  0  0  0  0  0
  184.6100  178.8350  140.7830 N   0  0  0  0  0  0  0  0  0  0  0  0
  187.2620  177.7780  144.4610 N   0  0  0  0  0  0  0  0  0  0  0  0
  186.7460  177.8330  142.1780 N   0  0  0  0  0  0  0  0  0  0  0  0
  186.0270  178.2560  138.8480 N   0  0  0  0  0  0  0  0  0  0  0  0
  181.1270  178.2170  139.5110 C   0  0  0  0  0  0  0  0  0  0  0  0
  180.9900  179.2550  138.5870 C   0  0  0  0  0  3  0  0  0  0  0  0
  183.3780  178.9760  140.0460 C   0  0  0  0  0  0  0  0  0  0  0  0
  182.0410  180.1520  138.3850 C   0  0  0  0  0  3  0  0  0  0  0  0
  182.3140  178.0770  140.2350 C   0  0  0  0  0  3  0  0  0  0  0  0
  183.2280  180.0120  139.1080 C   0  0  0  0  0  3  0  0  0  0  0  0
  180.0090  177.2610  139.7270 C   0  0  0  0  0  1  0  0  0  0  0  0
  188.8440  176.8790  146.0460 C   0  0  0  0  0  3  0  0  0  0  0  0
  187.9960  177.8340  145.6880 C   0  0  0  0  0  3  0  0  0  0  0  0
  189.5910  176.9860  147.3280 C   0  0  0  0  0  2  0  0  0  0  0  0
  191.0250  177.4440  147.0660 C   0  0  2  0  0  3  0  0  0  0  0  0
  191.5080  177.0430  145.6680 C   0  0  0  0  0  2  0  0  0  0  0  0
  192.7960  175.2810  146.7640 N   0  0  0  0  0  2  0  0  0  0  0  0
  192.1050  175.6330  148.0020 C   0  0  0  0  0  2  0  0  0  0  0  0
  191.9260  177.0310  148.0800 O   0  0  0  0  0  0  0  0  0  0  0  0
  191.8870  175.5660  145.6600 C   0  0  0  0  0  2  0  0  0  0  0  0
  1  8  1  0  0  0  0
  2 13  1  0  0  0  0
  3  8  1  6  0  0  0
  3 17  1  0  0  0  0
  4 14  1  6  0  0  0
  4  9  1  0  0  0  0
  5  6  2  0  0  0  0
  6  2  1  0  0  0  0
  7 16  1  0  0  0  0
  8  2  2  0  0  0  0
  9 16  1  0  0  0  0
 10  1  2  0  0  0  0
 10  5  1  0  0  0  0
 11 18  1  6  0  0  0
 11 15  1  0  0  0  0
 11  3  1  0  0  0  0
 12 18  2  0  0  0  0
 12  1  1  0  0  0  0
 13  7  2  0  0  0  0
 15 14  1  0  0  0  0
 16 27  1  0  0  0  0
 17  4  1  0  0  0  0
 17  7  1  0  0  0  0
 19 25  1  0  0  0  0
 19 23  1  0  0  0  0
 20 19  2  0  0  0  0
 21 23  2  0  0  0  0
 21 15  1  0  0  0  0
 22 20  1  0  0  0  0
 22 24  2  0  0  0  0
 24 21  1  0  0  0  0
 26 28  1  0  0  0  0
 27 26  2  0  0  0  0
 29 28  1  1  0  0  0
 29 33  1  0  0  0  0
 30 29  1  0  0  0  0
 31 32  1  0  0  0  0
 32 33  1  0  0  0  0
 34 30  1  0  0  0  0
 34 31  1  0  0  0  0
M  END
>  <MODEL>
5

>  <REMARK>
 VINA RESULT:      -9.3      3.308      6.688
  Name = 
  4 active torsions:
  status: ('A' for Active; 'I' for Inactive)
    1  A    between atoms: C_3  and  C_13
    2  A    between atoms: C_11  and  C_13
    3  A    between atoms: C_12  and  N_28
    4  A    between atoms: C_17  and  N_29
                            x       y       z     vdW  Elec       q    Type
                         _______ _______ _______ _____ _____    ______ ____

>  <TORSDO>
F 4

$$$$
=
 OpenBabel10262419113D

 34 40  0  0  1  0  0  0  0  0999 V2000
  190.4190  177.2200  140.7320 C   0  0  0  0  0  0  0  0  0  0  0  0
  188.5310  177.6700  139.2550 C   0  0  0  0  0  0  0  0  0  0  0  0
  188.0810  177.2470  141.6370 C   0  0  1  0  0  3  0  0  0  0  0  0
  186.3880  178.9200  142.5850 C   0  0  1  0  0  3  0  0  0  0  0  0
  190.7680  177.5030  138.3450 C   0  0  0  0  0  3  0  0  0  0  0  0
  189.3940  177.7280  138.1580 C   0  0  0  0  0  3  0  0  0  0  0  0
  186.6240  178.6110  140.3040 C   0  0  0  0  0  0  0  0  0  0  0  0
  189.0470  177.2870  140.5100 C   0  0  0  0  0  0  0  0  0  0  0  0
  185.0020  179.0460  141.9060 C   0  0  0  0  0  2  0  0  0  0  0  0
  191.2860  177.2940  139.6360 C   0  0  0  0  0  3  0  0  0  0  0  0
  188.6590  176.9930  143.0330 C   0  0  2  0  0  3  0  0  0  0  0  0
  190.9100  177.3330  142.1180 C   0  0  0  0  0  3  0  0  0  0  0  0
  187.1850  178.2090  139.1900 N   0  0  0  0  0  0  0  0  0  0  0  0
  186.4410  177.9850  143.7910 C   0  0  0  0  0  2  0  0  0  0  0  0
  187.8420  177.6260  144.0940 N   0  0  0  0  0  0  0  0  0  0  0  0
  185.2710  179.0030  140.4650 N   0  0  0  0  0  0  0  0  0  0  0  0
  187.2750  178.4470  141.5420 N   0  0  0  0  0  0  0  0  0  0  0  0
  190.0940  177.3070  143.1360 N   0  0  0  0  0  0  0  0  0  0  0  0
  189.9260  177.1310  147.1840 C   0  0  0  0  0  0  0  0  0  0  0  0
  189.0130  177.4780  148.1820 C   0  0  0  0  0  3  0  0  0  0  0  0
  188.2460  177.5790  145.4780 C   0  0  0  0  0  0  0  0  0  0  0  0
  187.7190  177.8730  147.8370 C   0  0  0  0  0  3  0  0  0  0  0  0
  189.5440  177.1790  145.8400 C   0  0  0  0  0  3  0  0  0  0  0  0
  187.3370  177.9220  146.4940 C   0  0  0  0  0  3  0  0  0  0  0  0
  191.3030  176.7090  147.5490 C   0  0  0  0  0  1  0  0  0  0  0  0
  182.9770  178.8710  139.7270 C   0  0  0  0  0  3  0  0  0  0  0  0
  184.2550  179.1150  139.4640 C   0  0  0  0  0  3  0  0  0  0  0  0
  181.9550  179.0100  138.6550 C   0  0  0  0  0  2  0  0  0  0  0  0
  180.5530  178.8400  139.2380 C   0  0  2  0  0  3  0  0  0  0  0  0
  180.5150  177.7760  140.3390 C   0  0  0  0  0  2  0  0  0  0  0  0
  179.4700  176.3040  138.6940 N   0  0  0  0  0  2  0  0  0  0  0  0
  179.7540  177.3280  137.6920 C   0  0  0  0  0  2  0  0  0  0  0  0
  179.5690  178.6140  138.2430 O   0  0  0  0  0  0  0  0  0  0  0  0
  180.5140  176.3870  139.7100 C   0  0  0  0  0  2  0  0  0  0  0  0
  1 12  1  0  0  0  0
  2  8  2  0  0  0  0
  3  8  1  6  0  0  0
  3 11  1  0  0  0  0
  4  9  1  6  0  0  0
  4 14  1  0  0  0  0
  5 10  1  0  0  0  0
  6  5  2  0  0  0  0
  6  2  1  0  0  0  0
  7 16  1  0  0  0  0
  7 17  1  0  0  0  0
  8  1  1  0  0  0  0
 10  1  2  0  0  0  0
 11 18  1  6  0  0  0
 11 15  1  0  0  0  0
 12 18  2  0  0  0  0
 13  2  1  0  0  0  0
 13  7  2  0  0  0  0
 14 15  1  0  0  0  0
 15 21  1  0  0  0  0
 16  9  1  0  0  0  0
 17  3  1  0  0  0  0
 17  4  1  0  0  0  0
 19 25  1  0  0  0  0
 19 20  1  0  0  0  0
 21 23  1  0  0  0  0
 21 24  2  0  0  0  0
 22 20  2  0  0  0  0
 23 19  2  0  0  0  0
 24 22  1  0  0  0  0
 27 26  2  0  0  0  0
 27 16  1  0  0  0  0
 28 26  1  0  0  0  0
 29 28  1  6  0  0  0
 29 30  1  0  0  0  0
 31 34  1  0  0  0  0
 32 33  1  0  0  0  0
 32 31  1  0  0  0  0
 33 29  1  0  0  0  0
 34 30  1  0  0  0  0
M  END
>  <MODEL>
6

>  <REMARK>
 VINA RESULT:      -9.2      3.357      8.141
  Name = 
  4 active torsions:
  status: ('A' for Active; 'I' for Inactive)
    1  A    between atoms: C_3  and  C_13
    2  A    between atoms: C_11  and  C_13
    3  A    between atoms: C_12  and  N_28
    4  A    between atoms: C_17  and  N_29
                            x       y       z     vdW  Elec       q    Type
                         _______ _______ _______ _____ _____    ______ ____

>  <TORSDO>
F 4

$$$$
=
 OpenBabel10262419113D

 34 40  0  0  1  0  0  0  0  0999 V2000
  185.2780  178.6190  141.4070 C   0  0  0  0  0  0  0  0  0  0  0  0
  186.5060  178.4680  139.3050 C   0  0  0  0  0  0  0  0  0  0  0  0
  187.7830  178.5110  141.4080 C   0  0  1  0  0  3  0  0  0  0  0  0
  189.6470  176.7540  141.4110 C   0  0  1  0  0  3  0  0  0  0  0  0
  184.0980  178.7190  139.2870 C   0  0  0  0  0  3  0  0  0  0  0  0
  185.3080  178.5650  138.5910 C   0  0  0  0  0  3  0  0  0  0  0  0
  188.6290  177.4220  139.4440 C   0  0  0  0  0  0  0  0  0  0  0  0
  186.4790  178.6280  140.7060 C   0  0  0  0  0  0  0  0  0  0  0  0
  190.6980  176.7790  140.2740 C   0  0  0  0  0  2  0  0  0  0  0  0
  184.0770  178.7000  140.6930 C   0  0  0  0  0  3  0  0  0  0  0  0
  187.7450  178.5190  142.9400 C   0  0  2  0  0  3  0  0  0  0  0  0
  185.3050  178.2690  142.8390 C   0  0  0  0  0  3  0  0  0  0  0  0
  187.7230  177.9850  138.6810 N   0  0  0  0  0  0  0  0  0  0  0  0
  190.0540  177.4790  142.6920 C   0  0  0  0  0  2  0  0  0  0  0  0
  188.8640  177.7450  143.5260 N   0  0  0  0  0  0  0  0  0  0  0  0
  189.9380  177.0480  139.0490 N   0  0  0  0  0  0  0  0  0  0  0  0
  188.4640  177.3660  140.8410 N   0  0  0  0  0  0  0  0  0  0  0  0
  186.4300  178.1520  143.4920 N   0  0  0  0  0  0  0  0  0  0  0  0
  190.2630  176.8850  146.9070 C   0  0  0  0  0  0  0  0  0  0  0  0
  189.1730  177.1750  147.7300 C   0  0  0  0  0  3  0  0  0  0  0  0
  188.9770  177.5550  144.9510 C   0  0  0  0  0  0  0  0  0  0  0  0
  187.9840  177.6510  147.1730 C   0  0  0  0  0  3  0  0  0  0  0  0
  190.1650  177.0720  145.5250 C   0  0  0  0  0  3  0  0  0  0  0  0
  187.8860  177.8380  145.7920 C   0  0  0  0  0  3  0  0  0  0  0  0
  191.5280  176.3770  147.4990 C   0  0  0  0  0  1  0  0  0  0  0  0
  190.7880  176.0470  137.0250 C   0  0  0  0  0  3  0  0  0  0  0  0
  190.5310  177.1280  137.7490 C   0  0  0  0  0  3  0  0  0  0  0  0
  191.3980  176.1810  135.6740 C   0  0  0  0  0  2  0  0  0  0  0  0
  192.4130  175.0640  135.4410 C   0  0  2  0  0  3  0  0  0  0  0  0
  192.8830  174.4320  136.7550 C   0  0  0  0  0  2  0  0  0  0  0  0
  194.9520  175.6960  136.4690 N   0  0  0  0  0  2  0  0  0  0  0  0
  194.3060  176.3780  135.3500 C   0  0  0  0  0  2  0  0  0  0  0  0
  193.5000  175.4720  134.6270 O   0  0  0  0  0  0  0  0  0  0  0  0
  193.9090  175.3410  137.4230 C   0  0  0  0  0  2  0  0  0  0  0  0
  1 12  1  0  0  0  0
  2  8  2  0  0  0  0
  3  8  1  6  0  0  0
  3 11  1  0  0  0  0
  4  9  1  6  0  0  0
  4 14  1  0  0  0  0
  5 10  1  0  0  0  0
  6  5  2  0  0  0  0
  6  2  1  0  0  0  0
  7 17  1  0  0  0  0
  8  1  1  0  0  0  0
 10  1  2  0  0  0  0
 11 18  1  6  0  0  0
 11 15  1  0  0  0  0
 12 18  2  0  0  0  0
 13  2  1  0  0  0  0
 13  7  2  0  0  0  0
 14 15  1  0  0  0  0
 15 21  1  0  0  0  0
 16  7  1  0  0  0  0
 16  9  1  0  0  0  0
 17  3  1  0  0  0  0
 17  4  1  0  0  0  0
 19 25  1  0  0  0  0
 19 20  1  0  0  0  0
 21 23  1  0  0  0  0
 21 24  2  0  0  0  0
 22 20  2  0  0  0  0
 23 19  2  0  0  0  0
 24 22  1  0  0  0  0
 26 27  2  0  0  0  0
 27 16  1  0  0  0  0
 28 26  1  0  0  0  0
 29 28  1  1  0  0  0
 29 30  1  0  0  0  0
 30 34  1  0  0  0  0
 31 34  1  0  0  0  0
 32 31  1  0  0  0  0
 33 32  1  0  0  0  0
 33 29  1  0  0  0  0
M  END
>  <MODEL>
7

>  <REMARK>
 VINA RESULT:      -9.1      1.674      5.384
  Name = 
  4 active torsions:
  status: ('A' for Active; 'I' for Inactive)
    1  A    between atoms: C_3  and  C_13
    2  A    between atoms: C_11  and  C_13
    3  A    between atoms: C_12  and  N_28
    4  A    between atoms: C_17  and  N_29
                            x       y       z     vdW  Elec       q    Type
                         _______ _______ _______ _____ _____    ______ ____

>  <TORSDO>
F 4

$$$$
=
 OpenBabel10262419113D

 34 40  0  0  1  0  0  0  0  0999 V2000
  182.3950  178.6850  142.9240 C   0  0  0  0  0  0  0  0  0  0  0  0
  184.8030  178.3990  143.1870 C   0  0  0  0  0  0  0  0  0  0  0  0
  183.7980  177.9150  140.9940 C   0  0  1  0  0  3  0  0  0  0  0  0
  185.1840  178.9140  139.0850 C   0  0  1  0  0  3  0  0  0  0  0  0
  183.4380  179.0020  145.0940 C   0  0  0  0  0  3  0  0  0  0  0  0
  184.7000  178.7250  144.5430 C   0  0  0  0  0  3  0  0  0  0  0  0
  186.0760  178.6410  141.2020 C   0  0  0  0  0  0  0  0  0  0  0  0
  183.6220  178.2590  142.4280 C   0  0  0  0  0  0  0  0  0  0  0  0
  186.6780  178.5250  138.9640 C   0  0  0  0  0  2  0  0  0  0  0  0
  182.2930  179.0270  144.2770 C   0  0  0  0  0  3  0  0  0  0  0  0
  182.5370  177.9220  140.1240 C   0  0  2  0  0  3  0  0  0  0  0  0
  181.3240  179.0040  141.9620 C   0  0  0  0  0  3  0  0  0  0  0  0
  186.0780  178.4290  142.4960 N   0  0  0  0  0  0  0  0  0  0  0  0
  184.2240  178.0930  138.2260 C   0  0  0  0  0  2  0  0  0  0  0  0
  182.8390  178.2580  138.7130 N   0  0  0  0  0  0  0  0  0  0  0  0
  187.1940  178.5360  140.3370 N   0  0  0  0  0  0  0  0  0  0  0  0
  184.8670  178.7520  140.4890 N   0  0  0  0  0  0  0  0  0  0  0  0
  181.4400  178.7230  140.6920 N   0  0  0  0  0  0  0  0  0  0  0  0
  180.4820  179.7690  136.2040 C   0  0  0  0  0  0  0  0  0  0  0  0
  179.7230  178.6540  135.8430 C   0  0  0  0  0  3  0  0  0  0  0  0
  181.7880  178.3970  137.7360 C   0  0  0  0  0  0  0  0  0  0  0  0
  179.9880  177.4110  136.4240 C   0  0  0  0  0  3  0  0  0  0  0  0
  181.5070  179.6410  137.1460 C   0  0  0  0  0  3  0  0  0  0  0  0
  181.0120  177.2850  137.3650 C   0  0  0  0  0  3  0  0  0  0  0  0
  180.2010  181.0910  135.5880 C   0  0  0  0  0  1  0  0  0  0  0  0
  188.9160  177.1190  141.2570 C   0  0  0  0  0  3  0  0  0  0  0  0
  188.5550  178.2550  140.6750 C   0  0  0  0  0  3  0  0  0  0  0  0
  190.3460  176.8680  141.5820 C   0  0  0  0  0  2  0  0  0  0  0  0
  190.4620  176.1300  142.9140 C   0  0  2  0  0  3  0  0  0  0  0  0
  189.2480  176.3770  143.8150 C   0  0  0  0  0  2  0  0  0  0  0  0
  190.6750  177.8900  145.0960 N   0  0  0  0  0  2  0  0  0  0  0  0
  191.6810  177.7250  144.0490 C   0  0  0  0  0  2  0  0  0  0  0  0
  191.6850  176.3940  143.5830 O   0  0  0  0  0  0  0  0  0  0  0  0
  189.3660  177.7510  144.4680 C   0  0  0  0  0  2  0  0  0  0  0  0
  1 10  1  0  0  0  0
  2  6  2  0  0  0  0
  3  8  1  1  0  0  0
  4 14  1  6  0  0  0
  4 17  1  0  0  0  0
  6  5  1  0  0  0  0
  7 13  2  0  0  0  0
  8  1  2  0  0  0  0
  8  2  1  0  0  0  0
  9  4  1  0  0  0  0
  9 16  1  0  0  0  0
 10  5  2  0  0  0  0
 11 18  1  1  0  0  0
 11  3  1  0  0  0  0
 12  1  1  0  0  0  0
 13  2  1  0  0  0  0
 14 15  1  0  0  0  0
 15 11  1  0  0  0  0
 16 27  1  0  0  0  0
 16  7  1  0  0  0  0
 17  3  1  0  0  0  0
 17  7  1  0  0  0  0
 18 12  2  0  0  0  0
 19 23  1  0  0  0  0
 20 19  2  0  0  0  0
 20 22  1  0  0  0  0
 21 15  1  0  0  0  0
 22 24  2  0  0  0  0
 23 21  2  0  0  0  0
 24 21  1  0  0  0  0
 25 19  1  0  0  0  0
 26 28  1  0  0  0  0
 27 26  2  0  0  0  0
 29 28  1  6  0  0  0
 29 33  1  0  0  0  0
 29 30  1  0  0  0  0
 30 34  1  0  0  0  0
 32 31  1  0  0  0  0
 33 32  1  0  0  0  0
 34 31  1  0  0  0  0
M  END
>  <MODEL>
8

>  <REMARK>
 VINA RESULT:      -8.9      3.451      6.745
  Name = 
  4 active torsions:
  status: ('A' for Active; 'I' for Inactive)
    1  A    between atoms: C_3  and  C_13
    2  A    between atoms: C_11  and  C_13
    3  A    between atoms: C_12  and  N_28
    4  A    between atoms: C_17  and  N_29
                            x       y       z     vdW  Elec       q    Type
                         _______ _______ _______ _____ _____    ______ ____

>  <TORSDO>
F 4

$$$$
=
 OpenBabel10262419113D

 34 40  0  0  1  0  0  0  0  0999 V2000
  184.2090  178.6340  144.5850 C   0  0  0  0  0  0  0  0  0  0  0  0
  186.4870  177.9260  144.0740 C   0  0  0  0  0  0  0  0  0  0  0  0
  184.8310  177.9480  142.2550 C   0  0  1  0  0  3  0  0  0  0  0  0
  185.7940  178.9870  140.1210 C   0  0  1  0  0  3  0  0  0  0  0  0
  185.8610  178.4460  146.3550 C   0  0  0  0  0  3  0  0  0  0  0  0
  186.8360  178.0550  145.4210 C   0  0  0  0  0  3  0  0  0  0  0  0
  187.1720  178.2560  141.8290 C   0  0  0  0  0  0  0  0  0  0  0  0
  185.1370  178.0950  143.7000 C   0  0  0  0  0  0  0  0  0  0  0  0
  187.0850  178.3840  139.5140 C   0  0  0  0  0  2  0  0  0  0  0  0
  184.5620  178.7790  145.9310 C   0  0  0  0  0  3  0  0  0  0  0  0
  183.4040  178.2900  141.8140 C   0  0  2  0  0  3  0  0  0  0  0  0
  182.9970  179.2630  144.0300 C   0  0  0  0  0  3  0  0  0  0  0  0
  187.4960  177.8530  143.0340 N   0  0  0  0  0  0  0  0  0  0  0  0
  184.4880  178.4710  139.5190 C   0  0  0  0  0  2  0  0  0  0  0  0
  183.3570  178.7820  140.4180 N   0  0  0  0  0  0  0  0  0  0  0  0
  187.9580  178.1050  140.6590 N   0  0  0  0  0  0  0  0  0  0  0  0
  185.8590  178.6670  141.5320 N   0  0  0  0  0  0  0  0  0  0  0  0
  182.6930  179.1620  142.7640 N   0  0  0  0  0  0  0  0  0  0  0  0
  180.8640  180.8770  138.5410 C   0  0  0  0  0  0  0  0  0  0  0  0
  179.7050  180.1130  138.6890 C   0  0  0  0  0  3  0  0  0  0  0  0
  182.1240  179.2350  139.8250 C   0  0  0  0  0  0  0  0  0  0  0  0
  179.7460  178.9140  139.4050 C   0  0  0  0  0  3  0  0  0  0  0  0
  182.0650  180.4420  139.1070 C   0  0  0  0  0  3  0  0  0  0  0  0
  180.9470  178.4790  139.9700 C   0  0  0  0  0  3  0  0  0  0  0  0
  180.8210  182.1540  137.7800 C   0  0  0  0  0  1  0  0  0  0  0  0
  189.7140  177.0210  139.4070 C   0  0  0  0  0  3  0  0  0  0  0  0
  189.2750  177.5590  140.5380 C   0  0  0  0  0  3  0  0  0  0  0  0
  191.0950  176.4740  139.3280 C   0  0  0  0  0  2  0  0  0  0  0  0
  191.6920  176.7490  137.9480 C   0  0  2  0  0  3  0  0  0  0  0  0
  190.6820  176.4930  136.8250 C   0  0  0  0  0  2  0  0  0  0  0  0
  191.8940  174.4180  136.3900 N   0  0  0  0  0  2  0  0  0  0  0  0
  192.6540  174.6800  137.6090 C   0  0  0  0  0  2  0  0  0  0  0  0
  192.9140  176.0620  137.7340 O   0  0  0  0  0  0  0  0  0  0  0  0
  190.5660  174.9940  136.5710 C   0  0  0  0  0  2  0  0  0  0  0  0
  1 10  1  0  0  0  0
  2  6  2  0  0  0  0
  3  8  1  1  0  0  0
  4  9  1  6  0  0  0
  4 17  1  0  0  0  0
  6  5  1  0  0  0  0
  7 13  2  0  0  0  0
  8  2  1  0  0  0  0
  8  1  2  0  0  0  0
  9 16  1  0  0  0  0
 10  5  2  0  0  0  0
 11  3  1  0  0  0  0
 11 18  1  1  0  0  0
 12  1  1  0  0  0  0
 13  2  1  0  0  0  0
 14  4  1  0  0  0  0
 14 15  1  0  0  0  0
 15 11  1  0  0  0  0
 16  7  1  0  0  0  0
 17  7  1  0  0  0  0
 17  3  1  0  0  0  0
 18 12  2  0  0  0  0
 19 20  2  0  0  0  0
 19 23  1  0  0  0  0
 20 22  1  0  0  0  0
 21 24  1  0  0  0  0
 21 15  1  0  0  0  0
 22 24  2  0  0  0  0
 23 21  2  0  0  0  0
 25 19  1  0  0  0  0
 26 27  2  0  0  0  0
 27 16  1  0  0  0  0
 28 26  1  0  0  0  0
 29 28  1  1  0  0  0
 30 29  1  0  0  0  0
 31 34  1  0  0  0  0
 31 32  1  0  0  0  0
 32 33  1  0  0  0  0
 33 29  1  0  0  0  0
 34 30  1  0  0  0  0
M  END
>  <MODEL>
9

>  <REMARK>
 VINA RESULT:      -8.9      2.272      4.202
  Name = 
  4 active torsions:
  status: ('A' for Active; 'I' for Inactive)
    1  A    between atoms: C_3  and  C_13
    2  A    between atoms: C_11  and  C_13
    3  A    between atoms: C_12  and  N_28
    4  A    between atoms: C_17  and  N_29
                            x       y       z     vdW  Elec       q    Type
                         _______ _______ _______ _____ _____    ______ ____

>  <TORSDO>
F 4

$$$$
