=
 OpenBabel10262421173D

 32 34  0  0  1  0  0  0  0  0999 V2000
  185.4000  178.7750  143.4030 S   0  0  0  0  0  0  0  0  0  0  0  0
  184.0050  178.3620  144.5000 C   0  0  1  0  0  3  0  0  0  0  0  0
  186.5090  177.8360  144.4630 C   0  0  0  0  0  0  0  0  0  0  0  0
  186.5340  178.0790  145.7820 C   0  0  0  0  0  0  0  0  0  0  0  0
  185.6350  179.1520  146.3450 C   0  0  0  0  0  2  0  0  0  0  0  0
  184.1730  178.9990  145.8910 C   0  0  0  0  0  2  0  0  0  0  0  0
  187.2980  176.7160  143.8650 C   0  0  0  0  0  2  0  0  0  0  0  0
  188.3630  177.2510  142.9700 C   0  0  0  0  0  0  0  0  0  0  0  0
  192.4100  177.3170  141.0950 C   0  0  0  0  0  2  0  0  0  0  0  0
  189.4510  177.7720  143.4240 N   0  0  0  0  0  0  0  0  0  0  0  0
  190.2390  176.8410  140.1080 C   0  0  0  0  0  2  0  0  0  0  0  0
  189.4990  177.7860  141.0530 C   0  0  1  0  0  3  0  0  0  0  0  0
  188.2930  177.1550  141.5600 N   0  0  0  0  0  2  0  0  0  0  0  0
  190.3250  178.1240  142.3150 C   0  0  2  0  0  3  0  0  0  0  0  0
  191.5870  177.3590  139.8740 N   0  0  0  0  0  2  0  0  0  0  0  0
  191.6060  177.2870  142.4070 C   0  0  0  0  0  2  0  0  0  0  0  0
  187.3640  177.3250  146.6170 O   0  0  0  0  0  0  0  0  0  0  0  0
  187.6640  177.7180  147.9470 C   0  0  0  0  0  2  0  0  0  0  0  0
  189.1530  177.9580  148.0740 C   0  0  0  0  0  2  0  0  0  0  0  0
  189.8980  176.9500  147.2280 C   0  0  0  0  0  1  0  0  0  0  0  0
  182.6820  178.7710  143.8770 C   0  0  0  0  0  2  0  0  0  0  0  0
  180.5590  178.3740  142.0070 O   0  0  0  0  0  0  0  0  0  0  0  0
  181.6870  178.7110  141.5580 C   0  0  0  0  0  0  0  0  0  0  0  0
  182.8150  178.8110  142.4280 N   0  0  0  0  0  2  0  0  0  0  0  0
  181.8350  179.0460  140.1130 C   0  0  0  0  0  2  0  0  0  0  0  0
  182.9690  178.2500  139.4800 C   0  0  0  0  0  2  0  0  0  0  0  0
  184.1030  179.1650  139.0330 C   0  0  0  0  0  2  0  0  0  0  0  0
  185.4460  178.6460  139.5230 C   0  0  0  0  0  2  0  0  0  0  0  0
  186.3000  178.2200  138.3710 C   0  0  0  0  0  0  0  0  0  0  0  0
  185.8070  177.4790  137.4810 O   0  0  0  0  0  0  0  0  0  0  0  0
  187.6260  178.6440  138.2460 O   0  0  0  0  0  0  0  0  0  0  0  0
  188.4230  178.3310  137.1130 C   0  0  0  0  0  1  0  0  0  0  0  0
  1  3  1  0  0  0  0
  1  2  1  0  0  0  0
  2 21  1  6  0  0  0
  2  6  1  0  0  0  0
  3  4  2  0  0  0  0
  4  5  1  0  0  0  0
  4 17  1  0  0  0  0
  6  5  1  0  0  0  0
  7  3  1  0  0  0  0
  8 10  2  0  0  0  0
  8  7  1  0  0  0  0
  9 16  1  0  0  0  0
 12 11  1  6  0  0  0
 12 13  1  0  0  0  0
 12 14  1  0  0  0  0
 13  8  1  0  0  0  0
 14 16  1  1  0  0  0
 14 10  1  0  0  0  0
 15 11  1  0  0  0  0
 15  9  1  0  0  0  0
 17 18  1  0  0  0  0
 18 19  1  0  0  0  0
 20 19  1  0  0  0  0
 23 22  2  0  0  0  0
 23 24  1  0  0  0  0
 24 21  1  0  0  0  0
 25 23  1  0  0  0  0
 26 25  1  0  0  0  0
 27 26  1  0  0  0  0
 27 28  1  0  0  0  0
 29 28  1  0  0  0  0
 30 29  2  0  0  0  0
 31 29  1  0  0  0  0
 32 31  1  0  0  0  0
M  END
>  <MODEL>
1

>  <REMARK>
 VINA RESULT:      -6.5      0.000      0.000
  Name = 
  13 active torsions:
  status: ('A' for Active; 'I' for Inactive)
    1  A    between atoms: C_2  and  C_5
    2  A    between atoms: C_2  and  C_6
    3  A    between atoms: C_3  and  C_19
    4  A    between atoms: C_3  and  O_22
    5  A    between atoms: C_4  and  C_27
    6  A    between atoms: C_7  and  C_19
    7  A    between atoms: C_7  and  C_26
    8  A    between atoms: C_13  and  C_29
    9  A    between atoms: C_14  and  O_18
   10  A    between atoms: C_15  and  C_20
   11  A    between atoms: C_15  and  C_26
   12  A    between atoms: O_18  and  C_29
   13  A    between atoms: N_24  and  C_27
                            x       y       z     vdW  Elec       q    Type
                         _______ _______ _______ _____ _____    ______ ____

>  <TORSDO>
F 13

$$$$
=
 OpenBabel10262421173D

 32 34  0  0  1  0  0  0  0  0999 V2000
  184.1990  178.3020  141.8870 S   0  0  0  0  0  0  0  0  0  0  0  0
  183.0950  179.3060  142.9320 C   0  0  1  0  0  3  0  0  0  0  0  0
  183.3460  178.8960  140.4190 C   0  0  0  0  0  0  0  0  0  0  0  0
  182.0100  178.8090  140.3450 C   0  0  0  0  0  0  0  0  0  0  0  0
  181.2510  178.1990  141.4970 C   0  0  0  0  0  2  0  0  0  0  0  0
  181.6400  178.8120  142.8540 C   0  0  0  0  0  2  0  0  0  0  0  0
  184.1400  179.5850  139.3560 C   0  0  0  0  0  2  0  0  0  0  0  0
  185.0340  178.6140  138.6640 C   0  0  0  0  0  0  0  0  0  0  0  0
  187.1230  176.8480  135.1410 C   0  0  0  0  0  2  0  0  0  0  0  0
  184.5920  177.7490  137.8180 N   0  0  0  0  0  0  0  0  0  0  0  0
  188.0270  178.0510  137.0510 C   0  0  0  0  0  2  0  0  0  0  0  0
  186.9470  177.5390  138.0020 C   0  0  1  0  0  3  0  0  0  0  0  0
  186.4400  178.6230  138.8250 N   0  0  0  0  0  2  0  0  0  0  0  0
  185.7060  177.0040  137.2510 C   0  0  2  0  0  3  0  0  0  0  0  0
  188.2830  177.0360  136.0300 N   0  0  0  0  0  2  0  0  0  0  0  0
  185.7780  177.2850  135.7460 C   0  0  0  0  0  2  0  0  0  0  0  0
  181.3380  179.3060  139.2240 O   0  0  0  0  0  0  0  0  0  0  0  0
  180.0610  179.9210  139.3130 C   0  0  0  0  0  2  0  0  0  0  0  0
  180.2290  181.4250  139.3060 C   0  0  0  0  0  2  0  0  0  0  0  0
  181.2910  181.8060  138.3000 C   0  0  0  0  0  1  0  0  0  0  0  0
  183.5780  179.3300  144.3720 C   0  0  0  0  0  2  0  0  0  0  0  0
  185.3920  179.3540  146.5800 O   0  0  0  0  0  0  0  0  0  0  0  0
  185.5560  178.4780  145.6890 C   0  0  0  0  0  0  0  0  0  0  0  0
  184.7570  178.4860  144.5060 N   0  0  0  0  0  2  0  0  0  0  0  0
  186.5660  177.4010  145.8930 C   0  0  0  0  0  2  0  0  0  0  0  0
  187.7700  177.6000  144.9810 C   0  0  0  0  0  2  0  0  0  0  0  0
  189.0600  177.7050  145.7860 C   0  0  0  0  0  2  0  0  0  0  0  0
  190.2620  177.8690  144.8680 C   0  0  0  0  0  2  0  0  0  0  0  0
  191.3470  176.9080  145.2410 C   0  0  0  0  0  0  0  0  0  0  0  0
  191.7300  176.0560  144.3980 O   0  0  0  0  0  0  0  0  0  0  0  0
  191.9610  176.9500  146.4950 O   0  0  0  0  0  0  0  0  0  0  0  0
  191.8570  175.8860  147.4310 C   0  0  0  0  0  1  0  0  0  0  0  0
  1  2  1  0  0  0  0
  2 21  1  1  0  0  0
  3  1  1  0  0  0  0
  4  3  2  0  0  0  0
  4  5  1  0  0  0  0
  5  6  1  0  0  0  0
  6  2  1  0  0  0  0
  7  3  1  0  0  0  0
  8 13  1  0  0  0  0
  8  7  1  0  0  0  0
  9 16  1  0  0  0  0
  9 15  1  0  0  0  0
 10  8  2  0  0  0  0
 12 11  1  6  0  0  0
 12 13  1  0  0  0  0
 14 16  1  6  0  0  0
 14 10  1  0  0  0  0
 14 12  1  0  0  0  0
 15 11  1  0  0  0  0
 17 18  1  0  0  0  0
 17  4  1  0  0  0  0
 19 18  1  0  0  0  0
 20 19  1  0  0  0  0
 21 24  1  0  0  0  0
 23 25  1  0  0  0  0
 23 22  2  0  0  0  0
 24 23  1  0  0  0  0
 26 27  1  0  0  0  0
 26 25  1  0  0  0  0
 28 29  1  0  0  0  0
 28 27  1  0  0  0  0
 29 31  1  0  0  0  0
 30 29  2  0  0  0  0
 31 32  1  0  0  0  0
M  END
>  <MODEL>
2

>  <REMARK>
 VINA RESULT:      -6.5      2.833      7.513
  Name = 
  13 active torsions:
  status: ('A' for Active; 'I' for Inactive)
    1  A    between atoms: C_2  and  C_5
    2  A    between atoms: C_2  and  C_6
    3  A    between atoms: C_3  and  C_19
    4  A    between atoms: C_3  and  O_22
    5  A    between atoms: C_4  and  C_27
    6  A    between atoms: C_7  and  C_19
    7  A    between atoms: C_7  and  C_26
    8  A    between atoms: C_13  and  C_29
    9  A    between atoms: C_14  and  O_18
   10  A    between atoms: C_15  and  C_20
   11  A    between atoms: C_15  and  C_26
   12  A    between atoms: O_18  and  C_29
   13  A    between atoms: N_24  and  C_27
                            x       y       z     vdW  Elec       q    Type
                         _______ _______ _______ _____ _____    ______ ____

>  <TORSDO>
F 13

$$$$
=
 OpenBabel10262421173D

 32 34  0  0  1  0  0  0  0  0999 V2000
  187.7690  178.4240  141.2500 S   0  0  0  0  0  0  0  0  0  0  0  0
  186.2590  178.2330  140.2500 C   0  0  1  0  0  3  0  0  0  0  0  0
  186.8790  177.8440  142.7020 C   0  0  0  0  0  0  0  0  0  0  0  0
  185.7150  178.4160  143.0420 C   0  0  0  0  0  0  0  0  0  0  0  0
  185.1830  179.5500  142.1990 C   0  0  0  0  0  2  0  0  0  0  0  0
  185.1580  179.2110  140.6980 C   0  0  0  0  0  2  0  0  0  0  0  0
  187.4010  176.6500  143.4350 C   0  0  0  0  0  2  0  0  0  0  0  0
  188.5880  177.0230  144.2550 C   0  0  0  0  0  0  0  0  0  0  0  0
  191.2820  176.7910  147.8040 C   0  0  0  0  0  2  0  0  0  0  0  0
  188.4830  177.6330  145.3860 N   0  0  0  0  0  0  0  0  0  0  0  0
  191.6690  176.1110  145.5010 C   0  0  0  0  0  2  0  0  0  0  0  0
  190.7710  177.2060  144.9290 C   0  0  1  0  0  3  0  0  0  0  0  0
  189.9080  176.6650  143.8930 N   0  0  0  0  0  2  0  0  0  0  0  0
  189.8010  177.7830  145.9850 C   0  0  2  0  0  3  0  0  0  0  0  0
  192.2810  176.5940  146.7390 N   0  0  0  0  0  2  0  0  0  0  0  0
  189.8420  176.9950  147.2990 C   0  0  0  0  0  2  0  0  0  0  0  0
  184.9980  177.9420  144.1440 O   0  0  0  0  0  0  0  0  0  0  0  0
  184.5400  178.8000  145.1790 C   0  0  0  0  0  2  0  0  0  0  0  0
  185.0140  178.2700  146.5150 C   0  0  0  0  0  2  0  0  0  0  0  0
  185.9630  179.2660  147.1420 C   0  0  0  0  0  1  0  0  0  0  0  0
  186.5580  178.4020  138.7710 C   0  0  0  0  0  2  0  0  0  0  0  0
  188.8820  179.4890  137.5140 O   0  0  0  0  0  0  0  0  0  0  0  0
  188.9240  178.2900  137.8980 C   0  0  0  0  0  0  0  0  0  0  0  0
  187.7600  177.6550  138.4270 N   0  0  0  0  0  2  0  0  0  0  0  0
  190.2110  177.5420  137.8370 C   0  0  0  0  0  2  0  0  0  0  0  0
  190.2200  176.5610  136.6700 C   0  0  0  0  0  2  0  0  0  0  0  0
  191.6050  175.9570  136.4680 C   0  0  0  0  0  2  0  0  0  0  0  0
  192.1200  175.3350  137.7560 C   0  0  0  0  0  2  0  0  0  0  0  0
  193.4470  175.9150  138.1290 C   0  0  0  0  0  0  0  0  0  0  0  0
  193.4870  176.9420  138.8550 O   0  0  0  0  0  0  0  0  0  0  0  0
  194.6450  175.3290  137.7110 O   0  0  0  0  0  0  0  0  0  0  0  0
  195.0750  174.0570  138.1750 C   0  0  0  0  0  1  0  0  0  0  0  0
  1  3  1  0  0  0  0
  2 21  1  6  0  0  0
  2  6  1  0  0  0  0
  2  1  1  0  0  0  0
  3  4  2  0  0  0  0
  3  7  1  0  0  0  0
  4 17  1  0  0  0  0
  5  4  1  0  0  0  0
  6  5  1  0  0  0  0
  7  8  1  0  0  0  0
  8 10  2  0  0  0  0
 10 14  1  0  0  0  0
 11 15  1  0  0  0  0
 12 11  1  1  0  0  0
 12 14  1  0  0  0  0
 13  8  1  0  0  0  0
 13 12  1  0  0  0  0
 14 16  1  1  0  0  0
 15  9  1  0  0  0  0
 16  9  1  0  0  0  0
 17 18  1  0  0  0  0
 18 19  1  0  0  0  0
 19 20  1  0  0  0  0
 22 23  2  0  0  0  0
 23 24  1  0  0  0  0
 24 21  1  0  0  0  0
 25 23  1  0  0  0  0
 26 25  1  0  0  0  0
 27 26  1  0  0  0  0
 27 28  1  0  0  0  0
 28 29  1  0  0  0  0
 29 30  2  0  0  0  0
 31 29  1  0  0  0  0
 31 32  1  0  0  0  0
M  END
>  <MODEL>
3

>  <REMARK>
 VINA RESULT:      -6.5      2.942      5.904
  Name = 
  13 active torsions:
  status: ('A' for Active; 'I' for Inactive)
    1  A    between atoms: C_2  and  C_5
    2  A    between atoms: C_2  and  C_6
    3  A    between atoms: C_3  and  C_19
    4  A    between atoms: C_3  and  O_22
    5  A    between atoms: C_4  and  C_27
    6  A    between atoms: C_7  and  C_19
    7  A    between atoms: C_7  and  C_26
    8  A    between atoms: C_13  and  C_29
    9  A    between atoms: C_14  and  O_18
   10  A    between atoms: C_15  and  C_20
   11  A    between atoms: C_15  and  C_26
   12  A    between atoms: O_18  and  C_29
   13  A    between atoms: N_24  and  C_27
                            x       y       z     vdW  Elec       q    Type
                         _______ _______ _______ _____ _____    ______ ____

>  <TORSDO>
F 13

$$$$
=
 OpenBabel10262421173D

 32 34  0  0  1  0  0  0  0  0999 V2000
  188.4600  177.5990  140.9010 S   0  0  0  0  0  0  0  0  0  0  0  0
  189.7660  177.6680  142.1690 C   0  0  1  0  0  3  0  0  0  0  0  0
  187.2360  178.0470  142.1400 C   0  0  0  0  0  0  0  0  0  0  0  0
  187.1640  177.3530  143.2860 C   0  0  0  0  0  0  0  0  0  0  0  0
  188.1090  176.1970  143.5020 C   0  0  0  0  0  2  0  0  0  0  0  0
  189.5770  176.5740  143.2350 C   0  0  0  0  0  2  0  0  0  0  0  0
  186.3990  179.2640  141.9150 C   0  0  0  0  0  2  0  0  0  0  0  0
  185.2000  178.9270  141.0970 C   0  0  0  0  0  0  0  0  0  0  0  0
  180.8670  179.0370  140.0390 C   0  0  0  0  0  2  0  0  0  0  0  0
  184.2440  178.1860  141.5430 N   0  0  0  0  0  0  0  0  0  0  0  0
  182.7810  180.0060  138.8930 C   0  0  0  0  0  2  0  0  0  0  0  0
  183.7290  178.8950  139.3400 C   0  0  1  0  0  3  0  0  0  0  0  0
  184.9860  179.4570  139.8030 N   0  0  0  0  0  2  0  0  0  0  0  0
  183.1820  178.1070  140.5510 C   0  0  2  0  0  3  0  0  0  0  0  0
  181.4350  179.4540  138.7450 N   0  0  0  0  0  2  0  0  0  0  0  0
  181.9140  178.7430  141.1290 C   0  0  0  0  0  2  0  0  0  0  0  0
  186.2420  177.7220  144.2700 O   0  0  0  0  0  0  0  0  0  0  0  0
  186.5550  177.6910  145.6540 C   0  0  0  0  0  2  0  0  0  0  0  0
  185.5180  178.4850  146.4190 C   0  0  0  0  0  2  0  0  0  0  0  0
  184.3750  178.8410  145.4940 C   0  0  0  0  0  1  0  0  0  0  0  0
  191.1450  177.5720  141.5390 C   0  0  0  0  0  2  0  0  0  0  0  0
  193.3140  177.2220  139.7120 O   0  0  0  0  0  0  0  0  0  0  0  0
  192.1460  177.0080  139.2910 C   0  0  0  0  0  0  0  0  0  0  0  0
  191.0140  177.2770  140.1190 N   0  0  0  0  0  2  0  0  0  0  0  0
  191.9470  176.4320  137.9310 C   0  0  0  0  0  2  0  0  0  0  0  0
  190.5880  175.7520  137.8170 C   0  0  0  0  0  2  0  0  0  0  0  0
  189.9210  176.0730  136.4840 C   0  0  0  0  0  2  0  0  0  0  0  0
  189.6070  177.5580  136.3770 C   0  0  0  0  0  2  0  0  0  0  0  0
  188.3470  177.8850  137.1140 C   0  0  0  0  0  0  0  0  0  0  0  0
  188.1790  179.0520  137.5560 O   0  0  0  0  0  0  0  0  0  0  0  0
  187.3410  176.9340  137.3040 O   0  0  0  0  0  0  0  0  0  0  0  0
  185.9900  177.1680  136.9300 C   0  0  0  0  0  1  0  0  0  0  0  0
  1  3  1  0  0  0  0
  1  2  1  0  0  0  0
  2 21  1  6  0  0  0
  2  6  1  0  0  0  0
  3  4  2  0  0  0  0
  4  5  1  0  0  0  0
  4 17  1  0  0  0  0
  6  5  1  0  0  0  0
  7  3  1  0  0  0  0
  8 10  2  0  0  0  0
  8  7  1  0  0  0  0
  9 16  1  0  0  0  0
 12 11  1  1  0  0  0
 12 13  1  0  0  0  0
 12 14  1  0  0  0  0
 13  8  1  0  0  0  0
 14 16  1  1  0  0  0
 14 10  1  0  0  0  0
 15 11  1  0  0  0  0
 15  9  1  0  0  0  0
 17 18  1  0  0  0  0
 18 19  1  0  0  0  0
 20 19  1  0  0  0  0
 23 22  2  0  0  0  0
 23 24  1  0  0  0  0
 24 21  1  0  0  0  0
 25 23  1  0  0  0  0
 26 25  1  0  0  0  0
 27 26  1  0  0  0  0
 28 27  1  0  0  0  0
 28 29  1  0  0  0  0
 29 31  1  0  0  0  0
 29 30  2  0  0  0  0
 32 31  1  0  0  0  0
M  END
>  <MODEL>
4

>  <REMARK>
 VINA RESULT:      -6.5      2.191      6.859
  Name = 
  13 active torsions:
  status: ('A' for Active; 'I' for Inactive)
    1  A    between atoms: C_2  and  C_5
    2  A    between atoms: C_2  and  C_6
    3  A    between atoms: C_3  and  C_19
    4  A    between atoms: C_3  and  O_22
    5  A    between atoms: C_4  and  C_27
    6  A    between atoms: C_7  and  C_19
    7  A    between atoms: C_7  and  C_26
    8  A    between atoms: C_13  and  C_29
    9  A    between atoms: C_14  and  O_18
   10  A    between atoms: C_15  and  C_20
   11  A    between atoms: C_15  and  C_26
   12  A    between atoms: O_18  and  C_29
   13  A    between atoms: N_24  and  C_27
                            x       y       z     vdW  Elec       q    Type
                         _______ _______ _______ _____ _____    ______ ____

>  <TORSDO>
F 13

$$$$
=
 OpenBabel10262421173D

 32 34  0  0  1  0  0  0  0  0999 V2000
  185.9230  178.7350  143.8340 S   0  0  0  0  0  0  0  0  0  0  0  0
  184.8660  178.2510  145.2360 C   0  0  1  0  0  3  0  0  0  0  0  0
  187.2020  177.6090  144.4110 C   0  0  0  0  0  0  0  0  0  0  0  0
  187.6210  177.6730  145.6840 C   0  0  0  0  0  0  0  0  0  0  0  0
  187.0150  178.7050  146.6020 C   0  0  0  0  0  2  0  0  0  0  0  0
  185.4760  178.6870  146.5800 C   0  0  0  0  0  2  0  0  0  0  0  0
  187.6890  176.5410  143.4860 C   0  0  0  0  0  2  0  0  0  0  0  0
  188.4520  177.1410  142.3560 C   0  0  0  0  0  0  0  0  0  0  0  0
  190.5140  177.1030  138.4000 C   0  0  0  0  0  2  0  0  0  0  0  0
  189.6660  176.8060  142.0850 N   0  0  0  0  0  0  0  0  0  0  0  0
  188.4480  178.1940  139.0740 C   0  0  0  0  0  2  0  0  0  0  0  0
  188.9230  178.4140  140.5080 C   0  0  1  0  0  3  0  0  0  0  0  0
  187.8750  178.0630  141.4500 N   0  0  0  0  0  2  0  0  0  0  0  0
  190.1090  177.4960  140.8830 C   0  0  2  0  0  3  0  0  0  0  0  0
  189.6020  178.2380  138.1760 N   0  0  0  0  0  2  0  0  0  0  0  0
  190.4030  176.4600  139.7940 C   0  0  0  0  0  2  0  0  0  0  0  0
  188.5840  176.7730  146.1490 O   0  0  0  0  0  0  0  0  0  0  0  0
  189.7660  177.2000  146.8110 C   0  0  0  0  0  2  0  0  0  0  0  0
  190.9720  176.7800  145.9990 C   0  0  0  0  0  2  0  0  0  0  0  0
  191.2860  177.8480  144.9760 C   0  0  0  0  0  1  0  0  0  0  0  0
  183.4610  178.8050  145.0780 C   0  0  0  0  0  2  0  0  0  0  0  0
  180.7890  178.8620  144.0680 O   0  0  0  0  0  0  0  0  0  0  0  0
  181.7360  178.9410  143.2410 C   0  0  0  0  0  0  0  0  0  0  0  0
  183.0900  178.8010  143.6690 N   0  0  0  0  0  2  0  0  0  0  0  0
  181.4390  179.2220  141.8070 C   0  0  0  0  0  2  0  0  0  0  0  0
  181.3280  177.9300  141.0070 C   0  0  0  0  0  2  0  0  0  0  0  0
  182.3610  177.8850  139.8860 C   0  0  0  0  0  2  0  0  0  0  0  0
  182.8500  179.2840  139.5420 C   0  0  0  0  0  2  0  0  0  0  0  0
  184.3420  179.3130  139.4440 C   0  0  0  0  0  0  0  0  0  0  0  0
  185.0200  179.5900  140.4680 O   0  0  0  0  0  0  0  0  0  0  0  0
  185.0030  179.0160  138.2500 O   0  0  0  0  0  0  0  0  0  0  0  0
  185.2150  177.6820  137.8060 C   0  0  0  0  0  1  0  0  0  0  0  0
  1  3  1  0  0  0  0
  1  2  1  0  0  0  0
  2 21  1  6  0  0  0
  2  6  1  0  0  0  0
  3  4  2  0  0  0  0
  4 17  1  0  0  0  0
  4  5  1  0  0  0  0
  6  5  1  0  0  0  0
  7  3  1  0  0  0  0
  8  7  1  0  0  0  0
  9 16  1  0  0  0  0
 10  8  2  0  0  0  0
 12 11  1  6  0  0  0
 12 14  1  0  0  0  0
 12 13  1  0  0  0  0
 13  8  1  0  0  0  0
 14 16  1  6  0  0  0
 14 10  1  0  0  0  0
 15  9  1  0  0  0  0
 15 11  1  0  0  0  0
 17 18  1  0  0  0  0
 19 18  1  0  0  0  0
 20 19  1  0  0  0  0
 23 24  1  0  0  0  0
 23 22  2  0  0  0  0
 24 21  1  0  0  0  0
 25 23  1  0  0  0  0
 26 25  1  0  0  0  0
 27 26  1  0  0  0  0
 28 27  1  0  0  0  0
 29 28  1  0  0  0  0
 29 30  2  0  0  0  0
 31 29  1  0  0  0  0
 32 31  1  0  0  0  0
M  END
>  <MODEL>
5

>  <REMARK>
 VINA RESULT:      -6.3      1.450      2.126
  Name = 
  13 active torsions:
  status: ('A' for Active; 'I' for Inactive)
    1  A    between atoms: C_2  and  C_5
    2  A    between atoms: C_2  and  C_6
    3  A    between atoms: C_3  and  C_19
    4  A    between atoms: C_3  and  O_22
    5  A    between atoms: C_4  and  C_27
    6  A    between atoms: C_7  and  C_19
    7  A    between atoms: C_7  and  C_26
    8  A    between atoms: C_13  and  C_29
    9  A    between atoms: C_14  and  O_18
   10  A    between atoms: C_15  and  C_20
   11  A    between atoms: C_15  and  C_26
   12  A    between atoms: O_18  and  C_29
   13  A    between atoms: N_24  and  C_27
                            x       y       z     vdW  Elec       q    Type
                         _______ _______ _______ _____ _____    ______ ____

>  <TORSDO>
F 13

$$$$
=
 OpenBabel10262421173D

 32 34  0  0  1  0  0  0  0  0999 V2000
  190.5370  176.6450  140.2330 S   0  0  0  0  0  0  0  0  0  0  0  0
  189.4760  176.4510  138.7660 C   0  0  1  0  0  3  0  0  0  0  0  0
  189.1080  177.1590  141.1970 C   0  0  0  0  0  0  0  0  0  0  0  0
  188.3190  178.1450  140.7450 C   0  0  0  0  0  0  0  0  0  0  0  0
  188.6610  178.8120  139.4350 C   0  0  0  0  0  2  0  0  0  0  0  0
  188.9030  177.8020  138.3000 C   0  0  0  0  0  2  0  0  0  0  0  0
  188.7610  176.3910  142.4320 C   0  0  0  0  0  2  0  0  0  0  0  0
  189.5320  176.9060  143.5980 C   0  0  0  0  0  0  0  0  0  0  0  0
  190.5230  177.3090  147.9290 C   0  0  0  0  0  2  0  0  0  0  0  0
  189.0170  177.7040  144.4700 N   0  0  0  0  0  0  0  0  0  0  0  0
  191.7690  176.2410  146.1340 C   0  0  0  0  0  2  0  0  0  0  0  0
  191.2580  177.2150  145.0750 C   0  0  1  0  0  3  0  0  0  0  0  0
  190.8580  176.4980  143.8760 N   0  0  0  0  0  2  0  0  0  0  0  0
  189.9830  177.9620  145.5280 C   0  0  2  0  0  3  0  0  0  0  0  0
  191.8540  176.9340  147.4190 N   0  0  0  0  0  2  0  0  0  0  0  0
  189.4320  177.4150  146.8490 C   0  0  0  0  0  2  0  0  0  0  0  0
  187.1840  178.5200  141.4690 O   0  0  0  0  0  0  0  0  0  0  0  0
  185.9450  178.8140  140.8420 C   0  0  0  0  0  2  0  0  0  0  0  0
  184.8140  178.4920  141.7950 C   0  0  0  0  0  2  0  0  0  0  0  0
  185.3740  178.2640  143.1800 C   0  0  0  0  0  1  0  0  0  0  0  0
  190.2250  175.7670  137.6360 C   0  0  0  0  0  2  0  0  0  0  0  0
  192.6770  175.8800  136.1730 O   0  0  0  0  0  0  0  0  0  0  0  0
  192.7200  175.4920  137.3710 C   0  0  0  0  0  0  0  0  0  0  0  0
  191.5190  175.3030  138.1180 N   0  0  0  0  0  2  0  0  0  0  0  0
  194.0410  175.2660  138.0240 C   0  0  0  0  0  2  0  0  0  0  0  0
  194.4920  173.8200  137.8640 C   0  0  0  0  0  2  0  0  0  0  0  0
  195.7860  173.5570  138.6260 C   0  0  0  0  0  2  0  0  0  0  0  0
  196.9820  173.5720  137.6870 C   0  0  0  0  0  2  0  0  0  0  0  0
  197.6470  174.9120  137.6980 C   0  0  0  0  0  0  0  0  0  0  0  0
  198.1850  175.3220  138.7590 O   0  0  0  0  0  0  0  0  0  0  0  0
  197.7050  175.7100  136.5530 O   0  0  0  0  0  0  0  0  0  0  0  0
  196.7980  175.5570  135.4700 C   0  0  0  0  0  1  0  0  0  0  0  0
  1  3  1  0  0  0  0
  2 21  1  6  0  0  0
  2  1  1  0  0  0  0
  3  7  1  0  0  0  0
  4  3  2  0  0  0  0
  4 17  1  0  0  0  0
  5  4  1  0  0  0  0
  6  2  1  0  0  0  0
  6  5  1  0  0  0  0
  7  8  1  0  0  0  0
  8 13  1  0  0  0  0
  8 10  2  0  0  0  0
 10 14  1  0  0  0  0
 11 15  1  0  0  0  0
 12 14  1  0  0  0  0
 12 11  1  1  0  0  0
 13 12  1  0  0  0  0
 14 16  1  1  0  0  0
 15  9  1  0  0  0  0
 16  9  1  0  0  0  0
 18 17  1  0  0  0  0
 18 19  1  0  0  0  0
 19 20  1  0  0  0  0
 21 24  1  0  0  0  0
 22 23  2  0  0  0  0
 23 25  1  0  0  0  0
 23 24  1  0  0  0  0
 26 25  1  0  0  0  0
 26 27  1  0  0  0  0
 28 29  1  0  0  0  0
 28 27  1  0  0  0  0
 29 30  2  0  0  0  0
 31 29  1  0  0  0  0
 32 31  1  0  0  0  0
M  END
>  <MODEL>
6

>  <REMARK>
 VINA RESULT:      -6.3      4.489      8.637
  Name = 
  13 active torsions:
  status: ('A' for Active; 'I' for Inactive)
    1  A    between atoms: C_2  and  C_5
    2  A    between atoms: C_2  and  C_6
    3  A    between atoms: C_3  and  C_19
    4  A    between atoms: C_3  and  O_22
    5  A    between atoms: C_4  and  C_27
    6  A    between atoms: C_7  and  C_19
    7  A    between atoms: C_7  and  C_26
    8  A    between atoms: C_13  and  C_29
    9  A    between atoms: C_14  and  O_18
   10  A    between atoms: C_15  and  C_20
   11  A    between atoms: C_15  and  C_26
   12  A    between atoms: O_18  and  C_29
   13  A    between atoms: N_24  and  C_27
                            x       y       z     vdW  Elec       q    Type
                         _______ _______ _______ _____ _____    ______ ____

>  <TORSDO>
F 13

$$$$
=
 OpenBabel10262421173D

 32 34  0  0  1  0  0  0  0  0999 V2000
  188.0830  177.5170  140.7670 S   0  0  0  0  0  0  0  0  0  0  0  0
  189.5830  177.5410  141.7990 C   0  0  1  0  0  3  0  0  0  0  0  0
  187.0990  178.0140  142.1880 C   0  0  0  0  0  0  0  0  0  0  0  0
  187.1930  177.3270  143.3360 C   0  0  0  0  0  0  0  0  0  0  0  0
  188.1180  176.1370  143.4030 C   0  0  0  0  0  2  0  0  0  0  0  0
  189.5340  176.4580  142.8920 C   0  0  0  0  0  2  0  0  0  0  0  0
  186.2810  179.2620  142.0940 C   0  0  0  0  0  2  0  0  0  0  0  0
  185.0710  179.0280  141.2570 C   0  0  0  0  0  0  0  0  0  0  0  0
  182.8290  177.4050  137.7580 C   0  0  0  0  0  2  0  0  0  0  0  0
  184.9300  179.5410  140.0840 N   0  0  0  0  0  0  0  0  0  0  0  0
  182.7140  176.7900  140.1080 C   0  0  0  0  0  2  0  0  0  0  0  0
  183.0390  178.2030  140.5890 C   0  0  1  0  0  3  0  0  0  0  0  0
  184.0240  178.1620  141.6560 N   0  0  0  0  0  2  0  0  0  0  0  0
  183.6920  179.0650  139.4850 C   0  0  2  0  0  3  0  0  0  0  0  0
  181.9860  176.8730  138.8430 N   0  0  0  0  0  2  0  0  0  0  0  0
  184.0270  178.2450  138.2350 C   0  0  0  0  0  2  0  0  0  0  0  0
  186.4620  177.7340  144.4560 O   0  0  0  0  0  0  0  0  0  0  0  0
  187.0530  177.8770  145.7390 C   0  0  0  0  0  2  0  0  0  0  0  0
  186.0790  178.5760  146.6630 C   0  0  0  0  0  2  0  0  0  0  0  0
  184.7170  178.6280  146.0090 C   0  0  0  0  0  1  0  0  0  0  0  0
  190.8330  177.3920  140.9500 C   0  0  0  0  0  2  0  0  0  0  0  0
  191.0970  175.6250  138.7200 O   0  0  0  0  0  0  0  0  0  0  0  0
  190.5810  176.7560  138.5200 C   0  0  0  0  0  0  0  0  0  0  0  0
  190.5270  177.7270  139.5660 N   0  0  0  0  0  2  0  0  0  0  0  0
  189.9850  177.0700  137.1900 C   0  0  0  0  0  2  0  0  0  0  0  0
  189.2840  178.4220  137.2090 C   0  0  0  0  0  2  0  0  0  0  0  0
  187.7750  178.2630  137.0580 C   0  0  0  0  0  2  0  0  0  0  0  0
  187.4370  177.4160  135.8410 C   0  0  0  0  0  2  0  0  0  0  0  0
  186.5050  176.3070  136.2120 C   0  0  0  0  0  0  0  0  0  0  0  0
  185.4050  176.2010  135.6090 O   0  0  0  0  0  0  0  0  0  0  0  0
  186.8350  175.3700  137.1940 O   0  0  0  0  0  0  0  0  0  0  0  0
  186.2810  174.0620  137.2190 C   0  0  0  0  0  1  0  0  0  0  0  0
  1  2  1  0  0  0  0
  1  3  1  0  0  0  0
  2 21  1  6  0  0  0
  2  6  1  0  0  0  0
  3  4  2  0  0  0  0
  4  5  1  0  0  0  0
  4 17  1  0  0  0  0
  6  5  1  0  0  0  0
  7  3  1  0  0  0  0
  8 13  1  0  0  0  0
  8  7  1  0  0  0  0
  9 16  1  0  0  0  0
  9 15  1  0  0  0  0
 10  8  2  0  0  0  0
 12 11  1  6  0  0  0
 12 13  1  0  0  0  0
 14 16  1  6  0  0  0
 14 10  1  0  0  0  0
 14 12  1  0  0  0  0
 15 11  1  0  0  0  0
 17 18  1  0  0  0  0
 18 19  1  0  0  0  0
 20 19  1  0  0  0  0
 23 22  2  0  0  0  0
 23 24  1  0  0  0  0
 24 21  1  0  0  0  0
 25 26  1  0  0  0  0
 25 23  1  0  0  0  0
 27 26  1  0  0  0  0
 28 29  1  0  0  0  0
 28 27  1  0  0  0  0
 29 31  1  0  0  0  0
 30 29  2  0  0  0  0
 31 32  1  0  0  0  0
M  END
>  <MODEL>
7

>  <REMARK>
 VINA RESULT:      -6.2      2.342      6.305
  Name = 
  13 active torsions:
  status: ('A' for Active; 'I' for Inactive)
    1  A    between atoms: C_2  and  C_5
    2  A    between atoms: C_2  and  C_6
    3  A    between atoms: C_3  and  C_19
    4  A    between atoms: C_3  and  O_22
    5  A    between atoms: C_4  and  C_27
    6  A    between atoms: C_7  and  C_19
    7  A    between atoms: C_7  and  C_26
    8  A    between atoms: C_13  and  C_29
    9  A    between atoms: C_14  and  O_18
   10  A    between atoms: C_15  and  C_20
   11  A    between atoms: C_15  and  C_26
   12  A    between atoms: O_18  and  C_29
   13  A    between atoms: N_24  and  C_27
                            x       y       z     vdW  Elec       q    Type
                         _______ _______ _______ _____ _____    ______ ____

>  <TORSDO>
F 13

$$$$
=
 OpenBabel10262421173D

 32 34  0  0  1  0  0  0  0  0999 V2000
  190.2630  175.9950  143.1480 S   0  0  0  0  0  0  0  0  0  0  0  0
  190.9500  177.6600  142.8790 C   0  0  1  0  0  3  0  0  0  0  0  0
  188.9300  176.7040  144.1250 C   0  0  0  0  0  0  0  0  0  0  0  0
  189.2160  177.5360  145.1380 C   0  0  0  0  0  0  0  0  0  0  0  0
  190.6610  177.8470  145.4420 C   0  0  0  0  0  2  0  0  0  0  0  0
  191.4490  178.2840  144.1950 C   0  0  0  0  0  2  0  0  0  0  0  0
  187.5180  176.4430  143.7100 C   0  0  0  0  0  2  0  0  0  0  0  0
  187.0460  177.5040  142.7760 C   0  0  0  0  0  0  0  0  0  0  0  0
  185.4600  179.0730  138.9130 C   0  0  0  0  0  2  0  0  0  0  0  0
  187.6970  177.8280  141.7120 N   0  0  0  0  0  0  0  0  0  0  0  0
  184.4000  178.9400  141.0980 C   0  0  0  0  0  2  0  0  0  0  0  0
  185.7160  179.1250  141.8510 C   0  0  1  0  0  3  0  0  0  0  0  0
  185.8130  178.1760  142.9460 N   0  0  0  0  0  2  0  0  0  0  0  0
  186.9480  178.8280  140.9650 C   0  0  2  0  0  3  0  0  0  0  0  0
  184.4700  179.6650  139.8300 N   0  0  0  0  0  2  0  0  0  0  0  0
  186.5530  178.2400  139.6060 C   0  0  0  0  0  2  0  0  0  0  0  0
  188.1830  178.1230  145.8740 O   0  0  0  0  0  0  0  0  0  0  0  0
  187.9620  177.8240  147.2440 C   0  0  0  0  0  2  0  0  0  0  0  0
  186.7840  178.6300  147.7480 C   0  0  0  0  0  2  0  0  0  0  0  0
  185.6930  178.6330  146.7000 C   0  0  0  0  0  1  0  0  0  0  0  0
  192.0590  177.6330  141.8420 C   0  0  0  0  0  2  0  0  0  0  0  0
  193.5550  177.3000  139.4310 O   0  0  0  0  0  0  0  0  0  0  0  0
  192.3120  177.1000  139.3880 C   0  0  0  0  0  0  0  0  0  0  0  0
  191.4940  177.3610  140.5280 N   0  0  0  0  0  2  0  0  0  0  0  0
  191.6980  176.5460  138.1480 C   0  0  0  0  0  2  0  0  0  0  0  0
  192.7670  176.0520  137.1800 C   0  0  0  0  0  2  0  0  0  0  0  0
  193.0250  174.5600  137.3590 C   0  0  0  0  0  2  0  0  0  0  0  0
  194.3180  174.1470  136.6730 C   0  0  0  0  0  2  0  0  0  0  0  0
  195.4930  174.8220  137.3080 C   0  0  0  0  0  0  0  0  0  0  0  0
  196.4210  175.2560  136.5780 O   0  0  0  0  0  0  0  0  0  0  0  0
  195.5720  175.0040  138.6910 O   0  0  0  0  0  0  0  0  0  0  0  0
  196.6510  174.4990  139.4660 C   0  0  0  0  0  1  0  0  0  0  0  0
  1  3  1  0  0  0  0
  2 21  1  6  0  0  0
  2  1  1  0  0  0  0
  2  6  1  0  0  0  0
  3  4  2  0  0  0  0
  4  5  1  0  0  0  0
  4 17  1  0  0  0  0
  6  5  1  0  0  0  0
  7  3  1  0  0  0  0
  8 13  1  0  0  0  0
  8  7  1  0  0  0  0
  9 16  1  0  0  0  0
  9 15  1  0  0  0  0
 10  8  2  0  0  0  0
 12 11  1  6  0  0  0
 12 13  1  0  0  0  0
 14 16  1  6  0  0  0
 14 10  1  0  0  0  0
 14 12  1  0  0  0  0
 15 11  1  0  0  0  0
 17 18  1  0  0  0  0
 18 19  1  0  0  0  0
 20 19  1  0  0  0  0
 23 22  2  0  0  0  0
 23 24  1  0  0  0  0
 24 21  1  0  0  0  0
 25 23  1  0  0  0  0
 26 27  1  0  0  0  0
 26 25  1  0  0  0  0
 28 29  1  0  0  0  0
 28 27  1  0  0  0  0
 29 31  1  0  0  0  0
 30 29  2  0  0  0  0
 31 32  1  0  0  0  0
M  END
>  <MODEL>
8

>  <REMARK>
 VINA RESULT:      -6.1      3.688      7.333
  Name = 
  13 active torsions:
  status: ('A' for Active; 'I' for Inactive)
    1  A    between atoms: C_2  and  C_5
    2  A    between atoms: C_2  and  C_6
    3  A    between atoms: C_3  and  C_19
    4  A    between atoms: C_3  and  O_22
    5  A    between atoms: C_4  and  C_27
    6  A    between atoms: C_7  and  C_19
    7  A    between atoms: C_7  and  C_26
    8  A    between atoms: C_13  and  C_29
    9  A    between atoms: C_14  and  O_18
   10  A    between atoms: C_15  and  C_20
   11  A    between atoms: C_15  and  C_26
   12  A    between atoms: O_18  and  C_29
   13  A    between atoms: N_24  and  C_27
                            x       y       z     vdW  Elec       q    Type
                         _______ _______ _______ _____ _____    ______ ____

>  <TORSDO>
F 13

$$$$
=
 OpenBabel10262421173D

 32 34  0  0  1  0  0  0  0  0999 V2000
  184.2180  178.2290  141.8530 S   0  0  0  0  0  0  0  0  0  0  0  0
  183.1690  179.2600  142.9270 C   0  0  1  0  0  3  0  0  0  0  0  0
  183.4300  178.9420  140.4020 C   0  0  0  0  0  0  0  0  0  0  0  0
  182.0920  178.9500  140.3070 C   0  0  0  0  0  0  0  0  0  0  0  0
  181.2760  178.3430  141.4230 C   0  0  0  0  0  2  0  0  0  0  0  0
  181.6850  178.8700  142.8100 C   0  0  0  0  0  2  0  0  0  0  0  0
  184.2840  179.6220  139.3810 C   0  0  0  0  0  2  0  0  0  0  0  0
  184.7750  178.6360  138.3760 C   0  0  0  0  0  0  0  0  0  0  0  0
  187.2030  175.1690  136.9680 C   0  0  0  0  0  2  0  0  0  0  0  0
  185.9930  178.6260  137.9550 N   0  0  0  0  0  0  0  0  0  0  0  0
  184.7990  175.3720  137.2700 C   0  0  0  0  0  2  0  0  0  0  0  0
  184.7880  176.8610  136.9270 C   0  0  1  0  0  3  0  0  0  0  0  0
  183.9630  177.5930  137.8710 N   0  0  0  0  0  2  0  0  0  0  0  0
  186.1880  177.5030  137.0490 C   0  0  2  0  0  3  0  0  0  0  0  0
  185.8720  174.7180  136.5230 N   0  0  0  0  0  2  0  0  0  0  0  0
  187.2120  176.5420  137.6630 C   0  0  0  0  0  2  0  0  0  0  0  0
  181.4720  179.5390  139.2020 O   0  0  0  0  0  0  0  0  0  0  0  0
  180.8020  180.7880  139.2820 C   0  0  0  0  0  2  0  0  0  0  0  0
  181.4520  181.7670  138.3270 C   0  0  0  0  0  2  0  0  0  0  0  0
  180.4390  182.2090  137.2960 C   0  0  0  0  0  1  0  0  0  0  0  0
  183.6310  179.1890  144.3720 C   0  0  0  0  0  2  0  0  0  0  0  0
  185.2870  179.0940  146.6990 O   0  0  0  0  0  0  0  0  0  0  0  0
  185.7030  178.5270  145.6540 C   0  0  0  0  0  0  0  0  0  0  0  0
  184.9770  178.6370  144.4290 N   0  0  0  0  0  2  0  0  0  0  0  0
  186.9420  177.7000  145.7070 C   0  0  0  0  0  2  0  0  0  0  0  0
  187.4770  177.6070  147.1320 C   0  0  0  0  0  2  0  0  0  0  0  0
  188.9960  177.4900  147.1430 C   0  0  0  0  0  2  0  0  0  0  0  0
  189.5240  177.1300  145.7630 C   0  0  0  0  0  2  0  0  0  0  0  0
  191.0140  177.2580  145.7170 C   0  0  0  0  0  0  0  0  0  0  0  0
  191.6910  176.9190  146.7220 O   0  0  0  0  0  0  0  0  0  0  0  0
  191.6750  177.7200  144.5760 O   0  0  0  0  0  0  0  0  0  0  0  0
  191.3760  178.9740  143.9790 C   0  0  0  0  0  1  0  0  0  0  0  0
  1  2  1  0  0  0  0
  2 21  1  1  0  0  0
  3  1  1  0  0  0  0
  4  3  2  0  0  0  0
  4  5  1  0  0  0  0
  5  6  1  0  0  0  0
  6  2  1  0  0  0  0
  7  3  1  0  0  0  0
  8  7  1  0  0  0  0
  9 16  1  0  0  0  0
 10  8  2  0  0  0  0
 12 14  1  0  0  0  0
 12 11  1  1  0  0  0
 12 13  1  0  0  0  0
 13  8  1  0  0  0  0
 14 16  1  1  0  0  0
 14 10  1  0  0  0  0
 15  9  1  0  0  0  0
 15 11  1  0  0  0  0
 17 18  1  0  0  0  0
 17  4  1  0  0  0  0
 19 18  1  0  0  0  0
 20 19  1  0  0  0  0
 21 24  1  0  0  0  0
 23 25  1  0  0  0  0
 23 22  2  0  0  0  0
 24 23  1  0  0  0  0
 25 26  1  0  0  0  0
 26 27  1  0  0  0  0
 28 27  1  0  0  0  0
 29 28  1  0  0  0  0
 29 30  2  0  0  0  0
 31 29  1  0  0  0  0
 32 31  1  0  0  0  0
M  END
>  <MODEL>
9

>  <REMARK>
 VINA RESULT:      -6.1      2.857      7.623
  Name = 
  13 active torsions:
  status: ('A' for Active; 'I' for Inactive)
    1  A    between atoms: C_2  and  C_5
    2  A    between atoms: C_2  and  C_6
    3  A    between atoms: C_3  and  C_19
    4  A    between atoms: C_3  and  O_22
    5  A    between atoms: C_4  and  C_27
    6  A    between atoms: C_7  and  C_19
    7  A    between atoms: C_7  and  C_26
    8  A    between atoms: C_13  and  C_29
    9  A    between atoms: C_14  and  O_18
   10  A    between atoms: C_15  and  C_20
   11  A    between atoms: C_15  and  C_26
   12  A    between atoms: O_18  and  C_29
   13  A    between atoms: N_24  and  C_27
                            x       y       z     vdW  Elec       q    Type
                         _______ _______ _______ _____ _____    ______ ____

>  <TORSDO>
F 13

$$$$
