=
 OpenBabel10262422103D

 43 50  0  0  1  0  0  0  0  0999 V2000
  189.8100  176.9440  147.0980 C   0  0  0  0  0  0  0  0  0  0  0  0
  185.6330  178.6910  144.8600 C   0  0  0  0  0  0  0  0  0  0  0  0
  186.1220  178.6290  142.0750 C   0  0  0  0  0  0  0  0  0  0  0  0
  187.6010  177.8370  146.6660 C   0  0  0  0  0  0  0  0  0  0  0  0
  190.0680  176.9050  145.7240 C   0  0  0  0  0  3  0  0  0  0  0  0
  190.7560  176.5340  147.9760 F   0  0  0  0  0  0  0  0  0  0  0  0
  187.8570  177.7980  145.2750 C   0  0  0  0  0  0  0  0  0  0  0  0
  188.5790  177.4100  147.5690 C   0  0  0  0  0  3  0  0  0  0  0  0
  189.0950  177.3300  144.8150 C   0  0  0  0  0  3  0  0  0  0  0  0
  187.0940  178.2060  142.9940 O   0  0  0  0  0  0  0  0  0  0  0  0
  186.8690  178.2280  144.3770 C   0  0  0  0  0  0  0  0  0  0  0  0
  185.3910  178.7270  146.2400 C   0  0  0  0  0  3  0  0  0  0  0  0
  184.6410  179.1220  143.9100 N   0  0  0  0  0  0  0  0  0  0  0  0
  184.9360  179.0740  142.5080 C   0  0  0  0  0  3  0  0  0  0  0  0
  186.3720  178.3000  147.1390 C   0  0  0  0  0  3  0  0  0  0  0  0
  186.4150  178.5800  140.6360 C   0  0  0  0  0  0  0  0  0  0  0  0
  187.7300  178.2510  140.1800 N   0  0  0  0  0  2  0  0  0  0  0  0
  185.5030  178.8380  139.8050 O   0  0  0  0  0  0  0  0  0  0  0  0
  189.5710  178.1900  138.5850 C   0  0  1  0  0  3  0  0  0  0  0  0
  190.2080  176.8960  139.0420 C   0  0  2  0  0  0  0  0  0  0  0  0
  188.8020  176.8710  138.4830 C   0  0  1  0  0  3  0  0  0  0  0  0
  190.3090  176.6860  140.5470 C   0  0  0  0  0  1  0  0  0  0  0  0
  188.0630  178.1670  138.7660 C   0  0  1  0  0  3  0  0  0  0  0  0
  191.2700  176.3130  138.1110 C   0  0  1  0  0  3  0  0  0  0  0  0
  192.6510  176.6220  138.6000 C   0  0  0  0  0  3  0  0  0  0  0  0
  193.5490  176.8720  137.8110 O   0  0  0  0  0  0  0  0  0  0  0  0
  191.1090  174.9260  138.0110 O   0  0  0  0  0  0  0  0  0  0  0  0
  190.4590  173.7020  136.1870 C   0  0  0  0  0  0  0  0  0  0  0  0
  189.4540  175.7250  135.0640 C   0  0  0  0  0  3  0  0  0  0  0  0
  188.5940  173.3080  134.9320 C   0  0  0  0  0  3  0  0  0  0  0  0
  188.5220  174.7320  134.5940 C   0  0  0  0  0  3  0  0  0  0  0  0
  189.6050  172.7250  135.7740 C   0  0  0  0  0  3  0  0  0  0  0  0
  190.3880  175.1210  135.8510 C   0  0  0  0  0  0  0  0  0  0  0  0
  191.4040  174.6180  136.6800 C   0  0  1  0  0  3  0  0  0  0  0  0
  183.3070  179.5330  144.3320 C   0  0  0  0  0  2  0  0  0  0  0  0
  181.5830  178.3270  141.1790 C   0  0  0  0  0  3  0  0  0  0  0  0
  180.3130  178.0010  141.6670 C   0  0  0  0  0  0  0  0  0  0  0  0
  181.0040  178.6570  143.8980 C   0  0  0  0  0  3  0  0  0  0  0  0
  182.5630  178.8100  142.0490 C   0  0  0  0  0  3  0  0  0  0  0  0
  182.2770  178.9700  143.4110 C   0  0  0  0  0  0  0  0  0  0  0  0
  180.0240  178.1710  143.0280 C   0  0  0  0  0  3  0  0  0  0  0  0
  179.7850  177.5060  139.3090 C   0  0  0  0  0  1  0  0  0  0  0  0
  179.2620  177.5030  140.7350 C   0  0  0  0  0  2  0  0  0  0  0  0
  1  8  1  0  0  0  0
  1  6  1  0  0  0  0
  2 12  1  0  0  0  0
  3 14  2  0  0  0  0
  3 10  1  0  0  0  0
  4 15  1  0  0  0  0
  4  8  2  0  0  0  0
  5  1  2  0  0  0  0
  7  4  1  0  0  0  0
  9  7  2  0  0  0  0
  9  5  1  0  0  0  0
 10 11  1  0  0  0  0
 11  2  2  0  0  0  0
 11  7  1  0  0  0  0
 12 15  2  0  0  0  0
 13 35  1  0  0  0  0
 13  2  1  0  0  0  0
 14 13  1  0  0  0  0
 16  3  1  0  0  0  0
 17 16  1  0  0  0  0
 18 16  2  0  0  0  0
 19 23  1  0  0  0  0
 19 20  1  0  0  0  0
 20 22  1  0  0  0  0
 21 19  1  0  0  0  0
 21 23  1  0  0  0  0
 21 20  1  0  0  0  0
 23 17  1  0  0  0  0
 24 25  1  0  0  0  0
 24 20  1  0  0  0  0
 26 25  2  0  0  0  0
 27 24  1  0  0  0  0
 28 34  1  0  0  0  0
 29 33  2  0  0  0  0
 30 32  1  0  0  0  0
 31 30  2  0  0  0  0
 31 29  1  0  0  0  0
 32 28  2  0  0  0  0
 33 28  1  0  0  0  0
 33 34  1  0  0  0  0
 34 27  1  0  0  0  0
 36 37  2  0  0  0  0
 36 39  1  0  0  0  0
 37 41  1  0  0  0  0
 39 40  2  0  0  0  0
 40 38  1  0  0  0  0
 40 35  1  0  0  0  0
 41 38  2  0  0  0  0
 42 43  1  0  0  0  0
 43 37  1  0  0  0  0
M  END
>  <MODEL>
1

>  <REMARK>
 VINA RESULT:     -10.2      0.000      0.000
  Name = 
  9 active torsions:
  status: ('A' for Active; 'I' for Inactive)
    1  A    between atoms: C_1  and  N_34
    2  A    between atoms: C_1  and  C_35
    3  A    between atoms: C_2  and  C_13
    4  A    between atoms: C_4  and  C_22
    5  A    between atoms: N_6  and  C_17
    6  A    between atoms: C_10  and  C_22
    7  A    between atoms: O_14  and  C_22
    8  A    between atoms: O_14  and  C_41
    9  A    between atoms: C_19  and  C_37
                            x       y       z     vdW  Elec       q    Type
                         _______ _______ _______ _____ _____    ______ ____

>  <TORSDO>
F 9

$$$$
=
 OpenBabel10262422103D

 43 50  0  0  1  0  0  0  0  0999 V2000
  184.9260  178.4730  145.6020 C   0  0  0  0  0  0  0  0  0  0  0  0
  182.5430  178.8550  141.1650 C   0  0  0  0  0  0  0  0  0  0  0  0
  184.4820  178.3790  139.1620 C   0  0  0  0  0  0  0  0  0  0  0  0
  183.2550  178.7850  143.8770 C   0  0  0  0  0  0  0  0  0  0  0  0
  185.8970  178.2330  144.6250 C   0  0  0  0  0  3  0  0  0  0  0  0
  185.2630  178.4410  146.9130 F   0  0  0  0  0  0  0  0  0  0  0  0
  184.2340  178.5420  142.8850 C   0  0  0  0  0  0  0  0  0  0  0  0
  183.6070  178.7490  145.2290 C   0  0  0  0  0  3  0  0  0  0  0  0
  185.5530  178.2670  143.2710 C   0  0  0  0  0  3  0  0  0  0  0  0
  184.8200  178.3490  140.5240 O   0  0  0  0  0  0  0  0  0  0  0  0
  183.8720  178.5800  141.5300 C   0  0  0  0  0  0  0  0  0  0  0  0
  181.5820  179.0950  142.1560 C   0  0  0  0  0  3  0  0  0  0  0  0
  182.2060  178.8830  139.7660 N   0  0  0  0  0  0  0  0  0  0  0  0
  183.2230  178.6380  138.7880 C   0  0  0  0  0  3  0  0  0  0  0  0
  181.9370  179.0600  143.5070 C   0  0  0  0  0  3  0  0  0  0  0  0
  185.5200  178.1260  138.1530 C   0  0  0  0  0  0  0  0  0  0  0  0
  186.8340  178.6630  138.3210 N   0  0  0  0  0  2  0  0  0  0  0  0
  185.2430  177.4380  137.1340 O   0  0  0  0  0  0  0  0  0  0  0  0
  189.2500  178.6970  138.0030 C   0  0  1  0  0  3  0  0  0  0  0  0
  189.6150  177.6360  139.0170 C   0  0  2  0  0  0  0  0  0  0  0  0
  188.7610  177.2590  137.8260 C   0  0  1  0  0  3  0  0  0  0  0  0
  188.8780  177.6910  140.3490 C   0  0  0  0  0  1  0  0  0  0  0  0
  187.9010  178.4200  137.3610 C   0  0  1  0  0  3  0  0  0  0  0  0
  191.0540  177.1240  138.9530 C   0  0  1  0  0  3  0  0  0  0  0  0
  191.7210  177.2090  140.2910 C   0  0  0  0  0  3  0  0  0  0  0  0
  192.9210  177.4190  140.3740 O   0  0  0  0  0  0  0  0  0  0  0  0
  191.0680  175.7970  138.5070 O   0  0  0  0  0  0  0  0  0  0  0  0
  192.9390  174.9750  137.4720 C   0  0  0  0  0  0  0  0  0  0  0  0
  191.5850  173.3570  136.0900 C   0  0  0  0  0  3  0  0  0  0  0  0
  193.9450  172.9750  137.0280 C   0  0  0  0  0  3  0  0  0  0  0  0
  192.7630  172.5490  136.2730 C   0  0  0  0  0  3  0  0  0  0  0  0
  194.0750  174.2520  137.6790 C   0  0  0  0  0  3  0  0  0  0  0  0
  191.7610  174.5520  136.7200 C   0  0  0  0  0  0  0  0  0  0  0  0
  191.8220  175.8150  137.3300 C   0  0  1  0  0  3  0  0  0  0  0  0
  180.8320  179.0760  139.3160 C   0  0  0  0  0  2  0  0  0  0  0  0
  181.0170  182.4670  137.6320 C   0  0  0  0  0  3  0  0  0  0  0  0
  180.5800  182.1570  136.3400 C   0  0  0  0  0  0  0  0  0  0  0  0
  180.3260  179.8320  136.9850 C   0  0  0  0  0  3  0  0  0  0  0  0
  181.1150  181.4620  138.5970 C   0  0  0  0  0  3  0  0  0  0  0  0
  180.7750  180.1420  138.2730 C   0  0  0  0  0  0  0  0  0  0  0  0
  180.2310  180.8380  136.0190 C   0  0  0  0  0  3  0  0  0  0  0  0
  180.9270  184.5570  135.8930 C   0  0  0  0  0  1  0  0  0  0  0  0
  180.4580  183.2330  135.3160 C   0  0  0  0  0  2  0  0  0  0  0  0
  1  6  1  0  0  0  0
  2 11  2  0  0  0  0
  2 12  1  0  0  0  0
  3 10  1  0  0  0  0
  4  8  2  0  0  0  0
  5  1  2  0  0  0  0
  7  9  2  0  0  0  0
  7  4  1  0  0  0  0
  8  1  1  0  0  0  0
  9  5  1  0  0  0  0
 10 11  1  0  0  0  0
 11  7  1  0  0  0  0
 12 15  2  0  0  0  0
 13  2  1  0  0  0  0
 14  3  2  0  0  0  0
 14 13  1  0  0  0  0
 15  4  1  0  0  0  0
 16 17  1  0  0  0  0
 16  3  1  0  0  0  0
 18 16  2  0  0  0  0
 19 20  1  0  0  0  0
 20 22  1  0  0  0  0
 21 19  1  0  0  0  0
 21 20  1  0  0  0  0
 23 21  1  0  0  0  0
 23 19  1  0  0  0  0
 23 17  1  0  0  0  0
 24 20  1  0  0  0  0
 24 25  1  0  0  0  0
 25 26  2  0  0  0  0
 27 24  1  0  0  0  0
 28 32  1  0  0  0  0
 29 31  2  0  0  0  0
 29 33  1  0  0  0  0
 30 32  2  0  0  0  0
 31 30  1  0  0  0  0
 33 34  1  0  0  0  0
 33 28  2  0  0  0  0
 34 28  1  0  0  0  0
 34 27  1  0  0  0  0
 35 13  1  0  0  0  0
 36 39  1  0  0  0  0
 37 36  2  0  0  0  0
 38 40  1  0  0  0  0
 40 39  2  0  0  0  0
 40 35  1  0  0  0  0
 41 37  1  0  0  0  0
 41 38  2  0  0  0  0
 43 42  1  0  0  0  0
 43 37  1  0  0  0  0
M  END
>  <MODEL>
2

>  <REMARK>
 VINA RESULT:     -10.2      2.998      4.547
  Name = 
  9 active torsions:
  status: ('A' for Active; 'I' for Inactive)
    1  A    between atoms: C_1  and  N_34
    2  A    between atoms: C_1  and  C_35
    3  A    between atoms: C_2  and  C_13
    4  A    between atoms: C_4  and  C_22
    5  A    between atoms: N_6  and  C_17
    6  A    between atoms: C_10  and  C_22
    7  A    between atoms: O_14  and  C_22
    8  A    between atoms: O_14  and  C_41
    9  A    between atoms: C_19  and  C_37
                            x       y       z     vdW  Elec       q    Type
                         _______ _______ _______ _____ _____    ______ ____

>  <TORSDO>
F 9

$$$$
=
 OpenBabel10262422103D

 43 50  0  0  1  0  0  0  0  0999 V2000
  187.8840  177.5630  147.7350 C   0  0  0  0  0  0  0  0  0  0  0  0
  188.9770  177.6950  142.8050 C   0  0  0  0  0  0  0  0  0  0  0  0
  186.5780  178.3590  141.4630 C   0  0  0  0  0  0  0  0  0  0  0  0
  189.0230  177.4620  145.6000 C   0  0  0  0  0  0  0  0  0  0  0  0
  186.6900  177.8950  147.0870 C   0  0  0  0  0  3  0  0  0  0  0  0
  187.9130  177.4480  149.0840 F   0  0  0  0  0  0  0  0  0  0  0  0
  187.8170  177.7970  144.9400 C   0  0  0  0  0  0  0  0  0  0  0  0
  189.0490  177.3460  146.9930 C   0  0  0  0  0  3  0  0  0  0  0  0
  186.6560  178.0110  145.6950 C   0  0  0  0  0  3  0  0  0  0  0  0
  186.6210  178.2380  142.8600 O   0  0  0  0  0  0  0  0  0  0  0  0
  187.8000  177.9110  143.5420 C   0  0  0  0  0  0  0  0  0  0  0  0
  190.1660  177.3610  143.4690 C   0  0  0  0  0  3  0  0  0  0  0  0
  188.9250  177.8230  141.3730 N   0  0  0  0  0  0  0  0  0  0  0  0
  187.6850  178.1600  140.7370 C   0  0  0  0  0  3  0  0  0  0  0  0
  190.1870  177.2460  144.8610 C   0  0  0  0  0  3  0  0  0  0  0  0
  185.3110  178.7070  140.8040 C   0  0  0  0  0  0  0  0  0  0  0  0
  184.1850  177.8320  140.9030 N   0  0  0  0  0  2  0  0  0  0  0  0
  185.2260  179.7770  140.1440 O   0  0  0  0  0  0  0  0  0  0  0  0
  181.7710  177.7940  141.2400 C   0  0  1  0  0  3  0  0  0  0  0  0
  181.7020  178.7580  142.4040 C   0  0  2  0  0  0  0  0  0  0  0  0
  182.2100  179.2500  141.0670 C   0  0  1  0  0  3  0  0  0  0  0  0
  182.7670  178.5960  143.4810 C   0  0  0  0  0  1  0  0  0  0  0  0
  182.9030  178.1450  140.2880 C   0  0  1  0  0  3  0  0  0  0  0  0
  180.3040  179.2540  142.7720 C   0  0  1  0  0  3  0  0  0  0  0  0
  180.0150  179.0380  144.2250 C   0  0  0  0  0  3  0  0  0  0  0  0
  178.9310  178.6060  144.5860 O   0  0  0  0  0  0  0  0  0  0  0  0
  180.1870  180.6170  142.4710 O   0  0  0  0  0  0  0  0  0  0  0  0
  179.0640  181.5100  140.6850 C   0  0  0  0  0  0  0  0  0  0  0  0
  178.9320  179.2750  139.5230 C   0  0  0  0  0  3  0  0  0  0  0  0
  179.1890  181.5730  138.4070 C   0  0  0  0  0  3  0  0  0  0  0  0
  179.0640  180.1140  138.3610 C   0  0  0  0  0  3  0  0  0  0  0  0
  179.1950  182.3490  139.6200 C   0  0  0  0  0  3  0  0  0  0  0  0
  178.9390  180.0560  140.6390 C   0  0  0  0  0  0  0  0  0  0  0  0
  178.9370  180.7500  141.8600 C   0  0  1  0  0  3  0  0  0  0  0  0
  190.1230  177.6980  140.5510 C   0  0  0  0  0  2  0  0  0  0  0  0
  188.9190  178.7610  137.1170 C   0  0  0  0  0  3  0  0  0  0  0  0
  188.9790  177.5510  136.4170 C   0  0  0  0  0  0  0  0  0  0  0  0
  189.8040  176.4420  138.4110 C   0  0  0  0  0  3  0  0  0  0  0  0
  189.3070  178.8130  138.4580 C   0  0  0  0  0  3  0  0  0  0  0  0
  189.7560  177.6540  139.1050 C   0  0  0  0  0  0  0  0  0  0  0  0
  189.4180  176.3900  137.0680 C   0  0  0  0  0  3  0  0  0  0  0  0
  187.0560  177.7590  134.8870 C   0  0  0  0  0  1  0  0  0  0  0  0
  188.5470  177.4920  134.9930 C   0  0  0  0  0  2  0  0  0  0  0  0
  1  6  1  0  0  0  0
  2 12  2  0  0  0  0
  2 11  1  0  0  0  0
  3 10  1  0  0  0  0
  4  8  1  0  0  0  0
  5  1  1  0  0  0  0
  7  4  1  0  0  0  0
  7  9  1  0  0  0  0
  8  1  2  0  0  0  0
  9  5  2  0  0  0  0
 10 11  1  0  0  0  0
 11  7  2  0  0  0  0
 12 15  1  0  0  0  0
 13  2  1  0  0  0  0
 14 13  1  0  0  0  0
 14  3  2  0  0  0  0
 15  4  2  0  0  0  0
 16 17  1  0  0  0  0
 16  3  1  0  0  0  0
 18 16  2  0  0  0  0
 19 20  1  0  0  0  0
 20 24  1  0  0  0  0
 20 22  1  0  0  0  0
 21 19  1  0  0  0  0
 21 20  1  0  0  0  0
 23 17  1  0  0  0  0
 23 21  1  0  0  0  0
 23 19  1  0  0  0  0
 24 25  1  0  0  0  0
 25 26  2  0  0  0  0
 27 24  1  0  0  0  0
 28 34  1  0  0  0  0
 29 33  2  0  0  0  0
 30 32  1  0  0  0  0
 31 30  2  0  0  0  0
 31 29  1  0  0  0  0
 32 28  2  0  0  0  0
 33 28  1  0  0  0  0
 33 34  1  0  0  0  0
 34 27  1  0  0  0  0
 35 13  1  0  0  0  0
 36 39  1  0  0  0  0
 37 41  1  0  0  0  0
 37 36  2  0  0  0  0
 38 40  1  0  0  0  0
 39 40  2  0  0  0  0
 40 35  1  0  0  0  0
 41 38  2  0  0  0  0
 42 43  1  0  0  0  0
 43 37  1  0  0  0  0
M  END
>  <MODEL>
3

>  <REMARK>
 VINA RESULT:      -9.9      2.490      8.800
  Name = 
  9 active torsions:
  status: ('A' for Active; 'I' for Inactive)
    1  A    between atoms: C_1  and  N_34
    2  A    between atoms: C_1  and  C_35
    3  A    between atoms: C_2  and  C_13
    4  A    between atoms: C_4  and  C_22
    5  A    between atoms: N_6  and  C_17
    6  A    between atoms: C_10  and  C_22
    7  A    between atoms: O_14  and  C_22
    8  A    between atoms: O_14  and  C_41
    9  A    between atoms: C_19  and  C_37
                            x       y       z     vdW  Elec       q    Type
                         _______ _______ _______ _____ _____    ______ ____

>  <TORSDO>
F 9

$$$$
=
 OpenBabel10262422103D

 43 50  0  0  1  0  0  0  0  0999 V2000
  190.5420  176.8570  146.6880 C   0  0  0  0  0  0  0  0  0  0  0  0
  189.7430  177.6450  141.7630 C   0  0  0  0  0  0  0  0  0  0  0  0
  187.0660  178.5210  141.5080 C   0  0  0  0  0  0  0  0  0  0  0  0
  190.8020  177.0310  144.2860 C   0  0  0  0  0  0  0  0  0  0  0  0
  189.2170  177.2910  146.5800 C   0  0  0  0  0  3  0  0  0  0  0  0
  191.0590  176.5590  147.9030 F   0  0  0  0  0  0  0  0  0  0  0  0
  189.4620  177.4710  144.1730 C   0  0  0  0  0  0  0  0  0  0  0  0
  191.3330  176.7270  145.5430 C   0  0  0  0  0  3  0  0  0  0  0  0
  188.6780  177.5980  145.3270 C   0  0  0  0  0  3  0  0  0  0  0  0
  187.6130  178.2090  142.7620 O   0  0  0  0  0  0  0  0  0  0  0  0
  188.9380  177.7750  142.9070 C   0  0  0  0  0  0  0  0  0  0  0  0
  191.0680  177.2060  141.8870 C   0  0  0  0  0  3  0  0  0  0  0  0
  189.1730  177.9680  140.4810 N   0  0  0  0  0  0  0  0  0  0  0  0
  187.8110  178.4060  140.4020 C   0  0  0  0  0  3  0  0  0  0  0  0
  191.5950  176.9020  143.1450 C   0  0  0  0  0  3  0  0  0  0  0  0
  185.6700  178.9730  141.4190 C   0  0  0  0  0  0  0  0  0  0  0  0
  185.1060  179.3230  140.1530 N   0  0  0  0  0  2  0  0  0  0  0  0
  184.9760  179.0590  142.4670 O   0  0  0  0  0  0  0  0  0  0  0  0
  183.2750  179.5940  138.5690 C   0  0  1  0  0  3  0  0  0  0  0  0
  183.0950  178.1380  138.1970 C   0  0  2  0  0  0  0  0  0  0  0  0
  182.8500  178.5730  139.6260 C   0  0  1  0  0  3  0  0  0  0  0  0
  184.3690  177.3340  137.9760 C   0  0  0  0  0  1  0  0  0  0  0  0
  183.7230  179.7540  140.0120 C   0  0  1  0  0  3  0  0  0  0  0  0
  181.8280  177.8060  137.4100 C   0  0  1  0  0  3  0  0  0  0  0  0
  181.9570  178.2130  135.9750 C   0  0  0  0  0  3  0  0  0  0  0  0
  182.4970  177.4750  135.1650 O   0  0  0  0  0  0  0  0  0  0  0  0
  181.5670  176.4320  137.4840 O   0  0  0  0  0  0  0  0  0  0  0  0
  179.8860  175.2200  138.4590 C   0  0  0  0  0  0  0  0  0  0  0  0
  179.5660  176.9390  140.2780 C   0  0  0  0  0  3  0  0  0  0  0  0
  179.2970  174.3940  140.5040 C   0  0  0  0  0  3  0  0  0  0  0  0
  179.2710  175.7560  141.0450 C   0  0  0  0  0  3  0  0  0  0  0  0
  179.6200  174.0700  139.1390 C   0  0  0  0  0  3  0  0  0  0  0  0
  179.8600  176.5770  138.9970 C   0  0  0  0  0  0  0  0  0  0  0  0
  180.1830  176.3320  137.6530 C   0  0  1  0  0  3  0  0  0  0  0  0
  189.9730  177.9390  139.2610 C   0  0  0  0  0  2  0  0  0  0  0  0
  187.9410  178.1950  136.0720 C   0  0  0  0  0  3  0  0  0  0  0  0
  187.4460  176.8920  135.9550 C   0  0  0  0  0  0  0  0  0  0  0  0
  188.6160  176.2680  137.9860 C   0  0  0  0  0  3  0  0  0  0  0  0
  188.7770  178.5330  137.1390 C   0  0  0  0  0  3  0  0  0  0  0  0
  189.1200  177.5680  138.0940 C   0  0  0  0  0  0  0  0  0  0  0  0
  187.7810  175.9290  136.9170 C   0  0  0  0  0  3  0  0  0  0  0  0
  185.6300  175.3890  135.2290 C   0  0  0  0  0  1  0  0  0  0  0  0
  186.5390  176.5380  134.8270 C   0  0  0  0  0  2  0  0  0  0  0  0
  1  6  1  0  0  0  0
  2 12  2  0  0  0  0
  2 11  1  0  0  0  0
  3 10  1  0  0  0  0
  4  8  1  0  0  0  0
  5  1  1  0  0  0  0
  7  4  1  0  0  0  0
  7  9  1  0  0  0  0
  8  1  2  0  0  0  0
  9  5  2  0  0  0  0
 10 11  1  0  0  0  0
 11  7  2  0  0  0  0
 12 15  1  0  0  0  0
 13  2  1  0  0  0  0
 14 13  1  0  0  0  0
 14  3  2  0  0  0  0
 15  4  2  0  0  0  0
 16  3  1  0  0  0  0
 16 18  2  0  0  0  0
 17 16  1  0  0  0  0
 19 21  1  0  0  0  0
 19 23  1  0  0  0  0
 20 19  1  0  0  0  0
 20 21  1  0  0  0  0
 21 23  1  0  0  0  0
 22 20  1  0  0  0  0
 23 17  1  0  0  0  0
 24 27  1  0  0  0  0
 24 20  1  0  0  0  0
 25 24  1  0  0  0  0
 26 25  2  0  0  0  0
 27 34  1  0  0  0  0
 28 33  2  0  0  0  0
 28 32  1  0  0  0  0
 29 31  2  0  0  0  0
 30 31  1  0  0  0  0
 32 30  2  0  0  0  0
 33 29  1  0  0  0  0
 34 28  1  0  0  0  0
 34 33  1  0  0  0  0
 35 13  1  0  0  0  0
 36 39  1  0  0  0  0
 37 36  2  0  0  0  0
 37 41  1  0  0  0  0
 38 40  1  0  0  0  0
 39 40  2  0  0  0  0
 40 35  1  0  0  0  0
 41 38  2  0  0  0  0
 43 42  1  0  0  0  0
 43 37  1  0  0  0  0
M  END
>  <MODEL>
4

>  <REMARK>
 VINA RESULT:      -9.8      2.839      7.531
  Name = 
  9 active torsions:
  status: ('A' for Active; 'I' for Inactive)
    1  A    between atoms: C_1  and  N_34
    2  A    between atoms: C_1  and  C_35
    3  A    between atoms: C_2  and  C_13
    4  A    between atoms: C_4  and  C_22
    5  A    between atoms: N_6  and  C_17
    6  A    between atoms: C_10  and  C_22
    7  A    between atoms: O_14  and  C_22
    8  A    between atoms: O_14  and  C_41
    9  A    between atoms: C_19  and  C_37
                            x       y       z     vdW  Elec       q    Type
                         _______ _______ _______ _____ _____    ______ ____

>  <TORSDO>
F 9

$$$$
=
 OpenBabel10262422103D

 43 50  0  0  1  0  0  0  0  0999 V2000
  190.9760  176.7550  146.8330 C   0  0  0  0  0  0  0  0  0  0  0  0
  189.7450  177.5960  142.0070 C   0  0  0  0  0  0  0  0  0  0  0  0
  187.0280  178.3800  141.9910 C   0  0  0  0  0  0  0  0  0  0  0  0
  191.0310  176.9790  144.4230 C   0  0  0  0  0  0  0  0  0  0  0  0
  189.6330  177.1430  146.8440 C   0  0  0  0  0  3  0  0  0  0  0  0
  191.6030  176.4550  147.9960 F   0  0  0  0  0  0  0  0  0  0  0  0
  189.6720  177.3720  144.4290 C   0  0  0  0  0  0  0  0  0  0  0  0
  191.6740  176.6720  145.6250 C   0  0  0  0  0  3  0  0  0  0  0  0
  188.9820  177.4510  145.6460 C   0  0  0  0  0  3  0  0  0  0  0  0
  187.6880  178.0670  143.1900 O   0  0  0  0  0  0  0  0  0  0  0  0
  189.0340  177.6780  143.2170 C   0  0  0  0  0  0  0  0  0  0  0  0
  191.0910  177.2030  142.0140 C   0  0  0  0  0  3  0  0  0  0  0  0
  189.0610  177.9200  140.7840 N   0  0  0  0  0  0  0  0  0  0  0  0
  187.6830  178.3110  140.8260 C   0  0  0  0  0  3  0  0  0  0  0  0
  191.7300  176.8960  143.2170 C   0  0  0  0  0  3  0  0  0  0  0  0
  185.6150  178.7840  142.0270 C   0  0  0  0  0  0  0  0  0  0  0  0
  184.6310  178.0240  141.3200 N   0  0  0  0  0  2  0  0  0  0  0  0
  185.2770  179.8090  142.6770 O   0  0  0  0  0  0  0  0  0  0  0  0
  182.8740  179.2310  140.1390 C   0  0  1  0  0  3  0  0  0  0  0  0
  182.8850  178.4260  138.8580 C   0  0  2  0  0  0  0  0  0  0  0  0
  182.5100  177.7450  140.1560 C   0  0  1  0  0  3  0  0  0  0  0  0
  184.2540  178.0540  138.3040 C   0  0  0  0  0  1  0  0  0  0  0  0
  183.2180  178.3710  141.3450 C   0  0  1  0  0  3  0  0  0  0  0  0
  181.7110  178.6720  137.9100 C   0  0  1  0  0  3  0  0  0  0  0  0
  181.5520  180.1300  137.6090 C   0  0  0  0  0  3  0  0  0  0  0  0
  181.0170  180.4960  136.5740 O   0  0  0  0  0  0  0  0  0  0  0  0
  181.9070  177.9670  136.7160 O   0  0  0  0  0  0  0  0  0  0  0  0
  181.2540  176.0100  135.7200 C   0  0  0  0  0  0  0  0  0  0  0  0
  182.2700  174.6180  137.5610 C   0  0  0  0  0  3  0  0  0  0  0  0
  182.1390  174.0100  135.0690 C   0  0  0  0  0  3  0  0  0  0  0  0
  182.5190  173.7290  136.4560 C   0  0  0  0  0  3  0  0  0  0  0  0
  181.4690  175.2090  134.6400 C   0  0  0  0  0  3  0  0  0  0  0  0
  181.6330  175.7310  137.1020 C   0  0  0  0  0  0  0  0  0  0  0  0
  180.9780  176.9230  136.7520 C   0  0  1  0  0  3  0  0  0  0  0  0
  189.7560  177.9400  139.5020 C   0  0  0  0  0  2  0  0  0  0  0  0
  187.3640  176.3450  137.0320 C   0  0  0  0  0  3  0  0  0  0  0  0
  187.0290  177.4390  136.2270 C   0  0  0  0  0  0  0  0  0  0  0  0
  188.4600  178.8640  137.5720 C   0  0  0  0  0  3  0  0  0  0  0  0
  188.2390  176.5100  138.1080 C   0  0  0  0  0  3  0  0  0  0  0  0
  188.7830  177.7720  138.3840 C   0  0  0  0  0  0  0  0  0  0  0  0
  187.5820  178.6990  136.4970 C   0  0  0  0  0  3  0  0  0  0  0  0
  185.2880  175.9940  135.2470 C   0  0  0  0  0  1  0  0  0  0  0  0
  186.1110  177.2580  135.0680 C   0  0  0  0  0  2  0  0  0  0  0  0
  1  5  1  0  0  0  0
  1  6  1  0  0  0  0
  2 12  2  0  0  0  0
  2 11  1  0  0  0  0
  3 16  1  0  0  0  0
  3 10  1  0  0  0  0
  4  7  1  0  0  0  0
  4  8  1  0  0  0  0
  7  9  1  0  0  0  0
  8  1  2  0  0  0  0
  9  5  2  0  0  0  0
 10 11  1  0  0  0  0
 11  7  2  0  0  0  0
 12 15  1  0  0  0  0
 13 14  1  0  0  0  0
 13  2  1  0  0  0  0
 14  3  2  0  0  0  0
 15  4  2  0  0  0  0
 16 18  2  0  0  0  0
 17 23  1  0  0  0  0
 17 16  1  0  0  0  0
 19 21  1  0  0  0  0
 19 23  1  0  0  0  0
 20 19  1  0  0  0  0
 20 21  1  0  0  0  0
 21 23  1  0  0  0  0
 22 20  1  0  0  0  0
 24 20  1  0  0  0  0
 25 24  1  0  0  0  0
 26 25  2  0  0  0  0
 27 34  1  0  0  0  0
 27 24  1  0  0  0  0
 28 34  1  0  0  0  0
 28 33  1  0  0  0  0
 30 31  2  0  0  0  0
 31 29  1  0  0  0  0
 32 30  1  0  0  0  0
 32 28  2  0  0  0  0
 33 29  2  0  0  0  0
 34 33  1  0  0  0  0
 35 13  1  0  0  0  0
 36 39  1  0  0  0  0
 37 41  1  0  0  0  0
 37 36  2  0  0  0  0
 38 40  1  0  0  0  0
 39 40  2  0  0  0  0
 40 35  1  0  0  0  0
 41 38  2  0  0  0  0
 43 42  1  0  0  0  0
 43 37  1  0  0  0  0
M  END
>  <MODEL>
5

>  <REMARK>
 VINA RESULT:      -9.8      2.949      6.989
  Name = 
  9 active torsions:
  status: ('A' for Active; 'I' for Inactive)
    1  A    between atoms: C_1  and  N_34
    2  A    between atoms: C_1  and  C_35
    3  A    between atoms: C_2  and  C_13
    4  A    between atoms: C_4  and  C_22
    5  A    between atoms: N_6  and  C_17
    6  A    between atoms: C_10  and  C_22
    7  A    between atoms: O_14  and  C_22
    8  A    between atoms: O_14  and  C_41
    9  A    between atoms: C_19  and  C_37
                            x       y       z     vdW  Elec       q    Type
                         _______ _______ _______ _____ _____    ______ ____

>  <TORSDO>
F 9

$$$$
=
 OpenBabel10262422103D

 43 50  0  0  1  0  0  0  0  0999 V2000
  183.4310  178.8210  144.7220 C   0  0  0  0  0  0  0  0  0  0  0  0
  182.0750  178.7690  139.8560 C   0  0  0  0  0  0  0  0  0  0  0  0
  184.3960  178.1160  138.3780 C   0  0  0  0  0  0  0  0  0  0  0  0
  182.1800  178.9600  142.6530 C   0  0  0  0  0  0  0  0  0  0  0  0
  184.5870  178.4940  144.0060 C   0  0  0  0  0  3  0  0  0  0  0  0
  183.4740  178.9150  146.0720 F   0  0  0  0  0  0  0  0  0  0  0  0
  183.3480  178.6290  141.9250 C   0  0  0  0  0  0  0  0  0  0  0  0
  182.2290  179.0540  144.0460 C   0  0  0  0  0  3  0  0  0  0  0  0
  184.5460  178.3990  142.6130 C   0  0  0  0  0  3  0  0  0  0  0  0
  184.4290  178.2160  139.7770 O   0  0  0  0  0  0  0  0  0  0  0  0
  183.2890  178.5370  140.5260 C   0  0  0  0  0  0  0  0  0  0  0  0
  180.9260  179.0980  140.5880 C   0  0  0  0  0  3  0  0  0  0  0  0
  182.0510  178.6630  138.4210 N   0  0  0  0  0  0  0  0  0  0  0  0
  183.2530  178.3310  137.7150 C   0  0  0  0  0  3  0  0  0  0  0  0
  180.9790  179.1920  141.9800 C   0  0  0  0  0  3  0  0  0  0  0  0
  185.6240  177.7740  137.6470 C   0  0  0  0  0  0  0  0  0  0  0  0
  186.8880  178.2760  138.0880 N   0  0  0  0  0  2  0  0  0  0  0  0
  185.5560  177.0400  136.6250 O   0  0  0  0  0  0  0  0  0  0  0  0
  189.3160  178.3380  138.2800 C   0  0  1  0  0  3  0  0  0  0  0  0
  189.4610  177.4220  139.4750 C   0  0  2  0  0  0  0  0  0  0  0  0
  188.8780  176.8750  138.1900 C   0  0  1  0  0  3  0  0  0  0  0  0
  188.4600  177.6220  140.6050 C   0  0  0  0  0  1  0  0  0  0  0  0
  188.1330  177.9450  137.4110 C   0  0  1  0  0  3  0  0  0  0  0  0
  190.8810  176.9470  139.7790 C   0  0  1  0  0  3  0  0  0  0  0  0
  191.6710  176.7540  138.5220 C   0  0  0  0  0  3  0  0  0  0  0  0
  192.6770  176.0610  138.5200 O   0  0  0  0  0  0  0  0  0  0  0  0
  191.5300  177.8780  140.6000 O   0  0  0  0  0  0  0  0  0  0  0  0
  191.7420  177.7800  142.8790 C   0  0  0  0  0  0  0  0  0  0  0  0
  189.9220  176.0450  143.0730 C   0  0  0  0  0  3  0  0  0  0  0  0
  190.4470  177.9140  144.7530 C   0  0  0  0  0  3  0  0  0  0  0  0
  189.6750  176.7540  144.3010 C   0  0  0  0  0  3  0  0  0  0  0  0
  191.5490  178.4880  144.0260 C   0  0  0  0  0  3  0  0  0  0  0  0
  190.9730  176.6240  142.4280 C   0  0  0  0  0  0  0  0  0  0  0  0
  192.0380  177.1320  141.6680 C   0  0  1  0  0  3  0  0  0  0  0  0
  180.8110  178.8060  137.6670 C   0  0  0  0  0  2  0  0  0  0  0  0
  180.7480  181.4680  134.9690 C   0  0  0  0  0  3  0  0  0  0  0  0
  180.7730  182.6380  135.7360 C   0  0  0  0  0  0  0  0  0  0  0  0
  180.8040  181.3060  137.7630 C   0  0  0  0  0  3  0  0  0  0  0  0
  180.7430  180.2200  135.5970 C   0  0  0  0  0  3  0  0  0  0  0  0
  180.7650  180.1380  136.9950 C   0  0  0  0  0  0  0  0  0  0  0  0
  180.8060  182.5550  137.1350 C   0  0  0  0  0  3  0  0  0  0  0  0
  180.8050  185.0760  136.1040 C   0  0  0  0  0  1  0  0  0  0  0  0
  180.7970  183.9680  135.0650 C   0  0  0  0  0  2  0  0  0  0  0  0
  1  6  1  0  0  0  0
  2 11  2  0  0  0  0
  2 12  1  0  0  0  0
  3 10  1  0  0  0  0
  4  8  2  0  0  0  0
  5  1  2  0  0  0  0
  7  9  2  0  0  0  0
  7  4  1  0  0  0  0
  8  1  1  0  0  0  0
  9  5  1  0  0  0  0
 10 11  1  0  0  0  0
 11  7  1  0  0  0  0
 12 15  2  0  0  0  0
 13  2  1  0  0  0  0
 14  3  2  0  0  0  0
 14 13  1  0  0  0  0
 15  4  1  0  0  0  0
 16 17  1  0  0  0  0
 16  3  1  0  0  0  0
 18 16  2  0  0  0  0
 19 20  1  0  0  0  0
 20 24  1  0  0  0  0
 20 22  1  0  0  0  0
 21 19  1  0  0  0  0
 21 20  1  0  0  0  0
 23 17  1  0  0  0  0
 23 21  1  0  0  0  0
 23 19  1  0  0  0  0
 24 27  1  0  0  0  0
 25 24  1  0  0  0  0
 26 25  2  0  0  0  0
 27 34  1  0  0  0  0
 28 32  1  0  0  0  0
 29 31  2  0  0  0  0
 31 30  1  0  0  0  0
 32 30  2  0  0  0  0
 33 28  2  0  0  0  0
 33 29  1  0  0  0  0
 34 33  1  0  0  0  0
 34 28  1  0  0  0  0
 35 13  1  0  0  0  0
 36 39  2  0  0  0  0
 36 37  1  0  0  0  0
 37 41  2  0  0  0  0
 39 40  1  0  0  0  0
 40 35  1  0  0  0  0
 40 38  2  0  0  0  0
 41 38  1  0  0  0  0
 43 37  1  0  0  0  0
 43 42  1  0  0  0  0
M  END
>  <MODEL>
6

>  <REMARK>
 VINA RESULT:      -9.7      3.456      6.218
  Name = 
  9 active torsions:
  status: ('A' for Active; 'I' for Inactive)
    1  A    between atoms: C_1  and  N_34
    2  A    between atoms: C_1  and  C_35
    3  A    between atoms: C_2  and  C_13
    4  A    between atoms: C_4  and  C_22
    5  A    between atoms: N_6  and  C_17
    6  A    between atoms: C_10  and  C_22
    7  A    between atoms: O_14  and  C_22
    8  A    between atoms: O_14  and  C_41
    9  A    between atoms: C_19  and  C_37
                            x       y       z     vdW  Elec       q    Type
                         _______ _______ _______ _____ _____    ______ ____

>  <TORSDO>
F 9

$$$$
=
 OpenBabel10262422103D

 43 50  0  0  1  0  0  0  0  0999 V2000
  188.3520  177.5660  147.0630 C   0  0  0  0  0  0  0  0  0  0  0  0
  184.4290  178.6280  144.0630 C   0  0  0  0  0  0  0  0  0  0  0  0
  185.4180  178.6370  141.4130 C   0  0  0  0  0  0  0  0  0  0  0  0
  186.1460  178.0980  146.2170 C   0  0  0  0  0  0  0  0  0  0  0  0
  188.8560  177.5640  145.7590 C   0  0  0  0  0  3  0  0  0  0  0  0
  189.1750  177.3110  148.1080 F   0  0  0  0  0  0  0  0  0  0  0  0
  186.6520  178.0970  144.8960 C   0  0  0  0  0  0  0  0  0  0  0  0
  186.9990  177.8330  147.2920 C   0  0  0  0  0  3  0  0  0  0  0  0
  188.0100  177.8280  144.6790 C   0  0  0  0  0  3  0  0  0  0  0  0
  186.2610  178.3740  142.5040 O   0  0  0  0  0  0  0  0  0  0  0  0
  185.7890  178.3640  143.8230 C   0  0  0  0  0  0  0  0  0  0  0  0
  183.9390  178.6280  145.3760 C   0  0  0  0  0  3  0  0  0  0  0  0
  183.5720  178.8940  142.9380 N   0  0  0  0  0  0  0  0  0  0  0  0
  184.1190  178.8900  141.6140 C   0  0  0  0  0  3  0  0  0  0  0  0
  184.7950  178.3640  146.4480 C   0  0  0  0  0  3  0  0  0  0  0  0
  185.9710  178.6310  140.0520 C   0  0  0  0  0  0  0  0  0  0  0  0
  187.3320  178.2520  139.8290 N   0  0  0  0  0  2  0  0  0  0  0  0
  185.2420  178.9700  139.0820 O   0  0  0  0  0  0  0  0  0  0  0  0
  189.4280  178.3430  138.5900 C   0  0  1  0  0  3  0  0  0  0  0  0
  190.0670  177.0940  139.1560 C   0  0  2  0  0  0  0  0  0  0  0  0
  188.7890  176.9730  138.3550 C   0  0  1  0  0  3  0  0  0  0  0  0
  189.9120  176.8760  140.6560 C   0  0  0  0  0  1  0  0  0  0  0  0
  187.9170  178.2080  138.4970 C   0  0  1  0  0  3  0  0  0  0  0  0
  191.3190  176.6020  138.4310 C   0  0  1  0  0  3  0  0  0  0  0  0
  192.5640  177.0460  139.1340 C   0  0  0  0  0  3  0  0  0  0  0  0
  193.6580  176.6330  138.7800 O   0  0  0  0  0  0  0  0  0  0  0  0
  191.3030  175.2040  138.3470 O   0  0  0  0  0  0  0  0  0  0  0  0
  191.9440  175.2830  136.1490 C   0  0  0  0  0  0  0  0  0  0  0  0
  192.4310  172.8090  136.0990 C   0  0  0  0  0  3  0  0  0  0  0  0
  193.6880  174.6490  134.8220 C   0  0  0  0  0  3  0  0  0  0  0  0
  193.4630  173.2500  135.1980 C   0  0  0  0  0  3  0  0  0  0  0  0
  192.9050  175.7540  135.3070 C   0  0  0  0  0  3  0  0  0  0  0  0
  191.7190  173.8900  136.5230 C   0  0  0  0  0  0  0  0  0  0  0  0
  190.9140  174.9210  137.0350 C   0  0  1  0  0  3  0  0  0  0  0  0
  182.1360  179.0910  143.1040 C   0  0  0  0  0  2  0  0  0  0  0  0
  181.0070  177.4170  139.8950 C   0  0  0  0  0  3  0  0  0  0  0  0
  180.1710  178.3990  139.3520 C   0  0  0  0  0  0  0  0  0  0  0  0
  180.6040  179.8240  141.2670 C   0  0  0  0  0  3  0  0  0  0  0  0
  181.6340  177.6350  141.1250 C   0  0  0  0  0  3  0  0  0  0  0  0
  181.4280  178.8370  141.8150 C   0  0  0  0  0  0  0  0  0  0  0  0
  179.9740  179.6050  140.0380 C   0  0  0  0  0  3  0  0  0  0  0  0
  180.4250  177.3510  137.1340 C   0  0  0  0  0  1  0  0  0  0  0  0
  179.5180  178.1740  138.0320 C   0  0  0  0  0  2  0  0  0  0  0  0
  1  8  1  0  0  0  0
  1  6  1  0  0  0  0
  2 12  1  0  0  0  0
  3 14  2  0  0  0  0
  3 10  1  0  0  0  0
  4 15  1  0  0  0  0
  4  8  2  0  0  0  0
  5  1  2  0  0  0  0
  7  4  1  0  0  0  0
  9  7  2  0  0  0  0
  9  5  1  0  0  0  0
 10 11  1  0  0  0  0
 11  2  2  0  0  0  0
 11  7  1  0  0  0  0
 12 15  2  0  0  0  0
 13 35  1  0  0  0  0
 13  2  1  0  0  0  0
 14 13  1  0  0  0  0
 16  3  1  0  0  0  0
 17 16  1  0  0  0  0
 18 16  2  0  0  0  0
 19 20  1  0  0  0  0
 20 22  1  0  0  0  0
 21 23  1  0  0  0  0
 21 19  1  0  0  0  0
 21 20  1  0  0  0  0
 23 19  1  0  0  0  0
 23 17  1  0  0  0  0
 24 25  1  0  0  0  0
 24 20  1  0  0  0  0
 26 25  2  0  0  0  0
 27 24  1  0  0  0  0
 28 33  1  0  0  0  0
 28 34  1  0  0  0  0
 29 33  2  0  0  0  0
 30 31  2  0  0  0  0
 30 32  1  0  0  0  0
 31 29  1  0  0  0  0
 32 28  2  0  0  0  0
 33 34  1  0  0  0  0
 34 27  1  0  0  0  0
 36 39  1  0  0  0  0
 37 36  2  0  0  0  0
 37 41  1  0  0  0  0
 38 40  1  0  0  0  0
 39 40  2  0  0  0  0
 40 35  1  0  0  0  0
 41 38  2  0  0  0  0
 42 43  1  0  0  0  0
 43 37  1  0  0  0  0
M  END
>  <MODEL>
7

>  <REMARK>
 VINA RESULT:      -9.6      1.361      2.086
  Name = 
  9 active torsions:
  status: ('A' for Active; 'I' for Inactive)
    1  A    between atoms: C_1  and  N_34
    2  A    between atoms: C_1  and  C_35
    3  A    between atoms: C_2  and  C_13
    4  A    between atoms: C_4  and  C_22
    5  A    between atoms: N_6  and  C_17
    6  A    between atoms: C_10  and  C_22
    7  A    between atoms: O_14  and  C_22
    8  A    between atoms: O_14  and  C_41
    9  A    between atoms: C_19  and  C_37
                            x       y       z     vdW  Elec       q    Type
                         _______ _______ _______ _____ _____    ______ ____

>  <TORSDO>
F 9

$$$$
=
 OpenBabel10262422103D

 43 50  0  0  1  0  0  0  0  0999 V2000
  187.8840  177.5030  146.5770 C   0  0  0  0  0  0  0  0  0  0  0  0
  190.2560  177.5120  142.1170 C   0  0  0  0  0  0  0  0  0  0  0  0
  188.2810  177.9980  140.1520 C   0  0  0  0  0  0  0  0  0  0  0  0
  189.5580  177.3840  144.8310 C   0  0  0  0  0  0  0  0  0  0  0  0
  186.8950  177.7460  145.6190 C   0  0  0  0  0  3  0  0  0  0  0  0
  187.5540  177.4390  147.8890 F   0  0  0  0  0  0  0  0  0  0  0  0
  188.5610  177.6310  143.8580 C   0  0  0  0  0  0  0  0  0  0  0  0
  189.2140  177.3220  146.1840 C   0  0  0  0  0  3  0  0  0  0  0  0
  187.2320  177.8100  144.2640 C   0  0  0  0  0  3  0  0  0  0  0  0
  187.9510  177.9300  141.5150 O   0  0  0  0  0  0  0  0  0  0  0  0
  188.9160  177.6920  142.5020 C   0  0  0  0  0  0  0  0  0  0  0  0
  191.2350  177.2670  143.0900 C   0  0  0  0  0  3  0  0  0  0  0  0
  190.5850  177.5860  140.7180 N   0  0  0  0  0  0  0  0  0  0  0  0
  189.5500  177.8310  139.7590 C   0  0  0  0  0  3  0  0  0  0  0  0
  190.8870  177.2040  144.4410 C   0  0  0  0  0  3  0  0  0  0  0  0
  187.2240  178.2530  139.1630 C   0  0  0  0  0  0  0  0  0  0  0  0
  185.9130  178.6280  139.5910 N   0  0  0  0  0  2  0  0  0  0  0  0
  187.4790  178.1320  137.9350 O   0  0  0  0  0  0  0  0  0  0  0  0
  183.5800  178.1700  139.0560 C   0  0  1  0  0  3  0  0  0  0  0  0
  182.9540  178.7690  140.2950 C   0  0  2  0  0  0  0  0  0  0  0  0
  183.7220  179.6650  139.3480 C   0  0  1  0  0  3  0  0  0  0  0  0
  183.6520  178.4750  141.6170 C   0  0  0  0  0  1  0  0  0  0  0  0
  184.8410  178.9140  138.6490 C   0  0  1  0  0  3  0  0  0  0  0  0
  181.4370  178.9530  140.2500 C   0  0  1  0  0  3  0  0  0  0  0  0
  180.7710  178.2560  141.3960 C   0  0  0  0  0  3  0  0  0  0  0  0
  180.0630  177.2790  141.2020 O   0  0  0  0  0  0  0  0  0  0  0  0
  181.1200  180.3160  140.2850 O   0  0  0  0  0  0  0  0  0  0  0  0
  180.1170  181.5820  138.6610 C   0  0  0  0  0  0  0  0  0  0  0  0
  180.6900  179.9090  136.8630 C   0  0  0  0  0  3  0  0  0  0  0  0
  180.5810  182.4620  136.6070 C   0  0  0  0  0  3  0  0  0  0  0  0
  180.8050  181.1130  136.0810 C   0  0  0  0  0  3  0  0  0  0  0  0
  180.2170  182.7520  137.9690 C   0  0  0  0  0  3  0  0  0  0  0  0
  180.3400  180.2380  138.1380 C   0  0  0  0  0  0  0  0  0  0  0  0
  179.9850  180.4480  139.4800 C   0  0  1  0  0  3  0  0  0  0  0  0
  191.9650  177.4940  140.2530 C   0  0  0  0  0  2  0  0  0  0  0  0
  191.1100  174.9420  137.5840 C   0  0  0  0  0  3  0  0  0  0  0  0
  192.2230  175.0390  136.7430 C   0  0  0  0  0  0  0  0  0  0  0  0
  193.1590  176.7530  138.1830 C   0  0  0  0  0  3  0  0  0  0  0  0
  191.0170  175.7520  138.7190 C   0  0  0  0  0  3  0  0  0  0  0  0
  192.0390  176.6640  139.0160 C   0  0  0  0  0  0  0  0  0  0  0  0
  193.2500  175.9440  137.0470 C   0  0  0  0  0  3  0  0  0  0  0  0
  193.7700  173.7190  135.3480 C   0  0  0  0  0  1  0  0  0  0  0  0
  192.3310  174.1610  135.5440 C   0  0  0  0  0  2  0  0  0  0  0  0
  1  6  1  0  0  0  0
  2 11  2  0  0  0  0
  2 12  1  0  0  0  0
  3 10  1  0  0  0  0
  4  8  2  0  0  0  0
  5  1  2  0  0  0  0
  7  9  2  0  0  0  0
  7  4  1  0  0  0  0
  8  1  1  0  0  0  0
  9  5  1  0  0  0  0
 10 11  1  0  0  0  0
 11  7  1  0  0  0  0
 12 15  2  0  0  0  0
 13  2  1  0  0  0  0
 14  3  2  0  0  0  0
 14 13  1  0  0  0  0
 15  4  1  0  0  0  0
 16 17  1  0  0  0  0
 16  3  1  0  0  0  0
 18 16  2  0  0  0  0
 19 21  1  0  0  0  0
 19 20  1  0  0  0  0
 20 22  1  0  0  0  0
 21 20  1  0  0  0  0
 23 19  1  0  0  0  0
 23 21  1  0  0  0  0
 23 17  1  0  0  0  0
 24 27  1  0  0  0  0
 24 20  1  0  0  0  0
 24 25  1  0  0  0  0
 26 25  2  0  0  0  0
 28 34  1  0  0  0  0
 29 33  2  0  0  0  0
 30 32  1  0  0  0  0
 31 30  2  0  0  0  0
 31 29  1  0  0  0  0
 32 28  2  0  0  0  0
 33 28  1  0  0  0  0
 33 34  1  0  0  0  0
 34 27  1  0  0  0  0
 35 13  1  0  0  0  0
 36 39  1  0  0  0  0
 37 41  1  0  0  0  0
 37 36  2  0  0  0  0
 38 40  1  0  0  0  0
 39 40  2  0  0  0  0
 40 35  1  0  0  0  0
 41 38  2  0  0  0  0
 42 43  1  0  0  0  0
 43 37  1  0  0  0  0
M  END
>  <MODEL>
8

>  <REMARK>
 VINA RESULT:      -9.5      2.654      9.011
  Name = 
  9 active torsions:
  status: ('A' for Active; 'I' for Inactive)
    1  A    between atoms: C_1  and  N_34
    2  A    between atoms: C_1  and  C_35
    3  A    between atoms: C_2  and  C_13
    4  A    between atoms: C_4  and  C_22
    5  A    between atoms: N_6  and  C_17
    6  A    between atoms: C_10  and  C_22
    7  A    between atoms: O_14  and  C_22
    8  A    between atoms: O_14  and  C_41
    9  A    between atoms: C_19  and  C_37
                            x       y       z     vdW  Elec       q    Type
                         _______ _______ _______ _____ _____    ______ ____

>  <TORSDO>
F 9

$$$$
=
 OpenBabel10262422103D

 43 50  0  0  1  0  0  0  0  0999 V2000
  192.0110  176.3740  138.1140 C   0  0  0  0  0  0  0  0  0  0  0  0
  187.2280  176.9260  136.5860 C   0  0  0  0  0  0  0  0  0  0  0  0
  185.8600  178.2540  138.6740 C   0  0  0  0  0  0  0  0  0  0  0  0
  189.9550  176.3190  136.8350 C   0  0  0  0  0  0  0  0  0  0  0  0
  191.3500  177.0340  139.1560 C   0  0  0  0  0  3  0  0  0  0  0  0
  193.3270  176.0780  138.2280 F   0  0  0  0  0  0  0  0  0  0  0  0
  189.2830  176.9860  137.8860 C   0  0  0  0  0  0  0  0  0  0  0  0
  191.3140  176.0170  136.9560 C   0  0  0  0  0  3  0  0  0  0  0  0
  189.9910  177.3390  139.0420 C   0  0  0  0  0  3  0  0  0  0  0  0
  187.2240  177.9420  138.7810 O   0  0  0  0  0  0  0  0  0  0  0  0
  187.9190  177.2860  137.7560 C   0  0  0  0  0  0  0  0  0  0  0  0
  187.9040  176.2630  135.5520 C   0  0  0  0  0  3  0  0  0  0  0  0
  185.8300  177.2520  136.4850 N   0  0  0  0  0  0  0  0  0  0  0  0
  185.1790  177.9230  137.5700 C   0  0  0  0  0  3  0  0  0  0  0  0
  189.2620  175.9620  135.6770 C   0  0  0  0  0  3  0  0  0  0  0  0
  185.1870  178.9460  139.7820 C   0  0  0  0  0  0  0  0  0  0  0  0
  185.2530  178.4160  141.1080 N   0  0  0  0  0  2  0  0  0  0  0  0
  184.5440  180.0060  139.5550 O   0  0  0  0  0  0  0  0  0  0  0  0
  184.6970  178.1880  143.4700 C   0  0  1  0  0  3  0  0  0  0  0  0
  186.1060  178.1050  144.0150 C   0  0  2  0  0  0  0  0  0  0  0  0
  185.6580  179.3680  143.3140 C   0  0  1  0  0  3  0  0  0  0  0  0
  187.0860  177.2430  143.2300 C   0  0  0  0  0  1  0  0  0  0  0  0
  184.6230  179.0780  142.2410 C   0  0  1  0  0  3  0  0  0  0  0  0
  186.2400  178.2350  145.5320 C   0  0  1  0  0  3  0  0  0  0  0  0
  184.9420  177.9450  146.2190 C   0  0  0  0  0  3  0  0  0  0  0  0
  184.6230  178.5540  147.2290 O   0  0  0  0  0  0  0  0  0  0  0  0
  187.2230  177.3570  146.0020 O   0  0  0  0  0  0  0  0  0  0  0  0
  189.3470  177.3910  146.8600 C   0  0  0  0  0  0  0  0  0  0  0  0
  190.3220  178.2020  144.6800 C   0  0  0  0  0  3  0  0  0  0  0  0
  191.4360  176.6170  146.3660 C   0  0  0  0  0  3  0  0  0  0  0  0
  191.4210  177.3790  145.1150 C   0  0  0  0  0  3  0  0  0  0  0  0
  190.3550  176.5960  147.3160 C   0  0  0  0  0  3  0  0  0  0  0  0
  189.3310  178.1510  145.6140 C   0  0  0  0  0  0  0  0  0  0  0  0
  188.2400  178.1770  146.4980 C   0  0  1  0  0  3  0  0  0  0  0  0
  185.0700  176.9860  135.2680 C   0  0  0  0  0  2  0  0  0  0  0  0
  181.6440  175.3980  135.6020 C   0  0  0  0  0  3  0  0  0  0  0  0
  181.9720  174.1460  136.1320 C   0  0  0  0  0  0  0  0  0  0  0  0
  184.3230  174.7410  136.0800 C   0  0  0  0  0  3  0  0  0  0  0  0
  182.6540  176.3180  135.3050 C   0  0  0  0  0  3  0  0  0  0  0  0
  183.9950  175.9870  135.5380 C   0  0  0  0  0  0  0  0  0  0  0  0
  183.3130  173.8200  136.3750 C   0  0  0  0  0  3  0  0  0  0  0  0
  181.4970  171.8940  137.0190 C   0  0  0  0  0  1  0  0  0  0  0  0
  180.8940  173.1730  136.4660 C   0  0  0  0  0  2  0  0  0  0  0  0
  1  6  1  0  0  0  0
  1  5  1  0  0  0  0
  2 11  1  0  0  0  0
  3 10  1  0  0  0  0
  3 16  1  0  0  0  0
  4  8  1  0  0  0  0
  4  7  1  0  0  0  0
  7  9  1  0  0  0  0
  8  1  2  0  0  0  0
  9  5  2  0  0  0  0
 11  7  2  0  0  0  0
 11 10  1  0  0  0  0
 12 15  1  0  0  0  0
 12  2  2  0  0  0  0
 13  2  1  0  0  0  0
 13 14  1  0  0  0  0
 14  3  2  0  0  0  0
 15  4  2  0  0  0  0
 16 17  1  0  0  0  0
 17 23  1  0  0  0  0
 18 16  2  0  0  0  0
 19 20  1  0  0  0  0
 20 24  1  0  0  0  0
 21 19  1  0  0  0  0
 21 20  1  0  0  0  0
 22 20  1  0  0  0  0
 23 21  1  0  0  0  0
 23 19  1  0  0  0  0
 24 27  1  0  0  0  0
 24 25  1  0  0  0  0
 25 26  2  0  0  0  0
 27 34  1  0  0  0  0
 28 32  1  0  0  0  0
 29 31  2  0  0  0  0
 29 33  1  0  0  0  0
 30 32  2  0  0  0  0
 31 30  1  0  0  0  0
 33 34  1  0  0  0  0
 33 28  2  0  0  0  0
 34 28  1  0  0  0  0
 35 40  1  0  0  0  0
 35 13  1  0  0  0  0
 36 37  1  0  0  0  0
 37 41  2  0  0  0  0
 37 43  1  0  0  0  0
 38 41  1  0  0  0  0
 39 40  1  0  0  0  0
 39 36  2  0  0  0  0
 40 38  2  0  0  0  0
 43 42  1  0  0  0  0
M  END
>  <MODEL>
9

>  <REMARK>
 VINA RESULT:      -9.4      3.243      8.525
  Name = 
  9 active torsions:
  status: ('A' for Active; 'I' for Inactive)
    1  A    between atoms: C_1  and  N_34
    2  A    between atoms: C_1  and  C_35
    3  A    between atoms: C_2  and  C_13
    4  A    between atoms: C_4  and  C_22
    5  A    between atoms: N_6  and  C_17
    6  A    between atoms: C_10  and  C_22
    7  A    between atoms: O_14  and  C_22
    8  A    between atoms: O_14  and  C_41
    9  A    between atoms: C_19  and  C_37
                            x       y       z     vdW  Elec       q    Type
                         _______ _______ _______ _____ _____    ______ ____

>  <TORSDO>
F 9

$$$$
