=
 OpenBabel10262421463D

 30 32  0  0  1  0  0  0  0  0999 V2000
  183.1810  179.0100  139.8910 C   0  0  1  0  0  3  0  0  0  0  0  0
  180.9770  177.8240  140.3580 C   0  0  2  0  0  3  0  0  0  0  0  0
  182.8050  180.1910  139.1270 N   0  0  0  0  0  2  0  0  0  0  0  0
  179.1170  180.8740  139.4910 C   0  0  0  0  0  3  0  0  0  0  0  0
  180.3660  180.2790  139.7090 C   0  0  0  0  0  0  0  0  0  0  0  0
  181.3360  181.8120  138.0930 C   0  0  0  0  0  3  0  0  0  0  0  0
  181.4950  180.7560  138.9980 C   0  0  0  0  0  0  0  0  0  0  0  0
  180.4250  179.2030  140.7530 C   0  0  2  0  0  3  0  0  0  0  0  0
  178.9740  181.9230  138.5820 C   0  0  0  0  0  3  0  0  0  0  0  0
  180.0860  182.3940  137.8840 C   0  0  0  0  0  3  0  0  0  0  0  0
  182.2790  177.8160  139.5420 C   0  0  2  0  0  3  0  0  0  0  0  0
  185.5750  178.7830  140.7900 C   0  0  0  0  0  0  0  0  0  0  0  0
  186.9300  178.5320  140.5470 C   0  0  0  0  0  3  0  0  0  0  0  0
  185.0910  179.1570  142.4390 Cl  0  0  0  0  0  0  0  0  0  0  0  0
  185.1080  178.4400  138.4320 C   0  0  0  0  0  3  0  0  0  0  0  0
  186.8920  177.9030  136.9470 F   0  0  0  0  0  0  0  0  0  0  0  0
  184.6510  178.7370  139.7200 C   0  0  0  0  0  0  0  0  0  0  0  0
  187.3730  178.2350  139.2560 C   0  0  0  0  0  3  0  0  0  0  0  0
  186.4630  178.1900  138.1990 C   0  0  0  0  0  0  0  0  0  0  0  0
  181.6260  178.8520  142.9890 C   0  0  0  0  0  1  0  0  0  0  0  0
  180.6440  179.6900  142.1910 C   0  0  2  0  0  3  0  0  0  0  0  0
  179.3310  179.8870  142.9450 C   0  0  0  0  0  2  0  0  0  0  0  0
  178.9320  178.7050  143.5740 O   0  0  0  0  0  1  0  0  0  0  0  0
  182.9500  176.5860  139.7790 O   0  0  0  0  0  0  0  0  0  0  0  0
  183.0530  174.7840  137.9460 C   0  0  0  0  0  3  0  0  0  0  0  0
  183.0060  175.6270  138.8060 C   0  0  0  0  0  0  0  0  0  0  0  0
  179.8870  177.0410  139.6390 C   0  0  0  0  0  2  0  0  0  0  0  0
  179.1120  175.9170  141.5620 O   0  0  0  0  0  0  0  0  0  0  0  0
  179.4940  175.8210  140.4080 C   0  0  0  0  0  0  0  0  0  0  0  0
  179.5290  174.4860  139.7480 C   0  0  0  0  0  1  0  0  0  0  0  0
  1 17  1  6  0  0  0
  2 27  1  6  0  0  0
  2  8  1  0  0  0  0
  3  1  1  0  0  0  0
  4  5  1  0  0  0  0
  5  8  1  0  0  0  0
  6  7  1  0  0  0  0
  7  3  1  0  0  0  0
  7  5  2  0  0  0  0
  8 21  1  1  0  0  0
  9  4  2  0  0  0  0
 10  6  2  0  0  0  0
 10  9  1  0  0  0  0
 11 24  1  1  0  0  0
 11  1  1  0  0  0  0
 11  2  1  0  0  0  0
 12 14  1  0  0  0  0
 13 12  1  0  0  0  0
 15 17  1  0  0  0  0
 16 19  1  0  0  0  0
 17 12  2  0  0  0  0
 18 13  2  0  0  0  0
 19 15  2  0  0  0  0
 19 18  1  0  0  0  0
 21 22  1  0  0  0  0
 21 20  1  1  0  0  0
 22 23  1  0  0  0  0
 25 26  3  0  0  0  0
 26 24  1  0  0  0  0
 27 29  1  0  0  0  0
 29 28  2  0  0  0  0
 30 29  1  0  0  0  0
M  END
>  <MODEL>
1

>  <REMARK>
 VINA RESULT:      -5.5      0.000      0.000
  Name = 
  7 active torsions:
  status: ('A' for Active; 'I' for Inactive)
    1  A    between atoms: C_1  and  C_22
    2  A    between atoms: C_4  and  C_25
    3  A    between atoms: C_7  and  C_30
    4  A    between atoms: O_10  and  C_23
    5  A    between atoms: O_10  and  C_26
    6  A    between atoms: C_11  and  C_25
    7  A    between atoms: C_13  and  C_30
                            x       y       z     vdW  Elec       q    Type
                         _______ _______ _______ _____ _____    ______ ____

>  <TORSDO>
F 7

$$$$
=
 OpenBabel10262421463D

 30 32  0  0  1  0  0  0  0  0999 V2000
  183.2030  177.7930  139.5390 C   0  0  1  0  0  3  0  0  0  0  0  0
  182.4070  176.0720  137.8410 C   0  0  2  0  0  3  0  0  0  0  0  0
  184.5300  178.1770  139.0750 N   0  0  0  0  0  2  0  0  0  0  0  0
  185.0180  177.1440  135.4840 C   0  0  0  0  0  3  0  0  0  0  0  0
  184.3690  177.3690  136.7050 C   0  0  0  0  0  0  0  0  0  0  0  0
  186.4430  178.2660  137.5970 C   0  0  0  0  0  3  0  0  0  0  0  0
  185.0940  177.9400  137.7800 C   0  0  0  0  0  0  0  0  0  0  0  0
  182.9050  177.0440  136.7590 C   0  0  2  0  0  3  0  0  0  0  0  0
  186.3640  177.4700  135.3190 C   0  0  0  0  0  3  0  0  0  0  0  0
  187.0770  178.0340  136.3770 C   0  0  0  0  0  3  0  0  0  0  0  0
  182.9320  176.3060  139.2660 C   0  0  2  0  0  3  0  0  0  0  0  0
  181.8320  178.7460  141.4890 C   0  0  0  0  0  0  0  0  0  0  0  0
  181.7550  179.1070  142.8380 C   0  0  0  0  0  3  0  0  0  0  0  0
  180.4140  179.0120  140.4840 Cl  0  0  0  0  0  0  0  0  0  0  0  0
  184.1220  178.0170  141.8360 C   0  0  0  0  0  3  0  0  0  0  0  0
  185.1000  178.2030  144.0000 F   0  0  0  0  0  0  0  0  0  0  0  0
  183.0300  178.1930  140.9790 C   0  0  0  0  0  0  0  0  0  0  0  0
  182.8530  178.9240  143.6830 C   0  0  0  0  0  3  0  0  0  0  0  0
  184.0350  178.3790  143.1810 C   0  0  0  0  0  0  0  0  0  0  0  0
  180.7000  178.2950  137.1270 C   0  0  0  0  0  1  0  0  0  0  0  0
  181.9630  178.1620  136.2960 C   0  0  2  0  0  3  0  0  0  0  0  0
  181.6480  178.0770  134.8050 C   0  0  0  0  0  2  0  0  0  0  0  0
  180.3200  177.6970  134.5940 O   0  0  0  0  0  1  0  0  0  0  0  0
  181.9810  175.7870  140.1860 O   0  0  0  0  0  0  0  0  0  0  0  0
  179.5160  175.5150  139.5020 C   0  0  0  0  0  3  0  0  0  0  0  0
  180.6710  175.6420  139.8210 C   0  0  0  0  0  0  0  0  0  0  0  0
  182.6890  174.6440  137.3920 C   0  0  0  0  0  2  0  0  0  0  0  0
  182.6490  174.1180  135.0930 O   0  0  0  0  0  0  0  0  0  0  0  0
  181.9990  174.3300  136.1040 C   0  0  0  0  0  0  0  0  0  0  0  0
  180.5130  174.2370  136.0630 C   0  0  0  0  0  1  0  0  0  0  0  0
  1 17  1  1  0  0  0
  2 27  1  6  0  0  0
  2 11  1  0  0  0  0
  3  1  1  0  0  0  0
  4  5  1  0  0  0  0
  5  8  1  0  0  0  0
  5  7  2  0  0  0  0
  6  7  1  0  0  0  0
  7  3  1  0  0  0  0
  8 21  1  1  0  0  0
  8  2  1  0  0  0  0
  9  4  2  0  0  0  0
  9 10  1  0  0  0  0
 10  6  2  0  0  0  0
 11  1  1  0  0  0  0
 11 24  1  1  0  0  0
 12 13  1  0  0  0  0
 13 18  2  0  0  0  0
 14 12  1  0  0  0  0
 15 19  2  0  0  0  0
 17 12  2  0  0  0  0
 17 15  1  0  0  0  0
 19 18  1  0  0  0  0
 19 16  1  0  0  0  0
 21 20  1  1  0  0  0
 22 21  1  0  0  0  0
 23 22  1  0  0  0  0
 25 26  3  0  0  0  0
 26 24  1  0  0  0  0
 28 29  2  0  0  0  0
 29 27  1  0  0  0  0
 30 29  1  0  0  0  0
M  END
>  <MODEL>
2

>  <REMARK>
 VINA RESULT:      -5.1      2.971      5.636
  Name = 
  7 active torsions:
  status: ('A' for Active; 'I' for Inactive)
    1  A    between atoms: C_1  and  C_22
    2  A    between atoms: C_4  and  C_25
    3  A    between atoms: C_7  and  C_30
    4  A    between atoms: O_10  and  C_23
    5  A    between atoms: O_10  and  C_26
    6  A    between atoms: C_11  and  C_25
    7  A    between atoms: C_13  and  C_30
                            x       y       z     vdW  Elec       q    Type
                         _______ _______ _______ _____ _____    ______ ____

>  <TORSDO>
F 7

$$$$
=
 OpenBabel10262421463D

 30 32  0  0  1  0  0  0  0  0999 V2000
  182.2910  176.6080  138.0970 C   0  0  1  0  0  3  0  0  0  0  0  0
  181.5460  177.9240  140.1440 C   0  0  2  0  0  3  0  0  0  0  0  0
  181.9070  177.4430  136.9660 N   0  0  0  0  0  2  0  0  0  0  0  0
  181.2240  180.9680  138.1080 C   0  0  0  0  0  3  0  0  0  0  0  0
  181.6270  179.6290  138.1670 C   0  0  0  0  0  0  0  0  0  0  0  0
  181.0740  179.3980  135.8130 C   0  0  0  0  0  3  0  0  0  0  0  0
  181.5510  178.8300  136.9990 C   0  0  0  0  0  0  0  0  0  0  0  0
  182.1860  179.1510  139.4750 C   0  0  2  0  0  3  0  0  0  0  0  0
  180.7460  181.5200  136.9190 C   0  0  0  0  0  3  0  0  0  0  0  0
  180.6720  180.7340  135.7690 C   0  0  0  0  0  3  0  0  0  0  0  0
  181.2660  176.7160  139.2370 C   0  0  2  0  0  3  0  0  0  0  0  0
  181.5690  174.4240  136.9560 C   0  0  0  0  0  0  0  0  0  0  0  0
  181.8740  173.1150  136.5670 C   0  0  0  0  0  3  0  0  0  0  0  0
  179.9650  175.0400  136.5840 Cl  0  0  0  0  0  0  0  0  0  0  0  0
  183.7960  174.6410  137.9000 C   0  0  0  0  0  3  0  0  0  0  0  0
  185.3100  172.8060  137.7740 F   0  0  0  0  0  0  0  0  0  0  0  0
  182.5410  175.1990  137.6300 C   0  0  0  0  0  0  0  0  0  0  0  0
  183.1310  172.5710  136.8410 C   0  0  0  0  0  3  0  0  0  0  0  0
  184.0910  173.3340  137.5070 C   0  0  0  0  0  0  0  0  0  0  0  0
  184.5530  178.9280  138.5190 C   0  0  0  0  0  1  0  0  0  0  0  0
  183.6880  179.3900  139.6780 C   0  0  2  0  0  3  0  0  0  0  0  0
  184.1900  178.8380  141.0090 C   0  0  0  0  0  2  0  0  0  0  0  0
  185.3180  179.5360  141.4480 O   0  0  0  0  0  1  0  0  0  0  0  0
  181.2720  175.5420  140.0370 O   0  0  0  0  0  0  0  0  0  0  0  0
  179.0920  174.2440  140.4610 C   0  0  0  0  0  3  0  0  0  0  0  0
  180.1140  174.8510  140.2610 C   0  0  0  0  0  0  0  0  0  0  0  0
  180.2770  178.3590  140.8660 C   0  0  0  0  0  2  0  0  0  0  0  0
  180.1850  180.5200  141.8060 O   0  0  0  0  0  0  0  0  0  0  0  0
  180.5720  179.3690  141.9270 C   0  0  0  0  0  0  0  0  0  0  0  0
  181.3060  178.9600  143.1570 C   0  0  0  0  0  1  0  0  0  0  0  0
  1 17  1  6  0  0  0
  1 11  1  0  0  0  0
  2 27  1  6  0  0  0
  3  7  1  0  0  0  0
  3  1  1  0  0  0  0
  4  5  1  0  0  0  0
  5  8  1  0  0  0  0
  6  7  1  0  0  0  0
  7  5  2  0  0  0  0
  8 21  1  6  0  0  0
  8  2  1  0  0  0  0
  9  4  2  0  0  0  0
 10  6  2  0  0  0  0
 10  9  1  0  0  0  0
 11 24  1  1  0  0  0
 11  2  1  0  0  0  0
 12 17  1  0  0  0  0
 13 18  1  0  0  0  0
 13 12  2  0  0  0  0
 14 12  1  0  0  0  0
 17 15  2  0  0  0  0
 18 19  2  0  0  0  0
 19 16  1  0  0  0  0
 19 15  1  0  0  0  0
 21 20  1  6  0  0  0
 21 22  1  0  0  0  0
 22 23  1  0  0  0  0
 24 26  1  0  0  0  0
 26 25  3  0  0  0  0
 27 29  1  0  0  0  0
 28 29  2  0  0  0  0
 29 30  1  0  0  0  0
M  END
>  <MODEL>
3

>  <REMARK>
 VINA RESULT:      -5.0      2.647      4.678
  Name = 
  7 active torsions:
  status: ('A' for Active; 'I' for Inactive)
    1  A    between atoms: C_1  and  C_22
    2  A    between atoms: C_4  and  C_25
    3  A    between atoms: C_7  and  C_30
    4  A    between atoms: O_10  and  C_23
    5  A    between atoms: O_10  and  C_26
    6  A    between atoms: C_11  and  C_25
    7  A    between atoms: C_13  and  C_30
                            x       y       z     vdW  Elec       q    Type
                         _______ _______ _______ _____ _____    ______ ____

>  <TORSDO>
F 7

$$$$
=
 OpenBabel10262421463D

 30 32  0  0  1  0  0  0  0  0999 V2000
  182.8100  177.5970  139.7530 C   0  0  1  0  0  3  0  0  0  0  0  0
  181.9480  178.1060  137.4130 C   0  0  2  0  0  3  0  0  0  0  0  0
  181.9100  176.5690  140.2590 N   0  0  0  0  0  2  0  0  0  0  0  0
  179.9890  174.9950  137.4250 C   0  0  0  0  0  3  0  0  0  0  0  0
  180.9340  175.7930  138.0810 C   0  0  0  0  0  0  0  0  0  0  0  0
  180.1250  174.9380  140.2060 C   0  0  0  0  0  3  0  0  0  0  0  0
  181.0030  175.7650  139.4960 C   0  0  0  0  0  0  0  0  0  0  0  0
  181.8670  176.5850  137.2120 C   0  0  2  0  0  3  0  0  0  0  0  0
  179.1180  174.1790  138.1460 C   0  0  0  0  0  3  0  0  0  0  0  0
  179.1870  174.1500  139.5390 C   0  0  0  0  0  3  0  0  0  0  0  0
  182.0590  178.6000  138.8630 C   0  0  2  0  0  3  0  0  0  0  0  0
  184.8940  178.6740  140.7960 C   0  0  0  0  0  0  0  0  0  0  0  0
  185.5230  179.2410  141.9100 C   0  0  0  0  0  3  0  0  0  0  0  0
  185.8230  178.5370  139.3100 Cl  0  0  0  0  0  0  0  0  0  0  0  0
  182.8780  178.3650  142.1150 C   0  0  0  0  0  3  0  0  0  0  0  0
  182.8480  179.0580  144.3940 F   0  0  0  0  0  0  0  0  0  0  0  0
  183.5550  178.2310  140.8970 C   0  0  0  0  0  0  0  0  0  0  0  0
  184.8350  179.3700  143.1200 C   0  0  0  0  0  3  0  0  0  0  0  0
  183.5140  178.9330  143.2210 C   0  0  0  0  0  0  0  0  0  0  0  0
  183.5570  174.7160  137.6740 C   0  0  0  0  0  1  0  0  0  0  0  0
  183.1280  175.8420  136.7520 C   0  0  2  0  0  3  0  0  0  0  0  0
  184.2850  176.7920  136.4510 C   0  0  0  0  0  2  0  0  0  0  0  0
  185.5090  176.2220  136.8070 O   0  0  0  0  0  1  0  0  0  0  0  0
  182.7130  179.8620  138.8600 O   0  0  0  0  0  0  0  0  0  0  0  0
  181.3910  182.0130  138.3640 C   0  0  0  0  0  3  0  0  0  0  0  0
  182.0100  181.0050  138.5980 C   0  0  0  0  0  0  0  0  0  0  0  0
  180.7670  178.7630  136.7110 C   0  0  0  0  0  2  0  0  0  0  0  0
  181.8080  178.6190  134.5990 O   0  0  0  0  0  0  0  0  0  0  0  0
  181.1580  179.3030  135.3740 C   0  0  0  0  0  0  0  0  0  0  0  0
  180.7180  180.6660  134.9670 C   0  0  0  0  0  1  0  0  0  0  0  0
  1  3  1  0  0  0  0
  1 17  1  1  0  0  0
  2 27  1  1  0  0  0
  2 11  1  0  0  0  0
  4  5  2  0  0  0  0
  4  9  1  0  0  0  0
  5  7  1  0  0  0  0
  7  6  2  0  0  0  0
  7  3  1  0  0  0  0
  8 21  1  1  0  0  0
  8  2  1  0  0  0  0
  8  5  1  0  0  0  0
  9 10  2  0  0  0  0
 10  6  1  0  0  0  0
 11 24  1  6  0  0  0
 11  1  1  0  0  0  0
 12 17  2  0  0  0  0
 12 13  1  0  0  0  0
 13 18  2  0  0  0  0
 14 12  1  0  0  0  0
 15 19  2  0  0  0  0
 17 15  1  0  0  0  0
 18 19  1  0  0  0  0
 19 16  1  0  0  0  0
 21 20  1  1  0  0  0
 22 21  1  0  0  0  0
 22 23  1  0  0  0  0
 25 26  3  0  0  0  0
 26 24  1  0  0  0  0
 28 29  2  0  0  0  0
 29 27  1  0  0  0  0
 30 29  1  0  0  0  0
M  END
>  <MODEL>
4

>  <REMARK>
 VINA RESULT:      -4.8      3.052      5.876
  Name = 
  7 active torsions:
  status: ('A' for Active; 'I' for Inactive)
    1  A    between atoms: C_1  and  C_22
    2  A    between atoms: C_4  and  C_25
    3  A    between atoms: C_7  and  C_30
    4  A    between atoms: O_10  and  C_23
    5  A    between atoms: O_10  and  C_26
    6  A    between atoms: C_11  and  C_25
    7  A    between atoms: C_13  and  C_30
                            x       y       z     vdW  Elec       q    Type
                         _______ _______ _______ _____ _____    ______ ____

>  <TORSDO>
F 7

$$$$
=
 OpenBabel10262421463D

 30 32  0  0  1  0  0  0  0  0999 V2000
  184.0390  178.2490  142.3110 C   0  0  1  0  0  3  0  0  0  0  0  0
  183.2660  178.8410  139.9590 C   0  0  2  0  0  3  0  0  0  0  0  0
  182.9270  178.6330  143.1690 N   0  0  0  0  0  2  0  0  0  0  0  0
  179.7900  179.0850  141.1300 C   0  0  0  0  0  3  0  0  0  0  0  0
  181.1140  178.7500  141.4370 C   0  0  0  0  0  0  0  0  0  0  0  0
  180.7080  179.4090  143.7400 C   0  0  0  0  0  3  0  0  0  0  0  0
  181.5820  178.9150  142.7640 C   0  0  0  0  0  0  0  0  0  0  0  0
  181.9350  178.1650  140.3250 C   0  0  2  0  0  3  0  0  0  0  0  0
  178.9320  179.5800  142.1130 C   0  0  0  0  0  3  0  0  0  0  0  0
  179.3910  179.7410  143.4200 C   0  0  0  0  0  3  0  0  0  0  0  0
  184.1870  179.2200  141.1290 C   0  0  2  0  0  3  0  0  0  0  0  0
  185.3520  178.4050  144.5120 C   0  0  0  0  0  0  0  0  0  0  0  0
  186.5570  178.2460  145.2050 C   0  0  0  0  0  3  0  0  0  0  0  0
  183.9610  179.0020  145.4070 Cl  0  0  0  0  0  0  0  0  0  0  0  0
  186.4390  177.6280  142.4840 C   0  0  0  0  0  3  0  0  0  0  0  0
  188.7420  177.0210  142.5430 F   0  0  0  0  0  0  0  0  0  0  0  0
  185.2900  178.0920  143.1340 C   0  0  0  0  0  0  0  0  0  0  0  0
  187.6960  177.7810  144.5440 C   0  0  0  0  0  3  0  0  0  0  0  0
  187.6370  177.4720  143.1840 C   0  0  0  0  0  0  0  0  0  0  0  0
  182.9550  176.0220  139.3590 C   0  0  0  0  0  1  0  0  0  0  0  0
  181.8170  176.6460  140.1470 C   0  0  2  0  0  3  0  0  0  0  0  0
  180.4570  176.2290  139.5940 C   0  0  0  0  0  2  0  0  0  0  0  0
  179.6900  175.5940  140.5730 O   0  0  0  0  0  1  0  0  0  0  0  0
  185.5270  179.2440  140.6560 O   0  0  0  0  0  0  0  0  0  0  0  0
  186.1500  178.0890  138.4440 C   0  0  0  0  0  3  0  0  0  0  0  0
  185.8590  178.6290  139.4820 C   0  0  0  0  0  0  0  0  0  0  0  0
  182.9810  180.0550  139.0850 C   0  0  0  0  0  2  0  0  0  0  0  0
  182.2720  178.7670  137.2410 O   0  0  0  0  0  0  0  0  0  0  0  0
  182.0440  179.7180  137.9700 C   0  0  0  0  0  0  0  0  0  0  0  0
  180.8050  180.5210  137.7750 C   0  0  0  0  0  1  0  0  0  0  0  0
  1 17  1  1  0  0  0
  1  3  1  0  0  0  0
  2 27  1  1  0  0  0
  2  8  1  0  0  0  0
  2 11  1  0  0  0  0
  4  5  2  0  0  0  0
  4  9  1  0  0  0  0
  5  7  1  0  0  0  0
  7  3  1  0  0  0  0
  7  6  2  0  0  0  0
  8 21  1  1  0  0  0
  8  5  1  0  0  0  0
  9 10  2  0  0  0  0
 10  6  1  0  0  0  0
 11 24  1  6  0  0  0
 11  1  1  0  0  0  0
 12 13  1  0  0  0  0
 12 14  1  0  0  0  0
 15 17  1  0  0  0  0
 15 19  2  0  0  0  0
 16 19  1  0  0  0  0
 17 12  2  0  0  0  0
 18 13  2  0  0  0  0
 19 18  1  0  0  0  0
 21 20  1  6  0  0  0
 22 21  1  0  0  0  0
 22 23  1  0  0  0  0
 25 26  3  0  0  0  0
 26 24  1  0  0  0  0
 28 29  2  0  0  0  0
 29 27  1  0  0  0  0
 30 29  1  0  0  0  0
M  END
>  <MODEL>
5

>  <REMARK>
 VINA RESULT:      -4.7      2.499      4.461
  Name = 
  7 active torsions:
  status: ('A' for Active; 'I' for Inactive)
    1  A    between atoms: C_1  and  C_22
    2  A    between atoms: C_4  and  C_25
    3  A    between atoms: C_7  and  C_30
    4  A    between atoms: O_10  and  C_23
    5  A    between atoms: O_10  and  C_26
    6  A    between atoms: C_11  and  C_25
    7  A    between atoms: C_13  and  C_30
                            x       y       z     vdW  Elec       q    Type
                         _______ _______ _______ _____ _____    ______ ____

>  <TORSDO>
F 7

$$$$
=
 OpenBabel10262421463D

 30 32  0  0  1  0  0  0  0  0999 V2000
  181.4390  177.8830  140.0800 C   0  0  1  0  0  3  0  0  0  0  0  0
  181.1980  178.8970  137.7580 C   0  0  2  0  0  3  0  0  0  0  0  0
  180.7620  176.5970  139.9900 N   0  0  0  0  0  2  0  0  0  0  0  0
  180.2950  175.6080  136.3840 C   0  0  0  0  0  3  0  0  0  0  0  0
  180.7350  176.3390  137.4940 C   0  0  0  0  0  0  0  0  0  0  0  0
  179.6140  174.7430  138.9420 C   0  0  0  0  0  3  0  0  0  0  0  0
  180.3890  175.8990  138.7950 C   0  0  0  0  0  0  0  0  0  0  0  0
  181.6170  177.5210  137.2150 C   0  0  2  0  0  3  0  0  0  0  0  0
  179.5200  174.4590  136.5460 C   0  0  0  0  0  3  0  0  0  0  0  0
  179.1800  174.0260  137.8270 C   0  0  0  0  0  3  0  0  0  0  0  0
  180.7310  178.9420  139.2210 C   0  0  2  0  0  3  0  0  0  0  0  0
  182.8420  178.6480  142.0900 C   0  0  0  0  0  0  0  0  0  0  0  0
  182.9130  178.9850  143.4460 C   0  0  0  0  0  3  0  0  0  0  0  0
  184.3280  178.7020  141.1510 Cl  0  0  0  0  0  0  0  0  0  0  0  0
  180.4600  178.2470  142.3340 C   0  0  0  0  0  3  0  0  0  0  0  0
  179.4280  178.5560  144.4590 F   0  0  0  0  0  0  0  0  0  0  0  0
  181.6010  178.2750  141.5250 C   0  0  0  0  0  0  0  0  0  0  0  0
  181.7650  178.9550  144.2420 C   0  0  0  0  0  3  0  0  0  0  0  0
  180.5400  178.5860  143.6860 C   0  0  0  0  0  0  0  0  0  0  0  0
  184.0160  178.2110  137.7950 C   0  0  0  0  0  1  0  0  0  0  0  0
  183.1150  177.2120  137.0920 C   0  0  2  0  0  3  0  0  0  0  0  0
  183.5460  176.9890  135.6450 C   0  0  0  0  0  2  0  0  0  0  0  0
  182.7400  177.7130  134.7630 O   0  0  0  0  0  1  0  0  0  0  0  0
  180.9680  180.2480  139.7280 O   0  0  0  0  0  0  0  0  0  0  0  0
  178.9990  181.8040  140.2900 C   0  0  0  0  0  3  0  0  0  0  0  0
  179.9220  181.0760  140.0280 C   0  0  0  0  0  0  0  0  0  0  0  0
  180.1410  179.4920  136.8380 C   0  0  0  0  0  2  0  0  0  0  0  0
  180.9440  181.7070  136.7470 O   0  0  0  0  0  0  0  0  0  0  0  0
  180.6560  180.6990  136.1230 C   0  0  0  0  0  0  0  0  0  0  0  0
  180.8560  180.6580  134.6480 C   0  0  0  0  0  1  0  0  0  0  0  0
  1 17  1  1  0  0  0
  2 27  1  6  0  0  0
  2 11  1  0  0  0  0
  3  1  1  0  0  0  0
  4  9  2  0  0  0  0
  4  5  1  0  0  0  0
  5  7  2  0  0  0  0
  7  6  1  0  0  0  0
  7  3  1  0  0  0  0
  8 21  1  1  0  0  0
  8  5  1  0  0  0  0
  8  2  1  0  0  0  0
  9 10  1  0  0  0  0
 10  6  2  0  0  0  0
 11 24  1  1  0  0  0
 11  1  1  0  0  0  0
 12 13  1  0  0  0  0
 13 18  2  0  0  0  0
 14 12  1  0  0  0  0
 15 19  2  0  0  0  0
 17 12  2  0  0  0  0
 17 15  1  0  0  0  0
 19 18  1  0  0  0  0
 19 16  1  0  0  0  0
 21 20  1  6  0  0  0
 22 21  1  0  0  0  0
 23 22  1  0  0  0  0
 24 26  1  0  0  0  0
 26 25  3  0  0  0  0
 29 28  2  0  0  0  0
 29 27  1  0  0  0  0
 30 29  1  0  0  0  0
M  END
>  <MODEL>
6

>  <REMARK>
 VINA RESULT:      -4.7      3.277      6.316
  Name = 
  7 active torsions:
  status: ('A' for Active; 'I' for Inactive)
    1  A    between atoms: C_1  and  C_22
    2  A    between atoms: C_4  and  C_25
    3  A    between atoms: C_7  and  C_30
    4  A    between atoms: O_10  and  C_23
    5  A    between atoms: O_10  and  C_26
    6  A    between atoms: C_11  and  C_25
    7  A    between atoms: C_13  and  C_30
                            x       y       z     vdW  Elec       q    Type
                         _______ _______ _______ _____ _____    ______ ____

>  <TORSDO>
F 7

$$$$
=
 OpenBabel10262421463D

 30 32  0  0  1  0  0  0  0  0999 V2000
  191.2290  175.2040  136.9790 C   0  0  1  0  0  3  0  0  0  0  0  0
  189.4670  176.7530  137.9680 C   0  0  2  0  0  3  0  0  0  0  0  0
  190.5460  173.9270  136.8210 N   0  0  0  0  0  2  0  0  0  0  0  0
  186.8120  174.4050  136.9910 C   0  0  0  0  0  3  0  0  0  0  0  0
  188.1720  174.7330  136.9350 C   0  0  0  0  0  0  0  0  0  0  0  0
  188.6990  172.3640  136.8210 C   0  0  0  0  0  3  0  0  0  0  0  0
  189.1320  173.6950  136.8490 C   0  0  0  0  0  0  0  0  0  0  0  0
  188.5110  176.1940  136.9010 C   0  0  2  0  0  3  0  0  0  0  0  0
  186.3960  173.0730  136.9670 C   0  0  0  0  0  3  0  0  0  0  0  0
  187.3410  172.0520  136.8800 C   0  0  0  0  0  3  0  0  0  0  0  0
  190.7420  175.9390  138.2380 C   0  0  2  0  0  3  0  0  0  0  0  0
  193.5400  175.5280  135.9090 C   0  0  0  0  0  0  0  0  0  0  0  0
  194.9160  175.2770  135.9260 C   0  0  0  0  0  3  0  0  0  0  0  0
  192.8980  176.5030  134.5950 Cl  0  0  0  0  0  0  0  0  0  0  0  0
  193.2980  174.2220  137.9420 C   0  0  0  0  0  3  0  0  0  0  0  0
  195.2210  173.2270  138.9360 F   0  0  0  0  0  0  0  0  0  0  0  0
  192.7190  174.9950  136.9300 C   0  0  0  0  0  0  0  0  0  0  0  0
  195.4820  174.5040  136.9430 C   0  0  0  0  0  3  0  0  0  0  0  0
  194.6730  173.9770  137.9500 C   0  0  0  0  0  0  0  0  0  0  0  0
  189.7660  177.6430  135.2010 C   0  0  0  0  0  1  0  0  0  0  0  0
  188.5170  176.8380  135.5090 C   0  0  2  0  0  3  0  0  0  0  0  0
  187.2490  177.6430  135.2350 C   0  0  0  0  0  2  0  0  0  0  0  0
  186.5330  177.8680  136.4120 O   0  0  0  0  0  1  0  0  0  0  0  0
  191.7430  176.8210  138.7290 O   0  0  0  0  0  0  0  0  0  0  0  0
  191.8680  177.3840  141.2360 C   0  0  0  0  0  3  0  0  0  0  0  0
  191.8080  177.1210  140.0610 C   0  0  0  0  0  0  0  0  0  0  0  0
  188.6920  176.9810  139.2580 C   0  0  0  0  0  2  0  0  0  0  0  0
  188.9020  179.2810  138.7800 O   0  0  0  0  0  0  0  0  0  0  0  0
  188.6420  178.4310  139.6150 C   0  0  0  0  0  0  0  0  0  0  0  0
  188.2340  178.8430  140.9870 C   0  0  0  0  0  1  0  0  0  0  0  0
  1 17  1  1  0  0  0
  1 11  1  0  0  0  0
  2 11  1  0  0  0  0
  2 27  1  1  0  0  0
  3  7  1  0  0  0  0
  3  1  1  0  0  0  0
  5  4  2  0  0  0  0
  6  7  2  0  0  0  0
  6 10  1  0  0  0  0
  7  5  1  0  0  0  0
  8 21  1  6  0  0  0
  8  5  1  0  0  0  0
  8  2  1  0  0  0  0
  9  4  1  0  0  0  0
 10  9  2  0  0  0  0
 11 24  1  6  0  0  0
 12 13  2  0  0  0  0
 12 17  1  0  0  0  0
 13 18  1  0  0  0  0
 14 12  1  0  0  0  0
 15 19  1  0  0  0  0
 17 15  2  0  0  0  0
 18 19  2  0  0  0  0
 19 16  1  0  0  0  0
 21 20  1  1  0  0  0
 22 21  1  0  0  0  0
 22 23  1  0  0  0  0
 24 26  1  0  0  0  0
 26 25  3  0  0  0  0
 27 29  1  0  0  0  0
 28 29  2  0  0  0  0
 29 30  1  0  0  0  0
M  END
>  <MODEL>
7

>  <REMARK>
 VINA RESULT:      -4.7      7.385     10.123
  Name = 
  7 active torsions:
  status: ('A' for Active; 'I' for Inactive)
    1  A    between atoms: C_1  and  C_22
    2  A    between atoms: C_4  and  C_25
    3  A    between atoms: C_7  and  C_30
    4  A    between atoms: O_10  and  C_23
    5  A    between atoms: O_10  and  C_26
    6  A    between atoms: C_11  and  C_25
    7  A    between atoms: C_13  and  C_30
                            x       y       z     vdW  Elec       q    Type
                         _______ _______ _______ _____ _____    ______ ____

>  <TORSDO>
F 7

$$$$
=
 OpenBabel10262421463D

 30 32  0  0  1  0  0  0  0  0999 V2000
  181.9940  177.8040  139.9700 C   0  0  1  0  0  3  0  0  0  0  0  0
  181.4650  178.6560  137.6310 C   0  0  2  0  0  3  0  0  0  0  0  0
  181.3820  176.4830  140.0250 N   0  0  0  0  0  2  0  0  0  0  0  0
  180.6060  175.2480  136.5500 C   0  0  0  0  0  3  0  0  0  0  0  0
  181.1160  176.0680  137.5640 C   0  0  0  0  0  0  0  0  0  0  0  0
  180.2360  174.5150  139.2110 C   0  0  0  0  0  3  0  0  0  0  0  0
  180.9280  175.6950  138.9180 C   0  0  0  0  0  0  0  0  0  0  0  0
  181.9000  177.2710  137.1270 C   0  0  2  0  0  3  0  0  0  0  0  0
  179.9140  174.0770  136.8590 C   0  0  0  0  0  3  0  0  0  0  0  0
  179.7300  173.7090  138.1910 C   0  0  0  0  0  3  0  0  0  0  0  0
  181.1470  178.7710  139.1290 C   0  0  2  0  0  3  0  0  0  0  0  0
  181.2670  178.5330  142.3220 C   0  0  0  0  0  0  0  0  0  0  0  0
  181.6130  179.0020  143.5940 C   0  0  0  0  0  3  0  0  0  0  0  0
  179.5630  178.2690  141.9780 Cl  0  0  0  0  0  0  0  0  0  0  0  0
  183.6160  178.5320  141.7050 C   0  0  0  0  0  3  0  0  0  0  0  0
  185.2480  179.2270  143.2950 F   0  0  0  0  0  0  0  0  0  0  0  0
  182.2800  178.2930  141.3650 C   0  0  0  0  0  0  0  0  0  0  0  0
  182.9510  179.2350  143.9210 C   0  0  0  0  0  3  0  0  0  0  0  0
  183.9510  179.0000  142.9780 C   0  0  0  0  0  0  0  0  0  0  0  0
  184.3190  177.8710  137.7220 C   0  0  0  0  0  1  0  0  0  0  0  0
  183.3930  177.0260  136.8670 C   0  0  2  0  0  3  0  0  0  0  0  0
  183.7490  177.1260  135.3860 C   0  0  0  0  0  2  0  0  0  0  0  0
  185.1330  177.1250  135.2010 O   0  0  0  0  0  1  0  0  0  0  0  0
  181.3630  180.1170  139.5320 O   0  0  0  0  0  0  0  0  0  0  0  0
  179.3750  181.7150  139.8610 C   0  0  0  0  0  3  0  0  0  0  0  0
  180.3070  180.9660  139.7090 C   0  0  0  0  0  0  0  0  0  0  0  0
  180.2890  179.1410  136.7930 C   0  0  0  0  0  2  0  0  0  0  0  0
  181.1820  179.7740  134.7030 O   0  0  0  0  0  0  0  0  0  0  0  0
  180.7230  180.1430  135.7720 C   0  0  0  0  0  0  0  0  0  0  0  0
  180.5560  181.5980  136.0440 C   0  0  0  0  0  1  0  0  0  0  0  0
  1  3  1  0  0  0  0
  1 17  1  1  0  0  0
  2 27  1  6  0  0  0
  2 11  1  0  0  0  0
  4  9  2  0  0  0  0
  4  5  1  0  0  0  0
  5  7  2  0  0  0  0
  7  6  1  0  0  0  0
  7  3  1  0  0  0  0
  8 21  1  1  0  0  0
  8  5  1  0  0  0  0
  8  2  1  0  0  0  0
  9 10  1  0  0  0  0
 10  6  2  0  0  0  0
 11 24  1  1  0  0  0
 11  1  1  0  0  0  0
 12 13  1  0  0  0  0
 13 18  2  0  0  0  0
 14 12  1  0  0  0  0
 15 19  2  0  0  0  0
 17 15  1  0  0  0  0
 17 12  2  0  0  0  0
 19 16  1  0  0  0  0
 19 18  1  0  0  0  0
 21 20  1  1  0  0  0
 22 21  1  0  0  0  0
 23 22  1  0  0  0  0
 24 26  1  0  0  0  0
 26 25  3  0  0  0  0
 28 29  2  0  0  0  0
 29 30  1  0  0  0  0
 29 27  1  0  0  0  0
M  END
>  <MODEL>
8

>  <REMARK>
 VINA RESULT:      -4.6      3.029      6.173
  Name = 
  7 active torsions:
  status: ('A' for Active; 'I' for Inactive)
    1  A    between atoms: C_1  and  C_22
    2  A    between atoms: C_4  and  C_25
    3  A    between atoms: C_7  and  C_30
    4  A    between atoms: O_10  and  C_23
    5  A    between atoms: O_10  and  C_26
    6  A    between atoms: C_11  and  C_25
    7  A    between atoms: C_13  and  C_30
                            x       y       z     vdW  Elec       q    Type
                         _______ _______ _______ _____ _____    ______ ____

>  <TORSDO>
F 7

$$$$
=
 OpenBabel10262421463D

 30 32  0  0  1  0  0  0  0  0999 V2000
  182.4130  178.7390  139.9400 C   0  0  1  0  0  3  0  0  0  0  0  0
  180.6960  177.3060  138.7230 C   0  0  2  0  0  3  0  0  0  0  0  0
  182.3220  180.0430  139.2970 N   0  0  0  0  0  2  0  0  0  0  0  0
  179.1130  180.3240  137.3410 C   0  0  0  0  0  3  0  0  0  0  0  0
  180.0750  179.7910  138.2080 C   0  0  0  0  0  0  0  0  0  0  0  0
  181.4540  181.7540  137.8240 C   0  0  0  0  0  3  0  0  0  0  0  0
  181.2660  180.5180  138.4540 C   0  0  0  0  0  0  0  0  0  0  0  0
  179.7310  178.4930  138.8790 C   0  0  2  0  0  3  0  0  0  0  0  0
  179.3170  181.5540  136.7160 C   0  0  0  0  0  3  0  0  0  0  0  0
  180.4880  182.2710  136.9590 C   0  0  0  0  0  3  0  0  0  0  0  0
  182.1890  177.6060  138.9250 C   0  0  2  0  0  3  0  0  0  0  0  0
  184.9760  178.7220  140.0820 C   0  0  0  0  0  0  0  0  0  0  0  0
  186.1350  178.5980  140.8560 C   0  0  0  0  0  3  0  0  0  0  0  0
  185.1670  178.9780  138.3530 Cl  0  0  0  0  0  0  0  0  0  0  0  0
  183.6310  178.4200  142.0810 C   0  0  0  0  0  3  0  0  0  0  0  0
  184.7060  178.0940  144.1820 F   0  0  0  0  0  0  0  0  0  0  0  0
  183.7080  178.6330  140.7000 C   0  0  0  0  0  0  0  0  0  0  0  0
  186.0440  178.3880  142.2340 C   0  0  0  0  0  3  0  0  0  0  0  0
  184.7930  178.2990  142.8460 C   0  0  0  0  0  0  0  0  0  0  0  0
  179.1190  179.9380  140.9040 C   0  0  0  0  0  1  0  0  0  0  0  0
  178.9320  178.6160  140.1830 C   0  0  2  0  0  3  0  0  0  0  0  0
  179.1580  177.4300  141.1170 C   0  0  0  0  0  2  0  0  0  0  0  0
  179.9430  177.7960  142.2120 O   0  0  0  0  0  1  0  0  0  0  0  0
  182.8340  176.4120  139.3480 O   0  0  0  0  0  0  0  0  0  0  0  0
  184.0180  174.8990  137.6390 C   0  0  0  0  0  3  0  0  0  0  0  0
  183.4640  175.6070  138.4410 C   0  0  0  0  0  0  0  0  0  0  0  0
  180.4580  176.6490  137.3700 C   0  0  0  0  0  2  0  0  0  0  0  0
  180.1860  174.4530  136.5530 O   0  0  0  0  0  0  0  0  0  0  0  0
  180.1320  175.1980  137.5180 C   0  0  0  0  0  0  0  0  0  0  0  0
  179.7780  174.6510  138.8570 C   0  0  0  0  0  1  0  0  0  0  0  0
  1 17  1  6  0  0  0
  2 27  1  6  0  0  0
  2  8  1  0  0  0  0
  2 11  1  0  0  0  0
  3  1  1  0  0  0  0
  4  5  1  0  0  0  0
  5  7  2  0  0  0  0
  5  8  1  0  0  0  0
  6  7  1  0  0  0  0
  7  3  1  0  0  0  0
  8 21  1  1  0  0  0
  9 10  1  0  0  0  0
  9  4  2  0  0  0  0
 10  6  2  0  0  0  0
 11 24  1  1  0  0  0
 11  1  1  0  0  0  0
 12 17  2  0  0  0  0
 12 13  1  0  0  0  0
 13 18  2  0  0  0  0
 14 12  1  0  0  0  0
 15 19  2  0  0  0  0
 17 15  1  0  0  0  0
 18 19  1  0  0  0  0
 19 16  1  0  0  0  0
 21 20  1  1  0  0  0
 21 22  1  0  0  0  0
 22 23  1  0  0  0  0
 25 26  3  0  0  0  0
 26 24  1  0  0  0  0
 27 29  1  0  0  0  0
 28 29  2  0  0  0  0
 29 30  1  0  0  0  0
M  END
>  <MODEL>
9

>  <REMARK>
 VINA RESULT:      -4.5      2.258      2.758
  Name = 
  7 active torsions:
  status: ('A' for Active; 'I' for Inactive)
    1  A    between atoms: C_1  and  C_22
    2  A    between atoms: C_4  and  C_25
    3  A    between atoms: C_7  and  C_30
    4  A    between atoms: O_10  and  C_23
    5  A    between atoms: O_10  and  C_26
    6  A    between atoms: C_11  and  C_25
    7  A    between atoms: C_13  and  C_30
                            x       y       z     vdW  Elec       q    Type
                         _______ _______ _______ _____ _____    ______ ____

>  <TORSDO>
F 7

$$$$
