=
 OpenBabel10262422023D

 30 33  0  0  1  0  0  0  0  0999 V2000
  185.2220  178.3140  145.4410 C   0  0  0  0  0  0  0  0  0  0  0  0
  183.8950  178.5600  143.4490 C   0  0  0  0  0  3  0  0  0  0  0  0
  187.3280  178.3740  140.9190 N   0  0  0  0  0  0  0  0  0  0  0  0
  187.4930  176.0720  143.5170 C   0  0  0  0  0  1  0  0  0  0  0  0
  185.7200  179.4740  146.1170 N   0  0  0  0  0  2  0  0  0  0  0  0
  187.7510  177.7340  148.1580 C   0  0  2  0  0  3  0  0  0  0  0  0
  186.3470  178.3470  148.3500 C   0  0  0  0  0  2  0  0  0  0  0  0
  186.2140  180.7010  148.0250 O   0  0  0  0  0  0  0  0  0  0  0  0
  190.2050  177.6700  143.4000 C   0  0  2  0  0  3  0  0  0  0  0  0
  188.6390  178.1760  141.4500 C   0  0  0  0  0  0  0  0  0  0  0  0
  186.0640  179.5640  147.5070 C   0  0  0  0  0  0  0  0  0  0  0  0
  188.8310  178.3050  146.4000 C   0  0  2  0  0  3  0  0  0  0  0  0
  183.6740  178.5770  141.9650 C   0  0  0  0  0  2  0  0  0  0  0  0
  190.7320  178.3590  144.6630 C   0  0  0  0  0  2  0  0  0  0  0  0
  188.8220  178.7740  147.8430 C   0  0  0  0  0  2  0  0  0  0  0  0
  184.8270  177.3080  146.0880 O   0  0  0  0  0  0  0  0  0  0  0  0
  186.1820  178.4650  141.7820 C   0  0  0  0  0  0  0  0  0  0  0  0
  184.9110  178.8720  141.2450 N   0  0  0  0  0  0  0  0  0  0  0  0
  187.8870  177.1710  146.7570 C   0  0  0  0  0  2  0  0  0  0  0  0
  185.1000  178.3310  143.9790 C   0  0  0  0  0  0  0  0  0  0  0  0
  187.5740  177.5890  143.6430 C   0  0  1  0  0  3  0  0  0  0  0  0
  189.6240  178.0800  140.6690 O   0  0  0  0  0  0  0  0  0  0  0  0
  188.8200  178.1790  142.9400 C   0  0  1  0  0  3  0  0  0  0  0  0
  190.7710  176.9490  146.5530 O   0  0  0  0  0  0  0  0  0  0  0  0
  184.8100  179.3400  139.8730 C   0  0  0  0  0  1  0  0  0  0  0  0
  186.2920  178.1830  143.0990 C   0  0  1  0  0  3  0  0  0  0  0  0
  190.1600  177.8050  145.9310 C   0  0  0  0  0  0  0  0  0  0  0  0
  190.2870  176.2760  143.4830 O   0  0  0  0  0  0  0  0  0  0  0  0
  191.6430  175.9840  143.3300 C   0  0  0  0  0  2  0  0  0  0  0  0
  192.0350  174.8880  144.2960 C   0  0  0  0  0  1  0  0  0  0  0  0
  1 16  2  0  0  0  0
  1  5  1  0  0  0  0
  2 20  2  0  0  0  0
  3 10  1  0  0  0  0
  3 17  2  0  0  0  0
  5 11  1  0  0  0  0
  6 19  1  6  0  0  0
  6  7  1  0  0  0  0
  9 28  1  1  0  0  0
  9 14  1  0  0  0  0
 11  8  2  0  0  0  0
 11  7  1  0  0  0  0
 12 19  1  1  0  0  0
 12 15  1  0  0  0  0
 13  2  1  0  0  0  0
 14 27  1  0  0  0  0
 15  6  1  0  0  0  0
 18 17  1  0  0  0  0
 18 13  1  0  0  0  0
 20  1  1  0  0  0  0
 21  4  1  6  0  0  0
 22 10  2  0  0  0  0
 23 10  1  6  0  0  0
 23  9  1  0  0  0  0
 23 21  1  0  0  0  0
 25 18  1  0  0  0  0
 26 17  1  6  0  0  0
 26 21  1  0  0  0  0
 26 20  1  0  0  0  0
 27 12  1  0  0  0  0
 27 24  2  0  0  0  0
 29 28  1  0  0  0  0
 29 30  1  0  0  0  0
M  END
>  <MODEL>
1

>  <REMARK>
 VINA RESULT:      -7.5      0.000      0.000
  Name = 
  2 active torsions:
  status: ('A' for Active; 'I' for Inactive)
    1  A    between atoms: C_7  and  O_26
    2  A    between atoms: C_10  and  O_26
                            x       y       z     vdW  Elec       q    Type
                         _______ _______ _______ _____ _____    ______ ____

>  <TORSDO>
F 2

$$$$
=
 OpenBabel10262422023D

 30 33  0  0  1  0  0  0  0  0999 V2000
  186.7900  178.1950  138.1340 C   0  0  0  0  0  0  0  0  0  0  0  0
  184.5540  178.8670  138.7150 C   0  0  0  0  0  3  0  0  0  0  0  0
  185.2590  178.2600  142.8810 N   0  0  0  0  0  2  0  0  0  0  0  0
  187.9660  179.7620  141.3040 C   0  0  0  0  0  1  0  0  0  0  0  0
  187.0700  176.8230  137.8340 N   0  0  0  0  0  2  0  0  0  0  0  0
  190.4090  177.2310  137.8410 C   0  0  2  0  0  3  0  0  0  0  0  0
  189.3640  177.1620  136.7060 C   0  0  0  0  0  2  0  0  0  0  0  0
  188.1050  175.1450  136.6090 O   0  0  0  0  0  0  0  0  0  0  0  0
  189.0060  177.3250  143.0070 C   0  0  2  0  0  3  0  0  0  0  0  0
  186.5340  177.8420  143.3720 C   0  0  0  0  0  0  0  0  0  0  0  0
  188.1430  176.3340  137.0180 C   0  0  0  0  0  0  0  0  0  0  0  0
  189.7600  176.6620  139.8000 C   0  0  2  0  0  3  0  0  0  0  0  0
  183.4570  179.2310  139.6720 C   0  0  0  0  0  2  0  0  0  0  0  0
  189.8720  176.2510  142.3410 C   0  0  0  0  0  2  0  0  0  0  0  0
  190.4810  175.9520  138.6700 C   0  0  0  0  0  2  0  0  0  0  0  0
  187.3570  179.1240  137.5000 O   0  0  0  0  0  0  0  0  0  0  0  0
  185.0230  178.4320  141.4740 C   0  0  0  0  0  0  0  0  0  0  0  0
  183.6850  178.6460  140.9920 N   0  0  0  0  0  0  0  0  0  0  0  0
  189.8370  177.9700  139.0340 C   0  0  0  0  0  2  0  0  0  0  0  0
  185.7720  178.5180  139.1400 C   0  0  0  0  0  0  0  0  0  0  0  0
  187.4770  178.3330  141.1000 C   0  0  1  0  0  3  0  0  0  0  0  0
  186.7180  177.7180  144.6120 O   0  0  0  0  0  0  0  0  0  0  0  0
  187.6000  177.4730  142.3810 C   0  0  1  0  0  3  0  0  0  0  0  0
  191.6790  177.1340  141.1110 O   0  0  0  0  0  0  0  0  0  0  0  0
  182.5530  178.5340  141.8960 C   0  0  0  0  0  1  0  0  0  0  0  0
  186.0500  178.3830  140.5960 C   0  0  0  0  0  0  0  0  0  0  0  0
  190.5340  176.7120  141.0790 C   0  0  0  0  0  0  0  0  0  0  0  0
  189.6840  178.5400  143.1490 O   0  0  0  0  0  0  0  0  0  0  0  0
  190.3580  178.4380  144.3670 C   0  0  0  0  0  2  0  0  0  0  0  0
  191.7660  178.9680  144.2090 C   0  0  0  0  0  1  0  0  0  0  0  0
  1 20  1  0  0  0  0
  2 20  2  0  0  0  0
  2 13  1  0  0  0  0
  3 10  1  0  0  0  0
  5  1  1  0  0  0  0
  6  7  1  6  0  0  0
  6 15  1  0  0  0  0
  6 19  1  0  0  0  0
  7 11  1  0  0  0  0
  8 11  2  0  0  0  0
  9 28  1  6  0  0  0
 10 22  2  0  0  0  0
 11  5  1  0  0  0  0
 12 15  1  6  0  0  0
 12 27  1  0  0  0  0
 13 18  1  0  0  0  0
 14  9  1  0  0  0  0
 16  1  2  0  0  0  0
 17  3  1  0  0  0  0
 18 17  1  0  0  0  0
 18 25  1  0  0  0  0
 19 12  1  0  0  0  0
 20 26  1  0  0  0  0
 21  4  1  1  0  0  0
 21 23  1  0  0  0  0
 23  9  1  0  0  0  0
 23 10  1  1  0  0  0
 26 21  1  0  0  0  0
 26 17  2  0  0  0  0
 27 24  2  0  0  0  0
 27 14  1  0  0  0  0
 28 29  1  0  0  0  0
 30 29  1  0  0  0  0
M  END
>  <MODEL>
2

>  <REMARK>
 VINA RESULT:      -6.8      2.708      6.354
  Name = 
  2 active torsions:
  status: ('A' for Active; 'I' for Inactive)
    1  A    between atoms: C_7  and  O_26
    2  A    between atoms: C_10  and  O_26
                            x       y       z     vdW  Elec       q    Type
                         _______ _______ _______ _____ _____    ______ ____

>  <TORSDO>
F 2

$$$$
=
 OpenBabel10262422023D

 30 33  0  0  1  0  0  0  0  0999 V2000
  185.5120  178.3210  142.4070 C   0  0  0  0  0  0  0  0  0  0  0  0
  186.1450  178.3080  140.0860 C   0  0  0  0  0  3  0  0  0  0  0  0
  190.2940  177.9710  141.0310 N   0  0  0  0  0  0  0  0  0  0  0  0
  188.3220  175.9660  143.0710 C   0  0  0  0  0  1  0  0  0  0  0  0
  185.4000  179.5620  143.1120 N   0  0  0  0  0  2  0  0  0  0  0  0
  185.1070  178.1190  146.1360 C   0  0  2  0  0  3  0  0  0  0  0  0
  184.0730  178.7000  145.1480 C   0  0  0  0  0  2  0  0  0  0  0  0
  184.3660  181.0010  144.6120 O   0  0  0  0  0  0  0  0  0  0  0  0
  190.2890  177.6330  144.8800 C   0  0  2  0  0  3  0  0  0  0  0  0
  190.7490  177.8760  142.3820 C   0  0  0  0  0  0  0  0  0  0  0  0
  184.5900  179.8110  144.2690 C   0  0  0  0  0  0  0  0  0  0  0  0
  187.1700  178.5360  145.7460 C   0  0  2  0  0  3  0  0  0  0  0  0
  187.1140  178.1600  138.9490 C   0  0  0  0  0  2  0  0  0  0  0  0
  189.7290  178.4700  146.0350 C   0  0  0  0  0  2  0  0  0  0  0  0
  186.1090  179.1550  146.6360 C   0  0  0  0  0  2  0  0  0  0  0  0
  184.7080  177.3760  142.6280 O   0  0  0  0  0  0  0  0  0  0  0  0
  188.8970  178.1150  140.7250 C   0  0  0  0  0  0  0  0  0  0  0  0
  188.4860  178.4190  139.3810 N   0  0  0  0  0  0  0  0  0  0  0  0
  186.2150  177.4150  145.3780 C   0  0  0  0  0  2  0  0  0  0  0  0
  186.5290  178.1780  141.3590 C   0  0  0  0  0  0  0  0  0  0  0  0
  188.3680  177.4890  143.0690 C   0  0  1  0  0  3  0  0  0  0  0  0
  191.9780  177.7300  142.6210 O   0  0  0  0  0  0  0  0  0  0  0  0
  189.7500  178.0430  143.4900 C   0  0  1  0  0  3  0  0  0  0  0  0
  188.2560  177.2710  147.4330 O   0  0  0  0  0  0  0  0  0  0  0  0
  189.4750  178.7350  138.3640 C   0  0  0  0  0  1  0  0  0  0  0  0
  187.9650  177.9780  141.6940 C   0  0  1  0  0  3  0  0  0  0  0  0
  188.3690  178.0340  146.4860 C   0  0  0  0  0  0  0  0  0  0  0  0
  190.2010  176.2590  145.1290 O   0  0  0  0  0  0  0  0  0  0  0  0
  191.5140  175.8490  145.3620 C   0  0  0  0  0  2  0  0  0  0  0  0
  191.7990  175.8910  146.8470 C   0  0  0  0  0  1  0  0  0  0  0  0
  1 16  2  0  0  0  0
  1  5  1  0  0  0  0
  2 20  2  0  0  0  0
  3 10  1  0  0  0  0
  5 11  1  0  0  0  0
  6  7  1  6  0  0  0
  6 15  1  0  0  0  0
  9 28  1  1  0  0  0
  9 14  1  0  0  0  0
 10 22  2  0  0  0  0
 11  8  2  0  0  0  0
 11  7  1  0  0  0  0
 12 19  1  1  0  0  0
 12 27  1  0  0  0  0
 12 15  1  0  0  0  0
 13 18  1  0  0  0  0
 13  2  1  0  0  0  0
 14 27  1  0  0  0  0
 17  3  2  0  0  0  0
 18 17  1  0  0  0  0
 19  6  1  0  0  0  0
 20 26  1  0  0  0  0
 20  1  1  0  0  0  0
 21  4  1  6  0  0  0
 21 23  1  0  0  0  0
 23 10  1  6  0  0  0
 23  9  1  0  0  0  0
 25 18  1  0  0  0  0
 26 17  1  6  0  0  0
 26 21  1  0  0  0  0
 27 24  2  0  0  0  0
 28 29  1  0  0  0  0
 29 30  1  0  0  0  0
M  END
>  <MODEL>
3

>  <REMARK>
 VINA RESULT:      -6.8      1.899      2.944
  Name = 
  2 active torsions:
  status: ('A' for Active; 'I' for Inactive)
    1  A    between atoms: C_7  and  O_26
    2  A    between atoms: C_10  and  O_26
                            x       y       z     vdW  Elec       q    Type
                         _______ _______ _______ _____ _____    ______ ____

>  <TORSDO>
F 2

$$$$
=
 OpenBabel10262422023D

 30 33  0  0  1  0  0  0  0  0999 V2000
  190.4880  176.5560  143.5320 C   0  0  0  0  0  0  0  0  0  0  0  0
  190.6760  176.3970  145.9250 C   0  0  0  0  0  3  0  0  0  0  0  0
  186.9730  178.4300  146.5340 N   0  0  0  0  0  2  0  0  0  0  0  0
  186.8010  176.1620  143.9080 C   0  0  0  0  0  1  0  0  0  0  0  0
  191.0490  177.6780  142.8420 N   0  0  0  0  0  2  0  0  0  0  0  0
  189.5840  176.9390  139.9060 C   0  0  2  0  0  3  0  0  0  0  0  0
  191.0050  176.6940  140.4590 C   0  0  0  0  0  2  0  0  0  0  0  0
  192.2020  178.6550  141.0800 O   0  0  0  0  0  0  0  0  0  0  0  0
  185.6470  178.9280  142.9390 C   0  0  2  0  0  3  0  0  0  0  0  0
  186.1640  178.8580  145.4370 C   0  0  0  0  0  0  0  0  0  0  0  0
  191.4740  177.7070  141.4720 C   0  0  0  0  0  0  0  0  0  0  0  0
  188.3210  178.2630  141.0150 C   0  0  2  0  0  3  0  0  0  0  0  0
  190.1770  176.5380  147.3330 C   0  0  0  0  0  2  0  0  0  0  0  0
  186.2020  179.5750  141.6660 C   0  0  0  0  0  2  0  0  0  0  0  0
  189.2250  178.4180  139.8060 C   0  0  0  0  0  2  0  0  0  0  0  0
  190.5290  175.4010  143.0300 O   0  0  0  0  0  0  0  0  0  0  0  0
  188.2330  177.7730  146.3180 C   0  0  0  0  0  0  0  0  0  0  0  0
  189.1200  177.5430  147.4260 N   0  0  0  0  0  0  0  0  0  0  0  0
  188.5580  176.7640  141.0070 C   0  0  0  0  0  2  0  0  0  0  0  0
  189.9270  176.7440  144.8750 C   0  0  0  0  0  0  0  0  0  0  0  0
  187.6050  177.4570  143.9360 C   0  0  1  0  0  3  0  0  0  0  0  0
  185.0540  179.4140  145.6560 O   0  0  0  0  0  0  0  0  0  0  0  0
  186.7060  178.7120  144.0450 C   0  0  1  0  0  3  0  0  0  0  0  0
  186.2750  178.1050  139.8240 O   0  0  0  0  0  0  0  0  0  0  0  0
  188.8240  178.1070  148.7320 C   0  0  0  0  0  1  0  0  0  0  0  0
  188.5970  177.3800  145.0770 C   0  0  0  0  0  0  0  0  0  0  0  0
  186.8890  178.6070  140.7530 C   0  0  0  0  0  0  0  0  0  0  0  0
  184.8860  177.7860  142.6660 O   0  0  0  0  0  0  0  0  0  0  0  0
  183.6740  178.2700  142.1730 C   0  0  0  0  0  2  0  0  0  0  0  0
  182.8760  178.8780  143.3060 C   0  0  0  0  0  1  0  0  0  0  0  0
  1 20  1  0  0  0  0
  2 13  1  0  0  0  0
  5  1  1  0  0  0  0
  6 15  1  1  0  0  0
  6  7  1  0  0  0  0
  6 19  1  0  0  0  0
  7 11  1  0  0  0  0
  8 11  2  0  0  0  0
  9 28  1  6  0  0  0
  9 23  1  0  0  0  0
 10 22  2  0  0  0  0
 10  3  1  0  0  0  0
 11  5  1  0  0  0  0
 12 15  1  6  0  0  0
 13 18  1  0  0  0  0
 14  9  1  0  0  0  0
 16  1  2  0  0  0  0
 17  3  1  0  0  0  0
 17 18  1  0  0  0  0
 18 25  1  0  0  0  0
 19 12  1  0  0  0  0
 20 26  1  0  0  0  0
 20  2  2  0  0  0  0
 21  4  1  1  0  0  0
 21 23  1  0  0  0  0
 21 26  1  0  0  0  0
 23 10  1  1  0  0  0
 24 27  2  0  0  0  0
 26 17  2  0  0  0  0
 27 12  1  0  0  0  0
 27 14  1  0  0  0  0
 29 28  1  0  0  0  0
 29 30  1  0  0  0  0
M  END
>  <MODEL>
4

>  <REMARK>
 VINA RESULT:      -6.1      2.121      6.792
  Name = 
  2 active torsions:
  status: ('A' for Active; 'I' for Inactive)
    1  A    between atoms: C_7  and  O_26
    2  A    between atoms: C_10  and  O_26
                            x       y       z     vdW  Elec       q    Type
                         _______ _______ _______ _____ _____    ______ ____

>  <TORSDO>
F 2

$$$$
=
 OpenBabel10262422023D

 30 33  0  0  1  0  0  0  0  0999 V2000
  181.4720  177.7780  140.0040 C   0  0  0  0  0  0  0  0  0  0  0  0
  181.7790  178.6280  142.2340 C   0  0  0  0  0  3  0  0  0  0  0  0
  186.0150  178.8550  141.7610 N   0  0  0  0  0  2  0  0  0  0  0  0
  184.3250  179.9160  138.9170 C   0  0  0  0  0  1  0  0  0  0  0  0
  181.4700  176.3660  139.7700 N   0  0  0  0  0  2  0  0  0  0  0  0
  181.5850  176.6560  136.4200 C   0  0  2  0  0  3  0  0  0  0  0  0
  180.4290  176.3930  137.4100 C   0  0  0  0  0  2  0  0  0  0  0  0
  180.6680  174.4410  138.7510 O   0  0  0  0  0  0  0  0  0  0  0  0
  186.5380  177.8420  138.0690 C   0  0  2  0  0  3  0  0  0  0  0  0
  186.6510  178.5040  140.5310 C   0  0  0  0  0  0  0  0  0  0  0  0
  180.8310  175.6860  138.6800 C   0  0  0  0  0  0  0  0  0  0  0  0
  183.5770  176.5180  137.1890 C   0  0  2  0  0  3  0  0  0  0  0  0
  182.5800  179.2140  143.3590 C   0  0  0  0  0  2  0  0  0  0  0  0
  186.1510  176.6270  137.2190 C   0  0  0  0  0  2  0  0  0  0  0  0
  182.6560  175.5700  136.4450 C   0  0  0  0  0  2  0  0  0  0  0  0
  180.6980  178.5400  139.3670 O   0  0  0  0  0  0  0  0  0  0  0  0
  184.5910  178.7460  141.9190 C   0  0  0  0  0  0  0  0  0  0  0  0
  184.0010  178.9020  143.2220 N   0  0  0  0  0  0  0  0  0  0  0  0
  182.5700  177.6400  137.0170 C   0  0  0  0  0  2  0  0  0  0  0  0
  182.3340  178.3320  141.0550 C   0  0  0  0  0  0  0  0  0  0  0  0
  184.3840  178.4920  139.4570 C   0  0  1  0  0  3  0  0  0  0  0  0
  187.9000  178.6280  140.4130 O   0  0  0  0  0  0  0  0  0  0  0  0
  185.8170  177.9070  139.4350 C   0  0  1  0  0  3  0  0  0  0  0  0
  184.8740  177.1830  135.3170 O   0  0  0  0  0  0  0  0  0  0  0  0
  184.8440  179.0130  144.4000 C   0  0  0  0  0  1  0  0  0  0  0  0
  183.8010  178.4860  140.8540 C   0  0  0  0  0  0  0  0  0  0  0  0
  184.8620  176.8010  136.4770 C   0  0  0  0  0  0  0  0  0  0  0  0
  186.4720  179.0380  137.3460 O   0  0  0  0  0  0  0  0  0  0  0  0
  187.5550  178.9910  136.4680 C   0  0  0  0  0  2  0  0  0  0  0  0
  188.8450  179.0060  137.2600 C   0  0  0  0  0  1  0  0  0  0  0  0
  1 20  1  0  0  0  0
  2 13  1  0  0  0  0
  3 17  1  0  0  0  0
  5  1  1  0  0  0  0
  6 15  1  1  0  0  0
  6 19  1  0  0  0  0
  6  7  1  0  0  0  0
  7 11  1  0  0  0  0
  9 28  1  6  0  0  0
  9 23  1  0  0  0  0
 10  3  1  0  0  0  0
 11  8  2  0  0  0  0
 11  5  1  0  0  0  0
 12 15  1  6  0  0  0
 14  9  1  0  0  0  0
 16  1  2  0  0  0  0
 17 18  1  0  0  0  0
 18 13  1  0  0  0  0
 18 25  1  0  0  0  0
 19 12  1  0  0  0  0
 20  2  2  0  0  0  0
 21  4  1  1  0  0  0
 21 26  1  0  0  0  0
 22 10  2  0  0  0  0
 23 21  1  0  0  0  0
 23 10  1  1  0  0  0
 24 27  2  0  0  0  0
 26 20  1  0  0  0  0
 26 17  2  0  0  0  0
 27 12  1  0  0  0  0
 27 14  1  0  0  0  0
 29 30  1  0  0  0  0
 29 28  1  0  0  0  0
M  END
>  <MODEL>
5

>  <REMARK>
 VINA RESULT:      -5.9      4.296      8.137
  Name = 
  2 active torsions:
  status: ('A' for Active; 'I' for Inactive)
    1  A    between atoms: C_7  and  O_26
    2  A    between atoms: C_10  and  O_26
                            x       y       z     vdW  Elec       q    Type
                         _______ _______ _______ _____ _____    ______ ____

>  <TORSDO>
F 2

$$$$
=
 OpenBabel10262422023D

 30 33  0  0  1  0  0  0  0  0999 V2000
  186.3210  178.6830  141.3930 C   0  0  0  0  0  0  0  0  0  0  0  0
  188.0380  178.4020  143.0550 C   0  0  0  0  0  3  0  0  0  0  0  0
  190.5550  176.2600  140.3540 N   0  0  0  0  0  2  0  0  0  0  0  0
  189.0080  178.9690  138.8270 C   0  0  0  0  0  1  0  0  0  0  0  0
  185.2770  177.7110  141.2710 N   0  0  0  0  0  2  0  0  0  0  0  0
  184.0910  178.9640  138.3830 C   0  0  2  0  0  3  0  0  0  0  0  0
  183.6430  179.1150  139.8530 C   0  0  0  0  0  2  0  0  0  0  0  0
  183.0650  177.0840  140.9500 O   0  0  0  0  0  0  0  0  0  0  0  0
  188.6010  176.4180  137.0250 C   0  0  2  0  0  3  0  0  0  0  0  0
  190.1760  176.0340  138.9960 C   0  0  0  0  0  0  0  0  0  0  0  0
  183.9640  177.9380  140.7380 C   0  0  0  0  0  0  0  0  0  0  0  0
  185.5410  177.4480  137.9560 C   0  0  2  0  0  3  0  0  0  0  0  0
  189.4020  178.0010  143.5360 C   0  0  0  0  0  2  0  0  0  0  0  0
  187.1890  176.0200  136.5840 C   0  0  0  0  0  2  0  0  0  0  0  0
  184.0280  177.5250  137.8800 C   0  0  0  0  0  2  0  0  0  0  0  0
  186.0840  179.9110  141.2380 O   0  0  0  0  0  0  0  0  0  0  0  0
  189.6870  176.9560  141.2630 C   0  0  0  0  0  0  0  0  0  0  0  0
  189.9960  176.9870  142.6680 N   0  0  0  0  0  0  0  0  0  0  0  0
  185.6040  178.9250  138.2990 C   0  0  0  0  0  2  0  0  0  0  0  0
  187.6680  178.2480  141.7800 C   0  0  0  0  0  0  0  0  0  0  0  0
  188.3280  177.6980  139.3220 C   0  0  1  0  0  3  0  0  0  0  0  0
  190.9650  175.4380  138.2150 O   0  0  0  0  0  0  0  0  0  0  0  0
  188.7970  176.4370  138.5580 C   0  0  1  0  0  3  0  0  0  0  0  0
  185.9620  177.8040  135.6490 O   0  0  0  0  0  0  0  0  0  0  0  0
  191.0920  176.1900  143.1950 C   0  0  0  0  0  1  0  0  0  0  0  0
  188.5730  177.5730  140.8100 C   0  0  0  0  0  0  0  0  0  0  0  0
  186.2020  177.1450  136.6490 C   0  0  0  0  0  0  0  0  0  0  0  0
  189.0460  177.5840  136.3920 O   0  0  0  0  0  0  0  0  0  0  0  0
  189.3360  177.1970  135.0830 C   0  0  0  0  0  2  0  0  0  0  0  0
  190.6000  176.3650  135.0730 C   0  0  0  0  0  1  0  0  0  0  0  0
  1 20  1  0  0  0  0
  2 13  1  0  0  0  0
  3 17  1  0  0  0  0
  5  1  1  0  0  0  0
  6 15  1  1  0  0  0
  6  7  1  0  0  0  0
  7 11  1  0  0  0  0
  9 28  1  1  0  0  0
  9 23  1  0  0  0  0
 10  3  1  0  0  0  0
 11  8  2  0  0  0  0
 11  5  1  0  0  0  0
 12 15  1  6  0  0  0
 12 19  1  0  0  0  0
 14 27  1  0  0  0  0
 14  9  1  0  0  0  0
 16  1  2  0  0  0  0
 17 18  1  0  0  0  0
 18 25  1  0  0  0  0
 18 13  1  0  0  0  0
 19  6  1  0  0  0  0
 20  2  2  0  0  0  0
 21  4  1  6  0  0  0
 21 26  1  0  0  0  0
 22 10  2  0  0  0  0
 23 10  1  6  0  0  0
 23 21  1  0  0  0  0
 24 27  2  0  0  0  0
 26 17  2  0  0  0  0
 26 20  1  0  0  0  0
 27 12  1  0  0  0  0
 29 28  1  0  0  0  0
 30 29  1  0  0  0  0
M  END
>  <MODEL>
6

>  <REMARK>
 VINA RESULT:      -5.6      3.620      7.232
  Name = 
  2 active torsions:
  status: ('A' for Active; 'I' for Inactive)
    1  A    between atoms: C_7  and  O_26
    2  A    between atoms: C_10  and  O_26
                            x       y       z     vdW  Elec       q    Type
                         _______ _______ _______ _____ _____    ______ ____

>  <TORSDO>
F 2

$$$$
=
 OpenBabel10262422023D

 30 33  0  0  1  0  0  0  0  0999 V2000
  185.1310  178.6920  140.4220 C   0  0  0  0  0  0  0  0  0  0  0  0
  184.6750  178.9200  142.7740 C   0  0  0  0  0  3  0  0  0  0  0  0
  188.4210  177.1840  143.8550 N   0  0  0  0  0  2  0  0  0  0  0  0
  188.7200  179.3650  141.1670 C   0  0  0  0  0  1  0  0  0  0  0  0
  184.7260  177.5090  139.7260 N   0  0  0  0  0  2  0  0  0  0  0  0
  186.4450  178.2490  136.9310 C   0  0  2  0  0  3  0  0  0  0  0  0
  184.9600  178.4090  137.3200 C   0  0  0  0  0  2  0  0  0  0  0  0
  183.8400  176.3890  137.8960 O   0  0  0  0  0  0  0  0  0  0  0  0
  190.1580  176.6580  140.4440 C   0  0  2  0  0  3  0  0  0  0  0  0
  189.3710  176.7780  142.8690 C   0  0  0  0  0  0  0  0  0  0  0  0
  184.4540  177.4010  138.3210 C   0  0  0  0  0  0  0  0  0  0  0  0
  187.6690  177.0600  138.2230 C   0  0  2  0  0  3  0  0  0  0  0  0
  185.0280  178.8650  144.2310 C   0  0  0  0  0  2  0  0  0  0  0  0
  189.7910  175.9280  139.1480 C   0  0  0  0  0  2  0  0  0  0  0  0
  186.9140  176.7970  136.9330 C   0  0  0  0  0  2  0  0  0  0  0  0
  185.0650  179.8220  139.8700 O   0  0  0  0  0  0  0  0  0  0  0  0
  187.1500  177.7400  143.4800 C   0  0  0  0  0  0  0  0  0  0  0  0
  186.1340  177.9440  144.4770 N   0  0  0  0  0  0  0  0  0  0  0  0
  187.3320  178.5360  138.1250 C   0  0  0  0  0  2  0  0  0  0  0  0
  185.5560  178.5930  141.8240 C   0  0  0  0  0  0  0  0  0  0  0  0
  188.0090  178.0170  141.1660 C   0  0  1  0  0  3  0  0  0  0  0  0
  190.4860  176.3120  143.2260 O   0  0  0  0  0  0  0  0  0  0  0  0
  188.9740  176.8350  141.4220 C   0  0  1  0  0  3  0  0  0  0  0  0
  189.8160  177.3240  137.2480 O   0  0  0  0  0  0  0  0  0  0  0  0
  186.3250  177.4490  145.8300 C   0  0  0  0  0  1  0  0  0  0  0  0
  186.8960  178.0620  142.1920 C   0  0  0  0  0  0  0  0  0  0  0  0
  189.1410  176.8110  138.1270 C   0  0  0  0  0  0  0  0  0  0  0  0
  190.8650  177.8420  140.2040 O   0  0  0  0  0  0  0  0  0  0  0  0
  192.1710  177.5730  140.6150 C   0  0  0  0  0  2  0  0  0  0  0  0
  193.0060  177.1790  139.4160 C   0  0  0  0  0  1  0  0  0  0  0  0
  1 20  1  0  0  0  0
  2 13  1  0  0  0  0
  5  1  1  0  0  0  0
  6 15  1  1  0  0  0
  6  7  1  0  0  0  0
  6 19  1  0  0  0  0
  7 11  1  0  0  0  0
  8 11  2  0  0  0  0
  9 28  1  6  0  0  0
  9 23  1  0  0  0  0
 10 22  2  0  0  0  0
 10  3  1  0  0  0  0
 11  5  1  0  0  0  0
 12 15  1  6  0  0  0
 13 18  1  0  0  0  0
 14  9  1  0  0  0  0
 16  1  2  0  0  0  0
 17  3  1  0  0  0  0
 17 18  1  0  0  0  0
 18 25  1  0  0  0  0
 19 12  1  0  0  0  0
 20 26  1  0  0  0  0
 20  2  2  0  0  0  0
 21  4  1  1  0  0  0
 21 23  1  0  0  0  0
 21 26  1  0  0  0  0
 23 10  1  1  0  0  0
 24 27  2  0  0  0  0
 26 17  2  0  0  0  0
 27 12  1  0  0  0  0
 27 14  1  0  0  0  0
 28 29  1  0  0  0  0
 30 29  1  0  0  0  0
M  END
>  <MODEL>
7

>  <REMARK>
 VINA RESULT:      -5.6      2.844      6.424
  Name = 
  2 active torsions:
  status: ('A' for Active; 'I' for Inactive)
    1  A    between atoms: C_7  and  O_26
    2  A    between atoms: C_10  and  O_26
                            x       y       z     vdW  Elec       q    Type
                         _______ _______ _______ _____ _____    ______ ____

>  <TORSDO>
F 2

$$$$
=
 OpenBabel10262422023D

 30 33  0  0  1  0  0  0  0  0999 V2000
  187.1560  178.2410  138.0260 C   0  0  0  0  0  0  0  0  0  0  0  0
  189.5160  177.8450  137.7780 C   0  0  0  0  0  3  0  0  0  0  0  0
  188.9160  173.7120  136.8950 N   0  0  0  0  0  0  0  0  0  0  0  0
  186.5660  175.7360  135.3300 C   0  0  0  0  0  1  0  0  0  0  0  0
  186.5400  178.1090  139.3110 N   0  0  0  0  0  2  0  0  0  0  0  0
  183.4010  178.3030  138.1150 C   0  0  2  0  0  3  0  0  0  0  0  0
  184.3350  179.3380  138.7800 C   0  0  0  0  0  2  0  0  0  0  0  0
  185.0670  178.7790  140.9750 O   0  0  0  0  0  0  0  0  0  0  0  0
  185.0670  173.3880  136.8000 C   0  0  2  0  0  3  0  0  0  0  0  0
  187.6070  173.1450  136.8180 C   0  0  0  0  0  0  0  0  0  0  0  0
  185.3370  178.7590  139.7470 C   0  0  0  0  0  0  0  0  0  0  0  0
  184.0010  176.2510  138.2010 C   0  0  2  0  0  3  0  0  0  0  0  0
  190.7200  177.0220  137.4200 C   0  0  0  0  0  2  0  0  0  0  0  0
  183.9340  173.7100  137.7790 C   0  0  0  0  0  2  0  0  0  0  0  0
  183.0700  177.1220  139.0230 C   0  0  0  0  0  2  0  0  0  0  0  0
  186.7950  179.1430  137.2250 O   0  0  0  0  0  0  0  0  0  0  0  0
  189.1090  175.0980  137.2230 C   0  0  0  0  0  0  0  0  0  0  0  0
  190.4300  175.5920  137.5000 N   0  0  0  0  0  0  0  0  0  0  0  0
  184.1990  177.3840  137.2120 C   0  0  0  0  0  2  0  0  0  0  0  0
  188.2760  177.3610  137.6710 C   0  0  0  0  0  0  0  0  0  0  0  0
  186.6860  175.4780  136.8270 C   0  0  1  0  0  3  0  0  0  0  0  0
  187.4670  171.9320  136.5090 O   0  0  0  0  0  0  0  0  0  0  0  0
  186.4310  173.9970  137.1980 C   0  0  1  0  0  3  0  0  0  0  0  0
  182.3260  175.1930  136.8970 O   0  0  0  0  0  0  0  0  0  0  0  0
  191.5510  174.6720  137.6050 C   0  0  0  0  0  1  0  0  0  0  0  0
  188.0530  175.9410  137.2840 C   0  0  1  0  0  3  0  0  0  0  0  0
  183.3340  175.0670  137.5760 C   0  0  0  0  0  0  0  0  0  0  0  0
  184.7090  173.6440  135.4710 O   0  0  0  0  0  0  0  0  0  0  0  0
  183.9070  172.5640  135.0990 C   0  0  0  0  0  2  0  0  0  0  0  0
  184.7820  171.4380  134.5940 C   0  0  0  0  0  1  0  0  0  0  0  0
  1  5  1  0  0  0  0
  3 17  2  0  0  0  0
  5 11  1  0  0  0  0
  6 19  1  6  0  0  0
  6  7  1  0  0  0  0
  6 15  1  0  0  0  0
  7 11  1  0  0  0  0
  9 28  1  6  0  0  0
  9 23  1  0  0  0  0
  9 14  1  0  0  0  0
 10  3  1  0  0  0  0
 11  8  2  0  0  0  0
 12 19  1  6  0  0  0
 12 15  1  0  0  0  0
 13 18  1  0  0  0  0
 13  2  1  0  0  0  0
 16  1  2  0  0  0  0
 17 18  1  0  0  0  0
 18 25  1  0  0  0  0
 20  2  2  0  0  0  0
 20  1  1  0  0  0  0
 21  4  1  6  0  0  0
 21 23  1  0  0  0  0
 21 26  1  0  0  0  0
 22 10  2  0  0  0  0
 23 10  1  6  0  0  0
 24 27  2  0  0  0  0
 26 17  1  6  0  0  0
 26 20  1  0  0  0  0
 27 14  1  0  0  0  0
 27 12  1  0  0  0  0
 29 28  1  0  0  0  0
 30 29  1  0  0  0  0
M  END
>  <MODEL>
8

>  <REMARK>
 VINA RESULT:      -5.5      5.990      9.049
  Name = 
  2 active torsions:
  status: ('A' for Active; 'I' for Inactive)
    1  A    between atoms: C_7  and  O_26
    2  A    between atoms: C_10  and  O_26
                            x       y       z     vdW  Elec       q    Type
                         _______ _______ _______ _____ _____    ______ ____

>  <TORSDO>
F 2

$$$$
=
 OpenBabel10262422023D

 30 33  0  0  1  0  0  0  0  0999 V2000
  187.4040  177.5010  146.8370 C   0  0  0  0  0  0  0  0  0  0  0  0
  185.0940  178.0660  146.4690 C   0  0  0  0  0  3  0  0  0  0  0  0
  185.7540  178.8370  142.3230 N   0  0  0  0  0  2  0  0  0  0  0  0
  187.4710  176.0220  143.4180 C   0  0  0  0  0  1  0  0  0  0  0  0
  188.3360  178.5160  147.2270 N   0  0  0  0  0  2  0  0  0  0  0  0
  191.0430  176.5690  146.7810 C   0  0  2  0  0  3  0  0  0  0  0  0
  190.2350  176.9690  148.0340 C   0  0  0  0  0  2  0  0  0  0  0  0
  190.1300  179.3070  148.4680 O   0  0  0  0  0  0  0  0  0  0  0  0
  189.4640  177.8770  141.8350 C   0  0  2  0  0  3  0  0  0  0  0  0
  187.0380  178.6590  141.7240 C   0  0  0  0  0  0  0  0  0  0  0  0
  189.5580  178.3140  147.9500 C   0  0  0  0  0  0  0  0  0  0  0  0
  190.6380  177.6450  144.9750 C   0  0  2  0  0  3  0  0  0  0  0  0
  183.9040  178.4070  145.6220 C   0  0  0  0  0  2  0  0  0  0  0  0
  190.7830  178.3030  142.4890 C   0  0  0  0  0  2  0  0  0  0  0  0
  191.6800  177.7600  146.0710 C   0  0  0  0  0  2  0  0  0  0  0  0
  187.4810  176.3360  147.3100 O   0  0  0  0  0  0  0  0  0  0  0  0
  185.5490  178.6040  143.7270 C   0  0  0  0  0  0  0  0  0  0  0  0
  184.3090  178.9890  144.3440 N   0  0  0  0  0  0  0  0  0  0  0  0
  190.1120  176.3670  145.6020 C   0  0  0  0  0  2  0  0  0  0  0  0
  186.2990  177.8470  145.9350 C   0  0  0  0  0  0  0  0  0  0  0  0
  187.7560  177.4670  143.8100 C   0  0  1  0  0  3  0  0  0  0  0  0
  187.1840  178.8510  140.4870 O   0  0  0  0  0  0  0  0  0  0  0  0
  188.2060  178.3320  142.6090 C   0  0  1  0  0  3  0  0  0  0  0  0
  191.9990  176.5020  143.4040 O   0  0  0  0  0  0  0  0  0  0  0  0
  183.3240  179.7530  143.5970 C   0  0  0  0  0  1  0  0  0  0  0  0
  186.5200  178.0340  144.4750 C   0  0  0  0  0  0  0  0  0  0  0  0
  191.2090  177.4100  143.6130 C   0  0  0  0  0  0  0  0  0  0  0  0
  189.4520  176.5180  141.5000 O   0  0  0  0  0  0  0  0  0  0  0  0
  190.2680  176.4170  140.3730 C   0  0  0  0  0  2  0  0  0  0  0  0
  189.5760  177.0630  139.1910 C   0  0  0  0  0  1  0  0  0  0  0  0
  1  5  1  0  0  0  0
  1 16  2  0  0  0  0
  3 17  1  0  0  0  0
  5 11  1  0  0  0  0
  6 19  1  6  0  0  0
  6  7  1  0  0  0  0
  9 28  1  1  0  0  0
  9 14  1  0  0  0  0
  9 23  1  0  0  0  0
 10  3  1  0  0  0  0
 11  7  1  0  0  0  0
 11  8  2  0  0  0  0
 12 19  1  1  0  0  0
 12 15  1  0  0  0  0
 13  2  1  0  0  0  0
 14 27  1  0  0  0  0
 15  6  1  0  0  0  0
 17 18  1  0  0  0  0
 17 26  2  0  0  0  0
 18 13  1  0  0  0  0
 20  2  2  0  0  0  0
 20  1  1  0  0  0  0
 21  4  1  6  0  0  0
 21 26  1  0  0  0  0
 22 10  2  0  0  0  0
 23 10  1  6  0  0  0
 23 21  1  0  0  0  0
 24 27  2  0  0  0  0
 25 18  1  0  0  0  0
 26 20  1  0  0  0  0
 27 12  1  0  0  0  0
 29 28  1  0  0  0  0
 30 29  1  0  0  0  0
M  END
>  <MODEL>
9

>  <REMARK>
 VINA RESULT:      -5.4      1.838      2.993
  Name = 
  2 active torsions:
  status: ('A' for Active; 'I' for Inactive)
    1  A    between atoms: C_7  and  O_26
    2  A    between atoms: C_10  and  O_26
                            x       y       z     vdW  Elec       q    Type
                         _______ _______ _______ _____ _____    ______ ____

>  <TORSDO>
F 2

$$$$
