=
 OpenBabel10262421103D

 32 37  0  0  1  0  0  0  0  0999 V2000
  187.8240  177.9290  141.2910 N   0  0  1  0  0  0  0  0  0  0  0  0
  188.5900  177.4630  139.0620 C   0  0  1  0  0  3  0  0  0  0  0  0
  187.0080  178.9090  142.0250 C   0  0  0  0  0  2  0  0  0  0  0  0
  187.6690  178.3020  139.8740 C   0  0  1  0  0  3  0  0  0  0  0  0
  188.0980  176.7740  137.8210 C   0  0  2  0  0  3  0  0  0  0  0  0
  192.4560  176.4120  137.6440 S   0  0  0  0  0  0  0  0  0  0  0  0
  190.7110  177.3100  139.6640 C   0  0  2  0  0  3  0  0  0  0  0  0
  190.9070  174.4230  137.2990 C   0  0  0  0  0  2  0  0  0  0  0  0
  190.1000  175.3180  138.1120 N   0  0  2  0  0  0  0  0  0  0  0  0
  186.2320  178.0870  139.3950 C   0  0  2  0  0  3  0  0  0  0  0  0
  189.3220  176.1340  137.1480 C   0  0  0  0  0  2  0  0  0  0  0  0
  186.1150  178.3710  137.8770 C   0  0  0  0  0  2  0  0  0  0  0  0
  185.2980  178.9780  140.2000 C   0  0  0  0  0  2  0  0  0  0  0  0
  190.2120  176.9460  141.0940 C   0  0  0  0  0  2  0  0  0  0  0  0
  189.2440  177.9860  141.7740 C   0  0  2  0  0  3  0  0  0  0  0  0
  189.8180  178.1140  138.9390 O   0  0  0  0  0  0  0  0  0  0  0  0
  187.2670  177.7810  137.0080 C   0  0  2  0  0  3  0  0  0  0  0  0
  185.5220  178.7440  141.6940 C   0  0  0  0  0  2  0  0  0  0  0  0
  191.8890  175.1530  136.5920 O   0  0  0  0  0  0  0  0  0  0  0  0
  191.1430  176.0600  138.8300 C   0  0  1  0  0  3  0  0  0  0  0  0
  190.5160  177.3400  145.4520 C   0  0  0  0  0  0  0  0  0  0  0  0
  191.5450  177.2900  146.1830 O   0  0  0  0  0  0  0  0  0  0  0  0
  189.2960  177.6960  143.2550 C   0  0  0  0  0  0  0  0  0  0  0  0
  189.2020  177.2140  146.0870 C   0  0  0  0  0  3  0  0  0  0  0  0
  188.1380  177.5710  143.9240 C   0  0  0  0  0  3  0  0  0  0  0  0
  190.6380  177.5260  143.9540 C   0  0  1  0  0  3  0  0  0  0  0  0
  191.5590  178.6930  143.6340 C   0  0  0  0  0  1  0  0  0  0  0  0
  188.0760  177.3140  145.3670 C   0  0  0  0  0  0  0  0  0  0  0  0
  185.8310  178.2300  145.8590 C   0  0  0  0  0  1  0  0  0  0  0  0
  186.8190  177.2200  145.9630 O   0  0  0  0  0  0  0  0  0  0  0  0
  186.6740  177.1260  135.7680 C   0  0  0  0  0  2  0  0  0  0  0  0
  186.8690  177.9500  134.6500 O   0  0  0  0  0  1  0  0  0  0  0  0
  1 15  1  0  0  0  0
  1  3  1  1  0  0  0
  2 16  1  6  0  0  0
  2  4  1  0  0  0  0
  4  1  1  0  0  0  0
  5  2  1  0  0  0  0
  6 20  1  0  0  0  0
  7 14  1  0  0  0  0
  8  9  1  0  0  0  0
  9 20  1  0  0  0  0
 10  4  1  0  0  0  0
 10 13  1  0  0  0  0
 11  5  1  0  0  0  0
 11  9  1  0  0  0  0
 12 10  1  0  0  0  0
 13 18  1  0  0  0  0
 14 15  1  0  0  0  0
 15 23  1  0  0  0  0
 16  7  1  0  0  0  0
 17  5  1  0  0  0  0
 17 12  1  0  0  0  0
 18  3  1  0  0  0  0
 19  8  1  0  0  0  0
 19  6  1  0  0  0  0
 20  7  1  0  0  0  0
 21 24  1  0  0  0  0
 21 22  2  0  0  0  0
 23 25  2  0  0  0  0
 23 26  1  0  0  0  0
 25 28  1  0  0  0  0
 26 21  1  0  0  0  0
 27 26  1  0  0  0  0
 28 30  1  0  0  0  0
 28 24  2  0  0  0  0
 29 30  1  0  0  0  0
 31 17  1  0  0  0  0
 32 31  1  0  0  0  0
M  END
>  <MODEL>
1

>  <REMARK>
 VINA RESULT:      -9.2      0.000      0.000
  Name = 
  3 active torsions:
  status: ('A' for Active; 'I' for Inactive)
    1  A    between atoms: C_13  and  C_29
    2  A    between atoms: O_15  and  C_26
    3  A    between atoms: C_16  and  C_27
                            x       y       z     vdW  Elec       q    Type
                         _______ _______ _______ _____ _____    ______ ____

>  <TORSDO>
F 3

$$$$
=
 OpenBabel10262421103D

 32 37  0  0  1  0  0  0  0  0999 V2000
  186.9960  177.8160  140.0730 N   0  0  1  0  0  0  0  0  0  0  0  0
  184.9220  178.6740  140.9310 C   0  0  1  0  0  3  0  0  0  0  0  0
  188.4460  177.9290  140.2960 C   0  0  0  0  0  2  0  0  0  0  0  0
  186.3880  178.5970  141.1650 C   0  0  1  0  0  3  0  0  0  0  0  0
  183.9570  178.3850  142.0440 C   0  0  2  0  0  3  0  0  0  0  0  0
  181.5150  180.1880  138.8900 S   0  0  0  0  0  0  0  0  0  0  0  0
  184.1880  179.3010  138.9430 C   0  0  2  0  0  3  0  0  0  0  0  0
  180.8560  178.0240  140.0570 C   0  0  0  0  0  2  0  0  0  0  0  0
  182.3010  178.0430  140.2120 N   0  0  2  0  0  0  0  0  0  0  0  0
  186.6500  177.9470  142.5260 C   0  0  2  0  0  3  0  0  0  0  0  0
  182.5500  178.7080  141.5140 C   0  0  0  0  0  2  0  0  0  0  0  0
  185.9070  178.7140  143.6480 C   0  0  0  0  0  2  0  0  0  0  0  0
  188.1490  177.9060  142.7800 C   0  0  0  0  0  2  0  0  0  0  0  0
  185.1250  178.2200  138.3270 C   0  0  0  0  0  2  0  0  0  0  0  0
  186.6500  178.3310  138.7050 C   0  0  2  0  0  3  0  0  0  0  0  0
  184.6380  179.8090  140.1700 O   0  0  0  0  0  0  0  0  0  0  0  0
  184.4420  179.1190  143.3060 C   0  0  2  0  0  3  0  0  0  0  0  0
  188.8550  177.2380  141.6000 C   0  0  0  0  0  2  0  0  0  0  0  0
  180.3650  179.3360  139.8730 O   0  0  0  0  0  0  0  0  0  0  0  0
  182.6980  178.8350  139.0420 C   0  0  1  0  0  3  0  0  0  0  0  0
  188.9650  177.3350  135.6700 C   0  0  0  0  0  0  0  0  0  0  0  0
  189.7550  177.7900  134.7950 O   0  0  0  0  0  0  0  0  0  0  0  0
  187.3970  177.5440  137.6560 C   0  0  0  0  0  0  0  0  0  0  0  0
  188.8100  175.8830  135.7820 C   0  0  0  0  0  3  0  0  0  0  0  0
  187.3200  176.2030  137.6840 C   0  0  0  0  0  3  0  0  0  0  0  0
  188.1960  178.2690  136.5810 C   0  0  1  0  0  3  0  0  0  0  0  0
  189.1290  179.2920  137.2080 C   0  0  0  0  0  1  0  0  0  0  0  0
  188.0260  175.3440  136.7270 C   0  0  0  0  0  0  0  0  0  0  0  0
  186.6630  173.3310  137.1850 C   0  0  0  0  0  1  0  0  0  0  0  0
  187.8890  173.9640  136.8600 O   0  0  0  0  0  0  0  0  0  0  0  0
  183.5450  178.8100  144.4970 C   0  0  0  0  0  2  0  0  0  0  0  0
  184.2150  179.1080  145.6930 O   0  0  0  0  0  1  0  0  0  0  0  0
  1  3  1  1  0  0  0
  1  4  1  0  0  0  0
  2 16  1  1  0  0  0
  2  4  1  0  0  0  0
  2  5  1  0  0  0  0
  3 18  1  0  0  0  0
  4 10  1  0  0  0  0
  5 17  1  0  0  0  0
  6 20  1  0  0  0  0
  6 19  1  0  0  0  0
  7 20  1  0  0  0  0
  7 16  1  0  0  0  0
  8  9  1  0  0  0  0
  9 11  1  0  0  0  0
 10 13  1  0  0  0  0
 10 12  1  0  0  0  0
 11  5  1  0  0  0  0
 14 15  1  0  0  0  0
 14  7  1  0  0  0  0
 15  1  1  0  0  0  0
 17 12  1  0  0  0  0
 17 31  1  0  0  0  0
 18 13  1  0  0  0  0
 19  8  1  0  0  0  0
 20  9  1  0  0  0  0
 21 24  1  0  0  0  0
 21 26  1  0  0  0  0
 22 21  2  0  0  0  0
 23 25  2  0  0  0  0
 23 15  1  0  0  0  0
 24 28  2  0  0  0  0
 26 27  1  0  0  0  0
 26 23  1  0  0  0  0
 28 30  1  0  0  0  0
 28 25  1  0  0  0  0
 30 29  1  0  0  0  0
 31 32  1  0  0  0  0
M  END
>  <MODEL>
2

>  <REMARK>
 VINA RESULT:      -8.8      3.563      7.861
  Name = 
  3 active torsions:
  status: ('A' for Active; 'I' for Inactive)
    1  A    between atoms: C_13  and  C_29
    2  A    between atoms: O_15  and  C_26
    3  A    between atoms: C_16  and  C_27
                            x       y       z     vdW  Elec       q    Type
                         _______ _______ _______ _____ _____    ______ ____

>  <TORSDO>
F 3

$$$$
=
 OpenBabel10262421103D

 32 37  0  0  1  0  0  0  0  0999 V2000
  187.2960  177.7960  140.5470 N   0  0  1  0  0  0  0  0  0  0  0  0
  185.1290  178.6300  141.1650 C   0  0  1  0  0  3  0  0  0  0  0  0
  188.7090  177.9170  140.9400 C   0  0  0  0  0  2  0  0  0  0  0  0
  186.5590  178.5600  141.5690 C   0  0  1  0  0  3  0  0  0  0  0  0
  184.0430  178.3220  142.1550 C   0  0  2  0  0  3  0  0  0  0  0  0
  181.9720  180.1420  138.7550 S   0  0  0  0  0  0  0  0  0  0  0  0
  184.6280  179.2730  139.1120 C   0  0  2  0  0  3  0  0  0  0  0  0
  181.1990  177.9610  139.8140 C   0  0  0  0  0  2  0  0  0  0  0  0
  182.6160  177.9880  140.1380 N   0  0  2  0  0  0  0  0  0  0  0  0
  186.6650  177.8980  142.9440 C   0  0  2  0  0  3  0  0  0  0  0  0
  182.7060  178.6410  141.4670 C   0  0  0  0  0  2  0  0  0  0  0  0
  185.7890  178.6470  143.9790 C   0  0  0  0  0  2  0  0  0  0  0  0
  188.1240  177.8640  143.3720 C   0  0  0  0  0  2  0  0  0  0  0  0
  185.6400  178.2060  138.5980 C   0  0  0  0  0  2  0  0  0  0  0  0
  187.1090  178.3240  139.1540 C   0  0  2  0  0  3  0  0  0  0  0  0
  184.9270  179.7710  140.3880 O   0  0  0  0  0  0  0  0  0  0  0  0
  184.3710  179.0450  143.4720 C   0  0  2  0  0  3  0  0  0  0  0  0
  188.9690  177.2150  142.2760 C   0  0  0  0  0  2  0  0  0  0  0  0
  180.7230  179.2720  139.5880 O   0  0  0  0  0  0  0  0  0  0  0  0
  183.1410  178.7960  139.0310 C   0  0  1  0  0  3  0  0  0  0  0  0
  188.7610  176.9050  135.8640 C   0  0  0  0  0  0  0  0  0  0  0  0
  188.7550  176.9810  134.6030 O   0  0  0  0  0  0  0  0  0  0  0  0
  187.9800  177.5540  138.1920 C   0  0  0  0  0  0  0  0  0  0  0  0
  189.7780  176.0700  136.5090 C   0  0  0  0  0  3  0  0  0  0  0  0
  188.9470  176.7670  138.6910 C   0  0  0  0  0  3  0  0  0  0  0  0
  187.7400  177.6580  136.6910 C   0  0  1  0  0  3  0  0  0  0  0  0
  187.6730  179.1140  136.2600 C   0  0  0  0  0  1  0  0  0  0  0  0
  189.8640  175.9960  137.8440 C   0  0  0  0  0  0  0  0  0  0  0  0
  192.0180  174.7790  137.8150 C   0  0  0  0  0  1  0  0  0  0  0  0
  190.8420  175.2240  138.4690 O   0  0  0  0  0  0  0  0  0  0  0  0
  183.3440  178.7170  144.5470 C   0  0  0  0  0  2  0  0  0  0  0  0
  183.8700  178.9980  145.8170 O   0  0  0  0  0  1  0  0  0  0  0  0
  1  3  1  1  0  0  0
  1  4  1  0  0  0  0
  2 16  1  1  0  0  0
  2  4  1  0  0  0  0
  2  5  1  0  0  0  0
  3 18  1  0  0  0  0
  4 10  1  0  0  0  0
  5 17  1  0  0  0  0
  6 20  1  0  0  0  0
  6 19  1  0  0  0  0
  7 16  1  0  0  0  0
  8  9  1  0  0  0  0
  9 11  1  0  0  0  0
 10 13  1  0  0  0  0
 10 12  1  0  0  0  0
 11  5  1  0  0  0  0
 14  7  1  0  0  0  0
 14 15  1  0  0  0  0
 15  1  1  0  0  0  0
 17 12  1  0  0  0  0
 17 31  1  0  0  0  0
 18 13  1  0  0  0  0
 19  8  1  0  0  0  0
 20  7  1  0  0  0  0
 20  9  1  0  0  0  0
 21 24  1  0  0  0  0
 21 26  1  0  0  0  0
 22 21  2  0  0  0  0
 23 25  2  0  0  0  0
 23 15  1  0  0  0  0
 24 28  2  0  0  0  0
 26 23  1  0  0  0  0
 27 26  1  0  0  0  0
 28 30  1  0  0  0  0
 28 25  1  0  0  0  0
 29 30  1  0  0  0  0
 31 32  1  0  0  0  0
M  END
>  <MODEL>
3

>  <REMARK>
 VINA RESULT:      -8.2      3.248      7.713
  Name = 
  3 active torsions:
  status: ('A' for Active; 'I' for Inactive)
    1  A    between atoms: C_13  and  C_29
    2  A    between atoms: O_15  and  C_26
    3  A    between atoms: C_16  and  C_27
                            x       y       z     vdW  Elec       q    Type
                         _______ _______ _______ _____ _____    ______ ____

>  <TORSDO>
F 3

$$$$
=
 OpenBabel10262421103D

 32 37  0  0  1  0  0  0  0  0999 V2000
  185.4450  178.3400  144.0690 N   0  0  1  0  0  0  0  0  0  0  0  0
  187.6720  177.6920  144.6980 C   0  0  1  0  0  3  0  0  0  0  0  0
  184.0510  178.1700  144.5090 C   0  0  0  0  0  2  0  0  0  0  0  0
  186.2500  177.7120  145.1320 C   0  0  1  0  0  3  0  0  0  0  0  0
  188.7590  178.1480  145.6290 C   0  0  2  0  0  3  0  0  0  0  0  0
  190.8630  176.1660  142.3420 S   0  0  0  0  0  0  0  0  0  0  0  0
  188.1670  176.9040  142.6940 C   0  0  2  0  0  3  0  0  0  0  0  0
  191.5240  178.4720  143.1900 C   0  0  0  0  0  2  0  0  0  0  0  0
  190.1190  178.3900  143.5530 N   0  0  2  0  0  0  0  0  0  0  0  0
  186.1330  178.4840  146.4480 C   0  0  2  0  0  3  0  0  0  0  0  0
  190.0980  177.8510  144.9350 C   0  0  0  0  0  2  0  0  0  0  0  0
  187.0750  177.8810  147.5200 C   0  0  0  0  0  2  0  0  0  0  0  0
  184.6840  178.4680  146.9110 C   0  0  0  0  0  2  0  0  0  0  0  0
  187.0810  177.8610  142.1190 C   0  0  0  0  0  2  0  0  0  0  0  0
  185.6340  177.7050  142.7210 C   0  0  2  0  0  3  0  0  0  0  0  0
  187.9270  176.5020  144.0160 O   0  0  0  0  0  0  0  0  0  0  0  0
  188.5040  177.5240  147.0110 C   0  0  2  0  0  3  0  0  0  0  0  0
  183.7770  178.9690  145.7860 C   0  0  0  0  0  2  0  0  0  0  0  0
  192.0750  177.1770  143.0640 O   0  0  0  0  0  0  0  0  0  0  0  0
  189.6200  177.4600  142.5330 C   0  0  1  0  0  3  0  0  0  0  0  0
  184.1890  179.6660  139.6180 C   0  0  0  0  0  0  0  0  0  0  0  0
  184.5060  180.2990  138.5720 O   0  0  0  0  0  0  0  0  0  0  0  0
  184.6970  178.3360  141.7210 C   0  0  0  0  0  0  0  0  0  0  0  0
  182.7710  179.4020  139.8720 C   0  0  0  0  0  3  0  0  0  0  0  0
  183.3760  178.1420  141.8680 C   0  0  0  0  0  3  0  0  0  0  0  0
  185.2500  179.1930  140.5890 C   0  0  1  0  0  3  0  0  0  0  0  0
  186.3570  178.4550  139.8530 C   0  0  0  0  0  1  0  0  0  0  0  0
  182.3820  178.6890  140.9380 C   0  0  0  0  0  0  0  0  0  0  0  0
  180.4100  178.6210  142.4310 C   0  0  0  0  0  1  0  0  0  0  0  0
  181.0370  178.4100  141.1770 O   0  0  0  0  0  0  0  0  0  0  0  0
  189.5320  178.0050  148.0260 C   0  0  0  0  0  2  0  0  0  0  0  0
  188.9000  178.3150  149.2400 O   0  0  0  0  0  1  0  0  0  0  0  0
  1  3  1  1  0  0  0
  1  4  1  0  0  0  0
  2 16  1  1  0  0  0
  2  4  1  0  0  0  0
  2  5  1  0  0  0  0
  3 18  1  0  0  0  0
  4 10  1  0  0  0  0
  5 17  1  0  0  0  0
  6 20  1  0  0  0  0
  6 19  1  0  0  0  0
  7 16  1  0  0  0  0
  8  9  1  0  0  0  0
  9 11  1  0  0  0  0
 10 13  1  0  0  0  0
 10 12  1  0  0  0  0
 11  5  1  0  0  0  0
 14  7  1  0  0  0  0
 14 15  1  0  0  0  0
 15  1  1  0  0  0  0
 17 12  1  0  0  0  0
 17 31  1  0  0  0  0
 18 13  1  0  0  0  0
 19  8  1  0  0  0  0
 20  7  1  0  0  0  0
 20  9  1  0  0  0  0
 21 24  1  0  0  0  0
 21 26  1  0  0  0  0
 22 21  2  0  0  0  0
 23 25  2  0  0  0  0
 23 15  1  0  0  0  0
 24 28  2  0  0  0  0
 26 23  1  0  0  0  0
 27 26  1  0  0  0  0
 28 30  1  0  0  0  0
 28 25  1  0  0  0  0
 30 29  1  0  0  0  0
 31 32  1  0  0  0  0
M  END
>  <MODEL>
4

>  <REMARK>
 VINA RESULT:      -8.1      3.237      7.350
  Name = 
  3 active torsions:
  status: ('A' for Active; 'I' for Inactive)
    1  A    between atoms: C_13  and  C_29
    2  A    between atoms: O_15  and  C_26
    3  A    between atoms: C_16  and  C_27
                            x       y       z     vdW  Elec       q    Type
                         _______ _______ _______ _____ _____    ______ ____

>  <TORSDO>
F 3

$$$$
=
 OpenBabel10262421103D

 32 37  0  0  1  0  0  0  0  0999 V2000
  186.2110  178.1190  139.8880 N   0  0  1  0  0  0  0  0  0  0  0  0
  188.5460  177.8160  140.3680 C   0  0  1  0  0  3  0  0  0  0  0  0
  185.3340  178.7200  138.8700 C   0  0  0  0  0  2  0  0  0  0  0  0
  187.5700  178.2530  139.3340 C   0  0  1  0  0  3  0  0  0  0  0  0
  189.6560  176.8680  140.0150 C   0  0  2  0  0  3  0  0  0  0  0  0
  190.7100  178.3940  143.9800 S   0  0  0  0  0  0  0  0  0  0  0  0
  188.3850  178.6450  142.4100 C   0  0  2  0  0  3  0  0  0  0  0  0
  190.7200  175.9100  143.4280 C   0  0  0  0  0  2  0  0  0  0  0  0
  189.7670  176.4450  142.4700 N   0  0  2  0  0  0  0  0  0  0  0  0
  187.7470  177.3980  138.0780 C   0  0  2  0  0  3  0  0  0  0  0  0
  190.5590  176.7530  141.2540 C   0  0  0  0  0  2  0  0  0  0  0  0
  189.2120  177.4580  137.5780 C   0  0  0  0  0  2  0  0  0  0  0  0
  186.7750  177.8740  137.0080 C   0  0  0  0  0  2  0  0  0  0  0  0
  186.8800  178.2410  142.3870 C   0  0  0  0  0  2  0  0  0  0  0  0
  186.0260  178.8250  141.2000 C   0  0  2  0  0  3  0  0  0  0  0  0
  188.9190  178.9150  141.1410 O   0  0  0  0  0  0  0  0  0  0  0  0
  190.2910  177.3390  138.6960 C   0  0  2  0  0  3  0  0  0  0  0  0
  185.3560  177.9030  137.5760 C   0  0  0  0  0  2  0  0  0  0  0  0
  191.6160  176.9190  143.8460 O   0  0  0  0  0  0  0  0  0  0  0  0
  189.2800  177.6280  143.1900 C   0  0  1  0  0  3  0  0  0  0  0  0
  182.7500  178.6510  143.3900 C   0  0  0  0  0  0  0  0  0  0  0  0
  182.3090  178.6890  144.5730 O   0  0  0  0  0  0  0  0  0  0  0  0
  184.5850  178.7280  141.6370 C   0  0  0  0  0  0  0  0  0  0  0  0
  181.7860  178.6150  142.2870 C   0  0  0  0  0  3  0  0  0  0  0  0
  183.6290  178.6960  140.6940 C   0  0  0  0  0  3  0  0  0  0  0  0
  184.2390  178.6420  143.1180 C   0  0  1  0  0  3  0  0  0  0  0  0
  184.9310  179.7530  143.8930 C   0  0  0  0  0  1  0  0  0  0  0  0
  182.1980  178.6270  141.0120 C   0  0  0  0  0  0  0  0  0  0  0  0
  181.5850  179.1470  138.6720 C   0  0  0  0  0  1  0  0  0  0  0  0
  181.2920  178.6170  139.9530 O   0  0  0  0  0  0  0  0  0  0  0  0
  191.3800  176.3780  138.2400 C   0  0  0  0  0  2  0  0  0  0  0  0
  190.9220  175.0550  138.3280 O   0  0  0  0  0  1  0  0  0  0  0  0
  1  3  1  6  0  0  0
  1 15  1  0  0  0  0
  2 16  1  6  0  0  0
  4  1  1  0  0  0  0
  4  2  1  0  0  0  0
  5  2  1  0  0  0  0
  5 11  1  0  0  0  0
  7 20  1  0  0  0  0
  8 19  1  0  0  0  0
  9 20  1  0  0  0  0
  9  8  1  0  0  0  0
 10  4  1  0  0  0  0
 11  9  1  0  0  0  0
 12 10  1  0  0  0  0
 12 17  1  0  0  0  0
 13 18  1  0  0  0  0
 13 10  1  0  0  0  0
 14  7  1  0  0  0  0
 15 23  1  0  0  0  0
 15 14  1  0  0  0  0
 16  7  1  0  0  0  0
 17  5  1  0  0  0  0
 18  3  1  0  0  0  0
 19  6  1  0  0  0  0
 20  6  1  0  0  0  0
 21 22  2  0  0  0  0
 23 26  1  0  0  0  0
 24 21  1  0  0  0  0
 25 28  1  0  0  0  0
 25 23  2  0  0  0  0
 26 21  1  0  0  0  0
 26 27  1  0  0  0  0
 28 24  2  0  0  0  0
 29 30  1  0  0  0  0
 30 28  1  0  0  0  0
 31 32  1  0  0  0  0
 31 17  1  0  0  0  0
M  END
>  <MODEL>
5

>  <REMARK>
 VINA RESULT:      -7.8      2.737      5.517
  Name = 
  3 active torsions:
  status: ('A' for Active; 'I' for Inactive)
    1  A    between atoms: C_13  and  C_29
    2  A    between atoms: O_15  and  C_26
    3  A    between atoms: C_16  and  C_27
                            x       y       z     vdW  Elec       q    Type
                         _______ _______ _______ _____ _____    ______ ____

>  <TORSDO>
F 3

$$$$
=
 OpenBabel10262421103D

 32 37  0  0  1  0  0  0  0  0999 V2000
  185.1030  178.1640  139.8120 N   0  0  1  0  0  0  0  0  0  0  0  0
  186.5180  178.4160  141.7380 C   0  0  1  0  0  3  0  0  0  0  0  0
  185.0410  178.5550  138.3950 C   0  0  0  0  0  2  0  0  0  0  0  0
  186.4270  178.6240  140.2680 C   0  0  1  0  0  3  0  0  0  0  0  0
  187.7290  177.7630  142.3400 C   0  0  2  0  0  3  0  0  0  0  0  0
  185.5530  179.4390  145.7480 S   0  0  0  0  0  0  0  0  0  0  0  0
  184.8830  179.1540  143.0270 C   0  0  2  0  0  3  0  0  0  0  0  0
  186.3890  177.0360  145.7120 C   0  0  0  0  0  2  0  0  0  0  0  0
  186.2450  177.3440  144.2990 N   0  0  2  0  0  0  0  0  0  0  0  0
  187.5530  177.8540  139.5760 C   0  0  2  0  0  3  0  0  0  0  0  0
  187.5720  177.8470  143.8670 C   0  0  0  0  0  2  0  0  0  0  0  0
  188.9300  178.2660  140.1520 C   0  0  0  0  0  2  0  0  0  0  0  0
  187.4820  178.1010  138.0770 C   0  0  0  0  0  2  0  0  0  0  0  0
  183.8900  178.4060  142.0880 C   0  0  0  0  0  2  0  0  0  0  0  0
  183.9610  178.7880  140.5620 C   0  0  2  0  0  3  0  0  0  0  0  0
  186.0660  179.5620  142.3930 O   0  0  0  0  0  0  0  0  0  0  0  0
  188.9820  178.3900  141.7040 C   0  0  2  0  0  3  0  0  0  0  0  0
  186.0750  177.7850  137.5680 C   0  0  0  0  0  2  0  0  0  0  0  0
  186.5680  178.2220  146.4580 O   0  0  0  0  0  0  0  0  0  0  0  0
  185.1940  178.3670  144.3420 C   0  0  1  0  0  3  0  0  0  0  0  0
  180.3920  178.7770  138.8830 C   0  0  0  0  0  0  0  0  0  0  0  0
  179.4870  179.5160  138.4010 O   0  0  0  0  0  0  0  0  0  0  0  0
  182.6490  178.3460  139.9610 C   0  0  0  0  0  0  0  0  0  0  0  0
  180.2400  177.3240  138.7710 C   0  0  0  0  0  3  0  0  0  0  0  0
  182.4230  177.0300  139.8120 C   0  0  0  0  0  3  0  0  0  0  0  0
  181.6050  179.3790  139.5600 C   0  0  1  0  0  3  0  0  0  0  0  0
  182.2260  180.4560  138.6850 C   0  0  0  0  0  1  0  0  0  0  0  0
  181.1940  176.4950  139.2170 C   0  0  0  0  0  0  0  0  0  0  0  0
  179.8560  174.4160  139.3090 C   0  0  0  0  0  1  0  0  0  0  0  0
  181.0720  175.1120  139.0950 O   0  0  0  0  0  0  0  0  0  0  0  0
  190.2490  177.7210  142.2190 C   0  0  0  0  0  2  0  0  0  0  0  0
  190.2060  176.3440  141.9560 O   0  0  0  0  0  1  0  0  0  0  0  0
  1  3  1  6  0  0  0
  1  4  1  0  0  0  0
  1 15  1  0  0  0  0
  2  5  1  0  0  0  0
  2 16  1  1  0  0  0
  4  2  1  0  0  0  0
  5 11  1  0  0  0  0
  6 19  1  0  0  0  0
  7 20  1  0  0  0  0
  8 19  1  0  0  0  0
  9 20  1  0  0  0  0
  9  8  1  0  0  0  0
 10 12  1  0  0  0  0
 10  4  1  0  0  0  0
 11  9  1  0  0  0  0
 12 17  1  0  0  0  0
 13 10  1  0  0  0  0
 14  7  1  0  0  0  0
 15 14  1  0  0  0  0
 16  7  1  0  0  0  0
 17 31  1  0  0  0  0
 17  5  1  0  0  0  0
 18 13  1  0  0  0  0
 18  3  1  0  0  0  0
 20  6  1  0  0  0  0
 21 26  1  0  0  0  0
 22 21  2  0  0  0  0
 23 15  1  0  0  0  0
 24 21  1  0  0  0  0
 24 28  2  0  0  0  0
 25 23  2  0  0  0  0
 26 23  1  0  0  0  0
 27 26  1  0  0  0  0
 28 25  1  0  0  0  0
 30 28  1  0  0  0  0
 30 29  1  0  0  0  0
 32 31  1  0  0  0  0
M  END
>  <MODEL>
6

>  <REMARK>
 VINA RESULT:      -7.7      3.994      7.942
  Name = 
  3 active torsions:
  status: ('A' for Active; 'I' for Inactive)
    1  A    between atoms: C_13  and  C_29
    2  A    between atoms: O_15  and  C_26
    3  A    between atoms: C_16  and  C_27
                            x       y       z     vdW  Elec       q    Type
                         _______ _______ _______ _____ _____    ______ ____

>  <TORSDO>
F 3

$$$$
=
 OpenBabel10262421103D

 32 37  0  0  1  0  0  0  0  0999 V2000
  186.6070  178.0430  143.1100 N   0  0  1  0  0  0  0  0  0  0  0  0
  184.4350  178.6120  142.2550 C   0  0  1  0  0  3  0  0  0  0  0  0
  187.5170  178.3940  144.2110 C   0  0  0  0  0  2  0  0  0  0  0  0
  185.3650  178.7780  143.4040 C   0  0  1  0  0  3  0  0  0  0  0  0
  182.9990  178.2380  142.4870 C   0  0  2  0  0  3  0  0  0  0  0  0
  183.1730  179.4550  138.2860 S   0  0  0  0  0  0  0  0  0  0  0  0
  185.1780  179.0020  140.2110 C   0  0  2  0  0  3  0  0  0  0  0  0
  182.0750  177.2840  139.0320 C   0  0  0  0  0  2  0  0  0  0  0  0
  183.0350  177.5380  140.0940 N   0  0  2  0  0  0  0  0  0  0  0  0
  184.6960  178.2560  144.6770 C   0  0  2  0  0  3  0  0  0  0  0  0
  182.2920  178.3060  141.1230 C   0  0  0  0  0  2  0  0  0  0  0  0
  183.3350  178.9580  144.9060 C   0  0  0  0  0  2  0  0  0  0  0  0
  185.6340  178.4640  145.8570 C   0  0  0  0  0  2  0  0  0  0  0  0
  186.3680  178.0490  140.5300 C   0  0  0  0  0  2  0  0  0  0  0  0
  187.2290  178.4190  141.7960 C   0  0  2  0  0  3  0  0  0  0  0  0
  184.6460  179.6440  141.3400 O   0  0  0  0  0  0  0  0  0  0  0  0
  182.4520  179.1090  143.6310 C   0  0  2  0  0  3  0  0  0  0  0  0
  186.9990  177.8510  145.5450 C   0  0  0  0  0  2  0  0  0  0  0  0
  181.7330  178.4910  138.3820 O   0  0  0  0  0  0  0  0  0  0  0  0
  184.0500  178.3150  139.3740 C   0  0  1  0  0  3  0  0  0  0  0  0
  190.4470  176.7530  140.2360 C   0  0  0  0  0  0  0  0  0  0  0  0
  191.0580  176.5270  139.1530 O   0  0  0  0  0  0  0  0  0  0  0  0
  188.5460  177.7010  141.6270 C   0  0  0  0  0  0  0  0  0  0  0  0
  191.1010  176.3890  141.4960 C   0  0  0  0  0  3  0  0  0  0  0  0
  189.2230  177.3350  142.7270 C   0  0  0  0  0  3  0  0  0  0  0  0
  189.0700  177.3830  140.2320 C   0  0  1  0  0  3  0  0  0  0  0  0
  189.0550  178.6280  139.3590 C   0  0  0  0  0  1  0  0  0  0  0  0
  190.5220  176.6550  142.6750 C   0  0  0  0  0  0  0  0  0  0  0  0
  191.1660  177.2060  144.9990 C   0  0  0  0  0  1  0  0  0  0  0  0
  191.1450  176.3370  143.8800 O   0  0  0  0  0  0  0  0  0  0  0  0
  181.0160  178.7300  143.9680 C   0  0  0  0  0  2  0  0  0  0  0  0
  180.1350  179.7050  143.4760 O   0  0  0  0  0  1  0  0  0  0  0  0
  1  4  1  0  0  0  0
  1  3  1  1  0  0  0
  2 16  1  1  0  0  0
  2  5  1  0  0  0  0
  2  4  1  0  0  0  0
  3 18  1  0  0  0  0
  4 10  1  0  0  0  0
  5 17  1  0  0  0  0
  6 19  1  0  0  0  0
  6 20  1  0  0  0  0
  7 14  1  0  0  0  0
  7 16  1  0  0  0  0
  8  9  1  0  0  0  0
  9 11  1  0  0  0  0
 10 12  1  0  0  0  0
 10 13  1  0  0  0  0
 11  5  1  0  0  0  0
 14 15  1  0  0  0  0
 15  1  1  0  0  0  0
 17 31  1  0  0  0  0
 17 12  1  0  0  0  0
 18 13  1  0  0  0  0
 19  8  1  0  0  0  0
 20  9  1  0  0  0  0
 20  7  1  0  0  0  0
 21 24  1  0  0  0  0
 22 21  2  0  0  0  0
 23 15  1  0  0  0  0
 23 25  2  0  0  0  0
 24 28  2  0  0  0  0
 26 21  1  0  0  0  0
 26 23  1  0  0  0  0
 27 26  1  0  0  0  0
 28 25  1  0  0  0  0
 28 30  1  0  0  0  0
 30 29  1  0  0  0  0
 32 31  1  0  0  0  0
M  END
>  <MODEL>
7

>  <REMARK>
 VINA RESULT:      -7.5      3.389      6.460
  Name = 
  3 active torsions:
  status: ('A' for Active; 'I' for Inactive)
    1  A    between atoms: C_13  and  C_29
    2  A    between atoms: O_15  and  C_26
    3  A    between atoms: C_16  and  C_27
                            x       y       z     vdW  Elec       q    Type
                         _______ _______ _______ _____ _____    ______ ____

>  <TORSDO>
F 3

$$$$
=
 OpenBabel10262421103D

 32 37  0  0  1  0  0  0  0  0999 V2000
  186.4950  178.1190  142.5100 N   0  0  1  0  0  0  0  0  0  0  0  0
  186.3600  178.1940  140.1120 C   0  0  1  0  0  3  0  0  0  0  0  0
  185.9600  178.8060  143.6950 C   0  0  0  0  0  2  0  0  0  0  0  0
  185.7700  178.7140  141.3740 C   0  0  1  0  0  3  0  0  0  0  0  0
  185.4760  177.6740  139.0150 C   0  0  2  0  0  3  0  0  0  0  0  0
  189.4310  178.0480  137.1770 S   0  0  0  0  0  0  0  0  0  0  0  0
  188.5520  178.2740  139.8430 C   0  0  2  0  0  3  0  0  0  0  0  0
  188.0280  175.9350  136.9760 C   0  0  0  0  0  2  0  0  0  0  0  0
  187.5380  176.5260  138.2100 N   0  0  2  0  0  0  0  0  0  0  0  0
  184.2810  178.3640  141.4180 C   0  0  2  0  0  3  0  0  0  0  0  0
  186.3840  177.3700  137.8130 C   0  0  0  0  0  2  0  0  0  0  0  0
  183.5570  178.8980  140.1570 C   0  0  0  0  0  2  0  0  0  0  0  0
  183.6710  178.9330  142.6910 C   0  0  0  0  0  2  0  0  0  0  0  0
  188.6840  177.5810  141.2330 C   0  0  0  0  0  2  0  0  0  0  0  0
  187.9830  178.3120  142.4390 C   0  0  2  0  0  3  0  0  0  0  0  0
  187.3880  179.0440  139.7010 O   0  0  0  0  0  0  0  0  0  0  0  0
  184.3180  178.6660  138.8170 C   0  0  2  0  0  3  0  0  0  0  0  0
  184.4800  178.4690  143.9030 C   0  0  0  0  0  2  0  0  0  0  0  0
  188.5960  176.9280  136.1470 O   0  0  0  0  0  0  0  0  0  0  0  0
  188.7180  177.2820  138.6460 C   0  0  1  0  0  3  0  0  0  0  0  0
  190.6050  176.8650  145.0060 C   0  0  0  0  0  0  0  0  0  0  0  0
  191.8150  176.5370  145.1540 O   0  0  0  0  0  0  0  0  0  0  0  0
  188.6320  177.7690  143.6880 C   0  0  0  0  0  0  0  0  0  0  0  0
  189.7240  176.8300  146.1770 C   0  0  0  0  0  3  0  0  0  0  0  0
  187.9030  177.7060  144.8140 C   0  0  0  0  0  3  0  0  0  0  0  0
  190.0750  177.2830  143.6510 C   0  0  1  0  0  3  0  0  0  0  0  0
  190.9770  178.3360  143.0270 C   0  0  0  0  0  1  0  0  0  0  0  0
  188.4440  177.2190  146.0880 C   0  0  0  0  0  0  0  0  0  0  0  0
  187.9470  177.8070  148.4390 C   0  0  0  0  0  1  0  0  0  0  0  0
  187.6020  177.2140  147.1990 O   0  0  0  0  0  0  0  0  0  0  0  0
  183.3400  178.1620  137.7660 C   0  0  0  0  0  2  0  0  0  0  0  0
  182.1030  178.8090  137.9110 O   0  0  0  0  0  1  0  0  0  0  0  0
  1  3  1  1  0  0  0
  2 16  1  6  0  0  0
  2  4  1  0  0  0  0
  3 18  1  0  0  0  0
  4 10  1  0  0  0  0
  4  1  1  0  0  0  0
  5  2  1  0  0  0  0
  6 20  1  0  0  0  0
  7 14  1  0  0  0  0
  8  9  1  0  0  0  0
  9 20  1  0  0  0  0
 10 13  1  0  0  0  0
 11  9  1  0  0  0  0
 11  5  1  0  0  0  0
 12 10  1  0  0  0  0
 13 18  1  0  0  0  0
 14 15  1  0  0  0  0
 15  1  1  0  0  0  0
 15 23  1  0  0  0  0
 16  7  1  0  0  0  0
 17  5  1  0  0  0  0
 17 12  1  0  0  0  0
 19  8  1  0  0  0  0
 19  6  1  0  0  0  0
 20  7  1  0  0  0  0
 21 22  2  0  0  0  0
 21 24  1  0  0  0  0
 23 25  2  0  0  0  0
 25 28  1  0  0  0  0
 26 23  1  0  0  0  0
 26 21  1  0  0  0  0
 27 26  1  0  0  0  0
 28 24  2  0  0  0  0
 28 30  1  0  0  0  0
 30 29  1  0  0  0  0
 31 32  1  0  0  0  0
 31 17  1  0  0  0  0
M  END
>  <MODEL>
8

>  <REMARK>
 VINA RESULT:      -7.5      1.960      2.664
  Name = 
  3 active torsions:
  status: ('A' for Active; 'I' for Inactive)
    1  A    between atoms: C_13  and  C_29
    2  A    between atoms: O_15  and  C_26
    3  A    between atoms: C_16  and  C_27
                            x       y       z     vdW  Elec       q    Type
                         _______ _______ _______ _____ _____    ______ ____

>  <TORSDO>
F 3

$$$$
=
 OpenBabel10262421103D

 32 37  0  0  1  0  0  0  0  0999 V2000
  188.2710  177.9260  143.1840 N   0  0  1  0  0  0  0  0  0  0  0  0
  189.3540  177.6110  141.0620 C   0  0  1  0  0  3  0  0  0  0  0  0
  188.2960  177.3950  144.5570 C   0  0  0  0  0  2  0  0  0  0  0  0
  189.3960  177.2580  142.5060 C   0  0  1  0  0  3  0  0  0  0  0  0
  190.5980  178.0640  140.3530 C   0  0  2  0  0  3  0  0  0  0  0  0
  187.7110  177.2820  137.1570 S   0  0  0  0  0  0  0  0  0  0  0  0
  187.4530  177.3820  139.9600 C   0  0  2  0  0  3  0  0  0  0  0  0
  189.0560  179.4390  137.2820 C   0  0  0  0  0  2  0  0  0  0  0  0
  189.0180  179.0060  138.6690 N   0  0  2  0  0  0  0  0  0  0  0  0
  190.7390  177.6930  143.0950 C   0  0  2  0  0  3  0  0  0  0  0  0
  190.2430  178.1920  138.8630 C   0  0  0  0  0  2  0  0  0  0  0  0
  191.9120  177.0730  142.2950 C   0  0  0  0  0  2  0  0  0  0  0  0
  190.7960  177.2940  144.5620 C   0  0  0  0  0  2  0  0  0  0  0  0
  186.7700  178.2060  141.0920 C   0  0  0  0  0  2  0  0  0  0  0  0
  186.9380  177.6440  142.5540 C   0  0  2  0  0  3  0  0  0  0  0  0
  188.5840  176.6680  140.3810 O   0  0  0  0  0  0  0  0  0  0  0  0
  191.7480  177.1220  140.7470 C   0  0  2  0  0  3  0  0  0  0  0  0
  189.5650  177.8340  145.2920 C   0  0  0  0  0  2  0  0  0  0  0  0
  188.8760  178.3360  136.4180 O   0  0  0  0  0  0  0  0  0  0  0  0
  187.7690  178.2350  138.6880 C   0  0  1  0  0  3  0  0  0  0  0  0
  183.5670  179.3750  143.6470 C   0  0  0  0  0  0  0  0  0  0  0  0
  182.4550  179.8040  143.2270 O   0  0  0  0  0  0  0  0  0  0  0  0
  185.8380  178.2760  143.3720 C   0  0  0  0  0  0  0  0  0  0  0  0
  183.8150  179.3770  145.0910 C   0  0  0  0  0  3  0  0  0  0  0  0
  185.9740  178.3160  144.7070 C   0  0  0  0  0  3  0  0  0  0  0  0
  184.6190  178.8740  142.6820 C   0  0  1  0  0  3  0  0  0  0  0  0
  184.0160  177.8770  141.7050 C   0  0  0  0  0  1  0  0  0  0  0  0
  184.9550  178.8850  145.5950 C   0  0  0  0  0  0  0  0  0  0  0  0
  186.4720  178.6270  147.5330 C   0  0  0  0  0  1  0  0  0  0  0  0
  185.1930  178.8580  146.9680 O   0  0  0  0  0  0  0  0  0  0  0  0
  193.0600  177.5690  140.1170 C   0  0  0  0  0  2  0  0  0  0  0  0
  193.3920  176.7240  139.0470 O   0  0  0  0  0  1  0  0  0  0  0  0
  1  3  1  1  0  0  0
  2 16  1  6  0  0  0
  2  4  1  0  0  0  0
  3 18  1  0  0  0  0
  4 10  1  0  0  0  0
  4  1  1  0  0  0  0
  5 17  1  0  0  0  0
  5  2  1  0  0  0  0
  6 20  1  0  0  0  0
  7 16  1  0  0  0  0
  7 14  1  0  0  0  0
  8  9  1  0  0  0  0
  9 20  1  0  0  0  0
  9 11  1  0  0  0  0
 10 13  1  0  0  0  0
 11  5  1  0  0  0  0
 12 10  1  0  0  0  0
 13 18  1  0  0  0  0
 14 15  1  0  0  0  0
 15  1  1  0  0  0  0
 15 23  1  0  0  0  0
 17 12  1  0  0  0  0
 19  6  1  0  0  0  0
 19  8  1  0  0  0  0
 20  7  1  0  0  0  0
 21 24  1  0  0  0  0
 22 21  2  0  0  0  0
 23 25  2  0  0  0  0
 24 28  2  0  0  0  0
 25 28  1  0  0  0  0
 26 23  1  0  0  0  0
 26 21  1  0  0  0  0
 27 26  1  0  0  0  0
 28 30  1  0  0  0  0
 30 29  1  0  0  0  0
 31 17  1  0  0  0  0
 32 31  1  0  0  0  0
M  END
>  <MODEL>
9

>  <REMARK>
 VINA RESULT:      -7.2      2.425      5.150
  Name = 
  3 active torsions:
  status: ('A' for Active; 'I' for Inactive)
    1  A    between atoms: C_13  and  C_29
    2  A    between atoms: O_15  and  C_26
    3  A    between atoms: C_16  and  C_27
                            x       y       z     vdW  Elec       q    Type
                         _______ _______ _______ _____ _____    ______ ____

>  <TORSDO>
F 3

$$$$
