=
 OpenBabel10262419483D

 25 29  0  0  1  0  0  0  0  0999 V2000
  189.5900  177.4530  144.0580 C   0  0  0  0  0  0  0  0  0  0  0  0
  189.1110  177.6850  142.7550 C   0  0  0  0  0  0  0  0  0  0  0  0
  191.7680  176.8700  143.1570 C   0  0  0  0  0  3  0  0  0  0  0  0
  188.9080  177.5710  145.2840 C   0  0  0  0  0  0  0  0  0  0  0  0
  187.9010  177.6900  147.8880 C   0  0  0  0  0  3  0  0  0  0  0  0
  191.2950  177.0990  141.9010 N   0  0  0  0  0  0  0  0  0  0  0  0
  189.7130  177.2570  146.3780 C   0  0  0  0  0  0  0  0  0  0  0  0
  189.2350  177.3080  147.6850 C   0  0  0  0  0  3  0  0  0  0  0  0
  189.5520  177.7250  140.3650 C   0  0  0  0  0  0  0  0  0  0  0  0
  190.4250  177.5510  139.2530 N   0  0  0  0  0  1  0  0  0  0  0  0
  187.7980  178.0920  142.4950 C   0  0  0  0  0  3  0  0  0  0  0  0
  187.0770  178.0100  146.7940 C   0  0  0  0  0  3  0  0  0  0  0  0
  190.9110  177.0500  144.2370 C   0  0  0  0  0  0  0  0  0  0  0  0
  191.2610  176.8330  145.8710 S   0  0  0  0  0  0  0  0  0  0  0  0
  188.2680  178.1210  140.1530 N   0  0  0  0  0  0  0  0  0  0  0  0
  187.5770  177.9520  145.4830 C   0  0  0  0  0  3  0  0  0  0  0  0
  187.3910  178.3000  141.1760 C   0  0  0  0  0  0  0  0  0  0  0  0
  190.0070  177.4960  141.6710 C   0  0  0  0  0  0  0  0  0  0  0  0
  186.0050  178.7590  140.8940 C   0  0  0  0  0  2  0  0  0  0  0  0
  185.5000  179.5150  142.0270 N   0  0  0  0  0  2  0  0  0  0  0  0
  184.1640  179.0190  142.3110 C   0  0  1  0  0  3  0  0  0  0  0  0
  183.7670  178.0040  141.2540 C   0  0  0  0  0  1  0  0  0  0  0  0
  184.1460  178.3600  143.6790 C   0  0  0  0  0  3  0  0  0  0  0  0
  182.9880  178.9110  144.4890 C   0  0  0  0  0  2  0  0  0  0  0  0
  184.3950  179.4070  144.7470 C   0  0  0  0  0  2  0  0  0  0  0  0
  1 13  2  0  0  0  0
  1  4  1  0  0  0  0
  2  1  1  0  0  0  0
  3 13  1  0  0  0  0
  4 16  2  0  0  0  0
  4  7  1  0  0  0  0
  6  3  2  0  0  0  0
  7  8  2  0  0  0  0
  8  5  1  0  0  0  0
  9 18  1  0  0  0  0
 10  9  1  0  0  0  0
 11  2  1  0  0  0  0
 12  5  2  0  0  0  0
 13 14  1  0  0  0  0
 14  7  1  0  0  0  0
 15  9  2  0  0  0  0
 15 17  1  0  0  0  0
 16 12  1  0  0  0  0
 17 11  2  0  0  0  0
 18  6  1  0  0  0  0
 18  2  2  0  0  0  0
 19 17  1  0  0  0  0
 19 20  1  0  0  0  0
 20 21  1  0  0  0  0
 21 22  1  6  0  0  0
 21 23  1  0  0  0  0
 23 24  1  0  0  0  0
 23 25  1  0  0  0  0
 24 25  1  0  0  0  0
M  END
>  <MODEL>
1

>  <REMARK>
 VINA RESULT:      -9.7      0.000      0.000
  Name = 
  4 active torsions:
  status: ('A' for Active; 'I' for Inactive)
    1  A    between atoms: C_2  and  C_21
    2  A    between atoms: C_6  and  N_15
    3  A    between atoms: C_6  and  C_23
    4  A    between atoms: N_15  and  C_21
                            x       y       z     vdW  Elec       q    Type
                         _______ _______ _______ _____ _____    ______ ____

>  <TORSDO>
F 4

$$$$
=
 OpenBabel10262419483D

 25 29  0  0  1  0  0  0  0  0999 V2000
  187.5250  177.8340  145.7120 C   0  0  0  0  0  0  0  0  0  0  0  0
  188.8600  177.4240  145.5300 C   0  0  0  0  0  0  0  0  0  0  0  0
  187.8850  177.9530  148.1100 C   0  0  0  0  0  3  0  0  0  0  0  0
  186.5240  178.0370  144.7430 C   0  0  0  0  0  0  0  0  0  0  0  0
  184.2980  178.5420  143.1300 C   0  0  0  0  0  3  0  0  0  0  0  0
  189.1740  177.5580  147.9230 N   0  0  0  0  0  0  0  0  0  0  0  0
  185.3130  178.4460  145.3000 C   0  0  0  0  0  0  0  0  0  0  0  0
  184.1900  178.7030  144.5180 C   0  0  0  0  0  3  0  0  0  0  0  0
  191.0130  176.8880  146.5220 C   0  0  0  0  0  0  0  0  0  0  0  0
  191.8670  176.7510  147.6540 N   0  0  0  0  0  1  0  0  0  0  0  0
  189.3990  177.1460  144.2700 C   0  0  0  0  0  3  0  0  0  0  0  0
  185.5140  178.1300  142.5530 C   0  0  0  0  0  3  0  0  0  0  0  0
  187.0610  178.0910  146.9990 C   0  0  0  0  0  0  0  0  0  0  0  0
  185.4430  178.5650  146.9750 S   0  0  0  0  0  0  0  0  0  0  0  0
  191.5010  176.6290  145.2790 N   0  0  0  0  0  0  0  0  0  0  0  0
  186.6360  177.8750  143.3580 C   0  0  0  0  0  3  0  0  0  0  0  0
  190.7300  176.7410  144.1650 C   0  0  0  0  0  0  0  0  0  0  0  0
  189.6800  177.2920  146.6800 C   0  0  0  0  0  0  0  0  0  0  0  0
  191.3180  176.4710  142.8260 C   0  0  0  0  0  2  0  0  0  0  0  0
  190.2690  176.4770  141.8210 N   0  0  0  0  0  2  0  0  0  0  0  0
  190.6150  177.4990  140.8470 C   0  0  1  0  0  3  0  0  0  0  0  0
  192.0900  177.3900  140.5050 C   0  0  0  0  0  1  0  0  0  0  0  0
  189.7870  177.3040  139.5900 C   0  0  0  0  0  3  0  0  0  0  0  0
  189.1590  178.6250  139.1900 C   0  0  0  0  0  2  0  0  0  0  0  0
  188.3280  177.5770  139.8980 C   0  0  0  0  0  2  0  0  0  0  0  0
  1 13  1  0  0  0  0
  2  1  2  0  0  0  0
  2 18  1  0  0  0  0
  4  7  1  0  0  0  0
  4  1  1  0  0  0  0
  5  8  1  0  0  0  0
  6  3  1  0  0  0  0
  7 14  1  0  0  0  0
  8  7  2  0  0  0  0
  9 18  1  0  0  0  0
  9 10  1  0  0  0  0
 11  2  1  0  0  0  0
 12  5  2  0  0  0  0
 12 16  1  0  0  0  0
 13  3  2  0  0  0  0
 14 13  1  0  0  0  0
 15  9  2  0  0  0  0
 16  4  2  0  0  0  0
 17 11  2  0  0  0  0
 17 15  1  0  0  0  0
 18  6  2  0  0  0  0
 19 17  1  0  0  0  0
 20 19  1  0  0  0  0
 21 22  1  6  0  0  0
 21 20  1  0  0  0  0
 23 25  1  0  0  0  0
 23 21  1  0  0  0  0
 24 23  1  0  0  0  0
 24 25  1  0  0  0  0
M  END
>  <MODEL>
2

>  <REMARK>
 VINA RESULT:      -9.6      2.449      5.787
  Name = 
  4 active torsions:
  status: ('A' for Active; 'I' for Inactive)
    1  A    between atoms: C_2  and  C_21
    2  A    between atoms: C_6  and  N_15
    3  A    between atoms: C_6  and  C_23
    4  A    between atoms: N_15  and  C_21
                            x       y       z     vdW  Elec       q    Type
                         _______ _______ _______ _____ _____    ______ ____

>  <TORSDO>
F 4

$$$$
=
 OpenBabel10262419483D

 25 29  0  0  1  0  0  0  0  0999 V2000
  187.2770  177.9390  145.5060 C   0  0  0  0  0  0  0  0  0  0  0  0
  186.4340  178.2540  144.4240 C   0  0  0  0  0  0  0  0  0  0  0  0
  185.4610  178.3800  147.0560 C   0  0  0  0  0  3  0  0  0  0  0  0
  188.6280  177.5410  145.4860 C   0  0  0  0  0  0  0  0  0  0  0  0
  191.2790  176.7350  145.8480 C   0  0  0  0  0  3  0  0  0  0  0  0
  184.6530  178.6810  146.0030 N   0  0  0  0  0  0  0  0  0  0  0  0
  189.1390  177.3120  146.7630 C   0  0  0  0  0  0  0  0  0  0  0  0
  190.4560  176.9100  146.9700 C   0  0  0  0  0  3  0  0  0  0  0  0
  184.2360  178.9450  143.6480 C   0  0  0  0  0  0  0  0  0  0  0  0
  182.8850  179.3210  143.8960 N   0  0  0  0  0  1  0  0  0  0  0  0
  186.8630  178.2100  143.0940 C   0  0  0  0  0  3  0  0  0  0  0  0
  190.7780  176.9630  144.5530 C   0  0  0  0  0  3  0  0  0  0  0  0
  186.7760  178.0070  146.8040 C   0  0  0  0  0  0  0  0  0  0  0  0
  187.9580  177.5890  147.9310 S   0  0  0  0  0  0  0  0  0  0  0  0
  184.6910  178.8890  142.3670 N   0  0  0  0  0  0  0  0  0  0  0  0
  189.4460  177.3680  144.3650 C   0  0  0  0  0  3  0  0  0  0  0  0
  185.9720  178.5390  142.0720 C   0  0  0  0  0  0  0  0  0  0  0  0
  185.0950  178.6300  144.7100 C   0  0  0  0  0  0  0  0  0  0  0  0
  186.4140  178.4670  140.6540 C   0  0  0  0  0  2  0  0  0  0  0  0
  187.8550  178.6330  140.5820 N   0  0  0  0  0  2  0  0  0  0  0  0
  188.3380  177.7290  139.5510 C   0  0  1  0  0  3  0  0  0  0  0  0
  187.6840  178.0780  138.2260 C   0  0  0  0  0  1  0  0  0  0  0  0
  189.8450  177.8610  139.4230 C   0  0  0  0  0  3  0  0  0  0  0  0
  190.4810  176.4870  139.4990 C   0  0  0  0  0  2  0  0  0  0  0  0
  190.5040  177.3980  140.7070 C   0  0  0  0  0  2  0  0  0  0  0  0
  1 13  2  0  0  0  0
  2 18  1  0  0  0  0
  2  1  1  0  0  0  0
  4  1  1  0  0  0  0
  4  7  1  0  0  0  0
  5  8  1  0  0  0  0
  6  3  2  0  0  0  0
  7  8  2  0  0  0  0
  7 14  1  0  0  0  0
  9 10  1  0  0  0  0
  9 18  2  0  0  0  0
 11  2  2  0  0  0  0
 12  5  2  0  0  0  0
 13  3  1  0  0  0  0
 13 14  1  0  0  0  0
 15  9  1  0  0  0  0
 16 12  1  0  0  0  0
 16  4  2  0  0  0  0
 17 15  2  0  0  0  0
 17 11  1  0  0  0  0
 18  6  1  0  0  0  0
 19 17  1  0  0  0  0
 20 19  1  0  0  0  0
 21 22  1  6  0  0  0
 21 20  1  0  0  0  0
 23 24  1  0  0  0  0
 23 21  1  0  0  0  0
 23 25  1  0  0  0  0
 24 25  1  0  0  0  0
M  END
>  <MODEL>
3

>  <REMARK>
 VINA RESULT:      -9.0      1.736      5.129
  Name = 
  4 active torsions:
  status: ('A' for Active; 'I' for Inactive)
    1  A    between atoms: C_2  and  C_21
    2  A    between atoms: C_6  and  N_15
    3  A    between atoms: C_6  and  C_23
    4  A    between atoms: N_15  and  C_21
                            x       y       z     vdW  Elec       q    Type
                         _______ _______ _______ _____ _____    ______ ____

>  <TORSDO>
F 4

$$$$
=
 OpenBabel10262419483D

 25 29  0  0  1  0  0  0  0  0999 V2000
  186.1010  178.2760  144.4550 C   0  0  0  0  0  0  0  0  0  0  0  0
  186.1470  178.3940  143.0530 C   0  0  0  0  0  0  0  0  0  0  0  0
  183.7810  178.9930  144.4420 C   0  0  0  0  0  3  0  0  0  0  0  0
  187.1190  177.8790  145.3420 C   0  0  0  0  0  0  0  0  0  0  0  0
  188.8680  177.1450  147.3950 C   0  0  0  0  0  3  0  0  0  0  0  0
  183.8360  179.1020  143.0860 N   0  0  0  0  0  0  0  0  0  0  0  0
  186.7030  177.8820  146.6730 C   0  0  0  0  0  0  0  0  0  0  0  0
  187.5550  177.5200  147.7140 C   0  0  0  0  0  3  0  0  0  0  0  0
  184.9950  178.9400  140.9830 C   0  0  0  0  0  0  0  0  0  0  0  0
  183.8330  179.3570  140.2740 N   0  0  0  0  0  1  0  0  0  0  0  0
  187.2970  178.1110  142.3090 C   0  0  0  0  0  3  0  0  0  0  0  0
  189.3020  177.1370  146.0570 C   0  0  0  0  0  3  0  0  0  0  0  0
  184.9180  178.5780  145.1250 C   0  0  0  0  0  0  0  0  0  0  0  0
  185.0950  178.3670  146.7890 S   0  0  0  0  0  0  0  0  0  0  0  0
  186.1330  178.6530  140.2960 N   0  0  0  0  0  0  0  0  0  0  0  0
  188.4280  177.5050  145.0210 C   0  0  0  0  0  3  0  0  0  0  0  0
  187.2720  178.2530  140.9210 C   0  0  0  0  0  0  0  0  0  0  0  0
  184.9730  178.8180  142.3800 C   0  0  0  0  0  0  0  0  0  0  0  0
  188.4820  177.9260  140.1220 C   0  0  0  0  0  2  0  0  0  0  0  0
  189.6750  178.2510  140.8850 N   0  0  0  0  0  2  0  0  0  0  0  0
  190.5120  177.0630  140.8980 C   0  0  1  0  0  3  0  0  0  0  0  0
  190.9670  176.7520  139.4830 C   0  0  0  0  0  1  0  0  0  0  0  0
  191.7240  177.3040  141.7790 C   0  0  0  0  0  3  0  0  0  0  0  0
  191.5340  176.5910  143.1040 C   0  0  0  0  0  2  0  0  0  0  0  0
  191.3070  178.0850  143.0100 C   0  0  0  0  0  2  0  0  0  0  0  0
  1 13  2  0  0  0  0
  1  4  1  0  0  0  0
  2  1  1  0  0  0  0
  3 13  1  0  0  0  0
  4  7  1  0  0  0  0
  5  8  1  0  0  0  0
  6  3  2  0  0  0  0
  7 14  1  0  0  0  0
  7  8  2  0  0  0  0
  9 18  2  0  0  0  0
 10  9  1  0  0  0  0
 11  2  2  0  0  0  0
 12  5  2  0  0  0  0
 13 14  1  0  0  0  0
 15 17  2  0  0  0  0
 15  9  1  0  0  0  0
 16  4  2  0  0  0  0
 16 12  1  0  0  0  0
 17 11  1  0  0  0  0
 18  2  1  0  0  0  0
 18  6  1  0  0  0  0
 19 20  1  0  0  0  0
 19 17  1  0  0  0  0
 20 21  1  0  0  0  0
 21 22  1  6  0  0  0
 21 23  1  0  0  0  0
 23 25  1  0  0  0  0
 23 24  1  0  0  0  0
 25 24  1  0  0  0  0
M  END
>  <MODEL>
4

>  <REMARK>
 VINA RESULT:      -8.9      1.784      5.242
  Name = 
  4 active torsions:
  status: ('A' for Active; 'I' for Inactive)
    1  A    between atoms: C_2  and  C_21
    2  A    between atoms: C_6  and  N_15
    3  A    between atoms: C_6  and  C_23
    4  A    between atoms: N_15  and  C_21
                            x       y       z     vdW  Elec       q    Type
                         _______ _______ _______ _____ _____    ______ ____

>  <TORSDO>
F 4

$$$$
=
 OpenBabel10262419483D

 25 29  0  0  1  0  0  0  0  0999 V2000
  186.7580  178.2520  142.6060 C   0  0  0  0  0  0  0  0  0  0  0  0
  188.1110  177.8790  142.5100 C   0  0  0  0  0  0  0  0  0  0  0  0
  186.6730  178.5750  140.2010 C   0  0  0  0  0  3  0  0  0  0  0  0
  185.9450  178.3400  143.7520 C   0  0  0  0  0  0  0  0  0  0  0  0
  184.0370  178.6290  145.7740 C   0  0  0  0  0  3  0  0  0  0  0  0
  187.9830  178.2120  140.1200 N   0  0  0  0  0  0  0  0  0  0  0  0
  184.6440  178.7460  143.4570 C   0  0  0  0  0  0  0  0  0  0  0  0
  183.6750  178.8980  144.4460 C   0  0  0  0  0  3  0  0  0  0  0  0
  190.0580  177.4960  141.1050 C   0  0  0  0  0  0  0  0  0  0  0  0
  190.6910  177.4670  139.8300 N   0  0  0  0  0  1  0  0  0  0  0  0
  188.8770  177.5230  143.6260 C   0  0  0  0  0  3  0  0  0  0  0  0
  185.3460  178.2180  146.0870 C   0  0  0  0  0  3  0  0  0  0  0  0
  186.0620  178.5940  141.4490 C   0  0  0  0  0  0  0  0  0  0  0  0
  184.4650  179.0040  141.8030 S   0  0  0  0  0  0  0  0  0  0  0  0
  190.7680  177.1550  142.2140 N   0  0  0  0  0  0  0  0  0  0  0  0
  186.3090  178.0710  145.0750 C   0  0  0  0  0  3  0  0  0  0  0  0
  190.2160  177.1670  143.4560 C   0  0  0  0  0  0  0  0  0  0  0  0
  188.7110  177.8670  141.2240 C   0  0  0  0  0  0  0  0  0  0  0  0
  191.0270  176.7610  144.6340 C   0  0  0  0  0  2  0  0  0  0  0  0
  190.6820  177.5890  145.7750 N   0  0  0  0  0  2  0  0  0  0  0  0
  190.3720  176.6930  146.8770 C   0  0  1  0  0  3  0  0  0  0  0  0
  191.6450  176.0090  147.3440 C   0  0  0  0  0  1  0  0  0  0  0  0
  189.7710  177.4840  148.0240 C   0  0  0  0  0  3  0  0  0  0  0  0
  188.3100  177.1110  148.1830 C   0  0  0  0  0  2  0  0  0  0  0  0
  188.6880  178.4030  147.4910 C   0  0  0  0  0  2  0  0  0  0  0  0
  1  4  1  0  0  0  0
  2  1  1  0  0  0  0
  2 11  1  0  0  0  0
  3 13  1  0  0  0  0
  4 16  1  0  0  0  0
  5 12  1  0  0  0  0
  6  3  2  0  0  0  0
  6 18  1  0  0  0  0
  7  4  2  0  0  0  0
  7  8  1  0  0  0  0
  8  5  2  0  0  0  0
  9 18  1  0  0  0  0
  9 15  2  0  0  0  0
 10  9  1  0  0  0  0
 13 14  1  0  0  0  0
 13  1  2  0  0  0  0
 14  7  1  0  0  0  0
 15 17  1  0  0  0  0
 16 12  2  0  0  0  0
 17 11  2  0  0  0  0
 17 19  1  0  0  0  0
 18  2  2  0  0  0  0
 19 20  1  0  0  0  0
 20 21  1  0  0  0  0
 21 22  1  1  0  0  0
 21 23  1  0  0  0  0
 23 24  1  0  0  0  0
 25 23  1  0  0  0  0
 25 24  1  0  0  0  0
M  END
>  <MODEL>
5

>  <REMARK>
 VINA RESULT:      -8.8      2.106      5.272
  Name = 
  4 active torsions:
  status: ('A' for Active; 'I' for Inactive)
    1  A    between atoms: C_2  and  C_21
    2  A    between atoms: C_6  and  N_15
    3  A    between atoms: C_6  and  C_23
    4  A    between atoms: N_15  and  C_21
                            x       y       z     vdW  Elec       q    Type
                         _______ _______ _______ _____ _____    ______ ____

>  <TORSDO>
F 4

$$$$
=
 OpenBabel10262419483D

 25 29  0  0  1  0  0  0  0  0999 V2000
  186.3710  178.2660  144.3130 C   0  0  0  0  0  0  0  0  0  0  0  0
  186.4510  178.3870  142.9130 C   0  0  0  0  0  0  0  0  0  0  0  0
  184.0510  178.9780  144.2470 C   0  0  0  0  0  3  0  0  0  0  0  0
  187.3700  177.8690  145.2220 C   0  0  0  0  0  0  0  0  0  0  0  0
  189.0710  177.1340  147.3140 C   0  0  0  0  0  3  0  0  0  0  0  0
  184.1380  179.0900  142.8930 N   0  0  0  0  0  0  0  0  0  0  0  0
  186.9230  177.8680  146.5430 C   0  0  0  0  0  0  0  0  0  0  0  0
  187.7510  177.5060  147.6030 C   0  0  0  0  0  3  0  0  0  0  0  0
  185.3460  178.9350  140.8180 C   0  0  0  0  0  0  0  0  0  0  0  0
  184.2000  179.3520  140.0820 N   0  0  0  0  0  1  0  0  0  0  0  0
  187.6180  178.1070  142.1950 C   0  0  0  0  0  3  0  0  0  0  0  0
  189.5370  177.1300  145.9870 C   0  0  0  0  0  3  0  0  0  0  0  0
  185.1730  178.5640  144.9560 C   0  0  0  0  0  0  0  0  0  0  0  0
  185.3110  178.3490  146.6220 S   0  0  0  0  0  0  0  0  0  0  0  0
  186.5000  178.6520  140.1560 N   0  0  0  0  0  0  0  0  0  0  0  0
  188.6870  177.4980  144.9310 C   0  0  0  0  0  3  0  0  0  0  0  0
  187.6250  178.2530  140.8080 C   0  0  0  0  0  0  0  0  0  0  0  0
  185.2910  178.8110  142.2130 C   0  0  0  0  0  0  0  0  0  0  0  0
  188.8540  177.9300  140.0360 C   0  0  0  0  0  2  0  0  0  0  0  0
  189.0290  178.8980  138.9670 N   0  0  0  0  0  2  0  0  0  0  0  0
  189.4240  178.1570  137.7800 C   0  0  1  0  0  3  0  0  0  0  0  0
  190.4060  177.0670  138.1700 C   0  0  0  0  0  1  0  0  0  0  0  0
  188.1980  177.5310  137.1400 C   0  0  0  0  0  3  0  0  0  0  0  0
  188.1640  177.8810  135.6660 C   0  0  0  0  0  2  0  0  0  0  0  0
  187.2740  178.6240  136.6400 C   0  0  0  0  0  2  0  0  0  0  0  0
  1 13  2  0  0  0  0
  1  4  1  0  0  0  0
  2  1  1  0  0  0  0
  3 13  1  0  0  0  0
  4  7  1  0  0  0  0
  5  8  1  0  0  0  0
  6  3  2  0  0  0  0
  7 14  1  0  0  0  0
  7  8  2  0  0  0  0
  9 18  2  0  0  0  0
 10  9  1  0  0  0  0
 11  2  2  0  0  0  0
 12  5  2  0  0  0  0
 13 14  1  0  0  0  0
 15 17  2  0  0  0  0
 15  9  1  0  0  0  0
 16  4  2  0  0  0  0
 16 12  1  0  0  0  0
 17 11  1  0  0  0  0
 18  6  1  0  0  0  0
 18  2  1  0  0  0  0
 19 17  1  0  0  0  0
 20 19  1  0  0  0  0
 21 22  1  1  0  0  0
 21 20  1  0  0  0  0
 23 21  1  0  0  0  0
 24 25  1  0  0  0  0
 24 23  1  0  0  0  0
 25 23  1  0  0  0  0
M  END
>  <MODEL>
6

>  <REMARK>
 VINA RESULT:      -8.7      2.298      5.305
  Name = 
  4 active torsions:
  status: ('A' for Active; 'I' for Inactive)
    1  A    between atoms: C_2  and  C_21
    2  A    between atoms: C_6  and  N_15
    3  A    between atoms: C_6  and  C_23
    4  A    between atoms: N_15  and  C_21
                            x       y       z     vdW  Elec       q    Type
                         _______ _______ _______ _____ _____    ______ ____

>  <TORSDO>
F 4

$$$$
=
 OpenBabel10262419483D

 25 29  0  0  1  0  0  0  0  0999 V2000
  185.5770  178.5340  141.9350 C   0  0  0  0  0  0  0  0  0  0  0  0
  186.8650  178.3060  141.4150 C   0  0  0  0  0  0  0  0  0  0  0  0
  184.7190  178.8420  139.6840 C   0  0  0  0  0  3  0  0  0  0  0  0
  185.1540  178.5380  143.2770 C   0  0  0  0  0  0  0  0  0  0  0  0
  183.9480  178.6280  145.7970 C   0  0  0  0  0  3  0  0  0  0  0  0
  185.9690  178.6180  139.1920 N   0  0  0  0  0  0  0  0  0  0  0  0
  183.7920  178.8040  143.4110 C   0  0  0  0  0  0  0  0  0  0  0  0
  183.1670  178.8550  144.6540 C   0  0  0  0  0  3  0  0  0  0  0  0
  188.3090  178.1280  139.4680 C   0  0  0  0  0  0  0  0  0  0  0  0
  188.5160  178.1630  138.0590 N   0  0  0  0  0  1  0  0  0  0  0  0
  187.9700  178.0350  142.2290 C   0  0  0  0  0  3  0  0  0  0  0  0
  185.3240  178.3580  145.6790 C   0  0  0  0  0  3  0  0  0  0  0  0
  184.5260  178.7980  141.0600 C   0  0  0  0  0  0  0  0  0  0  0  0
  183.0850  179.0380  141.9010 S   0  0  0  0  0  0  0  0  0  0  0  0
  189.3580  177.8660  140.2920 N   0  0  0  0  0  0  0  0  0  0  0  0
  185.9360  178.3120  144.4150 C   0  0  0  0  0  3  0  0  0  0  0  0
  189.2190  177.8220  141.6440 C   0  0  0  0  0  0  0  0  0  0  0  0
  187.0350  178.3550  140.0070 C   0  0  0  0  0  0  0  0  0  0  0  0
  190.3920  177.5060  142.5010 C   0  0  0  0  0  2  0  0  0  0  0  0
  189.9520  176.8040  143.6940 N   0  0  0  0  0  2  0  0  0  0  0  0
  190.7210  177.3320  144.8090 C   0  0  1  0  0  3  0  0  0  0  0  0
  191.6790  178.3950  144.3030 C   0  0  0  0  0  1  0  0  0  0  0  0
  189.7800  177.9430  145.8320 C   0  0  0  0  0  3  0  0  0  0  0  0
  189.8300  177.1310  147.1120 C   0  0  0  0  0  2  0  0  0  0  0  0
  188.6720  176.9580  146.1530 C   0  0  0  0  0  2  0  0  0  0  0  0
  1  4  1  0  0  0  0
  2  1  1  0  0  0  0
  2 11  1  0  0  0  0
  3 13  1  0  0  0  0
  4  7  2  0  0  0  0
  4 16  1  0  0  0  0
  6  3  2  0  0  0  0
  6 18  1  0  0  0  0
  7  8  1  0  0  0  0
  8  5  2  0  0  0  0
  9 18  1  0  0  0  0
  9 15  2  0  0  0  0
 10  9  1  0  0  0  0
 12  5  1  0  0  0  0
 13 14  1  0  0  0  0
 13  1  2  0  0  0  0
 14  7  1  0  0  0  0
 15 17  1  0  0  0  0
 16 12  2  0  0  0  0
 17 11  2  0  0  0  0
 17 19  1  0  0  0  0
 18  2  2  0  0  0  0
 19 20  1  0  0  0  0
 20 21  1  0  0  0  0
 21 22  1  6  0  0  0
 21 23  1  0  0  0  0
 23 25  1  0  0  0  0
 23 24  1  0  0  0  0
 25 24  1  0  0  0  0
M  END
>  <MODEL>
7

>  <REMARK>
 VINA RESULT:      -8.5      2.314      5.439
  Name = 
  4 active torsions:
  status: ('A' for Active; 'I' for Inactive)
    1  A    between atoms: C_2  and  C_21
    2  A    between atoms: C_6  and  N_15
    3  A    between atoms: C_6  and  C_23
    4  A    between atoms: N_15  and  C_21
                            x       y       z     vdW  Elec       q    Type
                         _______ _______ _______ _____ _____    ______ ____

>  <TORSDO>
F 4

$$$$
=
 OpenBabel10262419483D

 25 29  0  0  1  0  0  0  0  0999 V2000
  187.0040  177.8760  144.7580 C   0  0  0  0  0  0  0  0  0  0  0  0
  188.1430  177.5040  144.0190 C   0  0  0  0  0  0  0  0  0  0  0  0
  188.2270  177.5270  146.8270 C   0  0  0  0  0  3  0  0  0  0  0  0
  185.7360  178.2670  144.2890 C   0  0  0  0  0  0  0  0  0  0  0  0
  183.1180  179.0840  143.7460 C   0  0  0  0  0  3  0  0  0  0  0  0
  189.3230  177.1710  146.1020 N   0  0  0  0  0  0  0  0  0  0  0  0
  184.8490  178.5650  145.3230 C   0  0  0  0  0  0  0  0  0  0  0  0
  183.5400  178.9730  145.0780 C   0  0  0  0  0  3  0  0  0  0  0  0
  190.4630  176.7790  144.0190 C   0  0  0  0  0  0  0  0  0  0  0  0
  191.6600  176.4210  144.7040 N   0  0  0  0  0  1  0  0  0  0  0  0
  188.1590  177.4740  142.6210 C   0  0  0  0  0  3  0  0  0  0  0  0
  184.0020  178.7870  142.6910 C   0  0  0  0  0  3  0  0  0  0  0  0
  187.0660  177.8810  146.1490 C   0  0  0  0  0  0  0  0  0  0  0  0
  185.5930  178.3560  146.8180 S   0  0  0  0  0  0  0  0  0  0  0  0
  190.4390  176.7630  142.6590 N   0  0  0  0  0  0  0  0  0  0  0  0
  185.3180  178.3760  142.9580 C   0  0  0  0  0  3  0  0  0  0  0  0
  189.3240  177.0920  141.9550 C   0  0  0  0  0  0  0  0  0  0  0  0
  189.3150  177.1490  144.7350 C   0  0  0  0  0  0  0  0  0  0  0  0
  189.3560  177.0850  140.4680 C   0  0  0  0  0  2  0  0  0  0  0  0
  190.5500  176.3960  140.0080 N   0  0  0  0  0  2  0  0  0  0  0  0
  190.3420  176.0700  138.6070 C   0  0  1  0  0  3  0  0  0  0  0  0
  189.0100  176.6350  138.1490 C   0  0  0  0  0  1  0  0  0  0  0  0
  191.4610  176.6690  137.7740 C   0  0  0  0  0  3  0  0  0  0  0  0
  192.5550  175.6370  137.5820 C   0  0  0  0  0  2  0  0  0  0  0  0
  192.7270  176.7400  138.6040 C   0  0  0  0  0  2  0  0  0  0  0  0
  1 13  2  0  0  0  0
  2 18  1  0  0  0  0
  2  1  1  0  0  0  0
  4  1  1  0  0  0  0
  4  7  1  0  0  0  0
  5  8  1  0  0  0  0
  6  3  2  0  0  0  0
  7 14  1  0  0  0  0
  8  7  2  0  0  0  0
  9 10  1  0  0  0  0
  9 18  2  0  0  0  0
 11  2  2  0  0  0  0
 12 16  1  0  0  0  0
 12  5  2  0  0  0  0
 13 14  1  0  0  0  0
 13  3  1  0  0  0  0
 15  9  1  0  0  0  0
 16  4  2  0  0  0  0
 17 11  1  0  0  0  0
 17 15  2  0  0  0  0
 18  6  1  0  0  0  0
 19 17  1  0  0  0  0
 20 19  1  0  0  0  0
 21 22  1  6  0  0  0
 21 20  1  0  0  0  0
 23 25  1  0  0  0  0
 23 21  1  0  0  0  0
 24 23  1  0  0  0  0
 24 25  1  0  0  0  0
M  END
>  <MODEL>
8

>  <REMARK>
 VINA RESULT:      -8.5      2.392      5.859
  Name = 
  4 active torsions:
  status: ('A' for Active; 'I' for Inactive)
    1  A    between atoms: C_2  and  C_21
    2  A    between atoms: C_6  and  N_15
    3  A    between atoms: C_6  and  C_23
    4  A    between atoms: N_15  and  C_21
                            x       y       z     vdW  Elec       q    Type
                         _______ _______ _______ _____ _____    ______ ____

>  <TORSDO>
F 4

$$$$
=
 OpenBabel10262419483D

 25 29  0  0  1  0  0  0  0  0999 V2000
  187.1090  177.9180  145.3950 C   0  0  0  0  0  0  0  0  0  0  0  0
  186.1620  178.2690  144.4150 C   0  0  0  0  0  0  0  0  0  0  0  0
  185.4550  178.2890  147.1330 C   0  0  0  0  0  3  0  0  0  0  0  0
  188.4520  177.5310  145.2260 C   0  0  0  0  0  0  0  0  0  0  0  0
  191.1290  176.7280  145.2930 C   0  0  0  0  0  3  0  0  0  0  0  0
  184.5460  178.6250  146.1770 N   0  0  0  0  0  0  0  0  0  0  0  0
  189.0880  177.2570  146.4360 C   0  0  0  0  0  0  0  0  0  0  0  0
  190.4200  176.8560  146.4960 C   0  0  0  0  0  3  0  0  0  0  0  0
  183.8960  178.9750  143.8860 C   0  0  0  0  0  0  0  0  0  0  0  0
  182.5750  179.3330  144.2820 N   0  0  0  0  0  1  0  0  0  0  0  0
  186.4570  178.2770  143.0480 C   0  0  0  0  0  3  0  0  0  0  0  0
  190.5000  177.0010  144.0630 C   0  0  0  0  0  3  0  0  0  0  0  0
  186.7400  177.9350  146.7370 C   0  0  0  0  0  0  0  0  0  0  0  0
  188.0290  177.4820  147.7250 S   0  0  0  0  0  0  0  0  0  0  0  0
  184.2220  178.9690  142.5660 N   0  0  0  0  0  0  0  0  0  0  0  0
  189.1560  177.4040  144.0230 C   0  0  0  0  0  3  0  0  0  0  0  0
  185.4680  178.6390  142.1320 C   0  0  0  0  0  0  0  0  0  0  0  0
  184.8570  178.6250  144.8450 C   0  0  0  0  0  0  0  0  0  0  0  0
  185.7660  178.6220  140.6760 C   0  0  0  0  0  2  0  0  0  0  0  0
  184.9340  179.5980  139.9950 N   0  0  0  0  0  2  0  0  0  0  0  0
  184.5740  179.0280  138.7060 C   0  0  1  0  0  3  0  0  0  0  0  0
  185.6800  178.0990  138.2390 C   0  0  0  0  0  1  0  0  0  0  0  0
  183.2790  178.2470  138.8390 C   0  0  0  0  0  3  0  0  0  0  0  0
  182.2080  178.8970  137.9840 C   0  0  0  0  0  2  0  0  0  0  0  0
  182.2220  179.1260  139.4800 C   0  0  0  0  0  2  0  0  0  0  0  0
  1 13  2  0  0  0  0
  2 18  1  0  0  0  0
  2  1  1  0  0  0  0
  4  1  1  0  0  0  0
  4  7  1  0  0  0  0
  5  8  1  0  0  0  0
  6  3  2  0  0  0  0
  7  8  2  0  0  0  0
  7 14  1  0  0  0  0
  9 10  1  0  0  0  0
  9 18  2  0  0  0  0
 11  2  2  0  0  0  0
 12  5  2  0  0  0  0
 13  3  1  0  0  0  0
 13 14  1  0  0  0  0
 15  9  1  0  0  0  0
 16 12  1  0  0  0  0
 16  4  2  0  0  0  0
 17 15  2  0  0  0  0
 17 11  1  0  0  0  0
 18  6  1  0  0  0  0
 19 17  1  0  0  0  0
 20 19  1  0  0  0  0
 21 22  1  1  0  0  0
 21 23  1  0  0  0  0
 21 20  1  0  0  0  0
 23 25  1  0  0  0  0
 24 23  1  0  0  0  0
 24 25  1  0  0  0  0
M  END
>  <MODEL>
9

>  <REMARK>
 VINA RESULT:      -8.5      2.518      4.746
  Name = 
  4 active torsions:
  status: ('A' for Active; 'I' for Inactive)
    1  A    between atoms: C_2  and  C_21
    2  A    between atoms: C_6  and  N_15
    3  A    between atoms: C_6  and  C_23
    4  A    between atoms: N_15  and  C_21
                            x       y       z     vdW  Elec       q    Type
                         _______ _______ _______ _____ _____    ______ ____

>  <TORSDO>
F 4

$$$$
