=
 OpenBabel10262420203D

 55 61  0  0  1  0  0  0  0  0999 V2000
  181.9110  174.1510  138.2170 C   0  0  0  0  0  2  0  0  0  0  0  0
  186.2310  177.8410  138.5180 C   0  0  0  0  0  3  0  0  0  0  0  0
  185.2540  179.1840  141.8530 C   0  0  0  0  0  1  0  0  0  0  0  0
  187.6990  176.1380  136.5240 C   0  0  0  0  0  2  0  0  0  0  0  0
  187.8800  178.3500  135.1950 C   0  0  0  0  0  2  0  0  0  0  0  0
  183.8100  180.5150  139.3450 C   0  0  0  0  0  3  0  0  0  0  0  0
  192.1460  176.8260  134.8910 O   0  0  0  0  0  0  0  0  0  0  0  0
  192.0030  176.4160  137.3960 C   0  0  2  0  0  3  0  0  0  0  0  0
  191.4130  174.9990  137.2970 C   0  0  0  0  0  2  0  0  0  0  0  0
  183.4000  181.5310  138.4860 C   0  0  0  0  0  3  0  0  0  0  0  0
  182.2650  178.9860  138.2980 C   0  0  0  0  0  0  0  0  0  0  0  0
  181.8220  180.0210  137.4600 C   0  0  0  0  0  3  0  0  0  0  0  0
  183.5760  176.7960  139.6160 O   0  0  0  0  0  0  0  0  0  0  0  0
  189.7570  176.7010  135.2560 C   0  0  0  0  0  0  0  0  0  0  0  0
  189.0990  177.6710  134.6130 C   0  0  0  0  0  3  0  0  0  0  0  0
  182.4090  181.2850  137.5370 C   0  0  0  0  0  3  0  0  0  0  0  0
  184.9710  172.7660  136.5920 C   0  0  0  0  0  2  0  0  0  0  0  0
  190.9590  176.0950  134.5940 C   0  0  0  0  0  2  0  0  0  0  0  0
  183.2760  179.2170  139.2290 C   0  0  0  0  0  0  0  0  0  0  0  0
  184.7120  175.1540  135.8560 C   0  0  2  0  0  3  0  0  0  0  0  0
  181.7190  175.2570  139.2350 C   0  0  2  0  0  3  0  0  0  0  0  0
  192.7530  176.8390  136.1530 C   0  0  0  0  0  0  0  0  0  0  0  0
  183.8720  175.8690  134.8190 C   0  0  0  0  0  2  0  0  0  0  0  0
  180.2500  177.8040  139.1540 C   0  0  2  0  0  3  0  0  0  0  0  0
  180.2340  175.5270  139.4190 C   0  0  0  0  0  2  0  0  0  0  0  0
  187.0240  178.2650  137.4400 O   0  0  0  0  0  0  0  0  0  0  0  0
  181.5460  177.6860  138.3210 C   0  0  2  0  0  3  0  0  0  0  0  0
  186.1100  178.5890  139.6010 C   0  0  0  0  0  3  0  0  0  0  0  0
  185.1470  178.2170  140.6870 C   0  0  2  0  0  3  0  0  0  0  0  0
  183.5680  172.6250  137.1710 C   0  0  0  0  0  2  0  0  0  0  0  0
  189.2290  176.2270  136.5980 C   0  0  2  0  0  3  0  0  0  0  0  0
  187.0710  177.5220  136.2220 C   0  0  2  0  0  0  0  0  0  0  0  0
  183.3480  173.6640  138.2600 C   0  0  0  0  0  2  0  0  0  0  0  0
  183.6880  178.0980  140.1770 C   0  0  2  0  0  3  0  0  0  0  0  0
  182.4550  176.5320  138.7900 C   0  0  1  0  0  3  0  0  0  0  0  0
  193.9500  177.2160  136.2340 O   0  0  0  0  0  0  0  0  0  0  0  0
  185.6330  177.4040  135.6740 C   0  0  0  0  0  2  0  0  0  0  0  0
  180.0690  176.7500  140.0900 O   0  0  0  0  0  0  0  0  0  0  0  0
  189.8710  174.9390  137.2050 C   0  0  1  0  0  0  0  0  0  0  0  0
  185.3580  176.1280  134.8920 C   0  0  1  0  0  3  0  0  0  0  0  0
  184.9890  173.7250  135.4070 C   0  0  0  0  0  2  0  0  0  0  0  0
  189.4940  173.7280  136.3640 C   0  0  0  0  0  0  0  0  0  0  0  0
  190.4780  172.8960  135.8420 O   0  0  0  0  0  0  0  0  0  0  0  0
  188.2860  173.4950  136.0720 O   0  0  0  0  0  1  0  0  0  0  0  0
  191.9220  177.6120  139.3550 C   0  0  0  0  0  1  0  0  0  0  0  0
  192.6820  176.6990  138.6050 O   0  0  0  0  0  0  0  0  0  0  0  0
  189.3230  174.7210  138.6300 C   0  0  0  0  0  2  0  0  0  0  0  0
  189.0460  176.0190  139.3660 C   0  0  0  0  0  1  0  0  0  0  0  0
  179.1420  177.9140  138.2930 O   0  0  0  0  0  0  0  0  0  0  0  0
  179.2090  176.8280  137.4090 C   0  0  0  0  0  2  0  0  0  0  0  0
  179.1550  178.8190  135.9100 C   0  0  0  0  0  1  0  0  0  0  0  0
  178.9310  177.3200  135.9950 C   0  0  1  0  0  3  0  0  0  0  0  0
  179.8560  176.6000  135.0180 C   0  0  0  0  0  2  0  0  0  0  0  0
  180.2960  175.2530  135.5620 C   0  0  0  0  0  2  0  0  0  0  0  0
  179.8100  174.2340  134.7420 O   0  0  0  0  0  1  0  0  0  0  0  0
  1 33  1  0  0  0  0
  2 28  2  0  0  0  0
  7 22  1  0  0  0  0
  8 46  1  1  0  0  0
  9  8  1  0  0  0  0
 10  6  2  0  0  0  0
 11 19  2  0  0  0  0
 12 16  2  0  0  0  0
 12 11  1  0  0  0  0
 13 34  1  0  0  0  0
 14 31  1  0  0  0  0
 15  5  1  0  0  0  0
 15 14  2  0  0  0  0
 16 10  1  0  0  0  0
 17 30  1  0  0  0  0
 18  7  1  0  0  0  0
 18 14  1  0  0  0  0
 19  6  1  0  0  0  0
 20 23  1  6  0  0  0
 21  1  1  6  0  0  0
 21 25  1  0  0  0  0
 22 36  2  0  0  0  0
 22  8  1  0  0  0  0
 24 49  1  6  0  0  0
 24 38  1  0  0  0  0
 25 38  1  0  0  0  0
 26  2  1  0  0  0  0
 27 11  1  1  0  0  0
 27 35  1  0  0  0  0
 27 24  1  0  0  0  0
 28 29  1  0  0  0  0
 29  3  1  1  0  0  0
 30 33  1  0  0  0  0
 31  4  1  6  0  0  0
 31 39  1  0  0  0  0
 32  5  1  6  0  0  0
 32  4  1  0  0  0  0
 32 26  1  0  0  0  0
 34 19  1  6  0  0  0
 34 29  1  0  0  0  0
 35 21  1  0  0  0  0
 35 13  1  1  0  0  0
 37 32  1  0  0  0  0
 39  9  1  0  0  0  0
 39 47  1  1  0  0  0
 40 23  1  6  0  0  0
 40 37  1  0  0  0  0
 40 20  1  0  0  0  0
 41 20  1  0  0  0  0
 41 17  1  0  0  0  0
 42 39  1  0  0  0  0
 43 42  2  0  0  0  0
 44 42  1  0  0  0  0
 46 45  1  0  0  0  0
 47 48  1  0  0  0  0
 50 49  1  0  0  0  0
 52 51  1  1  0  0  0
 52 50  1  0  0  0  0
 53 54  1  0  0  0  0
 53 52  1  0  0  0  0
 55 54  1  0  0  0  0
M  END
>  <MODEL>
1

>  <REMARK>
 VINA RESULT:       2.0      0.000      0.000
  Name = 
  8 active torsions:
  status: ('A' for Active; 'I' for Inactive)
    1  A    between atoms: C_1  and  C_53
    2  A    between atoms: C_6  and  C_53
    3  A    between atoms: C_12  and  O_38
    4  A    between atoms: O_13  and  C_33
    5  A    between atoms: O_13  and  C_48
    6  A    between atoms: C_18  and  C_39
    7  A    between atoms: C_32  and  C_39
    8  A    between atoms: C_32  and  C_48
                            x       y       z     vdW  Elec       q    Type
                         _______ _______ _______ _____ _____    ______ ____

>  <TORSDO>
F 8

$$$$
=
 OpenBabel10262420203D

 55 61  0  0  1  0  0  0  0  0999 V2000
  185.8070  173.0260  134.8840 C   0  0  0  0  0  2  0  0  0  0  0  0
  185.3770  178.4100  136.6720 C   0  0  0  0  0  3  0  0  0  0  0  0
  188.2120  179.6480  134.5970 C   0  0  0  0  0  1  0  0  0  0  0  0
  182.5280  177.8300  137.4300 C   0  0  0  0  0  2  0  0  0  0  0  0
  183.2650  178.7050  139.7500 C   0  0  0  0  0  2  0  0  0  0  0  0
  189.0020  178.3900  137.4140 C   0  0  0  0  0  3  0  0  0  0  0  0
  179.3460  180.9320  139.2090 O   0  0  0  0  0  0  0  0  0  0  0  0
  180.1900  181.5170  136.8840 C   0  0  2  0  0  3  0  0  0  0  0  0
  179.6500  180.2530  136.1910 C   0  0  0  0  0  2  0  0  0  0  0  0
  189.5690  178.3320  138.6840 C   0  0  0  0  0  3  0  0  0  0  0  0
  188.6470  176.0030  137.4490 C   0  0  0  0  0  0  0  0  0  0  0  0
  189.2570  175.9390  138.7120 C   0  0  0  0  0  3  0  0  0  0  0  0
  186.9270  176.2500  135.1620 O   0  0  0  0  0  0  0  0  0  0  0  0
  181.0030  179.2130  138.8160 C   0  0  0  0  0  0  0  0  0  0  0  0
  181.7930  179.0250  139.8790 C   0  0  0  0  0  3  0  0  0  0  0  0
  189.6920  177.1070  139.3390 C   0  0  0  0  0  3  0  0  0  0  0  0
  182.2470  173.9460  135.5180 C   0  0  0  0  0  2  0  0  0  0  0  0
  179.5570  179.5310  139.0520 C   0  0  0  0  0  2  0  0  0  0  0  0
  188.4950  177.2280  136.8010 C   0  0  0  0  0  0  0  0  0  0  0  0
  183.6270  174.8080  137.4320 C   0  0  2  0  0  3  0  0  0  0  0  0
  187.0400  173.8700  134.6290 C   0  0  2  0  0  3  0  0  0  0  0  0
  179.4580  181.8550  138.1630 C   0  0  0  0  0  0  0  0  0  0  0  0
  184.2190  174.1970  138.6840 C   0  0  0  0  0  2  0  0  0  0  0  0
  189.5880  174.1560  136.0710 C   0  0  2  0  0  3  0  0  0  0  0  0
  188.2720  172.9790  134.6110 C   0  0  0  0  0  2  0  0  0  0  0  0
  184.6830  178.8420  137.8130 O   0  0  0  0  0  0  0  0  0  0  0  0
  188.3170  174.7540  136.7160 C   0  0  2  0  0  3  0  0  0  0  0  0
  186.3630  179.1310  136.1690 C   0  0  0  0  0  3  0  0  0  0  0  0
  187.2060  178.6040  135.0480 C   0  0  2  0  0  3  0  0  0  0  0  0
  183.3250  173.0320  134.9440 C   0  0  0  0  0  2  0  0  0  0  0  0
  181.5950  179.0480  137.4290 C   0  0  2  0  0  3  0  0  0  0  0  0
  183.6950  178.0170  138.4320 C   0  0  2  0  0  0  0  0  0  0  0  0
  184.5620  173.8440  134.5940 C   0  0  0  0  0  2  0  0  0  0  0  0
  187.8970  177.2620  135.4000 C   0  0  2  0  0  3  0  0  0  0  0  0
  187.1740  174.9640  135.7030 C   0  0  1  0  0  3  0  0  0  0  0  0
  178.9310  182.9880  138.3090 O   0  0  0  0  0  0  0  0  0  0  0  0
  184.3570  176.6780  138.8160 C   0  0  0  0  0  2  0  0  0  0  0  0
  189.4210  173.7810  134.7110 O   0  0  0  0  0  0  0  0  0  0  0  0
  180.6020  179.0350  136.2240 C   0  0  1  0  0  0  0  0  0  0  0  0
  183.4220  175.4770  138.7760 C   0  0  1  0  0  3  0  0  0  0  0  0
  182.3630  174.0560  137.0340 C   0  0  0  0  0  2  0  0  0  0  0  0
  179.7520  177.7730  136.2680 C   0  0  0  0  0  0  0  0  0  0  0  0
  178.9620  177.4130  135.1830 O   0  0  0  0  0  0  0  0  0  0  0  0
  179.7010  177.0660  137.3150 O   0  0  0  0  0  1  0  0  0  0  0  0
  181.1500  183.5960  136.7130 C   0  0  0  0  0  1  0  0  0  0  0  0
  180.4020  182.6240  136.0290 O   0  0  0  0  0  0  0  0  0  0  0  0
  181.4010  179.0270  134.9060 C   0  0  0  0  0  2  0  0  0  0  0  0
  182.2370  177.7730  134.7230 C   0  0  0  0  0  1  0  0  0  0  0  0
  190.0480  173.0740  136.8460 O   0  0  0  0  0  0  0  0  0  0  0  0
  191.4380  173.2220  136.9560 C   0  0  0  0  0  2  0  0  0  0  0  0
  192.3890  174.9790  135.4650 C   0  0  0  0  0  1  0  0  0  0  0  0
  192.0170  173.5120  135.5770 C   0  0  1  0  0  3  0  0  0  0  0  0
  193.2510  172.6430  135.3550 C   0  0  0  0  0  2  0  0  0  0  0  0
  194.1450  172.6250  136.5810 C   0  0  0  0  0  2  0  0  0  0  0  0
  195.2860  171.8670  136.3200 O   0  0  0  0  0  1  0  0  0  0  0  0
  2 26  1  0  0  0  0
  5 15  1  0  0  0  0
  6 10  1  0  0  0  0
  8 46  1  6  0  0  0
  8 22  1  0  0  0  0
  9 39  1  0  0  0  0
  9  8  1  0  0  0  0
 10 16  2  0  0  0  0
 11 12  2  0  0  0  0
 12 16  1  0  0  0  0
 14 18  1  0  0  0  0
 14 15  2  0  0  0  0
 17 41  1  0  0  0  0
 18  7  1  0  0  0  0
 19  6  2  0  0  0  0
 19 11  1  0  0  0  0
 20 41  1  1  0  0  0
 20 23  1  0  0  0  0
 20 40  1  0  0  0  0
 21 25  1  1  0  0  0
 21  1  1  0  0  0  0
 21 35  1  0  0  0  0
 22 36  2  0  0  0  0
 22  7  1  0  0  0  0
 24 27  1  0  0  0  0
 24 49  1  1  0  0  0
 25 38  1  0  0  0  0
 26 32  1  0  0  0  0
 27 11  1  6  0  0  0
 28  2  2  0  0  0  0
 29  3  1  1  0  0  0
 29 34  1  0  0  0  0
 29 28  1  0  0  0  0
 30 17  1  0  0  0  0
 31  4  1  1  0  0  0
 31 14  1  0  0  0  0
 32  4  1  6  0  0  0
 32 37  1  0  0  0  0
 32  5  1  0  0  0  0
 33  1  1  0  0  0  0
 33 30  1  0  0  0  0
 34 13  1  1  0  0  0
 34 19  1  0  0  0  0
 35 13  1  6  0  0  0
 35 27  1  0  0  0  0
 38 24  1  0  0  0  0
 39 47  1  6  0  0  0
 39 42  1  0  0  0  0
 39 31  1  0  0  0  0
 40 23  1  1  0  0  0
 40 37  1  0  0  0  0
 42 44  1  0  0  0  0
 43 42  2  0  0  0  0
 46 45  1  0  0  0  0
 48 47  1  0  0  0  0
 49 50  1  0  0  0  0
 52 51  1  1  0  0  0
 52 50  1  0  0  0  0
 53 52  1  0  0  0  0
 53 54  1  0  0  0  0
 55 54  1  0  0  0  0
M  END
>  <MODEL>
2

>  <REMARK>
 VINA RESULT:       2.3      2.239      9.440
  Name = 
  8 active torsions:
  status: ('A' for Active; 'I' for Inactive)
    1  A    between atoms: C_1  and  C_53
    2  A    between atoms: C_6  and  C_53
    3  A    between atoms: C_12  and  O_38
    4  A    between atoms: O_13  and  C_33
    5  A    between atoms: O_13  and  C_48
    6  A    between atoms: C_18  and  C_39
    7  A    between atoms: C_32  and  C_39
    8  A    between atoms: C_32  and  C_48
                            x       y       z     vdW  Elec       q    Type
                         _______ _______ _______ _____ _____    ______ ____

>  <TORSDO>
F 8

$$$$
=
 OpenBabel10262420203D

 55 61  0  0  1  0  0  0  0  0999 V2000
  188.1800  171.6760  134.9640 C   0  0  0  0  0  2  0  0  0  0  0  0
  186.3710  176.8250  136.5730 C   0  0  0  0  0  3  0  0  0  0  0  0
  188.9280  178.6780  134.5950 C   0  0  0  0  0  1  0  0  0  0  0  0
  183.7110  175.5850  137.2140 C   0  0  0  0  0  2  0  0  0  0  0  0
  184.0940  176.6530  139.5390 C   0  0  0  0  0  2  0  0  0  0  0  0
  189.8510  177.6980  137.4810 C   0  0  0  0  0  3  0  0  0  0  0  0
  179.7870  177.8550  138.7520 O   0  0  0  0  0  0  0  0  0  0  0  0
  180.5840  178.5860  136.4520 C   0  0  2  0  0  3  0  0  0  0  0  0
  180.4020  177.2180  135.7720 C   0  0  0  0  0  2  0  0  0  0  0  0
  190.3480  177.8010  138.7780 C   0  0  0  0  0  3  0  0  0  0  0  0
  190.0810  175.2970  137.5700 C   0  0  0  0  0  0  0  0  0  0  0  0
  190.6210  175.4050  138.8610 C   0  0  0  0  0  3  0  0  0  0  0  0
  188.4730  175.0800  135.1990 O   0  0  0  0  0  0  0  0  0  0  0  0
  181.8280  176.5820  138.4870 C   0  0  0  0  0  0  0  0  0  0  0  0
  182.5830  176.6090  139.5900 C   0  0  0  0  0  3  0  0  0  0  0  0
  190.7290  176.6540  139.4730 C   0  0  0  0  0  3  0  0  0  0  0  0
  184.4750  171.7170  135.4060 C   0  0  0  0  0  2  0  0  0  0  0  0
  180.3370  176.5440  138.6460 C   0  0  0  0  0  2  0  0  0  0  0  0
  189.6710  176.4370  136.8800 C   0  0  0  0  0  0  0  0  0  0  0  0
  185.5050  172.9210  137.3560 C   0  0  2  0  0  3  0  0  0  0  0  0
  189.1840  172.7900  134.7430 C   0  0  2  0  0  3  0  0  0  0  0  0
  179.7270  178.7590  137.6850 C   0  0  0  0  0  0  0  0  0  0  0  0
  186.1610  172.4930  138.6510 C   0  0  0  0  0  2  0  0  0  0  0  0
  191.5090  173.7100  136.2930 C   0  0  2  0  0  3  0  0  0  0  0  0
  190.5940  172.2230  134.8080 C   0  0  0  0  0  2  0  0  0  0  0  0
  185.5350  177.0960  137.6670 O   0  0  0  0  0  0  0  0  0  0  0  0
  190.1000  173.9920  136.8600 C   0  0  2  0  0  3  0  0  0  0  0  0
  187.1800  177.7560  136.0940 C   0  0  0  0  0  3  0  0  0  0  0  0
  188.1820  177.4300  135.0300 C   0  0  2  0  0  3  0  0  0  0  0  0
  185.7700  171.0820  134.9090 C   0  0  0  0  0  2  0  0  0  0  0  0
  182.5130  176.5410  137.1340 C   0  0  2  0  0  3  0  0  0  0  0  0
  184.7450  176.0680  138.2630 C   0  0  2  0  0  0  0  0  0  0  0  0
  186.7920  172.1640  134.5940 C   0  0  0  0  0  2  0  0  0  0  0  0
  189.1570  176.3010  135.4520 C   0  0  2  0  0  3  0  0  0  0  0  0
  188.9950  173.9020  135.7890 C   0  0  1  0  0  3  0  0  0  0  0  0
  178.9350  179.7330  137.7740 O   0  0  0  0  0  0  0  0  0  0  0  0
  185.6890  174.9350  138.7170 C   0  0  0  0  0  2  0  0  0  0  0  0
  191.5090  173.2810  134.9380 O   0  0  0  0  0  0  0  0  0  0  0  0
  181.6170  176.2670  135.8850 C   0  0  1  0  0  0  0  0  0  0  0  0
  185.0750  173.5430  138.6690 C   0  0  1  0  0  3  0  0  0  0  0  0
  184.4820  171.8780  136.9210 C   0  0  0  0  0  2  0  0  0  0  0  0
  181.0950  174.8380  135.9270 C   0  0  0  0  0  0  0  0  0  0  0  0
  181.9290  173.7710  135.6160 O   0  0  0  0  0  0  0  0  0  0  0  0
  179.8790  174.6020  136.1830 O   0  0  0  0  0  1  0  0  0  0  0  0
  181.6130  180.5690  135.9190 C   0  0  0  0  0  1  0  0  0  0  0  0
  180.5680  179.6960  135.5750 O   0  0  0  0  0  0  0  0  0  0  0  0
  182.4620  176.4310  134.6060 C   0  0  0  0  0  2  0  0  0  0  0  0
  183.3070  177.6920  134.6080 C   0  0  0  0  0  1  0  0  0  0  0  0
  192.1760  172.7850  137.1190 O   0  0  0  0  0  0  0  0  0  0  0  0
  193.4970  172.7120  136.6560 C   0  0  0  0  0  2  0  0  0  0  0  0
  195.5500  172.2450  137.9910 C   0  0  0  0  0  1  0  0  0  0  0  0
  194.4320  173.2390  137.7370 C   0  0  1  0  0  3  0  0  0  0  0  0
  195.0150  174.5770  137.2920 C   0  0  0  0  0  2  0  0  0  0  0  0
  196.5200  174.6150  137.4800 C   0  0  0  0  0  2  0  0  0  0  0  0
  197.0770  175.5680  136.6260 O   0  0  0  0  0  1  0  0  0  0  0  0
  2 26  1  0  0  0  0
  5 15  1  0  0  0  0
  6 10  1  0  0  0  0
  8 46  1  6  0  0  0
  8 22  1  0  0  0  0
  9 39  1  0  0  0  0
  9  8  1  0  0  0  0
 10 16  2  0  0  0  0
 11 12  2  0  0  0  0
 12 16  1  0  0  0  0
 14 18  1  0  0  0  0
 14 15  2  0  0  0  0
 17 41  1  0  0  0  0
 18  7  1  0  0  0  0
 19  6  2  0  0  0  0
 19 11  1  0  0  0  0
 20 41  1  1  0  0  0
 20 23  1  0  0  0  0
 20 40  1  0  0  0  0
 21 25  1  1  0  0  0
 21  1  1  0  0  0  0
 21 35  1  0  0  0  0
 22 36  2  0  0  0  0
 22  7  1  0  0  0  0
 24 27  1  0  0  0  0
 24 49  1  1  0  0  0
 25 38  1  0  0  0  0
 26 32  1  0  0  0  0
 27 11  1  6  0  0  0
 28  2  2  0  0  0  0
 29  3  1  1  0  0  0
 29 34  1  0  0  0  0
 29 28  1  0  0  0  0
 30 17  1  0  0  0  0
 31  4  1  1  0  0  0
 31 14  1  0  0  0  0
 32  4  1  6  0  0  0
 32 37  1  0  0  0  0
 32  5  1  0  0  0  0
 33 30  1  0  0  0  0
 33  1  1  0  0  0  0
 34 13  1  1  0  0  0
 34 19  1  0  0  0  0
 35 13  1  6  0  0  0
 35 27  1  0  0  0  0
 38 24  1  0  0  0  0
 39 47  1  6  0  0  0
 39 42  1  0  0  0  0
 39 31  1  0  0  0  0
 40 23  1  1  0  0  0
 40 37  1  0  0  0  0
 42 44  1  0  0  0  0
 43 42  2  0  0  0  0
 46 45  1  0  0  0  0
 47 48  1  0  0  0  0
 50 49  1  0  0  0  0
 50 52  1  0  0  0  0
 52 51  1  6  0  0  0
 53 54  1  0  0  0  0
 53 52  1  0  0  0  0
 55 54  1  0  0  0  0
M  END
>  <MODEL>
3

>  <REMARK>
 VINA RESULT:       3.8      2.076      9.792
  Name = 
  8 active torsions:
  status: ('A' for Active; 'I' for Inactive)
    1  A    between atoms: C_1  and  C_53
    2  A    between atoms: C_6  and  C_53
    3  A    between atoms: C_12  and  O_38
    4  A    between atoms: O_13  and  C_33
    5  A    between atoms: O_13  and  C_48
    6  A    between atoms: C_18  and  C_39
    7  A    between atoms: C_32  and  C_39
    8  A    between atoms: C_32  and  C_48
                            x       y       z     vdW  Elec       q    Type
                         _______ _______ _______ _____ _____    ______ ____

>  <TORSDO>
F 8

$$$$
