=
 OpenBabel10262419523D

 25 29  0  0  0  0  0  0  0  0999 V2000
  186.7640  178.0910  145.2880 C   0  0  0  0  0  0  0  0  0  0  0  0
  188.0170  177.7810  144.7590 C   0  0  0  0  0  0  0  0  0  0  0  0
  187.5400  177.8530  147.5620 C   0  0  0  0  0  3  0  0  0  0  0  0
  185.6180  178.3950  144.6650 N   0  0  0  0  0  0  0  0  0  0  0  0
  183.0500  179.0620  144.0190 C   0  0  0  0  0  3  0  0  0  0  0  0
  188.8170  177.5350  147.0620 C   0  0  0  0  0  3  0  0  0  0  0  0
  184.7270  178.6050  145.6600 C   0  0  0  0  0  0  0  0  0  0  0  0
  183.4080  178.9480  145.3720 C   0  0  0  0  0  3  0  0  0  0  0  0
  190.3510  177.1780  145.1300 N   0  0  0  0  0  0  0  0  0  0  0  0
  191.4830  176.8730  145.9900 C   0  0  0  0  0  1  0  0  0  0  0  0
  188.2600  177.7440  143.3470 N   0  0  0  0  0  0  0  0  0  0  0  0
  183.9990  178.8380  143.0020 C   0  0  0  0  0  3  0  0  0  0  0  0
  186.5330  178.1260  146.6400 C   0  0  0  0  0  0  0  0  0  0  0  0
  185.2460  178.4500  146.9050 N   0  0  0  0  0  0  0  0  0  0  0  0
  190.5250  177.1580  143.7360 N   0  0  0  0  0  2  0  0  0  0  0  0
  185.3140  178.4970  143.3470 C   0  0  0  0  0  3  0  0  0  0  0  0
  189.4300  177.4540  142.8530 C   0  0  0  0  0  0  0  0  0  0  0  0
  189.0590  177.4980  145.6670 C   0  0  0  0  0  0  0  0  0  0  0  0
  188.8780  177.9960  139.1540 C   0  0  0  0  0  0  0  0  0  0  0  0
  189.6330  177.4280  141.3930 C   0  0  0  0  0  0  0  0  0  0  0  0
  188.6910  178.0180  140.5390 C   0  0  0  0  0  3  0  0  0  0  0  0
  187.9160  178.5980  138.2970 N   0  0  0  0  0  1  0  0  0  0  0  0
  190.7690  176.8150  140.8400 C   0  0  0  0  0  3  0  0  0  0  0  0
  190.0110  177.3830  138.6120 C   0  0  0  0  0  3  0  0  0  0  0  0
  190.9560  176.7930  139.4550 C   0  0  0  0  0  3  0  0  0  0  0  0
  1 13  1  0  0  0  0
  2  1  2  0  0  0  0
  2 18  1  0  0  0  0
  4  1  1  0  0  0  0
  4  7  1  0  0  0  0
  5  8  2  0  0  0  0
  6  3  1  0  0  0  0
  7 14  2  0  0  0  0
  8  7  1  0  0  0  0
  9 18  1  0  0  0  0
  9 10  1  0  0  0  0
 11  2  1  0  0  0  0
 12 16  2  0  0  0  0
 12  5  1  0  0  0  0
 13 14  1  0  0  0  0
 13  3  2  0  0  0  0
 15  9  1  0  0  0  0
 16  4  1  0  0  0  0
 17 11  2  0  0  0  0
 17 15  1  0  0  0  0
 18  6  2  0  0  0  0
 19 21  1  0  0  0  0
 20 17  1  0  0  0  0
 21 20  2  0  0  0  0
 22 19  1  0  0  0  0
 23 20  1  0  0  0  0
 24 19  2  0  0  0  0
 24 25  1  0  0  0  0
 25 23  2  0  0  0  0
M  END
>  <MODEL>
1

>  <REMARK>
 VINA RESULT:     -10.7      0.000      0.000
  Name = 
  1 active torsions:
  status: ('A' for Active; 'I' for Inactive)
    1  A    between atoms: C_6  and  C_23
                            x       y       z     vdW  Elec       q    Type
                         _______ _______ _______ _____ _____    ______ ____

>  <TORSDO>
F 1

$$$$
=
 OpenBabel10262419523D

 25 29  0  0  0  0  0  0  0  0999 V2000
  189.8390  177.4090  143.6110 C   0  0  0  0  0  0  0  0  0  0  0  0
  188.7790  177.5760  144.5030 C   0  0  0  0  0  0  0  0  0  0  0  0
  191.4090  176.9490  145.3880 C   0  0  0  0  0  3  0  0  0  0  0  0
  189.8620  177.4960  142.2750 N   0  0  0  0  0  0  0  0  0  0  0  0
  190.5530  177.5280  139.6340 C   0  0  0  0  0  3  0  0  0  0  0  0
  190.3620  177.1110  146.3150 C   0  0  0  0  0  3  0  0  0  0  0  0
  191.1450  177.2430  141.9320 C   0  0  0  0  0  0  0  0  0  0  0  0
  191.5370  177.2500  140.5960 C   0  0  0  0  0  3  0  0  0  0  0  0
  187.9650  177.5930  146.8020 N   0  0  0  0  0  0  0  0  0  0  0  0
  188.1510  177.4550  148.2370 C   0  0  0  0  0  1  0  0  0  0  0  0
  187.4530  177.8910  144.0590 N   0  0  0  0  0  0  0  0  0  0  0  0
  189.2240  177.7870  140.0180 C   0  0  0  0  0  3  0  0  0  0  0  0
  191.1080  177.1070  144.0370 C   0  0  0  0  0  0  0  0  0  0  0  0
  191.9580  176.9960  142.9900 N   0  0  0  0  0  0  0  0  0  0  0  0
  186.6880  177.9020  146.3040 N   0  0  0  0  0  2  0  0  0  0  0  0
  188.8810  177.7680  141.3770 C   0  0  0  0  0  3  0  0  0  0  0  0
  186.4630  178.0470  144.8920 C   0  0  0  0  0  0  0  0  0  0  0  0
  189.0500  177.4230  145.8790 C   0  0  0  0  0  0  0  0  0  0  0  0
  183.5630  178.6110  142.5350 C   0  0  0  0  0  0  0  0  0  0  0  0
  185.1160  178.3710  144.3900 C   0  0  0  0  0  0  0  0  0  0  0  0
  184.8390  178.3040  143.0170 C   0  0  0  0  0  3  0  0  0  0  0  0
  183.2940  178.5400  141.1410 N   0  0  0  0  0  1  0  0  0  0  0  0
  184.0940  178.7500  145.2750 C   0  0  0  0  0  3  0  0  0  0  0  0
  182.5520  178.9870  143.4240 C   0  0  0  0  0  3  0  0  0  0  0  0
  182.8180  179.0560  144.7940 C   0  0  0  0  0  3  0  0  0  0  0  0
  1 13  2  0  0  0  0
  1  2  1  0  0  0  0
  2 18  2  0  0  0  0
  3  6  2  0  0  0  0
  4  1  1  0  0  0  0
  5 12  1  0  0  0  0
  5  8  2  0  0  0  0
  7  4  1  0  0  0  0
  7 14  2  0  0  0  0
  8  7  1  0  0  0  0
  9 10  1  0  0  0  0
 11  2  1  0  0  0  0
 11 17  2  0  0  0  0
 12 16  2  0  0  0  0
 13  3  1  0  0  0  0
 14 13  1  0  0  0  0
 15  9  1  0  0  0  0
 16  4  1  0  0  0  0
 17 15  1  0  0  0  0
 18  6  1  0  0  0  0
 18  9  1  0  0  0  0
 19 21  2  0  0  0  0
 19 24  1  0  0  0  0
 20 17  1  0  0  0  0
 20 23  2  0  0  0  0
 21 20  1  0  0  0  0
 22 19  1  0  0  0  0
 24 25  2  0  0  0  0
 25 23  1  0  0  0  0
M  END
>  <MODEL>
2

>  <REMARK>
 VINA RESULT:     -10.5      1.468      5.884
  Name = 
  1 active torsions:
  status: ('A' for Active; 'I' for Inactive)
    1  A    between atoms: C_6  and  C_23
                            x       y       z     vdW  Elec       q    Type
                         _______ _______ _______ _____ _____    ______ ____

>  <TORSDO>
F 1

$$$$
=
 OpenBabel10262419523D

 25 29  0  0  0  0  0  0  0  0999 V2000
  189.8370  177.2880  143.4500 C   0  0  0  0  0  0  0  0  0  0  0  0
  188.7520  177.6510  142.6510 C   0  0  0  0  0  0  0  0  0  0  0  0
  191.3280  177.1490  141.5550 C   0  0  0  0  0  3  0  0  0  0  0  0
  189.9090  177.1110  144.7750 N   0  0  0  0  0  0  0  0  0  0  0  0
  190.6940  176.6090  147.3420 C   0  0  0  0  0  3  0  0  0  0  0  0
  190.2550  177.5140  140.7210 C   0  0  0  0  0  3  0  0  0  0  0  0
  191.1950  176.7670  145.0100 C   0  0  0  0  0  0  0  0  0  0  0  0
  191.6350  176.5030  146.3050 C   0  0  0  0  0  3  0  0  0  0  0  0
  187.8590  178.1370  140.4350 N   0  0  0  0  0  0  0  0  0  0  0  0
  187.9900  178.2780  138.9930 C   0  0  0  0  0  1  0  0  0  0  0  0
  187.4530  177.9050  143.2010 N   0  0  0  0  0  0  0  0  0  0  0  0
  189.3600  176.9700  147.0690 C   0  0  0  0  0  3  0  0  0  0  0  0
  191.0800  177.0460  142.9220 C   0  0  0  0  0  0  0  0  0  0  0  0
  191.9630  176.7120  143.8920 N   0  0  0  0  0  0  0  0  0  0  0  0
  186.6100  178.3720  141.0340 N   0  0  0  0  0  2  0  0  0  0  0  0
  188.9700  177.2260  145.7480 C   0  0  0  0  0  3  0  0  0  0  0  0
  186.4400  178.2440  142.4550 C   0  0  0  0  0  0  0  0  0  0  0  0
  188.9700  177.7650  141.2620 C   0  0  0  0  0  0  0  0  0  0  0  0
  182.7240  178.8240  142.8320 C   0  0  0  0  0  0  0  0  0  0  0  0
  185.1210  178.4940  143.0650 C   0  0  0  0  0  0  0  0  0  0  0  0
  183.9770  178.5870  142.2600 C   0  0  0  0  0  3  0  0  0  0  0  0
  181.5710  178.9160  142.0060 N   0  0  0  0  0  1  0  0  0  0  0  0
  184.9920  178.6430  144.4550 C   0  0  0  0  0  3  0  0  0  0  0  0
  182.6060  178.9710  144.2170 C   0  0  0  0  0  3  0  0  0  0  0  0
  183.7400  178.8810  145.0280 C   0  0  0  0  0  3  0  0  0  0  0  0
  1  4  1  0  0  0  0
  2 11  1  0  0  0  0
  2  1  2  0  0  0  0
  3 13  2  0  0  0  0
  4  7  1  0  0  0  0
  4 16  1  0  0  0  0
  6 18  2  0  0  0  0
  6  3  1  0  0  0  0
  7  8  1  0  0  0  0
  8  5  2  0  0  0  0
  9 15  1  0  0  0  0
  9 18  1  0  0  0  0
 10  9  1  0  0  0  0
 12  5  1  0  0  0  0
 13  1  1  0  0  0  0
 13 14  1  0  0  0  0
 14  7  2  0  0  0  0
 15 17  1  0  0  0  0
 16 12  2  0  0  0  0
 17 20  1  0  0  0  0
 17 11  2  0  0  0  0
 18  2  1  0  0  0  0
 19 24  1  0  0  0  0
 20 23  2  0  0  0  0
 21 19  2  0  0  0  0
 21 20  1  0  0  0  0
 22 19  1  0  0  0  0
 23 25  1  0  0  0  0
 24 25  2  0  0  0  0
M  END
>  <MODEL>
3

>  <REMARK>
 VINA RESULT:     -10.2      1.602      6.382
  Name = 
  1 active torsions:
  status: ('A' for Active; 'I' for Inactive)
    1  A    between atoms: C_6  and  C_23
                            x       y       z     vdW  Elec       q    Type
                         _______ _______ _______ _____ _____    ______ ____

>  <TORSDO>
F 1

$$$$
=
 OpenBabel10262419523D

 25 29  0  0  0  0  0  0  0  0999 V2000
  185.3330  178.3400  144.4320 C   0  0  0  0  0  0  0  0  0  0  0  0
  186.6830  178.0600  144.2150 C   0  0  0  0  0  0  0  0  0  0  0  0
  185.6020  178.3320  146.8320 C   0  0  0  0  0  3  0  0  0  0  0  0
  184.3400  178.5250  143.5530 N   0  0  0  0  0  0  0  0  0  0  0  0
  181.9520  178.9890  142.3130 C   0  0  0  0  0  3  0  0  0  0  0  0
  186.9690  178.0490  146.6490 C   0  0  0  0  0  3  0  0  0  0  0  0
  183.2460  178.7640  144.3110 C   0  0  0  0  0  0  0  0  0  0  0  0
  182.0100  179.0050  143.7160 C   0  0  0  0  0  3  0  0  0  0  0  0
  188.9000  177.6250  145.1310 N   0  0  0  0  0  0  0  0  0  0  0  0
  189.8290  177.4570  146.2370 C   0  0  0  0  0  1  0  0  0  0  0  0
  187.2290  177.9230  142.8970 N   0  0  0  0  0  0  0  0  0  0  0  0
  183.1070  178.7380  141.5490 C   0  0  0  0  0  3  0  0  0  0  0  0
  184.8110  178.4710  145.6950 C   0  0  0  0  0  0  0  0  0  0  0  0
  183.4860  178.7400  145.6470 N   0  0  0  0  0  0  0  0  0  0  0  0
  189.3760  177.5020  143.8150 N   0  0  0  0  0  2  0  0  0  0  0  0
  184.3270  178.5020  142.1970 C   0  0  0  0  0  3  0  0  0  0  0  0
  188.4890  177.6620  142.6940 C   0  0  0  0  0  0  0  0  0  0  0  0
  187.5120  177.9130  145.3470 C   0  0  0  0  0  0  0  0  0  0  0  0
  188.8190  178.0120  138.9450 C   0  0  0  0  0  0  0  0  0  0  0  0
  189.0070  177.5290  141.3200 C   0  0  0  0  0  0  0  0  0  0  0  0
  188.3330  178.1340  140.2500 C   0  0  0  0  0  3  0  0  0  0  0  0
  188.1270  178.6290  137.8680 N   0  0  0  0  0  1  0  0  0  0  0  0
  190.1790  176.7990  141.0650 C   0  0  0  0  0  3  0  0  0  0  0  0
  189.9860  177.2820  138.7010 C   0  0  0  0  0  3  0  0  0  0  0  0
  190.6660  176.6760  139.7610 C   0  0  0  0  0  3  0  0  0  0  0  0
  1 13  1  0  0  0  0
  2  1  2  0  0  0  0
  2 18  1  0  0  0  0
  4  7  1  0  0  0  0
  4  1  1  0  0  0  0
  5  8  2  0  0  0  0
  6  3  1  0  0  0  0
  7 14  2  0  0  0  0
  8  7  1  0  0  0  0
  9 18  1  0  0  0  0
  9 10  1  0  0  0  0
 11  2  1  0  0  0  0
 12 16  2  0  0  0  0
 12  5  1  0  0  0  0
 13  3  2  0  0  0  0
 14 13  1  0  0  0  0
 15  9  1  0  0  0  0
 16  4  1  0  0  0  0
 17 11  2  0  0  0  0
 17 15  1  0  0  0  0
 18  6  2  0  0  0  0
 19 21  1  0  0  0  0
 20 17  1  0  0  0  0
 21 20  2  0  0  0  0
 22 19  1  0  0  0  0
 23 20  1  0  0  0  0
 24 19  2  0  0  0  0
 24 25  1  0  0  0  0
 25 23  2  0  0  0  0
M  END
>  <MODEL>
4

>  <REMARK>
 VINA RESULT:      -9.9      1.087      1.502
  Name = 
  1 active torsions:
  status: ('A' for Active; 'I' for Inactive)
    1  A    between atoms: C_6  and  C_23
                            x       y       z     vdW  Elec       q    Type
                         _______ _______ _______ _____ _____    ______ ____

>  <TORSDO>
F 1

$$$$
=
 OpenBabel10262419523D

 25 29  0  0  0  0  0  0  0  0999 V2000
  188.1700  177.5550  145.3840 C   0  0  0  0  0  0  0  0  0  0  0  0
  187.6020  177.8360  144.1400 C   0  0  0  0  0  0  0  0  0  0  0  0
  186.1160  178.0460  146.5570 C   0  0  0  0  0  3  0  0  0  0  0  0
  189.4120  177.1640  145.6950 N   0  0  0  0  0  0  0  0  0  0  0  0
  191.7050  176.3780  146.9510 C   0  0  0  0  0  3  0  0  0  0  0  0
  185.5130  178.3370  145.3190 C   0  0  0  0  0  3  0  0  0  0  0  0
  189.4100  177.0390  147.0410 C   0  0  0  0  0  0  0  0  0  0  0  0
  190.5600  176.6410  147.7190 C   0  0  0  0  0  3  0  0  0  0  0  0
  185.6590  178.5240  142.8370 N   0  0  0  0  0  0  0  0  0  0  0  0
  184.2720  178.9420  142.7120 C   0  0  0  0  0  1  0  0  0  0  0  0
  188.3490  177.7310  142.9210 N   0  0  0  0  0  0  0  0  0  0  0  0
  191.6790  176.5150  145.5490 C   0  0  0  0  0  3  0  0  0  0  0  0
  187.4530  177.6570  146.5500 C   0  0  0  0  0  0  0  0  0  0  0  0
  188.2180  177.3340  147.6190 N   0  0  0  0  0  0  0  0  0  0  0  0
  186.4440  178.4030  141.6790 N   0  0  0  0  0  2  0  0  0  0  0  0
  190.4960  176.9190  144.9160 C   0  0  0  0  0  3  0  0  0  0  0  0
  187.8190  177.9930  141.7610 C   0  0  0  0  0  0  0  0  0  0  0  0
  186.2490  178.2340  144.1120 C   0  0  0  0  0  0  0  0  0  0  0  0
  189.0630  178.5150  138.2300 C   0  0  0  0  0  0  0  0  0  0  0  0
  188.6260  177.8710  140.5330 C   0  0  0  0  0  0  0  0  0  0  0  0
  188.3020  178.6270  139.3970 C   0  0  0  0  0  3  0  0  0  0  0  0
  188.7250  179.2860  137.0840 N   0  0  0  0  0  1  0  0  0  0  0  0
  189.7280  177.0010  140.4840 C   0  0  0  0  0  3  0  0  0  0  0  0
  190.1570  177.6460  138.1900 C   0  0  0  0  0  3  0  0  0  0  0  0
  190.4890  176.8900  139.3170 C   0  0  0  0  0  3  0  0  0  0  0  0
  1  4  1  0  0  0  0
  1 13  1  0  0  0  0
  2  1  2  0  0  0  0
  4  7  1  0  0  0  0
  5  8  2  0  0  0  0
  6  3  1  0  0  0  0
  7 14  2  0  0  0  0
  7  8  1  0  0  0  0
  9 18  1  0  0  0  0
 10  9  1  0  0  0  0
 11  2  1  0  0  0  0
 12  5  1  0  0  0  0
 13  3  2  0  0  0  0
 13 14  1  0  0  0  0
 15 17  1  0  0  0  0
 15  9  1  0  0  0  0
 16 12  2  0  0  0  0
 16  4  1  0  0  0  0
 17 11  2  0  0  0  0
 18  2  1  0  0  0  0
 18  6  2  0  0  0  0
 19 21  1  0  0  0  0
 20 17  1  0  0  0  0
 21 20  2  0  0  0  0
 22 19  1  0  0  0  0
 23 20  1  0  0  0  0
 24 19  2  0  0  0  0
 24 25  1  0  0  0  0
 25 23  2  0  0  0  0
M  END
>  <MODEL>
5

>  <REMARK>
 VINA RESULT:      -9.9      1.362      4.353
  Name = 
  1 active torsions:
  status: ('A' for Active; 'I' for Inactive)
    1  A    between atoms: C_6  and  C_23
                            x       y       z     vdW  Elec       q    Type
                         _______ _______ _______ _____ _____    ______ ____

>  <TORSDO>
F 1

$$$$
=
 OpenBabel10262419523D

 25 29  0  0  0  0  0  0  0  0999 V2000
  186.0110  178.4320  144.8770 C   0  0  0  0  0  0  0  0  0  0  0  0
  185.9600  178.4800  143.4830 C   0  0  0  0  0  0  0  0  0  0  0  0
  183.6740  179.0030  145.0930 C   0  0  0  0  0  3  0  0  0  0  0  0
  187.0370  178.1590  145.6920 N   0  0  0  0  0  0  0  0  0  0  0  0
  188.6730  177.7010  147.8300 C   0  0  0  0  0  3  0  0  0  0  0  0
  183.5880  179.0600  143.6890 C   0  0  0  0  0  3  0  0  0  0  0  0
  186.5240  178.2530  146.9400 C   0  0  0  0  0  0  0  0  0  0  0  0
  187.3260  178.0260  148.0560 C   0  0  0  0  0  3  0  0  0  0  0  0
  184.6650  178.8520  141.4510 N   0  0  0  0  0  0  0  0  0  0  0  0
  183.4340  179.1730  140.7460 C   0  0  0  0  0  1  0  0  0  0  0  0
  187.1110  178.2170  142.6700 N   0  0  0  0  0  0  0  0  0  0  0  0
  189.1810  177.6090  146.5200 C   0  0  0  0  0  3  0  0  0  0  0  0
  184.9080  178.6840  145.6540 C   0  0  0  0  0  0  0  0  0  0  0  0
  185.2060  178.5770  146.9700 N   0  0  0  0  0  0  0  0  0  0  0  0
  185.8280  178.5840  140.7090 N   0  0  0  0  0  2  0  0  0  0  0  0
  188.3310  177.8460  145.4310 C   0  0  0  0  0  3  0  0  0  0  0  0
  187.0640  178.2620  141.3690 C   0  0  0  0  0  0  0  0  0  0  0  0
  184.7240  178.8000  142.8830 C   0  0  0  0  0  0  0  0  0  0  0  0
  189.4290  177.9800  138.4350 C   0  0  0  0  0  0  0  0  0  0  0  0
  188.2730  177.9850  140.5730 C   0  0  0  0  0  0  0  0  0  0  0  0
  188.2850  178.2420  139.1950 C   0  0  0  0  0  3  0  0  0  0  0  0
  189.4310  178.2440  137.0380 N   0  0  0  0  0  1  0  0  0  0  0  0
  189.4260  177.4620  141.1820 C   0  0  0  0  0  3  0  0  0  0  0  0
  190.5720  177.4600  139.0490 C   0  0  0  0  0  3  0  0  0  0  0  0
  190.5700  177.2010  140.4230 C   0  0  0  0  0  3  0  0  0  0  0  0
  1 13  1  0  0  0  0
  1  4  1  0  0  0  0
  2  1  2  0  0  0  0
  3 13  2  0  0  0  0
  4  7  1  0  0  0  0
  5  8  2  0  0  0  0
  6  3  1  0  0  0  0
  7 14  2  0  0  0  0
  7  8  1  0  0  0  0
  9 18  1  0  0  0  0
 10  9  1  0  0  0  0
 11  2  1  0  0  0  0
 12  5  1  0  0  0  0
 13 14  1  0  0  0  0
 15 17  1  0  0  0  0
 15  9  1  0  0  0  0
 16  4  1  0  0  0  0
 16 12  2  0  0  0  0
 17 11  2  0  0  0  0
 18  2  1  0  0  0  0
 18  6  2  0  0  0  0
 19 24  2  0  0  0  0
 19 21  1  0  0  0  0
 20 23  1  0  0  0  0
 20 17  1  0  0  0  0
 21 20  2  0  0  0  0
 22 19  1  0  0  0  0
 24 25  1  0  0  0  0
 25 23  2  0  0  0  0
M  END
>  <MODEL>
6

>  <REMARK>
 VINA RESULT:      -9.9      1.430      4.198
  Name = 
  1 active torsions:
  status: ('A' for Active; 'I' for Inactive)
    1  A    between atoms: C_6  and  C_23
                            x       y       z     vdW  Elec       q    Type
                         _______ _______ _______ _____ _____    ______ ____

>  <TORSDO>
F 1

$$$$
=
 OpenBabel10262419523D

 25 29  0  0  0  0  0  0  0  0999 V2000
  186.1600  178.3820  142.0890 C   0  0  0  0  0  0  0  0  0  0  0  0
  187.5110  178.0560  142.2030 C   0  0  0  0  0  0  0  0  0  0  0  0
  186.2850  178.5390  139.6820 C   0  0  0  0  0  3  0  0  0  0  0  0
  185.2260  178.5270  143.0380 N   0  0  0  0  0  0  0  0  0  0  0  0
  182.9290  178.9560  144.4500 C   0  0  0  0  0  3  0  0  0  0  0  0
  187.6520  178.2120  139.7620 C   0  0  0  0  0  3  0  0  0  0  0  0
  184.0950  178.8440  142.3670 C   0  0  0  0  0  0  0  0  0  0  0  0
  182.9040  179.0700  143.0510 C   0  0  0  0  0  3  0  0  0  0  0  0
  189.6580  177.6360  141.1260 N   0  0  0  0  0  0  0  0  0  0  0  0
  190.5140  177.5260  139.9560 C   0  0  0  0  0  1  0  0  0  0  0  0
  188.1310  177.8120  143.4730 N   0  0  0  0  0  0  0  0  0  0  0  0
  184.1200  178.6240  145.1240 C   0  0  0  0  0  3  0  0  0  0  0  0
  185.5670  178.6150  140.8730 C   0  0  0  0  0  0  0  0  0  0  0  0
  184.2550  178.9110  141.0210 N   0  0  0  0  0  0  0  0  0  0  0  0
  190.2070  177.4090  142.3990 N   0  0  0  0  0  2  0  0  0  0  0  0
  185.2920  178.4060  144.3880 C   0  0  0  0  0  3  0  0  0  0  0  0
  189.3930  177.5070  143.5790 C   0  0  0  0  0  0  0  0  0  0  0  0
  188.2670  177.9710  141.0160 C   0  0  0  0  0  0  0  0  0  0  0  0
  189.8780  177.4540  147.3270 C   0  0  0  0  0  0  0  0  0  0  0  0
  189.9880  177.2650  144.9060 C   0  0  0  0  0  0  0  0  0  0  0  0
  189.3190  177.6810  146.0660 C   0  0  0  0  0  3  0  0  0  0  0  0
  189.1910  177.8800  148.4960 N   0  0  0  0  0  1  0  0  0  0  0  0
  191.2270  176.6160  145.0270 C   0  0  0  0  0  3  0  0  0  0  0  0
  191.1120  176.8080  147.4380 C   0  0  0  0  0  3  0  0  0  0  0  0
  191.7870  176.3890  146.2880 C   0  0  0  0  0  3  0  0  0  0  0  0
  1  2  1  0  0  0  0
  1  4  1  0  0  0  0
  2 11  1  0  0  0  0
  3  6  2  0  0  0  0
  3 13  1  0  0  0  0
  4 16  1  0  0  0  0
  5 12  1  0  0  0  0
  6 18  1  0  0  0  0
  7  4  1  0  0  0  0
  7  8  1  0  0  0  0
  8  5  2  0  0  0  0
  9 15  1  0  0  0  0
 10  9  1  0  0  0  0
 11 17  2  0  0  0  0
 13 14  1  0  0  0  0
 13  1  2  0  0  0  0
 14  7  2  0  0  0  0
 15 17  1  0  0  0  0
 16 12  2  0  0  0  0
 17 20  1  0  0  0  0
 18  9  1  0  0  0  0
 18  2  2  0  0  0  0
 19 24  1  0  0  0  0
 19 22  1  0  0  0  0
 20 23  2  0  0  0  0
 20 21  1  0  0  0  0
 21 19  2  0  0  0  0
 23 25  1  0  0  0  0
 25 24  2  0  0  0  0
M  END
>  <MODEL>
7

>  <REMARK>
 VINA RESULT:      -9.9      1.713      5.195
  Name = 
  1 active torsions:
  status: ('A' for Active; 'I' for Inactive)
    1  A    between atoms: C_6  and  C_23
                            x       y       z     vdW  Elec       q    Type
                         _______ _______ _______ _____ _____    ______ ____

>  <TORSDO>
F 1

$$$$
=
 OpenBabel10262419523D

 25 29  0  0  0  0  0  0  0  0999 V2000
  186.7530  178.3270  141.1110 C   0  0  0  0  0  0  0  0  0  0  0  0
  186.4080  178.3260  142.4630 C   0  0  0  0  0  0  0  0  0  0  0  0
  184.5220  178.9500  140.4270 C   0  0  0  0  0  3  0  0  0  0  0  0
  187.9260  178.0630  140.5220 N   0  0  0  0  0  0  0  0  0  0  0  0
  189.9740  177.6520  138.7630 C   0  0  0  0  0  3  0  0  0  0  0  0
  184.1400  178.9580  141.7820 C   0  0  0  0  0  3  0  0  0  0  0  0
  187.6910  178.2130  139.1990 C   0  0  0  0  0  0  0  0  0  0  0  0
  188.7100  178.0130  138.2700 C   0  0  0  0  0  3  0  0  0  0  0  0
  184.7140  178.6480  144.1880 N   0  0  0  0  0  0  0  0  0  0  0  0
  183.3660  178.9670  144.6280 C   0  0  0  0  0  1  0  0  0  0  0  0
  187.3560  178.0120  143.4910 N   0  0  0  0  0  0  0  0  0  0  0  0
  190.1910  177.5030  140.1470 C   0  0  0  0  0  3  0  0  0  0  0  0
  185.8440  178.6280  140.1280 C   0  0  0  0  0  0  0  0  0  0  0  0
  186.4140  178.5630  138.9030 N   0  0  0  0  0  0  0  0  0  0  0  0
  185.6900  178.3310  145.1480 N   0  0  0  0  0  2  0  0  0  0  0  0
  189.1320  177.7180  141.0390 C   0  0  0  0  0  3  0  0  0  0  0  0
  187.0340  178.0110  144.7530 C   0  0  0  0  0  0  0  0  0  0  0  0
  185.0760  178.6480  142.8000 C   0  0  0  0  0  0  0  0  0  0  0  0
  190.3350  177.1280  146.3680 C   0  0  0  0  0  0  0  0  0  0  0  0
  188.0440  177.6810  145.7750 C   0  0  0  0  0  0  0  0  0  0  0  0
  189.3740  177.4410  145.4030 C   0  0  0  0  0  3  0  0  0  0  0  0
  191.6810  176.8860  145.9780 N   0  0  0  0  0  1  0  0  0  0  0  0
  187.6890  177.6030  147.1320 C   0  0  0  0  0  3  0  0  0  0  0  0
  189.9730  177.0520  147.7160 C   0  0  0  0  0  3  0  0  0  0  0  0
  188.6500  177.2900  148.0970 C   0  0  0  0  0  3  0  0  0  0  0  0
  1  2  1  0  0  0  0
  2 18  2  0  0  0  0
  2 11  1  0  0  0  0
  3  6  2  0  0  0  0
  4 16  1  0  0  0  0
  4  1  1  0  0  0  0
  5 12  1  0  0  0  0
  6 18  1  0  0  0  0
  7  4  1  0  0  0  0
  8  5  2  0  0  0  0
  8  7  1  0  0  0  0
  9 10  1  0  0  0  0
  9 15  1  0  0  0  0
 11 17  2  0  0  0  0
 12 16  2  0  0  0  0
 13  3  1  0  0  0  0
 13  1  2  0  0  0  0
 14  7  2  0  0  0  0
 14 13  1  0  0  0  0
 17 15  1  0  0  0  0
 17 20  1  0  0  0  0
 18  9  1  0  0  0  0
 19 24  1  0  0  0  0
 20 23  2  0  0  0  0
 21 20  1  0  0  0  0
 21 19  2  0  0  0  0
 22 19  1  0  0  0  0
 23 25  1  0  0  0  0
 24 25  2  0  0  0  0
M  END
>  <MODEL>
8

>  <REMARK>
 VINA RESULT:      -9.9      1.378      6.652
  Name = 
  1 active torsions:
  status: ('A' for Active; 'I' for Inactive)
    1  A    between atoms: C_6  and  C_23
                            x       y       z     vdW  Elec       q    Type
                         _______ _______ _______ _____ _____    ______ ____

>  <TORSDO>
F 1

$$$$
=
 OpenBabel10262419523D

 25 29  0  0  0  0  0  0  0  0999 V2000
  188.3580  177.5820  144.4150 C   0  0  0  0  0  0  0  0  0  0  0  0
  188.1720  177.7350  143.0400 C   0  0  0  0  0  0  0  0  0  0  0  0
  186.1010  178.2840  144.9110 C   0  0  0  0  0  3  0  0  0  0  0  0
  189.4380  177.1830  145.0990 N   0  0  0  0  0  0  0  0  0  0  0  0
  191.2420  176.4650  147.0190 C   0  0  0  0  0  3  0  0  0  0  0  0
  185.8800  178.4500  143.5310 C   0  0  0  0  0  3  0  0  0  0  0  0
  189.0600  177.2190  146.3960 C   0  0  0  0  0  0  0  0  0  0  0  0
  189.9510  176.8600  147.4050 C   0  0  0  0  0  3  0  0  0  0  0  0
  186.7110  178.3370  141.1830 N   0  0  0  0  0  0  0  0  0  0  0  0
  185.4420  178.7880  140.6340 C   0  0  0  0  0  1  0  0  0  0  0  0
  189.2140  177.4580  142.0960 N   0  0  0  0  0  0  0  0  0  0  0  0
  191.6090  176.4370  145.6600 C   0  0  0  0  0  3  0  0  0  0  0  0
  187.3590  177.8470  145.3180 C   0  0  0  0  0  0  0  0  0  0  0  0
  187.7780  177.6250  146.5850 N   0  0  0  0  0  0  0  0  0  0  0  0
  187.7710  178.0500  140.3090 N   0  0  0  0  0  2  0  0  0  0  0  0
  190.6730  176.8070  144.6830 C   0  0  0  0  0  3  0  0  0  0  0  0
  189.0400  177.6010  140.8130 C   0  0  0  0  0  0  0  0  0  0  0  0
  186.9090  178.1770  142.5950 C   0  0  0  0  0  0  0  0  0  0  0  0
  192.5220  177.0920  139.4320 C   0  0  0  0  0  0  0  0  0  0  0  0
  190.1420  177.3050  139.8780 C   0  0  0  0  0  0  0  0  0  0  0  0
  191.4730  177.3710  140.3130 C   0  0  0  0  0  3  0  0  0  0  0  0
  193.8670  177.1620  139.8830 N   0  0  0  0  0  1  0  0  0  0  0  0
  189.8740  176.9540  138.5460 C   0  0  0  0  0  3  0  0  0  0  0  0
  192.2460  176.7430  138.1060 C   0  0  0  0  0  3  0  0  0  0  0  0
  190.9220  176.6740  137.6640 C   0  0  0  0  0  3  0  0  0  0  0  0
  1  4  1  0  0  0  0
  1 13  1  0  0  0  0
  2  1  2  0  0  0  0
  3 13  2  0  0  0  0
  4  7  1  0  0  0  0
  5  8  2  0  0  0  0
  6  3  1  0  0  0  0
  7 14  2  0  0  0  0
  7  8  1  0  0  0  0
  9 18  1  0  0  0  0
 10  9  1  0  0  0  0
 11  2  1  0  0  0  0
 12  5  1  0  0  0  0
 13 14  1  0  0  0  0
 15 17  1  0  0  0  0
 15  9  1  0  0  0  0
 16  4  1  0  0  0  0
 16 12  2  0  0  0  0
 17 11  2  0  0  0  0
 18  2  1  0  0  0  0
 18  6  2  0  0  0  0
 19 22  1  0  0  0  0
 19 21  1  0  0  0  0
 20 21  2  0  0  0  0
 20 17  1  0  0  0  0
 23 20  1  0  0  0  0
 24 19  2  0  0  0  0
 25 24  1  0  0  0  0
 25 23  2  0  0  0  0
M  END
>  <MODEL>
9

>  <REMARK>
 VINA RESULT:      -9.8      1.788      4.663
  Name = 
  1 active torsions:
  status: ('A' for Active; 'I' for Inactive)
    1  A    between atoms: C_6  and  C_23
                            x       y       z     vdW  Elec       q    Type
                         _______ _______ _______ _____ _____    ______ ____

>  <TORSDO>
F 1

$$$$
