=
 OpenBabel10262422083D

 43 48  0  0  1  0  0  0  0  0999 V2000
  185.0510  178.6100  145.7960 C   0  0  0  0  0  0  0  0  0  0  0  0
  182.4790  178.6900  141.3170 C   0  0  0  0  0  0  0  0  0  0  0  0
  184.3270  178.4280  139.0650 C   0  0  0  0  0  0  0  0  0  0  0  0
  183.3680  178.7890  144.0380 C   0  0  0  0  0  0  0  0  0  0  0  0
  186.0300  178.1650  144.8000 C   0  0  0  0  0  3  0  0  0  0  0  0
  185.3950  178.7350  147.0670 C   0  0  0  0  0  1  0  0  0  0  0  0
  184.2710  178.4100  143.1030 C   0  0  0  0  0  0  0  0  0  0  0  0
  183.7470  178.9010  145.3840 O   0  0  0  0  0  0  0  0  0  0  0  0
  185.6500  178.0670  143.5250 C   0  0  0  0  0  3  0  0  0  0  0  0
  185.0640  179.1220  140.5580 S   0  0  0  0  0  0  0  0  0  0  0  0
  183.8930  178.2430  141.6470 C   0  0  2  0  0  3  0  0  0  0  0  0
  181.5570  179.0460  142.4130 C   0  0  0  0  0  3  0  0  0  0  0  0
  182.0670  178.7130  140.0330 C   0  0  1  0  0  3  0  0  0  0  0  0
  182.9980  178.3800  138.9330 C   0  0  0  0  0  3  0  0  0  0  0  0
  181.9740  179.0900  143.6750 C   0  0  0  0  0  3  0  0  0  0  0  0
  185.1870  177.9220  137.9820 C   0  0  0  0  0  0  0  0  0  0  0  0
  186.5420  178.3670  137.8820 N   0  0  0  0  0  2  0  0  0  0  0  0
  184.7250  177.1000  137.1450 O   0  0  0  0  0  0  0  0  0  0  0  0
  187.4580  177.9100  136.8470 C   0  0  1  0  0  3  0  0  0  0  0  0
  188.2760  178.9530  136.4570 F   0  0  0  0  0  0  0  0  0  0  0  0
  188.3210  176.7880  137.3980 C   0  0  0  0  0  2  0  0  0  0  0  0
  189.5080  177.3370  138.0390 N   0  0  0  0  0  0  0  0  0  0  0  0
  190.8470  176.3090  139.6690 O   0  0  0  0  0  0  0  0  0  0  0  0
  190.6500  176.7540  137.3750 C   0  0  0  0  0  2  0  0  0  0  0  0
  189.5560  176.7900  139.3880 C   0  0  1  0  0  3  0  0  0  0  0  0
  191.3910  175.9710  138.4270 C   0  0  0  0  0  2  0  0  0  0  0  0
  189.1630  177.8420  140.3820 C   0  0  0  0  0  0  0  0  0  0  0  0
  188.6880  178.9350  139.9690 O   0  0  0  0  0  0  0  0  0  0  0  0
  189.2840  177.5910  141.8320 C   0  0  0  0  0  0  0  0  0  0  0  0
  188.8470  176.1850  143.7690 C   0  0  0  0  0  3  0  0  0  0  0  0
  190.0650  178.2600  144.0360 C   0  0  0  0  0  3  0  0  0  0  0  0
  189.5140  177.1000  144.5880 C   0  0  0  0  0  3  0  0  0  0  0  0
  189.9510  178.5030  142.6640 C   0  0  0  0  0  3  0  0  0  0  0  0
  188.7320  176.4290  142.3960 C   0  0  0  0  0  3  0  0  0  0  0  0
  180.6480  179.0520  139.6750 C   0  0  0  0  0  2  0  0  0  0  0  0
  180.1630  180.7420  136.3120 C   0  0  0  0  0  3  0  0  0  0  0  0
  180.5540  182.0550  136.6000 C   0  0  0  0  0  0  0  0  0  0  0  0
  180.9860  181.4080  138.9030 C   0  0  0  0  0  3  0  0  0  0  0  0
  180.1810  179.7640  137.3120 C   0  0  0  0  0  3  0  0  0  0  0  0
  180.5900  180.0980  138.6100 C   0  0  0  0  0  0  0  0  0  0  0  0
  180.9670  182.3840  137.9030 C   0  0  0  0  0  3  0  0  0  0  0  0
  180.8880  184.3710  135.7910 C   0  0  0  0  0  1  0  0  0  0  0  0
  180.5260  183.0110  135.5790 O   0  0  0  0  0  0  0  0  0  0  0  0
  1  6  1  0  0  0  0
  2 11  1  0  0  0  0
  2 12  2  0  0  0  0
  3 10  1  0  0  0  0
  4  8  1  0  0  0  0
  5  1  2  0  0  0  0
  7  9  2  0  0  0  0
  7  4  1  0  0  0  0
  8  1  1  0  0  0  0
  9  5  1  0  0  0  0
 11 10  1  6  0  0  0
 11  7  1  0  0  0  0
 12 15  1  0  0  0  0
 13 35  1  1  0  0  0
 13  2  1  0  0  0  0
 14  3  2  0  0  0  0
 14 13  1  0  0  0  0
 15  4  2  0  0  0  0
 16  3  1  0  0  0  0
 17 16  1  0  0  0  0
 18 16  2  0  0  0  0
 19 20  1  1  0  0  0
 19 21  1  0  0  0  0
 19 17  1  0  0  0  0
 21 22  1  0  0  0  0
 22 25  1  0  0  0  0
 24 22  1  0  0  0  0
 24 26  1  0  0  0  0
 25 23  1  0  0  0  0
 25 27  1  1  0  0  0
 26 23  1  0  0  0  0
 27 29  1  0  0  0  0
 28 27  2  0  0  0  0
 29 34  2  0  0  0  0
 29 33  1  0  0  0  0
 30 32  2  0  0  0  0
 31 32  1  0  0  0  0
 33 31  2  0  0  0  0
 34 30  1  0  0  0  0
 36 37  2  0  0  0  0
 36 39  1  0  0  0  0
 37 41  1  0  0  0  0
 39 40  2  0  0  0  0
 40 38  1  0  0  0  0
 40 35  1  0  0  0  0
 41 38  2  0  0  0  0
 43 42  1  0  0  0  0
 43 37  1  0  0  0  0
M  END
>  <MODEL>
1

>  <REMARK>
 VINA RESULT:      -9.9      0.000      0.000
  Name = 
  9 active torsions:
  status: ('A' for Active; 'I' for Inactive)
    1  A    between atoms: C_1  and  C_34
    2  A    between atoms: C_1  and  C_35
    3  A    between atoms: C_2  and  C_13
    4  A    between atoms: C_3  and  N_4
    5  A    between atoms: C_3  and  C_12
    6  A    between atoms: N_6  and  C_12
    7  A    between atoms: C_11  and  C_14
    8  A    between atoms: C_14  and  C_22
    9  A    between atoms: C_19  and  O_37
                            x       y       z     vdW  Elec       q    Type
                         _______ _______ _______ _____ _____    ______ ____

>  <TORSDO>
F 9

$$$$
=
 OpenBabel10262422083D

 43 48  0  0  1  0  0  0  0  0999 V2000
  187.7450  178.0130  146.7210 C   0  0  0  0  0  0  0  0  0  0  0  0
  183.8610  178.5730  143.3640 C   0  0  0  0  0  0  0  0  0  0  0  0
  184.8780  178.6880  140.6230 C   0  0  0  0  0  0  0  0  0  0  0  0
  185.5830  178.3500  145.6400 C   0  0  0  0  0  0  0  0  0  0  0  0
  188.3470  177.7450  145.4120 C   0  0  0  0  0  3  0  0  0  0  0  0
  188.4830  177.9850  147.8190 C   0  0  0  0  0  1  0  0  0  0  0  0
  186.1340  178.1360  144.4220 C   0  0  0  0  0  0  0  0  0  0  0  0
  186.3780  178.3000  146.7950 O   0  0  0  0  0  0  0  0  0  0  0  0
  187.5740  177.8000  144.3260 C   0  0  0  0  0  3  0  0  0  0  0  0
  186.0610  179.2100  141.8810 S   0  0  0  0  0  0  0  0  0  0  0  0
  185.3040  178.1470  143.1570 C   0  0  2  0  0  3  0  0  0  0  0  0
  183.3440  178.7430  144.7360 C   0  0  0  0  0  3  0  0  0  0  0  0
  183.0540  178.7470  142.2960 C   0  0  1  0  0  3  0  0  0  0  0  0
  183.5780  178.6010  140.9210 C   0  0  0  0  0  3  0  0  0  0  0  0
  184.1480  178.6380  145.7900 C   0  0  0  0  0  3  0  0  0  0  0  0
  185.3390  178.3650  139.2630 C   0  0  0  0  0  0  0  0  0  0  0  0
  186.7400  178.3180  138.9770 N   0  0  0  0  0  2  0  0  0  0  0  0
  184.4980  178.1330  138.3520 O   0  0  0  0  0  0  0  0  0  0  0  0
  187.2770  178.0000  137.6620 C   0  0  1  0  0  3  0  0  0  0  0  0
  188.1010  179.0250  137.2380 F   0  0  0  0  0  0  0  0  0  0  0  0
  188.0880  176.7190  137.7470 C   0  0  0  0  0  2  0  0  0  0  0  0
  189.4970  177.0290  137.9420 N   0  0  0  0  0  0  0  0  0  0  0  0
  191.0930  175.7350  139.0750 O   0  0  0  0  0  0  0  0  0  0  0  0
  190.2330  176.2680  136.9590 C   0  0  0  0  0  2  0  0  0  0  0  0
  189.8900  176.4470  139.2180 C   0  0  1  0  0  3  0  0  0  0  0  0
  191.1270  175.3380  137.7350 C   0  0  0  0  0  2  0  0  0  0  0  0
  190.0400  177.5250  140.2490 C   0  0  0  0  0  0  0  0  0  0  0  0
  189.7300  178.7120  139.9510 O   0  0  0  0  0  0  0  0  0  0  0  0
  190.5010  177.2040  141.6140 C   0  0  0  0  0  0  0  0  0  0  0  0
  190.6480  175.6410  143.4720 C   0  0  0  0  0  3  0  0  0  0  0  0
  191.6720  177.8280  143.6520 C   0  0  0  0  0  3  0  0  0  0  0  0
  191.3790  176.5790  144.2070 C   0  0  0  0  0  3  0  0  0  0  0  0
  191.2350  178.1380  142.3600 C   0  0  0  0  0  3  0  0  0  0  0  0
  190.2110  175.9520  142.1810 C   0  0  0  0  0  3  0  0  0  0  0  0
  181.5970  179.0700  142.4630 C   0  0  0  0  0  2  0  0  0  0  0  0
  180.0790  177.7610  139.2410 C   0  0  0  0  0  3  0  0  0  0  0  0
  179.5740  178.9370  138.6720 C   0  0  0  0  0  0  0  0  0  0  0  0
  180.3740  180.1940  140.5920 C   0  0  0  0  0  3  0  0  0  0  0  0
  180.7280  177.7980  140.4790 C   0  0  0  0  0  3  0  0  0  0  0  0
  180.8730  179.0150  141.1580 C   0  0  0  0  0  0  0  0  0  0  0  0
  179.7260  180.1560  139.3550 C   0  0  0  0  0  3  0  0  0  0  0  0
  179.6110  178.5160  136.2330 C   0  0  0  0  0  1  0  0  0  0  0  0
  178.9310  178.8680  137.4320 O   0  0  0  0  0  0  0  0  0  0  0  0
  1  8  1  0  0  0  0
  1  6  1  0  0  0  0
  2 12  2  0  0  0  0
  3 14  2  0  0  0  0
  3 10  1  0  0  0  0
  4 15  2  0  0  0  0
  4  8  1  0  0  0  0
  5  1  2  0  0  0  0
  7  4  1  0  0  0  0
  9  7  2  0  0  0  0
  9  5  1  0  0  0  0
 11 10  1  6  0  0  0
 11  2  1  0  0  0  0
 11  7  1  0  0  0  0
 12 15  1  0  0  0  0
 13 35  1  1  0  0  0
 13  2  1  0  0  0  0
 14 13  1  0  0  0  0
 16  3  1  0  0  0  0
 17 16  1  0  0  0  0
 18 16  2  0  0  0  0
 19 20  1  1  0  0  0
 19 21  1  0  0  0  0
 19 17  1  0  0  0  0
 21 22  1  0  0  0  0
 22 25  1  0  0  0  0
 23 25  1  0  0  0  0
 24 26  1  0  0  0  0
 24 22  1  0  0  0  0
 25 27  1  1  0  0  0
 26 23  1  0  0  0  0
 27 29  1  0  0  0  0
 28 27  2  0  0  0  0
 29 34  2  0  0  0  0
 29 33  1  0  0  0  0
 30 32  2  0  0  0  0
 31 32  1  0  0  0  0
 33 31  2  0  0  0  0
 34 30  1  0  0  0  0
 36 39  1  0  0  0  0
 37 36  2  0  0  0  0
 37 41  1  0  0  0  0
 38 40  1  0  0  0  0
 39 40  2  0  0  0  0
 40 35  1  0  0  0  0
 41 38  2  0  0  0  0
 42 43  1  0  0  0  0
 43 37  1  0  0  0  0
M  END
>  <MODEL>
2

>  <REMARK>
 VINA RESULT:      -9.0      1.836      2.459
  Name = 
  9 active torsions:
  status: ('A' for Active; 'I' for Inactive)
    1  A    between atoms: C_1  and  C_34
    2  A    between atoms: C_1  and  C_35
    3  A    between atoms: C_2  and  C_13
    4  A    between atoms: C_3  and  N_4
    5  A    between atoms: C_3  and  C_12
    6  A    between atoms: N_6  and  C_12
    7  A    between atoms: C_11  and  C_14
    8  A    between atoms: C_14  and  C_22
    9  A    between atoms: C_19  and  O_37
                            x       y       z     vdW  Elec       q    Type
                         _______ _______ _______ _____ _____    ______ ____

>  <TORSDO>
F 9

$$$$
=
 OpenBabel10262422083D

 43 48  0  0  1  0  0  0  0  0999 V2000
  191.5110  176.3590  147.0970 C   0  0  0  0  0  0  0  0  0  0  0  0
  187.1510  177.8300  144.7500 C   0  0  0  0  0  0  0  0  0  0  0  0
  187.6270  178.3110  141.9040 C   0  0  0  0  0  0  0  0  0  0  0  0
  189.2390  177.0700  146.5560 C   0  0  0  0  0  0  0  0  0  0  0  0
  191.8110  176.2610  145.6660 C   0  0  0  0  0  3  0  0  0  0  0  0
  192.4370  176.0780  147.9990 C   0  0  0  0  0  1  0  0  0  0  0  0
  189.5140  177.0150  145.2320 C   0  0  0  0  0  0  0  0  0  0  0  0
  190.2300  176.7530  147.4980 O   0  0  0  0  0  0  0  0  0  0  0  0
  190.8550  176.5690  144.7870 C   0  0  0  0  0  3  0  0  0  0  0  0
  189.0850  178.5030  142.9480 S   0  0  0  0  0  0  0  0  0  0  0  0
  188.4630  177.3140  144.1850 C   0  0  2  0  0  3  0  0  0  0  0  0
  186.9340  177.8130  146.2100 C   0  0  0  0  0  3  0  0  0  0  0  0
  186.1810  178.2550  143.9130 C   0  0  1  0  0  3  0  0  0  0  0  0
  186.4080  178.2960  142.4530 C   0  0  0  0  0  3  0  0  0  0  0  0
  187.9070  177.4580  147.0440 C   0  0  0  0  0  3  0  0  0  0  0  0
  187.7730  178.1820  140.4460 C   0  0  0  0  0  0  0  0  0  0  0  0
  188.9350  177.5530  139.8990 N   0  0  0  0  0  2  0  0  0  0  0  0
  186.8740  178.6280  139.6810 O   0  0  0  0  0  0  0  0  0  0  0  0
  189.1520  177.3790  138.4700 C   0  0  1  0  0  3  0  0  0  0  0  0
  189.6060  178.5640  137.9220 F   0  0  0  0  0  0  0  0  0  0  0  0
  190.1990  176.3020  138.2470 C   0  0  0  0  0  2  0  0  0  0  0  0
  189.9240  175.5810  137.0120 N   0  0  0  0  0  0  0  0  0  0  0  0
  188.6240  176.3110  135.2000 O   0  0  0  0  0  0  0  0  0  0  0  0
  190.8170  176.1130  136.0090 C   0  0  0  0  0  2  0  0  0  0  0  0
  188.5970  175.9870  136.5680 C   0  0  1  0  0  3  0  0  0  0  0  0
  189.9370  176.7140  134.9450 C   0  0  0  0  0  2  0  0  0  0  0  0
  187.6120  174.8860  136.8250 C   0  0  0  0  0  0  0  0  0  0  0  0
  188.0110  173.6890  136.8310 O   0  0  0  0  0  0  0  0  0  0  0  0
  186.1970  175.1940  137.1120 C   0  0  0  0  0  0  0  0  0  0  0  0
  183.9270  174.4410  137.5590 C   0  0  0  0  0  3  0  0  0  0  0  0
  184.4200  176.8100  137.4950 C   0  0  0  0  0  3  0  0  0  0  0  0
  183.5040  175.7680  137.6650 C   0  0  0  0  0  3  0  0  0  0  0  0
  185.7610  176.5240  137.2200 C   0  0  0  0  0  3  0  0  0  0  0  0
  185.2690  174.1550  137.2840 C   0  0  0  0  0  3  0  0  0  0  0  0
  184.8360  178.6770  144.4290 C   0  0  0  0  0  2  0  0  0  0  0  0
  183.1820  178.2460  141.0410 C   0  0  0  0  0  3  0  0  0  0  0  0
  181.8620  178.6160  141.3250 C   0  0  0  0  0  0  0  0  0  0  0  0
  182.4830  179.0050  143.6420 C   0  0  0  0  0  3  0  0  0  0  0  0
  184.1510  178.2540  142.0500 C   0  0  0  0  0  3  0  0  0  0  0  0
  183.8010  178.6300  143.3530 C   0  0  0  0  0  0  0  0  0  0  0  0
  181.5160  178.9970  142.6330 C   0  0  0  0  0  3  0  0  0  0  0  0
  181.2810  178.5550  138.9200 C   0  0  0  0  0  1  0  0  0  0  0  0
  180.9160  178.5990  140.2940 O   0  0  0  0  0  0  0  0  0  0  0  0
  1  8  1  0  0  0  0
  1  6  1  0  0  0  0
  2 12  2  0  0  0  0
  3 14  2  0  0  0  0
  3 10  1  0  0  0  0
  4 15  2  0  0  0  0
  4  8  1  0  0  0  0
  5  1  2  0  0  0  0
  7  4  1  0  0  0  0
  9  7  2  0  0  0  0
  9  5  1  0  0  0  0
 11 10  1  6  0  0  0
 11  2  1  0  0  0  0
 11  7  1  0  0  0  0
 12 15  1  0  0  0  0
 13 35  1  6  0  0  0
 13  2  1  0  0  0  0
 14 13  1  0  0  0  0
 16  3  1  0  0  0  0
 17 16  1  0  0  0  0
 18 16  2  0  0  0  0
 19 20  1  1  0  0  0
 19 17  1  0  0  0  0
 21 19  1  0  0  0  0
 22 21  1  0  0  0  0
 23 25  1  0  0  0  0
 24 22  1  0  0  0  0
 25 27  1  6  0  0  0
 25 22  1  0  0  0  0
 26 23  1  0  0  0  0
 26 24  1  0  0  0  0
 27 28  2  0  0  0  0
 27 29  1  0  0  0  0
 29 33  2  0  0  0  0
 29 34  1  0  0  0  0
 30 32  1  0  0  0  0
 31 32  2  0  0  0  0
 33 31  1  0  0  0  0
 34 30  2  0  0  0  0
 36 37  2  0  0  0  0
 36 39  1  0  0  0  0
 37 41  1  0  0  0  0
 39 40  2  0  0  0  0
 40 38  1  0  0  0  0
 40 35  1  0  0  0  0
 41 38  2  0  0  0  0
 42 43  1  0  0  0  0
 43 37  1  0  0  0  0
M  END
>  <MODEL>
3

>  <REMARK>
 VINA RESULT:      -8.8      2.705      5.759
  Name = 
  9 active torsions:
  status: ('A' for Active; 'I' for Inactive)
    1  A    between atoms: C_1  and  C_34
    2  A    between atoms: C_1  and  C_35
    3  A    between atoms: C_2  and  C_13
    4  A    between atoms: C_3  and  N_4
    5  A    between atoms: C_3  and  C_12
    6  A    between atoms: N_6  and  C_12
    7  A    between atoms: C_11  and  C_14
    8  A    between atoms: C_14  and  C_22
    9  A    between atoms: C_19  and  O_37
                            x       y       z     vdW  Elec       q    Type
                         _______ _______ _______ _____ _____    ______ ____

>  <TORSDO>
F 9

$$$$
=
 OpenBabel10262422083D

 43 48  0  0  1  0  0  0  0  0999 V2000
  191.7730  176.0640  147.2000 C   0  0  0  0  0  0  0  0  0  0  0  0
  187.4470  177.7280  144.9200 C   0  0  0  0  0  0  0  0  0  0  0  0
  187.9200  178.2590  142.0820 C   0  0  0  0  0  0  0  0  0  0  0  0
  189.5220  176.8600  146.6920 C   0  0  0  0  0  0  0  0  0  0  0  0
  192.0600  175.9890  145.7650 C   0  0  0  0  0  3  0  0  0  0  0  0
  192.6960  175.7330  148.0890 C   0  0  0  0  0  1  0  0  0  0  0  0
  189.7860  176.8270  145.3650 C   0  0  0  0  0  0  0  0  0  0  0  0
  190.5090  176.4900  147.6200 O   0  0  0  0  0  0  0  0  0  0  0  0
  191.1090  176.3480  144.9000 C   0  0  0  0  0  3  0  0  0  0  0  0
  189.3900  178.3800  143.1190 S   0  0  0  0  0  0  0  0  0  0  0  0
  188.7380  177.1830  144.3330 C   0  0  2  0  0  3  0  0  0  0  0  0
  187.2400  177.6840  146.3800 C   0  0  0  0  0  3  0  0  0  0  0  0
  186.4860  178.2020  144.1000 C   0  0  1  0  0  3  0  0  0  0  0  0
  186.7040  178.2690  142.6390 C   0  0  0  0  0  3  0  0  0  0  0  0
  188.2060  177.2790  147.1990 C   0  0  0  0  0  3  0  0  0  0  0  0
  188.0510  178.1580  140.6200 C   0  0  0  0  0  0  0  0  0  0  0  0
  189.2570  177.6460  140.0460 N   0  0  0  0  0  2  0  0  0  0  0  0
  187.1010  178.5260  139.8750 O   0  0  0  0  0  0  0  0  0  0  0  0
  189.4640  177.5080  138.6120 C   0  0  1  0  0  3  0  0  0  0  0  0
  189.4740  178.7580  138.0220 F   0  0  0  0  0  0  0  0  0  0  0  0
  190.8030  176.8360  138.3600 C   0  0  0  0  0  2  0  0  0  0  0  0
  190.7230  175.9850  137.1810 N   0  0  0  0  0  0  0  0  0  0  0  0
  190.7180  173.6390  137.1180 O   0  0  0  0  0  0  0  0  0  0  0  0
  189.3510  175.5450  137.0740 C   0  0  0  0  0  2  0  0  0  0  0  0
  191.4700  174.7710  137.4790 C   0  0  1  0  0  3  0  0  0  0  0  0
  189.3830  174.0450  137.2010 C   0  0  0  0  0  2  0  0  0  0  0  0
  192.7800  174.7830  136.7480 C   0  0  0  0  0  0  0  0  0  0  0  0
  192.9400  175.5780  135.7820 O   0  0  0  0  0  0  0  0  0  0  0  0
  193.8890  173.9090  137.1770 C   0  0  0  0  0  0  0  0  0  0  0  0
  195.8670  173.5350  138.5440 C   0  0  0  0  0  3  0  0  0  0  0  0
  195.0860  171.7960  137.0520 C   0  0  0  0  0  3  0  0  0  0  0  0
  196.0010  172.2530  138.0050 C   0  0  0  0  0  3  0  0  0  0  0  0
  194.0350  172.6200  136.6410 C   0  0  0  0  0  3  0  0  0  0  0  0
  194.8150  174.3600  138.1330 C   0  0  0  0  0  3  0  0  0  0  0  0
  185.1580  178.6550  144.6350 C   0  0  0  0  0  2  0  0  0  0  0  0
  183.4360  178.2220  141.2820 C   0  0  0  0  0  3  0  0  0  0  0  0
  182.1260  178.6110  141.5870 C   0  0  0  0  0  0  0  0  0  0  0  0
  182.7960  179.0090  143.8900 C   0  0  0  0  0  3  0  0  0  0  0  0
  184.4230  178.2240  142.2730 C   0  0  0  0  0  3  0  0  0  0  0  0
  184.1030  178.6140  143.5790 C   0  0  0  0  0  0  0  0  0  0  0  0
  181.8100  179.0060  142.8990 C   0  0  0  0  0  3  0  0  0  0  0  0
  180.9580  177.4770  139.7240 C   0  0  0  0  0  1  0  0  0  0  0  0
  181.1610  178.5990  140.5750 O   0  0  0  0  0  0  0  0  0  0  0  0
  1  8  1  0  0  0  0
  1  6  1  0  0  0  0
  2 12  2  0  0  0  0
  3 14  2  0  0  0  0
  3 10  1  0  0  0  0
  4 15  2  0  0  0  0
  4  8  1  0  0  0  0
  5  1  2  0  0  0  0
  7  4  1  0  0  0  0
  9  7  2  0  0  0  0
  9  5  1  0  0  0  0
 11 10  1  6  0  0  0
 11  2  1  0  0  0  0
 11  7  1  0  0  0  0
 12 15  1  0  0  0  0
 13 35  1  6  0  0  0
 13  2  1  0  0  0  0
 14 13  1  0  0  0  0
 16  3  1  0  0  0  0
 17 16  1  0  0  0  0
 18 16  2  0  0  0  0
 19 20  1  6  0  0  0
 19 17  1  0  0  0  0
 21 19  1  0  0  0  0
 22 25  1  0  0  0  0
 22 21  1  0  0  0  0
 23 26  1  0  0  0  0
 23 25  1  0  0  0  0
 24 22  1  0  0  0  0
 24 26  1  0  0  0  0
 25 27  1  6  0  0  0
 27 29  1  0  0  0  0
 28 27  2  0  0  0  0
 29 34  1  0  0  0  0
 31 32  2  0  0  0  0
 32 30  1  0  0  0  0
 33 31  1  0  0  0  0
 33 29  2  0  0  0  0
 34 30  2  0  0  0  0
 36 37  2  0  0  0  0
 36 39  1  0  0  0  0
 37 41  1  0  0  0  0
 39 40  2  0  0  0  0
 40 38  1  0  0  0  0
 40 35  1  0  0  0  0
 41 38  2  0  0  0  0
 42 43  1  0  0  0  0
 43 37  1  0  0  0  0
M  END
>  <MODEL>
4

>  <REMARK>
 VINA RESULT:      -8.7      3.067      6.305
  Name = 
  9 active torsions:
  status: ('A' for Active; 'I' for Inactive)
    1  A    between atoms: C_1  and  C_34
    2  A    between atoms: C_1  and  C_35
    3  A    between atoms: C_2  and  C_13
    4  A    between atoms: C_3  and  N_4
    5  A    between atoms: C_3  and  C_12
    6  A    between atoms: N_6  and  C_12
    7  A    between atoms: C_11  and  C_14
    8  A    between atoms: C_14  and  C_22
    9  A    between atoms: C_19  and  O_37
                            x       y       z     vdW  Elec       q    Type
                         _______ _______ _______ _____ _____    ______ ____

>  <TORSDO>
F 9

$$$$
=
 OpenBabel10262422083D

 43 48  0  0  1  0  0  0  0  0999 V2000
  191.2950  176.4750  146.6780 C   0  0  0  0  0  0  0  0  0  0  0  0
  189.8230  177.6440  141.8670 C   0  0  0  0  0  0  0  0  0  0  0  0
  186.9630  178.2530  141.7860 C   0  0  0  0  0  0  0  0  0  0  0  0
  191.1630  176.8490  144.2690 C   0  0  0  0  0  0  0  0  0  0  0  0
  189.9560  177.0500  146.8310 C   0  0  0  0  0  3  0  0  0  0  0  0
  191.9620  176.0330  147.7320 C   0  0  0  0  0  1  0  0  0  0  0  0
  189.9120  177.3520  144.3940 C   0  0  0  0  0  0  0  0  0  0  0  0
  191.8610  176.4000  145.4010 O   0  0  0  0  0  0  0  0  0  0  0  0
  189.3080  177.4690  145.7420 C   0  0  0  0  0  3  0  0  0  0  0  0
  187.4580  177.1750  143.1450 S   0  0  0  0  0  0  0  0  0  0  0  0
  189.1410  177.8790  143.2030 C   0  0  2  0  0  3  0  0  0  0  0  0
  191.2050  177.1270  141.8390 C   0  0  0  0  0  3  0  0  0  0  0  0
  189.1770  177.9510  140.7220 C   0  0  1  0  0  3  0  0  0  0  0  0
  187.7840  178.4440  140.7490 C   0  0  0  0  0  3  0  0  0  0  0  0
  191.8230  176.7600  142.9580 C   0  0  0  0  0  3  0  0  0  0  0  0
  185.6490  178.9170  141.8100 C   0  0  0  0  0  0  0  0  0  0  0  0
  184.7330  178.7240  140.7280 N   0  0  0  0  0  2  0  0  0  0  0  0
  185.3350  179.6570  142.7820 O   0  0  0  0  0  0  0  0  0  0  0  0
  183.4140  179.3380  140.6790 C   0  0  1  0  0  3  0  0  0  0  0  0
  183.0090  179.4600  139.3630 F   0  0  0  0  0  0  0  0  0  0  0  0
  182.4220  178.4580  141.4190 C   0  0  0  0  0  2  0  0  0  0  0  0
  181.5460  179.2750  142.2460 N   0  0  0  0  0  0  0  0  0  0  0  0
  179.2950  178.8670  142.7660 O   0  0  0  0  0  0  0  0  0  0  0  0
  181.4960  178.6500  143.5470 C   0  0  0  0  0  2  0  0  0  0  0  0
  180.1970  179.1230  141.7190 C   0  0  1  0  0  3  0  0  0  0  0  0
  180.0580  178.2600  143.7670 C   0  0  0  0  0  2  0  0  0  0  0  0
  179.7950  180.3610  140.9740 C   0  0  0  0  0  0  0  0  0  0  0  0
  179.3280  181.3430  141.6140 O   0  0  0  0  0  0  0  0  0  0  0  0
  179.9820  180.4540  139.5130 C   0  0  0  0  0  0  0  0  0  0  0  0
  179.8310  179.4490  137.3020 C   0  0  0  0  0  3  0  0  0  0  0  0
  180.6570  181.7120  137.5440 C   0  0  0  0  0  3  0  0  0  0  0  0
  180.3300  180.6230  136.7310 C   0  0  0  0  0  3  0  0  0  0  0  0
  180.4830  181.6280  138.9280 C   0  0  0  0  0  3  0  0  0  0  0  0
  179.6580  179.3650  138.6880 C   0  0  0  0  0  3  0  0  0  0  0  0
  189.8550  177.8270  139.3870 C   0  0  0  0  0  2  0  0  0  0  0  0
  187.6210  178.7640  136.4660 C   0  0  0  0  0  3  0  0  0  0  0  0
  186.9330  177.5650  136.2440 C   0  0  0  0  0  0  0  0  0  0  0  0
  188.1720  176.5320  138.0630 C   0  0  0  0  0  3  0  0  0  0  0  0
  188.5800  178.8510  137.4810 C   0  0  0  0  0  3  0  0  0  0  0  0
  188.8590  177.7330  138.2780 C   0  0  0  0  0  0  0  0  0  0  0  0
  187.2140  176.4470  137.0490 C   0  0  0  0  0  3  0  0  0  0  0  0
  184.7970  176.7230  135.3190 C   0  0  0  0  0  1  0  0  0  0  0  0
  185.9800  177.5090  135.2220 O   0  0  0  0  0  0  0  0  0  0  0  0
  1  5  2  0  0  0  0
  1  6  1  0  0  0  0
  3 16  1  0  0  0  0
  3 10  1  0  0  0  0
  4  7  1  0  0  0  0
  4  8  1  0  0  0  0
  7  9  2  0  0  0  0
  8  1  1  0  0  0  0
  9  5  1  0  0  0  0
 10 11  1  0  0  0  0
 11  2  1  6  0  0  0
 11  7  1  0  0  0  0
 12  2  2  0  0  0  0
 12 15  1  0  0  0  0
 13 35  1  1  0  0  0
 13 14  1  0  0  0  0
 13  2  1  0  0  0  0
 14  3  2  0  0  0  0
 15  4  2  0  0  0  0
 16 18  2  0  0  0  0
 17 16  1  0  0  0  0
 19 20  1  6  0  0  0
 19 17  1  0  0  0  0
 19 21  1  0  0  0  0
 21 22  1  0  0  0  0
 22 24  1  0  0  0  0
 23 26  1  0  0  0  0
 24 26  1  0  0  0  0
 25 27  1  1  0  0  0
 25 22  1  0  0  0  0
 25 23  1  0  0  0  0
 27 28  2  0  0  0  0
 29 27  1  0  0  0  0
 30 34  1  0  0  0  0
 31 33  2  0  0  0  0
 32 30  2  0  0  0  0
 32 31  1  0  0  0  0
 33 29  1  0  0  0  0
 34 29  2  0  0  0  0
 36 39  1  0  0  0  0
 37 36  2  0  0  0  0
 37 41  1  0  0  0  0
 38 40  1  0  0  0  0
 39 40  2  0  0  0  0
 40 35  1  0  0  0  0
 41 38  2  0  0  0  0
 43 42  1  0  0  0  0
 43 37  1  0  0  0  0
M  END
>  <MODEL>
5

>  <REMARK>
 VINA RESULT:      -8.6      2.734      8.478
  Name = 
  9 active torsions:
  status: ('A' for Active; 'I' for Inactive)
    1  A    between atoms: C_1  and  C_34
    2  A    between atoms: C_1  and  C_35
    3  A    between atoms: C_2  and  C_13
    4  A    between atoms: C_3  and  N_4
    5  A    between atoms: C_3  and  C_12
    6  A    between atoms: N_6  and  C_12
    7  A    between atoms: C_11  and  C_14
    8  A    between atoms: C_14  and  C_22
    9  A    between atoms: C_19  and  O_37
                            x       y       z     vdW  Elec       q    Type
                         _______ _______ _______ _____ _____    ______ ____

>  <TORSDO>
F 9

$$$$
=
 OpenBabel10262422083D

 43 48  0  0  1  0  0  0  0  0999 V2000
  191.0350  176.7670  146.6030 C   0  0  0  0  0  0  0  0  0  0  0  0
  189.8870  177.6550  141.6460 C   0  0  0  0  0  0  0  0  0  0  0  0
  187.0510  178.3110  141.3490 C   0  0  0  0  0  0  0  0  0  0  0  0
  191.0590  176.9900  144.1720 C   0  0  0  0  0  0  0  0  0  0  0  0
  189.7020  177.3760  146.6360 C   0  0  0  0  0  3  0  0  0  0  0  0
  191.6260  176.3810  147.7220 C   0  0  0  0  0  1  0  0  0  0  0  0
  189.8150  177.5230  144.1860 C   0  0  0  0  0  0  0  0  0  0  0  0
  191.6760  176.6010  145.3710 O   0  0  0  0  0  0  0  0  0  0  0  0
  189.1320  177.7360  145.4850 C   0  0  0  0  0  3  0  0  0  0  0  0
  187.4380  177.3120  142.8000 S   0  0  0  0  0  0  0  0  0  0  0  0
  189.1300  177.9880  142.9200 C   0  0  2  0  0  3  0  0  0  0  0  0
  191.2560  177.1130  141.7370 C   0  0  0  0  0  3  0  0  0  0  0  0
  189.3200  177.9010  140.4460 C   0  0  1  0  0  3  0  0  0  0  0  0
  187.9390  178.4200  140.3550 C   0  0  0  0  0  3  0  0  0  0  0  0
  191.7960  176.8060  142.9130 C   0  0  0  0  0  3  0  0  0  0  0  0
  185.7540  178.9990  141.2480 C   0  0  0  0  0  0  0  0  0  0  0  0
  185.0070  178.9370  140.0300 N   0  0  0  0  0  2  0  0  0  0  0  0
  185.3050  179.6430  142.2360 O   0  0  0  0  0  0  0  0  0  0  0  0
  183.7150  179.5830  139.8520 C   0  0  1  0  0  3  0  0  0  0  0  0
  183.8060  180.5350  138.8540 F   0  0  0  0  0  0  0  0  0  0  0  0
  182.6850  178.5440  139.4470 C   0  0  0  0  0  2  0  0  0  0  0  0
  181.3640  178.9360  139.9180 N   0  0  0  0  0  0  0  0  0  0  0  0
  179.3340  178.7730  138.7530 O   0  0  0  0  0  0  0  0  0  0  0  0
  180.6980  177.7280  140.3490 C   0  0  0  0  0  2  0  0  0  0  0  0
  180.6060  179.3700  138.7520 C   0  0  1  0  0  3  0  0  0  0  0  0
  179.4880  177.5800  139.4650 C   0  0  0  0  0  2  0  0  0  0  0  0
  180.4830  180.8640  138.7490 C   0  0  0  0  0  0  0  0  0  0  0  0
  180.3220  181.4730  139.8430 O   0  0  0  0  0  0  0  0  0  0  0  0
  180.5920  181.6270  137.4900 C   0  0  0  0  0  0  0  0  0  0  0  0
  180.8560  183.7480  136.3290 C   0  0  0  0  0  3  0  0  0  0  0  0
  180.6500  181.6980  135.0590 C   0  0  0  0  0  3  0  0  0  0  0  0
  180.8070  183.0860  135.1000 C   0  0  0  0  0  3  0  0  0  0  0  0
  180.5440  180.9720  136.2490 C   0  0  0  0  0  3  0  0  0  0  0  0
  180.7490  183.0220  137.5200 C   0  0  0  0  0  3  0  0  0  0  0  0
  190.0750  177.6790  139.1670 C   0  0  0  0  0  2  0  0  0  0  0  0
  188.0760  178.2400  135.9900 C   0  0  0  0  0  3  0  0  0  0  0  0
  187.3450  177.0490  135.9060 C   0  0  0  0  0  0  0  0  0  0  0  0
  188.4160  176.2630  137.9410 C   0  0  0  0  0  3  0  0  0  0  0  0
  188.9730  178.4450  137.0440 C   0  0  0  0  0  3  0  0  0  0  0  0
  189.1460  177.4540  138.0180 C   0  0  0  0  0  0  0  0  0  0  0  0
  187.5200  176.0590  136.8880 C   0  0  0  0  0  3  0  0  0  0  0  0
  185.3440  175.9860  134.9090 C   0  0  0  0  0  1  0  0  0  0  0  0
  186.4550  176.8730  134.8410 O   0  0  0  0  0  0  0  0  0  0  0  0
  1  5  2  0  0  0  0
  1  6  1  0  0  0  0
  2 12  2  0  0  0  0
  3 10  1  0  0  0  0
  4  7  1  0  0  0  0
  4  8  1  0  0  0  0
  7  9  2  0  0  0  0
  8  1  1  0  0  0  0
  9  5  1  0  0  0  0
 10 11  1  0  0  0  0
 11  2  1  6  0  0  0
 11  7  1  0  0  0  0
 12 15  1  0  0  0  0
 13 35  1  1  0  0  0
 13  2  1  0  0  0  0
 14 13  1  0  0  0  0
 14  3  2  0  0  0  0
 15  4  2  0  0  0  0
 16  3  1  0  0  0  0
 16 18  2  0  0  0  0
 17 16  1  0  0  0  0
 19 20  1  6  0  0  0
 19 17  1  0  0  0  0
 21 19  1  0  0  0  0
 21 22  1  0  0  0  0
 22 24  1  0  0  0  0
 23 26  1  0  0  0  0
 25 27  1  1  0  0  0
 25 23  1  0  0  0  0
 25 22  1  0  0  0  0
 26 24  1  0  0  0  0
 27 28  2  0  0  0  0
 29 34  1  0  0  0  0
 29 27  1  0  0  0  0
 30 34  2  0  0  0  0
 31 32  2  0  0  0  0
 31 33  1  0  0  0  0
 32 30  1  0  0  0  0
 33 29  2  0  0  0  0
 36 39  1  0  0  0  0
 37 36  2  0  0  0  0
 37 41  1  0  0  0  0
 38 40  1  0  0  0  0
 39 40  2  0  0  0  0
 40 35  1  0  0  0  0
 41 38  2  0  0  0  0
 43 42  1  0  0  0  0
 43 37  1  0  0  0  0
M  END
>  <MODEL>
6

>  <REMARK>
 VINA RESULT:      -8.5      2.671      8.619
  Name = 
  9 active torsions:
  status: ('A' for Active; 'I' for Inactive)
    1  A    between atoms: C_1  and  C_34
    2  A    between atoms: C_1  and  C_35
    3  A    between atoms: C_2  and  C_13
    4  A    between atoms: C_3  and  N_4
    5  A    between atoms: C_3  and  C_12
    6  A    between atoms: N_6  and  C_12
    7  A    between atoms: C_11  and  C_14
    8  A    between atoms: C_14  and  C_22
    9  A    between atoms: C_19  and  O_37
                            x       y       z     vdW  Elec       q    Type
                         _______ _______ _______ _____ _____    ______ ____

>  <TORSDO>
F 9

$$$$
=
 OpenBabel10262422083D

 43 48  0  0  1  0  0  0  0  0999 V2000
  181.2900  179.1950  142.6670 C   0  0  0  0  0  0  0  0  0  0  0  0
  185.1350  178.3980  139.3110 C   0  0  0  0  0  0  0  0  0  0  0  0
  187.7070  178.2900  140.7000 C   0  0  0  0  0  0  0  0  0  0  0  0
  182.6660  178.9000  140.6730 C   0  0  2  0  0  3  0  0  0  0  0  0
  182.4460  178.8550  143.5030 C   0  0  0  0  0  3  0  0  0  0  0  0
  180.1250  179.4940  143.2190 C   0  0  0  0  0  1  0  0  0  0  0  0
  183.7490  178.6170  141.4340 C   0  0  0  0  0  0  0  0  0  0  0  0
  181.4350  179.1990  141.2760 O   0  0  0  0  0  0  0  0  0  0  0  0
  183.6080  178.5770  142.9090 C   0  0  0  0  0  3  0  0  0  0  0  0
  186.4350  179.2380  141.5580 S   0  0  0  0  0  0  0  0  0  0  0  0
  185.0850  178.2550  140.8220 C   0  0  0  0  0  0  0  0  0  0  0  0
  183.8900  178.6700  138.5660 C   0  0  0  0  0  3  0  0  0  0  0  0
  186.3050  178.2300  138.6600 C   0  0  1  0  0  3  0  0  0  0  0  0
  187.5570  177.9830  139.4080 C   0  0  0  0  0  3  0  0  0  0  0  0
  182.7460  178.9020  139.2030 C   0  0  0  0  0  3  0  0  0  0  0  0
  188.9190  177.8610  141.4160 C   0  0  0  0  0  0  0  0  0  0  0  0
  189.3390  178.5620  142.5900 N   0  0  0  0  0  2  0  0  0  0  0  0
  189.5850  176.8770  140.9920 O   0  0  0  0  0  0  0  0  0  0  0  0
  190.5200  178.1970  143.3590 C   0  0  1  0  0  3  0  0  0  0  0  0
  190.9860  179.3020  144.0460 F   0  0  0  0  0  0  0  0  0  0  0  0
  190.1540  177.1150  144.3590 C   0  0  0  0  0  2  0  0  0  0  0  0
  190.7630  177.3990  145.6510 N   0  0  0  0  0  0  0  0  0  0  0  0
  190.8570  175.9820  147.5200 O   0  0  0  0  0  0  0  0  0  0  0  0
  192.0550  176.7520  145.6560 C   0  0  0  0  0  2  0  0  0  0  0  0
  189.9930  176.6760  146.6540 C   0  0  1  0  0  3  0  0  0  0  0  0
  192.0100  175.7390  146.7690 C   0  0  0  0  0  2  0  0  0  0  0  0
  189.1340  177.6310  147.4280 C   0  0  0  0  0  0  0  0  0  0  0  0
  189.5970  178.1730  148.4690 O   0  0  0  0  0  0  0  0  0  0  0  0
  187.7770  177.9730  146.9580 C   0  0  0  0  0  0  0  0  0  0  0  0
  186.0530  177.8660  145.2450 C   0  0  0  0  0  3  0  0  0  0  0  0
  185.6230  179.0430  147.3160 C   0  0  0  0  0  3  0  0  0  0  0  0
  185.1960  178.6130  146.0570 C   0  0  0  0  0  3  0  0  0  0  0  0
  186.9080  178.7230  147.7650 C   0  0  0  0  0  3  0  0  0  0  0  0
  187.3390  177.5470  145.6940 C   0  0  0  0  0  3  0  0  0  0  0  0
  186.3760  178.2650  137.1600 C   0  0  0  0  0  2  0  0  0  0  0  0
  186.4480  174.5560  136.3590 C   0  0  0  0  0  3  0  0  0  0  0  0
  187.6290  174.4540  135.6140 C   0  0  0  0  0  0  0  0  0  0  0  0
  187.9780  176.8470  135.8630 C   0  0  0  0  0  3  0  0  0  0  0  0
  186.0310  175.7960  136.8550 C   0  0  0  0  0  3  0  0  0  0  0  0
  186.7940  176.9430  136.6040 C   0  0  0  0  0  0  0  0  0  0  0  0
  188.3940  175.6080  135.3680 C   0  0  0  0  0  3  0  0  0  0  0  0
  187.9190  172.0140  135.9110 C   0  0  0  0  0  1  0  0  0  0  0  0
  188.0200  173.2010  135.1320 O   0  0  0  0  0  0  0  0  0  0  0  0
  1  6  1  0  0  0  0
  1  5  2  0  0  0  0
  2 11  2  0  0  0  0
  3 16  1  0  0  0  0
  3 10  1  0  0  0  0
  4 15  1  6  0  0  0
  4  8  1  0  0  0  0
  4  7  1  0  0  0  0
  7  9  2  0  0  0  0
  8  1  1  0  0  0  0
  9  5  1  0  0  0  0
 11  7  1  0  0  0  0
 11 10  1  0  0  0  0
 12 15  2  0  0  0  0
 12  2  1  0  0  0  0
 13 35  1  6  0  0  0
 13  2  1  0  0  0  0
 13 14  1  0  0  0  0
 14  3  2  0  0  0  0
 16 17  1  0  0  0  0
 17 19  1  0  0  0  0
 18 16  2  0  0  0  0
 19 20  1  1  0  0  0
 19 21  1  0  0  0  0
 21 22  1  0  0  0  0
 22 24  1  0  0  0  0
 22 25  1  0  0  0  0
 24 26  1  0  0  0  0
 25 27  1  1  0  0  0
 25 23  1  0  0  0  0
 26 23  1  0  0  0  0
 27 28  2  0  0  0  0
 29 27  1  0  0  0  0
 29 33  1  0  0  0  0
 30 34  1  0  0  0  0
 30 32  2  0  0  0  0
 31 33  2  0  0  0  0
 32 31  1  0  0  0  0
 34 29  2  0  0  0  0
 36 39  1  0  0  0  0
 37 36  2  0  0  0  0
 38 40  1  0  0  0  0
 40 39  2  0  0  0  0
 40 35  1  0  0  0  0
 41 37  1  0  0  0  0
 41 38  2  0  0  0  0
 43 37  1  0  0  0  0
 43 42  1  0  0  0  0
M  END
>  <MODEL>
7

>  <REMARK>
 VINA RESULT:      -8.5      3.187      6.740
  Name = 
  9 active torsions:
  status: ('A' for Active; 'I' for Inactive)
    1  A    between atoms: C_1  and  C_34
    2  A    between atoms: C_1  and  C_35
    3  A    between atoms: C_2  and  C_13
    4  A    between atoms: C_3  and  N_4
    5  A    between atoms: C_3  and  C_12
    6  A    between atoms: N_6  and  C_12
    7  A    between atoms: C_11  and  C_14
    8  A    between atoms: C_14  and  C_22
    9  A    between atoms: C_19  and  O_37
                            x       y       z     vdW  Elec       q    Type
                         _______ _______ _______ _____ _____    ______ ____

>  <TORSDO>
F 9

$$$$
=
 OpenBabel10262422083D

 43 48  0  0  1  0  0  0  0  0999 V2000
  191.5240  176.4410  147.0370 C   0  0  0  0  0  0  0  0  0  0  0  0
  189.4660  178.0950  142.5980 C   0  0  0  0  0  0  0  0  0  0  0  0
  186.5490  177.8840  142.6750 C   0  0  0  0  0  0  0  0  0  0  0  0
  191.1320  177.2400  144.7640 C   0  0  0  0  0  0  0  0  0  0  0  0
  190.0930  176.5760  147.3220 C   0  0  0  0  0  3  0  0  0  0  0  0
  192.3560  176.0010  147.9670 C   0  0  0  0  0  1  0  0  0  0  0  0
  189.8030  177.3380  145.0040 C   0  0  0  0  0  0  0  0  0  0  0  0
  192.0010  176.7860  145.7680 O   0  0  0  0  0  0  0  0  0  0  0  0
  189.2840  177.0080  146.3520 C   0  0  0  0  0  3  0  0  0  0  0  0
  187.4100  176.7370  143.7690 S   0  0  0  0  0  0  0  0  0  0  0  0
  188.8380  177.8570  143.9600 C   0  0  2  0  0  3  0  0  0  0  0  0
  190.9310  178.0010  142.4480 C   0  0  0  0  0  3  0  0  0  0  0  0
  188.6850  178.4330  141.5500 C   0  0  1  0  0  3  0  0  0  0  0  0
  187.2150  178.5020  141.6940 C   0  0  0  0  0  3  0  0  0  0  0  0
  191.7010  177.6050  143.4570 C   0  0  0  0  0  3  0  0  0  0  0  0
  185.1100  178.1360  142.8510 C   0  0  0  0  0  0  0  0  0  0  0  0
  184.2260  178.0310  141.7320 N   0  0  0  0  0  2  0  0  0  0  0  0
  184.6600  178.4460  143.9880 O   0  0  0  0  0  0  0  0  0  0  0  0
  182.7910  178.2570  141.8230 C   0  0  1  0  0  3  0  0  0  0  0  0
  182.5490  179.5790  142.1440 F   0  0  0  0  0  0  0  0  0  0  0  0
  182.1480  177.9510  140.4820 C   0  0  0  0  0  2  0  0  0  0  0  0
  182.5470  178.9450  139.4960 N   0  0  0  0  0  0  0  0  0  0  0  0
  182.1150  178.9120  137.1890 O   0  0  0  0  0  0  0  0  0  0  0  0
  181.3920  179.7770  139.2470 C   0  0  0  0  0  2  0  0  0  0  0  0
  182.7620  178.2390  138.2400 C   0  0  1  0  0  3  0  0  0  0  0  0
  181.0550  179.5970  137.7900 C   0  0  0  0  0  2  0  0  0  0  0  0
  184.2300  178.1230  137.9610 C   0  0  0  0  0  0  0  0  0  0  0  0
  185.0370  178.8740  138.5760 O   0  0  0  0  0  0  0  0  0  0  0  0
  184.7400  177.1130  137.0130 C   0  0  0  0  0  0  0  0  0  0  0  0
  185.9350  176.5600  134.9680 C   0  0  0  0  0  3  0  0  0  0  0  0
  185.0130  174.7920  136.3410 C   0  0  0  0  0  3  0  0  0  0  0  0
  185.7180  175.2000  135.2050 C   0  0  0  0  0  3  0  0  0  0  0  0
  184.5270  175.7450  137.2410 C   0  0  0  0  0  3  0  0  0  0  0  0
  185.4480  177.5130  135.8680 C   0  0  0  0  0  3  0  0  0  0  0  0
  189.2780  178.7740  140.2130 C   0  0  0  0  0  2  0  0  0  0  0  0
  190.5750  175.7170  138.3760 C   0  0  0  0  0  3  0  0  0  0  0  0
  189.4660  175.3690  137.5940 C   0  0  0  0  0  0  0  0  0  0  0  0
  188.2290  177.2350  138.5420 C   0  0  0  0  0  3  0  0  0  0  0  0
  190.5140  176.8170  139.2380 C   0  0  0  0  0  3  0  0  0  0  0  0
  189.3400  177.5750  139.3240 C   0  0  0  0  0  0  0  0  0  0  0  0
  188.2900  176.1350  137.6820 C   0  0  0  0  0  3  0  0  0  0  0  0
  188.6990  173.1340  136.8590 C   0  0  0  0  0  1  0  0  0  0  0  0
  189.5560  174.2640  136.7420 O   0  0  0  0  0  0  0  0  0  0  0  0
  1  5  2  0  0  0  0
  1  6  1  0  0  0  0
  3 16  1  0  0  0  0
  3 10  1  0  0  0  0
  4  7  1  0  0  0  0
  4  8  1  0  0  0  0
  7  9  2  0  0  0  0
  8  1  1  0  0  0  0
  9  5  1  0  0  0  0
 10 11  1  0  0  0  0
 11  2  1  6  0  0  0
 11  7  1  0  0  0  0
 12  2  2  0  0  0  0
 12 15  1  0  0  0  0
 13 35  1  1  0  0  0
 13 14  1  0  0  0  0
 13  2  1  0  0  0  0
 14  3  2  0  0  0  0
 15  4  2  0  0  0  0
 16 18  2  0  0  0  0
 17 19  1  0  0  0  0
 17 16  1  0  0  0  0
 19 20  1  6  0  0  0
 21 19  1  0  0  0  0
 22 21  1  0  0  0  0
 23 26  1  0  0  0  0
 23 25  1  0  0  0  0
 24 22  1  0  0  0  0
 25 27  1  6  0  0  0
 25 22  1  0  0  0  0
 26 24  1  0  0  0  0
 27 28  2  0  0  0  0
 29 33  1  0  0  0  0
 29 27  1  0  0  0  0
 30 32  2  0  0  0  0
 30 34  1  0  0  0  0
 31 33  2  0  0  0  0
 32 31  1  0  0  0  0
 34 29  2  0  0  0  0
 36 39  1  0  0  0  0
 37 41  1  0  0  0  0
 37 36  2  0  0  0  0
 38 40  1  0  0  0  0
 39 40  2  0  0  0  0
 40 35  1  0  0  0  0
 41 38  2  0  0  0  0
 43 42  1  0  0  0  0
 43 37  1  0  0  0  0
M  END
>  <MODEL>
8

>  <REMARK>
 VINA RESULT:      -8.4      2.776      8.236
  Name = 
  9 active torsions:
  status: ('A' for Active; 'I' for Inactive)
    1  A    between atoms: C_1  and  C_34
    2  A    between atoms: C_1  and  C_35
    3  A    between atoms: C_2  and  C_13
    4  A    between atoms: C_3  and  N_4
    5  A    between atoms: C_3  and  C_12
    6  A    between atoms: N_6  and  C_12
    7  A    between atoms: C_11  and  C_14
    8  A    between atoms: C_14  and  C_22
    9  A    between atoms: C_19  and  O_37
                            x       y       z     vdW  Elec       q    Type
                         _______ _______ _______ _____ _____    ______ ____

>  <TORSDO>
F 9

$$$$
=
 OpenBabel10262422083D

 43 48  0  0  1  0  0  0  0  0999 V2000
  191.2130  176.5160  146.6540 C   0  0  0  0  0  0  0  0  0  0  0  0
  189.7700  177.6910  141.8350 C   0  0  0  0  0  0  0  0  0  0  0  0
  186.9110  178.3030  141.7380 C   0  0  0  0  0  0  0  0  0  0  0  0
  191.0950  176.8930  144.2450 C   0  0  0  0  0  0  0  0  0  0  0  0
  189.8730  177.0920  146.7990 C   0  0  0  0  0  3  0  0  0  0  0  0
  191.8730  176.0720  147.7110 C   0  0  0  0  0  1  0  0  0  0  0  0
  189.8440  177.3970  144.3620 C   0  0  0  0  0  0  0  0  0  0  0  0
  191.7860  176.4420  145.3800 O   0  0  0  0  0  0  0  0  0  0  0  0
  189.2320  177.5120  145.7070 C   0  0  0  0  0  3  0  0  0  0  0  0
  187.3970  177.2230  143.0980 S   0  0  0  0  0  0  0  0  0  0  0  0
  189.0800  177.9260  143.1680 C   0  0  2  0  0  3  0  0  0  0  0  0
  191.1520  177.1740  141.8150 C   0  0  0  0  0  3  0  0  0  0  0  0
  189.1320  178.0000  140.6870 C   0  0  1  0  0  3  0  0  0  0  0  0
  187.7390  178.4950  140.7060 C   0  0  0  0  0  3  0  0  0  0  0  0
  191.7630  176.8050  142.9370 C   0  0  0  0  0  3  0  0  0  0  0  0
  185.5980  178.9680  141.7540 C   0  0  0  0  0  0  0  0  0  0  0  0
  184.6780  178.7550  140.6810 N   0  0  0  0  0  2  0  0  0  0  0  0
  185.2880  179.7260  142.7140 O   0  0  0  0  0  0  0  0  0  0  0  0
  183.3590  179.3680  140.6250 C   0  0  1  0  0  3  0  0  0  0  0  0
  182.9120  179.3880  139.3170 F   0  0  0  0  0  0  0  0  0  0  0  0
  182.3900  178.5540  141.4630 C   0  0  0  0  0  2  0  0  0  0  0  0
  181.0770  178.5330  140.8340 N   0  0  0  0  0  0  0  0  0  0  0  0
  179.1190  177.5420  141.6650 O   0  0  0  0  0  0  0  0  0  0  0  0
  180.2910  179.5640  141.4710 C   0  0  0  0  0  2  0  0  0  0  0  0
  180.4320  177.2890  141.2330 C   0  0  1  0  0  3  0  0  0  0  0  0
  179.1320  178.8610  142.1270 C   0  0  0  0  0  2  0  0  0  0  0  0
  180.4280  176.3240  140.0860 C   0  0  0  0  0  0  0  0  0  0  0  0
  179.6220  175.3530  140.0990 O   0  0  0  0  0  0  0  0  0  0  0  0
  181.3230  176.5250  138.9290 C   0  0  0  0  0  0  0  0  0  0  0  0
  183.4900  176.2230  137.8660 C   0  0  0  0  0  3  0  0  0  0  0  0
  181.7230  177.3860  136.6900 C   0  0  0  0  0  3  0  0  0  0  0  0
  183.0320  176.8960  136.7320 C   0  0  0  0  0  3  0  0  0  0  0  0
  180.8730  177.2000  137.7840 C   0  0  0  0  0  3  0  0  0  0  0  0
  182.6390  176.0370  138.9610 C   0  0  0  0  0  3  0  0  0  0  0  0
  189.8170  177.8770  139.3560 C   0  0  0  0  0  2  0  0  0  0  0  0
  187.2890  176.1650  137.1030 C   0  0  0  0  0  3  0  0  0  0  0  0
  187.0450  177.1610  136.1490 C   0  0  0  0  0  0  0  0  0  0  0  0
  188.5980  178.6310  137.3060 C   0  0  0  0  0  3  0  0  0  0  0  0
  188.1820  176.3970  138.1540 C   0  0  0  0  0  3  0  0  0  0  0  0
  188.8340  177.6320  138.2580 C   0  0  0  0  0  0  0  0  0  0  0  0
  187.7050  178.3970  136.2560 C   0  0  0  0  0  3  0  0  0  0  0  0
  185.9330  175.5900  134.5940 C   0  0  0  0  0  1  0  0  0  0  0  0
  186.1470  176.8990  135.1100 O   0  0  0  0  0  0  0  0  0  0  0  0
  1  5  2  0  0  0  0
  1  6  1  0  0  0  0
  3 16  1  0  0  0  0
  3 10  1  0  0  0  0
  4  7  1  0  0  0  0
  4  8  1  0  0  0  0
  7  9  2  0  0  0  0
  8  1  1  0  0  0  0
  9  5  1  0  0  0  0
 10 11  1  0  0  0  0
 11  2  1  6  0  0  0
 11  7  1  0  0  0  0
 12  2  2  0  0  0  0
 12 15  1  0  0  0  0
 13 35  1  1  0  0  0
 13 14  1  0  0  0  0
 13  2  1  0  0  0  0
 14  3  2  0  0  0  0
 15  4  2  0  0  0  0
 16 18  2  0  0  0  0
 17 16  1  0  0  0  0
 19 20  1  6  0  0  0
 19 17  1  0  0  0  0
 19 21  1  0  0  0  0
 22 25  1  0  0  0  0
 22 21  1  0  0  0  0
 22 24  1  0  0  0  0
 23 26  1  0  0  0  0
 24 26  1  0  0  0  0
 25 27  1  6  0  0  0
 25 23  1  0  0  0  0
 27 28  2  0  0  0  0
 29 34  1  0  0  0  0
 29 27  1  0  0  0  0
 30 34  2  0  0  0  0
 31 32  2  0  0  0  0
 31 33  1  0  0  0  0
 32 30  1  0  0  0  0
 33 29  2  0  0  0  0
 36 39  1  0  0  0  0
 37 41  1  0  0  0  0
 37 36  2  0  0  0  0
 38 40  1  0  0  0  0
 39 40  2  0  0  0  0
 40 35  1  0  0  0  0
 41 38  2  0  0  0  0
 42 43  1  0  0  0  0
 43 37  1  0  0  0  0
M  END
>  <MODEL>
9

>  <REMARK>
 VINA RESULT:      -8.3      3.350      8.163
  Name = 
  9 active torsions:
  status: ('A' for Active; 'I' for Inactive)
    1  A    between atoms: C_1  and  C_34
    2  A    between atoms: C_1  and  C_35
    3  A    between atoms: C_2  and  C_13
    4  A    between atoms: C_3  and  N_4
    5  A    between atoms: C_3  and  C_12
    6  A    between atoms: N_6  and  C_12
    7  A    between atoms: C_11  and  C_14
    8  A    between atoms: C_14  and  C_22
    9  A    between atoms: C_19  and  O_37
                            x       y       z     vdW  Elec       q    Type
                         _______ _______ _______ _____ _____    ______ ____

>  <TORSDO>
F 9

$$$$
