=
 OpenBabel10262419313D

 31 35  0  0  1  0  0  0  0  0999 V2000
  190.2330  177.3080  146.5290 C   0  0  0  0  0  0  0  0  0  0  0  0
  187.4560  177.4130  144.2390 N   0  0  0  0  0  0  0  0  0  0  0  0
  188.2790  177.8580  145.3450 C   0  0  2  0  0  3  0  0  0  0  0  0
  189.5050  177.6550  147.8460 C   0  0  0  0  0  2  0  0  0  0  0  0
  185.6190  178.6060  145.3520 C   0  0  1  0  0  3  0  0  0  0  0  0
  191.6340  176.8110  146.5910 C   0  0  0  0  0  1  0  0  0  0  0  0
  186.0610  177.4330  146.2210 C   0  0  1  0  0  3  0  0  0  0  0  0
  186.0570  177.3040  144.6910 C   0  0  2  0  0  3  0  0  0  0  0  0
  189.6150  177.3270  145.3880 N   0  0  0  0  0  0  0  0  0  0  0  0
  187.5510  177.3460  146.5330 C   0  0  2  0  0  3  0  0  0  0  0  0
  188.0750  178.0340  147.7000 N   0  0  0  0  0  2  0  0  0  0  0  0
  187.7950  177.6690  142.8630 C   0  0  0  0  0  0  0  0  0  0  0  0
  187.1500  178.7420  140.7450 N   0  0  0  0  0  2  0  0  0  0  0  0
  187.2150  178.8960  142.1950 C   0  0  0  0  0  2  0  0  0  0  0  0
  188.5090  178.5190  140.2730 C   0  0  0  0  0  2  0  0  0  0  0  0
  188.9820  177.1480  140.7400 C   0  0  0  0  0  2  0  0  0  0  0  0
  188.7120  176.9130  142.2100 C   0  0  0  0  0  0  0  0  0  0  0  0
  191.7660  176.6300  142.7900 C   0  0  0  0  0  1  0  0  0  0  0  0
  190.6990  175.6640  143.1830 C   0  0  0  0  0  3  0  0  0  0  0  0
  189.3940  175.8060  142.9270 C   0  0  0  0  0  3  0  0  0  0  0  0
  184.1050  178.6870  145.3540 C   0  0  0  0  0  2  0  0  0  0  0  0
  184.2360  180.5260  143.8680 O   0  0  0  0  0  0  0  0  0  0  0  0
  183.6360  179.4590  144.1640 C   0  0  0  0  0  0  0  0  0  0  0  0
  180.2290  178.1300  141.9090 C   0  0  0  0  0  0  0  0  0  0  0  0
  181.2290  178.8230  143.9970 C   0  0  0  0  0  3  0  0  0  0  0  0
  183.7510  178.8860  141.3230 F   0  0  0  0  0  0  0  0  0  0  0  0
  179.0450  177.6680  141.1390 C   0  0  0  0  0  1  0  0  0  0  0  0
  180.1160  178.3930  143.2740 C   0  0  0  0  0  3  0  0  0  0  0  0
  182.5770  178.7300  141.9850 C   0  0  0  0  0  0  0  0  0  0  0  0
  182.4730  178.9990  143.3660 C   0  0  0  0  0  0  0  0  0  0  0  0
  181.4570  178.2990  141.2660 C   0  0  0  0  0  3  0  0  0  0  0  0
  1  6  1  0  0  0  0
  1  4  1  0  0  0  0
  2  8  1  0  0  0  0
  2  3  1  0  0  0  0
  3  9  1  6  0  0  0
  3 10  1  0  0  0  0
  5 21  1  1  0  0  0
  5  7  1  0  0  0  0
  7 10  1  0  0  0  0
  8  5  1  0  0  0  0
  8  7  1  0  0  0  0
  9  1  2  0  0  0  0
 10 11  1  0  0  0  0
 11  4  1  0  0  0  0
 12  2  1  0  0  0  0
 13 14  1  0  0  0  0
 14 12  1  0  0  0  0
 15 16  1  0  0  0  0
 15 13  1  0  0  0  0
 16 17  1  0  0  0  0
 17 12  2  0  0  0  0
 17 20  1  0  0  0  0
 18 19  1  0  0  0  0
 20 19  2  0  0  0  0
 22 23  2  0  0  0  0
 23 21  1  0  0  0  0
 24 28  1  0  0  0  0
 26 29  1  0  0  0  0
 27 24  1  0  0  0  0
 28 25  2  0  0  0  0
 29 30  2  0  0  0  0
 30 25  1  0  0  0  0
 30 23  1  0  0  0  0
 31 24  2  0  0  0  0
 31 29  1  0  0  0  0
M  END
>  <MODEL>
1

>  <REMARK>
 VINA RESULT:      -8.9      0.000      0.000
  Name = 
  5 active torsions:
  status: ('A' for Active; 'I' for Inactive)
    1  A    between atoms: N_4  and  C_5
    2  A    between atoms: C_9  and  C_22
    3  A    between atoms: C_9  and  C_23
    4  A    between atoms: C_15  and  C_23
    5  A    between atoms: C_30  and  C_31
                            x       y       z     vdW  Elec       q    Type
                         _______ _______ _______ _____ _____    ______ ____

>  <TORSDO>
F 5

$$$$
=
 OpenBabel10262419313D

 31 35  0  0  1  0  0  0  0  0999 V2000
  180.7170  178.8570  143.0210 C   0  0  0  0  0  0  0  0  0  0  0  0
  183.5900  178.6920  140.8570 N   0  0  0  0  0  0  0  0  0  0  0  0
  182.7870  178.3730  142.0190 C   0  0  2  0  0  3  0  0  0  0  0  0
  181.4210  178.9130  144.3940 C   0  0  0  0  0  2  0  0  0  0  0  0
  185.5230  178.0570  142.2360 C   0  0  1  0  0  3  0  0  0  0  0  0
  179.2570  179.1360  142.9480 C   0  0  0  0  0  1  0  0  0  0  0  0
  184.8730  179.3070  142.8200 C   0  0  1  0  0  3  0  0  0  0  0  0
  184.9350  179.1070  141.2990 C   0  0  2  0  0  3  0  0  0  0  0  0
  181.3870  178.6900  141.9220 N   0  0  0  0  0  0  0  0  0  0  0  0
  183.3720  179.2300  143.0790 C   0  0  2  0  0  3  0  0  0  0  0  0
  182.8960  178.7340  144.3590 N   0  0  0  0  0  2  0  0  0  0  0  0
  183.3610  178.1010  139.5640 C   0  0  0  0  0  0  0  0  0  0  0  0
  183.7820  176.1980  138.0620 N   0  0  0  0  0  2  0  0  0  0  0  0
  183.4690  176.5980  139.4310 C   0  0  0  0  0  2  0  0  0  0  0  0
  182.7110  176.6930  137.2110 C   0  0  0  0  0  2  0  0  0  0  0  0
  182.7860  178.2140  137.1470 C   0  0  0  0  0  2  0  0  0  0  0  0
  182.9320  178.8440  138.5150 C   0  0  0  0  0  0  0  0  0  0  0  0
  180.1680  180.2530  138.8560 C   0  0  0  0  0  1  0  0  0  0  0  0
  181.5030  180.9190  138.8440 C   0  0  0  0  0  3  0  0  0  0  0  0
  182.6770  180.2950  138.6990 C   0  0  0  0  0  3  0  0  0  0  0  0
  187.0300  178.2110  142.2820 C   0  0  0  0  0  2  0  0  0  0  0  0
  187.9420  176.0600  142.6690 O   0  0  0  0  0  0  0  0  0  0  0  0
  187.6210  177.1680  143.1740 C   0  0  0  0  0  0  0  0  0  0  0  0
  188.0650  177.8930  147.3860 C   0  0  0  0  0  0  0  0  0  0  0  0
  186.6660  177.6170  145.4350 C   0  0  0  0  0  3  0  0  0  0  0  0
  190.2020  177.2710  144.4940 F   0  0  0  0  0  0  0  0  0  0  0  0
  188.2070  178.1460  148.8430 C   0  0  0  0  0  1  0  0  0  0  0  0
  186.7980  177.8520  146.8040 C   0  0  0  0  0  3  0  0  0  0  0  0
  189.0750  177.4600  145.2240 C   0  0  0  0  0  0  0  0  0  0  0  0
  187.7970  177.4170  144.6260 C   0  0  0  0  0  0  0  0  0  0  0  0
  189.2000  177.6960  146.5970 C   0  0  0  0  0  3  0  0  0  0  0  0
  1  4  1  0  0  0  0
  2  8  1  0  0  0  0
  2  3  1  0  0  0  0
  3  9  1  6  0  0  0
  3 10  1  0  0  0  0
  5 21  1  6  0  0  0
  5  7  1  0  0  0  0
  6  1  1  0  0  0  0
  7 10  1  0  0  0  0
  8  5  1  0  0  0  0
  8  7  1  0  0  0  0
  9  1  2  0  0  0  0
 10 11  1  0  0  0  0
 11  4  1  0  0  0  0
 12  2  1  0  0  0  0
 13 14  1  0  0  0  0
 14 12  1  0  0  0  0
 15 13  1  0  0  0  0
 16 15  1  0  0  0  0
 16 17  1  0  0  0  0
 17 20  1  0  0  0  0
 17 12  2  0  0  0  0
 19 18  1  0  0  0  0
 20 19  2  0  0  0  0
 21 23  1  0  0  0  0
 22 23  2  0  0  0  0
 23 30  1  0  0  0  0
 24 27  1  0  0  0  0
 25 28  2  0  0  0  0
 26 29  1  0  0  0  0
 28 24  1  0  0  0  0
 29 31  1  0  0  0  0
 30 29  2  0  0  0  0
 30 25  1  0  0  0  0
 31 24  2  0  0  0  0
M  END
>  <MODEL>
2

>  <REMARK>
 VINA RESULT:      -8.9      3.177      7.749
  Name = 
  5 active torsions:
  status: ('A' for Active; 'I' for Inactive)
    1  A    between atoms: N_4  and  C_5
    2  A    between atoms: C_9  and  C_22
    3  A    between atoms: C_9  and  C_23
    4  A    between atoms: C_15  and  C_23
    5  A    between atoms: C_30  and  C_31
                            x       y       z     vdW  Elec       q    Type
                         _______ _______ _______ _____ _____    ______ ____

>  <TORSDO>
F 5

$$$$
=
 OpenBabel10262419313D

 31 35  0  0  1  0  0  0  0  0999 V2000
  186.3180  177.4890  136.7120 C   0  0  0  0  0  0  0  0  0  0  0  0
  189.5310  176.5620  138.0460 N   0  0  0  0  0  0  0  0  0  0  0  0
  188.1030  176.7970  138.0760 C   0  0  2  0  0  3  0  0  0  0  0  0
  185.7710  178.3240  137.8910 C   0  0  0  0  0  2  0  0  0  0  0  0
  189.4710  176.9530  140.4720 C   0  0  1  0  0  3  0  0  0  0  0  0
  185.5960  177.5210  135.4110 C   0  0  0  0  0  1  0  0  0  0  0  0
  189.1060  178.2420  139.7410 C   0  0  1  0  0  3  0  0  0  0  0  0
  190.1650  177.2950  139.1580 C   0  0  2  0  0  3  0  0  0  0  0  0
  187.4480  176.8570  136.7960 N   0  0  0  0  0  0  0  0  0  0  0  0
  187.9960  178.1380  138.7010 C   0  0  2  0  0  3  0  0  0  0  0  0
  186.6150  178.3220  139.1150 N   0  0  0  0  0  2  0  0  0  0  0  0
  190.1130  175.3670  137.4910 C   0  0  0  0  0  0  0  0  0  0  0  0
  189.7720  173.0220  136.8280 N   0  0  0  0  0  2  0  0  0  0  0  0
  189.1980  174.3640  136.8230 C   0  0  0  0  0  2  0  0  0  0  0  0
  191.0370  173.0900  136.1120 C   0  0  0  0  0  2  0  0  0  0  0  0
  192.0370  173.8900  136.9380 C   0  0  0  0  0  2  0  0  0  0  0  0
  191.4570  175.1930  137.4450 C   0  0  0  0  0  0  0  0  0  0  0  0
  194.0340  176.3210  136.0940 C   0  0  0  0  0  1  0  0  0  0  0  0
  193.4610  176.7520  137.4020 C   0  0  0  0  0  3  0  0  0  0  0  0
  192.3530  176.2570  137.9620 C   0  0  0  0  0  3  0  0  0  0  0  0
  190.3930  177.2790  141.6290 C   0  0  0  0  0  2  0  0  0  0  0  0
  190.5550  175.2530  142.8430 O   0  0  0  0  0  0  0  0  0  0  0  0
  190.0650  176.4120  142.8010 C   0  0  0  0  0  0  0  0  0  0  0  0
  187.3900  177.7800  145.8720 C   0  0  0  0  0  0  0  0  0  0  0  0
  187.7680  176.8060  143.6930 C   0  0  0  0  0  3  0  0  0  0  0  0
  190.9870  177.5360  145.3110 F   0  0  0  0  0  0  0  0  0  0  0  0
  186.4550  178.2520  146.9270 C   0  0  0  0  0  1  0  0  0  0  0  0
  186.8900  177.2460  144.6840 C   0  0  0  0  0  3  0  0  0  0  0  0
  189.6550  177.4320  145.0800 C   0  0  0  0  0  0  0  0  0  0  0  0
  189.1590  176.8910  143.8740 C   0  0  0  0  0  0  0  0  0  0  0  0
  188.7690  177.8720  146.0690 C   0  0  0  0  0  3  0  0  0  0  0  0
  1  9  2  0  0  0  0
  1  4  1  0  0  0  0
  2  3  1  0  0  0  0
  2  8  1  0  0  0  0
  3  9  1  6  0  0  0
  3 10  1  0  0  0  0
  4 11  1  0  0  0  0
  5 21  1  1  0  0  0
  6  1  1  0  0  0  0
  7  5  1  0  0  0  0
  8  7  1  0  0  0  0
  8  5  1  0  0  0  0
 10 11  1  0  0  0  0
 10  7  1  0  0  0  0
 12  2  1  0  0  0  0
 14 13  1  0  0  0  0
 14 12  1  0  0  0  0
 15 13  1  0  0  0  0
 15 16  1  0  0  0  0
 16 17  1  0  0  0  0
 17 12  2  0  0  0  0
 17 20  1  0  0  0  0
 18 19  1  0  0  0  0
 19 20  2  0  0  0  0
 21 23  1  0  0  0  0
 23 22  2  0  0  0  0
 23 30  1  0  0  0  0
 24 31  1  0  0  0  0
 24 27  1  0  0  0  0
 25 30  2  0  0  0  0
 25 28  1  0  0  0  0
 28 24  2  0  0  0  0
 29 26  1  0  0  0  0
 29 31  2  0  0  0  0
 30 29  1  0  0  0  0
M  END
>  <MODEL>
3

>  <REMARK>
 VINA RESULT:      -8.4      4.487      7.876
  Name = 
  5 active torsions:
  status: ('A' for Active; 'I' for Inactive)
    1  A    between atoms: N_4  and  C_5
    2  A    between atoms: C_9  and  C_22
    3  A    between atoms: C_9  and  C_23
    4  A    between atoms: C_15  and  C_23
    5  A    between atoms: C_30  and  C_31
                            x       y       z     vdW  Elec       q    Type
                         _______ _______ _______ _____ _____    ______ ____

>  <TORSDO>
F 5

$$$$
=
 OpenBabel10262419313D

 31 35  0  0  1  0  0  0  0  0999 V2000
  180.8990  179.1310  136.5500 C   0  0  0  0  0  0  0  0  0  0  0  0
  183.9720  177.8360  137.9090 N   0  0  0  0  0  0  0  0  0  0  0  0
  182.6000  178.2950  137.9410 C   0  0  2  0  0  3  0  0  0  0  0  0
  180.5280  180.1470  137.6520 C   0  0  0  0  0  2  0  0  0  0  0  0
  184.0530  178.4540  140.2860 C   0  0  1  0  0  3  0  0  0  0  0  0
  180.1490  179.1570  135.2650 C   0  0  0  0  0  1  0  0  0  0  0  0
  183.8690  179.7110  139.4410 C   0  0  1  0  0  3  0  0  0  0  0  0
  184.7480  178.5590  138.9330 C   0  0  2  0  0  3  0  0  0  0  0  0
  181.9210  178.3390  136.6740 N   0  0  0  0  0  0  0  0  0  0  0  0
  182.7220  179.6890  138.4370 C   0  0  2  0  0  3  0  0  0  0  0  0
  181.4010  180.1240  138.8560 N   0  0  0  0  0  2  0  0  0  0  0  0
  184.3430  176.5190  137.4610 C   0  0  0  0  0  0  0  0  0  0  0  0
  184.2660  174.0970  137.8870 N   0  0  0  0  0  2  0  0  0  0  0  0
  183.5060  175.3420  137.9120 C   0  0  0  0  0  2  0  0  0  0  0  0
  184.7120  173.8890  136.5170 C   0  0  0  0  0  2  0  0  0  0  0  0
  185.7630  174.9360  136.1690 C   0  0  0  0  0  2  0  0  0  0  0  0
  185.3350  176.3350  136.5540 C   0  0  0  0  0  0  0  0  0  0  0  0
  188.0360  177.5540  137.5340 C   0  0  0  0  0  1  0  0  0  0  0  0
  187.2010  178.0520  136.4040 C   0  0  0  0  0  3  0  0  0  0  0  0
  186.0470  177.5130  135.9970 C   0  0  0  0  0  3  0  0  0  0  0  0
  185.0530  178.7360  141.3900 C   0  0  0  0  0  2  0  0  0  0  0  0
  183.1510  178.5730  142.7920 O   0  0  0  0  0  0  0  0  0  0  0  0
  184.4080  178.5350  142.7230 C   0  0  0  0  0  0  0  0  0  0  0  0
  186.8280  177.9010  146.2160 C   0  0  0  0  0  0  0  0  0  0  0  0
  186.4940  177.7280  143.8290 C   0  0  0  0  0  3  0  0  0  0  0  0
  183.5560  179.2920  145.3910 F   0  0  0  0  0  0  0  0  0  0  0  0
  187.6720  177.6750  147.4180 C   0  0  0  0  0  1  0  0  0  0  0  0
  187.2890  177.5180  144.9560 C   0  0  0  0  0  3  0  0  0  0  0  0
  184.7690  178.7090  145.2210 C   0  0  0  0  0  0  0  0  0  0  0  0
  185.2270  178.3250  143.9420 C   0  0  0  0  0  0  0  0  0  0  0  0
  185.5710  178.4950  146.3480 C   0  0  0  0  0  3  0  0  0  0  0  0
  1  9  2  0  0  0  0
  1  4  1  0  0  0  0
  2  3  1  0  0  0  0
  2  8  1  0  0  0  0
  3  9  1  6  0  0  0
  3 10  1  0  0  0  0
  4 11  1  0  0  0  0
  5 21  1  1  0  0  0
  6  1  1  0  0  0  0
  7  5  1  0  0  0  0
  8  7  1  0  0  0  0
  8  5  1  0  0  0  0
 10 11  1  0  0  0  0
 10  7  1  0  0  0  0
 12  2  1  0  0  0  0
 12 14  1  0  0  0  0
 13 14  1  0  0  0  0
 15 13  1  0  0  0  0
 16 15  1  0  0  0  0
 16 17  1  0  0  0  0
 17 12  2  0  0  0  0
 19 18  1  0  0  0  0
 20 19  2  0  0  0  0
 20 17  1  0  0  0  0
 21 23  1  0  0  0  0
 23 22  2  0  0  0  0
 23 30  1  0  0  0  0
 24 31  1  0  0  0  0
 24 27  1  0  0  0  0
 25 30  2  0  0  0  0
 25 28  1  0  0  0  0
 28 24  2  0  0  0  0
 29 26  1  0  0  0  0
 29 31  2  0  0  0  0
 30 29  1  0  0  0  0
M  END
>  <MODEL>
4

>  <REMARK>
 VINA RESULT:      -8.3      4.105      8.146
  Name = 
  5 active torsions:
  status: ('A' for Active; 'I' for Inactive)
    1  A    between atoms: N_4  and  C_5
    2  A    between atoms: C_9  and  C_22
    3  A    between atoms: C_9  and  C_23
    4  A    between atoms: C_15  and  C_23
    5  A    between atoms: C_30  and  C_31
                            x       y       z     vdW  Elec       q    Type
                         _______ _______ _______ _____ _____    ______ ____

>  <TORSDO>
F 5

$$$$
=
 OpenBabel10262419313D

 31 35  0  0  1  0  0  0  0  0999 V2000
  180.6870  180.6500  137.2930 C   0  0  0  0  0  0  0  0  0  0  0  0
  182.0050  177.7330  138.9420 N   0  0  0  0  0  0  0  0  0  0  0  0
  181.5300  179.0970  138.8430 C   0  0  2  0  0  3  0  0  0  0  0  0
  181.5600  181.7430  137.9470 C   0  0  0  0  0  2  0  0  0  0  0  0
  183.2580  178.4960  140.9130 C   0  0  1  0  0  3  0  0  0  0  0  0
  179.8510  181.0060  136.1140 C   0  0  0  0  0  1  0  0  0  0  0  0
  183.8060  179.1840  139.6670 C   0  0  1  0  0  3  0  0  0  0  0  0
  183.3260  177.7270  139.5980 C   0  0  2  0  0  3  0  0  0  0  0  0
  180.7560  179.4100  137.6710 N   0  0  0  0  0  0  0  0  0  0  0  0
  182.7860  179.8860  138.7790 C   0  0  2  0  0  3  0  0  0  0  0  0
  182.4460  181.2740  139.0450 N   0  0  0  0  0  2  0  0  0  0  0  0
  181.1170  176.6010  139.0060 C   0  0  0  0  0  0  0  0  0  0  0  0
  179.6960  175.1710  140.4170 N   0  0  0  0  0  2  0  0  0  0  0  0
  180.1050  176.5430  140.1290 C   0  0  0  0  0  2  0  0  0  0  0  0
  179.1120  174.6300  139.1980 C   0  0  0  0  0  2  0  0  0  0  0  0
  180.2100  174.4460  138.1580 C   0  0  0  0  0  2  0  0  0  0  0  0
  181.0880  175.6700  138.0210 C   0  0  0  0  0  0  0  0  0  0  0  0
  183.9580  174.5000  137.6480 C   0  0  0  0  0  1  0  0  0  0  0  0
  183.2090  175.3330  136.6630 C   0  0  0  0  0  3  0  0  0  0  0  0
  181.9770  175.8230  136.8410 C   0  0  0  0  0  3  0  0  0  0  0  0
  184.4130  178.0770  141.8010 C   0  0  0  0  0  2  0  0  0  0  0  0
  183.2320  179.3790  143.3880 O   0  0  0  0  0  0  0  0  0  0  0  0
  184.2270  178.6370  143.1740 C   0  0  0  0  0  0  0  0  0  0  0  0
  187.1050  177.7960  146.2520 C   0  0  0  0  0  0  0  0  0  0  0  0
  186.4840  177.8780  143.9180 C   0  0  0  0  0  3  0  0  0  0  0  0
  183.6710  179.0060  145.9980 F   0  0  0  0  0  0  0  0  0  0  0  0
  188.1070  177.5000  147.3090 C   0  0  0  0  0  1  0  0  0  0  0  0
  187.4270  177.6020  144.9090 C   0  0  0  0  0  3  0  0  0  0  0  0
  184.8880  178.5460  145.6150 C   0  0  0  0  0  0  0  0  0  0  0  0
  185.2050  178.3530  144.2530 C   0  0  0  0  0  0  0  0  0  0  0  0
  185.8380  178.2680  146.6040 C   0  0  0  0  0  3  0  0  0  0  0  0
  1  9  2  0  0  0  0
  1  4  1  0  0  0  0
  2 12  1  0  0  0  0
  2  8  1  0  0  0  0
  3  9  1  6  0  0  0
  3  2  1  0  0  0  0
  4 11  1  0  0  0  0
  5 21  1  1  0  0  0
  6  1  1  0  0  0  0
  7  5  1  0  0  0  0
  8  7  1  0  0  0  0
  8  5  1  0  0  0  0
 10  3  1  0  0  0  0
 10 11  1  0  0  0  0
 10  7  1  0  0  0  0
 12 14  1  0  0  0  0
 14 13  1  0  0  0  0
 15 13  1  0  0  0  0
 16 15  1  0  0  0  0
 17 16  1  0  0  0  0
 17 12  2  0  0  0  0
 19 20  2  0  0  0  0
 19 18  1  0  0  0  0
 20 17  1  0  0  0  0
 21 23  1  0  0  0  0
 23 22  2  0  0  0  0
 23 30  1  0  0  0  0
 24 31  1  0  0  0  0
 24 27  1  0  0  0  0
 25 30  2  0  0  0  0
 25 28  1  0  0  0  0
 28 24  2  0  0  0  0
 29 26  1  0  0  0  0
 29 31  2  0  0  0  0
 30 29  1  0  0  0  0
M  END
>  <MODEL>
5

>  <REMARK>
 VINA RESULT:      -8.1      4.008      8.741
  Name = 
  5 active torsions:
  status: ('A' for Active; 'I' for Inactive)
    1  A    between atoms: N_4  and  C_5
    2  A    between atoms: C_9  and  C_22
    3  A    between atoms: C_9  and  C_23
    4  A    between atoms: C_15  and  C_23
    5  A    between atoms: C_30  and  C_31
                            x       y       z     vdW  Elec       q    Type
                         _______ _______ _______ _____ _____    ______ ____

>  <TORSDO>
F 5

$$$$
=
 OpenBabel10262419313D

 31 35  0  0  1  0  0  0  0  0999 V2000
  190.6430  176.0430  138.8000 C   0  0  0  0  0  0  0  0  0  0  0  0
  189.4030  178.0500  141.5200 N   0  0  0  0  0  0  0  0  0  0  0  0
  189.3370  177.0530  140.4720 C   0  0  2  0  0  3  0  0  0  0  0  0
  189.4330  176.1150  137.8430 C   0  0  0  0  0  2  0  0  0  0  0  0
  186.9690  178.2460  141.2510 C   0  0  1  0  0  3  0  0  0  0  0  0
  191.9260  175.4830  138.2960 C   0  0  0  0  0  1  0  0  0  0  0  0
  187.6600  178.7300  139.9800 C   0  0  1  0  0  3  0  0  0  0  0  0
  188.2890  179.0010  141.3540 C   0  0  2  0  0  3  0  0  0  0  0  0
  190.5990  176.5630  139.9880 N   0  0  0  0  0  0  0  0  0  0  0  0
  188.6760  177.7790  139.3590 C   0  0  2  0  0  3  0  0  0  0  0  0
  188.2280  176.7900  138.3940 N   0  0  0  0  0  2  0  0  0  0  0  0
  190.0000  177.7920  142.8050 C   0  0  0  0  0  0  0  0  0  0  0  0
  192.0550  177.7690  144.1580 N   0  0  0  0  0  2  0  0  0  0  0  0
  191.2880  178.5030  143.1570 C   0  0  0  0  0  2  0  0  0  0  0  0
  191.2180  177.6500  145.3420 C   0  0  0  0  0  2  0  0  0  0  0  0
  190.0590  176.7070  145.0420 C   0  0  0  0  0  2  0  0  0  0  0  0
  189.3700  177.0350  143.7360 C   0  0  0  0  0  0  0  0  0  0  0  0
  186.6670  177.7290  145.1340 C   0  0  0  0  0  1  0  0  0  0  0  0
  186.8620  176.7510  144.0250 C   0  0  0  0  0  3  0  0  0  0  0  0
  188.0300  176.4700  143.4370 C   0  0  0  0  0  3  0  0  0  0  0  0
  185.8250  179.1820  141.5850 C   0  0  0  0  0  2  0  0  0  0  0  0
  184.5290  178.1890  139.8690 O   0  0  0  0  0  0  0  0  0  0  0  0
  184.5430  178.6310  141.0480 C   0  0  0  0  0  0  0  0  0  0  0  0
  181.0080  178.6280  143.4900 C   0  0  0  0  0  0  0  0  0  0  0  0
  183.4150  178.6280  143.2730 C   0  0  0  0  0  3  0  0  0  0  0  0
  181.8620  178.6320  139.9410 F   0  0  0  0  0  0  0  0  0  0  0  0
  179.7910  178.6250  144.3430 C   0  0  0  0  0  1  0  0  0  0  0  0
  182.2730  178.6290  144.0760 C   0  0  0  0  0  3  0  0  0  0  0  0
  182.0240  178.6280  141.2880 C   0  0  0  0  0  0  0  0  0  0  0  0
  183.3090  178.6290  141.8720 C   0  0  0  0  0  0  0  0  0  0  0  0
  180.8840  178.6280  142.0990 C   0  0  0  0  0  3  0  0  0  0  0  0
  1  9  2  0  0  0  0
  2 12  1  0  0  0  0
  3  9  1  6  0  0  0
  3  2  1  0  0  0  0
  4 11  1  0  0  0  0
  4  1  1  0  0  0  0
  5  8  1  0  0  0  0
  5 21  1  1  0  0  0
  6  1  1  0  0  0  0
  7  5  1  0  0  0  0
  7  8  1  0  0  0  0
  8  2  1  0  0  0  0
 10  7  1  0  0  0  0
 10  3  1  0  0  0  0
 11 10  1  0  0  0  0
 12 14  1  0  0  0  0
 12 17  2  0  0  0  0
 13 15  1  0  0  0  0
 14 13  1  0  0  0  0
 16 15  1  0  0  0  0
 17 16  1  0  0  0  0
 19 18  1  0  0  0  0
 20 17  1  0  0  0  0
 20 19  2  0  0  0  0
 22 23  2  0  0  0  0
 23 21  1  0  0  0  0
 23 30  1  0  0  0  0
 24 28  1  0  0  0  0
 24 27  1  0  0  0  0
 25 28  2  0  0  0  0
 26 29  1  0  0  0  0
 29 30  2  0  0  0  0
 29 31  1  0  0  0  0
 30 25  1  0  0  0  0
 31 24  2  0  0  0  0
M  END
>  <MODEL>
6

>  <REMARK>
 VINA RESULT:      -8.1      2.116      5.011
  Name = 
  5 active torsions:
  status: ('A' for Active; 'I' for Inactive)
    1  A    between atoms: N_4  and  C_5
    2  A    between atoms: C_9  and  C_22
    3  A    between atoms: C_9  and  C_23
    4  A    between atoms: C_15  and  C_23
    5  A    between atoms: C_30  and  C_31
                            x       y       z     vdW  Elec       q    Type
                         _______ _______ _______ _____ _____    ______ ____

>  <TORSDO>
F 5

$$$$
=
 OpenBabel10262419313D

 31 35  0  0  1  0  0  0  0  0999 V2000
  192.6340  175.8650  135.8820 C   0  0  0  0  0  0  0  0  0  0  0  0
  189.4520  176.3270  137.5030 N   0  0  0  0  0  0  0  0  0  0  0  0
  190.8210  176.6470  137.1580 C   0  0  2  0  0  3  0  0  0  0  0  0
  193.5810  176.2300  137.0460 C   0  0  0  0  0  2  0  0  0  0  0  0
  189.8390  177.6480  139.5390 C   0  0  1  0  0  3  0  0  0  0  0  0
  193.2040  175.2340  134.6610 C   0  0  0  0  0  1  0  0  0  0  0  0
  190.7220  176.4050  139.5660 C   0  0  1  0  0  3  0  0  0  0  0  0
  189.3080  176.3370  138.9710 C   0  0  2  0  0  3  0  0  0  0  0  0
  191.3460  175.9890  135.9920 N   0  0  0  0  0  0  0  0  0  0  0  0
  191.5860  176.1630  138.3340 C   0  0  2  0  0  3  0  0  0  0  0  0
  192.9130  176.7520  138.2680 N   0  0  0  0  0  2  0  0  0  0  0  0
  188.3420  176.6020  136.6270 C   0  0  0  0  0  0  0  0  0  0  0  0
  186.6200  178.2120  135.9230 N   0  0  0  0  0  2  0  0  0  0  0  0
  188.0180  178.0450  136.3080 C   0  0  0  0  0  2  0  0  0  0  0  0
  186.3930  177.3830  134.7480 C   0  0  0  0  0  2  0  0  0  0  0  0
  186.4620  175.9150  135.1510 C   0  0  0  0  0  2  0  0  0  0  0  0
  187.6790  175.6030  135.9950 C   0  0  0  0  0  0  0  0  0  0  0  0
  186.1550  173.3570  137.5360 C   0  0  0  0  0  1  0  0  0  0  0  0
  187.4740  173.2210  136.8520 C   0  0  0  0  0  3  0  0  0  0  0  0
  188.1090  174.1960  136.1940 C   0  0  0  0  0  3  0  0  0  0  0  0
  189.2530  177.8750  140.9180 C   0  0  0  0  0  2  0  0  0  0  0  0
  187.3850  178.6080  139.6600 O   0  0  0  0  0  0  0  0  0  0  0  0
  187.8250  178.3010  140.8000 C   0  0  0  0  0  0  0  0  0  0  0  0
  185.3510  178.5310  144.3050 C   0  0  0  0  0  0  0  0  0  0  0  0
  187.4130  177.8810  143.2240 C   0  0  0  0  0  3  0  0  0  0  0  0
  185.1770  179.4860  140.7870 F   0  0  0  0  0  0  0  0  0  0  0  0
  184.5030  178.6040  145.5230 C   0  0  0  0  0  1  0  0  0  0  0  0
  186.6180  177.9510  144.3690 C   0  0  0  0  0  3  0  0  0  0  0  0
  185.6700  178.9750  141.9420 C   0  0  0  0  0  0  0  0  0  0  0  0
  186.9540  178.3900  141.9970 C   0  0  0  0  0  0  0  0  0  0  0  0
  184.8790  179.0420  143.0940 C   0  0  0  0  0  3  0  0  0  0  0  0
  1  9  2  0  0  0  0
  1  4  1  0  0  0  0
  2  8  1  0  0  0  0
  3  9  1  6  0  0  0
  3  2  1  0  0  0  0
  3 10  1  0  0  0  0
  4 11  1  0  0  0  0
  5  7  1  0  0  0  0
  5 21  1  1  0  0  0
  6  1  1  0  0  0  0
  8  5  1  0  0  0  0
  8  7  1  0  0  0  0
 10  7  1  0  0  0  0
 11 10  1  0  0  0  0
 12  2  1  0  0  0  0
 13 14  1  0  0  0  0
 14 12  1  0  0  0  0
 15 16  1  0  0  0  0
 15 13  1  0  0  0  0
 16 17  1  0  0  0  0
 17 20  1  0  0  0  0
 17 12  2  0  0  0  0
 19 18  1  0  0  0  0
 20 19  2  0  0  0  0
 22 23  2  0  0  0  0
 23 21  1  0  0  0  0
 23 30  1  0  0  0  0
 24 28  1  0  0  0  0
 24 27  1  0  0  0  0
 25 28  2  0  0  0  0
 26 29  1  0  0  0  0
 29 30  2  0  0  0  0
 29 31  1  0  0  0  0
 30 25  1  0  0  0  0
 31 24  2  0  0  0  0
M  END
>  <MODEL>
7

>  <REMARK>
 VINA RESULT:      -8.0      4.336      7.409
  Name = 
  5 active torsions:
  status: ('A' for Active; 'I' for Inactive)
    1  A    between atoms: N_4  and  C_5
    2  A    between atoms: C_9  and  C_22
    3  A    between atoms: C_9  and  C_23
    4  A    between atoms: C_15  and  C_23
    5  A    between atoms: C_30  and  C_31
                            x       y       z     vdW  Elec       q    Type
                         _______ _______ _______ _____ _____    ______ ____

>  <TORSDO>
F 5

$$$$
=
 OpenBabel10262419313D

 31 35  0  0  1  0  0  0  0  0999 V2000
  180.5910  180.4900  137.5340 C   0  0  0  0  0  0  0  0  0  0  0  0
  181.9310  177.7600  139.4620 N   0  0  0  0  0  0  0  0  0  0  0  0
  181.5370  179.1280  139.2000 C   0  0  2  0  0  3  0  0  0  0  0  0
  181.6160  181.5910  137.8840 C   0  0  0  0  0  2  0  0  0  0  0  0
  183.4930  178.7060  141.1060 C   0  0  1  0  0  3  0  0  0  0  0  0
  179.6250  180.7320  136.4280 C   0  0  0  0  0  1  0  0  0  0  0  0
  183.9060  179.1430  139.7040 C   0  0  1  0  0  3  0  0  0  0  0  0
  183.3260  177.7400  139.9380 C   0  0  2  0  0  3  0  0  0  0  0  0
  180.6300  179.3230  138.1010 N   0  0  0  0  0  0  0  0  0  0  0  0
  182.8210  179.7860  138.8480 C   0  0  2  0  0  3  0  0  0  0  0  0
  182.6140  181.2220  138.9220 N   0  0  0  0  0  2  0  0  0  0  0  0
  180.9870  176.7330  139.8240 C   0  0  0  0  0  0  0  0  0  0  0  0
  180.0170  174.5390  139.2800 N   0  0  0  0  0  2  0  0  0  0  0  0
  181.2480  175.3180  139.3560 C   0  0  0  0  0  2  0  0  0  0  0  0
  179.4350  174.5180  140.6130 C   0  0  0  0  0  2  0  0  0  0  0  0
  178.9320  175.9140  140.9610 C   0  0  0  0  0  2  0  0  0  0  0  0
  179.9590  176.9870  140.6690 C   0  0  0  0  0  0  0  0  0  0  0  0
  180.0820  177.7850  143.6840 C   0  0  0  0  0  1  0  0  0  0  0  0
  179.8500  178.7080  142.5350 C   0  0  0  0  0  3  0  0  0  0  0  0
  179.8040  178.3450  141.2490 C   0  0  0  0  0  3  0  0  0  0  0  0
  184.7300  178.3310  141.8970 C   0  0  0  0  0  2  0  0  0  0  0  0
  183.3680  179.0050  143.7130 O   0  0  0  0  0  0  0  0  0  0  0  0
  184.4840  178.5440  143.3560 C   0  0  0  0  0  0  0  0  0  0  0  0
  187.5780  177.6760  146.2080 C   0  0  0  0  0  0  0  0  0  0  0  0
  186.7940  177.7930  143.9250 C   0  0  0  0  0  3  0  0  0  0  0  0
  184.1250  178.8570  146.2180 F   0  0  0  0  0  0  0  0  0  0  0  0
  188.6540  177.3700  147.1860 C   0  0  0  0  0  1  0  0  0  0  0  0
  187.8070  177.5090  144.8420 C   0  0  0  0  0  3  0  0  0  0  0  0
  185.3160  178.4160  145.7420 C   0  0  0  0  0  0  0  0  0  0  0  0
  185.5380  178.2500  144.3580 C   0  0  0  0  0  0  0  0  0  0  0  0
  186.3350  178.1290  146.6560 C   0  0  0  0  0  3  0  0  0  0  0  0
  1  4  1  0  0  0  0
  1  9  2  0  0  0  0
  2 12  1  0  0  0  0
  2  8  1  0  0  0  0
  3  9  1  6  0  0  0
  3  2  1  0  0  0  0
  4 11  1  0  0  0  0
  5 21  1  1  0  0  0
  6  1  1  0  0  0  0
  7  8  1  0  0  0  0
  7  5  1  0  0  0  0
  8  5  1  0  0  0  0
 10 11  1  0  0  0  0
 10  3  1  0  0  0  0
 10  7  1  0  0  0  0
 12 17  2  0  0  0  0
 13 14  1  0  0  0  0
 13 15  1  0  0  0  0
 14 12  1  0  0  0  0
 15 16  1  0  0  0  0
 17 16  1  0  0  0  0
 17 20  1  0  0  0  0
 19 18  1  0  0  0  0
 20 19  2  0  0  0  0
 21 23  1  0  0  0  0
 23 22  2  0  0  0  0
 23 30  1  0  0  0  0
 24 31  1  0  0  0  0
 24 27  1  0  0  0  0
 25 30  2  0  0  0  0
 25 28  1  0  0  0  0
 28 24  2  0  0  0  0
 29 26  1  0  0  0  0
 29 31  2  0  0  0  0
 30 29  1  0  0  0  0
M  END
>  <MODEL>
8

>  <REMARK>
 VINA RESULT:      -8.0      3.746      8.911
  Name = 
  5 active torsions:
  status: ('A' for Active; 'I' for Inactive)
    1  A    between atoms: N_4  and  C_5
    2  A    between atoms: C_9  and  C_22
    3  A    between atoms: C_9  and  C_23
    4  A    between atoms: C_15  and  C_23
    5  A    between atoms: C_30  and  C_31
                            x       y       z     vdW  Elec       q    Type
                         _______ _______ _______ _____ _____    ______ ____

>  <TORSDO>
F 5

$$$$
=
 OpenBabel10262419313D

 31 35  0  0  1  0  0  0  0  0999 V2000
  184.6680  179.0000  143.7510 C   0  0  0  0  0  0  0  0  0  0  0  0
  187.6740  177.3220  144.8060 N   0  0  0  0  0  0  0  0  0  0  0  0
  186.8780  178.2520  144.0320 C   0  0  2  0  0  3  0  0  0  0  0  0
  184.8890  179.0060  142.2230 C   0  0  0  0  0  2  0  0  0  0  0  0
  189.2600  177.3870  142.9300 C   0  0  1  0  0  3  0  0  0  0  0  0
  183.3320  179.3780  144.2870 C   0  0  0  0  0  1  0  0  0  0  0  0
  187.9540  176.7480  142.4680 C   0  0  1  0  0  3  0  0  0  0  0  0
  188.4790  176.4950  143.8880 C   0  0  2  0  0  3  0  0  0  0  0  0
  185.5790  178.5640  144.5660 N   0  0  0  0  0  0  0  0  0  0  0  0
  186.6790  177.5370  142.7470 C   0  0  2  0  0  3  0  0  0  0  0  0
  186.2150  178.5080  141.7710 N   0  0  0  0  0  2  0  0  0  0  0  0
  188.0950  177.5910  146.1570 C   0  0  0  0  0  0  0  0  0  0  0  0
  187.5460  178.6280  148.3200 N   0  0  0  0  0  2  0  0  0  0  0  0
  187.0330  177.8370  147.2060 C   0  0  0  0  0  2  0  0  0  0  0  0
  188.6540  177.8840  148.9030 C   0  0  0  0  0  2  0  0  0  0  0  0
  189.8220  177.8780  147.9240 C   0  0  0  0  0  2  0  0  0  0  0  0
  189.3970  177.5020  146.5210 C   0  0  0  0  0  0  0  0  0  0  0  0
  192.0520  175.9390  147.0260 C   0  0  0  0  0  1  0  0  0  0  0  0
  191.5580  176.4390  145.7100 C   0  0  0  0  0  3  0  0  0  0  0  0
  190.4150  177.1050  145.5150 C   0  0  0  0  0  3  0  0  0  0  0  0
  190.4270  176.6100  142.3540 C   0  0  0  0  0  2  0  0  0  0  0  0
  192.0230  178.1560  141.5380 O   0  0  0  0  0  0  0  0  0  0  0  0
  191.0640  177.3920  141.2520 C   0  0  0  0  0  0  0  0  0  0  0  0
  189.6570  177.0610  137.2060 C   0  0  0  0  0  0  0  0  0  0  0  0
  191.1550  176.3760  138.9750 C   0  0  0  0  0  3  0  0  0  0  0  0
  188.8920  179.0020  140.2000 F   0  0  0  0  0  0  0  0  0  0  0  0
  189.1800  176.9400  135.8040 C   0  0  0  0  0  1  0  0  0  0  0  0
  190.7050  176.2590  137.6590 C   0  0  0  0  0  3  0  0  0  0  0  0
  189.5030  178.1010  139.3910 C   0  0  0  0  0  0  0  0  0  0  0  0
  190.5630  177.2950  139.8590 C   0  0  0  0  0  0  0  0  0  0  0  0
  189.0580  177.9790  138.0700 C   0  0  0  0  0  3  0  0  0  0  0  0
  1  6  1  0  0  0  0
  1  9  2  0  0  0  0
  2 12  1  0  0  0  0
  3  9  1  1  0  0  0
  3  2  1  0  0  0  0
  4  1  1  0  0  0  0
  5 21  1  6  0  0  0
  5  8  1  0  0  0  0
  7 10  1  0  0  0  0
  7  5  1  0  0  0  0
  7  8  1  0  0  0  0
  8  2  1  0  0  0  0
 10  3  1  0  0  0  0
 11  4  1  0  0  0  0
 11 10  1  0  0  0  0
 12 17  2  0  0  0  0
 12 14  1  0  0  0  0
 13 15  1  0  0  0  0
 14 13  1  0  0  0  0
 16 15  1  0  0  0  0
 17 16  1  0  0  0  0
 19 18  1  0  0  0  0
 20 19  2  0  0  0  0
 20 17  1  0  0  0  0
 23 22  2  0  0  0  0
 23 21  1  0  0  0  0
 24 28  2  0  0  0  0
 24 31  1  0  0  0  0
 25 30  2  0  0  0  0
 27 24  1  0  0  0  0
 28 25  1  0  0  0  0
 29 30  1  0  0  0  0
 29 26  1  0  0  0  0
 30 23  1  0  0  0  0
 31 29  2  0  0  0  0
M  END
>  <MODEL>
9

>  <REMARK>
 VINA RESULT:      -7.9      2.665      7.010
  Name = 
  5 active torsions:
  status: ('A' for Active; 'I' for Inactive)
    1  A    between atoms: N_4  and  C_5
    2  A    between atoms: C_9  and  C_22
    3  A    between atoms: C_9  and  C_23
    4  A    between atoms: C_15  and  C_23
    5  A    between atoms: C_30  and  C_31
                            x       y       z     vdW  Elec       q    Type
                         _______ _______ _______ _____ _____    ______ ____

>  <TORSDO>
F 5

$$$$
