=
 OpenBabel10262419583D

 27 31  0  0  1  0  0  0  0  0999 V2000
  188.4580  176.3610  142.8960 N   0  0  0  0  0  2  0  0  0  0  0  0
  187.2710  178.1160  144.1010 C   0  0  0  0  0  0  0  0  0  0  0  0
  186.7110  178.3260  141.7100 N   0  0  0  0  0  2  0  0  0  0  0  0
  183.4230  179.3610  145.0790 N   0  0  0  0  0  0  0  0  0  0  0  0
  181.4570  178.5390  143.8880 C   0  0  0  0  0  1  0  0  0  0  0  0
  186.8210  178.2060  145.5250 C   0  0  0  0  0  3  0  0  0  0  0  0
  183.9070  178.5960  142.9870 C   0  0  2  0  0  3  0  0  0  0  0  0
  189.2250  178.9690  139.4750 C   0  0  0  0  0  2  0  0  0  0  0  0
  183.7000  177.7670  141.7640 C   0  0  0  0  0  1  0  0  0  0  0  0
  190.2470  177.9760  138.9140 C   0  0  0  0  0  2  0  0  0  0  0  0
  185.0730  178.9460  143.5090 C   0  0  1  0  0  3  0  0  0  0  0  0
  188.6230  177.5180  143.7740 C   0  0  1  0  0  3  0  0  0  0  0  0
  182.9020  178.8740  144.0010 C   0  0  0  0  0  0  0  0  0  0  0  0
  184.8530  179.5440  144.8590 C   0  0  2  0  0  3  0  0  0  0  0  0
  188.6120  176.7440  141.4880 C   0  0  2  0  0  3  0  0  0  0  0  0
  186.4070  178.4610  143.1110 C   0  0  0  0  0  0  0  0  0  0  0  0
  188.0130  178.3360  139.7700 O   0  0  0  0  0  0  0  0  0  0  0  0
  185.6820  178.8200  145.8810 C   0  0  0  0  0  3  0  0  0  0  0  0
  190.1900  176.5820  139.5490 C   0  0  0  0  0  2  0  0  0  0  0  0
  190.0750  176.6210  141.0700 C   0  0  0  0  0  2  0  0  0  0  0  0
  188.0470  178.1420  141.1570 C   0  0  1  0  0  3  0  0  0  0  0  0
  191.0790  176.5470  147.1700 C   0  0  0  0  0  3  0  0  0  0  0  0
  189.4640  177.1680  144.9680 C   0  0  0  0  0  0  0  0  0  0  0  0
  190.8210  176.8800  144.7850 C   0  0  0  0  0  3  0  0  0  0  0  0
  191.6280  176.5680  145.8840 C   0  0  0  0  0  3  0  0  0  0  0  0
  189.7250  176.8390  147.3580 C   0  0  0  0  0  3  0  0  0  0  0  0
  188.9190  177.1500  146.2610 C   0  0  0  0  0  3  0  0  0  0  0  0
  1 12  1  0  0  0  0
  2  6  1  0  0  0  0
  3 16  1  0  0  0  0
  5 13  1  0  0  0  0
  6 18  2  0  0  0  0
  7  9  1  1  0  0  0
  7 11  1  0  0  0  0
  7 13  1  0  0  0  0
  8 17  1  0  0  0  0
 10  8  1  0  0  0  0
 10 19  1  0  0  0  0
 11 16  1  1  0  0  0
 11 14  1  0  0  0  0
 12  2  1  0  0  0  0
 12 23  1  1  0  0  0
 13  4  2  0  0  0  0
 14  4  1  0  0  0  0
 14 18  1  1  0  0  0
 15 20  1  1  0  0  0
 15  1  1  0  0  0  0
 16  2  2  0  0  0  0
 19 20  1  0  0  0  0
 21 17  1  6  0  0  0
 21 15  1  0  0  0  0
 21  3  1  0  0  0  0
 22 26  1  0  0  0  0
 23 27  1  0  0  0  0
 24 23  2  0  0  0  0
 24 25  1  0  0  0  0
 25 22  2  0  0  0  0
 27 26  2  0  0  0  0
M  END
>  <MODEL>
1

>  <REMARK>
 VINA RESULT:     -10.5      0.000      0.000
  Name = 
  1 active torsions:
  status: ('A' for Active; 'I' for Inactive)
    1  A    between atoms: C_9  and  C_15
                            x       y       z     vdW  Elec       q    Type
                         _______ _______ _______ _____ _____    ______ ____

>  <TORSDO>
F 1

$$$$
=
 OpenBabel10262419583D

 27 31  0  0  1  0  0  0  0  0999 V2000
  188.4690  176.3990  142.5130 N   0  0  0  0  0  2  0  0  0  0  0  0
  187.2890  178.1730  143.6980 C   0  0  0  0  0  0  0  0  0  0  0  0
  186.7080  178.3400  141.3090 N   0  0  0  0  0  2  0  0  0  0  0  0
  183.4470  179.4290  144.6880 N   0  0  0  0  0  0  0  0  0  0  0  0
  181.4720  178.5830  143.5290 C   0  0  0  0  0  1  0  0  0  0  0  0
  186.8520  178.2870  145.1240 C   0  0  0  0  0  3  0  0  0  0  0  0
  183.9150  178.6280  142.6050 C   0  0  2  0  0  3  0  0  0  0  0  0
  189.2010  178.9480  139.0400 C   0  0  0  0  0  2  0  0  0  0  0  0
  183.6990  177.7770  141.3980 C   0  0  0  0  0  1  0  0  0  0  0  0
  190.2200  177.9460  138.4870 C   0  0  0  0  0  2  0  0  0  0  0  0
  185.0850  178.9880  143.1110 C   0  0  1  0  0  3  0  0  0  0  0  0
  188.6400  177.5720  143.3690 C   0  0  1  0  0  3  0  0  0  0  0  0
  182.9180  178.9220  143.6230 C   0  0  0  0  0  0  0  0  0  0  0  0
  184.8750  179.6100  144.4520 C   0  0  2  0  0  3  0  0  0  0  0  0
  188.6090  176.7570  141.0970 C   0  0  2  0  0  3  0  0  0  0  0  0
  186.4160  178.5000  142.7090 C   0  0  0  0  0  0  0  0  0  0  0  0
  187.9920  178.3180  139.3570 O   0  0  0  0  0  0  0  0  0  0  0  0
  185.7150  178.9050  145.4790 C   0  0  0  0  0  3  0  0  0  0  0  0
  190.1700  176.5640  139.1480 C   0  0  0  0  0  2  0  0  0  0  0  0
  190.0690  176.6300  140.6680 C   0  0  0  0  0  2  0  0  0  0  0  0
  188.0390  178.1490  140.7460 C   0  0  1  0  0  3  0  0  0  0  0  0
  191.0410  176.5880  146.8000 C   0  0  0  0  0  3  0  0  0  0  0  0
  189.4910  177.2440  144.5610 C   0  0  0  0  0  0  0  0  0  0  0  0
  188.8730  176.9060  145.7690 C   0  0  0  0  0  3  0  0  0  0  0  0
  189.6460  176.5800  146.8880 C   0  0  0  0  0  3  0  0  0  0  0  0
  191.6640  176.9190  145.5940 C   0  0  0  0  0  3  0  0  0  0  0  0
  190.8930  177.2460  144.4760 C   0  0  0  0  0  3  0  0  0  0  0  0
  1 12  1  0  0  0  0
  2  6  1  0  0  0  0
  3 16  1  0  0  0  0
  5 13  1  0  0  0  0
  6 18  2  0  0  0  0
  7  9  1  1  0  0  0
  7 11  1  0  0  0  0
  7 13  1  0  0  0  0
  8 17  1  0  0  0  0
 10  8  1  0  0  0  0
 10 19  1  0  0  0  0
 11 16  1  1  0  0  0
 11 14  1  0  0  0  0
 12  2  1  0  0  0  0
 12 23  1  1  0  0  0
 13  4  2  0  0  0  0
 14  4  1  0  0  0  0
 14 18  1  1  0  0  0
 15 20  1  1  0  0  0
 15  1  1  0  0  0  0
 16  2  2  0  0  0  0
 19 20  1  0  0  0  0
 21 17  1  6  0  0  0
 21 15  1  0  0  0  0
 21  3  1  0  0  0  0
 22 25  1  0  0  0  0
 23 24  1  0  0  0  0
 24 25  2  0  0  0  0
 26 22  2  0  0  0  0
 27 23  2  0  0  0  0
 27 26  1  0  0  0  0
M  END
>  <MODEL>
2

>  <REMARK>
 VINA RESULT:      -9.5      0.419      1.007
  Name = 
  1 active torsions:
  status: ('A' for Active; 'I' for Inactive)
    1  A    between atoms: C_9  and  C_15
                            x       y       z     vdW  Elec       q    Type
                         _______ _______ _______ _____ _____    ______ ____

>  <TORSDO>
F 1

$$$$
=
 OpenBabel10262419583D

 27 31  0  0  1  0  0  0  0  0999 V2000
  187.4830  176.8740  143.1290 N   0  0  0  0  0  2  0  0  0  0  0  0
  186.8650  178.2600  141.2210 C   0  0  0  0  0  0  0  0  0  0  0  0
  189.2650  177.7330  141.0300 N   0  0  0  0  0  2  0  0  0  0  0  0
  186.5390  178.1310  137.0740 N   0  0  0  0  0  0  0  0  0  0  0  0
  187.6250  176.3940  135.7460 C   0  0  0  0  0  1  0  0  0  0  0  0
  185.5510  178.4710  140.5370 C   0  0  0  0  0  3  0  0  0  0  0  0
  188.3200  177.1840  138.1370 C   0  0  2  0  0  3  0  0  0  0  0  0
  191.3910  178.7930  143.4970 C   0  0  0  0  0  2  0  0  0  0  0  0
  189.3000  176.1000  138.4390 C   0  0  0  0  0  1  0  0  0  0  0  0
  191.5970  178.1660  144.8800 C   0  0  0  0  0  2  0  0  0  0  0  0
  187.8180  178.0500  139.0030 C   0  0  1  0  0  3  0  0  0  0  0  0
  186.9230  178.1650  142.7310 C   0  0  1  0  0  3  0  0  0  0  0  0
  187.4930  177.2670  136.9440 C   0  0  0  0  0  0  0  0  0  0  0  0
  186.6890  178.7910  138.3660 C   0  0  2  0  0  3  0  0  0  0  0  0
  188.9260  176.9800  143.3720 C   0  0  2  0  0  3  0  0  0  0  0  0
  187.9750  178.0350  140.4690 C   0  0  0  0  0  0  0  0  0  0  0  0
  191.0360  177.8250  142.5500 O   0  0  0  0  0  0  0  0  0  0  0  0
  185.4540  178.6680  139.2140 C   0  0  0  0  0  3  0  0  0  0  0  0
  190.6300  177.0230  145.2070 C   0  0  0  0  0  2  0  0  0  0  0  0
  189.1850  177.3360  144.8340 C   0  0  0  0  0  2  0  0  0  0  0  0
  189.6490  177.9560  142.4180 C   0  0  1  0  0  3  0  0  0  0  0  0
  183.2150  178.9300  144.7730 C   0  0  0  0  0  3  0  0  0  0  0  0
  185.6180  178.4200  143.4300 C   0  0  0  0  0  0  0  0  0  0  0  0
  185.5950  178.4880  144.8270 C   0  0  0  0  0  3  0  0  0  0  0  0
  184.3950  178.7410  145.4980 C   0  0  0  0  0  3  0  0  0  0  0  0
  183.2330  178.8690  143.3770 C   0  0  0  0  0  3  0  0  0  0  0  0
  184.4320  178.6150  142.7060 C   0  0  0  0  0  3  0  0  0  0  0  0
  1 15  1  0  0  0  0
  2 12  1  0  0  0  0
  4 14  1  0  0  0  0
  5 13  1  0  0  0  0
  6  2  1  0  0  0  0
  7  9  1  1  0  0  0
  7 11  1  0  0  0  0
  8 10  1  0  0  0  0
 10 19  1  0  0  0  0
 11 16  1  1  0  0  0
 12  1  1  0  0  0  0
 12 23  1  1  0  0  0
 13  4  2  0  0  0  0
 13  7  1  0  0  0  0
 14 11  1  0  0  0  0
 14 18  1  1  0  0  0
 15 20  1  1  0  0  0
 16  3  1  0  0  0  0
 16  2  2  0  0  0  0
 17  8  1  0  0  0  0
 18  6  2  0  0  0  0
 20 19  1  0  0  0  0
 21  3  1  6  0  0  0
 21 17  1  0  0  0  0
 21 15  1  0  0  0  0
 22 25  1  0  0  0  0
 23 24  1  0  0  0  0
 24 25  2  0  0  0  0
 26 22  2  0  0  0  0
 27 26  1  0  0  0  0
 27 23  2  0  0  0  0
M  END
>  <MODEL>
3

>  <REMARK>
 VINA RESULT:      -9.1      2.195      5.876
  Name = 
  1 active torsions:
  status: ('A' for Active; 'I' for Inactive)
    1  A    between atoms: C_9  and  C_15
                            x       y       z     vdW  Elec       q    Type
                         _______ _______ _______ _____ _____    ______ ____

>  <TORSDO>
F 1

$$$$
=
 OpenBabel10262419583D

 27 31  0  0  1  0  0  0  0  0999 V2000
  187.4730  179.2500  140.9410 N   0  0  0  0  0  2  0  0  0  0  0  0
  186.7090  177.9260  142.8400 C   0  0  0  0  0  0  0  0  0  0  0  0
  189.0960  177.4300  142.4810 N   0  0  0  0  0  2  0  0  0  0  0  0
  187.2680  177.4910  146.9400 N   0  0  0  0  0  0  0  0  0  0  0  0
  189.2140  178.4200  148.0840 C   0  0  0  0  0  1  0  0  0  0  0  0
  185.5850  178.1380  143.8040 C   0  0  0  0  0  3  0  0  0  0  0  0
  189.0420  177.8240  145.5480 C   0  0  2  0  0  3  0  0  0  0  0  0
  190.0660  176.0400  139.5040 C   0  0  0  0  0  2  0  0  0  0  0  0
  190.3090  178.4700  145.0940 C   0  0  0  0  0  1  0  0  0  0  0  0
  190.2470  176.7520  138.1600 C   0  0  0  0  0  2  0  0  0  0  0  0
  188.0670  177.3790  144.7700 C   0  0  1  0  0  3  0  0  0  0  0  0
  186.5110  178.2360  141.3710 C   0  0  1  0  0  3  0  0  0  0  0  0
  188.5010  177.8780  146.8970 C   0  0  0  0  0  0  0  0  0  0  0  0
  186.8770  177.0470  145.6080 C   0  0  2  0  0  3  0  0  0  0  0  0
  188.6620  178.6280  140.3490 C   0  0  2  0  0  3  0  0  0  0  0  0
  187.9320  177.5700  143.3150 C   0  0  0  0  0  0  0  0  0  0  0  0
  190.3380  176.9000  140.5740 O   0  0  0  0  0  0  0  0  0  0  0  0
  185.6700  177.7810  145.0950 C   0  0  0  0  0  3  0  0  0  0  0  0
  189.8050  178.2200  138.1580 C   0  0  0  0  0  2  0  0  0  0  0  0
  188.4630  178.4430  138.8470 C   0  0  0  0  0  2  0  0  0  0  0  0
  189.0770  177.3040  141.0280 C   0  0  1  0  0  3  0  0  0  0  0  0
  182.5180  179.3590  140.2280 C   0  0  0  0  0  3  0  0  0  0  0  0
  185.1130  178.6320  140.9930 C   0  0  0  0  0  0  0  0  0  0  0  0
  184.9040  179.3590  139.8160 C   0  0  0  0  0  3  0  0  0  0  0  0
  183.6090  179.7240  139.4340 C   0  0  0  0  0  3  0  0  0  0  0  0
  182.7200  178.6270  141.4020 C   0  0  0  0  0  3  0  0  0  0  0  0
  184.0130  178.2630  141.7840 C   0  0  0  0  0  3  0  0  0  0  0  0
  1 12  1  0  0  0  0
  2 16  2  0  0  0  0
  2  6  1  0  0  0  0
  3 16  1  0  0  0  0
  6 18  2  0  0  0  0
  7  9  1  6  0  0  0
  7 13  1  0  0  0  0
  8 17  1  0  0  0  0
 10  8  1  0  0  0  0
 11 16  1  6  0  0  0
 11  7  1  0  0  0  0
 11 14  1  0  0  0  0
 12 23  1  1  0  0  0
 12  2  1  0  0  0  0
 13  4  2  0  0  0  0
 13  5  1  0  0  0  0
 14 18  1  6  0  0  0
 14  4  1  0  0  0  0
 15 20  1  6  0  0  0
 15  1  1  0  0  0  0
 15 21  1  0  0  0  0
 19 10  1  0  0  0  0
 19 20  1  0  0  0  0
 21 17  1  6  0  0  0
 21  3  1  0  0  0  0
 22 26  1  0  0  0  0
 23 27  1  0  0  0  0
 24 23  2  0  0  0  0
 25 24  1  0  0  0  0
 25 22  2  0  0  0  0
 26 27  2  0  0  0  0
M  END
>  <MODEL>
4

>  <REMARK>
 VINA RESULT:      -8.8      1.797      5.504
  Name = 
  1 active torsions:
  status: ('A' for Active; 'I' for Inactive)
    1  A    between atoms: C_9  and  C_15
                            x       y       z     vdW  Elec       q    Type
                         _______ _______ _______ _____ _____    ______ ____

>  <TORSDO>
F 1

$$$$
=
 OpenBabel10262419583D

 27 31  0  0  1  0  0  0  0  0999 V2000
  186.5910  176.9030  144.6740 N   0  0  0  0  0  2  0  0  0  0  0  0
  187.2260  178.2330  142.7330 C   0  0  0  0  0  0  0  0  0  0  0  0
  189.2770  177.7070  143.9950 N   0  0  0  0  0  2  0  0  0  0  0  0
  189.3850  177.9890  139.1840 N   0  0  0  0  0  0  0  0  0  0  0  0
  191.0180  176.2180  138.7850 C   0  0  0  0  0  1  0  0  0  0  0  0
  186.5630  178.4220  141.4050 C   0  0  0  0  0  3  0  0  0  0  0  0
  190.1940  177.0760  141.1100 C   0  0  2  0  0  3  0  0  0  0  0  0
  189.5720  178.8400  147.2140 C   0  0  0  0  0  2  0  0  0  0  0  0
  190.7970  176.0030  141.9550 C   0  0  0  0  0  1  0  0  0  0  0  0
  188.9220  178.2530  148.4700 C   0  0  0  0  0  2  0  0  0  0  0  0
  189.2930  177.9650  141.4980 C   0  0  1  0  0  3  0  0  0  0  0  0
  186.3880  178.1800  143.9930 C   0  0  1  0  0  3  0  0  0  0  0  0
  190.2220  177.1240  139.6570 C   0  0  0  0  0  0  0  0  0  0  0  0
  188.7600  178.6840  140.3030 C   0  0  2  0  0  3  0  0  0  0  0  0
  187.6210  177.0180  145.7130 C   0  0  2  0  0  3  0  0  0  0  0  0
  188.5620  177.9910  142.7780 C   0  0  0  0  0  0  0  0  0  0  0  0
  189.8250  177.8460  146.2620 O   0  0  0  0  0  0  0  0  0  0  0  0
  187.2620  178.5820  140.2710 C   0  0  0  0  0  3  0  0  0  0  0  0
  187.9310  177.1160  148.1970 C   0  0  0  0  0  2  0  0  0  0  0  0
  186.9810  177.4160  147.0410 C   0  0  0  0  0  2  0  0  0  0  0  0
  188.7790  177.9700  145.3400 C   0  0  1  0  0  3  0  0  0  0  0  0
  182.2000  179.0030  143.4520 C   0  0  0  0  0  3  0  0  0  0  0  0
  184.9250  178.4510  143.7910 C   0  0  0  0  0  0  0  0  0  0  0  0
  184.1440  178.8330  144.8860 C   0  0  0  0  0  3  0  0  0  0  0  0
  182.7830  179.1070  144.7180 C   0  0  0  0  0  3  0  0  0  0  0  0
  182.9770  178.6270  142.3530 C   0  0  0  0  0  3  0  0  0  0  0  0
  184.3370  178.3530  142.5200 C   0  0  0  0  0  3  0  0  0  0  0  0
  1 15  1  0  0  0  0
  2 16  2  0  0  0  0
  2 12  1  0  0  0  0
  4 13  2  0  0  0  0
  4 14  1  0  0  0  0
  5 13  1  0  0  0  0
  6  2  1  0  0  0  0
  7 11  1  0  0  0  0
  7  9  1  6  0  0  0
  8 10  1  0  0  0  0
 11 16  1  6  0  0  0
 12 23  1  6  0  0  0
 12  1  1  0  0  0  0
 13  7  1  0  0  0  0
 14 18  1  6  0  0  0
 14 11  1  0  0  0  0
 15 20  1  1  0  0  0
 16  3  1  0  0  0  0
 17  8  1  0  0  0  0
 18  6  2  0  0  0  0
 19 10  1  0  0  0  0
 20 19  1  0  0  0  0
 21  3  1  6  0  0  0
 21 15  1  0  0  0  0
 21 17  1  0  0  0  0
 22 25  1  0  0  0  0
 23 24  1  0  0  0  0
 25 24  2  0  0  0  0
 26 27  1  0  0  0  0
 26 22  2  0  0  0  0
 27 23  2  0  0  0  0
M  END
>  <MODEL>
5

>  <REMARK>
 VINA RESULT:      -8.2      2.160      6.778
  Name = 
  1 active torsions:
  status: ('A' for Active; 'I' for Inactive)
    1  A    between atoms: C_9  and  C_15
                            x       y       z     vdW  Elec       q    Type
                         _______ _______ _______ _____ _____    ______ ____

>  <TORSDO>
F 1

$$$$
=
 OpenBabel10262419583D

 27 31  0  0  1  0  0  0  0  0999 V2000
  187.0410  176.9240  142.6690 N   0  0  0  0  0  2  0  0  0  0  0  0
  189.2080  177.7850  143.3800 C   0  0  0  0  0  0  0  0  0  0  0  0
  187.6230  178.0910  145.2420 N   0  0  0  0  0  2  0  0  0  0  0  0
  192.2510  177.0740  146.1280 N   0  0  0  0  0  0  0  0  0  0  0  0
  191.9110  175.6710  148.0970 C   0  0  0  0  0  1  0  0  0  0  0  0
  190.5970  177.4540  142.9330 C   0  0  0  0  0  3  0  0  0  0  0  0
  190.0610  176.9210  146.7430 C   0  0  2  0  0  3  0  0  0  0  0  0
  184.8840  180.0920  144.7670 C   0  0  0  0  0  2  0  0  0  0  0  0
  188.8700  176.2800  147.3740 C   0  0  0  0  0  1  0  0  0  0  0  0
  183.5910  179.7380  144.0260 C   0  0  0  0  0  2  0  0  0  0  0  0
  190.0640  177.6580  145.6430 C   0  0  1  0  0  3  0  0  0  0  0  0
  188.0940  177.8910  142.3600 C   0  0  1  0  0  3  0  0  0  0  0  0
  191.4480  176.5790  147.0130 C   0  0  0  0  0  0  0  0  0  0  0  0
  191.4710  177.8890  145.2040 C   0  0  2  0  0  3  0  0  0  0  0  0
  185.9760  177.5440  143.4650 C   0  0  2  0  0  3  0  0  0  0  0  0
  188.9420  177.8670  144.7090 C   0  0  0  0  0  0  0  0  0  0  0  0
  185.4570  178.9590  145.3560 O   0  0  0  0  0  0  0  0  0  0  0  0
  191.6410  177.4510  143.7770 C   0  0  0  0  0  3  0  0  0  0  0  0
  183.6190  178.3790  143.3180 C   0  0  0  0  0  2  0  0  0  0  0  0
  184.9110  178.1340  142.5450 C   0  0  0  0  0  2  0  0  0  0  0  0
  186.4860  178.5910  144.4790 C   0  0  1  0  0  3  0  0  0  0  0  0
  189.3340  177.5840  138.2520 C   0  0  0  0  0  3  0  0  0  0  0  0
  188.5330  177.7630  140.9290 C   0  0  0  0  0  0  0  0  0  0  0  0
  187.7670  178.3640  139.9250 C   0  0  0  0  0  3  0  0  0  0  0  0
  188.1650  178.2730  138.5870 C   0  0  0  0  0  3  0  0  0  0  0  0
  190.1060  176.9860  139.2520 C   0  0  0  0  0  3  0  0  0  0  0  0
  189.7080  177.0760  140.5880 C   0  0  0  0  0  3  0  0  0  0  0  0
  1 15  1  0  0  0  0
  2 16  2  0  0  0  0
  4 13  2  0  0  0  0
  6  2  1  0  0  0  0
  6 18  2  0  0  0  0
  7 13  1  0  0  0  0
  7  9  1  6  0  0  0
  8 17  1  0  0  0  0
 10  8  1  0  0  0  0
 11 16  1  6  0  0  0
 11  7  1  0  0  0  0
 12 23  1  6  0  0  0
 12  1  1  0  0  0  0
 12  2  1  0  0  0  0
 13  5  1  0  0  0  0
 14 18  1  6  0  0  0
 14 11  1  0  0  0  0
 14  4  1  0  0  0  0
 15 20  1  6  0  0  0
 15 21  1  0  0  0  0
 16  3  1  0  0  0  0
 19 10  1  0  0  0  0
 20 19  1  0  0  0  0
 21  3  1  1  0  0  0
 21 17  1  0  0  0  0
 22 25  2  0  0  0  0
 22 26  1  0  0  0  0
 24 23  2  0  0  0  0
 25 24  1  0  0  0  0
 26 27  2  0  0  0  0
 27 23  1  0  0  0  0
M  END
>  <MODEL>
6

>  <REMARK>
 VINA RESULT:      -8.1      1.948      6.597
  Name = 
  1 active torsions:
  status: ('A' for Active; 'I' for Inactive)
    1  A    between atoms: C_9  and  C_15
                            x       y       z     vdW  Elec       q    Type
                         _______ _______ _______ _____ _____    ______ ____

>  <TORSDO>
F 1

$$$$
=
 OpenBabel10262419583D

 27 31  0  0  1  0  0  0  0  0999 V2000
  189.3720  175.6820  138.4230 N   0  0  0  0  0  2  0  0  0  0  0  0
  190.5240  177.0540  140.0760 C   0  0  0  0  0  0  0  0  0  0  0  0
  188.2290  177.9200  139.8380 N   0  0  0  0  0  2  0  0  0  0  0  0
  190.4410  178.0350  144.1190 N   0  0  0  0  0  0  0  0  0  0  0  0
  188.4870  177.5980  145.5150 C   0  0  0  0  0  1  0  0  0  0  0  0
  191.6840  176.7560  140.9720 C   0  0  0  0  0  3  0  0  0  0  0  0
  188.5120  177.8680  142.9170 C   0  0  2  0  0  3  0  0  0  0  0  0
  187.2220  179.1180  136.7910 C   0  0  0  0  0  2  0  0  0  0  0  0
  187.1170  177.4090  142.6460 C   0  0  0  0  0  1  0  0  0  0  0  0
  186.7970  178.3030  135.5660 C   0  0  0  0  0  2  0  0  0  0  0  0
  189.4680  178.0440  142.0180 C   0  0  1  0  0  3  0  0  0  0  0  0
  190.5260  176.5510  138.6470 C   0  0  1  0  0  3  0  0  0  0  0  0
  189.1630  177.8700  144.2170 C   0  0  0  0  0  0  0  0  0  0  0  0
  190.7710  178.2520  142.7150 C   0  0  2  0  0  3  0  0  0  0  0  0
  188.2510  176.4340  137.8480 C   0  0  2  0  0  3  0  0  0  0  0  0
  189.4280  177.6700  140.5930 C   0  0  0  0  0  0  0  0  0  0  0  0
  186.9150  178.4450  137.9790 O   0  0  0  0  0  0  0  0  0  0  0  0
  191.7840  177.2640  142.2100 C   0  0  0  0  0  3  0  0  0  0  0  0
  186.9860  176.7900  135.7160 C   0  0  0  0  0  2  0  0  0  0  0  0
  188.3330  176.4120  136.3240 C   0  0  0  0  0  2  0  0  0  0  0  0
  188.1290  177.8770  138.3840 C   0  0  1  0  0  3  0  0  0  0  0  0
  194.1350  174.5900  137.3690 C   0  0  0  0  0  3  0  0  0  0  0  0
  191.7960  175.8760  138.2180 C   0  0  0  0  0  0  0  0  0  0  0  0
  191.7370  174.5740  137.7090 C   0  0  0  0  0  3  0  0  0  0  0  0
  192.9050  173.9300  137.2870 C   0  0  0  0  0  3  0  0  0  0  0  0
  194.1980  175.8920  137.8710 C   0  0  0  0  0  3  0  0  0  0  0  0
  193.0320  176.5360  138.2940 C   0  0  0  0  0  3  0  0  0  0  0  0
  1 12  1  0  0  0  0
  2 16  2  0  0  0  0
  2  6  1  0  0  0  0
  3 16  1  0  0  0  0
  4 13  2  0  0  0  0
  6 18  2  0  0  0  0
  7  9  1  6  0  0  0
  7 13  1  0  0  0  0
  8 17  1  0  0  0  0
 10 19  1  0  0  0  0
 10  8  1  0  0  0  0
 11 16  1  6  0  0  0
 11 14  1  0  0  0  0
 11  7  1  0  0  0  0
 12 23  1  1  0  0  0
 12  2  1  0  0  0  0
 13  5  1  0  0  0  0
 14 18  1  6  0  0  0
 14  4  1  0  0  0  0
 15 20  1  6  0  0  0
 15 21  1  0  0  0  0
 15  1  1  0  0  0  0
 19 20  1  0  0  0  0
 21 17  1  1  0  0  0
 21  3  1  0  0  0  0
 22 26  1  0  0  0  0
 23 27  1  0  0  0  0
 24 23  2  0  0  0  0
 25 22  2  0  0  0  0
 25 24  1  0  0  0  0
 26 27  2  0  0  0  0
M  END
>  <MODEL>
7

>  <REMARK>
 VINA RESULT:      -7.9      2.956      6.230
  Name = 
  1 active torsions:
  status: ('A' for Active; 'I' for Inactive)
    1  A    between atoms: C_9  and  C_15
                            x       y       z     vdW  Elec       q    Type
                         _______ _______ _______ _____ _____    ______ ____

>  <TORSDO>
F 1

$$$$
=
 OpenBabel10262419583D

 27 31  0  0  1  0  0  0  0  0999 V2000
  184.4730  177.2040  138.2100 N   0  0  0  0  0  2  0  0  0  0  0  0
  186.5010  178.1500  139.1780 C   0  0  0  0  0  0  0  0  0  0  0  0
  184.5720  179.0910  140.3900 N   0  0  0  0  0  2  0  0  0  0  0  0
  188.7030  178.2030  142.7080 N   0  0  0  0  0  0  0  0  0  0  0  0
  187.7430  177.5020  144.8410 C   0  0  0  0  0  1  0  0  0  0  0  0
  187.9050  177.6370  139.2260 C   0  0  0  0  0  3  0  0  0  0  0  0
  186.4290  178.3450  142.7480 C   0  0  2  0  0  3  0  0  0  0  0  0
  182.2830  180.9590  138.6560 C   0  0  0  0  0  2  0  0  0  0  0  0
  185.0540  177.9850  143.2050 C   0  0  0  0  0  1  0  0  0  0  0  0
  181.1670  180.4470  137.7400 C   0  0  0  0  0  2  0  0  0  0  0  0
  186.7790  178.7000  141.5210 C   0  0  1  0  0  3  0  0  0  0  0  0
  185.6780  177.9800  137.9180 C   0  0  1  0  0  3  0  0  0  0  0  0
  187.6610  178.0450  143.4570 C   0  0  0  0  0  0  0  0  0  0  0  0
  188.2670  178.7220  141.4170 C   0  0  2  0  0  3  0  0  0  0  0  0
  183.3340  178.0870  138.4850 C   0  0  2  0  0  3  0  0  0  0  0  0
  185.9410  178.6560  140.3090 C   0  0  0  0  0  0  0  0  0  0  0  0
  182.5610  180.0430  139.6770 O   0  0  0  0  0  0  0  0  0  0  0  0
  188.7130  177.8530  140.2750 C   0  0  0  0  0  3  0  0  0  0  0  0
  181.1960  178.9350  137.4910 C   0  0  0  0  0  2  0  0  0  0  0  0
  182.5940  178.4050  137.1870 C   0  0  0  0  0  2  0  0  0  0  0  0
  183.7140  179.3760  139.2460 C   0  0  1  0  0  3  0  0  0  0  0  0
  187.8580  176.3340  134.5940 C   0  0  0  0  0  3  0  0  0  0  0  0
  186.4220  177.3930  136.7530 C   0  0  0  0  0  0  0  0  0  0  0  0
  187.2470  178.2200  135.9840 C   0  0  0  0  0  3  0  0  0  0  0  0
  187.9630  177.6930  134.9050 C   0  0  0  0  0  3  0  0  0  0  0  0
  187.0390  175.5010  135.3620 C   0  0  0  0  0  3  0  0  0  0  0  0
  186.3230  176.0280  136.4400 C   0  0  0  0  0  3  0  0  0  0  0  0
  1 15  1  0  0  0  0
  2  6  1  0  0  0  0
  2 16  2  0  0  0  0
  4 13  2  0  0  0  0
  6 18  2  0  0  0  0
  7  9  1  6  0  0  0
  7 13  1  0  0  0  0
  8 17  1  0  0  0  0
 10  8  1  0  0  0  0
 11 16  1  6  0  0  0
 11  7  1  0  0  0  0
 12 23  1  6  0  0  0
 12  1  1  0  0  0  0
 12  2  1  0  0  0  0
 13  5  1  0  0  0  0
 14 18  1  6  0  0  0
 14 11  1  0  0  0  0
 14  4  1  0  0  0  0
 15 20  1  6  0  0  0
 15 21  1  0  0  0  0
 16  3  1  0  0  0  0
 19 10  1  0  0  0  0
 20 19  1  0  0  0  0
 21 17  1  1  0  0  0
 21  3  1  0  0  0  0
 22 25  2  0  0  0  0
 22 26  1  0  0  0  0
 24 23  2  0  0  0  0
 25 24  1  0  0  0  0
 26 27  2  0  0  0  0
 27 23  1  0  0  0  0
M  END
>  <MODEL>
8

>  <REMARK>
 VINA RESULT:      -7.8      3.631      7.400
  Name = 
  1 active torsions:
  status: ('A' for Active; 'I' for Inactive)
    1  A    between atoms: C_9  and  C_15
                            x       y       z     vdW  Elec       q    Type
                         _______ _______ _______ _____ _____    ______ ____

>  <TORSDO>
F 1

$$$$
