=
 OpenBabel10262420493D

 28 33  0  0  1  0  0  0  0  0999 V2000
  187.1740  177.1990  144.9800 C   0  0  1  0  0  3  0  0  0  0  0  0
  188.4160  176.9770  144.0840 C   0  0  1  0  0  3  0  0  0  0  0  0
  186.7240  177.7310  142.3000 C   0  0  2  0  0  3  0  0  0  0  0  0
  183.0180  177.8920  141.2530 C   0  0  0  0  0  3  0  0  0  0  0  0
  185.8540  179.8860  148.1030 N   0  0  0  0  0  1  0  0  0  0  0  0
  190.2540  178.4260  143.3240 C   0  0  1  0  0  3  0  0  0  0  0  0
  188.1880  177.3860  142.6140 C   0  0  1  0  0  3  0  0  0  0  0  0
  190.5020  177.0120  145.2890 O   0  0  0  0  0  1  0  0  0  0  0  0
  184.8220  178.9330  139.1440 C   0  0  0  0  0  2  0  0  0  0  0  0
  184.5760  178.5450  143.0860 C   0  0  1  0  0  3  0  0  0  0  0  0
  189.6090  177.8020  144.5600 C   0  0  2  0  0  3  0  0  0  0  0  0
  182.3600  179.2840  139.3150 C   0  0  0  0  0  0  0  0  0  0  0  0
  184.1060  178.8460  141.6540 C   0  0  1  0  0  3  0  0  0  0  0  0
  186.4430  178.0290  140.8240 C   0  0  0  0  0  2  0  0  0  0  0  0
  183.5520  179.6810  138.8580 C   0  0  0  0  0  3  0  0  0  0  0  0
  185.6300  179.1720  145.7800 C   0  0  1  0  0  3  0  0  0  0  0  0
  186.0830  178.7510  143.2460 C   0  0  1  0  0  3  0  0  0  0  0  0
  185.2560  178.9850  140.6110 C   0  0  1  0  0  3  0  0  0  0  0  0
  187.3750  178.1540  147.3310 C   0  0  0  0  0  2  0  0  0  0  0  0
  184.1600  178.8780  145.4990 C   0  0  0  0  0  2  0  0  0  0  0  0
  185.9770  178.7470  147.2130 C   0  0  1  0  0  3  0  0  0  0  0  0
  191.3480  177.5470  142.7280 C   0  0  0  0  0  1  0  0  0  0  0  0
  181.2230  179.9660  138.9040 O   0  0  0  0  0  1  0  0  0  0  0  0
  182.2060  178.1260  140.2190 C   0  0  0  0  0  3  0  0  0  0  0  0
  183.7880  179.3540  144.1040 C   0  0  0  0  0  2  0  0  0  0  0  0
  187.4640  176.9060  146.4600 C   0  0  0  0  0  2  0  0  0  0  0  0
  186.5740  178.5900  144.7010 C   0  0  2  0  0  3  0  0  0  0  0  0
  189.1240  178.5510  142.3270 C   0  0  0  0  0  2  0  0  0  0  0  0
  1 26  1  1  0  0  0
  2 11  1  0  0  0  0
  2  1  1  0  0  0  0
  3  7  1  0  0  0  0
  3 17  1  0  0  0  0
  4 13  1  0  0  0  0
  6 11  1  0  0  0  0
  7  2  1  0  0  0  0
  9 18  1  0  0  0  0
 10 17  1  0  0  0  0
 10 25  1  0  0  0  0
 11  8  1  0  0  0  0
 12 24  1  0  0  0  0
 13 10  1  0  0  0  0
 14  3  1  0  0  0  0
 15  9  1  0  0  0  0
 15 12  2  0  0  0  0
 16 21  1  0  0  0  0
 17 27  1  0  0  0  0
 18 14  1  0  0  0  0
 18 13  1  0  0  0  0
 20 16  1  0  0  0  0
 21 19  1  0  0  0  0
 21  5  1  0  0  0  0
 22  6  1  0  0  0  0
 23 12  1  0  0  0  0
 24  4  2  0  0  0  0
 25 20  1  0  0  0  0
 26 19  1  0  0  0  0
 27  1  1  0  0  0  0
 27 16  1  0  0  0  0
 28  7  1  0  0  0  0
 28  6  1  0  0  0  0
M  END
>  <MODEL>
1

>  <REMARK>
 VINA RESULT:     -10.0      0.000      0.000
  Name = 
  0 active torsions:
  status: ('A' for Active; 'I' for Inactive)
                            x       y       z     vdW  Elec       q    Type
                         _______ _______ _______ _____ _____    ______ ____

>  <TORSDO>
F 0

$$$$
=
 OpenBabel10262420493D

 28 33  0  0  1  0  0  0  0  0999 V2000
  187.0860  177.1560  143.7440 C   0  0  1  0  0  3  0  0  0  0  0  0
  188.5970  176.9650  144.0090 C   0  0  1  0  0  3  0  0  0  0  0  0
  188.6510  177.3670  141.4700 C   0  0  2  0  0  3  0  0  0  0  0  0
  186.7520  177.0630  138.1300 C   0  0  0  0  0  3  0  0  0  0  0  0
  183.9580  180.0050  144.6470 N   0  0  0  0  0  1  0  0  0  0  0  0
  190.4430  178.5000  144.5510 C   0  0  1  0  0  3  0  0  0  0  0  0
  189.4700  177.1990  142.7580 C   0  0  1  0  0  3  0  0  0  0  0  0
  189.2340  177.3230  146.3050 O   0  0  0  0  0  1  0  0  0  0  0  0
  189.5200  178.0540  137.7550 C   0  0  0  0  0  2  0  0  0  0  0  0
  186.5720  178.0450  140.4130 C   0  0  1  0  0  3  0  0  0  0  0  0
  189.1140  177.9460  145.0590 C   0  0  2  0  0  3  0  0  0  0  0  0
  187.6500  178.1810  136.1120 C   0  0  0  0  0  0  0  0  0  0  0  0
  187.2460  178.1530  139.0360 C   0  0  1  0  0  3  0  0  0  0  0  0
  189.4890  177.4860  140.1930 C   0  0  0  0  0  2  0  0  0  0  0  0
  188.8200  178.6420  136.5650 C   0  0  0  0  0  3  0  0  0  0  0  0
  185.4300  179.0410  142.9560 C   0  0  1  0  0  3  0  0  0  0  0  0
  187.5320  178.4110  141.5460 C   0  0  1  0  0  3  0  0  0  0  0  0
  188.7970  178.2960  139.0830 C   0  0  1  0  0  3  0  0  0  0  0  0
  185.5780  178.3590  145.4050 C   0  0  0  0  0  2  0  0  0  0  0  0
  184.5810  178.5790  141.7760 C   0  0  0  0  0  2  0  0  0  0  0  0
  184.6680  178.7980  144.2650 C   0  0  1  0  0  3  0  0  0  0  0  0
  191.6380  177.6750  145.0160 C   0  0  0  0  0  1  0  0  0  0  0  0
  187.1310  178.7050  134.9360 O   0  0  0  0  0  1  0  0  0  0  0  0
  186.9020  177.1110  136.8030 C   0  0  0  0  0  3  0  0  0  0  0  0
  185.2990  178.8730  140.4680 C   0  0  0  0  0  2  0  0  0  0  0  0
  186.2510  177.0440  145.0290 C   0  0  0  0  0  2  0  0  0  0  0  0
  186.8580  178.4470  142.9360 C   0  0  2  0  0  3  0  0  0  0  0  0
  190.3410  178.4130  143.0450 C   0  0  0  0  0  2  0  0  0  0  0  0
  1  2  1  0  0  0  0
  1 26  1  1  0  0  0
  2 11  1  0  0  0  0
  3 17  1  0  0  0  0
  3  7  1  0  0  0  0
  4 13  1  0  0  0  0
  6 22  1  0  0  0  0
  6 11  1  0  0  0  0
  7 28  1  0  0  0  0
  7  2  1  0  0  0  0
  9 18  1  0  0  0  0
 10 25  1  0  0  0  0
 10 17  1  0  0  0  0
 11  8  1  0  0  0  0
 12 15  2  0  0  0  0
 12 24  1  0  0  0  0
 13 18  1  0  0  0  0
 13 10  1  0  0  0  0
 14  3  1  0  0  0  0
 15  9  1  0  0  0  0
 16 21  1  0  0  0  0
 17 27  1  0  0  0  0
 18 14  1  0  0  0  0
 20 16  1  0  0  0  0
 21  5  1  0  0  0  0
 21 19  1  0  0  0  0
 23 12  1  0  0  0  0
 24  4  2  0  0  0  0
 25 20  1  0  0  0  0
 26 19  1  0  0  0  0
 27 16  1  0  0  0  0
 27  1  1  0  0  0  0
 28  6  1  0  0  0  0
M  END
>  <MODEL>
2

>  <REMARK>
 VINA RESULT:      -9.4      2.584      3.617
  Name = 
  0 active torsions:
  status: ('A' for Active; 'I' for Inactive)
                            x       y       z     vdW  Elec       q    Type
                         _______ _______ _______ _____ _____    ______ ____

>  <TORSDO>
F 0

$$$$
=
 OpenBabel10262420493D

 28 33  0  0  1  0  0  0  0  0999 V2000
  189.5700  178.0950  144.2840 C   0  0  1  0  0  3  0  0  0  0  0  0
  188.1810  178.5070  144.8240 C   0  0  1  0  0  3  0  0  0  0  0  0
  187.6650  178.4510  142.3060 C   0  0  2  0  0  3  0  0  0  0  0  0
  189.0560  178.8540  138.7330 C   0  0  0  0  0  3  0  0  0  0  0  0
  192.1970  174.6580  144.3430 N   0  0  0  0  0  1  0  0  0  0  0  0
  186.1810  177.2550  145.5240 C   0  0  1  0  0  3  0  0  0  0  0  0
  187.0990  178.5900  143.7270 C   0  0  1  0  0  3  0  0  0  0  0  0
  187.8450  177.9700  147.1490 O   0  0  0  0  0  1  0  0  0  0  0  0
  186.1250  178.4090  138.7480 C   0  0  0  0  0  2  0  0  0  0  0  0
  189.3900  177.5680  140.8430 C   0  0  1  0  0  3  0  0  0  0  0  0
  187.6530  177.5030  145.8460 C   0  0  2  0  0  3  0  0  0  0  0  0
  187.6640  178.1760  136.8020 C   0  0  0  0  0  0  0  0  0  0  0  0
  188.5060  177.7570  139.5990 C   0  0  1  0  0  3  0  0  0  0  0  0
  186.6350  178.6450  141.1880 C   0  0  0  0  0  2  0  0  0  0  0  0
  186.5110  177.8680  137.4030 C   0  0  0  0  0  3  0  0  0  0  0  0
  190.6960  176.0710  143.0370 C   0  0  1  0  0  3  0  0  0  0  0  0
  188.5620  177.2300  142.0830 C   0  0  1  0  0  3  0  0  0  0  0  0
  186.9820  177.8780  139.9000 C   0  0  1  0  0  3  0  0  0  0  0  0
  191.0560  176.4470  145.5300 C   0  0  0  0  0  2  0  0  0  0  0  0
  191.4270  176.5290  141.7800 C   0  0  0  0  0  2  0  0  0  0  0  0
  191.6800  176.0080  144.2120 C   0  0  1  0  0  3  0  0  0  0  0  0
  185.2510  178.2060  146.2680 C   0  0  0  0  0  1  0  0  0  0  0  0
  187.8870  177.7270  135.5070 O   0  0  0  0  0  1  0  0  0  0  0  0
  188.6990  179.0030  137.4550 C   0  0  0  0  0  3  0  0  0  0  0  0
  190.4750  176.5340  140.5930 C   0  0  0  0  0  2  0  0  0  0  0  0
  190.5970  177.8950  145.4090 C   0  0  0  0  0  2  0  0  0  0  0  0
  189.4210  176.9000  143.3240 C   0  0  2  0  0  3  0  0  0  0  0  0
  186.0670  177.5170  144.0390 C   0  0  0  0  0  2  0  0  0  0  0  0
  1  2  1  0  0  0  0
  1 26  1  1  0  0  0
  2 11  1  0  0  0  0
  3  7  1  0  0  0  0
  4 13  1  0  0  0  0
  6 11  1  0  0  0  0
  6 22  1  0  0  0  0
  7 28  1  0  0  0  0
  7  2  1  0  0  0  0
  9 18  1  0  0  0  0
 10 17  1  0  0  0  0
 11  8  1  0  0  0  0
 12 15  2  0  0  0  0
 12 24  1  0  0  0  0
 13 18  1  0  0  0  0
 13 10  1  0  0  0  0
 14  3  1  0  0  0  0
 15  9  1  0  0  0  0
 16 27  1  0  0  0  0
 16 21  1  0  0  0  0
 17  3  1  0  0  0  0
 17 27  1  0  0  0  0
 18 14  1  0  0  0  0
 20 16  1  0  0  0  0
 21  5  1  0  0  0  0
 21 19  1  0  0  0  0
 23 12  1  0  0  0  0
 24  4  2  0  0  0  0
 25 10  1  0  0  0  0
 25 20  1  0  0  0  0
 26 19  1  0  0  0  0
 27  1  1  0  0  0  0
 28  6  1  0  0  0  0
M  END
>  <MODEL>
3

>  <REMARK>
 VINA RESULT:      -8.5      3.014      5.175
  Name = 
  0 active torsions:
  status: ('A' for Active; 'I' for Inactive)
                            x       y       z     vdW  Elec       q    Type
                         _______ _______ _______ _____ _____    ______ ____

>  <TORSDO>
F 0

$$$$
=
 OpenBabel10262420493D

 28 33  0  0  1  0  0  0  0  0999 V2000
  189.7480  178.1970  145.3580 C   0  0  1  0  0  3  0  0  0  0  0  0
  188.9820  178.5310  146.6600 C   0  0  1  0  0  3  0  0  0  0  0  0
  187.0290  178.5690  144.9870 C   0  0  2  0  0  3  0  0  0  0  0  0
  185.9340  179.1850  141.3430 C   0  0  0  0  0  3  0  0  0  0  0  0
  191.8670  174.8640  143.5930 N   0  0  0  0  0  1  0  0  0  0  0  0
  187.8360  177.1740  148.3620 C   0  0  1  0  0  3  0  0  0  0  0  0
  187.4540  178.6220  146.4620 C   0  0  1  0  0  3  0  0  0  0  0  0
  190.1450  177.8780  148.6660 O   0  0  0  0  0  1  0  0  0  0  0  0
  183.6300  178.6290  143.1240 C   0  0  0  0  0  2  0  0  0  0  0  0
  187.4960  177.8200  142.7250 C   0  0  1  0  0  3  0  0  0  0  0  0
  189.1950  177.4620  147.7300 C   0  0  2  0  0  3  0  0  0  0  0  0
  183.6510  178.5430  140.6330 C   0  0  0  0  0  0  0  0  0  0  0  0
  186.0340  178.0300  142.2980 C   0  0  1  0  0  3  0  0  0  0  0  0
  185.5300  178.7730  144.7490 C   0  0  0  0  0  2  0  0  0  0  0  0
  183.1100  178.1640  141.7960 C   0  0  0  0  0  3  0  0  0  0  0  0
  189.8770  176.2760  143.5670 C   0  0  1  0  0  3  0  0  0  0  0  0
  187.6040  177.3940  144.1900 C   0  0  1  0  0  3  0  0  0  0  0  0
  185.0150  178.0790  143.4760 C   0  0  1  0  0  3  0  0  0  0  0  0
  191.6900  176.5520  145.3340 C   0  0  0  0  0  2  0  0  0  0  0  0
  189.6810  176.8170  142.1550 C   0  0  0  0  0  2  0  0  0  0  0  0
  191.3750  176.1980  143.8860 C   0  0  1  0  0  3  0  0  0  0  0  0
  187.5550  178.0540  149.5750 C   0  0  0  0  0  1  0  0  0  0  0  0
  183.0340  178.1610  139.4500 O   0  0  0  0  0  1  0  0  0  0  0  0
  184.8670  179.3780  140.5630 C   0  0  0  0  0  3  0  0  0  0  0  0
  188.2020  176.8400  141.8030 C   0  0  0  0  0  2  0  0  0  0  0  0
  191.2500  177.9860  145.6040 C   0  0  0  0  0  2  0  0  0  0  0  0
  189.0440  177.0420  144.6230 C   0  0  2  0  0  3  0  0  0  0  0  0
  186.8330  177.4970  147.2770 C   0  0  0  0  0  2  0  0  0  0  0  0
  1 26  1  1  0  0  0
  1  2  1  0  0  0  0
  2 11  1  0  0  0  0
  3  7  1  0  0  0  0
  4 13  1  0  0  0  0
  5 21  1  0  0  0  0
  6 22  1  0  0  0  0
  7  2  1  0  0  0  0
  7 28  1  0  0  0  0
  9 18  1  0  0  0  0
 10 17  1  0  0  0  0
 11  6  1  0  0  0  0
 11  8  1  0  0  0  0
 12 15  2  0  0  0  0
 13 10  1  0  0  0  0
 13 18  1  0  0  0  0
 14  3  1  0  0  0  0
 15  9  1  0  0  0  0
 16 21  1  0  0  0  0
 16 27  1  0  0  0  0
 17 27  1  0  0  0  0
 17  3  1  0  0  0  0
 18 14  1  0  0  0  0
 19 26  1  0  0  0  0
 20 16  1  0  0  0  0
 21 19  1  0  0  0  0
 23 12  1  0  0  0  0
 24 12  1  0  0  0  0
 24  4  2  0  0  0  0
 25 20  1  0  0  0  0
 25 10  1  0  0  0  0
 27  1  1  0  0  0  0
 28  6  1  0  0  0  0
M  END
>  <MODEL>
4

>  <REMARK>
 VINA RESULT:      -8.0      2.287      4.550
  Name = 
  0 active torsions:
  status: ('A' for Active; 'I' for Inactive)
                            x       y       z     vdW  Elec       q    Type
                         _______ _______ _______ _____ _____    ______ ____

>  <TORSDO>
F 0

$$$$
=
 OpenBabel10262420493D

 28 33  0  0  1  0  0  0  0  0999 V2000
  185.0080  177.4080  139.0210 C   0  0  1  0  0  3  0  0  0  0  0  0
  183.4910  177.6980  139.1080 C   0  0  1  0  0  3  0  0  0  0  0  0
  184.1380  178.0360  141.5740 C   0  0  2  0  0  3  0  0  0  0  0  0
  186.5570  177.0820  144.4190 C   0  0  0  0  0  3  0  0  0  0  0  0
  188.5660  179.1790  137.3120 N   0  0  0  0  0  1  0  0  0  0  0  0
  182.1290  179.7380  138.9170 C   0  0  1  0  0  3  0  0  0  0  0  0
  183.0370  178.1580  140.5100 C   0  0  1  0  0  3  0  0  0  0  0  0
  182.4920  178.2890  136.9970 O   0  0  0  0  0  1  0  0  0  0  0  0
  184.3830  178.8670  145.3520 C   0  0  0  0  0  2  0  0  0  0  0  0
  186.5060  178.0160  142.1090 C   0  0  1  0  0  3  0  0  0  0  0  0
  183.0740  178.8140  138.1540 C   0  0  2  0  0  3  0  0  0  0  0  0
  186.5230  178.3740  146.5300 C   0  0  0  0  0  0  0  0  0  0  0  0
  186.2270  178.2930  143.5950 C   0  0  1  0  0  3  0  0  0  0  0  0
  183.6870  178.3760  142.9980 C   0  0  0  0  0  2  0  0  0  0  0  0
  185.4790  179.1830  146.3270 C   0  0  0  0  0  3  0  0  0  0  0  0
  187.2930  178.6740  139.3320 C   0  0  1  0  0  3  0  0  0  0  0  0
  185.4730  178.6870  141.2010 C   0  0  1  0  0  3  0  0  0  0  0  0
  184.8250  178.9070  143.8870 C   0  0  1  0  0  3  0  0  0  0  0  0
  186.3940  178.1280  137.0120 C   0  0  0  0  0  2  0  0  0  0  0  0
  188.2030  177.9450  140.3140 C   0  0  0  0  0  2  0  0  0  0  0  0
  187.6270  178.2400  137.8990 C   0  0  1  0  0  3  0  0  0  0  0  0
  180.6670  179.3320  138.7700 C   0  0  0  0  0  1  0  0  0  0  0  0
  187.4280  178.6850  147.5360 O   0  0  0  0  0  1  0  0  0  0  0  0
  186.7330  177.1430  145.7420 C   0  0  0  0  0  3  0  0  0  0  0  0
  187.9240  178.4140  141.7330 C   0  0  0  0  0  2  0  0  0  0  0  0
  185.4560  177.0750  137.5900 C   0  0  0  0  0  2  0  0  0  0  0  0
  185.7940  178.5470  139.6970 C   0  0  2  0  0  3  0  0  0  0  0  0
  182.5370  179.5880  140.3660 C   0  0  0  0  0  2  0  0  0  0  0  0
  1 26  1  6  0  0  0
  1  2  1  0  0  0  0
  1 27  1  0  0  0  0
  2  7  1  0  0  0  0
  3 14  1  0  0  0  0
  4 24  2  0  0  0  0
  5 21  1  0  0  0  0
  6 28  1  0  0  0  0
  7  3  1  0  0  0  0
  8 11  1  0  0  0  0
  9 15  1  0  0  0  0
 10 13  1  0  0  0  0
 11  6  1  0  0  0  0
 11  2  1  0  0  0  0
 12 23  1  0  0  0  0
 13 18  1  0  0  0  0
 13  4  1  0  0  0  0
 14 18  1  0  0  0  0
 15 12  2  0  0  0  0
 16 27  1  0  0  0  0
 16 20  1  0  0  0  0
 17  3  1  0  0  0  0
 17 10  1  0  0  0  0
 18  9  1  0  0  0  0
 19 26  1  0  0  0  0
 19 21  1  0  0  0  0
 20 25  1  0  0  0  0
 21 16  1  0  0  0  0
 22  6  1  0  0  0  0
 24 12  1  0  0  0  0
 25 10  1  0  0  0  0
 27 17  1  0  0  0  0
 28  7  1  0  0  0  0
M  END
>  <MODEL>
5

>  <REMARK>
 VINA RESULT:      -8.0      2.701      7.461
  Name = 
  0 active torsions:
  status: ('A' for Active; 'I' for Inactive)
                            x       y       z     vdW  Elec       q    Type
                         _______ _______ _______ _____ _____    ______ ____

>  <TORSDO>
F 0

$$$$
=
 OpenBabel10262420493D

 28 33  0  0  1  0  0  0  0  0999 V2000
  188.9100  178.4420  138.0640 C   0  0  1  0  0  3  0  0  0  0  0  0
  190.1700  177.7360  137.5130 C   0  0  1  0  0  3  0  0  0  0  0  0
  190.5480  177.3910  140.0340 C   0  0  2  0  0  3  0  0  0  0  0  0
  189.9270  178.7450  143.5890 C   0  0  0  0  0  3  0  0  0  0  0  0
  184.6200  177.8780  138.1090 N   0  0  0  0  0  1  0  0  0  0  0  0
  190.6800  175.4190  136.8580 C   0  0  1  0  0  3  0  0  0  0  0  0
  191.0160  177.0540  138.6100 C   0  0  1  0  0  3  0  0  0  0  0  0
  189.9780  177.0640  135.2080 O   0  0  0  0  0  1  0  0  0  0  0  0
  191.6810  176.3550  143.5940 C   0  0  0  0  0  2  0  0  0  0  0  0
  188.7360  178.0250  141.5210 C   0  0  1  0  0  3  0  0  0  0  0  0
  189.8100  176.6290  136.5250 C   0  0  2  0  0  3  0  0  0  0  0  0
  190.4710  177.3270  145.5440 C   0  0  0  0  0  0  0  0  0  0  0  0
  189.5200  177.5620  142.7590 C   0  0  1  0  0  3  0  0  0  0  0  0
  191.4360  176.8240  141.1460 C   0  0  0  0  0  2  0  0  0  0  0  0
  191.0540  176.2780  144.9550 C   0  0  0  0  0  3  0  0  0  0  0  0
  186.7080  177.8420  139.3720 C   0  0  1  0  0  3  0  0  0  0  0  0
  189.0550  177.1700  140.2930 C   0  0  1  0  0  3  0  0  0  0  0  0
  190.6750  176.5600  142.4580 C   0  0  1  0  0  3  0  0  0  0  0  0
  186.6680  178.3030  136.8680 C   0  0  0  0  0  2  0  0  0  0  0  0
  186.5430  178.7130  140.6130 C   0  0  0  0  0  2  0  0  0  0  0  0
  185.9440  178.4670  138.1980 C   0  0  1  0  0  3  0  0  0  0  0  0
  191.9950  175.4130  136.0850 C   0  0  0  0  0  1  0  0  0  0  0  0
  190.0220  177.1990  146.8510 O   0  0  0  0  0  1  0  0  0  0  0  0
  190.3120  178.6280  144.8620 C   0  0  0  0  0  3  0  0  0  0  0  0
  187.2430  178.0700  141.8010 C   0  0  0  0  0  2  0  0  0  0  0  0
  188.0200  179.0020  136.9440 C   0  0  0  0  0  2  0  0  0  0  0  0
  188.1890  177.5160  139.0620 C   0  0  2  0  0  3  0  0  0  0  0  0
  190.9780  175.5580  138.3340 C   0  0  0  0  0  2  0  0  0  0  0  0
  1 26  1  6  0  0  0
  1 27  1  0  0  0  0
  2  1  1  0  0  0  0
  2  7  1  0  0  0  0
  3 17  1  0  0  0  0
  3 14  1  0  0  0  0
  4 24  2  0  0  0  0
  5 21  1  0  0  0  0
  6 28  1  0  0  0  0
  7  3  1  0  0  0  0
  8 11  1  0  0  0  0
  9 15  1  0  0  0  0
 10 25  1  0  0  0  0
 10 13  1  0  0  0  0
 11  6  1  0  0  0  0
 11  2  1  0  0  0  0
 12 23  1  0  0  0  0
 13  4  1  0  0  0  0
 14 18  1  0  0  0  0
 15 12  2  0  0  0  0
 16 20  1  0  0  0  0
 17 10  1  0  0  0  0
 18 13  1  0  0  0  0
 18  9  1  0  0  0  0
 19 26  1  0  0  0  0
 19 21  1  0  0  0  0
 20 25  1  0  0  0  0
 21 16  1  0  0  0  0
 22  6  1  0  0  0  0
 24 12  1  0  0  0  0
 27 16  1  0  0  0  0
 27 17  1  0  0  0  0
 28  7  1  0  0  0  0
M  END
>  <MODEL>
6

>  <REMARK>
 VINA RESULT:      -7.7      4.115      7.731
  Name = 
  0 active torsions:
  status: ('A' for Active; 'I' for Inactive)
                            x       y       z     vdW  Elec       q    Type
                         _______ _______ _______ _____ _____    ______ ____

>  <TORSDO>
F 0

$$$$
=
 OpenBabel10262420493D

 28 33  0  0  1  0  0  0  0  0999 V2000
  182.8380  177.7980  141.0090 C   0  0  1  0  0  3  0  0  0  0  0  0
  181.5380  178.0890  141.7930 C   0  0  1  0  0  3  0  0  0  0  0  0
  183.2420  178.2430  143.7120 C   0  0  2  0  0  3  0  0  0  0  0  0
  186.6490  177.0700  145.0820 C   0  0  0  0  0  3  0  0  0  0  0  0
  185.3030  179.6690  137.9840 N   0  0  0  0  0  1  0  0  0  0  0  0
  180.3160  180.1460  142.3700 C   0  0  1  0  0  3  0  0  0  0  0  0
  181.7850  178.4490  143.2730 C   0  0  1  0  0  3  0  0  0  0  0  0
  179.7150  178.8390  140.4070 O   0  0  0  0  0  1  0  0  0  0  0  0
  185.2030  178.7950  147.0110 C   0  0  0  0  0  2  0  0  0  0  0  0
  185.5940  178.1710  143.1100 C   0  0  1  0  0  3  0  0  0  0  0  0
  180.7770  179.2750  141.2040 C   0  0  2  0  0  3  0  0  0  0  0  0
  187.6230  178.2040  147.0550 C   0  0  0  0  0  0  0  0  0  0  0  0
  186.0280  178.3400  144.5750 C   0  0  1  0  0  3  0  0  0  0  0  0
  183.4980  178.4800  145.2040 C   0  0  0  0  0  2  0  0  0  0  0  0
  186.6320  179.0320  147.3990 C   0  0  0  0  0  3  0  0  0  0  0  0
  185.0630  179.0250  140.3260 C   0  0  1  0  0  3  0  0  0  0  0  0
  184.2890  178.9120  142.8150 C   0  0  1  0  0  3  0  0  0  0  0  0
  184.9350  178.9390  145.5100 C   0  0  1  0  0  3  0  0  0  0  0  0
  183.1920  178.6560  138.6390 C   0  0  0  0  0  2  0  0  0  0  0  0
  186.2910  178.2210  140.7400 C   0  0  0  0  0  2  0  0  0  0  0  0
  184.6960  178.6950  138.8740 C   0  0  1  0  0  3  0  0  0  0  0  0
  178.9310  179.7600  142.8770 C   0  0  0  0  0  1  0  0  0  0  0  0
  188.8970  178.4360  147.5570 O   0  0  0  0  0  1  0  0  0  0  0  0
  187.4070  177.0330  146.1820 C   0  0  0  0  0  3  0  0  0  0  0  0
  186.7030  178.5870  142.1580 C   0  0  0  0  0  2  0  0  0  0  0  0
  182.5770  177.5690  139.5120 C   0  0  0  0  0  2  0  0  0  0  0  0
  183.8890  178.8800  141.3240 C   0  0  2  0  0  3  0  0  0  0  0  0
  181.3290  179.8880  143.4620 C   0  0  0  0  0  2  0  0  0  0  0  0
  1 26  1  6  0  0  0
  1 27  1  0  0  0  0
  1  2  1  0  0  0  0
  2  7  1  0  0  0  0
  3 14  1  0  0  0  0
  4 24  2  0  0  0  0
  5 21  1  0  0  0  0
  6 22  1  0  0  0  0
  6 28  1  0  0  0  0
  7 28  1  0  0  0  0
  7  3  1  0  0  0  0
  8 11  1  0  0  0  0
  9 15  1  0  0  0  0
 10 13  1  0  0  0  0
 11  2  1  0  0  0  0
 11  6  1  0  0  0  0
 12 15  2  0  0  0  0
 12 23  1  0  0  0  0
 13  4  1  0  0  0  0
 13 18  1  0  0  0  0
 14 18  1  0  0  0  0
 16 20  1  0  0  0  0
 16 27  1  0  0  0  0
 17 10  1  0  0  0  0
 17  3  1  0  0  0  0
 18  9  1  0  0  0  0
 19 21  1  0  0  0  0
 19 26  1  0  0  0  0
 20 25  1  0  0  0  0
 21 16  1  0  0  0  0
 24 12  1  0  0  0  0
 25 10  1  0  0  0  0
 27 17  1  0  0  0  0
M  END
>  <MODEL>
7

>  <REMARK>
 VINA RESULT:      -7.3      2.588      7.715
  Name = 
  0 active torsions:
  status: ('A' for Active; 'I' for Inactive)
                            x       y       z     vdW  Elec       q    Type
                         _______ _______ _______ _____ _____    ______ ____

>  <TORSDO>
F 0

$$$$
=
 OpenBabel10262420493D

 28 33  0  0  1  0  0  0  0  0999 V2000
  190.1100  178.3600  143.7800 C   0  0  1  0  0  3  0  0  0  0  0  0
  190.3220  178.1450  145.2960 C   0  0  1  0  0  3  0  0  0  0  0  0
  187.7590  178.3480  145.2440 C   0  0  2  0  0  3  0  0  0  0  0  0
  184.6920  179.8380  143.4480 C   0  0  0  0  0  3  0  0  0  0  0  0
  190.5220  176.1410  140.0890 N   0  0  0  0  0  1  0  0  0  0  0  0
  190.3940  176.1580  146.7460 C   0  0  1  0  0  3  0  0  0  0  0  0
  189.0020  178.0250  146.0870 C   0  0  1  0  0  3  0  0  0  0  0  0
  192.4360  177.1280  145.8460 O   0  0  0  0  0  1  0  0  0  0  0  0
  183.9410  178.3770  145.9150 C   0  0  0  0  0  2  0  0  0  0  0  0
  186.6990  178.4120  143.0610 C   0  0  1  0  0  3  0  0  0  0  0  0
  191.0910  176.8570  145.5810 C   0  0  2  0  0  3  0  0  0  0  0  0
  182.4240  179.0540  144.0570 C   0  0  0  0  0  0  0  0  0  0  0  0
  185.2970  178.4850  143.6850 C   0  0  1  0  0  3  0  0  0  0  0  0
  186.4420  178.3500  146.0270 C   0  0  0  0  0  2  0  0  0  0  0  0
  182.6920  178.2530  145.0930 C   0  0  0  0  0  3  0  0  0  0  0  0
  189.0110  177.1250  141.7330 C   0  0  1  0  0  3  0  0  0  0  0  0
  187.6620  177.5890  143.9180 C   0  0  1  0  0  3  0  0  0  0  0  0
  185.2190  177.9960  145.1630 C   0  0  1  0  0  3  0  0  0  0  0  0
  191.5380  177.1650  142.0460 C   0  0  0  0  0  2  0  0  0  0  0  0
  188.0190  178.0260  141.0070 C   0  0  0  0  0  2  0  0  0  0  0  0
  190.3840  177.2160  141.0540 C   0  0  1  0  0  3  0  0  0  0  0  0
  190.9630  176.5670  148.1000 C   0  0  0  0  0  1  0  0  0  0  0  0
  181.1920  178.9480  143.4270 O   0  0  0  0  0  1  0  0  0  0  0  0
  183.3830  180.0690  143.5760 C   0  0  0  0  0  3  0  0  0  0  0  0
  186.6380  177.8960  141.6320 C   0  0  0  0  0  2  0  0  0  0  0  0
  191.4320  178.3500  142.9990 C   0  0  0  0  0  2  0  0  0  0  0  0
  189.0430  177.3780  143.2600 C   0  0  2  0  0  3  0  0  0  0  0  0
  188.9550  176.6160  146.6590 C   0  0  0  0  0  2  0  0  0  0  0  0
  1 26  1  6  0  0  0
  1  2  1  0  0  0  0
  2 11  1  0  0  0  0
  2  7  1  0  0  0  0
  3 14  1  0  0  0  0
  3  7  1  0  0  0  0
  4 24  2  0  0  0  0
  4 13  1  0  0  0  0
  5 21  1  0  0  0  0
  6 22  1  0  0  0  0
  7 28  1  0  0  0  0
 10 13  1  0  0  0  0
 10 17  1  0  0  0  0
 11  8  1  0  0  0  0
 11  6  1  0  0  0  0
 12 15  2  0  0  0  0
 13 18  1  0  0  0  0
 15  9  1  0  0  0  0
 16 27  1  0  0  0  0
 17  3  1  0  0  0  0
 18  9  1  0  0  0  0
 18 14  1  0  0  0  0
 19 26  1  0  0  0  0
 20 25  1  0  0  0  0
 20 16  1  0  0  0  0
 21 16  1  0  0  0  0
 21 19  1  0  0  0  0
 23 12  1  0  0  0  0
 24 12  1  0  0  0  0
 25 10  1  0  0  0  0
 27  1  1  0  0  0  0
 27 17  1  0  0  0  0
 28  6  1  0  0  0  0
M  END
>  <MODEL>
8

>  <REMARK>
 VINA RESULT:      -7.2      2.880      4.900
  Name = 
  0 active torsions:
  status: ('A' for Active; 'I' for Inactive)
                            x       y       z     vdW  Elec       q    Type
                         _______ _______ _______ _____ _____    ______ ____

>  <TORSDO>
F 0

$$$$
=
 OpenBabel10262420493D

 28 33  0  0  1  0  0  0  0  0999 V2000
  187.2860  178.9850  141.4110 C   0  0  1  0  0  3  0  0  0  0  0  0
  188.1790  178.6640  140.1900 C   0  0  1  0  0  3  0  0  0  0  0  0
  189.5830  177.5760  142.0490 C   0  0  2  0  0  3  0  0  0  0  0  0
  190.5570  177.6160  145.7780 C   0  0  0  0  0  3  0  0  0  0  0  0
  183.4100  177.8850  142.9880 N   0  0  0  0  0  1  0  0  0  0  0  0
  188.3140  176.7700  138.6240 C   0  0  1  0  0  3  0  0  0  0  0  0
  189.3950  177.7810  140.5380 C   0  0  1  0  0  3  0  0  0  0  0  0
  187.0120  178.7540  138.0830 O   0  0  0  0  0  1  0  0  0  0  0  0
  192.0970  175.6020  144.2420 C   0  0  0  0  0  2  0  0  0  0  0  0
  188.5870  177.4550  144.2600 C   0  0  1  0  0  3  0  0  0  0  0  0
  187.4100  177.8990  139.1150 C   0  0  2  0  0  3  0  0  0  0  0  0
  191.8490  175.7260  146.7190 C   0  0  0  0  0  0  0  0  0  0  0  0
  189.8120  176.7220  144.8300 C   0  0  1  0  0  3  0  0  0  0  0  0
  190.8470  176.8000  142.4340 C   0  0  0  0  0  2  0  0  0  0  0  0
  192.1050  175.0090  145.6210 C   0  0  0  0  0  3  0  0  0  0  0  0
  185.8350  177.7140  143.2000 C   0  0  1  0  0  3  0  0  0  0  0  0
  188.3360  177.0910  142.7960 C   0  0  1  0  0  3  0  0  0  0  0  0
  190.7090  176.0300  143.7590 C   0  0  1  0  0  3  0  0  0  0  0  0
  184.7460  178.9490  141.2570 C   0  0  0  0  0  2  0  0  0  0  0  0
  186.2300  178.1080  144.6190 C   0  0  0  0  0  2  0  0  0  0  0  0
  184.6580  178.5800  142.7330 C   0  0  1  0  0  3  0  0  0  0  0  0
  189.1760  177.1850  137.4370 C   0  0  0  0  0  1  0  0  0  0  0  0
  191.9960  175.1250  147.9620 O   0  0  0  0  0  1  0  0  0  0  0  0
  191.4430  177.1450  146.6590 C   0  0  0  0  0  3  0  0  0  0  0  0
  187.3550  177.2130  145.1170 C   0  0  0  0  0  2  0  0  0  0  0  0
  186.0160  179.7560  141.0180 C   0  0  0  0  0  2  0  0  0  0  0  0
  187.0370  177.7010  142.2250 C   0  0  2  0  0  3  0  0  0  0  0  0
  189.2120  176.4620  139.8010 C   0  0  0  0  0  2  0  0  0  0  0  0
  1 26  1  6  0  0  0
  1 27  1  0  0  0  0
  2  7  1  0  0  0  0
  2  1  1  0  0  0  0
  3 14  1  0  0  0  0
  3 17  1  0  0  0  0
  4 24  2  0  0  0  0
  6 11  1  0  0  0  0
  6 28  1  0  0  0  0
  7  3  1  0  0  0  0
  8 11  1  0  0  0  0
  9 15  1  0  0  0  0
 10 13  1  0  0  0  0
 10 25  1  0  0  0  0
 11  2  1  0  0  0  0
 12 23  1  0  0  0  0
 13  4  1  0  0  0  0
 14 18  1  0  0  0  0
 15 12  2  0  0  0  0
 16 20  1  0  0  0  0
 17 10  1  0  0  0  0
 18  9  1  0  0  0  0
 18 13  1  0  0  0  0
 19 21  1  0  0  0  0
 20 25  1  0  0  0  0
 21  5  1  0  0  0  0
 21 16  1  0  0  0  0
 22  6  1  0  0  0  0
 24 12  1  0  0  0  0
 26 19  1  0  0  0  0
 27 17  1  0  0  0  0
 27 16  1  0  0  0  0
 28  7  1  0  0  0  0
M  END
>  <MODEL>
9

>  <REMARK>
 VINA RESULT:      -7.1      2.642      6.982
  Name = 
  0 active torsions:
  status: ('A' for Active; 'I' for Inactive)
                            x       y       z     vdW  Elec       q    Type
                         _______ _______ _______ _____ _____    ______ ____

>  <TORSDO>
F 0

$$$$
