=
 OpenBabel10262421583D

 30 36  0  0  1  0  0  0  0  0999 V2000
  185.7770  178.1900  138.1420 C   0  0  0  0  0  0  0  0  0  0  0  0
  188.0040  178.7090  137.0450 C   0  0  1  0  0  3  0  0  0  0  0  0
  186.6420  175.3580  136.3250 C   0  0  0  0  0  2  0  0  0  0  0  0
  184.4970  177.7790  138.0120 C   0  0  0  0  0  0  0  0  0  0  0  0
  186.2140  178.7650  139.3820 N   0  0  0  0  0  0  0  0  0  0  0  0
  183.4800  178.1550  141.8960 S   0  0  0  0  0  0  0  0  0  0  0  0
  181.2740  177.6420  138.1680 C   0  0  1  0  0  3  0  0  0  0  0  0
  183.9280  178.7830  140.2410 C   0  0  1  0  0  3  0  0  0  0  0  0
  185.8540  179.3280  141.6460 N   0  0  0  0  0  2  0  0  0  0  0  0
  183.0690  174.8610  137.9540 C   0  0  0  0  0  2  0  0  0  0  0  0
  185.3570  174.6210  136.7540 C   0  0  2  0  0  3  0  0  0  0  0  0
  185.3890  179.0350  140.3440 C   0  0  0  0  0  0  0  0  0  0  0  0
  183.6030  177.8530  139.1420 N   0  0  0  0  0  0  0  0  0  0  0  0
  189.0280  178.1500  136.0660 C   0  0  0  0  0  2  0  0  0  0  0  0
  182.2230  175.5990  139.0230 C   0  0  2  0  0  3  0  0  0  0  0  0
  180.4160  176.5710  137.8130 O   0  0  0  0  0  0  0  0  0  0  0  0
  185.3490  178.4930  143.8090 N   0  0  0  0  0  1  0  0  0  0  0  0
  187.5680  179.9540  136.5880 O   0  0  0  0  0  1  0  0  0  0  0  0
  187.2260  176.2730  137.4060 C   0  0  2  0  0  3  0  0  0  0  0  0
  189.5760  176.7830  136.4970 C   0  0  0  0  0  2  0  0  0  0  0  0
  184.8120  179.1690  142.6430 C   0  0  2  0  0  3  0  0  0  0  0  0
  186.8180  177.7450  137.1420 C   0  0  1  0  0  3  0  0  0  0  0  0
  184.1470  176.8500  136.9150 C   0  0  0  0  0  2  0  0  0  0  0  0
  184.6950  174.0280  135.5210 C   0  0  0  0  0  1  0  0  0  0  0  0
  184.3850  175.5040  137.5510 C   0  0  1  0  0  3  0  0  0  0  0  0
  180.7990  175.4210  138.5470 C   0  0  0  0  0  2  0  0  0  0  0  0
  181.1290  177.9460  139.6520 C   0  0  0  0  0  2  0  0  0  0  0  0
  188.7360  176.0490  137.5520 C   0  0  1  0  0  3  0  0  0  0  0  0
  189.1940  176.4280  138.9480 C   0  0  0  0  0  1  0  0  0  0  0  0
  182.3110  177.1280  139.1300 C   0  0  2  0  0  0  0  0  0  0  0  0
  1  5  1  0  0  0  0
  2 18  1  6  0  0  0
  2 22  1  0  0  0  0
  3 11  1  0  0  0  0
  4  1  2  0  0  0  0
  4 13  1  0  0  0  0
  5 12  2  0  0  0  0
  6 21  1  0  0  0  0
  7 30  1  0  0  0  0
  7 27  1  1  0  0  0
  8 12  1  1  0  0  0
  8  6  1  0  0  0  0
  9 21  1  0  0  0  0
 11 24  1  6  0  0  0
 11 25  1  0  0  0  0
 12  9  1  0  0  0  0
 13  8  1  0  0  0  0
 14 20  1  0  0  0  0
 14  2  1  0  0  0  0
 15 10  1  6  0  0  0
 15 30  1  0  0  0  0
 16  7  1  0  0  0  0
 16 26  1  0  0  0  0
 19  3  1  6  0  0  0
 19 28  1  0  0  0  0
 20 28  1  0  0  0  0
 21 17  1  1  0  0  0
 22 19  1  0  0  0  0
 22  1  1  1  0  0  0
 23  4  1  0  0  0  0
 25 23  1  6  0  0  0
 25 10  1  0  0  0  0
 26 15  1  0  0  0  0
 28 29  1  1  0  0  0
 30 13  1  0  0  0  0
 30 27  1  1  0  0  0
M  END
>  <MODEL>
1

>  <REMARK>
 VINA RESULT:      -6.9      0.000      0.000
  Name = 
  0 active torsions:
  status: ('A' for Active; 'I' for Inactive)
                            x       y       z     vdW  Elec       q    Type
                         _______ _______ _______ _____ _____    ______ ____

>  <TORSDO>
F 0

$$$$
=
 OpenBabel10262421583D

 30 36  0  0  1  0  0  0  0  0999 V2000
  185.8470  178.7800  139.9150 C   0  0  0  0  0  0  0  0  0  0  0  0
  183.6020  179.7530  139.2480 C   0  0  1  0  0  3  0  0  0  0  0  0
  183.7800  178.4260  142.6850 C   0  0  0  0  0  2  0  0  0  0  0  0
  186.8790  178.7540  140.7870 C   0  0  0  0  0  0  0  0  0  0  0  0
  185.9690  178.1050  138.6550 N   0  0  0  0  0  0  0  0  0  0  0  0
  189.0860  176.0030  138.8330 S   0  0  0  0  0  0  0  0  0  0  0  0
  189.8500  178.8510  142.0480 C   0  0  1  0  0  3  0  0  0  0  0  0
  188.3330  177.6500  139.0650 C   0  0  1  0  0  3  0  0  0  0  0  0
  187.1300  176.6870  137.1670 N   0  0  0  0  0  2  0  0  0  0  0  0
  187.4290  177.1720  143.5710 C   0  0  0  0  0  2  0  0  0  0  0  0
  184.9020  177.7620  143.5090 C   0  0  2  0  0  3  0  0  0  0  0  0
  187.0870  177.5830  138.2580 C   0  0  0  0  0  0  0  0  0  0  0  0
  188.0620  177.9890  140.4760 N   0  0  0  0  0  0  0  0  0  0  0  0
  182.2220  180.0930  139.7950 C   0  0  0  0  0  2  0  0  0  0  0  0
  188.7180  176.8510  142.7720 C   0  0  2  0  0  3  0  0  0  0  0  0
  190.2580  178.5650  143.3750 O   0  0  0  0  0  0  0  0  0  0  0  0
  188.0360  174.5170  136.8430 N   0  0  0  0  0  1  0  0  0  0  0  0
  184.1810  180.9070  138.7190 O   0  0  0  0  0  1  0  0  0  0  0  0
  183.8060  178.0690  141.1950 C   0  0  2  0  0  3  0  0  0  0  0  0
  181.5020  178.8760  140.3890 C   0  0  0  0  0  2  0  0  0  0  0  0
  188.3480  175.8990  137.1590 C   0  0  2  0  0  3  0  0  0  0  0  0
  184.4740  179.2050  140.3810 C   0  0  1  0  0  3  0  0  0  0  0  0
  186.6300  179.0940  142.2060 C   0  0  0  0  0  2  0  0  0  0  0  0
  184.9860  178.4420  144.8650 C   0  0  0  0  0  1  0  0  0  0  0  0
  186.2620  177.7560  142.7930 C   0  0  1  0  0  3  0  0  0  0  0  0
  189.8350  177.2540  143.7070 C   0  0  0  0  0  2  0  0  0  0  0  0
  190.5110  177.8740  141.0870 C   0  0  0  0  0  2  0  0  0  0  0  0
  182.4060  177.6760  140.7070 C   0  0  1  0  0  3  0  0  0  0  0  0
  182.5060  176.7570  139.5030 C   0  0  0  0  0  1  0  0  0  0  0  0
  189.0590  177.6810  141.5270 C   0  0  2  0  0  0  0  0  0  0  0  0
  1  4  2  0  0  0  0
  2 18  1  1  0  0  0
  2 14  1  0  0  0  0
  2 22  1  0  0  0  0
  3 11  1  0  0  0  0
  4 23  1  0  0  0  0
  5  1  1  0  0  0  0
  6  8  1  0  0  0  0
  7 27  1  6  0  0  0
  7 16  1  0  0  0  0
  8 12  1  6  0  0  0
  8 13  1  0  0  0  0
  9 12  1  0  0  0  0
 11 24  1  1  0  0  0
 12  5  2  0  0  0  0
 13  4  1  0  0  0  0
 13 30  1  0  0  0  0
 14 20  1  0  0  0  0
 15 10  1  1  0  0  0
 15 26  1  0  0  0  0
 16 26  1  0  0  0  0
 19  3  1  1  0  0  0
 20 28  1  0  0  0  0
 21 17  1  1  0  0  0
 21  9  1  0  0  0  0
 21  6  1  0  0  0  0
 22  1  1  6  0  0  0
 22 19  1  0  0  0  0
 25 23  1  1  0  0  0
 25 11  1  0  0  0  0
 25 10  1  0  0  0  0
 28 29  1  6  0  0  0
 28 19  1  0  0  0  0
 30 27  1  6  0  0  0
 30  7  1  0  0  0  0
 30 15  1  0  0  0  0
M  END
>  <MODEL>
2

>  <REMARK>
 VINA RESULT:      -6.8      3.069      7.052
  Name = 
  0 active torsions:
  status: ('A' for Active; 'I' for Inactive)
                            x       y       z     vdW  Elec       q    Type
                         _______ _______ _______ _____ _____    ______ ____

>  <TORSDO>
F 0

$$$$
=
 OpenBabel10262421583D

 30 36  0  0  1  0  0  0  0  0999 V2000
  186.5300  178.3290  138.6720 C   0  0  0  0  0  0  0  0  0  0  0  0
  188.5690  178.4820  137.1720 C   0  0  1  0  0  3  0  0  0  0  0  0
  186.0340  176.0150  136.1270 C   0  0  0  0  0  2  0  0  0  0  0  0
  185.1840  178.3570  138.7930 C   0  0  0  0  0  0  0  0  0  0  0  0
  187.3480  178.3730  139.8490 N   0  0  0  0  0  0  0  0  0  0  0  0
  185.0590  177.8740  142.7950 S   0  0  0  0  0  0  0  0  0  0  0  0
  182.1920  179.1080  139.7480 C   0  0  1  0  0  3  0  0  0  0  0  0
  185.3970  178.7960  141.2550 C   0  0  1  0  0  3  0  0  0  0  0  0
  187.6080  178.3390  142.1950 N   0  0  0  0  0  2  0  0  0  0  0  0
  182.8540  176.1140  138.4820 C   0  0  0  0  0  2  0  0  0  0  0  0
  184.6710  175.5860  136.7060 C   0  0  2  0  0  3  0  0  0  0  0  0
  186.8490  178.5790  141.0270 C   0  0  0  0  0  0  0  0  0  0  0  0
  184.5840  178.3550  140.1060 N   0  0  0  0  0  0  0  0  0  0  0  0
  189.1500  177.9600  135.8640 C   0  0  0  0  0  2  0  0  0  0  0  0
  182.5150  176.7230  139.8670 C   0  0  2  0  0  3  0  0  0  0  0  0
  180.9700  178.4760  139.4060 O   0  0  0  0  0  0  0  0  0  0  0  0
  187.2360  177.0980  144.1830 N   0  0  0  0  0  1  0  0  0  0  0  0
  188.5150  179.8760  137.1220 O   0  0  0  0  0  1  0  0  0  0  0  0
  187.0770  176.3740  137.1900 C   0  0  2  0  0  3  0  0  0  0  0  0
  189.2600  176.4300  135.8330 C   0  0  0  0  0  2  0  0  0  0  0  0
  186.7680  178.2050  143.3700 C   0  0  2  0  0  3  0  0  0  0  0  0
  187.1610  177.9120  137.3640 C   0  0  1  0  0  3  0  0  0  0  0  0
  184.3490  177.9230  137.6510 C   0  0  0  0  0  2  0  0  0  0  0  0
  183.6400  175.5880  135.5900 C   0  0  0  0  0  1  0  0  0  0  0  0
  184.2180  176.4420  137.8990 C   0  0  1  0  0  3  0  0  0  0  0  0
  181.0570  177.1050  139.7500 C   0  0  0  0  0  2  0  0  0  0  0  0
  182.4240  179.0010  141.2470 C   0  0  0  0  0  2  0  0  0  0  0  0
  188.4190  175.6950  136.8870 C   0  0  1  0  0  3  0  0  0  0  0  0
  189.2170  175.5100  138.1650 C   0  0  0  0  0  1  0  0  0  0  0  0
  183.1420  178.0640  140.2740 C   0  0  2  0  0  0  0  0  0  0  0  0
  1  4  2  0  0  0  0
  1  5  1  0  0  0  0
  2 18  1  6  0  0  0
  2 22  1  0  0  0  0
  3 11  1  0  0  0  0
  4 13  1  0  0  0  0
  5 12  2  0  0  0  0
  6 21  1  0  0  0  0
  7 30  1  0  0  0  0
  7 27  1  1  0  0  0
  8 12  1  6  0  0  0
  8  6  1  0  0  0  0
  9 21  1  0  0  0  0
 11 24  1  6  0  0  0
 11 25  1  0  0  0  0
 12  9  1  0  0  0  0
 13 30  1  0  0  0  0
 13  8  1  0  0  0  0
 14  2  1  0  0  0  0
 15 10  1  6  0  0  0
 15 30  1  0  0  0  0
 16  7  1  0  0  0  0
 16 26  1  0  0  0  0
 19  3  1  6  0  0  0
 19 22  1  0  0  0  0
 20 14  1  0  0  0  0
 20 28  1  0  0  0  0
 21 17  1  1  0  0  0
 22  1  1  1  0  0  0
 23  4  1  0  0  0  0
 25 23  1  6  0  0  0
 25 10  1  0  0  0  0
 26 15  1  0  0  0  0
 28 19  1  0  0  0  0
 28 29  1  1  0  0  0
 30 27  1  1  0  0  0
M  END
>  <MODEL>
3

>  <REMARK>
 VINA RESULT:      -6.7      1.345      1.555
  Name = 
  0 active torsions:
  status: ('A' for Active; 'I' for Inactive)
                            x       y       z     vdW  Elec       q    Type
                         _______ _______ _______ _____ _____    ______ ____

>  <TORSDO>
F 0

$$$$
=
 OpenBabel10262421583D

 30 36  0  0  1  0  0  0  0  0999 V2000
  185.4450  178.3540  138.2800 C   0  0  0  0  0  0  0  0  0  0  0  0
  187.4010  178.5460  136.6760 C   0  0  1  0  0  3  0  0  0  0  0  0
  185.1260  175.7120  136.0460 C   0  0  0  0  0  2  0  0  0  0  0  0
  184.1110  178.2500  138.4620 C   0  0  0  0  0  0  0  0  0  0  0  0
  186.2940  178.6280  139.4040 N   0  0  0  0  0  0  0  0  0  0  0  0
  184.1800  178.2410  142.4940 S   0  0  0  0  0  0  0  0  0  0  0  0
  181.0880  178.7830  139.4650 C   0  0  1  0  0  3  0  0  0  0  0  0
  184.3580  179.0020  140.8430 C   0  0  1  0  0  3  0  0  0  0  0  0
  186.6380  178.9040  141.7230 N   0  0  0  0  0  2  0  0  0  0  0  0
  182.0390  175.7480  138.5230 C   0  0  0  0  0  2  0  0  0  0  0  0
  183.8420  175.2100  136.7350 C   0  0  2  0  0  3  0  0  0  0  0  0
  185.8170  178.9180  140.5730 C   0  0  0  0  0  0  0  0  0  0  0  0
  183.5600  178.3410  139.7930 N   0  0  0  0  0  0  0  0  0  0  0  0
  187.9910  177.9360  135.4120 C   0  0  0  0  0  2  0  0  0  0  0  0
  181.6830  176.4790  139.8440 C   0  0  2  0  0  3  0  0  0  0  0  0
  179.9340  177.9860  139.2580 O   0  0  0  0  0  0  0  0  0  0  0  0
  186.4780  177.8780  143.8560 N   0  0  0  0  0  1  0  0  0  0  0  0
  187.1880  179.9100  136.4690 O   0  0  0  0  0  1  0  0  0  0  0  0
  186.1590  176.3070  137.0100 C   0  0  2  0  0  3  0  0  0  0  0  0
  188.2730  176.4340  135.5520 C   0  0  0  0  0  2  0  0  0  0  0  0
  185.8590  178.8220  142.9440 C   0  0  2  0  0  3  0  0  0  0  0  0
  186.0740  177.8540  137.0000 C   0  0  1  0  0  3  0  0  0  0  0  0
  183.2910  177.5950  137.4190 C   0  0  0  0  0  2  0  0  0  0  0  0
  182.7790  174.9660  135.6780 C   0  0  0  0  0  1  0  0  0  0  0  0
  183.3370  176.1490  137.8420 C   0  0  1  0  0  3  0  0  0  0  0  0
  180.1870  176.6830  139.7530 C   0  0  0  0  0  2  0  0  0  0  0  0
  181.3820  178.8820  140.9540 C   0  0  0  0  0  2  0  0  0  0  0  0
  187.5570  175.7450  136.7230 C   0  0  1  0  0  3  0  0  0  0  0  0
  188.4150  175.8020  137.9740 C   0  0  0  0  0  1  0  0  0  0  0  0
  182.1670  177.9190  140.0620 C   0  0  2  0  0  0  0  0  0  0  0  0
  1  4  2  0  0  0  0
  1  5  1  0  0  0  0
  2 18  1  6  0  0  0
  2 22  1  0  0  0  0
  3 11  1  0  0  0  0
  4 13  1  0  0  0  0
  5 12  2  0  0  0  0
  6 21  1  0  0  0  0
  7 30  1  0  0  0  0
  7 27  1  1  0  0  0
  8 12  1  6  0  0  0
  8  6  1  0  0  0  0
  9 21  1  0  0  0  0
 11 24  1  6  0  0  0
 11 25  1  0  0  0  0
 12  9  1  0  0  0  0
 13 30  1  0  0  0  0
 13  8  1  0  0  0  0
 14 20  1  0  0  0  0
 14  2  1  0  0  0  0
 15 10  1  6  0  0  0
 15 30  1  0  0  0  0
 16  7  1  0  0  0  0
 16 26  1  0  0  0  0
 19  3  1  6  0  0  0
 20 28  1  0  0  0  0
 21 17  1  1  0  0  0
 22 19  1  0  0  0  0
 22  1  1  1  0  0  0
 23  4  1  0  0  0  0
 25 23  1  6  0  0  0
 25 10  1  0  0  0  0
 26 15  1  0  0  0  0
 28 19  1  0  0  0  0
 28 29  1  1  0  0  0
 30 27  1  1  0  0  0
M  END
>  <MODEL>
4

>  <REMARK>
 VINA RESULT:      -6.6      1.133      1.285
  Name = 
  0 active torsions:
  status: ('A' for Active; 'I' for Inactive)
                            x       y       z     vdW  Elec       q    Type
                         _______ _______ _______ _____ _____    ______ ____

>  <TORSDO>
F 0

$$$$
=
 OpenBabel10262421583D

 30 36  0  0  1  0  0  0  0  0999 V2000
  187.3410  176.3790  136.3420 C   0  0  0  0  0  0  0  0  0  0  0  0
  189.7400  176.9810  135.7800 C   0  0  1  0  0  3  0  0  0  0  0  0
  189.1820  173.4560  136.7110 C   0  0  0  0  0  2  0  0  0  0  0  0
  186.2730  175.5790  136.1280 C   0  0  0  0  0  0  0  0  0  0  0  0
  187.1850  177.5770  137.1170 N   0  0  0  0  0  0  0  0  0  0  0  0
  183.7800  177.4140  138.7130 S   0  0  0  0  0  0  0  0  0  0  0  0
  183.2890  174.5350  135.4720 C   0  0  1  0  0  3  0  0  0  0  0  0
  184.7610  177.2850  137.1780 C   0  0  1  0  0  3  0  0  0  0  0  0
  185.9020  179.0010  138.4950 N   0  0  0  0  0  2  0  0  0  0  0  0
  185.3450  172.7040  137.3220 C   0  0  0  0  0  2  0  0  0  0  0  0
  187.9310  172.6510  137.1160 C   0  0  2  0  0  3  0  0  0  0  0  0
  186.0230  177.9980  137.5080 C   0  0  0  0  0  0  0  0  0  0  0  0
  185.0060  175.8970  136.7410 N   0  0  0  0  0  0  0  0  0  0  0  0
  191.1250  176.3770  135.5910 C   0  0  0  0  0  2  0  0  0  0  0  0
  184.0650  173.5550  137.5320 C   0  0  2  0  0  3  0  0  0  0  0  0
  182.7740  173.2170  135.5590 O   0  0  0  0  0  0  0  0  0  0  0  0
  184.6950  179.1820  140.5300 N   0  0  0  0  0  1  0  0  0  0  0  0
  189.3720  177.6530  134.6140 O   0  0  0  0  0  1  0  0  0  0  0  0
  189.1810  174.9040  137.2100 C   0  0  2  0  0  3  0  0  0  0  0  0
  191.6200  175.6260  136.8340 C   0  0  0  0  0  2  0  0  0  0  0  0
  184.5800  179.0180  139.0920 C   0  0  2  0  0  3  0  0  0  0  0  0
  188.7360  175.8630  136.0770 C   0  0  1  0  0  3  0  0  0  0  0  0
  186.4960  174.1850  135.6860 C   0  0  0  0  0  2  0  0  0  0  0  0
  187.8810  171.3730  136.2970 C   0  0  0  0  0  1  0  0  0  0  0  0
  186.6260  173.4530  136.9970 C   0  0  1  0  0  3  0  0  0  0  0  0
  182.9750  172.7380  136.8760 C   0  0  0  0  0  2  0  0  0  0  0  0
  182.5390  175.4430  136.4350 C   0  0  0  0  0  2  0  0  0  0  0  0
  190.5290  175.2600  137.8510 C   0  0  1  0  0  3  0  0  0  0  0  0
  190.3540  176.3770  138.8620 C   0  0  0  0  0  1  0  0  0  0  0  0
  183.9200  174.8910  136.7920 C   0  0  2  0  0  0  0  0  0  0  0  0
  1  5  1  0  0  0  0
  2 18  1  6  0  0  0
  2 22  1  0  0  0  0
  3 11  1  0  0  0  0
  4  1  2  0  0  0  0
  4 13  1  0  0  0  0
  5 12  2  0  0  0  0
  6 21  1  0  0  0  0
  7 16  1  0  0  0  0
  7 27  1  1  0  0  0
  7 30  1  0  0  0  0
  8 12  1  1  0  0  0
  8  6  1  0  0  0  0
  9 21  1  0  0  0  0
 10 15  1  0  0  0  0
 11 24  1  6  0  0  0
 12  9  1  0  0  0  0
 13 30  1  0  0  0  0
 13  8  1  0  0  0  0
 14  2  1  0  0  0  0
 14 20  1  0  0  0  0
 15 26  1  6  0  0  0
 16 26  1  0  0  0  0
 19  3  1  6  0  0  0
 19 28  1  0  0  0  0
 20 28  1  0  0  0  0
 21 17  1  1  0  0  0
 22  1  1  1  0  0  0
 22 19  1  0  0  0  0
 23  4  1  0  0  0  0
 25 23  1  6  0  0  0
 25 11  1  0  0  0  0
 25 10  1  0  0  0  0
 28 29  1  1  0  0  0
 30 27  1  1  0  0  0
 30 15  1  0  0  0  0
M  END
>  <MODEL>
5

>  <REMARK>
 VINA RESULT:      -6.5      2.235      3.321
  Name = 
  0 active torsions:
  status: ('A' for Active; 'I' for Inactive)
                            x       y       z     vdW  Elec       q    Type
                         _______ _______ _______ _____ _____    ______ ____

>  <TORSDO>
F 0

$$$$
=
 OpenBabel10262421583D

 30 36  0  0  1  0  0  0  0  0999 V2000
  187.1110  178.4210  139.5230 C   0  0  0  0  0  0  0  0  0  0  0  0
  187.7680  178.5120  137.0750 C   0  0  1  0  0  3  0  0  0  0  0  0
  184.2580  177.5850  137.7240 C   0  0  0  0  0  2  0  0  0  0  0  0
  186.2720  178.8150  140.5060 C   0  0  0  0  0  0  0  0  0  0  0  0
  188.3260  177.7370  139.8610 N   0  0  0  0  0  0  0  0  0  0  0  0
  188.1070  176.8520  143.5130 S   0  0  0  0  0  0  0  0  0  0  0  0
  185.1160  180.0180  143.2710 C   0  0  1  0  0  3  0  0  0  0  0  0
  187.9610  178.1530  142.2400 C   0  0  1  0  0  3  0  0  0  0  0  0
  189.7520  176.6970  141.4290 N   0  0  0  0  0  2  0  0  0  0  0  0
  183.4070  177.7280  141.5870 C   0  0  0  0  0  2  0  0  0  0  0  0
  183.4280  177.4090  139.0110 C   0  0  2  0  0  3  0  0  0  0  0  0
  188.7220  177.6030  141.0880 C   0  0  0  0  0  0  0  0  0  0  0  0
  186.5690  178.4810  141.8780 N   0  0  0  0  0  0  0  0  0  0  0  0
  187.2020  178.3980  135.6670 C   0  0  0  0  0  2  0  0  0  0  0  0
  184.2240  177.8100  142.9020 C   0  0  2  0  0  3  0  0  0  0  0  0
  183.7860  179.9880  143.7610 O   0  0  0  0  0  0  0  0  0  0  0  0
  189.9580  174.9530  143.0250 N   0  0  0  0  0  1  0  0  0  0  0  0
  188.3930  179.7530  137.2170 O   0  0  0  0  0  1  0  0  0  0  0  0
  185.7210  177.1490  137.8600 C   0  0  2  0  0  3  0  0  0  0  0  0
  186.5050  177.0540  135.4140 C   0  0  0  0  0  2  0  0  0  0  0  0
  189.7460  176.3780  142.8440 C   0  0  2  0  0  3  0  0  0  0  0  0
  186.6300  178.3820  138.0910 C   0  0  1  0  0  3  0  0  0  0  0  0
  184.8720  179.1530  140.1660 C   0  0  0  0  0  2  0  0  0  0  0  0
  182.1240  178.1740  138.8650 C   0  0  0  0  0  1  0  0  0  0  0  0
  184.1850  177.8170  140.2850 C   0  0  1  0  0  3  0  0  0  0  0  0
  183.3540  178.6410  143.8190 C   0  0  0  0  0  2  0  0  0  0  0  0
  186.0300  179.2590  144.2220 C   0  0  0  0  0  2  0  0  0  0  0  0
  186.1370  176.2640  136.6780 C   0  0  1  0  0  3  0  0  0  0  0  0
  187.2790  175.3500  137.0800 C   0  0  0  0  0  1  0  0  0  0  0  0
  185.5320  178.6130  142.9270 C   0  0  2  0  0  0  0  0  0  0  0  0
  1  5  1  0  0  0  0
  1  4  2  0  0  0  0
  2 18  1  6  0  0  0
  2 22  1  0  0  0  0
  3 11  1  0  0  0  0
  4 13  1  0  0  0  0
  5 12  2  0  0  0  0
  7 16  1  0  0  0  0
  7 27  1  1  0  0  0
  8 12  1  6  0  0  0
  8  6  1  0  0  0  0
  9 21  1  0  0  0  0
 11 24  1  6  0  0  0
 11 25  1  0  0  0  0
 12  9  1  0  0  0  0
 13  8  1  0  0  0  0
 13 30  1  0  0  0  0
 14  2  1  0  0  0  0
 15 10  1  6  0  0  0
 15 30  1  0  0  0  0
 15 26  1  0  0  0  0
 16 26  1  0  0  0  0
 19  3  1  6  0  0  0
 19 22  1  0  0  0  0
 20 14  1  0  0  0  0
 20 28  1  0  0  0  0
 21 17  1  6  0  0  0
 21  6  1  0  0  0  0
 22  1  1  1  0  0  0
 23  4  1  0  0  0  0
 25 23  1  6  0  0  0
 25 10  1  0  0  0  0
 28 29  1  1  0  0  0
 28 19  1  0  0  0  0
 30  7  1  0  0  0  0
 30 27  1  1  0  0  0
M  END
>  <MODEL>
6

>  <REMARK>
 VINA RESULT:      -6.4      2.675      4.410
  Name = 
  0 active torsions:
  status: ('A' for Active; 'I' for Inactive)
                            x       y       z     vdW  Elec       q    Type
                         _______ _______ _______ _____ _____    ______ ____

>  <TORSDO>
F 0

$$$$
=
 OpenBabel10262421583D

 30 36  0  0  1  0  0  0  0  0999 V2000
  192.6010  176.1840  137.3120 C   0  0  0  0  0  0  0  0  0  0  0  0
  194.9860  175.8900  136.5020 C   0  0  1  0  0  3  0  0  0  0  0  0
  192.6820  173.1440  135.6310 C   0  0  0  0  0  2  0  0  0  0  0  0
  191.2810  176.2110  137.0230 C   0  0  0  0  0  0  0  0  0  0  0  0
  193.0550  176.6400  138.5940 N   0  0  0  0  0  0  0  0  0  0  0  0
  189.9980  177.0800  140.7460 S   0  0  0  0  0  0  0  0  0  0  0  0
  188.2020  177.1500  136.7720 C   0  0  1  0  0  3  0  0  0  0  0  0
  190.8200  177.4480  139.1580 C   0  0  1  0  0  3  0  0  0  0  0  0
  192.6380  177.3940  140.7920 N   0  0  0  0  0  2  0  0  0  0  0  0
  188.9820  173.9260  136.7980 C   0  0  0  0  0  2  0  0  0  0  0  0
  191.1850  172.8910  135.8980 C   0  0  2  0  0  3  0  0  0  0  0  0
  192.2590  177.2100  139.4440 C   0  0  0  0  0  0  0  0  0  0  0  0
  190.3360  176.6280  138.0310 N   0  0  0  0  0  0  0  0  0  0  0  0
  195.8740  174.9800  135.6640 C   0  0  0  0  0  2  0  0  0  0  0  0
  188.3100  174.9500  137.7490 C   0  0  2  0  0  3  0  0  0  0  0  0
  187.0840  176.4060  136.3160 O   0  0  0  0  0  0  0  0  0  0  0  0
  191.6340  176.8720  142.8780 N   0  0  0  0  0  1  0  0  0  0  0  0
  195.0460  177.1860  135.9880 O   0  0  0  0  0  1  0  0  0  0  0  0
  193.4060  173.8650  136.7730 C   0  0  2  0  0  3  0  0  0  0  0  0
  195.8810  173.5300  136.1660 C   0  0  0  0  0  2  0  0  0  0  0  0
  191.4930  177.6320  141.6500 C   0  0  2  0  0  3  0  0  0  0  0  0
  193.5450  175.3750  136.4530 C   0  0  1  0  0  3  0  0  0  0  0  0
  190.7740  175.3990  135.8950 C   0  0  0  0  0  2  0  0  0  0  0  0
  190.5130  172.4940  134.5940 C   0  0  0  0  0  1  0  0  0  0  0  0
  190.4750  174.0810  136.5620 C   0  0  1  0  0  3  0  0  0  0  0  0
  186.9740  175.2290  137.0970 C   0  0  0  0  0  2  0  0  0  0  0  0
  187.9920  177.5530  138.2230 C   0  0  0  0  0  2  0  0  0  0  0  0
  194.7280  173.1630  137.1100 C   0  0  1  0  0  3  0  0  0  0  0  0
  195.1180  173.4350  138.5510 C   0  0  0  0  0  1  0  0  0  0  0  0
  188.8880  176.3680  137.8590 C   0  0  2  0  0  0  0  0  0  0  0  0
  1  5  1  0  0  0  0
  2 18  1  6  0  0  0
  3 11  1  0  0  0  0
  4  1  2  0  0  0  0
  4 13  1  0  0  0  0
  5 12  2  0  0  0  0
  6 21  1  0  0  0  0
  7 30  1  0  0  0  0
  7 27  1  1  0  0  0
  8 12  1  1  0  0  0
  8  6  1  0  0  0  0
  9 21  1  0  0  0  0
 11 24  1  6  0  0  0
 11 25  1  0  0  0  0
 12  9  1  0  0  0  0
 13  8  1  0  0  0  0
 14 20  1  0  0  0  0
 14  2  1  0  0  0  0
 15 10  1  6  0  0  0
 15 30  1  0  0  0  0
 16  7  1  0  0  0  0
 16 26  1  0  0  0  0
 19  3  1  6  0  0  0
 19 28  1  0  0  0  0
 20 28  1  0  0  0  0
 21 17  1  1  0  0  0
 22  2  1  0  0  0  0
 22 19  1  0  0  0  0
 22  1  1  1  0  0  0
 23  4  1  0  0  0  0
 25 23  1  6  0  0  0
 25 10  1  0  0  0  0
 26 15  1  0  0  0  0
 28 29  1  1  0  0  0
 30 13  1  0  0  0  0
 30 27  1  1  0  0  0
M  END
>  <MODEL>
7

>  <REMARK>
 VINA RESULT:      -6.4      4.700      6.865
  Name = 
  0 active torsions:
  status: ('A' for Active; 'I' for Inactive)
                            x       y       z     vdW  Elec       q    Type
                         _______ _______ _______ _____ _____    ______ ____

>  <TORSDO>
F 0

$$$$
=
 OpenBabel10262421583D

 30 36  0  0  1  0  0  0  0  0999 V2000
  183.6790  177.8390  137.5360 C   0  0  0  0  0  0  0  0  0  0  0  0
  181.2060  178.2290  137.9410 C   0  0  1  0  0  3  0  0  0  0  0  0
  183.3460  178.4850  140.9340 C   0  0  0  0  0  2  0  0  0  0  0  0
  184.9510  178.2780  137.6640 C   0  0  0  0  0  0  0  0  0  0  0  0
  183.4000  176.7130  136.6920 N   0  0  0  0  0  0  0  0  0  0  0  0
  186.7140  175.1810  135.7760 S   0  0  0  0  0  0  0  0  0  0  0  0
  187.9820  179.1710  137.0010 C   0  0  1  0  0  3  0  0  0  0  0  0
  185.6970  176.6960  135.8650 C   0  0  1  0  0  3  0  0  0  0  0  0
  184.1050  174.9180  135.3310 N   0  0  0  0  0  2  0  0  0  0  0  0
  187.1750  178.0650  140.0230 C   0  0  0  0  0  2  0  0  0  0  0  0
  184.8620  178.3350  141.1690 C   0  0  2  0  0  3  0  0  0  0  0  0
  184.3050  176.1810  135.9330 C   0  0  0  0  0  0  0  0  0  0  0  0
  186.0230  177.5660  137.0110 N   0  0  0  0  0  0  0  0  0  0  0  0
  180.2070  178.6360  139.0160 C   0  0  0  0  0  2  0  0  0  0  0  0
  187.9760  177.5610  138.7940 C   0  0  2  0  0  3  0  0  0  0  0  0
  189.0230  179.5070  137.9040 O   0  0  0  0  0  0  0  0  0  0  0  0
  185.3640  172.9080  135.2470 N   0  0  0  0  0  1  0  0  0  0  0  0
  181.0950  179.1040  136.8600 O   0  0  0  0  0  1  0  0  0  0  0  0
  182.7840  177.5410  139.8660 C   0  0  2  0  0  3  0  0  0  0  0  0
  180.2480  177.7170  140.2440 C   0  0  0  0  0  2  0  0  0  0  0  0
  185.3540  174.3180  134.9020 C   0  0  2  0  0  3  0  0  0  0  0  0
  182.6230  178.2890  138.5190 C   0  0  1  0  0  3  0  0  0  0  0  0
  185.2980  179.1550  138.8040 C   0  0  0  0  0  2  0  0  0  0  0  0
  185.3560  179.5250  141.9760 C   0  0  0  0  0  1  0  0  0  0  0  0
  185.6660  178.1570  139.8720 C   0  0  1  0  0  3  0  0  0  0  0  0
  189.2190  178.4220  138.7930 C   0  0  0  0  0  2  0  0  0  0  0  0
  188.3820  177.9480  136.1890 C   0  0  0  0  0  2  0  0  0  0  0  0
  181.5090  176.8510  140.3660 C   0  0  1  0  0  3  0  0  0  0  0  0
  181.3120  175.5260  139.6520 C   0  0  0  0  0  1  0  0  0  0  0  0
  187.4330  177.8220  137.3830 C   0  0  2  0  0  0  0  0  0  0  0  0
  1  4  2  0  0  0  0
  2 18  1  6  0  0  0
  2 22  1  0  0  0  0
  2 14  1  0  0  0  0
  3 11  1  0  0  0  0
  4 23  1  0  0  0  0
  5  1  1  0  0  0  0
  7 27  1  6  0  0  0
  7 30  1  0  0  0  0
  7 16  1  0  0  0  0
  8  6  1  1  0  0  0
  8 12  1  0  0  0  0
  8 13  1  0  0  0  0
  9 12  1  0  0  0  0
 11 24  1  6  0  0  0
 12  5  2  0  0  0  0
 13 30  1  0  0  0  0
 13  4  1  0  0  0  0
 14 20  1  0  0  0  0
 15 26  1  6  0  0  0
 15 10  1  0  0  0  0
 16 26  1  0  0  0  0
 19 28  1  0  0  0  0
 19  3  1  1  0  0  0
 20 28  1  0  0  0  0
 21 17  1  1  0  0  0
 21  9  1  0  0  0  0
 21  6  1  0  0  0  0
 22  1  1  6  0  0  0
 22 19  1  0  0  0  0
 25 23  1  6  0  0  0
 25 10  1  0  0  0  0
 25 11  1  0  0  0  0
 28 29  1  6  0  0  0
 30 27  1  6  0  0  0
 30 15  1  0  0  0  0
M  END
>  <MODEL>
8

>  <REMARK>
 VINA RESULT:      -5.2      2.560      6.817
  Name = 
  0 active torsions:
  status: ('A' for Active; 'I' for Inactive)
                            x       y       z     vdW  Elec       q    Type
                         _______ _______ _______ _____ _____    ______ ____

>  <TORSDO>
F 0

$$$$
=
 OpenBabel10262421583D

 30 36  0  0  1  0  0  0  0  0999 V2000
  183.3610  176.9380  138.7220 C   0  0  0  0  0  0  0  0  0  0  0  0
  182.4920  178.7180  140.3060 C   0  0  1  0  0  3  0  0  0  0  0  0
  179.8970  176.8660  138.4510 C   0  0  0  0  0  2  0  0  0  0  0  0
  183.3350  175.6520  138.3090 C   0  0  0  0  0  0  0  0  0  0  0  0
  184.3920  177.8140  138.2460 N   0  0  0  0  0  0  0  0  0  0  0  0
  186.1510  176.0170  135.4460 S   0  0  0  0  0  0  0  0  0  0  0  0
  184.2370  172.6650  137.4770 C   0  0  1  0  0  3  0  0  0  0  0  0
  185.5500  175.9540  137.1690 C   0  0  1  0  0  3  0  0  0  0  0  0
  186.2300  178.2800  136.8400 N   0  0  0  0  0  2  0  0  0  0  0  0
  181.4720  174.0000  136.2210 C   0  0  0  0  0  2  0  0  0  0  0  0
  179.9450  175.7280  137.4120 C   0  0  2  0  0  3  0  0  0  0  0  0
  185.3880  177.3850  137.5370 C   0  0  0  0  0  0  0  0  0  0  0  0
  184.2970  175.1930  137.3360 N   0  0  0  0  0  0  0  0  0  0  0  0
  181.2080  179.3010  140.8820 C   0  0  0  0  0  2  0  0  0  0  0  0
  182.8950  173.6330  135.7250 C   0  0  2  0  0  3  0  0  0  0  0  0
  183.4560  171.6350  136.8950 O   0  0  0  0  0  0  0  0  0  0  0  0
  186.9810  178.4370  134.5950 N   0  0  0  0  0  1  0  0  0  0  0  0
  183.3060  178.2830  141.3540 O   0  0  0  0  0  1  0  0  0  0  0  0
  181.0560  177.8630  138.3380 C   0  0  2  0  0  3  0  0  0  0  0  0
  180.2530  179.8190  139.7990 C   0  0  0  0  0  2  0  0  0  0  0  0
  186.9790  177.6150  135.7910 C   0  0  2  0  0  3  0  0  0  0  0  0
  182.1470  177.5410  139.3900 C   0  0  1  0  0  3  0  0  0  0  0  0
  182.0900  174.8680  138.4700 C   0  0  0  0  0  2  0  0  0  0  0  0
  178.9690  174.6400  137.8280 C   0  0  0  0  0  1  0  0  0  0  0  0
  181.3580  175.1670  137.1870 C   0  0  1  0  0  3  0  0  0  0  0  0
  182.8890  172.1210  135.6910 C   0  0  0  0  0  2  0  0  0  0  0  0
  185.3660  173.0480  136.5320 C   0  0  0  0  0  2  0  0  0  0  0  0
  180.5380  179.3060  138.3810 C   0  0  1  0  0  3  0  0  0  0  0  0
  181.5040  180.2340  137.6670 C   0  0  0  0  0  1  0  0  0  0  0  0
  184.1020  173.9040  136.6330 C   0  0  2  0  0  0  0  0  0  0  0  0
  2 14  1  0  0  0  0
  2 18  1  1  0  0  0
  4 23  1  0  0  0  0
  4  1  2  0  0  0  0
  5  1  1  0  0  0  0
  6 21  1  0  0  0  0
  7 27  1  6  0  0  0
  8  6  1  6  0  0  0
  8 13  1  0  0  0  0
  8 12  1  0  0  0  0
  9 12  1  0  0  0  0
 11 24  1  1  0  0  0
 11  3  1  0  0  0  0
 12  5  2  0  0  0  0
 13  4  1  0  0  0  0
 15 26  1  1  0  0  0
 15 10  1  0  0  0  0
 15 30  1  0  0  0  0
 16  7  1  0  0  0  0
 19 28  1  0  0  0  0
 19  3  1  1  0  0  0
 19 22  1  0  0  0  0
 20 14  1  0  0  0  0
 21 17  1  6  0  0  0
 21  9  1  0  0  0  0
 22  1  1  6  0  0  0
 22  2  1  0  0  0  0
 25 10  1  6  0  0  0
 25 11  1  0  0  0  0
 25 23  1  0  0  0  0
 26 16  1  0  0  0  0
 28 29  1  1  0  0  0
 28 20  1  0  0  0  0
 30 27  1  6  0  0  0
 30 13  1  0  0  0  0
 30  7  1  0  0  0  0
M  END
>  <MODEL>
9

>  <REMARK>
 VINA RESULT:      -4.9      2.951      6.072
  Name = 
  0 active torsions:
  status: ('A' for Active; 'I' for Inactive)
                            x       y       z     vdW  Elec       q    Type
                         _______ _______ _______ _____ _____    ______ ____

>  <TORSDO>
F 0

$$$$
