=
 OpenBabel10262420083D

 27 31  0  0  1  0  0  0  0  0999 V2000
  187.5050  178.6270  141.8930 N   0  0  0  0  0  2  0  0  0  0  0  0
  187.7340  177.3600  144.0510 C   0  0  1  0  0  3  0  0  0  0  0  0
  189.5210  176.5640  142.5450 N   0  0  0  0  0  2  0  0  0  0  0  0
  190.2770  176.8090  147.3430 C   0  0  0  0  0  3  0  0  0  0  0  0
  192.2810  175.8740  148.3070 O   0  0  0  0  0  1  0  0  0  0  0  0
  187.5150  178.2530  145.2740 C   0  0  0  0  0  2  0  0  0  0  0  0
  191.3080  176.3510  144.7810 C   0  0  0  0  0  3  0  0  0  0  0  0
  190.1610  177.1760  138.9350 C   0  0  0  0  0  0  0  0  0  0  0  0
  192.0560  176.0030  145.9100 C   0  0  0  0  0  3  0  0  0  0  0  0
  190.9660  176.6910  137.9600 F   0  0  0  0  0  0  0  0  0  0  0  0
  190.0310  176.9100  144.9270 C   0  0  0  0  0  0  0  0  0  0  0  0
  186.8590  177.7150  142.8330 C   0  0  1  0  0  3  0  0  0  0  0  0
  191.5390  176.2260  147.1890 C   0  0  0  0  0  0  0  0  0  0  0  0
  189.5270  177.1640  146.2190 C   0  0  0  0  0  0  0  0  0  0  0  0
  188.4790  178.1720  140.9460 C   0  0  0  0  0  0  0  0  0  0  0  0
  189.2310  177.3600  143.7310 C   0  0  2  0  0  3  0  0  0  0  0  0
  190.1810  176.5990  140.2060 C   0  0  0  0  0  3  0  0  0  0  0  0
  188.2630  177.7470  146.3820 O   0  0  0  0  0  0  0  0  0  0  0  0
  189.3320  178.2690  138.6750 C   0  0  0  0  0  3  0  0  0  0  0  0
  188.4910  178.7600  139.6770 C   0  0  0  0  0  3  0  0  0  0  0  0
  189.3590  177.0960  141.2240 C   0  0  0  0  0  0  0  0  0  0  0  0
  182.8630  178.8960  143.7410 N   0  0  0  0  0  0  0  0  0  0  0  0
  185.4620  178.1480  143.1660 C   0  0  0  0  0  0  0  0  0  0  0  0
  184.5170  178.2530  142.1430 C   0  0  0  0  0  3  0  0  0  0  0  0
  183.2100  178.6340  142.4530 C   0  0  0  0  0  3  0  0  0  0  0  0
  183.7630  178.7940  144.7550 C   0  0  0  0  0  3  0  0  0  0  0  0
  185.0810  178.4150  144.4870 C   0  0  0  0  0  3  0  0  0  0  0  0
  1 12  1  0  0  0  0
  2  6  1  1  0  0  0
  6 18  1  0  0  0  0
  7 11  2  0  0  0  0
  7  9  1  0  0  0  0
  8 17  1  0  0  0  0
  9 13  2  0  0  0  0
 10  8  1  0  0  0  0
 11 14  1  0  0  0  0
 12 23  1  1  0  0  0
 12  2  1  0  0  0  0
 13  4  1  0  0  0  0
 13  5  1  0  0  0  0
 14 18  1  0  0  0  0
 14  4  2  0  0  0  0
 15 21  1  0  0  0  0
 15  1  1  0  0  0  0
 16  3  1  6  0  0  0
 16  2  1  0  0  0  0
 16 11  1  0  0  0  0
 17 21  2  0  0  0  0
 19  8  2  0  0  0  0
 19 20  1  0  0  0  0
 20 15  2  0  0  0  0
 21  3  1  0  0  0  0
 22 26  1  0  0  0  0
 23 27  1  0  0  0  0
 24 25  1  0  0  0  0
 24 23  2  0  0  0  0
 25 22  2  0  0  0  0
 27 26  2  0  0  0  0
M  END
>  <MODEL>
1

>  <REMARK>
 VINA RESULT:     -10.6      0.000      0.000
  Name = 
  1 active torsions:
  status: ('A' for Active; 'I' for Inactive)
    1  A    between atoms: C_9  and  C_15
                            x       y       z     vdW  Elec       q    Type
                         _______ _______ _______ _____ _____    ______ ____

>  <TORSDO>
F 1

$$$$
=
 OpenBabel10262420083D

 27 31  0  0  1  0  0  0  0  0999 V2000
  189.3440  176.7400  142.9300 N   0  0  0  0  0  2  0  0  0  0  0  0
  187.5550  178.0670  144.0910 C   0  0  1  0  0  3  0  0  0  0  0  0
  187.4600  178.6550  141.6950 N   0  0  0  0  0  2  0  0  0  0  0  0
  183.3930  178.5370  144.3600 C   0  0  0  0  0  3  0  0  0  0  0  0
  181.3130  179.3410  143.4410 O   0  0  0  0  0  1  0  0  0  0  0  0
  186.8140  177.2440  145.1480 C   0  0  0  0  0  2  0  0  0  0  0  0
  184.5970  178.8080  141.8480 C   0  0  0  0  0  3  0  0  0  0  0  0
  189.7320  177.8510  138.8650 C   0  0  0  0  0  0  0  0  0  0  0  0
  183.2500  179.1370  142.0180 C   0  0  0  0  0  3  0  0  0  0  0  0
  189.9060  178.2300  137.5770 F   0  0  0  0  0  0  0  0  0  0  0  0
  185.3560  178.3610  142.9380 C   0  0  0  0  0  0  0  0  0  0  0  0
  189.0530  177.7380  143.9560 C   0  0  1  0  0  3  0  0  0  0  0  0
  182.6500  179.0070  143.2730 C   0  0  0  0  0  0  0  0  0  0  0  0
  184.7390  178.2010  144.1960 C   0  0  0  0  0  0  0  0  0  0  0  0
  189.3860  177.0760  141.5380 C   0  0  0  0  0  0  0  0  0  0  0  0
  186.7920  177.9330  142.7700 C   0  0  2  0  0  3  0  0  0  0  0  0
  188.7590  178.4740  139.6490 C   0  0  0  0  0  3  0  0  0  0  0  0
  185.4770  177.7300  145.2900 O   0  0  0  0  0  0  0  0  0  0  0  0
  190.5070  176.8210  139.4010 C   0  0  0  0  0  3  0  0  0  0  0  0
  190.3370  176.4400  140.7330 C   0  0  0  0  0  3  0  0  0  0  0  0
  188.5630  178.0860  140.9790 C   0  0  0  0  0  0  0  0  0  0  0  0
  191.0940  176.9000  147.6070 N   0  0  0  0  0  0  0  0  0  0  0  0
  189.7510  177.4350  145.2490 C   0  0  0  0  0  0  0  0  0  0  0  0
  190.9960  176.8030  145.2220 C   0  0  0  0  0  3  0  0  0  0  0  0
  191.6580  176.5400  146.4230 C   0  0  0  0  0  3  0  0  0  0  0  0
  189.8850  177.5220  147.6580 C   0  0  0  0  0  3  0  0  0  0  0  0
  189.1910  177.8040  146.4790 C   0  0  0  0  0  3  0  0  0  0  0  0
  1 12  1  0  0  0  0
  2  6  1  1  0  0  0
  6 18  1  0  0  0  0
  7  9  2  0  0  0  0
  7 11  1  0  0  0  0
  8 19  2  0  0  0  0
  8 17  1  0  0  0  0
  9 13  1  0  0  0  0
 10  8  1  0  0  0  0
 11 14  2  0  0  0  0
 12  2  1  0  0  0  0
 12 23  1  1  0  0  0
 13  5  1  0  0  0  0
 13  4  2  0  0  0  0
 14  4  1  0  0  0  0
 14 18  1  0  0  0  0
 15  1  1  0  0  0  0
 16  3  1  6  0  0  0
 16 11  1  0  0  0  0
 16  2  1  0  0  0  0
 17 21  2  0  0  0  0
 19 20  1  0  0  0  0
 20 15  2  0  0  0  0
 21 15  1  0  0  0  0
 21  3  1  0  0  0  0
 22 26  1  0  0  0  0
 23 27  1  0  0  0  0
 24 23  2  0  0  0  0
 24 25  1  0  0  0  0
 25 22  2  0  0  0  0
 27 26  2  0  0  0  0
M  END
>  <MODEL>
2

>  <REMARK>
 VINA RESULT:     -10.4      2.019      5.866
  Name = 
  1 active torsions:
  status: ('A' for Active; 'I' for Inactive)
    1  A    between atoms: C_9  and  C_15
                            x       y       z     vdW  Elec       q    Type
                         _______ _______ _______ _____ _____    ______ ____

>  <TORSDO>
F 1

$$$$
=
 OpenBabel10262420083D

 27 31  0  0  1  0  0  0  0  0999 V2000
  186.8200  178.8890  140.6230 N   0  0  0  0  0  2  0  0  0  0  0  0
  185.9530  178.0690  142.8350 C   0  0  1  0  0  3  0  0  0  0  0  0
  188.1830  177.0620  142.5060 N   0  0  0  0  0  2  0  0  0  0  0  0
  186.6550  178.2520  146.9690 C   0  0  0  0  0  3  0  0  0  0  0  0
  187.9300  177.5910  148.9070 O   0  0  0  0  0  1  0  0  0  0  0  0
  185.2470  179.1720  143.6260 C   0  0  0  0  0  2  0  0  0  0  0  0
  188.7220  177.3460  145.3120 C   0  0  0  0  0  3  0  0  0  0  0  0
  190.4500  176.9910  139.5620 C   0  0  0  0  0  0  0  0  0  0  0  0
  188.8440  177.2490  146.7010 C   0  0  0  0  0  3  0  0  0  0  0  0
  191.5850  176.3560  139.1810 F   0  0  0  0  0  0  0  0  0  0  0  0
  187.5570  177.8780  144.7430 C   0  0  0  0  0  0  0  0  0  0  0  0
  185.7610  178.1520  141.3090 C   0  0  1  0  0  3  0  0  0  0  0  0
  187.8100  177.6950  147.5280 C   0  0  0  0  0  0  0  0  0  0  0  0
  186.5290  178.3570  145.5810 C   0  0  0  0  0  0  0  0  0  0  0  0
  188.0920  178.2950  140.3390 C   0  0  0  0  0  0  0  0  0  0  0  0
  187.4270  178.0600  143.2510 C   0  0  2  0  0  3  0  0  0  0  0  0
  189.8480  176.6710  140.7800 C   0  0  0  0  0  3  0  0  0  0  0  0
  185.3690  178.9160  145.0280 O   0  0  0  0  0  0  0  0  0  0  0  0
  189.8990  177.9830  138.7490 C   0  0  0  0  0  3  0  0  0  0  0  0
  188.7220  178.6280  139.1350 C   0  0  0  0  0  3  0  0  0  0  0  0
  188.6800  177.3240  141.1880 C   0  0  0  0  0  0  0  0  0  0  0  0
  181.8940  179.3810  139.9950 N   0  0  0  0  0  0  0  0  0  0  0  0
  184.3960  178.5910  140.8690 C   0  0  0  0  0  0  0  0  0  0  0  0
  184.2650  179.3600  139.7100 C   0  0  0  0  0  3  0  0  0  0  0  0
  182.9940  179.7510  139.2860 C   0  0  0  0  0  3  0  0  0  0  0  0
  181.9950  178.6260  141.1220 C   0  0  0  0  0  3  0  0  0  0  0  0
  183.2480  178.2140  141.5790 C   0  0  0  0  0  3  0  0  0  0  0  0
  1 12  1  0  0  0  0
  2 16  1  0  0  0  0
  2  6  1  1  0  0  0
  4 13  1  0  0  0  0
  6 18  1  0  0  0  0
  7  9  1  0  0  0  0
  8 17  1  0  0  0  0
  9 13  2  0  0  0  0
 10  8  1  0  0  0  0
 11  7  2  0  0  0  0
 11 14  1  0  0  0  0
 12 23  1  1  0  0  0
 12  2  1  0  0  0  0
 13  5  1  0  0  0  0
 14  4  2  0  0  0  0
 15  1  1  0  0  0  0
 15 21  1  0  0  0  0
 16  3  1  6  0  0  0
 16 11  1  0  0  0  0
 17 21  2  0  0  0  0
 18 14  1  0  0  0  0
 19 20  1  0  0  0  0
 19  8  2  0  0  0  0
 20 15  2  0  0  0  0
 21  3  1  0  0  0  0
 22 26  1  0  0  0  0
 23 27  1  0  0  0  0
 24 23  2  0  0  0  0
 25 24  1  0  0  0  0
 25 22  2  0  0  0  0
 26 27  2  0  0  0  0
M  END
>  <MODEL>
3

>  <REMARK>
 VINA RESULT:     -10.3      1.924      2.740
  Name = 
  1 active torsions:
  status: ('A' for Active; 'I' for Inactive)
    1  A    between atoms: C_9  and  C_15
                            x       y       z     vdW  Elec       q    Type
                         _______ _______ _______ _____ _____    ______ ____

>  <TORSDO>
F 1

$$$$
=
 OpenBabel10262420083D

 27 31  0  0  1  0  0  0  0  0999 V2000
  190.1560  177.9830  142.7250 N   0  0  0  0  0  2  0  0  0  0  0  0
  188.3180  177.5190  141.0760 C   0  0  1  0  0  3  0  0  0  0  0  0
  187.3660  177.2160  143.3340 N   0  0  0  0  0  2  0  0  0  0  0  0
  184.6150  178.9510  139.7160 C   0  0  0  0  0  3  0  0  0  0  0  0
  182.2400  179.2380  140.0250 O   0  0  0  0  0  1  0  0  0  0  0  0
  188.3250  178.5060  139.9070 C   0  0  0  0  0  2  0  0  0  0  0  0
  184.8870  178.3550  142.4380 C   0  0  0  0  0  3  0  0  0  0  0  0
  188.9570  177.1200  146.6910 C   0  0  0  0  0  0  0  0  0  0  0  0
  183.6290  178.6550  141.9090 C   0  0  0  0  0  3  0  0  0  0  0  0
  188.6090  176.8000  147.9600 F   0  0  0  0  0  0  0  0  0  0  0  0
  186.0140  178.3310  141.6050 C   0  0  0  0  0  0  0  0  0  0  0  0
  189.7150  177.1480  141.6110 C   0  0  1  0  0  3  0  0  0  0  0  0
  183.4920  178.9470  140.5490 C   0  0  0  0  0  0  0  0  0  0  0  0
  185.8770  178.6570  140.2400 C   0  0  0  0  0  0  0  0  0  0  0  0
  189.6880  177.7670  144.0620 C   0  0  0  0  0  0  0  0  0  0  0  0
  187.3930  178.0790  142.1600 C   0  0  2  0  0  3  0  0  0  0  0  0
  188.0410  176.9450  145.6520 C   0  0  0  0  0  3  0  0  0  0  0  0
  186.9980  178.6640  139.3990 O   0  0  0  0  0  0  0  0  0  0  0  0
  190.2220  177.6490  146.4270 C   0  0  0  0  0  3  0  0  0  0  0  0
  190.5860  177.9660  145.1170 C   0  0  0  0  0  3  0  0  0  0  0  0
  188.3860  177.2790  144.3380 C   0  0  0  0  0  0  0  0  0  0  0  0
  192.7730  176.7300  138.6670 N   0  0  0  0  0  0  0  0  0  0  0  0
  190.7750  177.0090  140.5590 C   0  0  0  0  0  0  0  0  0  0  0  0
  192.0580  177.5000  140.8130 C   0  0  0  0  0  3  0  0  0  0  0  0
  193.0530  177.3510  139.8440 C   0  0  0  0  0  3  0  0  0  0  0  0
  191.5340  176.2380  138.4000 C   0  0  0  0  0  3  0  0  0  0  0  0
  190.5110  176.3660  139.3420 C   0  0  0  0  0  3  0  0  0  0  0  0
  1 15  1  0  0  0  0
  2  6  1  6  0  0  0
  2 12  1  0  0  0  0
  2 16  1  0  0  0  0
  3 21  1  0  0  0  0
  4 14  2  0  0  0  0
  4 13  1  0  0  0  0
  5 13  1  0  0  0  0
  8 10  1  0  0  0  0
  9  7  1  0  0  0  0
 11  7  2  0  0  0  0
 12 23  1  6  0  0  0
 12  1  1  0  0  0  0
 13  9  2  0  0  0  0
 14 11  1  0  0  0  0
 15 21  2  0  0  0  0
 15 20  1  0  0  0  0
 16 11  1  6  0  0  0
 16  3  1  0  0  0  0
 17  8  2  0  0  0  0
 18  6  1  0  0  0  0
 18 14  1  0  0  0  0
 19  8  1  0  0  0  0
 20 19  2  0  0  0  0
 21 17  1  0  0  0  0
 22 25  1  0  0  0  0
 23 24  1  0  0  0  0
 25 24  2  0  0  0  0
 26 22  2  0  0  0  0
 26 27  1  0  0  0  0
 27 23  2  0  0  0  0
M  END
>  <MODEL>
4

>  <REMARK>
 VINA RESULT:     -10.2      3.553      7.585
  Name = 
  1 active torsions:
  status: ('A' for Active; 'I' for Inactive)
    1  A    between atoms: C_9  and  C_15
                            x       y       z     vdW  Elec       q    Type
                         _______ _______ _______ _____ _____    ______ ____

>  <TORSDO>
F 1

$$$$
=
 OpenBabel10262420083D

 27 31  0  0  1  0  0  0  0  0999 V2000
  189.7200  176.6330  142.0680 N   0  0  0  0  0  2  0  0  0  0  0  0
  188.0830  177.9080  143.4840 C   0  0  1  0  0  3  0  0  0  0  0  0
  187.7490  178.6350  141.1480 N   0  0  0  0  0  2  0  0  0  0  0  0
  183.9800  178.4030  144.2150 C   0  0  0  0  0  3  0  0  0  0  0  0
  181.8290  179.2800  143.5660 O   0  0  0  0  0  1  0  0  0  0  0  0
  187.4440  177.0320  144.5640 C   0  0  0  0  0  2  0  0  0  0  0  0
  184.9210  178.8080  141.6090 C   0  0  0  0  0  3  0  0  0  0  0  0
  189.7000  177.9750  138.0550 C   0  0  0  0  0  0  0  0  0  0  0  0
  183.6040  179.1400  141.9380 C   0  0  0  0  0  3  0  0  0  0  0  0
  189.7450  178.4270  136.7780 F   0  0  0  0  0  0  0  0  0  0  0  0
  185.7820  178.2910  142.5870 C   0  0  0  0  0  0  0  0  0  0  0  0
  189.5540  177.5730  143.1730 C   0  0  1  0  0  3  0  0  0  0  0  0
  183.1360  178.9430  143.2400 C   0  0  0  0  0  0  0  0  0  0  0  0
  185.2970  178.0640  143.8910 C   0  0  0  0  0  0  0  0  0  0  0  0
  189.6230  177.0490  140.7010 C   0  0  0  0  0  0  0  0  0  0  0  0
  187.1850  177.8580  142.2440 C   0  0  2  0  0  3  0  0  0  0  0  0
  188.8240  178.5610  138.9700 C   0  0  0  0  0  3  0  0  0  0  0  0
  186.1370  177.5220  144.8730 O   0  0  0  0  0  0  0  0  0  0  0  0
  190.5110  176.9080  138.4460 C   0  0  0  0  0  3  0  0  0  0  0  0
  190.4740  176.4510  139.7650 C   0  0  0  0  0  3  0  0  0  0  0  0
  188.7620  178.0980  140.2890 C   0  0  0  0  0  0  0  0  0  0  0  0
  191.8400  176.4750  146.6030 N   0  0  0  0  0  0  0  0  0  0  0  0
  190.3780  177.1870  144.3670 C   0  0  0  0  0  0  0  0  0  0  0  0
  190.1520  177.8260  145.5880 C   0  0  0  0  0  3  0  0  0  0  0  0
  190.9020  177.4540  146.7050 C   0  0  0  0  0  3  0  0  0  0  0  0
  192.0730  175.8340  145.4260 C   0  0  0  0  0  3  0  0  0  0  0  0
  191.3440  176.1760  144.2850 C   0  0  0  0  0  3  0  0  0  0  0  0
  1 12  1  0  0  0  0
  2  6  1  1  0  0  0
  6 18  1  0  0  0  0
  7  9  2  0  0  0  0
  7 11  1  0  0  0  0
  8 19  2  0  0  0  0
  8 17  1  0  0  0  0
  9 13  1  0  0  0  0
 10  8  1  0  0  0  0
 11 14  2  0  0  0  0
 12  2  1  0  0  0  0
 12 23  1  1  0  0  0
 13  5  1  0  0  0  0
 13  4  2  0  0  0  0
 14  4  1  0  0  0  0
 14 18  1  0  0  0  0
 15  1  1  0  0  0  0
 16  3  1  6  0  0  0
 16 11  1  0  0  0  0
 16  2  1  0  0  0  0
 17 21  2  0  0  0  0
 19 20  1  0  0  0  0
 20 15  2  0  0  0  0
 21 15  1  0  0  0  0
 21  3  1  0  0  0  0
 22 25  1  0  0  0  0
 23 24  1  0  0  0  0
 24 25  2  0  0  0  0
 26 22  2  0  0  0  0
 27 23  2  0  0  0  0
 27 26  1  0  0  0  0
M  END
>  <MODEL>
5

>  <REMARK>
 VINA RESULT:     -10.0      2.029      5.877
  Name = 
  1 active torsions:
  status: ('A' for Active; 'I' for Inactive)
    1  A    between atoms: C_9  and  C_15
                            x       y       z     vdW  Elec       q    Type
                         _______ _______ _______ _____ _____    ______ ____

>  <TORSDO>
F 1

$$$$
=
 OpenBabel10262420083D

 27 31  0  0  1  0  0  0  0  0999 V2000
  188.9360  178.1650  146.0740 N   0  0  0  0  0  2  0  0  0  0  0  0
  190.0080  176.9720  144.1400 C   0  0  1  0  0  3  0  0  0  0  0  0
  187.6290  177.3010  143.5660 N   0  0  0  0  0  2  0  0  0  0  0  0
  191.0360  177.4240  140.0960 C   0  0  0  0  0  3  0  0  0  0  0  0
  190.4000  177.5030  137.7710 O   0  0  0  0  0  1  0  0  0  0  0  0
  191.4000  177.5210  143.8190 C   0  0  0  0  0  2  0  0  0  0  0  0
  188.3570  177.7760  140.8310 C   0  0  0  0  0  3  0  0  0  0  0  0
  184.7450  178.4890  145.5860 C   0  0  0  0  0  0  0  0  0  0  0  0
  188.7130  177.7330  139.4800 C   0  0  0  0  0  3  0  0  0  0  0  0
  183.3970  178.5570  145.4720 F   0  0  0  0  0  0  0  0  0  0  0  0
  189.3360  177.6230  141.8220 C   0  0  0  0  0  0  0  0  0  0  0  0
  189.6510  176.9680  145.6380 C   0  0  1  0  0  3  0  0  0  0  0  0
  190.0490  177.5520  139.1130 C   0  0  0  0  0  0  0  0  0  0  0  0
  190.6870  177.4720  141.4480 C   0  0  0  0  0  0  0  0  0  0  0  0
  187.5340  178.3370  145.8340 C   0  0  0  0  0  0  0  0  0  0  0  0
  188.9910  177.7350  143.2860 C   0  0  2  0  0  3  0  0  0  0  0  0
  185.4990  177.8780  144.5830 C   0  0  0  0  0  3  0  0  0  0  0  0
  191.6810  177.3430  142.4280 O   0  0  0  0  0  0  0  0  0  0  0  0
  185.3800  179.0550  146.6930 C   0  0  0  0  0  3  0  0  0  0  0  0
  186.7690  178.9740  146.8170 C   0  0  0  0  0  3  0  0  0  0  0  0
  186.8930  177.8090  144.6850 C   0  0  0  0  0  0  0  0  0  0  0  0
  192.8410  176.0030  148.3000 N   0  0  0  0  0  0  0  0  0  0  0  0
  190.7870  176.6270  146.5560 C   0  0  0  0  0  0  0  0  0  0  0  0
  190.9760  177.3780  147.7180 C   0  0  0  0  0  3  0  0  0  0  0  0
  192.0200  177.0490  148.5860 C   0  0  0  0  0  3  0  0  0  0  0  0
  192.6730  175.2530  147.1780 C   0  0  0  0  0  3  0  0  0  0  0  0
  191.6400  175.5490  146.2850 C   0  0  0  0  0  3  0  0  0  0  0  0
  2  6  1  1  0  0  0
  2 12  1  0  0  0  0
  3 21  1  0  0  0  0
  4 14  1  0  0  0  0
  5 13  1  0  0  0  0
  7 11  1  0  0  0  0
  8 19  1  0  0  0  0
  9  7  2  0  0  0  0
 10  8  1  0  0  0  0
 12  1  1  0  0  0  0
 12 23  1  1  0  0  0
 13  9  1  0  0  0  0
 13  4  2  0  0  0  0
 14 11  2  0  0  0  0
 14 18  1  0  0  0  0
 15  1  1  0  0  0  0
 15 20  1  0  0  0  0
 16 11  1  6  0  0  0
 16  3  1  0  0  0  0
 16  2  1  0  0  0  0
 17 21  1  0  0  0  0
 17  8  2  0  0  0  0
 18  6  1  0  0  0  0
 19 20  2  0  0  0  0
 21 15  2  0  0  0  0
 22 25  1  0  0  0  0
 23 24  1  0  0  0  0
 24 25  2  0  0  0  0
 26 22  2  0  0  0  0
 27 23  2  0  0  0  0
 27 26  1  0  0  0  0
M  END
>  <MODEL>
6

>  <REMARK>
 VINA RESULT:      -9.7      3.424      7.139
  Name = 
  1 active torsions:
  status: ('A' for Active; 'I' for Inactive)
    1  A    between atoms: C_9  and  C_15
                            x       y       z     vdW  Elec       q    Type
                         _______ _______ _______ _____ _____    ______ ____

>  <TORSDO>
F 1

$$$$
=
 OpenBabel10262420083D

 27 31  0  0  1  0  0  0  0  0999 V2000
  189.9880  177.9660  142.4370 N   0  0  0  0  0  2  0  0  0  0  0  0
  187.6030  177.5780  141.7510 C   0  0  1  0  0  3  0  0  0  0  0  0
  187.7430  177.1440  144.1770 N   0  0  0  0  0  2  0  0  0  0  0  0
  183.7050  179.0520  142.2500 C   0  0  0  0  0  3  0  0  0  0  0  0
  181.7170  179.3020  143.5940 O   0  0  0  0  0  1  0  0  0  0  0  0
  187.1080  178.6280  140.7530 C   0  0  0  0  0  2  0  0  0  0  0  0
  185.1440  178.3090  144.5340 C   0  0  0  0  0  3  0  0  0  0  0  0
  190.6550  176.8770  146.4720 C   0  0  0  0  0  0  0  0  0  0  0  0
  183.7870  178.6270  144.6340 C   0  0  0  0  0  3  0  0  0  0  0  0
  190.8990  176.4860  147.7450 F   0  0  0  0  0  0  0  0  0  0  0  0
  185.7850  178.3400  143.2880 C   0  0  0  0  0  0  0  0  0  0  0  0
  189.0850  177.1900  141.5910 C   0  0  1  0  0  3  0  0  0  0  0  0
  183.0670  178.9930  143.4930 C   0  0  0  0  0  0  0  0  0  0  0  0
  185.0630  178.7400  142.1440 C   0  0  0  0  0  0  0  0  0  0  0  0
  190.1570  177.6740  143.8300 C   0  0  0  0  0  0  0  0  0  0  0  0
  187.2630  178.0710  143.1600 C   0  0  2  0  0  3  0  0  0  0  0  0
  189.3710  176.7520  145.9390 C   0  0  0  0  0  3  0  0  0  0  0  0
  185.6960  178.8020  140.8950 O   0  0  0  0  0  0  0  0  0  0  0  0
  191.6800  177.4310  145.7030 C   0  0  0  0  0  3  0  0  0  0  0  0
  191.4320  177.8220  144.3860 C   0  0  0  0  0  3  0  0  0  0  0  0
  189.1030  177.1610  144.6280 C   0  0  0  0  0  0  0  0  0  0  0  0
  190.4980  176.9330  137.5750 N   0  0  0  0  0  0  0  0  0  0  0  0
  189.5680  177.1180  140.1730 C   0  0  0  0  0  0  0  0  0  0  0  0
  190.9370  177.0040  139.9210 C   0  0  0  0  0  3  0  0  0  0  0  0
  191.3870  176.9130  138.6030 C   0  0  0  0  0  3  0  0  0  0  0  0
  189.1590  177.0360  137.7940 C   0  0  0  0  0  3  0  0  0  0  0  0
  188.6680  177.1280  139.0980 C   0  0  0  0  0  3  0  0  0  0  0  0
  1 15  1  0  0  0  0
  2  6  1  6  0  0  0
  2 16  1  0  0  0  0
  3 21  1  0  0  0  0
  4 13  1  0  0  0  0
  6 18  1  0  0  0  0
  7  9  1  0  0  0  0
  8 10  1  0  0  0  0
 11  7  2  0  0  0  0
 12 23  1  6  0  0  0
 12  2  1  0  0  0  0
 12  1  1  0  0  0  0
 13  5  1  0  0  0  0
 13  9  2  0  0  0  0
 14  4  2  0  0  0  0
 14 11  1  0  0  0  0
 15 20  2  0  0  0  0
 15 21  1  0  0  0  0
 16 11  1  6  0  0  0
 16  3  1  0  0  0  0
 17  8  1  0  0  0  0
 18 14  1  0  0  0  0
 19  8  2  0  0  0  0
 20 19  1  0  0  0  0
 21 17  2  0  0  0  0
 22 26  2  0  0  0  0
 22 25  1  0  0  0  0
 24 23  1  0  0  0  0
 25 24  2  0  0  0  0
 26 27  1  0  0  0  0
 27 23  2  0  0  0  0
M  END
>  <MODEL>
7

>  <REMARK>
 VINA RESULT:      -9.6      3.346      6.837
  Name = 
  1 active torsions:
  status: ('A' for Active; 'I' for Inactive)
    1  A    between atoms: C_9  and  C_15
                            x       y       z     vdW  Elec       q    Type
                         _______ _______ _______ _____ _____    ______ ____

>  <TORSDO>
F 1

$$$$
=
 OpenBabel10262420083D

 27 31  0  0  1  0  0  0  0  0999 V2000
  187.1830  177.3920  142.0780 N   0  0  0  0  0  2  0  0  0  0  0  0
  189.5090  177.5730  143.0100 C   0  0  1  0  0  3  0  0  0  0  0  0
  187.9560  178.3380  144.7700 N   0  0  0  0  0  2  0  0  0  0  0  0
  192.0550  176.0040  145.9540 C   0  0  0  0  0  3  0  0  0  0  0  0
  192.7430  175.8480  148.2610 O   0  0  0  0  0  1  0  0  0  0  0  0
  190.3820  176.3760  142.6280 C   0  0  0  0  0  2  0  0  0  0  0  0
  189.6170  177.1140  146.7660 C   0  0  0  0  0  3  0  0  0  0  0  0
  184.3080  179.0470  144.7050 C   0  0  0  0  0  0  0  0  0  0  0  0
  190.5730  176.7510  147.7180 C   0  0  0  0  0  3  0  0  0  0  0  0
  183.3800  179.6190  145.5090 F   0  0  0  0  0  0  0  0  0  0  0  0
  189.8830  176.9440  145.4000 C   0  0  0  0  0  0  0  0  0  0  0  0
  188.5010  178.0030  141.9280 C   0  0  1  0  0  3  0  0  0  0  0  0
  191.7930  176.2020  147.3130 C   0  0  0  0  0  0  0  0  0  0  0  0
  191.1020  176.3600  144.9970 C   0  0  0  0  0  0  0  0  0  0  0  0
  186.2280  177.8780  143.0300 C   0  0  0  0  0  0  0  0  0  0  0  0
  188.8450  177.2610  144.3550 C   0  0  2  0  0  3  0  0  0  0  0  0
  185.6510  179.0400  145.0870 C   0  0  0  0  0  3  0  0  0  0  0  0
  191.3720  176.1580  143.6370 O   0  0  0  0  0  0  0  0  0  0  0  0
  183.9170  178.4420  143.5090 C   0  0  0  0  0  3  0  0  0  0  0  0
  184.8750  177.8650  142.6740 C   0  0  0  0  0  3  0  0  0  0  0  0
  186.6180  178.4450  144.2690 C   0  0  0  0  0  0  0  0  0  0  0  0
  189.9190  177.7840  137.9110 N   0  0  0  0  0  0  0  0  0  0  0  0
  189.0080  177.9050  140.5200 C   0  0  0  0  0  0  0  0  0  0  0  0
  188.1640  178.2530  139.4630 C   0  0  0  0  0  3  0  0  0  0  0  0
  188.6420  178.1830  138.1530 C   0  0  0  0  0  3  0  0  0  0  0  0
  190.7620  177.4460  138.9240 C   0  0  0  0  0  3  0  0  0  0  0  0
  190.3230  177.5030  140.2490 C   0  0  0  0  0  3  0  0  0  0  0  0
  1 15  1  0  0  0  0
  2  6  1  6  0  0  0
  2 16  1  0  0  0  0
  4 13  1  0  0  0  0
  6 18  1  0  0  0  0
  7  9  1  0  0  0  0
  8 17  1  0  0  0  0
  8 10  1  0  0  0  0
 11  7  2  0  0  0  0
 12 23  1  6  0  0  0
 12  1  1  0  0  0  0
 12  2  1  0  0  0  0
 13  9  2  0  0  0  0
 13  5  1  0  0  0  0
 14 11  1  0  0  0  0
 14  4  2  0  0  0  0
 15 21  1  0  0  0  0
 16  3  1  1  0  0  0
 16 11  1  0  0  0  0
 18 14  1  0  0  0  0
 19  8  2  0  0  0  0
 20 15  2  0  0  0  0
 20 19  1  0  0  0  0
 21  3  1  0  0  0  0
 21 17  2  0  0  0  0
 22 25  2  0  0  0  0
 22 26  1  0  0  0  0
 24 23  2  0  0  0  0
 25 24  1  0  0  0  0
 26 27  2  0  0  0  0
 27 23  1  0  0  0  0
M  END
>  <MODEL>
8

>  <REMARK>
 VINA RESULT:      -9.4      2.662      5.221
  Name = 
  1 active torsions:
  status: ('A' for Active; 'I' for Inactive)
    1  A    between atoms: C_9  and  C_15
                            x       y       z     vdW  Elec       q    Type
                         _______ _______ _______ _____ _____    ______ ____

>  <TORSDO>
F 1

$$$$
=
 OpenBabel10262420083D

 27 31  0  0  1  0  0  0  0  0999 V2000
  188.0480  178.2840  145.1420 N   0  0  0  0  0  2  0  0  0  0  0  0
  189.1170  177.2070  143.1400 C   0  0  1  0  0  3  0  0  0  0  0  0
  186.7280  177.5270  142.6070 N   0  0  0  0  0  2  0  0  0  0  0  0
  190.0950  177.8790  139.1140 C   0  0  0  0  0  3  0  0  0  0  0  0
  189.4330  178.0650  136.8020 O   0  0  0  0  0  1  0  0  0  0  0  0
  190.4970  177.7940  142.8330 C   0  0  0  0  0  2  0  0  0  0  0  0
  187.4190  178.1520  139.8920 C   0  0  0  0  0  3  0  0  0  0  0  0
  183.8470  178.5680  144.7130 C   0  0  0  0  0  0  0  0  0  0  0  0
  187.7620  178.1830  138.5370 C   0  0  0  0  0  3  0  0  0  0  0  0
  182.4970  178.6200  144.6160 F   0  0  0  0  0  0  0  0  0  0  0  0
  188.4100  177.9640  140.8650 C   0  0  0  0  0  0  0  0  0  0  0  0
  188.7760  177.1220  144.6390 C   0  0  1  0  0  3  0  0  0  0  0  0
  189.0960  178.0410  138.1480 C   0  0  0  0  0  0  0  0  0  0  0  0
  189.7600  177.8530  140.4700 C   0  0  0  0  0  0  0  0  0  0  0  0
  186.6410  178.4470  144.9250 C   0  0  0  0  0  0  0  0  0  0  0  0
  188.0800  177.9970  142.3360 C   0  0  2  0  0  3  0  0  0  0  0  0
  184.6000  178.0190  143.6730 C   0  0  0  0  0  3  0  0  0  0  0  0
  190.7650  177.6910  141.4330 O   0  0  0  0  0  0  0  0  0  0  0  0
  184.4860  179.0870  145.8400 C   0  0  0  0  0  3  0  0  0  0  0  0
  185.8770  179.0210  145.9470 C   0  0  0  0  0  3  0  0  0  0  0  0
  185.9950  177.9670  143.7570 C   0  0  0  0  0  0  0  0  0  0  0  0
  192.0060  176.0520  147.2110 N   0  0  0  0  0  0  0  0  0  0  0  0
  189.9270  176.7530  145.5280 C   0  0  0  0  0  0  0  0  0  0  0  0
  189.8970  177.1210  146.8750 C   0  0  0  0  0  3  0  0  0  0  0  0
  190.9570  176.7600  147.7080 C   0  0  0  0  0  3  0  0  0  0  0  0
  192.0550  175.6760  145.9050 C   0  0  0  0  0  3  0  0  0  0  0  0
  191.0140  176.0170  145.0380 C   0  0  0  0  0  3  0  0  0  0  0  0
  2  6  1  1  0  0  0
  2 12  1  0  0  0  0
  3 21  1  0  0  0  0
  4 14  1  0  0  0  0
  5 13  1  0  0  0  0
  7 11  1  0  0  0  0
  8 19  1  0  0  0  0
  9  7  2  0  0  0  0
 10  8  1  0  0  0  0
 12  1  1  0  0  0  0
 12 23  1  1  0  0  0
 13  9  1  0  0  0  0
 13  4  2  0  0  0  0
 14 11  2  0  0  0  0
 14 18  1  0  0  0  0
 15  1  1  0  0  0  0
 15 20  1  0  0  0  0
 16 11  1  6  0  0  0
 16  3  1  0  0  0  0
 16  2  1  0  0  0  0
 17 21  1  0  0  0  0
 17  8  2  0  0  0  0
 18  6  1  0  0  0  0
 19 20  2  0  0  0  0
 21 15  2  0  0  0  0
 22 25  1  0  0  0  0
 23 24  1  0  0  0  0
 24 25  2  0  0  0  0
 26 22  2  0  0  0  0
 27 23  2  0  0  0  0
 27 26  1  0  0  0  0
M  END
>  <MODEL>
9

>  <REMARK>
 VINA RESULT:      -9.4      3.370      7.081
  Name = 
  1 active torsions:
  status: ('A' for Active; 'I' for Inactive)
    1  A    between atoms: C_9  and  C_15
                            x       y       z     vdW  Elec       q    Type
                         _______ _______ _______ _____ _____    ______ ____

>  <TORSDO>
F 1

$$$$
