=
 OpenBabel10262419513D

 25 27  0  0  1  0  0  0  0  0999 V2000
  188.3370  176.9470  142.6470 C   0  0  2  0  0  3  0  0  0  0  0  0
  186.7530  178.5490  141.5220 C   0  0  0  0  0  0  0  0  0  0  0  0
  185.4770  179.3100  141.5530 C   0  0  0  0  0  1  0  0  0  0  0  0
  189.1740  177.1280  141.4110 C   0  0  0  0  0  3  0  0  0  0  0  0
  187.4620  178.5190  140.4350 N   0  0  0  0  0  0  0  0  0  0  0  0
  188.7260  177.8420  140.3740 C   0  0  0  0  0  0  0  0  0  0  0  0
  187.2210  177.8900  142.7020 N   0  0  0  0  0  2  0  0  0  0  0  0
  189.1590  177.0500  143.8520 N   0  0  0  0  0  0  0  0  0  0  0  0
  188.6140  177.3060  145.1360 C   0  0  0  0  0  0  0  0  0  0  0  0
  187.7850  177.7920  147.7200 C   0  0  0  0  0  3  0  0  0  0  0  0
  189.5460  177.4370  146.1330 C   0  0  0  0  0  0  0  0  0  0  0  0
  189.1560  177.6810  147.4490 C   0  0  0  0  0  3  0  0  0  0  0  0
  186.8710  177.6620  146.7140 N   0  0  0  0  0  0  0  0  0  0  0  0
  190.6190  176.9180  143.8640 C   0  0  1  0  0  3  0  0  0  0  0  0
  191.2270  177.2720  145.5720 S   0  0  0  0  0  0  0  0  0  0  0  0
  187.2530  177.4210  145.4280 C   0  0  0  0  0  3  0  0  0  0  0  0
  191.0280  175.5110  143.4560 C   0  0  0  0  0  2  0  0  0  0  0  0
  192.0540  174.9600  144.4260 C   0  0  0  0  0  1  0  0  0  0  0  0
  189.5580  177.9490  139.1460 C   0  0  0  0  0  2  0  0  0  0  0  0
  190.9230  177.3140  139.3840 C   0  0  0  0  0  2  0  0  0  0  0  0
  191.3740  176.4550  138.2040 C   0  0  2  0  0  3  0  0  0  0  0  0
  190.6270  175.2070  138.1800 N   0  0  0  0  0  1  0  0  0  0  0  0
  192.8800  176.1850  138.2300 C   0  0  2  0  0  3  0  0  0  0  0  0
  193.5140  177.0750  139.1000 O   0  0  0  0  0  1  0  0  0  0  0  0
  193.4750  176.3500  136.8430 C   0  0  0  0  0  1  0  0  0  0  0  0
  1  4  1  6  0  0  0
  1  7  1  0  0  0  0
  1  8  1  0  0  0  0
  2  3  1  0  0  0  0
  2  7  1  0  0  0  0
  5  2  2  0  0  0  0
  6  5  1  0  0  0  0
  6  4  2  0  0  0  0
  8 14  1  0  0  0  0
  8  9  1  0  0  0  0
  9 16  2  0  0  0  0
  9 11  1  0  0  0  0
 11 12  2  0  0  0  0
 12 10  1  0  0  0  0
 13 10  2  0  0  0  0
 14 17  1  1  0  0  0
 14 15  1  0  0  0  0
 15 11  1  0  0  0  0
 16 13  1  0  0  0  0
 17 18  1  0  0  0  0
 19 20  1  0  0  0  0
 19  6  1  0  0  0  0
 21 22  1  1  0  0  0
 21 23  1  0  0  0  0
 21 20  1  0  0  0  0
 23 25  1  6  0  0  0
 23 24  1  0  0  0  0
M  END
>  <MODEL>
1

>  <REMARK>
 VINA RESULT:      -7.6      0.000      0.000
  Name = 
  6 active torsions:
  status: ('A' for Active; 'I' for Inactive)
    1  A    between atoms: N_1  and  C_3
    2  A    between atoms: C_2  and  C_21
    3  A    between atoms: C_4  and  C_18
    4  A    between atoms: C_6  and  C_15
    5  A    between atoms: C_6  and  C_23
    6  A    between atoms: C_15  and  C_21
                            x       y       z     vdW  Elec       q    Type
                         _______ _______ _______ _____ _____    ______ ____

>  <TORSDO>
F 6

$$$$
=
 OpenBabel10262419513D

 25 27  0  0  1  0  0  0  0  0999 V2000
  188.3290  176.9740  142.8320 C   0  0  2  0  0  3  0  0  0  0  0  0
  186.6920  178.5930  141.8090 C   0  0  0  0  0  0  0  0  0  0  0  0
  185.4110  179.3400  141.9070 C   0  0  0  0  0  1  0  0  0  0  0  0
  189.1190  177.1990  141.5720 C   0  0  0  0  0  3  0  0  0  0  0  0
  187.3620  178.6000  140.6970 N   0  0  0  0  0  0  0  0  0  0  0  0
  188.6290  177.9370  140.5720 C   0  0  0  0  0  0  0  0  0  0  0  0
  187.2070  177.9050  142.9520 N   0  0  0  0  0  2  0  0  0  0  0  0
  189.1930  177.0530  144.0090 N   0  0  0  0  0  0  0  0  0  0  0  0
  188.6940  177.2900  145.3150 C   0  0  0  0  0  0  0  0  0  0  0  0
  187.9580  177.7350  147.9340 C   0  0  0  0  0  3  0  0  0  0  0  0
  189.6610  177.3970  146.2810 C   0  0  0  0  0  0  0  0  0  0  0  0
  189.3180  177.6210  147.6140 C   0  0  0  0  0  3  0  0  0  0  0  0
  187.0090  177.6270  146.9590 N   0  0  0  0  0  0  0  0  0  0  0  0
  190.6510  176.9110  143.9680 C   0  0  1  0  0  3  0  0  0  0  0  0
  191.3200  177.2320  145.6600 S   0  0  0  0  0  0  0  0  0  0  0  0
  187.3450  177.4070  145.6560 C   0  0  0  0  0  3  0  0  0  0  0  0
  191.0370  175.5100  143.5230 C   0  0  0  0  0  2  0  0  0  0  0  0
  192.0800  174.9300  144.4560 C   0  0  0  0  0  1  0  0  0  0  0  0
  189.4150  178.0860  139.3190 C   0  0  0  0  0  2  0  0  0  0  0  0
  188.7780  177.2650  138.2040 C   0  0  0  0  0  2  0  0  0  0  0  0
  188.3010  178.1390  137.0450 C   0  0  2  0  0  3  0  0  0  0  0  0
  188.7190  179.5170  137.2520 N   0  0  0  0  0  1  0  0  0  0  0  0
  186.7860  178.0570  136.8460 C   0  0  2  0  0  3  0  0  0  0  0  0
  186.1350  178.8770  137.7690 O   0  0  0  0  0  1  0  0  0  0  0  0
  186.3010  176.6300  137.0320 C   0  0  0  0  0  1  0  0  0  0  0  0
  1  4  1  6  0  0  0
  1  7  1  0  0  0  0
  1  8  1  0  0  0  0
  2  3  1  0  0  0  0
  2  7  1  0  0  0  0
  5  2  2  0  0  0  0
  6  5  1  0  0  0  0
  6  4  2  0  0  0  0
  8  9  1  0  0  0  0
  9 16  2  0  0  0  0
  9 11  1  0  0  0  0
 11 12  2  0  0  0  0
 12 10  1  0  0  0  0
 13 10  2  0  0  0  0
 14 17  1  1  0  0  0
 14  8  1  0  0  0  0
 14 15  1  0  0  0  0
 15 11  1  0  0  0  0
 16 13  1  0  0  0  0
 17 18  1  0  0  0  0
 19  6  1  0  0  0  0
 20 19  1  0  0  0  0
 21 22  1  1  0  0  0
 21 20  1  0  0  0  0
 23 25  1  1  0  0  0
 23 21  1  0  0  0  0
 23 24  1  0  0  0  0
M  END
>  <MODEL>
2

>  <REMARK>
 VINA RESULT:      -7.5      2.327      2.809
  Name = 
  6 active torsions:
  status: ('A' for Active; 'I' for Inactive)
    1  A    between atoms: N_1  and  C_3
    2  A    between atoms: C_2  and  C_21
    3  A    between atoms: C_4  and  C_18
    4  A    between atoms: C_6  and  C_15
    5  A    between atoms: C_6  and  C_23
    6  A    between atoms: C_15  and  C_21
                            x       y       z     vdW  Elec       q    Type
                         _______ _______ _______ _____ _____    ______ ____

>  <TORSDO>
F 6

$$$$
=
 OpenBabel10262419513D

 25 27  0  0  1  0  0  0  0  0999 V2000
  187.2690  178.8890  141.0960 C   0  0  2  0  0  3  0  0  0  0  0  0
  185.0470  178.6740  139.9280 C   0  0  0  0  0  0  0  0  0  0  0  0
  184.2680  178.6820  138.6630 C   0  0  0  0  0  1  0  0  0  0  0  0
  186.4720  178.6540  142.3490 C   0  0  0  0  0  3  0  0  0  0  0  0
  184.4280  178.6370  141.0690 N   0  0  0  0  0  0  0  0  0  0  0  0
  185.1380  178.5740  142.3150 C   0  0  0  0  0  0  0  0  0  0  0  0
  186.4760  178.6610  139.8870 N   0  0  0  0  0  2  0  0  0  0  0  0
  188.4760  178.0650  141.0840 N   0  0  0  0  0  0  0  0  0  0  0  0
  189.1710  177.7350  139.8920 C   0  0  0  0  0  0  0  0  0  0  0  0
  190.6830  176.9690  137.7180 C   0  0  0  0  0  3  0  0  0  0  0  0
  190.2410  176.8970  140.0720 C   0  0  0  0  0  0  0  0  0  0  0  0
  191.0240  176.4940  138.9920 C   0  0  0  0  0  3  0  0  0  0  0  0
  189.6120  177.8010  137.5570 N   0  0  0  0  0  0  0  0  0  0  0  0
  189.0850  177.4830  142.2830 C   0  0  1  0  0  3  0  0  0  0  0  0
  190.4930  176.4050  141.7640 S   0  0  0  0  0  0  0  0  0  0  0  0
  188.8480  178.1960  138.6140 C   0  0  0  0  0  3  0  0  0  0  0  0
  189.5940  178.5810  143.2050 C   0  0  0  0  0  2  0  0  0  0  0  0
  190.3850  177.9800  144.3500 C   0  0  0  0  0  1  0  0  0  0  0  0
  184.3830  178.4010  143.5840 C   0  0  0  0  0  2  0  0  0  0  0  0
  185.0180  179.2390  144.6870 C   0  0  0  0  0  2  0  0  0  0  0  0
  185.4560  178.3890  145.8780 C   0  0  2  0  0  3  0  0  0  0  0  0
  185.1690  179.0870  147.1220 N   0  0  0  0  0  1  0  0  0  0  0  0
  186.9360  178.0060  145.8010 C   0  0  2  0  0  3  0  0  0  0  0  0
  187.0840  176.7990  145.1160 O   0  0  0  0  0  1  0  0  0  0  0  0
  187.5190  177.8530  147.1950 C   0  0  0  0  0  1  0  0  0  0  0  0
  1  8  1  6  0  0  0
  1  4  1  0  0  0  0
  2  5  2  0  0  0  0
  3  2  1  0  0  0  0
  5  6  1  0  0  0  0
  6  4  2  0  0  0  0
  6 19  1  0  0  0  0
  7  2  1  0  0  0  0
  7  1  1  0  0  0  0
  8 14  1  0  0  0  0
  9 11  1  0  0  0  0
  9  8  1  0  0  0  0
 10 12  1  0  0  0  0
 11 15  1  0  0  0  0
 12 11  2  0  0  0  0
 13 10  2  0  0  0  0
 13 16  1  0  0  0  0
 14 17  1  1  0  0  0
 15 14  1  0  0  0  0
 16  9  2  0  0  0  0
 17 18  1  0  0  0  0
 19 20  1  0  0  0  0
 20 21  1  0  0  0  0
 21 22  1  1  0  0  0
 23 21  1  0  0  0  0
 23 25  1  1  0  0  0
 24 23  1  0  0  0  0
M  END
>  <MODEL>
3

>  <REMARK>
 VINA RESULT:      -7.4      2.631      6.839
  Name = 
  6 active torsions:
  status: ('A' for Active; 'I' for Inactive)
    1  A    between atoms: N_1  and  C_3
    2  A    between atoms: C_2  and  C_21
    3  A    between atoms: C_4  and  C_18
    4  A    between atoms: C_6  and  C_15
    5  A    between atoms: C_6  and  C_23
    6  A    between atoms: C_15  and  C_21
                            x       y       z     vdW  Elec       q    Type
                         _______ _______ _______ _____ _____    ______ ____

>  <TORSDO>
F 6

$$$$
=
 OpenBabel10262419513D

 25 27  0  0  1  0  0  0  0  0999 V2000
  187.4690  177.2650  143.0670 C   0  0  2  0  0  3  0  0  0  0  0  0
  188.7130  178.0540  141.0240 C   0  0  0  0  0  0  0  0  0  0  0  0
  188.6810  178.4930  139.6050 C   0  0  0  0  0  1  0  0  0  0  0  0
  188.8300  177.2270  143.7060 C   0  0  0  0  0  3  0  0  0  0  0  0
  189.8520  177.8390  141.6090 N   0  0  0  0  0  0  0  0  0  0  0  0
  189.9340  177.4660  142.9930 C   0  0  0  0  0  0  0  0  0  0  0  0
  187.4930  177.9150  141.7570 N   0  0  0  0  0  2  0  0  0  0  0  0
  186.4990  177.9160  143.9470 N   0  0  0  0  0  0  0  0  0  0  0  0
  185.1910  178.2660  143.5250 C   0  0  0  0  0  0  0  0  0  0  0  0
  182.6100  179.0330  142.9340 C   0  0  0  0  0  3  0  0  0  0  0  0
  184.4490  178.9290  144.4680 C   0  0  0  0  0  0  0  0  0  0  0  0
  183.1410  179.3280  144.1980 C   0  0  0  0  0  3  0  0  0  0  0  0
  183.3650  178.3740  142.0070 N   0  0  0  0  0  0  0  0  0  0  0  0
  186.7720  178.2870  145.3390 C   0  0  1  0  0  3  0  0  0  0  0  0
  185.3140  179.2110  145.9970 S   0  0  0  0  0  0  0  0  0  0  0  0
  184.6430  177.9830  142.2730 C   0  0  0  0  0  3  0  0  0  0  0  0
  187.0140  177.0440  146.1810 C   0  0  0  0  0  2  0  0  0  0  0  0
  187.9130  177.3730  147.3560 C   0  0  0  0  0  1  0  0  0  0  0  0
  191.2650  177.3590  143.6480 C   0  0  0  0  0  2  0  0  0  0  0  0
  191.1060  177.4130  145.1620 C   0  0  0  0  0  2  0  0  0  0  0  0
  191.9990  176.3980  145.8730 C   0  0  2  0  0  3  0  0  0  0  0  0
  191.9740  175.1270  145.1640 N   0  0  0  0  0  1  0  0  0  0  0  0
  191.6040  176.2080  147.3390 C   0  0  2  0  0  3  0  0  0  0  0  0
  191.3420  177.4450  147.9300 O   0  0  0  0  0  1  0  0  0  0  0  0
  192.7210  175.5250  148.1080 C   0  0  0  0  0  1  0  0  0  0  0  0
  1  4  1  1  0  0  0
  1  8  1  0  0  0  0
  2  5  2  0  0  0  0
  2  7  1  0  0  0  0
  3  2  1  0  0  0  0
  5  6  1  0  0  0  0
  6 19  1  0  0  0  0
  6  4  2  0  0  0  0
  7  1  1  0  0  0  0
  8 14  1  0  0  0  0
  9  8  1  0  0  0  0
  9 11  1  0  0  0  0
 10 12  1  0  0  0  0
 11 15  1  0  0  0  0
 12 11  2  0  0  0  0
 13 16  1  0  0  0  0
 13 10  2  0  0  0  0
 14 15  1  0  0  0  0
 14 17  1  1  0  0  0
 16  9  2  0  0  0  0
 17 18  1  0  0  0  0
 19 20  1  0  0  0  0
 20 21  1  0  0  0  0
 21 22  1  6  0  0  0
 21 23  1  0  0  0  0
 23 24  1  0  0  0  0
 23 25  1  1  0  0  0
M  END
>  <MODEL>
4

>  <REMARK>
 VINA RESULT:      -7.4      3.261      5.751
  Name = 
  6 active torsions:
  status: ('A' for Active; 'I' for Inactive)
    1  A    between atoms: N_1  and  C_3
    2  A    between atoms: C_2  and  C_21
    3  A    between atoms: C_4  and  C_18
    4  A    between atoms: C_6  and  C_15
    5  A    between atoms: C_6  and  C_23
    6  A    between atoms: C_15  and  C_21
                            x       y       z     vdW  Elec       q    Type
                         _______ _______ _______ _____ _____    ______ ____

>  <TORSDO>
F 6

$$$$
=
 OpenBabel10262419513D

 25 27  0  0  1  0  0  0  0  0999 V2000
  188.6110  178.4480  140.8560 C   0  0  2  0  0  3  0  0  0  0  0  0
  186.1500  178.5910  141.3720 C   0  0  0  0  0  0  0  0  0  0  0  0
  184.7840  178.9990  140.9540 C   0  0  0  0  0  1  0  0  0  0  0  0
  188.7130  177.8060  142.2120 C   0  0  0  0  0  3  0  0  0  0  0  0
  186.3590  178.1760  142.5840 N   0  0  0  0  0  0  0  0  0  0  0  0
  187.6500  177.7220  143.0170 C   0  0  0  0  0  0  0  0  0  0  0  0
  187.2230  178.6130  140.4260 N   0  0  0  0  0  2  0  0  0  0  0  0
  189.3710  177.6900  139.8630 N   0  0  0  0  0  0  0  0  0  0  0  0
  189.1190  177.7760  138.4700 C   0  0  0  0  0  0  0  0  0  0  0  0
  188.8130  177.7820  135.7300 C   0  0  0  0  0  3  0  0  0  0  0  0
  189.8860  176.9400  137.7010 C   0  0  0  0  0  0  0  0  0  0  0  0
  189.7540  176.9230  136.3130 C   0  0  0  0  0  3  0  0  0  0  0  0
  188.0550  178.6060  136.5120 N   0  0  0  0  0  0  0  0  0  0  0  0
  190.4540  176.7580  140.1930 C   0  0  1  0  0  3  0  0  0  0  0  0
  191.0100  175.9280  138.6390 S   0  0  0  0  0  0  0  0  0  0  0  0
  188.1860  178.6230  137.8690 C   0  0  0  0  0  3  0  0  0  0  0  0
  191.6210  177.5020  140.8220 C   0  0  0  0  0  2  0  0  0  0  0  0
  192.8490  177.3940  139.9410 C   0  0  0  0  0  1  0  0  0  0  0  0
  187.8050  177.1350  144.3740 C   0  0  0  0  0  2  0  0  0  0  0  0
  188.9080  177.8620  145.1340 C   0  0  0  0  0  2  0  0  0  0  0  0
  189.6740  176.9300  146.0720 C   0  0  2  0  0  3  0  0  0  0  0  0
  189.5590  177.3990  147.4450 N   0  0  0  0  0  1  0  0  0  0  0  0
  191.1430  176.7860  145.6700 C   0  0  2  0  0  3  0  0  0  0  0  0
  191.9640  176.9230  146.7910 O   0  0  0  0  0  1  0  0  0  0  0  0
  191.5230  177.8470  144.6530 C   0  0  0  0  0  1  0  0  0  0  0  0
  1  8  1  6  0  0  0
  1  4  1  0  0  0  0
  2  5  2  0  0  0  0
  3  2  1  0  0  0  0
  4  6  2  0  0  0  0
  5  6  1  0  0  0  0
  6 19  1  0  0  0  0
  7  1  1  0  0  0  0
  7  2  1  0  0  0  0
  8 14  1  0  0  0  0
  9  8  1  0  0  0  0
 10 12  2  0  0  0  0
 10 13  1  0  0  0  0
 11  9  2  0  0  0  0
 11 15  1  0  0  0  0
 12 11  1  0  0  0  0
 13 16  2  0  0  0  0
 14 17  1  6  0  0  0
 15 14  1  0  0  0  0
 16  9  1  0  0  0  0
 18 17  1  0  0  0  0
 19 20  1  0  0  0  0
 20 21  1  0  0  0  0
 21 22  1  1  0  0  0
 23 25  1  6  0  0  0
 23 21  1  0  0  0  0
 23 24  1  0  0  0  0
M  END
>  <MODEL>
5

>  <REMARK>
 VINA RESULT:      -7.3      2.774      6.664
  Name = 
  6 active torsions:
  status: ('A' for Active; 'I' for Inactive)
    1  A    between atoms: N_1  and  C_3
    2  A    between atoms: C_2  and  C_21
    3  A    between atoms: C_4  and  C_18
    4  A    between atoms: C_6  and  C_15
    5  A    between atoms: C_6  and  C_23
    6  A    between atoms: C_15  and  C_21
                            x       y       z     vdW  Elec       q    Type
                         _______ _______ _______ _____ _____    ______ ____

>  <TORSDO>
F 6

$$$$
=
 OpenBabel10262419513D

 25 27  0  0  1  0  0  0  0  0999 V2000
  188.1090  176.8940  144.6720 C   0  0  2  0  0  3  0  0  0  0  0  0
  187.8630  177.6090  147.0750 C   0  0  0  0  0  0  0  0  0  0  0  0
  188.2970  177.4840  148.4910 C   0  0  0  0  0  1  0  0  0  0  0  0
  187.0030  177.8800  144.4150 C   0  0  0  0  0  3  0  0  0  0  0  0
  186.8140  178.3140  146.7800 N   0  0  0  0  0  0  0  0  0  0  0  0
  186.3890  178.5070  145.4230 C   0  0  0  0  0  0  0  0  0  0  0  0
  188.6280  176.9910  146.0370 N   0  0  0  0  0  2  0  0  0  0  0  0
  189.1870  177.0550  143.6980 N   0  0  0  0  0  0  0  0  0  0  0  0
  188.9590  177.4610  142.3580 C   0  0  0  0  0  0  0  0  0  0  0  0
  188.7610  178.2350  139.7200 C   0  0  0  0  0  3  0  0  0  0  0  0
  190.0830  177.4890  141.5750 C   0  0  0  0  0  0  0  0  0  0  0  0
  190.0140  177.8780  140.2370 C   0  0  0  0  0  3  0  0  0  0  0  0
  187.6510  178.1980  140.5140 N   0  0  0  0  0  0  0  0  0  0  0  0
  190.6010  176.8030  143.9890 C   0  0  1  0  0  3  0  0  0  0  0  0
  191.5650  176.9900  142.4240 S   0  0  0  0  0  0  0  0  0  0  0  0
  187.7210  177.8200  141.8220 C   0  0  0  0  0  3  0  0  0  0  0  0
  191.1130  177.7890  145.0270 C   0  0  0  0  0  2  0  0  0  0  0  0
  191.6640  179.0270  144.3480 C   0  0  0  0  0  1  0  0  0  0  0  0
  185.2600  179.4300  145.1310 C   0  0  0  0  0  2  0  0  0  0  0  0
  184.0200  178.6310  144.7460 C   0  0  0  0  0  2  0  0  0  0  0  0
  183.3410  179.1860  143.4950 C   0  0  2  0  0  3  0  0  0  0  0  0
  181.9060  178.9510  143.5600 N   0  0  0  0  0  1  0  0  0  0  0  0
  183.9290  178.5980  142.2100 C   0  0  2  0  0  3  0  0  0  0  0  0
  184.7860  179.5210  141.6080 O   0  0  0  0  0  1  0  0  0  0  0  0
  182.8220  178.2460  141.2320 C   0  0  0  0  0  1  0  0  0  0  0  0
  1  8  1  6  0  0  0
  1  7  1  0  0  0  0
  2  3  1  0  0  0  0
  4  1  1  0  0  0  0
  4  6  2  0  0  0  0
  5  2  2  0  0  0  0
  6  5  1  0  0  0  0
  7  2  1  0  0  0  0
  8 14  1  0  0  0  0
  9  8  1  0  0  0  0
 10 12  2  0  0  0  0
 10 13  1  0  0  0  0
 11  9  2  0  0  0  0
 11 15  1  0  0  0  0
 12 11  1  0  0  0  0
 13 16  2  0  0  0  0
 14 17  1  1  0  0  0
 15 14  1  0  0  0  0
 16  9  1  0  0  0  0
 18 17  1  0  0  0  0
 19  6  1  0  0  0  0
 20 19  1  0  0  0  0
 21 22  1  1  0  0  0
 21 20  1  0  0  0  0
 23 25  1  6  0  0  0
 23 21  1  0  0  0  0
 24 23  1  0  0  0  0
M  END
>  <MODEL>
6

>  <REMARK>
 VINA RESULT:      -7.2      2.845      6.667
  Name = 
  6 active torsions:
  status: ('A' for Active; 'I' for Inactive)
    1  A    between atoms: N_1  and  C_3
    2  A    between atoms: C_2  and  C_21
    3  A    between atoms: C_4  and  C_18
    4  A    between atoms: C_6  and  C_15
    5  A    between atoms: C_6  and  C_23
    6  A    between atoms: C_15  and  C_21
                            x       y       z     vdW  Elec       q    Type
                         _______ _______ _______ _____ _____    ______ ____

>  <TORSDO>
F 6

$$$$
=
 OpenBabel10262419513D

 25 27  0  0  1  0  0  0  0  0999 V2000
  187.2600  177.1390  144.2150 C   0  0  2  0  0  3  0  0  0  0  0  0
  185.5010  178.2640  145.6250 C   0  0  0  0  0  0  0  0  0  0  0  0
  184.8950  178.4880  146.9630 C   0  0  0  0  0  1  0  0  0  0  0  0
  186.6070  177.8690  143.0730 C   0  0  0  0  0  3  0  0  0  0  0  0
  184.9140  178.7230  144.5630 N   0  0  0  0  0  0  0  0  0  0  0  0
  185.4880  178.5770  143.2560 C   0  0  0  0  0  0  0  0  0  0  0  0
  186.7540  177.5830  145.5140 N   0  0  0  0  0  2  0  0  0  0  0  0
  188.7140  177.2740  144.1550 N   0  0  0  0  0  0  0  0  0  0  0  0
  189.5540  177.0670  145.2800 C   0  0  0  0  0  0  0  0  0  0  0  0
  191.3760  176.7140  147.3170 C   0  0  0  0  0  3  0  0  0  0  0  0
  190.8830  177.3040  145.0470 C   0  0  0  0  0  0  0  0  0  0  0  0
  191.8280  177.1330  146.0580 C   0  0  0  0  0  3  0  0  0  0  0  0
  190.0480  176.4840  147.5310 N   0  0  0  0  0  0  0  0  0  0  0  0
  189.4560  177.6460  142.9470 C   0  0  1  0  0  3  0  0  0  0  0  0
  191.2400  177.8370  143.3860 S   0  0  0  0  0  0  0  0  0  0  0  0
  189.1250  176.6500  146.5420 C   0  0  0  0  0  3  0  0  0  0  0  0
  189.3030  176.5740  141.8790 C   0  0  0  0  0  2  0  0  0  0  0  0
  190.3020  176.8000  140.7610 C   0  0  0  0  0  1  0  0  0  0  0  0
  184.8400  179.2340  142.0900 C   0  0  0  0  0  2  0  0  0  0  0  0
  183.5950  178.4580  141.6800 C   0  0  0  0  0  2  0  0  0  0  0  0
  183.3780  178.4720  140.1680 C   0  0  2  0  0  3  0  0  0  0  0  0
  183.1060  177.1260  139.6890 N   0  0  0  0  0  1  0  0  0  0  0  0
  184.5650  179.0840  139.4200 C   0  0  2  0  0  3  0  0  0  0  0  0
  184.2310  180.3530  138.9440 O   0  0  0  0  0  1  0  0  0  0  0  0
  184.9610  178.2090  138.2440 C   0  0  0  0  0  1  0  0  0  0  0  0
  1  4  1  6  0  0  0
  1  7  1  0  0  0  0
  2  3  1  0  0  0  0
  4  6  2  0  0  0  0
  5  2  2  0  0  0  0
  6  5  1  0  0  0  0
  7  2  1  0  0  0  0
  8  1  1  0  0  0  0
  8  9  1  0  0  0  0
  9 16  1  0  0  0  0
 10 13  1  0  0  0  0
 11  9  2  0  0  0  0
 11 12  1  0  0  0  0
 12 10  2  0  0  0  0
 14 17  1  6  0  0  0
 14 15  1  0  0  0  0
 14  8  1  0  0  0  0
 15 11  1  0  0  0  0
 16 13  2  0  0  0  0
 18 17  1  0  0  0  0
 19  6  1  0  0  0  0
 20 19  1  0  0  0  0
 21 22  1  6  0  0  0
 21 20  1  0  0  0  0
 23 25  1  6  0  0  0
 23 21  1  0  0  0  0
 24 23  1  0  0  0  0
M  END
>  <MODEL>
7

>  <REMARK>
 VINA RESULT:      -7.2      3.206      5.193
  Name = 
  6 active torsions:
  status: ('A' for Active; 'I' for Inactive)
    1  A    between atoms: N_1  and  C_3
    2  A    between atoms: C_2  and  C_21
    3  A    between atoms: C_4  and  C_18
    4  A    between atoms: C_6  and  C_15
    5  A    between atoms: C_6  and  C_23
    6  A    between atoms: C_15  and  C_21
                            x       y       z     vdW  Elec       q    Type
                         _______ _______ _______ _____ _____    ______ ____

>  <TORSDO>
F 6

$$$$
=
 OpenBabel10262419513D

 25 27  0  0  1  0  0  0  0  0999 V2000
  187.1790  177.0860  143.1630 C   0  0  2  0  0  3  0  0  0  0  0  0
  185.6180  178.4990  141.7810 C   0  0  0  0  0  0  0  0  0  0  0  0
  184.2470  179.0200  141.5440 C   0  0  0  0  0  1  0  0  0  0  0  0
  188.2270  177.5370  142.1830 C   0  0  0  0  0  3  0  0  0  0  0  0
  186.5500  178.7060  140.9020 N   0  0  0  0  0  0  0  0  0  0  0  0
  187.9010  178.2670  141.1120 C   0  0  0  0  0  0  0  0  0  0  0  0
  185.9200  177.8110  142.9980 N   0  0  0  0  0  2  0  0  0  0  0  0
  187.6660  177.2030  144.5370 N   0  0  0  0  0  0  0  0  0  0  0  0
  189.0360  177.0710  144.8820 C   0  0  0  0  0  0  0  0  0  0  0  0
  191.6300  176.8570  145.7880 C   0  0  0  0  0  3  0  0  0  0  0  0
  189.2920  177.1450  146.2270 C   0  0  0  0  0  0  0  0  0  0  0  0
  190.5940  177.0410  146.7140 C   0  0  0  0  0  3  0  0  0  0  0  0
  191.3560  176.7830  144.4520 N   0  0  0  0  0  0  0  0  0  0  0  0
  186.8040  177.4530  145.6950 C   0  0  1  0  0  3  0  0  0  0  0  0
  187.8360  177.3710  147.2250 S   0  0  0  0  0  0  0  0  0  0  0  0
  190.0830  176.8870  143.9770 C   0  0  0  0  0  3  0  0  0  0  0  0
  186.1540  178.8240  145.5880 C   0  0  0  0  0  2  0  0  0  0  0  0
  184.7270  178.7700  146.0950 C   0  0  0  0  0  1  0  0  0  0  0  0
  188.9570  178.6440  140.1350 C   0  0  0  0  0  2  0  0  0  0  0  0
  189.0280  177.6070  139.0200 C   0  0  0  0  0  2  0  0  0  0  0  0
  188.8270  178.2290  137.6400 C   0  0  2  0  0  3  0  0  0  0  0  0
  188.9920  179.6730  137.7130 N   0  0  0  0  0  1  0  0  0  0  0  0
  187.4670  177.8690  137.0370 C   0  0  2  0  0  3  0  0  0  0  0  0
  186.4760  178.7060  137.5530 O   0  0  0  0  0  1  0  0  0  0  0  0
  187.1070  176.4290  137.3570 C   0  0  0  0  0  1  0  0  0  0  0  0
  1  4  1  6  0  0  0
  1  8  1  0  0  0  0
  2  7  1  0  0  0  0
  3  2  1  0  0  0  0
  5  6  1  0  0  0  0
  5  2  2  0  0  0  0
  6  4  2  0  0  0  0
  7  1  1  0  0  0  0
  8  9  1  0  0  0  0
  8 14  1  0  0  0  0
  9 11  1  0  0  0  0
 10 12  1  0  0  0  0
 11 12  2  0  0  0  0
 11 15  1  0  0  0  0
 13 10  2  0  0  0  0
 14 17  1  6  0  0  0
 14 15  1  0  0  0  0
 16 13  1  0  0  0  0
 16  9  2  0  0  0  0
 17 18  1  0  0  0  0
 19  6  1  0  0  0  0
 20 19  1  0  0  0  0
 21 22  1  1  0  0  0
 21 20  1  0  0  0  0
 23 25  1  1  0  0  0
 23 24  1  0  0  0  0
 23 21  1  0  0  0  0
M  END
>  <MODEL>
8

>  <REMARK>
 VINA RESULT:      -7.1      2.678      3.912
  Name = 
  6 active torsions:
  status: ('A' for Active; 'I' for Inactive)
    1  A    between atoms: N_1  and  C_3
    2  A    between atoms: C_2  and  C_21
    3  A    between atoms: C_4  and  C_18
    4  A    between atoms: C_6  and  C_15
    5  A    between atoms: C_6  and  C_23
    6  A    between atoms: C_15  and  C_21
                            x       y       z     vdW  Elec       q    Type
                         _______ _______ _______ _____ _____    ______ ____

>  <TORSDO>
F 6

$$$$
=
 OpenBabel10262419513D

 25 27  0  0  1  0  0  0  0  0999 V2000
  187.0750  177.3180  143.6990 C   0  0  2  0  0  3  0  0  0  0  0  0
  185.0580  178.8040  143.4320 C   0  0  0  0  0  0  0  0  0  0  0  0
  183.8380  179.4120  144.0230 C   0  0  0  0  0  1  0  0  0  0  0  0
  187.3520  177.6760  142.2650 C   0  0  0  0  0  3  0  0  0  0  0  0
  185.2920  178.9270  142.1610 N   0  0  0  0  0  0  0  0  0  0  0  0
  186.4830  178.4030  141.5550 C   0  0  0  0  0  0  0  0  0  0  0  0
  185.9960  178.1240  144.2700 N   0  0  0  0  0  2  0  0  0  0  0  0
  188.2880  177.4340  144.5070 N   0  0  0  0  0  0  0  0  0  0  0  0
  188.2620  177.6010  145.9150 C   0  0  0  0  0  0  0  0  0  0  0  0
  188.4580  177.9280  148.6450 C   0  0  0  0  0  3  0  0  0  0  0  0
  189.4960  177.7590  146.4910 C   0  0  0  0  0  0  0  0  0  0  0  0
  189.6260  177.9250  147.8700 C   0  0  0  0  0  3  0  0  0  0  0  0
  187.2380  177.7730  148.0540 N   0  0  0  0  0  0  0  0  0  0  0  0
  189.6470  177.4040  143.9580 C   0  0  1  0  0  3  0  0  0  0  0  0
  190.8420  177.7340  145.3280 S   0  0  0  0  0  0  0  0  0  0  0  0
  187.1120  177.6090  146.7070 C   0  0  0  0  0  3  0  0  0  0  0  0
  189.9400  176.0460  143.3390 C   0  0  0  0  0  2  0  0  0  0  0  0
  191.3710  175.6360  143.6240 C   0  0  0  0  0  1  0  0  0  0  0  0
  186.7650  178.6850  140.1220 C   0  0  0  0  0  2  0  0  0  0  0  0
  188.2140  178.3440  139.7990 C   0  0  0  0  0  2  0  0  0  0  0  0
  188.3450  177.5420  138.5060 C   0  0  2  0  0  3  0  0  0  0  0  0
  189.4060  176.5550  138.6350 N   0  0  0  0  0  1  0  0  0  0  0  0
  188.5860  178.4410  137.2910 C   0  0  2  0  0  3  0  0  0  0  0  0
  188.9540  179.7220  137.7060 O   0  0  0  0  0  1  0  0  0  0  0  0
  187.3290  178.5420  136.4450 C   0  0  0  0  0  1  0  0  0  0  0  0
  1  4  1  6  0  0  0
  1  7  1  0  0  0  0
  1  8  1  0  0  0  0
  2  3  1  0  0  0  0
  2  7  1  0  0  0  0
  5  2  2  0  0  0  0
  6  5  1  0  0  0  0
  6  4  2  0  0  0  0
  8  9  1  0  0  0  0
  9 11  2  0  0  0  0
  9 16  1  0  0  0  0
 11 12  1  0  0  0  0
 12 10  2  0  0  0  0
 13 10  1  0  0  0  0
 14 17  1  1  0  0  0
 14  8  1  0  0  0  0
 14 15  1  0  0  0  0
 15 11  1  0  0  0  0
 16 13  2  0  0  0  0
 17 18  1  0  0  0  0
 19  6  1  0  0  0  0
 20 19  1  0  0  0  0
 21 22  1  1  0  0  0
 21 20  1  0  0  0  0
 23 25  1  1  0  0  0
 23 24  1  0  0  0  0
 23 21  1  0  0  0  0
M  END
>  <MODEL>
9

>  <REMARK>
 VINA RESULT:      -7.1      2.329      2.701
  Name = 
  6 active torsions:
  status: ('A' for Active; 'I' for Inactive)
    1  A    between atoms: N_1  and  C_3
    2  A    between atoms: C_2  and  C_21
    3  A    between atoms: C_4  and  C_18
    4  A    between atoms: C_6  and  C_15
    5  A    between atoms: C_6  and  C_23
    6  A    between atoms: C_15  and  C_21
                            x       y       z     vdW  Elec       q    Type
                         _______ _______ _______ _____ _____    ______ ____

>  <TORSDO>
F 6

$$$$
