=
 OpenBabel10262421233D

 32 38  0  0  1  0  0  0  0  0999 V2000
  187.0200  177.2650  137.0460 C   0  0  0  0  0  3  0  0  0  0  0  0
  187.6550  178.0100  142.2790 C   0  0  0  0  0  0  0  0  0  0  0  0
  183.0550  179.0760  143.5260 C   0  0  0  0  0  3  0  0  0  0  0  0
  183.3860  178.9430  144.8730 C   0  0  0  0  0  3  0  0  0  0  0  0
  189.3790  177.5340  144.1170 C   0  0  0  0  0  0  0  0  0  0  0  0
  189.5870  177.4180  145.5580 C   0  0  0  0  0  0  0  0  0  0  0  0
  188.3380  178.2870  139.8530 C   0  0  2  0  0  3  0  0  0  0  0  0
  185.9600  178.5690  140.4550 C   0  0  0  0  0  2  0  0  0  0  0  0
  188.9850  177.4710  147.7870 C   0  0  0  0  0  0  0  0  0  0  0  0
  186.5770  178.2860  138.0640 C   0  0  0  0  0  2  0  0  0  0  0  0
  184.0270  178.8760  142.5460 C   0  0  0  0  0  3  0  0  0  0  0  0
  186.3240  178.3330  141.9070 C   0  0  0  0  0  0  0  0  0  0  0  0
  185.3470  178.5390  142.8970 C   0  0  0  0  0  0  0  0  0  0  0  0
  186.9890  178.0800  144.6460 C   0  0  0  0  0  0  0  0  0  0  0  0
  190.4380  177.1270  147.7180 C   0  0  0  0  0  2  0  0  0  0  0  0
  189.0930  176.4790  138.2570 C   0  0  0  0  0  2  0  0  0  0  0  0
  186.9090  177.8800  139.4910 C   0  0  1  0  0  3  0  0  0  0  0  0
  190.7010  177.1280  146.2260 C   0  0  0  0  0  3  0  0  0  0  0  0
  189.3790  177.8690  138.8100 C   0  0  0  0  0  2  0  0  0  0  0  0
  188.1290  176.4950  137.0900 C   0  0  0  0  0  0  0  0  0  0  0  0
  184.6910  178.6090  145.2410 C   0  0  0  0  0  3  0  0  0  0  0  0
  185.6800  178.4060  144.2650 C   0  0  0  0  0  0  0  0  0  0  0  0
  187.2990  177.9470  146.0540 N   0  0  0  0  0  0  0  0  0  0  0  0
  188.6810  177.6930  141.2110 C   0  0  0  0  0  2  0  0  0  0  0  0
  190.3430  177.3570  143.3240 O   0  0  0  0  0  0  0  0  0  0  0  0
  188.3070  177.5900  148.8410 O   0  0  0  0  0  0  0  0  0  0  0  0
  187.9950  177.8780  143.6520 C   0  0  0  0  0  0  0  0  0  0  0  0
  188.4960  177.6420  146.4470 C   0  0  0  0  0  0  0  0  0  0  0  0
  188.2150  174.1570  136.2150 C   0  0  0  0  0  0  0  0  0  0  0  0
  188.4510  175.6390  135.8930 C   0  0  1  0  0  3  0  0  0  0  0  0
  188.5290  173.1080  136.7510 O   0  0  0  0  0  0  0  0  0  0  0  0
  187.2760  175.0070  135.3670 C   0  0  0  0  0  2  0  0  0  0  0  0
  1 20  2  0  0  0  0
  1 10  1  0  0  0  0
  2 27  1  0  0  0  0
  3  4  1  0  0  0  0
  4 21  2  0  0  0  0
  5  6  1  0  0  0  0
  6 18  2  0  0  0  0
  6 28  1  0  0  0  0
  7 19  1  6  0  0  0
  7 24  1  0  0  0  0
  8 12  1  0  0  0  0
  9 26  2  0  0  0  0
 11 13  1  0  0  0  0
 11  3  2  0  0  0  0
 12  2  2  0  0  0  0
 12 13  1  0  0  0  0
 13 22  2  0  0  0  0
 14 23  1  0  0  0  0
 15  9  1  0  0  0  0
 16 19  1  0  0  0  0
 17 10  1  6  0  0  0
 17  7  1  0  0  0  0
 17  8  1  0  0  0  0
 18 15  1  0  0  0  0
 20 16  1  0  0  0  0
 22 14  1  0  0  0  0
 22 21  1  0  0  0  0
 23 28  2  0  0  0  0
 24  2  1  0  0  0  0
 25  5  2  0  0  0  0
 27  5  1  0  0  0  0
 27 14  2  0  0  0  0
 28  9  1  0  0  0  0
 29 31  2  0  0  0  0
 30 29  1  0  0  0  0
 30 20  1  1  0  0  0
 32 30  1  0  0  0  0
 32 29  1  0  0  0  0
M  END
>  <MODEL>
1

>  <REMARK>
 VINA RESULT:     -11.5      0.000      0.000
  Name = 
  1 active torsions:
  status: ('A' for Active; 'I' for Inactive)
    1  A    between atoms: C_10  and  C_24
                            x       y       z     vdW  Elec       q    Type
                         _______ _______ _______ _____ _____    ______ ____

>  <TORSDO>
F 1

$$$$
=
 OpenBabel10262421233D

 32 38  0  0  1  0  0  0  0  0999 V2000
  180.5560  178.2820  141.8290 C   0  0  0  0  0  3  0  0  0  0  0  0
  185.8590  178.3660  142.2880 C   0  0  0  0  0  0  0  0  0  0  0  0
  186.2710  178.0820  147.1470 C   0  0  0  0  0  3  0  0  0  0  0  0
  187.6370  177.8330  147.0190 C   0  0  0  0  0  3  0  0  0  0  0  0
  187.9440  178.0530  140.8280 C   0  0  0  0  0  0  0  0  0  0  0  0
  189.3780  177.7760  140.8380 C   0  0  0  0  0  0  0  0  0  0  0  0
  183.6580  179.1610  141.3130 C   0  0  2  0  0  3  0  0  0  0  0  0
  183.8020  178.7630  143.7460 C   0  0  0  0  0  2  0  0  0  0  0  0
  191.4370  177.3460  141.7920 C   0  0  0  0  0  0  0  0  0  0  0  0
  181.5650  179.0000  142.6890 C   0  0  0  0  0  2  0  0  0  0  0  0
  185.4890  178.2740  146.0080 C   0  0  0  0  0  3  0  0  0  0  0  0
  185.2660  178.4080  143.5770 C   0  0  0  0  0  0  0  0  0  0  0  0
  186.0580  178.2190  144.7240 C   0  0  0  0  0  0  0  0  0  0  0  0
  188.0420  177.9150  143.3310 C   0  0  0  0  0  0  0  0  0  0  0  0
  191.6230  177.3800  140.3090 C   0  0  0  0  0  2  0  0  0  0  0  0
  182.0670  177.8510  139.8510 C   0  0  0  0  0  2  0  0  0  0  0  0
  182.9800  178.4780  142.5010 C   0  0  1  0  0  3  0  0  0  0  0  0
  190.2200  177.6680  139.8130 C   0  0  0  0  0  3  0  0  0  0  0  0
  182.8050  179.1700  140.0410 C   0  0  0  0  0  2  0  0  0  0  0  0
  180.7400  177.8080  140.5770 C   0  0  0  0  0  0  0  0  0  0  0  0
  188.2200  177.7750  145.7520 C   0  0  0  0  0  3  0  0  0  0  0  0
  187.4440  177.9670  144.5980 C   0  0  0  0  0  0  0  0  0  0  0  0
  189.4620  177.6530  143.2330 N   0  0  0  0  0  0  0  0  0  0  0  0
  184.9890  178.4710  141.0540 C   0  0  0  0  0  2  0  0  0  0  0  0
  187.3440  178.2360  139.7350 O   0  0  0  0  0  0  0  0  0  0  0  0
  192.3420  177.1370  142.6420 O   0  0  0  0  0  0  0  0  0  0  0  0
  187.2510  178.1160  142.1570 C   0  0  0  0  0  0  0  0  0  0  0  0
  190.0510  177.5920  142.0810 C   0  0  0  0  0  0  0  0  0  0  0  0
  179.8210  175.7980  139.4120 C   0  0  0  0  0  0  0  0  0  0  0  0
  179.5500  177.2450  139.8460 C   0  0  1  0  0  3  0  0  0  0  0  0
  180.3550  174.9720  138.6910 O   0  0  0  0  0  0  0  0  0  0  0  0
  178.9310  176.1840  140.5860 C   0  0  0  0  0  2  0  0  0  0  0  0
  1 10  1  0  0  0  0
  2 12  1  0  0  0  0
  4  3  1  0  0  0  0
  5  6  1  0  0  0  0
  5 27  1  0  0  0  0
  6 28  1  0  0  0  0
  7 19  1  6  0  0  0
  7 17  1  0  0  0  0
  9 28  1  0  0  0  0
  9 26  2  0  0  0  0
 11  3  2  0  0  0  0
 12  8  1  0  0  0  0
 12 13  2  0  0  0  0
 13 11  1  0  0  0  0
 14 22  2  0  0  0  0
 15  9  1  0  0  0  0
 16 19  1  0  0  0  0
 16 20  1  0  0  0  0
 17 10  1  1  0  0  0
 17  8  1  0  0  0  0
 18 15  1  0  0  0  0
 18  6  2  0  0  0  0
 20  1  2  0  0  0  0
 21  4  2  0  0  0  0
 22 13  1  0  0  0  0
 22 21  1  0  0  0  0
 23 14  1  0  0  0  0
 24  7  1  0  0  0  0
 24  2  1  0  0  0  0
 25  5  2  0  0  0  0
 27  2  2  0  0  0  0
 27 14  1  0  0  0  0
 28 23  2  0  0  0  0
 29 30  1  0  0  0  0
 29 32  1  0  0  0  0
 30 20  1  1  0  0  0
 30 32  1  0  0  0  0
 31 29  2  0  0  0  0
M  END
>  <MODEL>
2

>  <REMARK>
 VINA RESULT:     -11.0      3.058      5.858
  Name = 
  1 active torsions:
  status: ('A' for Active; 'I' for Inactive)
    1  A    between atoms: C_10  and  C_24
                            x       y       z     vdW  Elec       q    Type
                         _______ _______ _______ _____ _____    ______ ____

>  <TORSDO>
F 1

$$$$
=
 OpenBabel10262421233D

 32 38  0  0  1  0  0  0  0  0999 V2000
  189.4450  176.4770  136.5290 C   0  0  0  0  0  3  0  0  0  0  0  0
  189.3040  177.4580  141.7600 C   0  0  0  0  0  0  0  0  0  0  0  0
  184.6650  178.9200  142.2010 C   0  0  0  0  0  3  0  0  0  0  0  0
  184.7680  178.8370  143.5880 C   0  0  0  0  0  3  0  0  0  0  0  0
  190.6730  176.9600  143.8710 C   0  0  0  0  0  0  0  0  0  0  0  0
  190.6400  176.9080  145.3300 C   0  0  0  0  0  0  0  0  0  0  0  0
  190.3810  177.5530  139.4670 C   0  0  2  0  0  3  0  0  0  0  0  0
  187.9680  178.0380  139.6640 C   0  0  0  0  0  2  0  0  0  0  0  0
  189.7000  177.1250  147.4290 C   0  0  0  0  0  0  0  0  0  0  0  0
  188.9310  177.5810  137.4180 C   0  0  0  0  0  2  0  0  0  0  0  0
  185.7610  178.5970  141.4000 C   0  0  0  0  0  3  0  0  0  0  0  0
  188.0790  177.8560  141.1640 C   0  0  0  0  0  0  0  0  0  0  0  0
  186.9770  178.1860  141.9740 C   0  0  0  0  0  0  0  0  0  0  0  0
  188.2800  177.7050  143.9830 C   0  0  0  0  0  0  0  0  0  0  0  0
  191.1140  176.6740  147.6100 C   0  0  0  0  0  2  0  0  0  0  0  0
  191.2310  175.6100  138.0910 C   0  0  0  0  0  2  0  0  0  0  0  0
  189.0000  177.2300  138.8960 C   0  0  1  0  0  3  0  0  0  0  0  0
  191.6080  176.5750  146.1800 C   0  0  0  0  0  3  0  0  0  0  0  0
  191.5370  177.0040  138.6240 C   0  0  0  0  0  2  0  0  0  0  0  0
  190.4690  175.6330  136.7840 C   0  0  0  0  0  0  0  0  0  0  0  0
  185.9670  178.4310  144.1760 C   0  0  0  0  0  3  0  0  0  0  0  0
  187.0780  178.1030  143.3820 C   0  0  0  0  0  0  0  0  0  0  0  0
  188.3530  177.6270  145.4270 N   0  0  0  0  0  0  0  0  0  0  0  0
  190.4570  177.0100  140.8860 C   0  0  0  0  0  2  0  0  0  0  0  0
  191.7320  176.6700  143.2530 O   0  0  0  0  0  0  0  0  0  0  0  0
  188.8750  177.3510  148.3530 O   0  0  0  0  0  0  0  0  0  0  0  0
  189.4110  177.3770  143.1740 C   0  0  0  0  0  0  0  0  0  0  0  0
  189.4440  177.2580  146.0210 C   0  0  0  0  0  0  0  0  0  0  0  0
  192.3190  175.0460  135.2120 C   0  0  0  0  0  0  0  0  0  0  0  0
  190.9060  174.6910  135.6920 C   0  0  1  0  0  3  0  0  0  0  0  0
  193.1030  175.7470  134.5940 O   0  0  0  0  0  0  0  0  0  0  0  0
  191.9970  173.8630  136.1170 C   0  0  0  0  0  2  0  0  0  0  0  0
  1 20  2  0  0  0  0
  1 10  1  0  0  0  0
  2 27  1  0  0  0  0
  3  4  1  0  0  0  0
  4 21  2  0  0  0  0
  5  6  1  0  0  0  0
  6 28  1  0  0  0  0
  6 18  2  0  0  0  0
  7 19  1  6  0  0  0
  7 24  1  0  0  0  0
  8 12  1  0  0  0  0
  9 15  1  0  0  0  0
  9 26  2  0  0  0  0
 11 13  1  0  0  0  0
 11  3  2  0  0  0  0
 12  2  2  0  0  0  0
 12 13  1  0  0  0  0
 13 22  2  0  0  0  0
 14 23  1  0  0  0  0
 16 19  1  0  0  0  0
 17 10  1  6  0  0  0
 17  7  1  0  0  0  0
 17  8  1  0  0  0  0
 18 15  1  0  0  0  0
 20 16  1  0  0  0  0
 22 14  1  0  0  0  0
 22 21  1  0  0  0  0
 23 28  2  0  0  0  0
 24  2  1  0  0  0  0
 25  5  2  0  0  0  0
 27  5  1  0  0  0  0
 27 14  2  0  0  0  0
 28  9  1  0  0  0  0
 29 30  1  0  0  0  0
 29 32  1  0  0  0  0
 30 32  1  0  0  0  0
 30 20  1  1  0  0  0
 31 29  2  0  0  0  0
M  END
>  <MODEL>
3

>  <REMARK>
 VINA RESULT:     -10.9      1.866      2.350
  Name = 
  1 active torsions:
  status: ('A' for Active; 'I' for Inactive)
    1  A    between atoms: C_10  and  C_24
                            x       y       z     vdW  Elec       q    Type
                         _______ _______ _______ _____ _____    ______ ____

>  <TORSDO>
F 1

$$$$
=
 OpenBabel10262421233D

 32 38  0  0  1  0  0  0  0  0999 V2000
  183.2420  178.7910  145.0610 C   0  0  0  0  0  3  0  0  0  0  0  0
  187.7180  178.0330  142.2800 C   0  0  0  0  0  0  0  0  0  0  0  0
  190.6850  176.5700  145.8730 C   0  0  0  0  0  3  0  0  0  0  0  0
  191.6330  176.1710  144.9320 C   0  0  0  0  0  3  0  0  0  0  0  0
  188.4770  177.7860  139.8420 C   0  0  0  0  0  0  0  0  0  0  0  0
  189.5490  177.3200  138.9670 C   0  0  0  0  0  0  0  0  0  0  0  0
  185.6290  179.3300  142.8990 C   0  0  2  0  0  3  0  0  0  0  0  0
  187.0010  178.3590  144.7080 C   0  0  0  0  0  2  0  0  0  0  0  0
  191.6040  176.3990  138.4550 C   0  0  0  0  0  0  0  0  0  0  0  0
  184.7000  179.1420  145.2230 C   0  0  0  0  0  2  0  0  0  0  0  0
  189.4770  177.1280  145.4530 C   0  0  0  0  0  3  0  0  0  0  0  0
  187.9780  177.8550  143.6640 C   0  0  0  0  0  0  0  0  0  0  0  0
  189.1980  177.2960  144.0850 C   0  0  0  0  0  0  0  0  0  0  0  0
  189.9160  177.0560  141.7630 C   0  0  0  0  0  0  0  0  0  0  0  0
  190.9330  176.7530  137.1670 C   0  0  0  0  0  2  0  0  0  0  0  0
  183.2280  178.6290  142.5400 C   0  0  0  0  0  2  0  0  0  0  0  0
  185.5850  178.4890  144.1750 C   0  0  1  0  0  3  0  0  0  0  0  0
  189.6170  177.3400  137.6380 C   0  0  0  0  0  3  0  0  0  0  0  0
  184.2460  179.7530  142.3940 C   0  0  0  0  0  2  0  0  0  0  0  0
  182.5710  178.6010  143.9030 C   0  0  0  0  0  0  0  0  0  0  0  0
  191.3730  176.3320  143.5700 C   0  0  0  0  0  3  0  0  0  0  0  0
  190.1620  176.8930  143.1330 C   0  0  0  0  0  0  0  0  0  0  0  0
  190.9210  176.6310  140.8120 N   0  0  0  0  0  0  0  0  0  0  0  0
  186.3670  178.5430  141.8260 C   0  0  0  0  0  2  0  0  0  0  0  0
  187.4370  178.3000  139.3480 O   0  0  0  0  0  0  0  0  0  0  0  0
  192.7430  175.8760  138.5710 O   0  0  0  0  0  0  0  0  0  0  0  0
  188.6850  177.6320  141.3200 C   0  0  0  0  0  0  0  0  0  0  0  0
  190.7300  176.7600  139.5360 C   0  0  0  0  0  0  0  0  0  0  0  0
  180.3500  179.5150  143.2190 C   0  0  0  0  0  0  0  0  0  0  0  0
  181.0810  178.3940  143.9680 C   0  0  1  0  0  3  0  0  0  0  0  0
  179.9460  180.6620  143.1230 O   0  0  0  0  0  0  0  0  0  0  0  0
  180.5330  178.1040  142.6750 C   0  0  0  0  0  2  0  0  0  0  0  0
  1 10  1  0  0  0  0
  2 12  1  0  0  0  0
  4  3  1  0  0  0  0
  5 27  1  0  0  0  0
  6 28  1  0  0  0  0
  6  5  1  0  0  0  0
  7 24  1  6  0  0  0
  7 17  1  0  0  0  0
  9 26  2  0  0  0  0
  9 28  1  0  0  0  0
 11  3  2  0  0  0  0
 12 13  2  0  0  0  0
 12  8  1  0  0  0  0
 13 11  1  0  0  0  0
 14 22  2  0  0  0  0
 15 18  1  0  0  0  0
 15  9  1  0  0  0  0
 16 20  1  0  0  0  0
 17  8  1  1  0  0  0
 17 10  1  0  0  0  0
 18  6  2  0  0  0  0
 19 16  1  0  0  0  0
 19  7  1  0  0  0  0
 20  1  2  0  0  0  0
 21  4  2  0  0  0  0
 22 21  1  0  0  0  0
 22 13  1  0  0  0  0
 23 14  1  0  0  0  0
 24  2  1  0  0  0  0
 25  5  2  0  0  0  0
 27 14  1  0  0  0  0
 27  2  2  0  0  0  0
 28 23  2  0  0  0  0
 29 30  1  0  0  0  0
 30 20  1  6  0  0  0
 31 29  2  0  0  0  0
 32 29  1  0  0  0  0
 32 30  1  0  0  0  0
M  END
>  <MODEL>
4

>  <REMARK>
 VINA RESULT:     -10.9      2.873      7.576
  Name = 
  1 active torsions:
  status: ('A' for Active; 'I' for Inactive)
    1  A    between atoms: C_10  and  C_24
                            x       y       z     vdW  Elec       q    Type
                         _______ _______ _______ _____ _____    ______ ____

>  <TORSDO>
F 1

$$$$
=
 OpenBabel10262421233D

 32 38  0  0  1  0  0  0  0  0999 V2000
  181.5080  178.4040  139.3170 C   0  0  0  0  0  3  0  0  0  0  0  0
  186.1080  178.3660  141.9980 C   0  0  0  0  0  0  0  0  0  0  0  0
  184.3990  178.4700  146.5720 C   0  0  0  0  0  3  0  0  0  0  0  0
  185.6710  178.1700  147.0570 C   0  0  0  0  0  3  0  0  0  0  0  0
  188.5920  177.8730  141.5930 C   0  0  0  0  0  0  0  0  0  0  0  0
  189.8660  177.5550  142.2330 C   0  0  0  0  0  0  0  0  0  0  0  0
  184.5840  179.1450  140.1270 C   0  0  2  0  0  3  0  0  0  0  0  0
  183.6560  178.9430  142.4060 C   0  0  0  0  0  2  0  0  0  0  0  0
  191.2940  177.1430  144.0020 C   0  0  0  0  0  0  0  0  0  0  0  0
  182.0990  179.1600  140.4810 C   0  0  0  0  0  2  0  0  0  0  0  0
  184.1870  178.5910  145.1980 C   0  0  0  0  0  3  0  0  0  0  0  0
  185.0270  178.5320  142.9020 C   0  0  0  0  0  0  0  0  0  0  0  0
  185.2440  178.4140  144.2870 C   0  0  0  0  0  0  0  0  0  0  0  0
  187.6080  177.9380  143.9000 C   0  0  0  0  0  0  0  0  0  0  0  0
  192.0940  177.0500  142.7420 C   0  0  0  0  0  2  0  0  0  0  0  0
  183.6870  177.7670  138.2080 C   0  0  0  0  0  2  0  0  0  0  0  0
  183.4240  178.5820  140.9500 C   0  0  1  0  0  3  0  0  0  0  0  0
  191.0550  177.3380  141.6760 C   0  0  0  0  0  3  0  0  0  0  0  0
  184.3540  179.0740  138.6140 C   0  0  0  0  0  2  0  0  0  0  0  0
  182.1770  177.8230  138.2970 C   0  0  0  0  0  0  0  0  0  0  0  0
  186.7320  177.9920  146.1670 C   0  0  0  0  0  3  0  0  0  0  0  0
  186.5340  178.1110  144.7830 C   0  0  0  0  0  0  0  0  0  0  0  0
  188.9160  177.6260  144.4360 N   0  0  0  0  0  0  0  0  0  0  0  0
  185.8530  178.3960  140.5050 C   0  0  0  0  0  2  0  0  0  0  0  0
  188.5260  177.9830  140.3390 O   0  0  0  0  0  0  0  0  0  0  0  0
  191.7370  176.9780  145.1680 O   0  0  0  0  0  0  0  0  0  0  0  0
  187.4050  178.0650  142.4910 C   0  0  0  0  0  0  0  0  0  0  0  0
  189.9350  177.4530  143.6530 C   0  0  0  0  0  0  0  0  0  0  0  0
  181.2680  178.2430  136.0080 C   0  0  0  0  0  0  0  0  0  0  0  0
  181.3780  177.2380  137.1620 C   0  0  1  0  0  3  0  0  0  0  0  0
  180.8080  179.2510  135.4970 O   0  0  0  0  0  0  0  0  0  0  0  0
  182.1890  177.0300  135.9990 C   0  0  0  0  0  2  0  0  0  0  0  0
  1 10  1  0  0  0  0
  2 27  2  0  0  0  0
  2 12  1  0  0  0  0
  3  4  1  0  0  0  0
  5  6  1  0  0  0  0
  5 27  1  0  0  0  0
  6 28  1  0  0  0  0
  7 19  1  6  0  0  0
  7 24  1  0  0  0  0
  7 17  1  0  0  0  0
  8 12  1  0  0  0  0
  9 26  2  0  0  0  0
 11  3  2  0  0  0  0
 12 13  2  0  0  0  0
 13 22  1  0  0  0  0
 13 11  1  0  0  0  0
 14 23  1  0  0  0  0
 14 22  2  0  0  0  0
 15  9  1  0  0  0  0
 16 20  1  0  0  0  0
 16 19  1  0  0  0  0
 17 10  1  6  0  0  0
 17  8  1  0  0  0  0
 18  6  2  0  0  0  0
 18 15  1  0  0  0  0
 20  1  2  0  0  0  0
 21  4  2  0  0  0  0
 22 21  1  0  0  0  0
 24  2  1  0  0  0  0
 25  5  2  0  0  0  0
 27 14  1  0  0  0  0
 28  9  1  0  0  0  0
 28 23  2  0  0  0  0
 29 30  1  0  0  0  0
 30 20  1  1  0  0  0
 31 29  2  0  0  0  0
 32 29  1  0  0  0  0
 32 30  1  0  0  0  0
M  END
>  <MODEL>
5

>  <REMARK>
 VINA RESULT:     -10.2      3.088      4.478
  Name = 
  1 active torsions:
  status: ('A' for Active; 'I' for Inactive)
    1  A    between atoms: C_10  and  C_24
                            x       y       z     vdW  Elec       q    Type
                         _______ _______ _______ _____ _____    ______ ____

>  <TORSDO>
F 1

$$$$
=
 OpenBabel10262421233D

 32 38  0  0  1  0  0  0  0  0999 V2000
  181.0270  178.6770  143.5070 C   0  0  0  0  0  3  0  0  0  0  0  0
  186.2930  178.2970  142.8160 C   0  0  0  0  0  0  0  0  0  0  0  0
  187.6650  177.3960  147.4160 C   0  0  0  0  0  3  0  0  0  0  0  0
  188.9440  177.0600  146.9720 C   0  0  0  0  0  3  0  0  0  0  0  0
  187.9900  178.0060  140.9160 C   0  0  0  0  0  0  0  0  0  0  0  0
  189.3600  177.6210  140.5880 C   0  0  0  0  0  0  0  0  0  0  0  0
  184.0300  179.3720  142.4260 C   0  0  2  0  0  3  0  0  0  0  0  0
  184.6300  178.6720  144.7170 C   0  0  0  0  0  2  0  0  0  0  0  0
  191.5180  176.9210  141.0260 C   0  0  0  0  0  0  0  0  0  0  0  0
  182.2590  179.2060  144.1980 C   0  0  0  0  0  2  0  0  0  0  0  0
  186.6880  177.7840  146.4990 C   0  0  0  0  0  3  0  0  0  0  0  0
  185.9840  178.2280  144.2000 C   0  0  0  0  0  0  0  0  0  0  0  0
  186.9730  177.8420  145.1230 C   0  0  0  0  0  0  0  0  0  0  0  0
  188.5860  177.5580  143.3110 C   0  0  0  0  0  0  0  0  0  0  0  0
  191.3970  177.1200  139.5490 C   0  0  0  0  0  2  0  0  0  0  0  0
  182.0480  178.3740  141.2160 C   0  0  0  0  0  2  0  0  0  0  0  0
  183.5450  178.6030  143.6560 C   0  0  1  0  0  3  0  0  0  0  0  0
  189.9580  177.5740  139.4000 C   0  0  0  0  0  3  0  0  0  0  0  0
  182.9380  179.6000  141.3760 C   0  0  0  0  0  2  0  0  0  0  0  0
  180.9010  178.3450  142.2030 C   0  0  0  0  0  0  0  0  0  0  0  0
  189.2440  177.1120  145.6100 C   0  0  0  0  0  3  0  0  0  0  0  0
  188.2710  177.5020  144.6760 C   0  0  0  0  0  0  0  0  0  0  0  0
  189.9220  177.2010  142.8830 N   0  0  0  0  0  0  0  0  0  0  0  0
  185.2020  178.6180  141.8160 C   0  0  0  0  0  2  0  0  0  0  0  0
  187.2000  178.3650  140.0030 O   0  0  0  0  0  0  0  0  0  0  0  0
  192.5530  176.5420  141.6350 O   0  0  0  0  0  0  0  0  0  0  0  0
  187.5950  177.9590  142.3630 C   0  0  0  0  0  0  0  0  0  0  0  0
  190.2530  177.2360  141.6310 C   0  0  0  0  0  0  0  0  0  0  0  0
  179.2610  178.6440  140.3420 C   0  0  0  0  0  0  0  0  0  0  0  0
  179.5350  177.9680  141.6920 C   0  0  1  0  0  3  0  0  0  0  0  0
  178.9860  179.6170  139.6610 O   0  0  0  0  0  0  0  0  0  0  0  0
  179.6200  177.1720  140.5030 C   0  0  0  0  0  2  0  0  0  0  0  0
  1 10  1  0  0  0  0
  2 12  1  0  0  0  0
  4  3  1  0  0  0  0
  5 27  1  0  0  0  0
  6  5  1  0  0  0  0
  6 28  1  0  0  0  0
  7 19  1  6  0  0  0
  7 17  1  0  0  0  0
  9 28  1  0  0  0  0
  9 26  2  0  0  0  0
 11  3  2  0  0  0  0
 12  8  1  0  0  0  0
 12 13  2  0  0  0  0
 13 11  1  0  0  0  0
 14 22  2  0  0  0  0
 15  9  1  0  0  0  0
 16 19  1  0  0  0  0
 16 20  1  0  0  0  0
 17 10  1  1  0  0  0
 17  8  1  0  0  0  0
 18 15  1  0  0  0  0
 18  6  2  0  0  0  0
 20  1  2  0  0  0  0
 21  4  2  0  0  0  0
 22 13  1  0  0  0  0
 22 21  1  0  0  0  0
 23 14  1  0  0  0  0
 24  7  1  0  0  0  0
 24  2  1  0  0  0  0
 25  5  2  0  0  0  0
 27  2  2  0  0  0  0
 27 14  1  0  0  0  0
 28 23  2  0  0  0  0
 29 32  1  0  0  0  0
 29 30  1  0  0  0  0
 30 20  1  6  0  0  0
 31 29  2  0  0  0  0
 32 30  1  0  0  0  0
M  END
>  <MODEL>
6

>  <REMARK>
 VINA RESULT:     -10.1      3.100      6.577
  Name = 
  1 active torsions:
  status: ('A' for Active; 'I' for Inactive)
    1  A    between atoms: C_10  and  C_24
                            x       y       z     vdW  Elec       q    Type
                         _______ _______ _______ _____ _____    ______ ____

>  <TORSDO>
F 1

$$$$
=
 OpenBabel10262421233D

 32 38  0  0  1  0  0  0  0  0999 V2000
  191.7970  176.8510  144.2510 C   0  0  0  0  0  3  0  0  0  0  0  0
  186.9190  178.3300  142.7120 C   0  0  0  0  0  0  0  0  0  0  0  0
  187.4970  178.1610  137.8650 C   0  0  0  0  0  3  0  0  0  0  0  0
  186.1190  178.2810  137.6940 C   0  0  0  0  0  3  0  0  0  0  0  0
  184.5620  178.5800  143.6910 C   0  0  0  0  0  0  0  0  0  0  0  0
  183.1420  178.6910  143.3700 C   0  0  0  0  0  0  0  0  0  0  0  0
  188.9900  178.5180  144.1630 C   0  0  2  0  0  3  0  0  0  0  0  0
  189.2720  178.1690  141.7350 C   0  0  0  0  0  2  0  0  0  0  0  0
  181.2950  178.8180  141.9890 C   0  0  0  0  0  0  0  0  0  0  0  0
  191.2150  177.8090  143.2420 C   0  0  0  0  0  2  0  0  0  0  0  0
  188.0410  178.1400  139.1490 C   0  0  0  0  0  3  0  0  0  0  0  0
  187.7650  178.2130  141.5780 C   0  0  0  0  0  0  0  0  0  0  0  0
  187.2150  178.2390  140.2840 C   0  0  0  0  0  0  0  0  0  0  0  0
  184.9700  178.4710  141.2180 C   0  0  0  0  0  0  0  0  0  0  0  0
  180.8110  178.9020  143.4010 C   0  0  0  0  0  2  0  0  0  0  0  0
  189.8390  176.8350  145.8470 C   0  0  0  0  0  2  0  0  0  0  0  0
  189.7070  177.6790  143.1050 C   0  0  1  0  0  3  0  0  0  0  0  0
  182.1020  178.8100  144.1910 C   0  0  0  0  0  3  0  0  0  0  0  0
  189.5240  178.3020  145.5830 C   0  0  0  0  0  2  0  0  0  0  0  0
  191.2330  176.4430  145.4090 C   0  0  0  0  0  0  0  0  0  0  0  0
  185.2840  178.3810  138.8080 C   0  0  0  0  0  3  0  0  0  0  0  0
  185.8170  178.3620  140.1070 C   0  0  0  0  0  0  0  0  0  0  0  0
  183.5430  178.5920  141.0060 N   0  0  0  0  0  0  0  0  0  0  0  0
  187.5030  178.2040  144.1040 C   0  0  0  0  0  2  0  0  0  0  0  0
  184.9410  178.5990  144.8930 O   0  0  0  0  0  0  0  0  0  0  0  0
  180.5700  178.8550  140.9600 O   0  0  0  0  0  0  0  0  0  0  0  0
  185.5160  178.4560  142.5390 C   0  0  0  0  0  0  0  0  0  0  0  0
  182.7260  178.6900  142.0060 C   0  0  0  0  0  0  0  0  0  0  0  0
  192.1120  176.2150  147.7370 C   0  0  0  0  0  0  0  0  0  0  0  0
  192.0530  175.5860  146.3380 C   0  0  1  0  0  3  0  0  0  0  0  0
  192.5230  177.0490  148.5270 O   0  0  0  0  0  0  0  0  0  0  0  0
  191.2470  175.0140  147.3760 C   0  0  0  0  0  2  0  0  0  0  0  0
  1 20  2  0  0  0  0
  2 24  1  0  0  0  0
  3 11  1  0  0  0  0
  4  3  2  0  0  0  0
  4 21  1  0  0  0  0
  5 25  2  0  0  0  0
  6  5  1  0  0  0  0
  6 18  2  0  0  0  0
  7 24  1  1  0  0  0
  7 19  1  0  0  0  0
  9 28  1  0  0  0  0
  9 15  1  0  0  0  0
 10  1  1  0  0  0  0
 11 13  2  0  0  0  0
 12  8  1  0  0  0  0
 12  2  2  0  0  0  0
 13 12  1  0  0  0  0
 14 27  2  0  0  0  0
 15 18  1  0  0  0  0
 17  8  1  6  0  0  0
 17 10  1  0  0  0  0
 17  7  1  0  0  0  0
 19 16  1  0  0  0  0
 20 16  1  0  0  0  0
 21 22  2  0  0  0  0
 22 13  1  0  0  0  0
 22 14  1  0  0  0  0
 23 14  1  0  0  0  0
 23 28  2  0  0  0  0
 26  9  2  0  0  0  0
 27  2  1  0  0  0  0
 27  5  1  0  0  0  0
 28  6  1  0  0  0  0
 29 31  2  0  0  0  0
 30 20  1  6  0  0  0
 30 32  1  0  0  0  0
 30 29  1  0  0  0  0
 32 29  1  0  0  0  0
M  END
>  <MODEL>
7

>  <REMARK>
 VINA RESULT:      -9.8      2.985      7.549
  Name = 
  1 active torsions:
  status: ('A' for Active; 'I' for Inactive)
    1  A    between atoms: C_10  and  C_24
                            x       y       z     vdW  Elec       q    Type
                         _______ _______ _______ _____ _____    ______ ____

>  <TORSDO>
F 1

$$$$
=
 OpenBabel10262421233D

 32 38  0  0  1  0  0  0  0  0999 V2000
  182.5710  178.6300  142.5450 C   0  0  0  0  0  3  0  0  0  0  0  0
  187.5970  177.9610  140.9210 C   0  0  0  0  0  0  0  0  0  0  0  0
  189.7580  177.1690  145.2290 C   0  0  0  0  0  3  0  0  0  0  0  0
  190.9160  176.7530  144.5740 C   0  0  0  0  0  3  0  0  0  0  0  0
  188.8990  177.5130  138.7580 C   0  0  0  0  0  0  0  0  0  0  0  0
  190.1670  177.0470  138.2030 C   0  0  0  0  0  0  0  0  0  0  0  0
  185.3480  179.1320  140.9020 C   0  0  2  0  0  3  0  0  0  0  0  0
  186.3320  178.4910  143.0740 C   0  0  0  0  0  2  0  0  0  0  0  0
  192.3370  176.2580  138.2700 C   0  0  0  0  0  0  0  0  0  0  0  0
  183.9300  179.1230  142.9730 C   0  0  0  0  0  2  0  0  0  0  0  0
  188.6450  177.5700  144.4890 C   0  0  0  0  0  3  0  0  0  0  0  0
  187.5470  177.9610  142.3390 C   0  0  0  0  0  0  0  0  0  0  0  0
  188.6720  177.5610  143.0830 C   0  0  0  0  0  0  0  0  0  0  0  0
  189.9090  177.1280  141.0220 C   0  0  0  0  0  0  0  0  0  0  0  0
  191.9530  176.4070  136.8330 C   0  0  0  0  0  2  0  0  0  0  0  0
  183.1360  178.1890  140.1230 C   0  0  0  0  0  2  0  0  0  0  0  0
  185.0670  178.4360  142.2350 C   0  0  1  0  0  3  0  0  0  0  0  0
  190.5320  176.9250  136.9290 C   0  0  0  0  0  3  0  0  0  0  0  0
  184.0910  179.3740  140.0590 C   0  0  0  0  0  2  0  0  0  0  0  0
  182.1920  178.2550  141.3040 C   0  0  0  0  0  0  0  0  0  0  0  0
  190.9610  176.7380  143.1790 C   0  0  0  0  0  3  0  0  0  0  0  0
  189.8490  177.1390  142.4220 C   0  0  0  0  0  0  0  0  0  0  0  0
  191.1260  176.6890  140.3730 N   0  0  0  0  0  0  0  0  0  0  0  0
  186.3540  178.2980  140.1230 C   0  0  0  0  0  2  0  0  0  0  0  0
  187.9690  177.8760  137.9890 O   0  0  0  0  0  0  0  0  0  0  0  0
  193.4500  175.8520  138.6960 O   0  0  0  0  0  0  0  0  0  0  0  0
  188.7770  177.5420  140.2530 C   0  0  0  0  0  0  0  0  0  0  0  0
  191.2210  176.6590  139.0810 C   0  0  0  0  0  0  0  0  0  0  0  0
  179.9690  179.1820  140.6410 C   0  0  0  0  0  0  0  0  0  0  0  0
  180.7400  177.9270  141.0700 C   0  0  1  0  0  3  0  0  0  0  0  0
  179.4420  180.2570  140.8770 O   0  0  0  0  0  0  0  0  0  0  0  0
  180.3850  178.0680  139.6880 C   0  0  0  0  0  2  0  0  0  0  0  0
  1 10  1  0  0  0  0
  2 12  1  0  0  0  0
  4  3  1  0  0  0  0
  5 27  1  0  0  0  0
  6  5  1  0  0  0  0
  6 28  1  0  0  0  0
  7 19  1  6  0  0  0
  7 17  1  0  0  0  0
  9 26  2  0  0  0  0
  9 28  1  0  0  0  0
 11  3  2  0  0  0  0
 12  8  1  0  0  0  0
 12 13  2  0  0  0  0
 13 11  1  0  0  0  0
 14 22  2  0  0  0  0
 15 18  1  0  0  0  0
 15  9  1  0  0  0  0
 16 20  1  0  0  0  0
 17 10  1  1  0  0  0
 17  8  1  0  0  0  0
 18  6  2  0  0  0  0
 19 16  1  0  0  0  0
 20  1  2  0  0  0  0
 21  4  2  0  0  0  0
 22 13  1  0  0  0  0
 22 21  1  0  0  0  0
 23 14  1  0  0  0  0
 24  7  1  0  0  0  0
 24  2  1  0  0  0  0
 25  5  2  0  0  0  0
 27  2  2  0  0  0  0
 27 14  1  0  0  0  0
 28 23  2  0  0  0  0
 29 31  2  0  0  0  0
 29 30  1  0  0  0  0
 30 20  1  6  0  0  0
 32 29  1  0  0  0  0
 32 30  1  0  0  0  0
M  END
>  <MODEL>
8

>  <REMARK>
 VINA RESULT:      -9.4      3.359      7.099
  Name = 
  1 active torsions:
  status: ('A' for Active; 'I' for Inactive)
    1  A    between atoms: C_10  and  C_24
                            x       y       z     vdW  Elec       q    Type
                         _______ _______ _______ _____ _____    ______ ____

>  <TORSDO>
F 1

$$$$
=
 OpenBabel10262421233D

 32 38  0  0  1  0  0  0  0  0999 V2000
  181.2860  180.3130  137.7930 C   0  0  0  0  0  3  0  0  0  0  0  0
  184.6340  178.5690  141.5470 C   0  0  0  0  0  0  0  0  0  0  0  0
  188.6800  178.0370  138.8620 C   0  0  0  0  0  3  0  0  0  0  0  0
  189.4330  177.8770  140.0240 C   0  0  0  0  0  3  0  0  0  0  0  0
  184.7940  178.4370  144.1030 C   0  0  0  0  0  0  0  0  0  0  0  0
  185.7000  178.2630  145.2350 C   0  0  0  0  0  0  0  0  0  0  0  0
  182.3980  178.6180  140.3530 C   0  0  2  0  0  3  0  0  0  0  0  0
  184.4640  178.6120  139.0000 C   0  0  0  0  0  2  0  0  0  0  0  0
  187.7320  177.9150  146.2780 C   0  0  0  0  0  0  0  0  0  0  0  0
  182.3090  179.2110  137.9160 C   0  0  0  0  0  2  0  0  0  0  0  0
  187.3040  178.2500  138.9470 C   0  0  0  0  0  3  0  0  0  0  0  0
  185.2720  178.5290  140.2790 C   0  0  0  0  0  0  0  0  0  0  0  0
  186.6590  178.3080  140.1960 C   0  0  0  0  0  0  0  0  0  0  0  0
  186.8100  178.1900  142.6310 C   0  0  0  0  0  0  0  0  0  0  0  0
  186.6900  178.0330  147.3430 C   0  0  0  0  0  2  0  0  0  0  0  0
  180.7570  180.5380  140.2530 C   0  0  0  0  0  2  0  0  0  0  0  0
  183.1250  179.3020  139.1950 C   0  0  1  0  0  3  0  0  0  0  0  0
  185.4250  178.2530  146.5370 C   0  0  0  0  0  3  0  0  0  0  0  0
  180.9330  179.0450  140.4970 C   0  0  0  0  0  2  0  0  0  0  0  0
  180.5710  180.8780  138.7900 C   0  0  0  0  0  0  0  0  0  0  0  0
  188.8100  177.9310  141.2720 C   0  0  0  0  0  3  0  0  0  0  0  0
  187.4260  178.1450  141.3730 C   0  0  0  0  0  0  0  0  0  0  0  0
  187.6220  178.0220  143.8180 N   0  0  0  0  0  0  0  0  0  0  0  0
  183.1610  178.9030  141.6390 C   0  0  0  0  0  2  0  0  0  0  0  0
  183.5600  178.5970  144.3010 O   0  0  0  0  0  0  0  0  0  0  0  0
  188.9610  177.7200  146.4690 O   0  0  0  0  0  0  0  0  0  0  0  0
  185.4000  178.4020  142.7310 C   0  0  0  0  0  0  0  0  0  0  0  0
  187.0910  178.0610  145.0000 C   0  0  0  0  0  0  0  0  0  0  0  0
  180.1000  183.0510  137.6510 C   0  0  0  0  0  0  0  0  0  0  0  0
  179.4980  181.8700  138.4240 C   0  0  1  0  0  3  0  0  0  0  0  0
  180.7440  184.0860  137.5930 O   0  0  0  0  0  0  0  0  0  0  0  0
  179.2970  181.9280  137.0060 C   0  0  0  0  0  2  0  0  0  0  0  0
  1 10  1  0  0  0  0
  1 20  2  0  0  0  0
  2 24  1  0  0  0  0
  2 27  1  0  0  0  0
  3 11  2  0  0  0  0
  3  4  1  0  0  0  0
  4 21  2  0  0  0  0
  5 25  2  0  0  0  0
  5  6  1  0  0  0  0
  6 18  2  0  0  0  0
  7 19  1  1  0  0  0
  7 24  1  0  0  0  0
  8 17  1  0  0  0  0
  8 12  1  0  0  0  0
  9 26  2  0  0  0  0
  9 15  1  0  0  0  0
 11 13  1  0  0  0  0
 12  2  2  0  0  0  0
 13 12  1  0  0  0  0
 13 22  2  0  0  0  0
 14 27  2  0  0  0  0
 14 23  1  0  0  0  0
 16 19  1  0  0  0  0
 17 10  1  6  0  0  0
 17  7  1  0  0  0  0
 18 15  1  0  0  0  0
 20 16  1  0  0  0  0
 21 22  1  0  0  0  0
 22 14  1  0  0  0  0
 23 28  2  0  0  0  0
 27  5  1  0  0  0  0
 28  6  1  0  0  0  0
 28  9  1  0  0  0  0
 29 30  1  0  0  0  0
 30 20  1  6  0  0  0
 31 29  2  0  0  0  0
 32 29  1  0  0  0  0
 32 30  1  0  0  0  0
M  END
>  <MODEL>
9

>  <REMARK>
 VINA RESULT:      -9.4      4.123      6.454
  Name = 
  1 active torsions:
  status: ('A' for Active; 'I' for Inactive)
    1  A    between atoms: C_10  and  C_24
                            x       y       z     vdW  Elec       q    Type
                         _______ _______ _______ _____ _____    ______ ____

>  <TORSDO>
F 1

$$$$
