=
 OpenBabel10262421393D

 32 38  0  0  1  0  0  0  0  0999 V2000
  190.0660  176.7720  145.5460 C   0  0  0  0  0  0  0  0  0  0  0  0
  190.3960  177.4530  141.0290 C   0  0  2  0  0  3  0  0  0  0  0  0
  186.6820  178.4210  142.0490 C   0  0  0  0  0  2  0  0  0  0  0  0
  190.3870  176.4740  138.6960 C   0  0  0  0  0  0  0  0  0  0  0  0
  189.9460  176.4620  137.2900 C   0  0  0  0  0  0  0  0  0  0  0  0
  191.5120  177.6100  143.1630 C   0  0  1  0  0  3  0  0  0  0  0  0
  189.6550  179.1760  142.7180 O   0  0  0  0  0  0  0  0  0  0  0  0
  189.1880  176.5250  134.5940 C   0  0  0  0  0  3  0  0  0  0  0  0
  189.2230  177.5370  144.5550 C   0  0  0  0  0  2  0  0  0  0  0  0
  187.5840  178.8110  140.9130 C   0  0  1  0  0  3  0  0  0  0  0  0
  189.3830  177.9710  142.0230 C   0  0  1  0  0  0  0  0  0  0  0  0
  187.9340  177.6120  141.7830 C   0  0  1  0  0  3  0  0  0  0  0  0
  189.0430  178.6030  139.0080 C   0  0  2  0  0  3  0  0  0  0  0  0
  189.8080  175.3870  135.1200 C   0  0  0  0  0  3  0  0  0  0  0  0
  191.2230  176.1880  145.1820 C   0  0  0  0  0  3  0  0  0  0  0  0
  190.0360  177.9660  143.3330 C   0  0  2  0  0  0  0  0  0  0  0  0
  190.1890  175.3560  136.4640 C   0  0  0  0  0  3  0  0  0  0  0  0
  191.7390  176.2300  143.7710 C   0  0  0  0  0  2  0  0  0  0  0  0
  187.6460  178.2000  139.5370 C   0  0  2  0  0  3  0  0  0  0  0  0
  189.0410  178.6980  137.5810 O   0  0  0  0  0  0  0  0  0  0  0  0
  191.7740  177.5820  141.6540 C   0  0  0  0  0  2  0  0  0  0  0  0
  190.9410  175.4540  139.1910 O   0  0  0  0  0  0  0  0  0  0  0  0
  188.9400  177.6290  135.4150 C   0  0  0  0  0  3  0  0  0  0  0  0
  190.2500  177.7400  139.5100 C   0  0  1  0  0  3  0  0  0  0  0  0
  189.3070  177.5960  136.7630 C   0  0  0  0  0  0  0  0  0  0  0  0
  185.9410  177.6680  138.2310 C   0  0  0  0  0  1  0  0  0  0  0  0
  186.6410  178.7610  138.7450 O   0  0  0  0  0  0  0  0  0  0  0  0
  189.6000  176.6870  146.8620 O   0  0  0  0  0  0  0  0  0  0  0  0
  189.4060  177.8250  147.6940 C   0  0  0  0  0  2  0  0  0  0  0  0
  187.9860  177.8860  148.1320 C   0  0  0  0  0  0  0  0  0  0  0  0
  187.6760  177.5610  149.3080 O   0  0  0  0  0  0  0  0  0  0  0  0
  186.9730  178.2720  147.2120 N   0  0  0  0  0  1  0  0  0  0  0  0
  1 28  1  0  0  0  0
  2 21  1  1  0  0  0
  2 11  1  0  0  0  0
  4 22  2  0  0  0  0
  5  4  1  0  0  0  0
  6 21  1  6  0  0  0
  6 16  1  0  0  0  0
  6 18  1  0  0  0  0
  7 16  1  0  0  0  0
  8 14  2  0  0  0  0
  8 23  1  0  0  0  0
  9  1  1  0  0  0  0
 10 12  1  0  0  0  0
 10  3  1  1  0  0  0
 11  7  1  6  0  0  0
 11 16  1  0  0  0  0
 12 11  1  0  0  0  0
 12  3  1  1  0  0  0
 13 20  1  6  0  0  0
 13 24  1  0  0  0  0
 13 19  1  0  0  0  0
 14 17  1  0  0  0  0
 15  1  2  0  0  0  0
 16  9  1  1  0  0  0
 17  5  2  0  0  0  0
 18 15  1  0  0  0  0
 19 27  1  6  0  0  0
 19 10  1  0  0  0  0
 23 25  2  0  0  0  0
 24  4  1  6  0  0  0
 24  2  1  0  0  0  0
 25  5  1  0  0  0  0
 25 20  1  0  0  0  0
 26 27  1  0  0  0  0
 28 29  1  0  0  0  0
 29 30  1  0  0  0  0
 30 31  2  0  0  0  0
 32 30  1  0  0  0  0
M  END
>  <MODEL>
1

>  <REMARK>
 VINA RESULT:      -8.3      0.000      0.000
  Name = 
  4 active torsions:
  status: ('A' for Active; 'I' for Inactive)
    1  A    between atoms: C_1  and  C_10
    2  A    between atoms: C_2  and  O_24
    3  A    between atoms: C_10  and  O_24
    4  A    between atoms: O_25  and  C_26
                            x       y       z     vdW  Elec       q    Type
                         _______ _______ _______ _____ _____    ______ ____

>  <TORSDO>
F 4

$$$$
=
 OpenBabel10262421393D

 32 38  0  0  1  0  0  0  0  0999 V2000
  188.4320  177.2210  143.3850 C   0  0  0  0  0  0  0  0  0  0  0  0
  185.7110  178.3520  139.8790 C   0  0  2  0  0  3  0  0  0  0  0  0
  183.4630  178.5060  143.1490 C   0  0  0  0  0  2  0  0  0  0  0  0
  184.2870  177.6000  137.9280 C   0  0  0  0  0  0  0  0  0  0  0  0
  183.0470  177.6310  137.1330 C   0  0  0  0  0  0  0  0  0  0  0  0
  187.9210  178.5260  140.8340 C   0  0  1  0  0  3  0  0  0  0  0  0
  186.0870  179.7460  141.9490 O   0  0  0  0  0  0  0  0  0  0  0  0
  180.7270  177.7890  135.5690 C   0  0  0  0  0  3  0  0  0  0  0  0
  187.0860  177.8980  143.3030 C   0  0  0  0  0  2  0  0  0  0  0  0
  183.3820  179.1590  141.7990 C   0  0  1  0  0  3  0  0  0  0  0  0
  185.5370  178.5780  141.3620 C   0  0  1  0  0  0  0  0  0  0  0  0
  184.3140  177.9750  142.0140 C   0  0  1  0  0  3  0  0  0  0  0  0
  183.2800  179.4010  139.4050 C   0  0  2  0  0  3  0  0  0  0  0  0
  181.6360  176.7470  135.3670 C   0  0  0  0  0  3  0  0  0  0  0  0
  189.1280  176.9000  142.2780 C   0  0  0  0  0  3  0  0  0  0  0  0
  186.8780  178.5790  141.9500 C   0  0  2  0  0  0  0  0  0  0  0  0
  182.7960  176.6680  136.1440 C   0  0  0  0  0  3  0  0  0  0  0  0
  188.6060  177.1640  140.8930 C   0  0  0  0  0  2  0  0  0  0  0  0
  182.5950  178.6960  140.6000 C   0  0  2  0  0  3  0  0  0  0  0  0
  182.3500  179.6200  138.3410 O   0  0  0  0  0  0  0  0  0  0  0  0
  187.1500  178.6820  139.5200 C   0  0  0  0  0  2  0  0  0  0  0  0
  185.1160  176.6630  137.7650 O   0  0  0  0  0  0  0  0  0  0  0  0
  180.9710  178.7500  136.5560 C   0  0  0  0  0  3  0  0  0  0  0  0
  184.5960  178.7400  138.8710 C   0  0  1  0  0  3  0  0  0  0  0  0
  182.1220  178.6670  137.3450 C   0  0  0  0  0  0  0  0  0  0  0  0
  180.5270  177.9510  140.8520 C   0  0  0  0  0  1  0  0  0  0  0  0
  181.2730  179.1250  140.7310 O   0  0  0  0  0  0  0  0  0  0  0  0
  188.9340  176.9320  144.6590 O   0  0  0  0  0  0  0  0  0  0  0  0
  189.8940  177.7470  145.3200 C   0  0  0  0  0  2  0  0  0  0  0  0
  191.1520  176.9800  145.5150 C   0  0  0  0  0  0  0  0  0  0  0  0
  191.6710  176.3650  144.5460 O   0  0  0  0  0  0  0  0  0  0  0  0
  191.7470  176.9040  146.8040 N   0  0  0  0  0  1  0  0  0  0  0  0
  1 28  1  0  0  0  0
  2 21  1  6  0  0  0
  2 11  1  0  0  0  0
  5 25  1  0  0  0  0
  5  4  1  0  0  0  0
  6 21  1  6  0  0  0
  6 18  1  0  0  0  0
  6 16  1  0  0  0  0
  7 16  1  0  0  0  0
  8 23  1  0  0  0  0
  9  1  1  0  0  0  0
 10 12  1  0  0  0  0
 10  3  1  1  0  0  0
 11  7  1  1  0  0  0
 11 16  1  0  0  0  0
 11 12  1  0  0  0  0
 12  3  1  1  0  0  0
 13 20  1  6  0  0  0
 13 19  1  0  0  0  0
 14  8  2  0  0  0  0
 14 17  1  0  0  0  0
 15  1  2  0  0  0  0
 16  9  1  1  0  0  0
 17  5  2  0  0  0  0
 18 15  1  0  0  0  0
 19 27  1  1  0  0  0
 19 10  1  0  0  0  0
 22  4  2  0  0  0  0
 23 25  2  0  0  0  0
 24  4  1  1  0  0  0
 24 13  1  0  0  0  0
 24  2  1  0  0  0  0
 25 20  1  0  0  0  0
 27 26  1  0  0  0  0
 28 29  1  0  0  0  0
 29 30  1  0  0  0  0
 30 32  1  0  0  0  0
 31 30  2  0  0  0  0
M  END
>  <MODEL>
2

>  <REMARK>
 VINA RESULT:      -6.9      3.345      5.445
  Name = 
  4 active torsions:
  status: ('A' for Active; 'I' for Inactive)
    1  A    between atoms: C_1  and  C_10
    2  A    between atoms: C_2  and  O_24
    3  A    between atoms: C_10  and  O_24
    4  A    between atoms: O_25  and  C_26
                            x       y       z     vdW  Elec       q    Type
                         _______ _______ _______ _____ _____    ______ ____

>  <TORSDO>
F 4

$$$$
=
 OpenBabel10262421393D

 32 38  0  0  1  0  0  0  0  0999 V2000
  190.8450  176.3810  136.6540 C   0  0  0  0  0  0  0  0  0  0  0  0
  186.7280  177.9330  137.9260 C   0  0  2  0  0  3  0  0  0  0  0  0
  188.9860  177.9100  141.1930 C   0  0  0  0  0  2  0  0  0  0  0  0
  184.3360  177.4170  138.5680 C   0  0  0  0  0  0  0  0  0  0  0  0
  183.1590  177.5730  139.4420 C   0  0  0  0  0  0  0  0  0  0  0  0
  188.4170  177.9220  136.2020 C   0  0  1  0  0  3  0  0  0  0  0  0
  188.9200  179.1250  138.2980 O   0  0  0  0  0  0  0  0  0  0  0  0
  180.8980  177.9720  141.0460 C   0  0  0  0  0  3  0  0  0  0  0  0
  190.3560  177.1240  137.8720 C   0  0  0  0  0  2  0  0  0  0  0  0
  187.7650  178.6800  140.7780 C   0  0  1  0  0  3  0  0  0  0  0  0
  188.0670  178.0390  138.6160 C   0  0  1  0  0  0  0  0  0  0  0  0
  188.1820  177.4390  140.0000 C   0  0  1  0  0  3  0  0  0  0  0  0
  185.5260  179.1300  140.0130 C   0  0  2  0  0  3  0  0  0  0  0  0
  180.9320  176.9100  140.1380 C   0  0  0  0  0  3  0  0  0  0  0  0
  190.0310  176.1250  135.6120 C   0  0  0  0  0  3  0  0  0  0  0  0
  189.0890  177.9280  137.5750 C   0  0  2  0  0  0  0  0  0  0  0  0
  182.0580  176.7110  139.3350 C   0  0  0  0  0  3  0  0  0  0  0  0
  188.5840  176.5300  135.6010 C   0  0  0  0  0  2  0  0  0  0  0  0
  186.3260  178.3570  141.0900 C   0  0  2  0  0  3  0  0  0  0  0  0
  184.2270  179.4820  140.4990 O   0  0  0  0  0  0  0  0  0  0  0  0
  186.9370  178.2250  136.4510 C   0  0  0  0  0  2  0  0  0  0  0  0
  184.3880  176.4600  137.7480 O   0  0  0  0  0  0  0  0  0  0  0  0
  181.9940  178.8320  141.1590 C   0  0  0  0  0  3  0  0  0  0  0  0
  185.4320  178.4570  138.6020 C   0  0  1  0  0  3  0  0  0  0  0  0
  183.1290  178.6280  140.3680 C   0  0  0  0  0  0  0  0  0  0  0  0
  186.1180  177.7170  143.1970 C   0  0  0  0  0  1  0  0  0  0  0  0
  186.0200  178.8350  142.3660 O   0  0  0  0  0  0  0  0  0  0  0  0
  192.1800  175.9610  136.6440 O   0  0  0  0  0  0  0  0  0  0  0  0
  192.7030  175.0160  137.5680 C   0  0  0  0  0  2  0  0  0  0  0  0
  193.8330  175.6250  138.3190 C   0  0  0  0  0  0  0  0  0  0  0  0
  193.6940  176.7530  138.8600 O   0  0  0  0  0  0  0  0  0  0  0  0
  195.0840  174.9530  138.3920 N   0  0  0  0  0  1  0  0  0  0  0  0
  1  9  1  0  0  0  0
  2 21  1  6  0  0  0
  2 24  1  0  0  0  0
  2 11  1  0  0  0  0
  4  5  1  0  0  0  0
  5 25  1  0  0  0  0
  6 18  1  1  0  0  0
  6 21  1  0  0  0  0
  6 16  1  0  0  0  0
  8 23  1  0  0  0  0
 10 19  1  0  0  0  0
 10  3  1  1  0  0  0
 11  7  1  1  0  0  0
 11 12  1  0  0  0  0
 12 10  1  0  0  0  0
 12  3  1  1  0  0  0
 13 20  1  1  0  0  0
 13 19  1  0  0  0  0
 14  8  2  0  0  0  0
 15  1  2  0  0  0  0
 16  9  1  1  0  0  0
 16  7  1  0  0  0  0
 16 11  1  0  0  0  0
 17  5  2  0  0  0  0
 17 14  1  0  0  0  0
 18 15  1  0  0  0  0
 19 27  1  1  0  0  0
 22  4  2  0  0  0  0
 24  4  1  1  0  0  0
 24 13  1  0  0  0  0
 25 20  1  0  0  0  0
 25 23  2  0  0  0  0
 27 26  1  0  0  0  0
 28  1  1  0  0  0  0
 28 29  1  0  0  0  0
 29 30  1  0  0  0  0
 30 32  1  0  0  0  0
 30 31  2  0  0  0  0
M  END
>  <MODEL>
3

>  <REMARK>
 VINA RESULT:      -6.9      3.746      7.609
  Name = 
  4 active torsions:
  status: ('A' for Active; 'I' for Inactive)
    1  A    between atoms: C_1  and  C_10
    2  A    between atoms: C_2  and  O_24
    3  A    between atoms: C_10  and  O_24
    4  A    between atoms: O_25  and  C_26
                            x       y       z     vdW  Elec       q    Type
                         _______ _______ _______ _____ _____    ______ ____

>  <TORSDO>
F 4

$$$$
=
 OpenBabel10262421393D

 32 38  0  0  1  0  0  0  0  0999 V2000
  186.1220  177.1960  137.3000 C   0  0  0  0  0  0  0  0  0  0  0  0
  187.4930  178.2640  141.5370 C   0  0  2  0  0  3  0  0  0  0  0  0
  190.5910  176.5370  139.7500 C   0  0  0  0  0  2  0  0  0  0  0  0
  187.5290  177.6850  144.0000 C   0  0  0  0  0  0  0  0  0  0  0  0
  188.2270  177.4980  145.2840 C   0  0  0  0  0  0  0  0  0  0  0  0
  186.1820  178.9420  139.6280 C   0  0  1  0  0  3  0  0  0  0  0  0
  188.6410  178.9740  139.4050 O   0  0  0  0  0  0  0  0  0  0  0  0
  189.5530  177.2590  147.7400 C   0  0  0  0  0  3  0  0  0  0  0  0
  187.4820  177.3110  137.9440 C   0  0  0  0  0  2  0  0  0  0  0  0
  190.4550  177.4990  140.8940 C   0  0  1  0  0  3  0  0  0  0  0  0
  188.3010  177.9330  140.3050 C   0  0  1  0  0  0  0  0  0  0  0  0
  189.2330  176.7450  140.3870 C   0  0  1  0  0  3  0  0  0  0  0  0
  189.7430  178.4210  143.0030 C   0  0  2  0  0  3  0  0  0  0  0  0
  188.2590  176.7510  147.5920 C   0  0  0  0  0  3  0  0  0  0  0  0
  184.9980  177.5220  137.9650 C   0  0  0  0  0  3  0  0  0  0  0  0
  187.4590  178.2510  139.1500 C   0  0  2  0  0  0  0  0  0  0  0  0
  187.5950  176.8720  146.3680 C   0  0  0  0  0  3  0  0  0  0  0  0
  185.0140  177.9910  139.3930 C   0  0  0  0  0  2  0  0  0  0  0  0
  190.4050  177.1750  142.3660 C   0  0  2  0  0  3  0  0  0  0  0  0
  190.1830  178.5970  144.3530 O   0  0  0  0  0  0  0  0  0  0  0  0
  186.3720  179.2010  141.1250 C   0  0  0  0  0  2  0  0  0  0  0  0
  186.3630  177.2270  143.8450 O   0  0  0  0  0  0  0  0  0  0  0  0
  190.1890  177.8800  146.6610 C   0  0  0  0  0  3  0  0  0  0  0  0
  188.1820  178.5020  142.9090 C   0  0  1  0  0  3  0  0  0  0  0  0
  189.5340  177.9900  145.4310 C   0  0  0  0  0  0  0  0  0  0  0  0
  191.6770  175.8300  143.5770 C   0  0  0  0  0  1  0  0  0  0  0  0
  191.7090  177.0160  142.8400 O   0  0  0  0  0  0  0  0  0  0  0  0
  186.0690  176.7330  135.9810 O   0  0  0  0  0  0  0  0  0  0  0  0
  186.6010  175.4780  135.5750 C   0  0  0  0  0  2  0  0  0  0  0  0
  185.8430  174.3790  136.2290 C   0  0  0  0  0  0  0  0  0  0  0  0
  184.6320  174.1920  135.9410 O   0  0  0  0  0  0  0  0  0  0  0  0
  186.4720  173.5660  137.2120 N   0  0  0  0  0  1  0  0  0  0  0  0
  1  9  1  0  0  0  0
  1 15  2  0  0  0  0
  2 21  1  6  0  0  0
  2 24  1  0  0  0  0
  4  5  1  0  0  0  0
  5 25  2  0  0  0  0
  5 17  1  0  0  0  0
  6 18  1  1  0  0  0
  6 21  1  0  0  0  0
 10  3  1  6  0  0  0
 10 19  1  0  0  0  0
 11  7  1  6  0  0  0
 11 12  1  0  0  0  0
 11  2  1  0  0  0  0
 12  3  1  6  0  0  0
 12 10  1  0  0  0  0
 13 20  1  1  0  0  0
 14  8  1  0  0  0  0
 15 18  1  0  0  0  0
 16  9  1  6  0  0  0
 16  7  1  0  0  0  0
 16  6  1  0  0  0  0
 16 11  1  0  0  0  0
 17 14  2  0  0  0  0
 19 27  1  1  0  0  0
 19 13  1  0  0  0  0
 20 25  1  0  0  0  0
 22  4  2  0  0  0  0
 23  8  2  0  0  0  0
 24 13  1  0  0  0  0
 24  4  1  1  0  0  0
 25 23  1  0  0  0  0
 27 26  1  0  0  0  0
 28  1  1  0  0  0  0
 29 28  1  0  0  0  0
 29 30  1  0  0  0  0
 30 32  1  0  0  0  0
 31 30  2  0  0  0  0
M  END
>  <MODEL>
4

>  <REMARK>
 VINA RESULT:      -6.8      2.886      8.343
  Name = 
  4 active torsions:
  status: ('A' for Active; 'I' for Inactive)
    1  A    between atoms: C_1  and  C_10
    2  A    between atoms: C_2  and  O_24
    3  A    between atoms: C_10  and  O_24
    4  A    between atoms: O_25  and  C_26
                            x       y       z     vdW  Elec       q    Type
                         _______ _______ _______ _____ _____    ______ ____

>  <TORSDO>
F 4

$$$$
=
 OpenBabel10262421393D

 32 38  0  0  1  0  0  0  0  0999 V2000
  186.5120  177.5280  145.0990 C   0  0  0  0  0  0  0  0  0  0  0  0
  184.3770  178.6390  141.2020 C   0  0  2  0  0  3  0  0  0  0  0  0
  181.6210  178.7120  144.0600 C   0  0  0  0  0  2  0  0  0  0  0  0
  183.3090  177.8780  139.0390 C   0  0  0  0  0  0  0  0  0  0  0  0
  182.2150  177.8920  138.0510 C   0  0  0  0  0  0  0  0  0  0  0  0
  186.3960  178.8490  142.5080 C   0  0  1  0  0  3  0  0  0  0  0  0
  184.3770  180.0190  143.3150 O   0  0  0  0  0  0  0  0  0  0  0  0
  180.1800  178.0180  136.1290 C   0  0  0  0  0  3  0  0  0  0  0  0
  185.1830  178.1780  144.8010 C   0  0  0  0  0  2  0  0  0  0  0  0
  181.7470  179.3780  142.7200 C   0  0  1  0  0  3  0  0  0  0  0  0
  183.9580  178.8460  142.6380 C   0  0  1  0  0  0  0  0  0  0  0  0
  182.6580  178.2110  143.0770 C   0  0  1  0  0  3  0  0  0  0  0  0
  182.0340  179.6430  140.3430 C   0  0  2  0  0  3  0  0  0  0  0  0
  181.1340  176.9970  136.0720 C   0  0  0  0  0  3  0  0  0  0  0  0
  187.3860  177.2340  144.1190 C   0  0  0  0  0  3  0  0  0  0  0  0
  185.1830  178.8690  143.4370 C   0  0  2  0  0  0  0  0  0  0  0  0
  182.1510  176.9340  137.0280 C   0  0  0  0  0  3  0  0  0  0  0  0
  187.0930  177.5010  142.6690 C   0  0  0  0  0  2  0  0  0  0  0  0
  181.1780  178.9100  141.4040 C   0  0  2  0  0  3  0  0  0  0  0  0
  181.2860  179.8530  139.1420 O   0  0  0  0  0  0  0  0  0  0  0  0
  185.8470  179.0030  141.0860 C   0  0  0  0  0  2  0  0  0  0  0  0
  184.1740  176.9600  139.0080 O   0  0  0  0  0  0  0  0  0  0  0  0
  180.2380  178.9730  137.1490 C   0  0  0  0  0  3  0  0  0  0  0  0
  183.4340  179.0150  140.0270 C   0  0  1  0  0  3  0  0  0  0  0  0
  181.2460  178.9050  138.1160 C   0  0  0  0  0  0  0  0  0  0  0  0
  179.1150  178.1200  141.2950 C   0  0  0  0  0  1  0  0  0  0  0  0
  179.8430  179.3110  141.3190 O   0  0  0  0  0  0  0  0  0  0  0  0
  186.8040  177.2360  146.4360 O   0  0  0  0  0  0  0  0  0  0  0  0
  187.3320  178.1960  147.3430 C   0  0  0  0  0  2  0  0  0  0  0  0
  188.6660  177.7490  147.8230 C   0  0  0  0  0  0  0  0  0  0  0  0
  189.1780  178.2780  148.8440 O   0  0  0  0  0  0  0  0  0  0  0  0
  189.3840  176.7540  147.1040 N   0  0  0  0  0  1  0  0  0  0  0  0
  1 28  1  0  0  0  0
  2 21  1  6  0  0  0
  2 11  1  0  0  0  0
  5 25  1  0  0  0  0
  5  4  1  0  0  0  0
  6 21  1  6  0  0  0
  6 18  1  0  0  0  0
  6 16  1  0  0  0  0
  7 16  1  0  0  0  0
  8 23  1  0  0  0  0
  9  1  1  0  0  0  0
 10 12  1  0  0  0  0
 10  3  1  1  0  0  0
 11 12  1  0  0  0  0
 11  7  1  6  0  0  0
 11 16  1  0  0  0  0
 12  3  1  1  0  0  0
 13 20  1  6  0  0  0
 13 19  1  0  0  0  0
 14  8  2  0  0  0  0
 14 17  1  0  0  0  0
 15  1  2  0  0  0  0
 16  9  1  1  0  0  0
 17  5  2  0  0  0  0
 18 15  1  0  0  0  0
 19 27  1  1  0  0  0
 19 10  1  0  0  0  0
 22  4  2  0  0  0  0
 23 25  2  0  0  0  0
 24  4  1  1  0  0  0
 24 13  1  0  0  0  0
 24  2  1  0  0  0  0
 25 20  1  0  0  0  0
 26 27  1  0  0  0  0
 28 29  1  0  0  0  0
 29 30  1  0  0  0  0
 30 31  2  0  0  0  0
 32 30  1  0  0  0  0
M  END
>  <MODEL>
5

>  <REMARK>
 VINA RESULT:      -6.6      4.383      6.234
  Name = 
  4 active torsions:
  status: ('A' for Active; 'I' for Inactive)
    1  A    between atoms: C_1  and  C_10
    2  A    between atoms: C_2  and  O_24
    3  A    between atoms: C_10  and  O_24
    4  A    between atoms: O_25  and  C_26
                            x       y       z     vdW  Elec       q    Type
                         _______ _______ _______ _____ _____    ______ ____

>  <TORSDO>
F 4

$$$$
=
 OpenBabel10262421393D

 32 38  0  0  1  0  0  0  0  0999 V2000
  190.0790  177.0540  142.2850 C   0  0  0  0  0  0  0  0  0  0  0  0
  186.7160  178.1720  139.3840 C   0  0  2  0  0  3  0  0  0  0  0  0
  185.2160  178.5280  143.0430 C   0  0  0  0  0  2  0  0  0  0  0  0
  184.8880  177.4110  137.8090 C   0  0  0  0  0  0  0  0  0  0  0  0
  183.5090  177.4640  137.2910 C   0  0  0  0  0  0  0  0  0  0  0  0
  189.0820  178.2900  139.8450 C   0  0  1  0  0  3  0  0  0  0  0  0
  187.5640  179.6200  141.2680 O   0  0  0  0  0  0  0  0  0  0  0  0
  180.9180  177.6610  136.2440 C   0  0  0  0  0  3  0  0  0  0  0  0
  188.7680  177.7810  142.4580 C   0  0  0  0  0  2  0  0  0  0  0  0
  184.8720  179.1370  141.7150 C   0  0  1  0  0  3  0  0  0  0  0  0
  186.8670  178.4560  140.8590 C   0  0  1  0  0  0  0  0  0  0  0  0
  185.7900  177.9250  141.7790 C   0  0  1  0  0  3  0  0  0  0  0  0
  184.2740  179.3010  139.3870 C   0  0  2  0  0  3  0  0  0  0  0  0
  181.7300  176.5770  135.9000 C   0  0  0  0  0  3  0  0  0  0  0  0
  190.5140  176.6680  141.0700 C   0  0  0  0  0  3  0  0  0  0  0  0
  188.3000  178.4230  141.1520 C   0  0  2  0  0  0  0  0  0  0  0  0
  183.0250  176.4790  136.4190 C   0  0  0  0  0  3  0  0  0  0  0  0
  189.7200  176.9050  139.8160 C   0  0  0  0  0  2  0  0  0  0  0  0
  183.8350  178.6650  140.7270 C   0  0  2  0  0  3  0  0  0  0  0  0
  183.1480  179.5200  138.5330 O   0  0  0  0  0  0  0  0  0  0  0  0
  188.0560  178.4310  138.7170 C   0  0  0  0  0  2  0  0  0  0  0  0
  185.6340  176.4360  137.5150 O   0  0  0  0  0  0  0  0  0  0  0  0
  181.3960  178.6440  137.1160 C   0  0  0  0  0  3  0  0  0  0  0  0
  185.4260  178.5700  138.6160 C   0  0  1  0  0  3  0  0  0  0  0  0
  182.6840  178.5430  137.6490 C   0  0  0  0  0  0  0  0  0  0  0  0
  181.7570  178.0270  141.1410 C   0  0  0  0  0  1  0  0  0  0  0  0
  182.5840  179.1510  141.1150 O   0  0  0  0  0  0  0  0  0  0  0  0
  190.8290  176.7890  143.4360 O   0  0  0  0  0  0  0  0  0  0  0  0
  191.1690  177.7880  144.3890 C   0  0  0  0  0  2  0  0  0  0  0  0
  190.9910  177.2480  145.7630 C   0  0  0  0  0  0  0  0  0  0  0  0
  191.9790  176.7780  146.3870 O   0  0  0  0  0  0  0  0  0  0  0  0
  189.6990  177.2210  146.3560 N   0  0  0  0  0  1  0  0  0  0  0  0
  1  9  1  0  0  0  0
  1 28  1  0  0  0  0
  2 21  1  6  0  0  0
  2 11  1  0  0  0  0
  5 25  1  0  0  0  0
  5  4  1  0  0  0  0
  6 21  1  6  0  0  0
  6 16  1  0  0  0  0
  8 23  1  0  0  0  0
 10 12  1  0  0  0  0
 10  3  1  1  0  0  0
 11 16  1  0  0  0  0
 11  7  1  1  0  0  0
 11 12  1  0  0  0  0
 12  3  1  1  0  0  0
 13 20  1  6  0  0  0
 13 19  1  0  0  0  0
 14  8  2  0  0  0  0
 14 17  1  0  0  0  0
 15  1  2  0  0  0  0
 16  7  1  0  0  0  0
 16  9  1  1  0  0  0
 17  5  2  0  0  0  0
 18  6  1  0  0  0  0
 18 15  1  0  0  0  0
 19 27  1  1  0  0  0
 19 10  1  0  0  0  0
 22  4  2  0  0  0  0
 23 25  2  0  0  0  0
 24  4  1  1  0  0  0
 24  2  1  0  0  0  0
 24 13  1  0  0  0  0
 25 20  1  0  0  0  0
 27 26  1  0  0  0  0
 28 29  1  0  0  0  0
 29 30  1  0  0  0  0
 30 32  1  0  0  0  0
 30 31  2  0  0  0  0
M  END
>  <MODEL>
6

>  <REMARK>
 VINA RESULT:      -6.6      2.759      4.944
  Name = 
  4 active torsions:
  status: ('A' for Active; 'I' for Inactive)
    1  A    between atoms: C_1  and  C_10
    2  A    between atoms: C_2  and  O_24
    3  A    between atoms: C_10  and  O_24
    4  A    between atoms: O_25  and  C_26
                            x       y       z     vdW  Elec       q    Type
                         _______ _______ _______ _____ _____    ______ ____

>  <TORSDO>
F 4

$$$$
=
 OpenBabel10262421393D

 32 38  0  0  1  0  0  0  0  0999 V2000
  192.2310  174.4030  137.2000 C   0  0  0  0  0  0  0  0  0  0  0  0
  188.1450  176.4660  137.0340 C   0  0  2  0  0  3  0  0  0  0  0  0
  189.8560  177.6190  140.4280 C   0  0  0  0  0  2  0  0  0  0  0  0
  185.6430  176.3200  137.3750 C   0  0  0  0  0  0  0  0  0  0  0  0
  184.3670  176.8390  137.8980 C   0  0  0  0  0  0  0  0  0  0  0  0
  190.0710  175.7370  135.7750 C   0  0  1  0  0  3  0  0  0  0  0  0
  190.3630  177.6330  137.3290 O   0  0  0  0  0  0  0  0  0  0  0  0
  181.9360  177.9010  138.8000 C   0  0  0  0  0  3  0  0  0  0  0  0
  191.6370  175.5730  137.9450 C   0  0  0  0  0  2  0  0  0  0  0  0
  188.7980  178.2130  139.5420 C   0  0  1  0  0  3  0  0  0  0  0  0
  189.3650  176.7820  137.8660 C   0  0  1  0  0  0  0  0  0  0  0  0
  189.2020  176.7550  139.3700 C   0  0  1  0  0  3  0  0  0  0  0  0
  186.7620  178.4130  138.2710 C   0  0  2  0  0  3  0  0  0  0  0  0
  182.0030  176.5720  138.3730 C   0  0  0  0  0  3  0  0  0  0  0  0
  191.5670  173.7960  136.1990 C   0  0  0  0  0  3  0  0  0  0  0  0
  190.5200  176.2450  137.1450 C   0  0  2  0  0  0  0  0  0  0  0  0
  183.2140  176.0410  137.9200 C   0  0  0  0  0  3  0  0  0  0  0  0
  190.1870  174.2160  135.7750 C   0  0  0  0  0  2  0  0  0  0  0  0
  187.3030  178.0840  139.6840 C   0  0  2  0  0  3  0  0  0  0  0  0
  185.4460  178.9690  138.3460 O   0  0  0  0  0  0  0  0  0  0  0  0
  188.6090  176.1630  135.6200 C   0  0  0  0  0  2  0  0  0  0  0  0
  185.7240  175.1200  136.9920 O   0  0  0  0  0  0  0  0  0  0  0  0
  183.0840  178.7000  138.7830 C   0  0  0  0  0  3  0  0  0  0  0  0
  186.8200  177.2550  137.2190 C   0  0  1  0  0  3  0  0  0  0  0  0
  184.3000  178.1700  138.3440 C   0  0  0  0  0  0  0  0  0  0  0  0
  186.5050  178.2750  141.7380 C   0  0  0  0  0  1  0  0  0  0  0  0
  186.8530  179.0250  140.6130 O   0  0  0  0  0  0  0  0  0  0  0  0
  193.5010  173.9650  137.5900 O   0  0  0  0  0  0  0  0  0  0  0  0
  194.5620  174.8540  137.9190 C   0  0  0  0  0  2  0  0  0  0  0  0
  195.4300  174.2330  138.9550 C   0  0  0  0  0  0  0  0  0  0  0  0
  195.4470  172.9810  139.0940 O   0  0  0  0  0  0  0  0  0  0  0  0
  196.2080  175.0530  139.8170 N   0  0  0  0  0  1  0  0  0  0  0  0
  1 28  1  0  0  0  0
  1  9  1  0  0  0  0
  2 21  1  6  0  0  0
  2 24  1  0  0  0  0
  2 11  1  0  0  0  0
  4  5  1  0  0  0  0
  5 17  2  0  0  0  0
  5 25  1  0  0  0  0
  6 21  1  1  0  0  0
  6 18  1  0  0  0  0
  6 16  1  0  0  0  0
 10 19  1  0  0  0  0
 10  3  1  1  0  0  0
 11  7  1  6  0  0  0
 11 12  1  0  0  0  0
 12 10  1  0  0  0  0
 12  3  1  1  0  0  0
 13 20  1  1  0  0  0
 13 19  1  0  0  0  0
 14  8  2  0  0  0  0
 15  1  2  0  0  0  0
 16  7  1  0  0  0  0
 16 11  1  0  0  0  0
 16  9  1  1  0  0  0
 17 14  1  0  0  0  0
 18 15  1  0  0  0  0
 19 27  1  1  0  0  0
 22  4  2  0  0  0  0
 23  8  1  0  0  0  0
 24  4  1  1  0  0  0
 24 13  1  0  0  0  0
 25 20  1  0  0  0  0
 25 23  2  0  0  0  0
 27 26  1  0  0  0  0
 28 29  1  0  0  0  0
 29 30  1  0  0  0  0
 30 31  2  0  0  0  0
 30 32  1  0  0  0  0
M  END
>  <MODEL>
7

>  <REMARK>
 VINA RESULT:      -6.5      4.046      7.244
  Name = 
  4 active torsions:
  status: ('A' for Active; 'I' for Inactive)
    1  A    between atoms: C_1  and  C_10
    2  A    between atoms: C_2  and  O_24
    3  A    between atoms: C_10  and  O_24
    4  A    between atoms: O_25  and  C_26
                            x       y       z     vdW  Elec       q    Type
                         _______ _______ _______ _____ _____    ______ ____

>  <TORSDO>
F 4

$$$$
=
 OpenBabel10262421393D

 32 38  0  0  1  0  0  0  0  0999 V2000
  191.0730  176.3930  146.4590 C   0  0  0  0  0  0  0  0  0  0  0  0
  189.1120  177.9850  142.6380 C   0  0  2  0  0  3  0  0  0  0  0  0
  186.1650  177.2280  145.1890 C   0  0  0  0  0  2  0  0  0  0  0  0
  188.3060  177.5370  140.2820 C   0  0  0  0  0  0  0  0  0  0  0  0
  187.2950  177.6200  139.2140 C   0  0  0  0  0  0  0  0  0  0  0  0
  190.9900  178.1580  144.1450 C   0  0  1  0  0  3  0  0  0  0  0  0
  188.7890  178.9350  144.9540 O   0  0  0  0  0  0  0  0  0  0  0  0
  185.4060  177.8900  137.1620 C   0  0  0  0  0  3  0  0  0  0  0  0
  189.7010  176.9430  146.1570 C   0  0  0  0  0  2  0  0  0  0  0  0
  186.3080  178.1430  144.0070 C   0  0  1  0  0  3  0  0  0  0  0  0
  188.5660  177.8730  144.0410 C   0  0  1  0  0  0  0  0  0  0  0  0
  187.3240  177.0330  144.2350 C   0  0  1  0  0  3  0  0  0  0  0  0
  186.7340  178.8790  141.7540 C   0  0  2  0  0  3  0  0  0  0  0  0
  186.4780  177.0050  137.0140 C   0  0  0  0  0  3  0  0  0  0  0  0
  192.0470  176.3830  145.5290 C   0  0  0  0  0  3  0  0  0  0  0  0
  189.7180  177.8750  144.9440 C   0  0  2  0  0  0  0  0  0  0  0  0
  187.4220  176.8710  138.0350 C   0  0  0  0  0  3  0  0  0  0  0  0
  191.8300  176.8860  144.1290 C   0  0  0  0  0  2  0  0  0  0  0  0
  185.8980  177.8740  142.5820 C   0  0  2  0  0  3  0  0  0  0  0  0
  186.0570  179.2320  140.5440 O   0  0  0  0  0  0  0  0  0  0  0  0
  190.5320  178.5180  142.7290 C   0  0  0  0  0  2  0  0  0  0  0  0
  189.2760  176.7370  140.1700 O   0  0  0  0  0  0  0  0  0  0  0  0
  185.2720  178.6360  138.3370 C   0  0  0  0  0  3  0  0  0  0  0  0
  188.2190  178.4740  141.4650 C   0  0  1  0  0  3  0  0  0  0  0  0
  186.2070  178.4950  139.3670 C   0  0  0  0  0  0  0  0  0  0  0  0
  184.2420  179.0430  143.4670 C   0  0  0  0  0  1  0  0  0  0  0  0
  184.5340  178.1400  142.4440 O   0  0  0  0  0  0  0  0  0  0  0  0
  191.3000  175.8880  147.7430 O   0  0  0  0  0  0  0  0  0  0  0  0
  192.6010  175.6340  148.2600 C   0  0  0  0  0  2  0  0  0  0  0  0
  193.0420  176.7860  149.0900 C   0  0  0  0  0  0  0  0  0  0  0  0
  192.3040  177.8000  149.2010 O   0  0  0  0  0  0  0  0  0  0  0  0
  194.3140  176.7600  149.7250 N   0  0  0  0  0  1  0  0  0  0  0  0
  1 28  1  0  0  0  0
  2 21  1  1  0  0  0
  2 11  1  0  0  0  0
  5 25  1  0  0  0  0
  5  4  1  0  0  0  0
  6 21  1  6  0  0  0
  6 16  1  0  0  0  0
  8 23  1  0  0  0  0
  9  1  1  0  0  0  0
 10 12  1  0  0  0  0
 10  3  1  1  0  0  0
 11 12  1  0  0  0  0
 11 16  1  0  0  0  0
 11  7  1  1  0  0  0
 12  3  1  1  0  0  0
 13 20  1  6  0  0  0
 13 19  1  0  0  0  0
 14  8  2  0  0  0  0
 14 17  1  0  0  0  0
 15  1  2  0  0  0  0
 16  7  1  0  0  0  0
 16  9  1  1  0  0  0
 17  5  2  0  0  0  0
 18  6  1  0  0  0  0
 18 15  1  0  0  0  0
 19 27  1  1  0  0  0
 19 10  1  0  0  0  0
 22  4  2  0  0  0  0
 23 25  2  0  0  0  0
 24  4  1  6  0  0  0
 24 13  1  0  0  0  0
 24  2  1  0  0  0  0
 25 20  1  0  0  0  0
 27 26  1  0  0  0  0
 28 29  1  0  0  0  0
 29 30  1  0  0  0  0
 30 31  2  0  0  0  0
 30 32  1  0  0  0  0
M  END
>  <MODEL>
8

>  <REMARK>
 VINA RESULT:      -6.4      2.613      3.585
  Name = 
  4 active torsions:
  status: ('A' for Active; 'I' for Inactive)
    1  A    between atoms: C_1  and  C_10
    2  A    between atoms: C_2  and  O_24
    3  A    between atoms: C_10  and  O_24
    4  A    between atoms: O_25  and  C_26
                            x       y       z     vdW  Elec       q    Type
                         _______ _______ _______ _____ _____    ______ ____

>  <TORSDO>
F 4

$$$$
=
 OpenBabel10262421393D

 32 38  0  0  1  0  0  0  0  0999 V2000
  188.1330  178.2980  141.1750 C   0  0  0  0  0  0  0  0  0  0  0  0
  184.4700  177.6790  138.4970 C   0  0  2  0  0  3  0  0  0  0  0  0
  183.0880  178.5790  142.1090 C   0  0  0  0  0  2  0  0  0  0  0  0
  182.8700  176.0730  137.3730 C   0  0  0  0  0  0  0  0  0  0  0  0
  181.5130  175.6210  137.0200 C   0  0  0  0  0  0  0  0  0  0  0  0
  186.7220  178.5360  138.6410 C   0  0  1  0  0  3  0  0  0  0  0  0
  184.9500  179.7440  139.8650 O   0  0  0  0  0  0  0  0  0  0  0  0
  178.9310  174.8420  136.2620 C   0  0  0  0  0  3  0  0  0  0  0  0
  186.6780  178.6720  141.3170 C   0  0  0  0  0  2  0  0  0  0  0  0
  182.5290  178.7020  140.7210 C   0  0  1  0  0  3  0  0  0  0  0  0
  184.5970  178.3720  139.8320 C   0  0  1  0  0  0  0  0  0  0  0  0
  183.7570  177.8370  140.9710 C   0  0  1  0  0  3  0  0  0  0  0  0
  181.8110  178.0810  138.5080 C   0  0  2  0  0  3  0  0  0  0  0  0
  180.0030  173.9600  136.0980 C   0  0  0  0  0  3  0  0  0  0  0  0
  188.6080  177.7350  140.0480 C   0  0  0  0  0  3  0  0  0  0  0  0
  185.9910  178.7980  139.9570 C   0  0  2  0  0  0  0  0  0  0  0  0
  181.2920  174.3490  136.4730 C   0  0  0  0  0  3  0  0  0  0  0  0
  187.7270  177.4130  138.8740 C   0  0  0  0  0  2  0  0  0  0  0  0
  181.6290  177.7280  140.0040 C   0  0  2  0  0  3  0  0  0  0  0  0
  180.6330  177.7600  137.7620 O   0  0  0  0  0  0  0  0  0  0  0  0
  185.6500  178.0980  137.6380 C   0  0  0  0  0  2  0  0  0  0  0  0
  183.8490  175.2890  137.2400 O   0  0  0  0  0  0  0  0  0  0  0  0
  179.1440  176.1100  136.8100 C   0  0  0  0  0  3  0  0  0  0  0  0
  183.0890  177.5040  137.8100 C   0  0  1  0  0  3  0  0  0  0  0  0
  180.4300  176.4970  137.1990 C   0  0  0  0  0  0  0  0  0  0  0  0
  179.8650  176.7130  140.8710 C   0  0  0  0  0  1  0  0  0  0  0  0
  180.3090  177.9510  140.4040 O   0  0  0  0  0  0  0  0  0  0  0  0
  188.9770  178.5550  142.2620 O   0  0  0  0  0  0  0  0  0  0  0  0
  188.9390  177.8040  143.4690 C   0  0  0  0  0  2  0  0  0  0  0  0
  188.9770  176.3510  143.1550 C   0  0  0  0  0  0  0  0  0  0  0  0
  187.9200  175.6690  143.2040 O   0  0  0  0  0  0  0  0  0  0  0  0
  190.2130  175.7240  142.8400 N   0  0  0  0  0  1  0  0  0  0  0  0
  1  9  1  0  0  0  0
  1 28  1  0  0  0  0
  2 21  1  6  0  0  0
  2 11  1  0  0  0  0
  5 25  1  0  0  0  0
  5  4  1  0  0  0  0
  6 21  1  6  0  0  0
  6 18  1  0  0  0  0
  6 16  1  0  0  0  0
  7 16  1  0  0  0  0
  8 23  1  0  0  0  0
 10 12  1  0  0  0  0
 10  3  1  1  0  0  0
 11  7  1  6  0  0  0
 11 16  1  0  0  0  0
 11 12  1  0  0  0  0
 12  3  1  1  0  0  0
 13 20  1  6  0  0  0
 13 19  1  0  0  0  0
 14  8  2  0  0  0  0
 14 17  1  0  0  0  0
 15  1  2  0  0  0  0
 16  9  1  1  0  0  0
 17  5  2  0  0  0  0
 18 15  1  0  0  0  0
 19 27  1  1  0  0  0
 19 10  1  0  0  0  0
 22  4  2  0  0  0  0
 23 25  2  0  0  0  0
 24  4  1  1  0  0  0
 24  2  1  0  0  0  0
 24 13  1  0  0  0  0
 25 20  1  0  0  0  0
 27 26  1  0  0  0  0
 28 29  1  0  0  0  0
 30 31  2  0  0  0  0
 30 29  1  0  0  0  0
 32 30  1  0  0  0  0
M  END
>  <MODEL>
9

>  <REMARK>
 VINA RESULT:      -6.2      4.287      6.871
  Name = 
  4 active torsions:
  status: ('A' for Active; 'I' for Inactive)
    1  A    between atoms: C_1  and  C_10
    2  A    between atoms: C_2  and  O_24
    3  A    between atoms: C_10  and  O_24
    4  A    between atoms: O_25  and  C_26
                            x       y       z     vdW  Elec       q    Type
                         _______ _______ _______ _____ _____    ______ ____

>  <TORSDO>
F 4

$$$$
