=
 OpenBabel10262420473D

 28 31  0  0  1  0  0  0  0  0999 V2000
  187.7830  177.5270  145.1320 C   0  0  0  0  0  0  0  0  0  0  0  0
  191.5310  176.7320  147.6990 Cl  0  0  0  0  0  0  0  0  0  0  0  0
  190.4500  177.2920  142.4470 N   0  0  0  0  0  0  0  0  0  0  0  0
  190.3510  177.6000  145.2650 C   0  0  2  0  0  3  0  0  0  0  0  0
  189.1750  177.4190  143.1000 C   0  0  0  0  0  3  0  0  0  0  0  0
  188.9280  176.9570  147.1780 C   0  0  0  0  0  3  0  0  0  0  0  0
  191.5590  177.0290  144.5700 C   0  0  0  0  0  3  0  0  0  0  0  0
  190.1550  177.0480  146.6550 C   0  0  0  0  0  0  0  0  0  0  0  0
  191.5990  176.9400  143.2400 C   0  0  0  0  0  3  0  0  0  0  0  0
  187.7530  177.2630  146.4070 N   0  0  0  0  0  0  0  0  0  0  0  0
  189.0910  177.5080  144.4310 C   0  0  0  0  0  0  0  0  0  0  0  0
  191.6590  176.9130  140.4140 C   0  0  0  0  0  3  0  0  0  0  0  0
  188.9260  177.1920  139.0710 C   0  0  0  0  0  3  0  0  0  0  0  0
  190.9270  175.9360  138.2880 C   0  0  0  0  0  0  0  0  0  0  0  0
  190.5200  177.2990  141.0070 C   0  0  0  0  0  0  0  0  0  0  0  0
  188.3360  179.0490  140.8540 Cl  0  0  0  0  0  0  0  0  0  0  0  0
  189.6070  176.1200  138.3180 C   0  0  0  0  0  3  0  0  0  0  0  0
  189.3370  177.7550  140.2170 C   0  0  0  0  0  0  0  0  0  0  0  0
  191.4810  174.8050  137.5010 C   0  0  0  0  0  1  0  0  0  0  0  0
  191.8680  176.8960  138.9370 C   0  0  0  0  0  2  0  0  0  0  0  0
  186.5180  177.8420  144.4220 C   0  0  0  0  0  0  0  0  0  0  0  0
  186.4610  177.6520  143.0350 C   0  0  0  0  0  3  0  0  0  0  0  0
  184.2220  178.6460  144.3360 C   0  0  0  0  0  0  0  0  0  0  0  0
  185.2980  177.9570  142.3340 C   0  0  0  0  0  3  0  0  0  0  0  0
  185.3640  178.5310  146.5760 C   0  0  0  0  0  1  0  0  0  0  0  0
  185.3760  178.3490  145.0880 C   0  0  0  0  0  0  0  0  0  0  0  0
  182.9880  179.1770  144.9850 C   0  0  0  0  0  1  0  0  0  0  0  0
  184.2150  178.4430  142.9920 N   0  0  0  0  0  0  0  0  0  0  0  0
  1 10  2  0  0  0  0
  3  5  1  0  0  0  0
  3  9  1  0  0  0  0
  4  7  1  6  0  0  0
  4  8  1  0  0  0  0
  5 11  2  0  0  0  0
  8  6  2  0  0  0  0
  8  2  1  0  0  0  0
  9  7  2  0  0  0  0
 10  6  1  0  0  0  0
 11  1  1  0  0  0  0
 11  4  1  0  0  0  0
 12 15  2  0  0  0  0
 13 18  2  0  0  0  0
 14 17  2  0  0  0  0
 14 20  1  0  0  0  0
 15  3  1  0  0  0  0
 17 13  1  0  0  0  0
 18 16  1  0  0  0  0
 18 15  1  0  0  0  0
 19 14  1  0  0  0  0
 20 12  1  0  0  0  0
 21 26  1  0  0  0  0
 21  1  1  0  0  0  0
 22 21  2  0  0  0  0
 23 27  1  0  0  0  0
 23 26  2  0  0  0  0
 24 28  2  0  0  0  0
 24 22  1  0  0  0  0
 26 25  1  0  0  0  0
 28 23  1  0  0  0  0
M  END
>  <MODEL>
1

>  <REMARK>
 VINA RESULT:     -10.3      0.000      0.000
  Name = 
  2 active torsions:
  status: ('A' for Active; 'I' for Inactive)
    1  A    between atoms: C_1  and  C_2
    2  A    between atoms: N_10  and  C_13
                            x       y       z     vdW  Elec       q    Type
                         _______ _______ _______ _____ _____    ______ ____

>  <TORSDO>
F 2

$$$$
=
 OpenBabel10262420473D

 28 31  0  0  1  0  0  0  0  0999 V2000
  187.6020  177.9570  144.8360 C   0  0  0  0  0  0  0  0  0  0  0  0
  183.1300  179.0590  145.0750 Cl  0  0  0  0  0  0  0  0  0  0  0  0
  186.7520  178.2910  141.1560 N   0  0  0  0  0  0  0  0  0  0  0  0
  185.3450  178.0520  143.6070 C   0  0  2  0  0  3  0  0  0  0  0  0
  187.4870  178.1000  142.3770 C   0  0  0  0  0  3  0  0  0  0  0  0
  185.6000  178.6530  145.9880 C   0  0  0  0  0  3  0  0  0  0  0  0
  184.7190  178.6810  142.3890 C   0  0  0  0  0  3  0  0  0  0  0  0
  184.8230  178.6270  144.9010 C   0  0  0  0  0  0  0  0  0  0  0  0
  185.3850  178.7360  141.2350 C   0  0  0  0  0  3  0  0  0  0  0  0
  186.9800  178.2520  145.9410 N   0  0  0  0  0  0  0  0  0  0  0  0
  186.8570  178.0410  143.5550 C   0  0  0  0  0  0  0  0  0  0  0  0
  188.7720  178.4330  139.8760 C   0  0  0  0  0  3  0  0  0  0  0  0
  187.0810  177.2690  137.6100 C   0  0  0  0  0  3  0  0  0  0  0  0
  189.5390  177.1040  137.9640 C   0  0  0  0  0  0  0  0  0  0  0  0
  187.4440  178.2490  139.8920 C   0  0  0  0  0  0  0  0  0  0  0  0
  185.0510  178.7020  138.5050 Cl  0  0  0  0  0  0  0  0  0  0  0  0
  188.4010  176.6230  137.4630 C   0  0  0  0  0  3  0  0  0  0  0  0
  186.6660  178.0250  138.6360 C   0  0  0  0  0  0  0  0  0  0  0  0
  190.7980  176.3430  137.7570 C   0  0  0  0  0  1  0  0  0  0  0  0
  189.6000  178.4360  138.6350 C   0  0  0  0  0  2  0  0  0  0  0  0
  189.0280  177.5430  144.8880 C   0  0  0  0  0  0  0  0  0  0  0  0
  189.7820  177.5840  143.7080 C   0  0  0  0  0  3  0  0  0  0  0  0
  190.9950  176.6870  146.0360 C   0  0  0  0  0  0  0  0  0  0  0  0
  191.1150  177.1820  143.7160 C   0  0  0  0  0  3  0  0  0  0  0  0
  188.9000  177.0620  147.3780 C   0  0  0  0  0  1  0  0  0  0  0  0
  189.6440  177.0850  146.0770 C   0  0  0  0  0  0  0  0  0  0  0  0
  191.7000  176.2030  147.2590 C   0  0  0  0  0  1  0  0  0  0  0  0
  191.6870  176.7470  144.8670 N   0  0  0  0  0  0  0  0  0  0  0  0
  1 21  1  0  0  0  0
  1 10  2  0  0  0  0
  3  9  1  0  0  0  0
  3  5  1  0  0  0  0
  4  7  1  6  0  0  0
  4  8  1  0  0  0  0
  5 11  2  0  0  0  0
  8  2  1  0  0  0  0
  8  6  2  0  0  0  0
  9  7  2  0  0  0  0
 10  6  1  0  0  0  0
 11  4  1  0  0  0  0
 11  1  1  0  0  0  0
 12 15  2  0  0  0  0
 13 18  2  0  0  0  0
 14 20  1  0  0  0  0
 15  3  1  0  0  0  0
 16 18  1  0  0  0  0
 17 13  1  0  0  0  0
 17 14  2  0  0  0  0
 18 15  1  0  0  0  0
 19 14  1  0  0  0  0
 20 12  1  0  0  0  0
 21 26  1  0  0  0  0
 22 24  1  0  0  0  0
 22 21  2  0  0  0  0
 23 26  2  0  0  0  0
 23 27  1  0  0  0  0
 24 28  2  0  0  0  0
 26 25  1  0  0  0  0
 28 23  1  0  0  0  0
M  END
>  <MODEL>
2

>  <REMARK>
 VINA RESULT:     -10.2      2.349      4.835
  Name = 
  2 active torsions:
  status: ('A' for Active; 'I' for Inactive)
    1  A    between atoms: C_1  and  C_2
    2  A    between atoms: N_10  and  C_13
                            x       y       z     vdW  Elec       q    Type
                         _______ _______ _______ _____ _____    ______ ____

>  <TORSDO>
F 2

$$$$
=
 OpenBabel10262420473D

 28 31  0  0  1  0  0  0  0  0999 V2000
  188.8390  177.2620  143.3420 C   0  0  0  0  0  0  0  0  0  0  0  0
  191.3520  176.8600  139.4960 Cl  0  0  0  0  0  0  0  0  0  0  0  0
  186.3780  178.5210  140.7480 N   0  0  0  0  0  0  0  0  0  0  0  0
  189.1620  178.0020  140.9010 C   0  0  2  0  0  3  0  0  0  0  0  0
  186.9520  178.1060  141.9990 C   0  0  0  0  0  3  0  0  0  0  0  0
  190.7320  176.4900  142.0610 C   0  0  0  0  0  3  0  0  0  0  0  0
  188.4250  178.0020  139.5870 C   0  0  0  0  0  3  0  0  0  0  0  0
  190.3380  177.0570  140.9160 C   0  0  0  0  0  0  0  0  0  0  0  0
  187.1260  178.2970  139.5370 C   0  0  0  0  0  3  0  0  0  0  0  0
  189.9920  176.6590  143.2820 N   0  0  0  0  0  0  0  0  0  0  0  0
  188.2500  177.7990  142.0910 C   0  0  0  0  0  0  0  0  0  0  0  0
  184.4360  179.1640  139.5020 C   0  0  0  0  0  3  0  0  0  0  0  0
  182.9640  178.8070  142.1580 C   0  0  0  0  0  3  0  0  0  0  0  0
  182.0730  178.6080  139.8440 C   0  0  0  0  0  0  0  0  0  0  0  0
  185.0010  178.9440  140.6980 C   0  0  0  0  0  0  0  0  0  0  0  0
  185.1010  179.7740  143.3730 Cl  0  0  0  0  0  0  0  0  0  0  0  0
  182.0270  178.2950  141.1380 C   0  0  0  0  0  3  0  0  0  0  0  0
  184.2480  179.1460  141.9720 C   0  0  0  0  0  0  0  0  0  0  0  0
  181.0770  178.0060  138.9200 C   0  0  0  0  0  1  0  0  0  0  0  0
  183.0290  179.6240  139.3150 C   0  0  0  0  0  2  0  0  0  0  0  0
  188.1530  177.3970  144.6530 C   0  0  0  0  0  0  0  0  0  0  0  0
  186.7590  177.2640  144.6980 C   0  0  0  0  0  3  0  0  0  0  0  0
  188.1220  177.8170  147.0490 C   0  0  0  0  0  0  0  0  0  0  0  0
  186.0820  177.4060  145.9060 C   0  0  0  0  0  3  0  0  0  0  0  0
  190.3460  177.7890  145.8720 C   0  0  0  0  0  1  0  0  0  0  0  0
  188.8510  177.6800  145.8520 C   0  0  0  0  0  0  0  0  0  0  0  0
  188.8040  178.1090  148.3440 C   0  0  0  0  0  1  0  0  0  0  0  0
  186.7700  177.6780  147.0430 N   0  0  0  0  0  0  0  0  0  0  0  0
  1 21  1  0  0  0  0
  2  8  1  0  0  0  0
  3  5  1  0  0  0  0
  4  7  1  6  0  0  0
  4  8  1  0  0  0  0
  4 11  1  0  0  0  0
  5 11  2  0  0  0  0
  6 10  1  0  0  0  0
  8  6  2  0  0  0  0
  9  7  2  0  0  0  0
  9  3  1  0  0  0  0
 10  1  2  0  0  0  0
 11  1  1  0  0  0  0
 12 15  2  0  0  0  0
 14 17  2  0  0  0  0
 15  3  1  0  0  0  0
 15 18  1  0  0  0  0
 17 13  1  0  0  0  0
 18 13  2  0  0  0  0
 18 16  1  0  0  0  0
 19 14  1  0  0  0  0
 20 12  1  0  0  0  0
 20 14  1  0  0  0  0
 21 22  2  0  0  0  0
 21 26  1  0  0  0  0
 22 24  1  0  0  0  0
 23 27  1  0  0  0  0
 24 28  2  0  0  0  0
 26 25  1  0  0  0  0
 26 23  2  0  0  0  0
 28 23  1  0  0  0  0
M  END
>  <MODEL>
3

>  <REMARK>
 VINA RESULT:      -9.8      2.481      5.911
  Name = 
  2 active torsions:
  status: ('A' for Active; 'I' for Inactive)
    1  A    between atoms: C_1  and  C_2
    2  A    between atoms: N_10  and  C_13
                            x       y       z     vdW  Elec       q    Type
                         _______ _______ _______ _____ _____    ______ ____

>  <TORSDO>
F 2

$$$$
=
 OpenBabel10262420473D

 28 31  0  0  1  0  0  0  0  0999 V2000
  189.0110  177.6870  143.4380 C   0  0  0  0  0  0  0  0  0  0  0  0
  187.5520  177.7980  147.8110 Cl  0  0  0  0  0  0  0  0  0  0  0  0
  185.3200  178.3950  142.9410 N   0  0  0  0  0  0  0  0  0  0  0  0
  187.0060  177.5030  145.0390 C   0  0  2  0  0  3  0  0  0  0  0  0
  186.7160  178.1760  142.6800 C   0  0  0  0  0  3  0  0  0  0  0  0
  189.3300  177.7750  145.8280 C   0  0  0  0  0  3  0  0  0  0  0  0
  185.6820  178.1670  145.3110 C   0  0  0  0  0  3  0  0  0  0  0  0
  188.0270  177.7550  146.1210 C   0  0  0  0  0  0  0  0  0  0  0  0
  184.8860  178.5330  144.3070 C   0  0  0  0  0  3  0  0  0  0  0  0
  189.8020  177.6770  144.4730 N   0  0  0  0  0  0  0  0  0  0  0  0
  187.5490  177.8100  143.6600 C   0  0  0  0  0  0  0  0  0  0  0  0
  184.9470  179.0290  140.6600 C   0  0  0  0  0  3  0  0  0  0  0  0
  182.0670  178.1460  141.1830 C   0  0  0  0  0  3  0  0  0  0  0  0
  183.3110  178.2090  139.0300 C   0  0  0  0  0  0  0  0  0  0  0  0
  184.4260  178.6890  141.8480 C   0  0  0  0  0  0  0  0  0  0  0  0
  182.3040  179.1200  143.6270 Cl  0  0  0  0  0  0  0  0  0  0  0  0
  182.3500  177.7050  139.8030 C   0  0  0  0  0  3  0  0  0  0  0  0
  182.9500  178.6280  142.0700 C   0  0  0  0  0  0  0  0  0  0  0  0
  183.5000  177.6600  137.6620 C   0  0  0  0  0  1  0  0  0  0  0  0
  184.1330  179.3780  139.4600 C   0  0  0  0  0  2  0  0  0  0  0  0
  189.5900  177.5710  142.0750 C   0  0  0  0  0  0  0  0  0  0  0  0
  188.7190  177.5030  140.9790 C   0  0  0  0  0  3  0  0  0  0  0  0
  191.4510  177.3680  140.5210 C   0  0  0  0  0  0  0  0  0  0  0  0
  189.2270  177.3720  139.6900 C   0  0  0  0  0  3  0  0  0  0  0  0
  191.9640  177.6160  142.9720 C   0  0  0  0  0  1  0  0  0  0  0  0
  190.9850  177.5030  141.8440 C   0  0  0  0  0  0  0  0  0  0  0  0
  192.9100  177.2980  140.2160 C   0  0  0  0  0  1  0  0  0  0  0  0
  190.5680  177.3080  139.4900 N   0  0  0  0  0  0  0  0  0  0  0  0
  1 11  1  0  0  0  0
  1 10  2  0  0  0  0
  3  9  1  0  0  0  0
  4  7  1  1  0  0  0
  4  8  1  0  0  0  0
  5  3  1  0  0  0  0
  5 11  2  0  0  0  0
  6  8  2  0  0  0  0
  8  2  1  0  0  0  0
  9  7  2  0  0  0  0
 10  6  1  0  0  0  0
 11  4  1  0  0  0  0
 12 15  2  0  0  0  0
 13 18  2  0  0  0  0
 14 20  1  0  0  0  0
 14 17  2  0  0  0  0
 15 18  1  0  0  0  0
 15  3  1  0  0  0  0
 17 13  1  0  0  0  0
 18 16  1  0  0  0  0
 19 14  1  0  0  0  0
 20 12  1  0  0  0  0
 21  1  1  0  0  0  0
 22 21  2  0  0  0  0
 23 26  2  0  0  0  0
 24 22  1  0  0  0  0
 26 21  1  0  0  0  0
 26 25  1  0  0  0  0
 27 23  1  0  0  0  0
 28 24  2  0  0  0  0
 28 23  1  0  0  0  0
M  END
>  <MODEL>
4

>  <REMARK>
 VINA RESULT:      -9.5      2.524      6.141
  Name = 
  2 active torsions:
  status: ('A' for Active; 'I' for Inactive)
    1  A    between atoms: C_1  and  C_2
    2  A    between atoms: N_10  and  C_13
                            x       y       z     vdW  Elec       q    Type
                         _______ _______ _______ _____ _____    ______ ____

>  <TORSDO>
F 2

$$$$
=
 OpenBabel10262420473D

 28 31  0  0  1  0  0  0  0  0999 V2000
  183.1600  178.2850  140.8770 C   0  0  0  0  0  0  0  0  0  0  0  0
  180.4550  179.5860  144.3790 Cl  0  0  0  0  0  0  0  0  0  0  0  0
  185.5700  177.9880  143.7880 N   0  0  0  0  0  0  0  0  0  0  0  0
  183.0460  179.1790  143.2860 C   0  0  2  0  0  3  0  0  0  0  0  0
  185.0130  177.9300  142.4650 C   0  0  0  0  0  3  0  0  0  0  0  0
  181.0380  178.8150  141.8960 C   0  0  0  0  0  3  0  0  0  0  0  0
  183.4850  178.8060  144.6770 C   0  0  0  0  0  3  0  0  0  0  0  0
  181.5510  179.0950  143.0980 C   0  0  0  0  0  0  0  0  0  0  0  0
  184.6970  178.2920  144.8920 C   0  0  0  0  0  3  0  0  0  0  0  0
  181.8740  178.4690  140.7780 N   0  0  0  0  0  0  0  0  0  0  0  0
  183.8000  178.4320  142.2080 C   0  0  0  0  0  0  0  0  0  0  0  0
  187.5550  176.8790  143.0330 C   0  0  0  0  0  3  0  0  0  0  0  0
  188.8470  178.1180  145.5120 C   0  0  0  0  0  3  0  0  0  0  0  0
  189.9160  177.4450  143.3680 C   0  0  0  0  0  0  0  0  0  0  0  0
  186.9180  177.5310  144.0170 C   0  0  0  0  0  0  0  0  0  0  0  0
  186.5710  177.7190  146.7910 Cl  0  0  0  0  0  0  0  0  0  0  0  0
  189.8860  178.2000  144.4660 C   0  0  0  0  0  3  0  0  0  0  0  0
  187.5620  177.7760  145.3430 C   0  0  0  0  0  0  0  0  0  0  0  0
  191.0130  177.6430  142.3850 C   0  0  0  0  0  1  0  0  0  0  0  0
  188.9400  176.3380  143.1500 C   0  0  0  0  0  2  0  0  0  0  0  0
  183.9430  177.9400  139.6640 C   0  0  0  0  0  0  0  0  0  0  0  0
  184.9890  178.7880  139.2760 C   0  0  0  0  0  3  0  0  0  0  0  0
  184.4340  176.5600  137.7200 C   0  0  0  0  0  0  0  0  0  0  0  0
  185.7300  178.5060  138.1320 C   0  0  0  0  0  3  0  0  0  0  0  0
  182.5800  175.8360  139.2610 C   0  0  0  0  0  1  0  0  0  0  0  0
  183.6580  176.8020  138.8710 C   0  0  0  0  0  0  0  0  0  0  0  0
  184.1840  175.3740  136.8510 C   0  0  0  0  0  1  0  0  0  0  0  0
  185.4400  177.4110  137.3860 N   0  0  0  0  0  0  0  0  0  0  0  0
  1 11  1  0  0  0  0
  3 15  1  0  0  0  0
  3  9  1  0  0  0  0
  4  7  1  1  0  0  0
  5  3  1  0  0  0  0
  6  8  2  0  0  0  0
  7  9  2  0  0  0  0
  8  4  1  0  0  0  0
  8  2  1  0  0  0  0
 10  1  2  0  0  0  0
 10  6  1  0  0  0  0
 11  5  2  0  0  0  0
 11  4  1  0  0  0  0
 12 20  1  0  0  0  0
 12 15  2  0  0  0  0
 14 17  2  0  0  0  0
 15 18  1  0  0  0  0
 17 13  1  0  0  0  0
 18 13  2  0  0  0  0
 18 16  1  0  0  0  0
 19 14  1  0  0  0  0
 20 14  1  0  0  0  0
 21  1  1  0  0  0  0
 22 21  1  0  0  0  0
 23 26  1  0  0  0  0
 24 22  2  0  0  0  0
 26 25  1  0  0  0  0
 26 21  2  0  0  0  0
 27 23  1  0  0  0  0
 28 23  2  0  0  0  0
 28 24  1  0  0  0  0
M  END
>  <MODEL>
5

>  <REMARK>
 VINA RESULT:      -9.3      3.335      6.871
  Name = 
  2 active torsions:
  status: ('A' for Active; 'I' for Inactive)
    1  A    between atoms: C_1  and  C_2
    2  A    between atoms: N_10  and  C_13
                            x       y       z     vdW  Elec       q    Type
                         _______ _______ _______ _____ _____    ______ ____

>  <TORSDO>
F 2

$$$$
=
 OpenBabel10262420473D

 28 31  0  0  1  0  0  0  0  0999 V2000
  188.0090  178.0340  140.2780 C   0  0  0  0  0  0  0  0  0  0  0  0
  183.7930  178.9680  138.6600 Cl  0  0  0  0  0  0  0  0  0  0  0  0
  186.0170  178.1490  143.5020 N   0  0  0  0  0  0  0  0  0  0  0  0
  185.6590  178.9390  140.8010 C   0  0  2  0  0  3  0  0  0  0  0  0
  187.0990  177.9880  142.5690 C   0  0  0  0  0  3  0  0  0  0  0  0
  186.3570  178.2550  138.5340 C   0  0  0  0  0  3  0  0  0  0  0  0
  184.4900  178.6580  141.7090 C   0  0  0  0  0  3  0  0  0  0  0  0
  185.3700  178.6280  139.3540 C   0  0  0  0  0  0  0  0  0  0  0  0
  184.6850  178.3360  142.9880 C   0  0  0  0  0  3  0  0  0  0  0  0
  187.6920  178.0220  139.0150 N   0  0  0  0  0  0  0  0  0  0  0  0
  186.9440  178.2970  141.2780 C   0  0  0  0  0  0  0  0  0  0  0  0
  187.2770  177.1360  145.2700 C   0  0  0  0  0  3  0  0  0  0  0  0
  185.6810  179.0020  147.0920 C   0  0  0  0  0  3  0  0  0  0  0  0
  187.9380  178.0210  147.4590 C   0  0  0  0  0  0  0  0  0  0  0  0
  186.2400  177.9040  144.9050 C   0  0  0  0  0  0  0  0  0  0  0  0
  183.6010  178.6280  145.5080 Cl  0  0  0  0  0  0  0  0  0  0  0  0
  187.0380  178.9800  147.6740 C   0  0  0  0  0  3  0  0  0  0  0  0
  185.3040  178.4910  145.9110 C   0  0  0  0  0  0  0  0  0  0  0  0
  189.2760  178.1300  148.0940 C   0  0  0  0  0  1  0  0  0  0  0  0
  187.6030  176.7900  146.6840 C   0  0  0  0  0  2  0  0  0  0  0  0
  189.4190  177.7920  140.6800 C   0  0  0  0  0  0  0  0  0  0  0  0
  189.7540  177.8790  142.0370 C   0  0  0  0  0  3  0  0  0  0  0  0
  191.7550  177.3090  140.2030 C   0  0  0  0  0  0  0  0  0  0  0  0
  191.0700  177.6790  142.4460 C   0  0  0  0  0  3  0  0  0  0  0  0
  190.1300  177.3520  138.2820 C   0  0  0  0  0  1  0  0  0  0  0  0
  190.4380  177.5020  139.7420 C   0  0  0  0  0  0  0  0  0  0  0  0
  192.8690  176.9940  139.2620 C   0  0  0  0  0  1  0  0  0  0  0  0
  192.0320  177.4020  141.5300 N   0  0  0  0  0  0  0  0  0  0  0  0
  1 21  1  0  0  0  0
  1 11  1  0  0  0  0
  2  8  1  0  0  0  0
  3 15  1  0  0  0  0
  4 11  1  0  0  0  0
  4  7  1  1  0  0  0
  5  3  1  0  0  0  0
  6 10  1  0  0  0  0
  6  8  2  0  0  0  0
  7  9  2  0  0  0  0
  8  4  1  0  0  0  0
  9  3  1  0  0  0  0
 10  1  2  0  0  0  0
 11  5  2  0  0  0  0
 12 20  1  0  0  0  0
 13 17  1  0  0  0  0
 14 17  2  0  0  0  0
 14 19  1  0  0  0  0
 15 12  2  0  0  0  0
 15 18  1  0  0  0  0
 16 18  1  0  0  0  0
 18 13  2  0  0  0  0
 20 14  1  0  0  0  0
 21 22  1  0  0  0  0
 22 24  2  0  0  0  0
 23 28  2  0  0  0  0
 25 26  1  0  0  0  0
 26 23  1  0  0  0  0
 26 21  2  0  0  0  0
 27 23  1  0  0  0  0
 28 24  1  0  0  0  0
M  END
>  <MODEL>
6

>  <REMARK>
 VINA RESULT:      -9.3      2.492      7.857
  Name = 
  2 active torsions:
  status: ('A' for Active; 'I' for Inactive)
    1  A    between atoms: C_1  and  C_2
    2  A    between atoms: N_10  and  C_13
                            x       y       z     vdW  Elec       q    Type
                         _______ _______ _______ _____ _____    ______ ____

>  <TORSDO>
F 2

$$$$
=
 OpenBabel10262420473D

 28 31  0  0  1  0  0  0  0  0999 V2000
  189.9410  177.5230  140.3840 C   0  0  0  0  0  0  0  0  0  0  0  0
  190.8580  176.6650  144.8210 Cl  0  0  0  0  0  0  0  0  0  0  0  0
  186.5600  178.2080  141.9570 N   0  0  0  0  0  0  0  0  0  0  0  0
  188.9880  176.9440  142.7020 C   0  0  2  0  0  3  0  0  0  0  0  0
  187.6200  178.0910  140.9930 C   0  0  0  0  0  3  0  0  0  0  0  0
  191.4100  177.1140  142.2540 C   0  0  0  0  0  3  0  0  0  0  0  0
  188.0320  177.4960  143.7270 C   0  0  0  0  0  3  0  0  0  0  0  0
  190.4270  176.9940  143.1520 C   0  0  0  0  0  0  0  0  0  0  0  0
  186.8740  178.0410  143.3520 C   0  0  0  0  0  3  0  0  0  0  0  0
  191.1380  177.3190  140.8570 N   0  0  0  0  0  0  0  0  0  0  0  0
  188.7970  177.5520  141.3290 C   0  0  0  0  0  0  0  0  0  0  0  0
  185.0400  178.8920  140.2360 C   0  0  0  0  0  3  0  0  0  0  0  0
  182.9240  178.7340  142.4380 C   0  0  0  0  0  3  0  0  0  0  0  0
  182.6380  178.4750  139.9790 C   0  0  0  0  0  0  0  0  0  0  0  0
  185.2690  178.6980  141.5430 C   0  0  0  0  0  0  0  0  0  0  0  0
  184.7390  179.6440  144.1270 Cl  0  0  0  0  0  0  0  0  0  0  0  0
  182.2470  178.2250  141.2280 C   0  0  0  0  0  3  0  0  0  0  0  0
  184.2320  178.9970  142.5760 C   0  0  0  0  0  0  0  0  0  0  0  0
  181.8740  177.8850  138.8500 C   0  0  0  0  0  1  0  0  0  0  0  0
  183.7580  179.4160  139.6810 C   0  0  0  0  0  2  0  0  0  0  0  0
  189.7560  177.7150  138.9230 C   0  0  0  0  0  0  0  0  0  0  0  0
  189.1490  178.8940  138.4730 C   0  0  0  0  0  3  0  0  0  0  0  0
  189.9150  176.9920  136.6050 C   0  0  0  0  0  0  0  0  0  0  0  0
  188.9400  179.0980  137.1110 C   0  0  0  0  0  3  0  0  0  0  0  0
  190.8430  175.4830  138.3920 C   0  0  0  0  0  1  0  0  0  0  0  0
  190.1480  176.7430  137.9720 C   0  0  0  0  0  0  0  0  0  0  0  0
  190.3120  176.0070  135.5570 C   0  0  0  0  0  1  0  0  0  0  0  0
  189.3230  178.1520  136.2160 N   0  0  0  0  0  0  0  0  0  0  0  0
  1 10  2  0  0  0  0
  1 11  1  0  0  0  0
  3  9  1  0  0  0  0
  4  8  1  0  0  0  0
  4  7  1  1  0  0  0
  5 11  2  0  0  0  0
  5  3  1  0  0  0  0
  6  8  2  0  0  0  0
  8  2  1  0  0  0  0
  9  7  2  0  0  0  0
 10  6  1  0  0  0  0
 11  4  1  0  0  0  0
 12 15  2  0  0  0  0
 13 18  2  0  0  0  0
 14 17  2  0  0  0  0
 15  3  1  0  0  0  0
 15 18  1  0  0  0  0
 17 13  1  0  0  0  0
 18 16  1  0  0  0  0
 19 14  1  0  0  0  0
 20 14  1  0  0  0  0
 20 12  1  0  0  0  0
 21  1  1  0  0  0  0
 22 21  1  0  0  0  0
 23 26  1  0  0  0  0
 24 22  2  0  0  0  0
 26 25  1  0  0  0  0
 26 21  2  0  0  0  0
 27 23  1  0  0  0  0
 28 23  2  0  0  0  0
 28 24  1  0  0  0  0
M  END
>  <MODEL>
7

>  <REMARK>
 VINA RESULT:      -9.2      2.604      6.866
  Name = 
  2 active torsions:
  status: ('A' for Active; 'I' for Inactive)
    1  A    between atoms: C_1  and  C_2
    2  A    between atoms: N_10  and  C_13
                            x       y       z     vdW  Elec       q    Type
                         _______ _______ _______ _____ _____    ______ ____

>  <TORSDO>
F 2

$$$$
=
 OpenBabel10262420473D

 28 31  0  0  1  0  0  0  0  0999 V2000
  186.3770  178.1620  141.7040 C   0  0  0  0  0  0  0  0  0  0  0  0
  182.6630  178.6960  144.3850 Cl  0  0  0  0  0  0  0  0  0  0  0  0
  187.9660  178.1010  145.1450 N   0  0  0  0  0  0  0  0  0  0  0  0
  185.4750  178.8460  144.0130 C   0  0  2  0  0  3  0  0  0  0  0  0
  187.7910  178.0380  143.7200 C   0  0  0  0  0  3  0  0  0  0  0  0
  184.0030  178.2230  142.1310 C   0  0  0  0  0  3  0  0  0  0  0  0
  185.6060  178.4610  145.4630 C   0  0  0  0  0  3  0  0  0  0  0  0
  184.1250  178.5060  143.4320 C   0  0  0  0  0  0  0  0  0  0  0  0
  186.7970  178.1620  145.9830 C   0  0  0  0  0  3  0  0  0  0  0  0
  185.1500  178.1160  141.2700 N   0  0  0  0  0  0  0  0  0  0  0  0
  186.6120  178.3280  143.1600 C   0  0  0  0  0  0  0  0  0  0  0  0
  189.3610  177.4630  146.9860 C   0  0  0  0  0  3  0  0  0  0  0  0
  191.5950  177.3890  144.8990 C   0  0  0  0  0  3  0  0  0  0  0  0
  191.4140  176.1260  147.0360 C   0  0  0  0  0  0  0  0  0  0  0  0
  189.2720  177.8820  145.7150 C   0  0  0  0  0  0  0  0  0  0  0  0
  190.4620  179.4750  143.7400 Cl  0  0  0  0  0  0  0  0  0  0  0  0
  191.8750  176.2460  145.7910 C   0  0  0  0  0  3  0  0  0  0  0  0
  190.4880  178.1470  144.8880 C   0  0  0  0  0  0  0  0  0  0  0  0
  191.7600  174.9120  147.8200 C   0  0  0  0  0  1  0  0  0  0  0  0
  190.6490  177.2220  147.6990 C   0  0  0  0  0  2  0  0  0  0  0  0
  187.4980  178.0520  140.7360 C   0  0  0  0  0  0  0  0  0  0  0  0
  188.7790  177.7610  141.2230 C   0  0  0  0  0  3  0  0  0  0  0  0
  188.4470  178.1570  138.4980 C   0  0  0  0  0  0  0  0  0  0  0  0
  189.8570  177.6720  140.3460 C   0  0  0  0  0  3  0  0  0  0  0  0
  185.9720  178.5250  138.7630 C   0  0  0  0  0  1  0  0  0  0  0  0
  187.3260  178.2550  139.3450 C   0  0  0  0  0  0  0  0  0  0  0  0
  188.3260  178.3540  137.0240 C   0  0  0  0  0  1  0  0  0  0  0  0
  189.6700  177.8710  139.0170 N   0  0  0  0  0  0  0  0  0  0  0  0
  1 11  1  0  0  0  0
  3 15  1  0  0  0  0
  3  9  1  0  0  0  0
  4  7  1  1  0  0  0
  5  3  1  0  0  0  0
  6  8  2  0  0  0  0
  7  9  2  0  0  0  0
  8  4  1  0  0  0  0
  8  2  1  0  0  0  0
 10  1  2  0  0  0  0
 10  6  1  0  0  0  0
 11  5  2  0  0  0  0
 11  4  1  0  0  0  0
 12 20  1  0  0  0  0
 13 17  1  0  0  0  0
 14 20  1  0  0  0  0
 14 19  1  0  0  0  0
 15 12  2  0  0  0  0
 16 18  1  0  0  0  0
 17 14  2  0  0  0  0
 18 13  2  0  0  0  0
 18 15  1  0  0  0  0
 21 22  1  0  0  0  0
 21  1  1  0  0  0  0
 23 28  2  0  0  0  0
 23 26  1  0  0  0  0
 24 22  2  0  0  0  0
 25 26  1  0  0  0  0
 26 21  2  0  0  0  0
 27 23  1  0  0  0  0
 28 24  1  0  0  0  0
M  END
>  <MODEL>
8

>  <REMARK>
 VINA RESULT:      -9.2      2.169      6.476
  Name = 
  2 active torsions:
  status: ('A' for Active; 'I' for Inactive)
    1  A    between atoms: C_1  and  C_2
    2  A    between atoms: N_10  and  C_13
                            x       y       z     vdW  Elec       q    Type
                         _______ _______ _______ _____ _____    ______ ____

>  <TORSDO>
F 2

$$$$
=
 OpenBabel10262420473D

 28 31  0  0  1  0  0  0  0  0999 V2000
  187.2720  178.1160  143.3190 C   0  0  0  0  0  0  0  0  0  0  0  0
  189.0620  178.1700  139.0690 Cl  0  0  0  0  0  0  0  0  0  0  0  0
  184.1230  178.3540  141.2210 N   0  0  0  0  0  0  0  0  0  0  0  0
  186.9110  178.7130  140.8430 C   0  0  2  0  0  3  0  0  0  0  0  0
  185.0090  178.2370  142.3470 C   0  0  0  0  0  3  0  0  0  0  0  0
  189.0530  177.8470  141.7130 C   0  0  0  0  0  3  0  0  0  0  0  0
  185.9900  178.3810  139.6980 C   0  0  0  0  0  3  0  0  0  0  0  0
  188.3060  178.1710  140.6530 C   0  0  0  0  0  0  0  0  0  0  0  0
  184.6760  178.2660  139.8940 C   0  0  0  0  0  3  0  0  0  0  0  0
  188.5260  177.8870  143.0510 N   0  0  0  0  0  0  0  0  0  0  0  0
  186.3330  178.3440  142.1920 C   0  0  0  0  0  0  0  0  0  0  0  0
  182.1880  179.0030  142.4770 C   0  0  0  0  0  3  0  0  0  0  0  0
  180.6250  177.9730  140.0590 C   0  0  0  0  0  3  0  0  0  0  0  0
  179.9640  179.7030  141.7210 C   0  0  0  0  0  0  0  0  0  0  0  0
  182.6960  178.3370  141.4290 C   0  0  0  0  0  0  0  0  0  0  0  0
  182.4320  176.0620  139.8140 Cl  0  0  0  0  0  0  0  0  0  0  0  0
  179.8860  179.1720  140.5010 C   0  0  0  0  0  3  0  0  0  0  0  0
  181.8270  177.5640  140.4920 C   0  0  0  0  0  0  0  0  0  0  0  0
  179.1780  180.9260  142.0280 C   0  0  0  0  0  1  0  0  0  0  0  0
  180.7360  179.0450  142.8150 C   0  0  0  0  0  2  0  0  0  0  0  0
  186.8210  178.1480  144.7340 C   0  0  0  0  0  0  0  0  0  0  0  0
  185.5130  178.5650  145.0120 C   0  0  0  0  0  3  0  0  0  0  0  0
  187.1720  177.8770  147.1260 C   0  0  0  0  0  0  0  0  0  0  0  0
  185.0650  178.6270  146.3290 C   0  0  0  0  0  3  0  0  0  0  0  0
  189.0640  177.3000  145.5700 C   0  0  0  0  0  1  0  0  0  0  0  0
  187.6700  177.7960  145.8110 C   0  0  0  0  0  0  0  0  0  0  0  0
  188.0180  177.5130  148.3000 C   0  0  0  0  0  1  0  0  0  0  0  0
  185.8950  178.2860  147.3470 N   0  0  0  0  0  0  0  0  0  0  0  0
  1 21  1  0  0  0  0
  2  8  1  0  0  0  0
  3 15  1  0  0  0  0
  3  5  1  0  0  0  0
  4  7  1  6  0  0  0
  4 11  1  0  0  0  0
  6 10  1  0  0  0  0
  7  9  2  0  0  0  0
  8  4  1  0  0  0  0
  8  6  2  0  0  0  0
  9  3  1  0  0  0  0
 10  1  2  0  0  0  0
 11  5  2  0  0  0  0
 11  1  1  0  0  0  0
 12 20  1  0  0  0  0
 13 18  2  0  0  0  0
 13 17  1  0  0  0  0
 14 19  1  0  0  0  0
 14 20  1  0  0  0  0
 15 12  2  0  0  0  0
 16 18  1  0  0  0  0
 17 14  2  0  0  0  0
 18 15  1  0  0  0  0
 21 22  2  0  0  0  0
 21 26  1  0  0  0  0
 22 24  1  0  0  0  0
 23 28  1  0  0  0  0
 23 27  1  0  0  0  0
 24 28  2  0  0  0  0
 25 26  1  0  0  0  0
 26 23  2  0  0  0  0
M  END
>  <MODEL>
9

>  <REMARK>
 VINA RESULT:      -9.1      2.925      7.215
  Name = 
  2 active torsions:
  status: ('A' for Active; 'I' for Inactive)
    1  A    between atoms: C_1  and  C_2
    2  A    between atoms: N_10  and  C_13
                            x       y       z     vdW  Elec       q    Type
                         _______ _______ _______ _____ _____    ______ ____

>  <TORSDO>
F 2

$$$$
