=
 OpenBabel10262419303D

 31 34  0  0  1  0  0  0  0  0999 V2000
  188.1480  177.7790  136.3410 C   0  0  0  0  0  0  0  0  0  0  0  0
  190.4590  177.0620  139.2220 N   0  0  0  0  0  0  0  0  0  0  0  0
  189.2950  177.4650  138.4640 C   0  0  0  0  0  0  0  0  0  0  0  0
  187.0200  178.2500  137.0140 C   0  0  0  0  0  3  0  0  0  0  0  0
  189.1440  177.1540  141.2910 C   0  0  1  0  0  3  0  0  0  0  0  0
  188.1470  177.6770  134.5940 Cl  0  0  0  0  0  0  0  0  0  0  0  0
  188.1440  178.0980  140.6270 C   0  0  0  0  0  2  0  0  0  0  0  0
  190.5160  177.3430  140.6590 C   0  0  0  0  0  2  0  0  0  0  0  0
  189.2810  177.3920  137.0600 C   0  0  0  0  0  3  0  0  0  0  0  0
  188.1480  177.9360  139.1360 C   0  0  0  0  0  0  0  0  0  0  0  0
  187.0210  178.3340  138.4080 C   0  0  0  0  0  3  0  0  0  0  0  0
  191.5810  176.4050  138.6050 C   0  0  0  0  0  0  0  0  0  0  0  0
  193.9010  176.4270  138.0020 N   0  0  0  0  0  0  0  0  0  0  0  0
  192.8370  177.0260  138.5980 C   0  0  0  0  0  3  0  0  0  0  0  0
  193.7860  175.2170  137.3940 C   0  0  0  0  0  3  0  0  0  0  0  0
  192.5580  174.5580  137.3750 C   0  0  0  0  0  3  0  0  0  0  0  0
  191.4410  175.1480  137.9850 C   0  0  0  0  0  0  0  0  0  0  0  0
  190.1980  174.5020  137.9940 O   0  0  0  0  0  0  0  0  0  0  0  0
  188.3800  174.0420  136.4790 C   0  0  0  0  0  1  0  0  0  0  0  0
  189.7590  173.6300  136.9580 C   0  0  0  0  0  2  0  0  0  0  0  0
  187.5680  175.9090  143.3070 O   0  0  0  0  0  0  0  0  0  0  0  0
  188.3920  176.7870  143.6840 C   0  0  0  0  0  0  0  0  0  0  0  0
  189.2250  177.4370  142.7160 N   0  0  0  0  0  2  0  0  0  0  0  0
  188.6370  177.8570  147.8350 C   0  0  0  0  0  0  0  0  0  0  0  0
  187.3640  177.5860  145.7970 C   0  0  0  0  0  3  0  0  0  0  0  0
  190.9020  176.6440  145.1990 O   0  0  0  0  0  1  0  0  0  0  0  0
  188.7140  178.2980  149.5270 Cl  0  0  0  0  0  0  0  0  0  0  0  0
  187.4250  177.9380  147.1480 C   0  0  0  0  0  3  0  0  0  0  0  0
  189.7340  177.0700  145.8200 C   0  0  0  0  0  0  0  0  0  0  0  0
  188.5110  177.1490  145.1160 C   0  0  0  0  0  0  0  0  0  0  0  0
  189.7860  177.4240  147.1730 C   0  0  0  0  0  3  0  0  0  0  0  0
  1  4  2  0  0  0  0
  1  9  1  0  0  0  0
  2  8  1  0  0  0  0
  3 10  1  0  0  0  0
  3  2  1  0  0  0  0
  4 11  1  0  0  0  0
  5 23  1  1  0  0  0
  6  1  1  0  0  0  0
  7  5  1  0  0  0  0
  8  5  1  0  0  0  0
  9  3  2  0  0  0  0
 10  7  1  0  0  0  0
 11 10  2  0  0  0  0
 12  2  1  0  0  0  0
 13 14  2  0  0  0  0
 14 12  1  0  0  0  0
 15 13  1  0  0  0  0
 16 15  2  0  0  0  0
 16 17  1  0  0  0  0
 17 18  1  0  0  0  0
 17 12  2  0  0  0  0
 19 20  1  0  0  0  0
 20 18  1  0  0  0  0
 21 22  2  0  0  0  0
 22 30  1  0  0  0  0
 23 22  1  0  0  0  0
 24 27  1  0  0  0  0
 25 28  1  0  0  0  0
 26 29  1  0  0  0  0
 28 24  2  0  0  0  0
 29 31  2  0  0  0  0
 30 25  2  0  0  0  0
 30 29  1  0  0  0  0
 31 24  1  0  0  0  0
M  END
>  <MODEL>
1

>  <REMARK>
 VINA RESULT:      -8.2      0.000      0.000
  Name = 
  5 active torsions:
  status: ('A' for Active; 'I' for Inactive)
    1  A    between atoms: N_4  and  C_5
    2  A    between atoms: C_9  and  C_22
    3  A    between atoms: C_15  and  N_23
    4  A    between atoms: C_29  and  O_31
    5  A    between atoms: C_30  and  O_31
                            x       y       z     vdW  Elec       q    Type
                         _______ _______ _______ _____ _____    ______ ____

>  <TORSDO>
F 5

$$$$
=
 OpenBabel10262419303D

 31 34  0  0  1  0  0  0  0  0999 V2000
  188.0920  178.2500  147.5710 C   0  0  0  0  0  0  0  0  0  0  0  0
  187.7890  177.5430  143.8880 N   0  0  0  0  0  0  0  0  0  0  0  0
  187.4540  177.8980  145.2490 C   0  0  0  0  0  0  0  0  0  0  0  0
  186.7780  178.5970  147.8850 C   0  0  0  0  0  3  0  0  0  0  0  0
  185.6060  178.3680  143.1330 C   0  0  1  0  0  3  0  0  0  0  0  0
  189.3210  178.2500  148.8180 Cl  0  0  0  0  0  0  0  0  0  0  0  0
  185.0420  178.1990  144.5440 C   0  0  0  0  0  2  0  0  0  0  0  0
  186.7170  177.3530  142.9080 C   0  0  0  0  0  2  0  0  0  0  0  0
  188.4290  177.8990  146.2620 C   0  0  0  0  0  3  0  0  0  0  0  0
  186.1290  178.2560  145.5760 C   0  0  0  0  0  0  0  0  0  0  0  0
  185.7970  178.5950  146.8920 C   0  0  0  0  0  3  0  0  0  0  0  0
  189.1500  177.3500  143.4640 C   0  0  0  0  0  0  0  0  0  0  0  0
  191.3600  176.5500  143.9400 N   0  0  0  0  0  0  0  0  0  0  0  0
  190.0670  176.7210  144.3190 C   0  0  0  0  0  3  0  0  0  0  0  0
  191.8090  176.9800  142.7320 C   0  0  0  0  0  3  0  0  0  0  0  0
  190.9370  177.6110  141.8460 C   0  0  0  0  0  3  0  0  0  0  0  0
  189.5950  177.7990  142.2060 C   0  0  0  0  0  0  0  0  0  0  0  0
  188.6920  178.4160  141.3290 O   0  0  0  0  0  0  0  0  0  0  0  0
  188.3260  177.4020  139.1720 C   0  0  0  0  0  1  0  0  0  0  0  0
  188.9320  178.5660  139.9340 C   0  0  0  0  0  2  0  0  0  0  0  0
  185.5880  179.4360  140.4960 O   0  0  0  0  0  0  0  0  0  0  0  0
  184.5940  178.7380  140.8400 C   0  0  0  0  0  0  0  0  0  0  0  0
  184.5540  178.1610  142.1500 N   0  0  0  0  0  2  0  0  0  0  0  0
  181.3310  177.9760  138.1540 C   0  0  0  0  0  0  0  0  0  0  0  0
  182.8350  177.2570  139.9050 C   0  0  0  0  0  3  0  0  0  0  0  0
  183.6080  180.7570  138.9510 O   0  0  0  0  0  1  0  0  0  0  0  0
  180.0000  177.6450  137.0680 Cl  0  0  0  0  0  0  0  0  0  0  0  0
  181.7720  176.9910  139.0390 C   0  0  0  0  0  3  0  0  0  0  0  0
  183.0180  179.5000  139.0010 C   0  0  0  0  0  0  0  0  0  0  0  0
  183.4710  178.5080  139.9010 C   0  0  0  0  0  0  0  0  0  0  0  0
  181.9530  179.2260  138.1370 C   0  0  0  0  0  3  0  0  0  0  0  0
  1  4  1  0  0  0  0
  1  6  1  0  0  0  0
  2  3  1  0  0  0  0
  3 10  2  0  0  0  0
  3  9  1  0  0  0  0
  5 23  1  6  0  0  0
  5  7  1  0  0  0  0
  7 10  1  0  0  0  0
  8  5  1  0  0  0  0
  8  2  1  0  0  0  0
  9  1  2  0  0  0  0
 10 11  1  0  0  0  0
 11  4  2  0  0  0  0
 12  2  1  0  0  0  0
 12 14  1  0  0  0  0
 13 14  2  0  0  0  0
 15 13  1  0  0  0  0
 16 17  1  0  0  0  0
 16 15  2  0  0  0  0
 17 12  2  0  0  0  0
 18 17  1  0  0  0  0
 19 20  1  0  0  0  0
 20 18  1  0  0  0  0
 21 22  2  0  0  0  0
 22 23  1  0  0  0  0
 24 28  1  0  0  0  0
 26 29  1  0  0  0  0
 27 24  1  0  0  0  0
 28 25  2  0  0  0  0
 29 30  2  0  0  0  0
 30 25  1  0  0  0  0
 30 22  1  0  0  0  0
 31 24  2  0  0  0  0
 31 29  1  0  0  0  0
M  END
>  <MODEL>
2

>  <REMARK>
 VINA RESULT:      -8.0      3.590      8.224
  Name = 
  5 active torsions:
  status: ('A' for Active; 'I' for Inactive)
    1  A    between atoms: N_4  and  C_5
    2  A    between atoms: C_9  and  C_22
    3  A    between atoms: C_15  and  N_23
    4  A    between atoms: C_29  and  O_31
    5  A    between atoms: C_30  and  O_31
                            x       y       z     vdW  Elec       q    Type
                         _______ _______ _______ _____ _____    ______ ____

>  <TORSDO>
F 5

$$$$
=
 OpenBabel10262419303D

 31 34  0  0  1  0  0  0  0  0999 V2000
  192.2380  176.0540  136.2430 C   0  0  0  0  0  0  0  0  0  0  0  0
  189.1930  176.9780  138.2490 N   0  0  0  0  0  0  0  0  0  0  0  0
  190.5620  176.6840  137.8910 C   0  0  0  0  0  0  0  0  0  0  0  0
  193.2320  176.1210  137.2200 C   0  0  0  0  0  3  0  0  0  0  0  0
  189.9460  177.8630  140.4090 C   0  0  1  0  0  3  0  0  0  0  0  0
  192.6540  175.6210  134.5980 Cl  0  0  0  0  0  0  0  0  0  0  0  0
  191.2390  177.0570  140.3010 C   0  0  0  0  0  2  0  0  0  0  0  0
  188.8350  177.1400  139.6600 C   0  0  0  0  0  2  0  0  0  0  0  0
  190.9100  176.3300  136.5750 C   0  0  0  0  0  3  0  0  0  0  0  0
  191.5750  176.7550  138.8700 C   0  0  0  0  0  0  0  0  0  0  0  0
  192.9010  176.4650  138.5320 C   0  0  0  0  0  3  0  0  0  0  0  0
  188.1560  177.1010  137.2590 C   0  0  0  0  0  0  0  0  0  0  0  0
  186.9180  178.4780  135.7350 N   0  0  0  0  0  0  0  0  0  0  0  0
  187.9070  178.3420  136.6570 C   0  0  0  0  0  3  0  0  0  0  0  0
  186.1400  177.4260  135.3680 C   0  0  0  0  0  3  0  0  0  0  0  0
  186.3480  176.1700  135.9380 C   0  0  0  0  0  3  0  0  0  0  0  0
  187.3630  175.9970  136.8890 C   0  0  0  0  0  0  0  0  0  0  0  0
  187.6050  174.7430  137.4670 O   0  0  0  0  0  0  0  0  0  0  0  0
  189.3340  173.2090  136.7810 C   0  0  0  0  0  1  0  0  0  0  0  0
  187.8610  173.5660  136.7080 C   0  0  0  0  0  2  0  0  0  0  0  0
  189.9930  175.7880  142.3570 O   0  0  0  0  0  0  0  0  0  0  0  0
  189.5990  176.9250  142.7380 C   0  0  0  0  0  0  0  0  0  0  0  0
  189.5690  178.0120  141.8060 N   0  0  0  0  0  2  0  0  0  0  0  0
  188.2680  177.5680  146.7690 C   0  0  0  0  0  0  0  0  0  0  0  0
  187.8040  177.2930  144.4120 C   0  0  0  0  0  3  0  0  0  0  0  0
  191.4590  177.0750  145.0030 O   0  0  0  0  0  1  0  0  0  0  0  0
  187.7040  177.8320  148.4050 Cl  0  0  0  0  0  0  0  0  0  0  0  0
  187.3520  177.5020  145.7180 C   0  0  0  0  0  3  0  0  0  0  0  0
  190.0920  177.2130  145.2110 C   0  0  0  0  0  0  0  0  0  0  0  0
  189.1730  177.1460  144.1400 C   0  0  0  0  0  0  0  0  0  0  0  0
  189.6320  177.4240  146.5160 C   0  0  0  0  0  3  0  0  0  0  0  0
  1  9  2  0  0  0  0
  1  4  1  0  0  0  0
  2  8  1  0  0  0  0
  3  2  1  0  0  0  0
  3 10  2  0  0  0  0
  4 11  2  0  0  0  0
  5 23  1  1  0  0  0
  6  1  1  0  0  0  0
  7  5  1  0  0  0  0
  8  5  1  0  0  0  0
  9  3  1  0  0  0  0
 10  7  1  0  0  0  0
 11 10  1  0  0  0  0
 12  2  1  0  0  0  0
 13 14  1  0  0  0  0
 14 12  2  0  0  0  0
 15 13  2  0  0  0  0
 15 16  1  0  0  0  0
 16 17  2  0  0  0  0
 17 12  1  0  0  0  0
 17 18  1  0  0  0  0
 20 19  1  0  0  0  0
 20 18  1  0  0  0  0
 21 22  2  0  0  0  0
 22 30  1  0  0  0  0
 23 22  1  0  0  0  0
 24 27  1  0  0  0  0
 25 28  1  0  0  0  0
 26 29  1  0  0  0  0
 28 24  2  0  0  0  0
 29 31  2  0  0  0  0
 30 25  2  0  0  0  0
 30 29  1  0  0  0  0
 31 24  1  0  0  0  0
M  END
>  <MODEL>
3

>  <REMARK>
 VINA RESULT:      -7.9      1.871      3.723
  Name = 
  5 active torsions:
  status: ('A' for Active; 'I' for Inactive)
    1  A    between atoms: N_4  and  C_5
    2  A    between atoms: C_9  and  C_22
    3  A    between atoms: C_15  and  N_23
    4  A    between atoms: C_29  and  O_31
    5  A    between atoms: C_30  and  O_31
                            x       y       z     vdW  Elec       q    Type
                         _______ _______ _______ _____ _____    ______ ____

>  <TORSDO>
F 5

$$$$
=
 OpenBabel10262419303D

 31 34  0  0  1  0  0  0  0  0999 V2000
  189.8260  177.1260  146.8690 C   0  0  0  0  0  0  0  0  0  0  0  0
  188.5640  177.3420  143.3310 N   0  0  0  0  0  0  0  0  0  0  0  0
  188.6010  177.3330  144.7770 C   0  0  0  0  0  0  0  0  0  0  0  0
  188.6460  177.3260  147.5860 C   0  0  0  0  0  3  0  0  0  0  0  0
  186.2790  178.2300  143.3930 C   0  0  1  0  0  3  0  0  0  0  0  0
  191.3360  176.8720  147.7180 Cl  0  0  0  0  0  0  0  0  0  0  0  0
  186.0960  177.6930  144.8110 C   0  0  0  0  0  2  0  0  0  0  0  0
  187.2710  177.3530  142.6430 C   0  0  0  0  0  2  0  0  0  0  0  0
  189.8050  177.1260  145.4720 C   0  0  0  0  0  3  0  0  0  0  0  0
  187.4140  177.5400  145.5110 C   0  0  0  0  0  0  0  0  0  0  0  0
  187.4410  177.5260  146.9090 C   0  0  0  0  0  3  0  0  0  0  0  0
  189.7650  177.3200  142.5380 C   0  0  0  0  0  0  0  0  0  0  0  0
  192.1520  177.1320  142.4250 N   0  0  0  0  0  0  0  0  0  0  0  0
  191.0090  177.1350  143.1580 C   0  0  0  0  0  3  0  0  0  0  0  0
  192.1330  177.3110  141.0780 C   0  0  0  0  0  3  0  0  0  0  0  0
  190.9210  177.4990  140.4140 C   0  0  0  0  0  3  0  0  0  0  0  0
  189.7230  177.5030  141.1430 C   0  0  0  0  0  0  0  0  0  0  0  0
  188.4890  177.6740  140.5010 O   0  0  0  0  0  0  0  0  0  0  0  0
  187.0560  177.8800  138.5720 C   0  0  0  0  0  1  0  0  0  0  0  0
  188.3420  178.3250  139.2430 C   0  0  0  0  0  2  0  0  0  0  0  0
  185.6780  179.7530  141.0650 O   0  0  0  0  0  0  0  0  0  0  0  0
  184.7560  179.0290  141.5310 C   0  0  0  0  0  0  0  0  0  0  0  0
  185.0040  178.2270  142.6920 N   0  0  0  0  0  2  0  0  0  0  0  0
  180.8540  178.8870  139.7450 C   0  0  0  0  0  0  0  0  0  0  0  0
  182.3520  178.4100  141.5810 C   0  0  0  0  0  3  0  0  0  0  0  0
  184.2070  180.1240  138.8640 O   0  0  0  0  0  1  0  0  0  0  0  0
  179.2550  178.8180  139.0350 Cl  0  0  0  0  0  0  0  0  0  0  0  0
  181.0760  178.3550  141.0160 C   0  0  0  0  0  3  0  0  0  0  0  0
  183.1870  179.5320  139.6000 C   0  0  0  0  0  0  0  0  0  0  0  0
  183.4220  178.9960  140.8870 C   0  0  0  0  0  0  0  0  0  0  0  0
  181.9060  179.4740  139.0410 C   0  0  0  0  0  3  0  0  0  0  0  0
  1  4  1  0  0  0  0
  1  6  1  0  0  0  0
  2  3  1  0  0  0  0
  3  9  1  0  0  0  0
  3 10  2  0  0  0  0
  5 23  1  6  0  0  0
  5  7  1  0  0  0  0
  7 10  1  0  0  0  0
  8  2  1  0  0  0  0
  8  5  1  0  0  0  0
  9  1  2  0  0  0  0
 10 11  1  0  0  0  0
 11  4  2  0  0  0  0
 12 14  1  0  0  0  0
 12  2  1  0  0  0  0
 13 14  2  0  0  0  0
 15 13  1  0  0  0  0
 16 15  2  0  0  0  0
 16 17  1  0  0  0  0
 17 12  2  0  0  0  0
 18 17  1  0  0  0  0
 19 20  1  0  0  0  0
 20 18  1  0  0  0  0
 21 22  2  0  0  0  0
 22 23  1  0  0  0  0
 24 28  1  0  0  0  0
 26 29  1  0  0  0  0
 27 24  1  0  0  0  0
 28 25  2  0  0  0  0
 29 30  2  0  0  0  0
 30 22  1  0  0  0  0
 30 25  1  0  0  0  0
 31 29  1  0  0  0  0
 31 24  2  0  0  0  0
M  END
>  <MODEL>
4

>  <REMARK>
 VINA RESULT:      -7.6      3.776      7.583
  Name = 
  5 active torsions:
  status: ('A' for Active; 'I' for Inactive)
    1  A    between atoms: N_4  and  C_5
    2  A    between atoms: C_9  and  C_22
    3  A    between atoms: C_15  and  N_23
    4  A    between atoms: C_29  and  O_31
    5  A    between atoms: C_30  and  O_31
                            x       y       z     vdW  Elec       q    Type
                         _______ _______ _______ _____ _____    ______ ____

>  <TORSDO>
F 5

$$$$
=
 OpenBabel10262419303D

 31 34  0  0  1  0  0  0  0  0999 V2000
  184.8130  179.1120  143.3430 C   0  0  0  0  0  0  0  0  0  0  0  0
  188.1060  177.3370  143.7460 N   0  0  0  0  0  0  0  0  0  0  0  0
  186.9560  177.9770  143.1450 C   0  0  0  0  0  0  0  0  0  0  0  0
  184.7360  179.2200  141.9540 C   0  0  0  0  0  3  0  0  0  0  0  0
  189.2640  177.3840  141.5840 C   0  0  1  0  0  3  0  0  0  0  0  0
  183.5280  179.7520  144.3440 Cl  0  0  0  0  0  0  0  0  0  0  0  0
  187.9250  177.4970  140.8570 C   0  0  0  0  0  2  0  0  0  0  0  0
  189.0670  176.6330  142.8930 C   0  0  0  0  0  2  0  0  0  0  0  0
  185.9150  178.4920  143.9370 C   0  0  0  0  0  3  0  0  0  0  0  0
  186.8720  178.0960  141.7420 C   0  0  0  0  0  0  0  0  0  0  0  0
  185.7600  178.7070  141.1540 C   0  0  0  0  0  3  0  0  0  0  0  0
  188.3310  177.3530  145.1670 C   0  0  0  0  0  0  0  0  0  0  0  0
  187.4420  177.4910  147.3890 N   0  0  0  0  0  0  0  0  0  0  0  0
  187.2440  177.4550  146.0460 C   0  0  0  0  0  3  0  0  0  0  0  0
  188.6890  177.4330  147.9250 C   0  0  0  0  0  3  0  0  0  0  0  0
  189.8030  177.3310  147.0930 C   0  0  0  0  0  3  0  0  0  0  0  0
  189.6320  177.2880  145.7020 C   0  0  0  0  0  0  0  0  0  0  0  0
  190.7320  177.1700  144.8420 O   0  0  0  0  0  0  0  0  0  0  0  0
  191.1610  179.3760  143.9680 C   0  0  0  0  0  1  0  0  0  0  0  0
  191.7300  178.1760  144.7030 C   0  0  0  0  0  2  0  0  0  0  0  0
  190.1390  178.2020  139.0020 O   0  0  0  0  0  0  0  0  0  0  0  0
  190.6120  177.1230  139.4540 C   0  0  0  0  0  0  0  0  0  0  0  0
  190.2210  176.6680  140.7540 N   0  0  0  0  0  2  0  0  0  0  0  0
  193.3120  174.7600  137.0950 C   0  0  0  0  0  0  0  0  0  0  0  0
  191.0700  175.3390  137.7890 C   0  0  0  0  0  3  0  0  0  0  0  0
  193.5230  177.4780  139.5680 O   0  0  0  0  0  1  0  0  0  0  0  0
  194.3950  173.7850  136.1250 Cl  0  0  0  0  0  0  0  0  0  0  0  0
  191.9330  174.5610  137.0130 C   0  0  0  0  0  3  0  0  0  0  0  0
  192.9690  176.5180  138.7300 C   0  0  0  0  0  0  0  0  0  0  0  0
  191.5700  176.3250  138.6540 C   0  0  0  0  0  0  0  0  0  0  0  0
  193.8270  175.7350  137.9500 C   0  0  0  0  0  3  0  0  0  0  0  0
  1  9  1  0  0  0  0
  1  6  1  0  0  0  0
  2 12  1  0  0  0  0
  3  2  1  0  0  0  0
  3  9  2  0  0  0  0
  4  1  2  0  0  0  0
  5 23  1  6  0  0  0
  5  8  1  0  0  0  0
  7  5  1  0  0  0  0
  7 10  1  0  0  0  0
  8  2  1  0  0  0  0
 10  3  1  0  0  0  0
 11 10  2  0  0  0  0
 11  4  1  0  0  0  0
 12 17  2  0  0  0  0
 12 14  1  0  0  0  0
 13 15  1  0  0  0  0
 14 13  2  0  0  0  0
 16 15  2  0  0  0  0
 17 16  1  0  0  0  0
 18 17  1  0  0  0  0
 19 20  1  0  0  0  0
 20 18  1  0  0  0  0
 21 22  2  0  0  0  0
 22 23  1  0  0  0  0
 24 31  1  0  0  0  0
 25 30  2  0  0  0  0
 27 24  1  0  0  0  0
 28 24  2  0  0  0  0
 28 25  1  0  0  0  0
 29 26  1  0  0  0  0
 30 29  1  0  0  0  0
 30 22  1  0  0  0  0
 31 29  2  0  0  0  0
M  END
>  <MODEL>
5

>  <REMARK>
 VINA RESULT:      -7.4      2.850      8.204
  Name = 
  5 active torsions:
  status: ('A' for Active; 'I' for Inactive)
    1  A    between atoms: N_4  and  C_5
    2  A    between atoms: C_9  and  C_22
    3  A    between atoms: C_15  and  N_23
    4  A    between atoms: C_29  and  O_31
    5  A    between atoms: C_30  and  O_31
                            x       y       z     vdW  Elec       q    Type
                         _______ _______ _______ _____ _____    ______ ____

>  <TORSDO>
F 5

$$$$
=
 OpenBabel10262419303D

 31 34  0  0  1  0  0  0  0  0999 V2000
  188.6850  177.7400  147.6090 C   0  0  0  0  0  0  0  0  0  0  0  0
  187.1830  177.8800  144.1630 N   0  0  0  0  0  0  0  0  0  0  0  0
  188.1140  177.6510  145.2460 C   0  0  0  0  0  0  0  0  0  0  0  0
  189.9380  177.1920  147.3330 C   0  0  0  0  0  3  0  0  0  0  0  0
  188.6040  176.5590  142.6610 C   0  0  1  0  0  3  0  0  0  0  0  0
  188.2480  178.1410  149.2560 Cl  0  0  0  0  0  0  0  0  0  0  0  0
  189.8090  176.8020  143.5680 C   0  0  0  0  0  2  0  0  0  0  0  0
  187.6380  177.7290  142.7780 C   0  0  0  0  0  2  0  0  0  0  0  0
  187.7780  177.9720  146.5720 C   0  0  0  0  0  3  0  0  0  0  0  0
  189.3810  177.0920  144.9770 C   0  0  0  0  0  0  0  0  0  0  0  0
  190.2890  176.8750  146.0190 C   0  0  0  0  0  3  0  0  0  0  0  0
  185.8190  178.2720  144.4000 C   0  0  0  0  0  0  0  0  0  0  0  0
  184.0850  178.8510  145.9510 N   0  0  0  0  0  0  0  0  0  0  0  0
  185.3750  178.4990  145.7100 C   0  0  0  0  0  3  0  0  0  0  0  0
  183.1860  178.9910  144.9410 C   0  0  0  0  0  3  0  0  0  0  0  0
  183.5800  178.7770  143.6210 C   0  0  0  0  0  3  0  0  0  0  0  0
  184.9050  178.4170  143.3390 C   0  0  0  0  0  0  0  0  0  0  0  0
  185.3320  178.2100  142.0200 O   0  0  0  0  0  0  0  0  0  0  0  0
  184.0330  178.3000  139.9910 C   0  0  0  0  0  1  0  0  0  0  0  0
  184.9560  179.0500  140.9330 C   0  0  0  0  0  2  0  0  0  0  0  0
  188.6350  178.6580  140.7400 O   0  0  0  0  0  0  0  0  0  0  0  0
  189.0190  177.5200  140.3530 C   0  0  0  0  0  0  0  0  0  0  0  0
  189.0400  176.4280  141.2800 N   0  0  0  0  0  2  0  0  0  0  0  0
  190.3500  176.8410  136.3280 C   0  0  0  0  0  0  0  0  0  0  0  0
  190.6150  176.5570  138.7140 C   0  0  0  0  0  3  0  0  0  0  0  0
  187.5770  178.5690  138.0220 O   0  0  0  0  0  1  0  0  0  0  0  0
  190.9110  176.5530  134.6950 Cl  0  0  0  0  0  0  0  0  0  0  0  0
  191.0630  176.3260  137.4110 C   0  0  0  0  0  3  0  0  0  0  0  0
  188.7350  177.8220  137.8490 C   0  0  0  0  0  0  0  0  0  0  0  0
  189.4510  177.3040  138.9520 C   0  0  0  0  0  0  0  0  0  0  0  0
  189.1910  177.5860  136.5470 C   0  0  0  0  0  3  0  0  0  0  0  0
  1  6  1  0  0  0  0
  2 12  1  0  0  0  0
  2  3  1  0  0  0  0
  3  9  1  0  0  0  0
  4  1  1  0  0  0  0
  5 23  1  6  0  0  0
  5  8  1  0  0  0  0
  5  7  1  0  0  0  0
  7 10  1  0  0  0  0
  8  2  1  0  0  0  0
  9  1  2  0  0  0  0
 10  3  2  0  0  0  0
 10 11  1  0  0  0  0
 11  4  2  0  0  0  0
 12 14  1  0  0  0  0
 14 13  2  0  0  0  0
 15 13  1  0  0  0  0
 16 15  2  0  0  0  0
 17 16  1  0  0  0  0
 17 12  2  0  0  0  0
 18 17  1  0  0  0  0
 19 20  1  0  0  0  0
 20 18  1  0  0  0  0
 22 21  2  0  0  0  0
 22 23  1  0  0  0  0
 24 31  2  0  0  0  0
 24 28  1  0  0  0  0
 25 30  1  0  0  0  0
 27 24  1  0  0  0  0
 28 25  2  0  0  0  0
 29 26  1  0  0  0  0
 29 30  2  0  0  0  0
 30 22  1  0  0  0  0
 31 29  1  0  0  0  0
M  END
>  <MODEL>
6

>  <REMARK>
 VINA RESULT:      -7.3      2.595      9.051
  Name = 
  5 active torsions:
  status: ('A' for Active; 'I' for Inactive)
    1  A    between atoms: N_4  and  C_5
    2  A    between atoms: C_9  and  C_22
    3  A    between atoms: C_15  and  N_23
    4  A    between atoms: C_29  and  O_31
    5  A    between atoms: C_30  and  O_31
                            x       y       z     vdW  Elec       q    Type
                         _______ _______ _______ _____ _____    ______ ____

>  <TORSDO>
F 5

$$$$
=
 OpenBabel10262419303D

 31 34  0  0  1  0  0  0  0  0999 V2000
  186.8540  177.9560  146.6280 C   0  0  0  0  0  0  0  0  0  0  0  0
  187.2120  177.8100  142.8860 N   0  0  0  0  0  0  0  0  0  0  0  0
  186.6740  178.0640  144.2040 C   0  0  0  0  0  0  0  0  0  0  0  0
  185.6090  178.5740  146.7540 C   0  0  0  0  0  3  0  0  0  0  0  0
  185.4740  179.2340  141.9000 C   0  0  1  0  0  3  0  0  0  0  0  0
  187.7540  177.4990  148.0590 Cl  0  0  0  0  0  0  0  0  0  0  0  0
  184.5960  179.0340  143.1340 C   0  0  0  0  0  2  0  0  0  0  0  0
  186.3630  178.0130  141.7090 C   0  0  0  0  0  2  0  0  0  0  0  0
  187.3830  177.6990  145.3610 C   0  0  0  0  0  3  0  0  0  0  0  0
  185.4190  178.6930  144.3410 C   0  0  0  0  0  0  0  0  0  0  0  0
  184.8900  178.9360  145.6130 C   0  0  0  0  0  3  0  0  0  0  0  0
  188.5590  177.3430  142.6890 C   0  0  0  0  0  0  0  0  0  0  0  0
  190.4050  176.0120  143.4430 N   0  0  0  0  0  0  0  0  0  0  0  0
  189.1280  176.4460  143.6040 C   0  0  0  0  0  3  0  0  0  0  0  0
  191.1710  176.4290  142.4010 C   0  0  0  0  0  3  0  0  0  0  0  0
  190.6510  177.3210  141.4640 C   0  0  0  0  0  3  0  0  0  0  0  0
  189.3340  177.7850  141.6000 C   0  0  0  0  0  0  0  0  0  0  0  0
  188.7800  178.6690  140.6650 O   0  0  0  0  0  0  0  0  0  0  0  0
  188.4060  177.2340  138.7640 C   0  0  0  0  0  1  0  0  0  0  0  0
  188.9760  178.5500  139.2600 C   0  0  0  0  0  2  0  0  0  0  0  0
  183.4680  177.4240  141.0090 O   0  0  0  0  0  0  0  0  0  0  0  0
  183.6560  178.4600  140.3140 C   0  0  0  0  0  0  0  0  0  0  0  0
  184.6420  179.4160  140.7210 N   0  0  0  0  0  2  0  0  0  0  0  0
  181.3190  179.2300  136.7950 C   0  0  0  0  0  0  0  0  0  0  0  0
  181.9390  179.7530  139.0720 C   0  0  0  0  0  3  0  0  0  0  0  0
  183.9100  176.8480  137.8740 O   0  0  0  0  0  1  0  0  0  0  0  0
  180.3560  179.5600  135.3720 Cl  0  0  0  0  0  0  0  0  0  0  0  0
  181.1700  180.0190  137.9360 C   0  0  0  0  0  3  0  0  0  0  0  0
  183.0100  177.9050  137.9220 C   0  0  0  0  0  0  0  0  0  0  0  0
  182.8660  178.6990  139.0840 C   0  0  0  0  0  0  0  0  0  0  0  0
  182.2360  178.1780  136.7890 C   0  0  0  0  0  3  0  0  0  0  0  0
  1  4  1  0  0  0  0
  1  6  1  0  0  0  0
  2  3  1  0  0  0  0
  3 10  2  0  0  0  0
  3  9  1  0  0  0  0
  5 23  1  6  0  0  0
  5  7  1  0  0  0  0
  7 10  1  0  0  0  0
  8  5  1  0  0  0  0
  8  2  1  0  0  0  0
  9  1  2  0  0  0  0
 10 11  1  0  0  0  0
 11  4  2  0  0  0  0
 12  2  1  0  0  0  0
 12 14  1  0  0  0  0
 13 14  2  0  0  0  0
 15 13  1  0  0  0  0
 16 17  1  0  0  0  0
 16 15  2  0  0  0  0
 17 12  2  0  0  0  0
 18 17  1  0  0  0  0
 19 20  1  0  0  0  0
 20 18  1  0  0  0  0
 22 23  1  0  0  0  0
 22 21  2  0  0  0  0
 24 28  1  0  0  0  0
 25 30  1  0  0  0  0
 26 29  1  0  0  0  0
 27 24  1  0  0  0  0
 28 25  2  0  0  0  0
 29 30  2  0  0  0  0
 30 22  1  0  0  0  0
 31 24  2  0  0  0  0
 31 29  1  0  0  0  0
M  END
>  <MODEL>
7

>  <REMARK>
 VINA RESULT:      -7.2      3.702      8.291
  Name = 
  5 active torsions:
  status: ('A' for Active; 'I' for Inactive)
    1  A    between atoms: N_4  and  C_5
    2  A    between atoms: C_9  and  C_22
    3  A    between atoms: C_15  and  N_23
    4  A    between atoms: C_29  and  O_31
    5  A    between atoms: C_30  and  O_31
                            x       y       z     vdW  Elec       q    Type
                         _______ _______ _______ _____ _____    ______ ____

>  <TORSDO>
F 5

$$$$
=
 OpenBabel10262419303D

 31 34  0  0  1  0  0  0  0  0999 V2000
  191.1810  176.0690  136.2780 C   0  0  0  0  0  0  0  0  0  0  0  0
  188.4450  176.9350  138.7110 N   0  0  0  0  0  0  0  0  0  0  0  0
  189.7540  176.6740  138.1530 C   0  0  0  0  0  0  0  0  0  0  0  0
  192.3080  176.1770  137.0930 C   0  0  0  0  0  3  0  0  0  0  0  0
  189.4880  177.8690  140.7250 C   0  0  1  0  0  3  0  0  0  0  0  0
  191.3580  175.6260  134.5940 Cl  0  0  0  0  0  0  0  0  0  0  0  0
  190.7740  177.0980  140.4300 C   0  0  0  0  0  2  0  0  0  0  0  0
  188.2990  177.1060  140.1580 C   0  0  0  0  0  2  0  0  0  0  0  0
  189.9110  176.3130  136.8040 C   0  0  0  0  0  3  0  0  0  0  0  0
  190.9000  176.7860  138.9690 C   0  0  0  0  0  0  0  0  0  0  0  0
  192.1680  176.5290  138.4380 C   0  0  0  0  0  3  0  0  0  0  0  0
  187.2680  177.0160  137.8870 C   0  0  0  0  0  0  0  0  0  0  0  0
  186.0790  176.3200  135.9240 N   0  0  0  0  0  0  0  0  0  0  0  0
  187.1750  176.2400  136.7220 C   0  0  0  0  0  3  0  0  0  0  0  0
  185.0440  177.1490  136.2200 C   0  0  0  0  0  3  0  0  0  0  0  0
  185.0880  177.9410  137.3670 C   0  0  0  0  0  3  0  0  0  0  0  0
  186.2040  177.8780  138.2140 C   0  0  0  0  0  0  0  0  0  0  0  0
  186.2690  178.6510  139.3820 O   0  0  0  0  0  0  0  0  0  0  0  0
  185.6620  179.1960  141.6500 C   0  0  0  0  0  1  0  0  0  0  0  0
  185.1660  178.8360  140.2620 C   0  0  0  0  0  2  0  0  0  0  0  0
  189.5140  175.7520  142.6260 O   0  0  0  0  0  0  0  0  0  0  0  0
  189.3280  176.9180  143.0690 C   0  0  0  0  0  0  0  0  0  0  0  0
  189.3210  178.0270  142.1620 N   0  0  0  0  0  2  0  0  0  0  0  0
  188.6350  177.6160  147.2490 C   0  0  0  0  0  0  0  0  0  0  0  0
  187.8350  177.4780  144.9710 C   0  0  0  0  0  3  0  0  0  0  0  0
  191.4700  176.7450  145.0690 O   0  0  0  0  0  1  0  0  0  0  0  0
  188.3300  177.9050  148.9480 Cl  0  0  0  0  0  0  0  0  0  0  0  0
  187.5910  177.7080  146.3280 C   0  0  0  0  0  3  0  0  0  0  0  0
  190.1740  177.0620  145.4580 C   0  0  0  0  0  0  0  0  0  0  0  0
  189.1230  177.1530  144.5180 C   0  0  0  0  0  0  0  0  0  0  0  0
  189.9220  177.2940  146.8140 C   0  0  0  0  0  3  0  0  0  0  0  0
  1  9  2  0  0  0  0
  1  4  1  0  0  0  0
  2  8  1  0  0  0  0
  3  2  1  0  0  0  0
  3 10  2  0  0  0  0
  4 11  2  0  0  0  0
  5 23  1  1  0  0  0
  6  1  1  0  0  0  0
  7  5  1  0  0  0  0
  8  5  1  0  0  0  0
  9  3  1  0  0  0  0
 10  7  1  0  0  0  0
 11 10  1  0  0  0  0
 12 17  1  0  0  0  0
 12  2  1  0  0  0  0
 13 15  2  0  0  0  0
 13 14  1  0  0  0  0
 14 12  2  0  0  0  0
 15 16  1  0  0  0  0
 16 17  2  0  0  0  0
 17 18  1  0  0  0  0
 18 20  1  0  0  0  0
 20 19  1  0  0  0  0
 21 22  2  0  0  0  0
 22 30  1  0  0  0  0
 23 22  1  0  0  0  0
 24 27  1  0  0  0  0
 25 28  1  0  0  0  0
 26 29  1  0  0  0  0
 28 24  2  0  0  0  0
 29 31  2  0  0  0  0
 30 25  2  0  0  0  0
 30 29  1  0  0  0  0
 31 24  1  0  0  0  0
M  END
>  <MODEL>
8

>  <REMARK>
 VINA RESULT:      -7.0      2.032      4.357
  Name = 
  5 active torsions:
  status: ('A' for Active; 'I' for Inactive)
    1  A    between atoms: N_4  and  C_5
    2  A    between atoms: C_9  and  C_22
    3  A    between atoms: C_15  and  N_23
    4  A    between atoms: C_29  and  O_31
    5  A    between atoms: C_30  and  O_31
                            x       y       z     vdW  Elec       q    Type
                         _______ _______ _______ _____ _____    ______ ____

>  <TORSDO>
F 5

$$$$
=
 OpenBabel10262419303D

 31 34  0  0  1  0  0  0  0  0999 V2000
  182.3230  178.7870  143.0790 C   0  0  0  0  0  0  0  0  0  0  0  0
  186.0350  178.3090  143.4610 N   0  0  0  0  0  0  0  0  0  0  0  0
  184.7300  178.5000  142.8680 C   0  0  0  0  0  0  0  0  0  0  0  0
  182.2060  178.8750  141.6910 C   0  0  0  0  0  3  0  0  0  0  0  0
  187.0900  178.7920  141.2990 C   0  0  1  0  0  3  0  0  0  0  0  0
  180.8980  178.9120  144.0870 Cl  0  0  0  0  0  0  0  0  0  0  0  0
  185.7970  178.4240  140.5740 C   0  0  0  0  0  2  0  0  0  0  0  0
  187.1810  178.0060  142.6000 C   0  0  0  0  0  2  0  0  0  0  0  0
  183.5760  178.5980  143.6650 C   0  0  0  0  0  3  0  0  0  0  0  0
  184.6030  178.5950  141.4660 C   0  0  0  0  0  0  0  0  0  0  0  0
  183.3430  178.7730  140.8850 C   0  0  0  0  0  3  0  0  0  0  0  0
  186.2450  178.3900  144.8820 C   0  0  0  0  0  0  0  0  0  0  0  0
  185.5680  179.2460  147.0170 N   0  0  0  0  0  0  0  0  0  0  0  0
  185.3710  179.1440  145.6770 C   0  0  0  0  0  3  0  0  0  0  0  0
  186.6110  178.6280  147.6300 C   0  0  0  0  0  3  0  0  0  0  0  0
  187.5090  177.8650  146.8840 C   0  0  0  0  0  3  0  0  0  0  0  0
  187.3310  177.7380  145.4990 C   0  0  0  0  0  0  0  0  0  0  0  0
  188.2080  176.9650  144.7260 O   0  0  0  0  0  0  0  0  0  0  0  0
  190.2280  178.2560  144.4720 C   0  0  0  0  0  1  0  0  0  0  0  0
  189.6170  176.9430  144.9250 C   0  0  0  0  0  2  0  0  0  0  0  0
  188.7640  176.5100  141.5960 O   0  0  0  0  0  0  0  0  0  0  0  0
  189.0530  177.3180  140.6700 C   0  0  0  0  0  0  0  0  0  0  0  0
  188.2370  178.4760  140.4620 N   0  0  0  0  0  2  0  0  0  0  0  0
  192.5060  176.6490  138.2070 C   0  0  0  0  0  0  0  0  0  0  0  0
  191.5070  177.3400  140.2970 C   0  0  0  0  0  3  0  0  0  0  0  0
  188.8520  176.3130  137.9200 O   0  0  0  0  0  1  0  0  0  0  0  0
  193.9270  176.3850  137.2200 Cl  0  0  0  0  0  0  0  0  0  0  0  0
  192.6420  177.1280  139.5110 C   0  0  0  0  0  3  0  0  0  0  0  0
  190.0960  176.5920  138.4720 C   0  0  0  0  0  0  0  0  0  0  0  0
  190.2230  177.0770  139.7940 C   0  0  0  0  0  0  0  0  0  0  0  0
  191.2370  176.3820  137.6910 C   0  0  0  0  0  3  0  0  0  0  0  0
  1  9  1  0  0  0  0
  1  6  1  0  0  0  0
  2 12  1  0  0  0  0
  3  2  1  0  0  0  0
  3  9  2  0  0  0  0
  4  1  2  0  0  0  0
  5 23  1  6  0  0  0
  5  8  1  0  0  0  0
  7  5  1  0  0  0  0
  7 10  1  0  0  0  0
  8  2  1  0  0  0  0
 10  3  1  0  0  0  0
 11 10  2  0  0  0  0
 11  4  1  0  0  0  0
 12 17  2  0  0  0  0
 12 14  1  0  0  0  0
 13 15  1  0  0  0  0
 14 13  2  0  0  0  0
 16 15  2  0  0  0  0
 17 16  1  0  0  0  0
 18 20  1  0  0  0  0
 18 17  1  0  0  0  0
 19 20  1  0  0  0  0
 22 21  2  0  0  0  0
 23 22  1  0  0  0  0
 24 28  1  0  0  0  0
 26 29  1  0  0  0  0
 27 24  1  0  0  0  0
 28 25  2  0  0  0  0
 29 30  2  0  0  0  0
 30 25  1  0  0  0  0
 30 22  1  0  0  0  0
 31 24  2  0  0  0  0
 31 29  1  0  0  0  0
M  END
>  <MODEL>
9

>  <REMARK>
 VINA RESULT:      -6.9      3.460      8.245
  Name = 
  5 active torsions:
  status: ('A' for Active; 'I' for Inactive)
    1  A    between atoms: N_4  and  C_5
    2  A    between atoms: C_9  and  C_22
    3  A    between atoms: C_15  and  N_23
    4  A    between atoms: C_29  and  O_31
    5  A    between atoms: C_30  and  O_31
                            x       y       z     vdW  Elec       q    Type
                         _______ _______ _______ _____ _____    ______ ____

>  <TORSDO>
F 5

$$$$
