=
 OpenBabel10252415003D

 34 41  0  0  1  0  0  0  0  0999 V2000
  189.3760  177.1220  145.8210 C   0  0  0  0  0  0  0  0  0  0  0  0
  190.9670  176.7870  144.0000 C   0  0  0  0  0  0  0  0  0  0  0  0
  188.6390  177.4230  143.5330 C   0  0  0  0  0  0  0  0  0  0  0  0
  187.9540  177.7520  141.2700 C   0  0  0  0  0  0  0  0  0  0  0  0
  191.6630  176.4940  146.2570 C   0  0  0  0  0  3  0  0  0  0  0  0
  191.9230  176.4880  144.9210 N   0  0  0  0  0  0  0  0  0  0  0  0
  190.1620  177.1340  141.6440 C   0  0  0  0  0  0  0  0  0  0  0  0
  189.6590  177.1090  144.4430 C   0  0  0  0  0  0  0  0  0  0  0  0
  188.5980  177.6860  139.7150 S   0  0  0  0  0  0  0  0  0  0  0  0
  190.3860  176.8110  146.7310 C   0  0  0  0  0  3  0  0  0  0  0  0
  187.3310  177.7480  143.9620 C   0  0  0  0  0  0  0  0  0  0  0  0
  188.0910  177.4500  146.2650 C   0  0  0  0  0  3  0  0  0  0  0  0
  191.3300  176.7640  142.5210 C   0  0  0  0  0  3  0  0  0  0  0  0
  186.6900  178.0680  141.6460 N   0  0  0  0  0  0  0  0  0  0  0  0
  186.3370  178.0690  142.9750 C   0  0  0  0  0  0  0  0  0  0  0  0
  190.1470  177.2320  140.2540 C   0  0  0  0  0  0  0  0  0  0  0  0
  188.9190  177.4290  142.1840 C   0  0  1  0  0  3  0  0  0  0  0  0
  187.0790  177.7630  145.3450 C   0  0  0  0  0  3  0  0  0  0  0  0
  182.6100  178.8140  142.6810 C   0  0  0  0  0  0  0  0  0  0  0  0
  182.2990  179.1370  144.0030 C   0  0  0  0  0  3  0  0  0  0  0  0
  184.9290  178.4140  143.3120 C   0  0  0  0  0  0  0  0  0  0  0  0
  183.2950  179.1090  144.9800 C   0  0  0  0  0  3  0  0  0  0  0  0
  183.9180  178.4590  142.3390 C   0  0  0  0  0  3  0  0  0  0  0  0
  184.6020  178.7530  144.6360 C   0  0  0  0  0  3  0  0  0  0  0  0
  181.6460  178.8460  141.7300 F   0  0  0  0  0  0  0  0  0  0  0  0
  191.8750  176.7410  138.0650 C   0  0  1  0  0  3  0  0  0  0  0  0
  192.7300  176.9040  139.1400 C   0  0  2  0  0  3  0  0  0  0  0  0
  193.0000  175.7430  138.2100 C   0  0  2  0  0  3  0  0  0  0  0  0
  191.2620  176.9940  139.4040 N   0  0  0  0  0  0  0  0  0  0  0  0
  194.1280  176.0950  137.2490 C   0  0  1  0  0  3  0  0  0  0  0  0
  195.1940  175.2180  137.4620 O   0  0  0  0  0  1  0  0  0  0  0  0
  193.5160  174.5460  135.3750 C   0  0  0  0  0  1  0  0  0  0  0  0
  193.6550  175.9980  135.7970 C   0  0  0  0  0  3  0  0  0  0  0  0
  194.6390  176.6750  134.8590 C   0  0  0  0  0  1  0  0  0  0  0  0
  1 12  1  0  0  0  0
  1 10  2  0  0  0  0
  2  8  1  0  0  0  0
  2  6  1  0  0  0  0
  3 11  1  0  0  0  0
  3  8  2  0  0  0  0
  4 14  2  0  0  0  0
  5 10  1  0  0  0  0
  6  5  2  0  0  0  0
  7 17  1  0  0  0  0
  7 13  1  0  0  0  0
  8  1  1  0  0  0  0
  9 16  1  0  0  0  0
  9  4  1  0  0  0  0
 11 18  1  0  0  0  0
 13  2  2  0  0  0  0
 14 15  1  0  0  0  0
 15 21  1  0  0  0  0
 15 11  2  0  0  0  0
 16  7  2  0  0  0  0
 17  4  1  1  0  0  0
 17  3  1  0  0  0  0
 18 12  2  0  0  0  0
 19 20  1  0  0  0  0
 20 22  2  0  0  0  0
 21 24  2  0  0  0  0
 23 19  2  0  0  0  0
 23 21  1  0  0  0  0
 24 22  1  0  0  0  0
 25 19  1  0  0  0  0
 26 28  1  0  0  0  0
 26 27  1  0  0  0  0
 26 29  1  1  0  0  0
 27 29  1  1  0  0  0
 28 30  1  6  0  0  0
 28 27  1  0  0  0  0
 29 16  1  0  0  0  0
 30 31  1  6  0  0  0
 32 33  1  0  0  0  0
 33 30  1  0  0  0  0
 34 33  1  0  0  0  0
M  END
>  <MODEL>
1

>  <REMARK>
 VINA RESULT:     -10.9      0.000      0.000
  Name = 
  4 active torsions:
  status: ('A' for Active; 'I' for Inactive)
    1  A    between atoms: C_12  and  C_28
    2  A    between atoms: C_13  and  C_14
    3  A    between atoms: C_14  and  C_22
    4  A    between atoms: N_17  and  C_29
                            x       y       z     vdW  Elec       q    Type
                         _______ _______ _______ _____ _____    ______ ____

>  <TORSDO>
F 4

$$$$
=
 OpenBabel10252415003D

 34 41  0  0  1  0  0  0  0  0999 V2000
  186.1240  178.1590  146.0810 C   0  0  0  0  0  0  0  0  0  0  0  0
  188.0420  177.8220  144.6070 C   0  0  0  0  0  0  0  0  0  0  0  0
  185.8080  178.2650  143.6810 C   0  0  0  0  0  0  0  0  0  0  0  0
  185.5350  178.4040  141.3130 C   0  0  0  0  0  0  0  0  0  0  0  0
  188.3230  177.7200  146.9680 C   0  0  0  0  0  3  0  0  0  0  0  0
  188.8260  177.6490  145.7050 N   0  0  0  0  0  0  0  0  0  0  0  0
  187.6670  177.9640  142.1250 C   0  0  0  0  0  0  0  0  0  0  0  0
  186.6580  178.0800  144.7810 C   0  0  0  0  0  0  0  0  0  0  0  0
  186.4580  178.2850  139.9100 S   0  0  0  0  0  0  0  0  0  0  0  0
  186.9640  177.9760  147.1790 C   0  0  0  0  0  3  0  0  0  0  0  0
  184.4260  178.5250  143.8410 C   0  0  0  0  0  0  0  0  0  0  0  0
  184.7630  178.4250  146.2600 C   0  0  0  0  0  3  0  0  0  0  0  0
  188.6720  177.7320  143.2240 C   0  0  0  0  0  3  0  0  0  0  0  0
  184.2080  178.6540  141.4310 N   0  0  0  0  0  0  0  0  0  0  0  0
  183.6150  178.7140  142.6700 C   0  0  0  0  0  0  0  0  0  0  0  0
  187.9040  177.9740  140.7520 C   0  0  0  0  0  0  0  0  0  0  0  0
  186.3320  178.2060  142.4080 C   0  0  1  0  0  3  0  0  0  0  0  0
  183.9230  178.6080  145.1510 C   0  0  0  0  0  3  0  0  0  0  0  0
  179.9960  178.8930  143.8490 C   0  0  0  0  0  0  0  0  0  0  0  0
  179.3790  179.4520  142.7290 C   0  0  0  0  0  3  0  0  0  0  0  0
  182.1520  178.9810  142.7200 C   0  0  0  0  0  0  0  0  0  0  0  0
  180.1370  179.7700  141.6010 C   0  0  0  0  0  3  0  0  0  0  0  0
  181.3730  178.6560  143.8420 C   0  0  0  0  0  3  0  0  0  0  0  0
  181.5150  179.5320  141.5960 C   0  0  0  0  0  3  0  0  0  0  0  0
  179.2600  178.5790  144.9420 F   0  0  0  0  0  0  0  0  0  0  0  0
  190.0290  177.4160  138.9660 C   0  0  1  0  0  3  0  0  0  0  0  0
  190.6620  177.8080  140.1310 C   0  0  2  0  0  3  0  0  0  0  0  0
  191.1980  176.5780  139.4320 C   0  0  2  0  0  3  0  0  0  0  0  0
  189.1700  177.7610  140.1370 N   0  0  0  0  0  0  0  0  0  0  0  0
  192.4400  176.9350  138.6270 C   0  0  1  0  0  3  0  0  0  0  0  0
  193.5740  176.6320  139.3870 O   0  0  0  0  0  1  0  0  0  0  0  0
  192.2070  174.6840  137.5470 C   0  0  0  0  0  1  0  0  0  0  0  0
  192.4740  176.1600  137.3080 C   0  0  0  0  0  3  0  0  0  0  0  0
  193.8280  176.2960  136.6330 C   0  0  0  0  0  1  0  0  0  0  0  0
  1 12  1  0  0  0  0
  1 10  2  0  0  0  0
  2  8  1  0  0  0  0
  2  6  1  0  0  0  0
  3 11  1  0  0  0  0
  3  8  2  0  0  0  0
  4 14  2  0  0  0  0
  5 10  1  0  0  0  0
  6  5  2  0  0  0  0
  7 17  1  0  0  0  0
  7 13  1  0  0  0  0
  8  1  1  0  0  0  0
  9 16  1  0  0  0  0
  9  4  1  0  0  0  0
 11 18  1  0  0  0  0
 13  2  2  0  0  0  0
 14 15  1  0  0  0  0
 15 21  1  0  0  0  0
 15 11  2  0  0  0  0
 16  7  2  0  0  0  0
 17  4  1  1  0  0  0
 17  3  1  0  0  0  0
 18 12  2  0  0  0  0
 19 25  1  0  0  0  0
 20 19  2  0  0  0  0
 21 23  2  0  0  0  0
 22 20  1  0  0  0  0
 23 19  1  0  0  0  0
 24 22  2  0  0  0  0
 24 21  1  0  0  0  0
 26 28  1  0  0  0  0
 26 27  1  0  0  0  0
 26 29  1  1  0  0  0
 27 29  1  1  0  0  0
 28 30  1  6  0  0  0
 28 27  1  0  0  0  0
 29 16  1  0  0  0  0
 30 31  1  1  0  0  0
 33 32  1  0  0  0  0
 33 30  1  0  0  0  0
 34 33  1  0  0  0  0
M  END
>  <MODEL>
2

>  <REMARK>
 VINA RESULT:     -10.1      1.836      3.006
  Name = 
  4 active torsions:
  status: ('A' for Active; 'I' for Inactive)
    1  A    between atoms: C_12  and  C_28
    2  A    between atoms: C_13  and  C_14
    3  A    between atoms: C_14  and  C_22
    4  A    between atoms: N_17  and  C_29
                            x       y       z     vdW  Elec       q    Type
                         _______ _______ _______ _____ _____    ______ ____

>  <TORSDO>
F 4

$$$$
=
 OpenBabel10252415003D

 34 41  0  0  1  0  0  0  0  0999 V2000
  190.4800  177.2440  142.1130 C   0  0  0  0  0  0  0  0  0  0  0  0
  188.1260  177.8490  141.8780 C   0  0  0  0  0  0  0  0  0  0  0  0
  189.1120  177.4790  144.0990 C   0  0  0  0  0  0  0  0  0  0  0  0
  187.7500  177.7580  146.0390 C   0  0  0  0  0  0  0  0  0  0  0  0
  189.4930  177.6080  139.9440 C   0  0  0  0  0  3  0  0  0  0  0  0
  188.2930  177.8790  140.5280 N   0  0  0  0  0  0  0  0  0  0  0  0
  186.7540  178.1040  143.9690 C   0  0  0  0  0  0  0  0  0  0  0  0
  189.2340  177.5230  142.7020 C   0  0  0  0  0  0  0  0  0  0  0  0
  186.1660  178.1650  146.4430 S   0  0  0  0  0  0  0  0  0  0  0  0
  190.6070  177.2870  140.7250 C   0  0  0  0  0  3  0  0  0  0  0  0
  190.2090  177.1570  144.9330 C   0  0  0  0  0  0  0  0  0  0  0  0
  191.5790  176.9330  142.9210 C   0  0  0  0  0  3  0  0  0  0  0  0
  186.7570  178.1660  142.4630 C   0  0  0  0  0  3  0  0  0  0  0  0
  188.7790  177.4530  146.8670 N   0  0  0  0  0  0  0  0  0  0  0  0
  190.0160  177.1390  146.3570 C   0  0  0  0  0  0  0  0  0  0  0  0
  185.6830  178.3570  144.8220 C   0  0  0  0  0  0  0  0  0  0  0  0
  187.8970  177.7700  144.6790 C   0  0  1  0  0  3  0  0  0  0  0  0
  191.4450  176.8930  144.3170 C   0  0  0  0  0  3  0  0  0  0  0  0
  192.5380  177.3660  149.2060 C   0  0  0  0  0  0  0  0  0  0  0  0
  193.1860  176.1350  149.0850 C   0  0  0  0  0  3  0  0  0  0  0  0
  191.0950  176.8040  147.3260 C   0  0  0  0  0  0  0  0  0  0  0  0
  192.8000  175.2390  148.0870 C   0  0  0  0  0  3  0  0  0  0  0  0
  191.5030  177.6980  148.3280 C   0  0  0  0  0  3  0  0  0  0  0  0
  191.7640  175.5730  147.2110 C   0  0  0  0  0  3  0  0  0  0  0  0
  192.9150  178.2390  150.1700 F   0  0  0  0  0  0  0  0  0  0  0  0
  182.9270  178.4310  144.1750 C   0  0  1  0  0  3  0  0  0  0  0  0
  183.3590  179.7280  143.9630 C   0  0  2  0  0  3  0  0  0  0  0  0
  182.4760  179.1100  142.9020 C   0  0  2  0  0  3  0  0  0  0  0  0
  184.3730  178.7260  144.4070 N   0  0  0  0  0  0  0  0  0  0  0  0
  181.0440  179.6040  143.0610 C   0  0  1  0  0  3  0  0  0  0  0  0
  180.5940  180.0920  141.8310 O   0  0  0  0  0  1  0  0  0  0  0  0
  179.4560  177.7940  142.3620 C   0  0  0  0  0  1  0  0  0  0  0  0
  180.1300  178.4750  143.5410 C   0  0  0  0  0  3  0  0  0  0  0  0
  179.0490  179.0080  144.4650 C   0  0  0  0  0  1  0  0  0  0  0  0
  1  8  1  0  0  0  0
  1 12  1  0  0  0  0
  2 13  2  0  0  0  0
  2  8  1  0  0  0  0
  3 17  1  0  0  0  0
  3 11  1  0  0  0  0
  4  9  1  0  0  0  0
  4 14  2  0  0  0  0
  5  6  2  0  0  0  0
  5 10  1  0  0  0  0
  6  2  1  0  0  0  0
  7 16  2  0  0  0  0
  8  3  2  0  0  0  0
 10  1  2  0  0  0  0
 11 15  2  0  0  0  0
 12 18  2  0  0  0  0
 13  7  1  0  0  0  0
 15 14  1  0  0  0  0
 15 21  1  0  0  0  0
 16  9  1  0  0  0  0
 17  7  1  1  0  0  0
 17  4  1  0  0  0  0
 18 11  1  0  0  0  0
 19 25  1  0  0  0  0
 20 19  1  0  0  0  0
 21 23  1  0  0  0  0
 22 20  2  0  0  0  0
 23 19  2  0  0  0  0
 24 21  2  0  0  0  0
 24 22  1  0  0  0  0
 26 29  1  6  0  0  0
 27 26  1  0  0  0  0
 27 29  1  6  0  0  0
 28 30  1  1  0  0  0
 28 27  1  0  0  0  0
 28 26  1  0  0  0  0
 29 16  1  0  0  0  0
 30 31  1  6  0  0  0
 30 33  1  0  0  0  0
 32 33  1  0  0  0  0
 33 34  1  0  0  0  0
M  END
>  <MODEL>
3

>  <REMARK>
 VINA RESULT:     -10.0      4.665      9.446
  Name = 
  4 active torsions:
  status: ('A' for Active; 'I' for Inactive)
    1  A    between atoms: C_12  and  C_28
    2  A    between atoms: C_13  and  C_14
    3  A    between atoms: C_14  and  C_22
    4  A    between atoms: N_17  and  C_29
                            x       y       z     vdW  Elec       q    Type
                         _______ _______ _______ _____ _____    ______ ____

>  <TORSDO>
F 4

$$$$
=
 OpenBabel10252415003D

 34 41  0  0  1  0  0  0  0  0999 V2000
  186.3050  178.0580  146.2290 C   0  0  0  0  0  0  0  0  0  0  0  0
  186.1790  178.2550  143.7990 C   0  0  0  0  0  0  0  0  0  0  0  0
  188.2930  177.6600  144.9030 C   0  0  0  0  0  0  0  0  0  0  0  0
  190.2250  177.2340  143.5660 C   0  0  0  0  0  0  0  0  0  0  0  0
  184.2430  178.6440  145.1270 C   0  0  0  0  0  3  0  0  0  0  0  0
  184.8620  178.5740  143.9160 N   0  0  0  0  0  0  0  0  0  0  0  0
  188.2630  177.8100  142.4640 C   0  0  0  0  0  0  0  0  0  0  0  0
  186.9330  177.9920  144.9720 C   0  0  0  0  0  0  0  0  0  0  0  0
  190.6780  177.2040  141.9450 S   0  0  0  0  0  0  0  0  0  0  0  0
  184.9520  178.3870  146.3050 C   0  0  0  0  0  3  0  0  0  0  0  0
  189.0560  177.3940  146.0650 C   0  0  0  0  0  0  0  0  0  0  0  0
  187.0400  177.7880  147.3890 C   0  0  0  0  0  3  0  0  0  0  0  0
  186.8050  178.1920  142.4130 C   0  0  0  0  0  3  0  0  0  0  0  0
  190.9850  176.9730  144.6590 N   0  0  0  0  0  0  0  0  0  0  0  0
  190.4440  177.0500  145.9200 C   0  0  0  0  0  0  0  0  0  0  0  0
  189.1300  177.6410  141.3870 C   0  0  0  0  0  0  0  0  0  0  0  0
  188.9050  177.5770  143.6710 C   0  0  1  0  0  3  0  0  0  0  0  0
  188.4010  177.4570  147.3070 C   0  0  0  0  0  3  0  0  0  0  0  0
  192.4240  177.4020  149.1580 C   0  0  0  0  0  0  0  0  0  0  0  0
  193.1000  176.1810  149.1890 C   0  0  0  0  0  3  0  0  0  0  0  0
  191.3410  176.7620  147.0720 C   0  0  0  0  0  0  0  0  0  0  0  0
  192.9080  175.2510  148.1660 C   0  0  0  0  0  3  0  0  0  0  0  0
  191.5540  177.6900  148.1030 C   0  0  0  0  0  3  0  0  0  0  0  0
  192.0370  175.5420  147.1120 C   0  0  0  0  0  3  0  0  0  0  0  0
  192.6130  178.3070  150.1470 F   0  0  0  0  0  0  0  0  0  0  0  0
  187.8110  177.7280  138.8830 C   0  0  1  0  0  3  0  0  0  0  0  0
  189.0550  178.2780  138.6290 C   0  0  2  0  0  3  0  0  0  0  0  0
  188.5330  177.2590  137.6410 C   0  0  2  0  0  3  0  0  0  0  0  0
  188.7790  177.8050  140.0190 N   0  0  0  0  0  0  0  0  0  0  0  0
  187.9630  177.9630  136.4170 C   0  0  1  0  0  3  0  0  0  0  0  0
  188.8900  177.8810  135.3750 O   0  0  0  0  0  1  0  0  0  0  0  0
  186.7790  175.8130  135.9030 C   0  0  0  0  0  1  0  0  0  0  0  0
  186.6410  177.3220  135.9890 C   0  0  0  0  0  3  0  0  0  0  0  0
  186.2020  177.8390  134.6290 C   0  0  0  0  0  1  0  0  0  0  0  0
  1 10  2  0  0  0  0
  1 12  1  0  0  0  0
  2  6  1  0  0  0  0
  2  8  1  0  0  0  0
  3  8  2  0  0  0  0
  3 11  1  0  0  0  0
  4 17  1  0  0  0  0
  4 14  2  0  0  0  0
  5 10  1  0  0  0  0
  6  5  2  0  0  0  0
  8  1  1  0  0  0  0
  9  4  1  0  0  0  0
 11 18  1  0  0  0  0
 13  7  1  0  0  0  0
 13  2  2  0  0  0  0
 14 15  1  0  0  0  0
 15 11  2  0  0  0  0
 15 21  1  0  0  0  0
 16  9  1  0  0  0  0
 16  7  2  0  0  0  0
 17  7  1  6  0  0  0
 17  3  1  0  0  0  0
 18 12  2  0  0  0  0
 19 20  1  0  0  0  0
 19 25  1  0  0  0  0
 21 24  2  0  0  0  0
 21 23  1  0  0  0  0
 22 20  2  0  0  0  0
 23 19  2  0  0  0  0
 24 22  1  0  0  0  0
 26 29  1  1  0  0  0
 27 26  1  0  0  0  0
 27 29  1  1  0  0  0
 28 30  1  6  0  0  0
 28 27  1  0  0  0  0
 28 26  1  0  0  0  0
 29 16  1  0  0  0  0
 30 31  1  6  0  0  0
 32 33  1  0  0  0  0
 33 30  1  0  0  0  0
 34 33  1  0  0  0  0
M  END
>  <MODEL>
4

>  <REMARK>
 VINA RESULT:      -9.7      3.844      6.572
  Name = 
  4 active torsions:
  status: ('A' for Active; 'I' for Inactive)
    1  A    between atoms: C_12  and  C_28
    2  A    between atoms: C_13  and  C_14
    3  A    between atoms: C_14  and  C_22
    4  A    between atoms: N_17  and  C_29
                            x       y       z     vdW  Elec       q    Type
                         _______ _______ _______ _____ _____    ______ ____

>  <TORSDO>
F 4

$$$$
=
 OpenBabel10252415003D

 34 41  0  0  1  0  0  0  0  0999 V2000
  189.4860  177.7010  140.6710 C   0  0  0  0  0  0  0  0  0  0  0  0
  187.4750  178.2110  139.3840 C   0  0  0  0  0  0  0  0  0  0  0  0
  187.3940  178.0690  141.8370 C   0  0  0  0  0  0  0  0  0  0  0  0
  185.3270  178.4780  142.9590 C   0  0  0  0  0  0  0  0  0  0  0  0
  189.5430  177.8410  138.2650 C   0  0  0  0  0  3  0  0  0  0  0  0
  188.2120  178.1260  138.2430 N   0  0  0  0  0  0  0  0  0  0  0  0
  185.3340  178.6090  140.6400 C   0  0  0  0  0  0  0  0  0  0  0  0
  188.1100  177.9930  140.6340 C   0  0  0  0  0  0  0  0  0  0  0  0
  183.7300  178.8710  142.5970 S   0  0  0  0  0  0  0  0  0  0  0  0
  190.2040  177.6240  139.4780 C   0  0  0  0  0  3  0  0  0  0  0  0
  188.0160  177.8560  143.0900 C   0  0  0  0  0  0  0  0  0  0  0  0
  190.1210  177.4970  141.9010 C   0  0  0  0  0  3  0  0  0  0  0  0
  185.9910  178.5370  139.2850 C   0  0  0  0  0  3  0  0  0  0  0  0
  185.8910  178.2790  144.1760 N   0  0  0  0  0  0  0  0  0  0  0  0
  187.2230  177.9590  144.2840 C   0  0  0  0  0  0  0  0  0  0  0  0
  184.0010  178.9030  140.9170 C   0  0  0  0  0  0  0  0  0  0  0  0
  186.0510  178.3740  141.8030 C   0  0  1  0  0  3  0  0  0  0  0  0
  189.3930  177.5760  143.0980 C   0  0  0  0  0  3  0  0  0  0  0  0
  189.4840  176.9060  147.1670 C   0  0  0  0  0  0  0  0  0  0  0  0
  188.7190  177.3070  148.2640 C   0  0  0  0  0  3  0  0  0  0  0  0
  187.7700  177.7430  145.6510 C   0  0  0  0  0  0  0  0  0  0  0  0
  187.4800  177.9180  148.0640 C   0  0  0  0  0  3  0  0  0  0  0  0
  189.0090  177.1200  145.8700 C   0  0  0  0  0  3  0  0  0  0  0  0
  187.0070  178.1310  146.7660 C   0  0  0  0  0  3  0  0  0  0  0  0
  190.6840  176.3080  147.3590 F   0  0  0  0  0  0  0  0  0  0  0  0
  182.4930  179.9500  138.7600 C   0  0  1  0  0  3  0  0  0  0  0  0
  181.7140  178.9160  139.2460 C   0  0  2  0  0  3  0  0  0  0  0  0
  181.0180  180.2230  138.9420 C   0  0  2  0  0  3  0  0  0  0  0  0
  183.0060  179.1940  139.9420 N   0  0  0  0  0  0  0  0  0  0  0  0
  180.3090  180.1370  137.5970 C   0  0  1  0  0  3  0  0  0  0  0  0
  178.9310  180.2430  137.8040 O   0  0  0  0  0  1  0  0  0  0  0  0
  180.3980  182.6120  137.2100 C   0  0  0  0  0  1  0  0  0  0  0  0
  180.7820  181.2510  136.6600 C   0  0  0  0  0  3  0  0  0  0  0  0
  180.1620  181.1010  135.2820 C   0  0  0  0  0  1  0  0  0  0  0  0
  1 12  1  0  0  0  0
  2  8  1  0  0  0  0
  3 11  1  0  0  0  0
  4 14  2  0  0  0  0
  5 10  1  0  0  0  0
  6  5  2  0  0  0  0
  6  2  1  0  0  0  0
  7 16  2  0  0  0  0
  8  1  1  0  0  0  0
  8  3  2  0  0  0  0
  9  4  1  0  0  0  0
 10  1  2  0  0  0  0
 11 18  1  0  0  0  0
 11 15  2  0  0  0  0
 12 18  2  0  0  0  0
 13  2  2  0  0  0  0
 13  7  1  0  0  0  0
 14 15  1  0  0  0  0
 15 21  1  0  0  0  0
 16  9  1  0  0  0  0
 17  7  1  1  0  0  0
 17  3  1  0  0  0  0
 17  4  1  0  0  0  0
 19 25  1  0  0  0  0
 19 20  1  0  0  0  0
 21 23  1  0  0  0  0
 21 24  2  0  0  0  0
 22 20  2  0  0  0  0
 23 19  2  0  0  0  0
 24 22  1  0  0  0  0
 26 28  1  0  0  0  0
 26 27  1  0  0  0  0
 26 29  1  1  0  0  0
 27 29  1  1  0  0  0
 28 30  1  6  0  0  0
 28 27  1  0  0  0  0
 29 16  1  0  0  0  0
 30 31  1  1  0  0  0
 33 32  1  0  0  0  0
 33 30  1  0  0  0  0
 34 33  1  0  0  0  0
M  END
>  <MODEL>
5

>  <REMARK>
 VINA RESULT:      -9.7      4.740      8.482
  Name = 
  4 active torsions:
  status: ('A' for Active; 'I' for Inactive)
    1  A    between atoms: C_12  and  C_28
    2  A    between atoms: C_13  and  C_14
    3  A    between atoms: C_14  and  C_22
    4  A    between atoms: N_17  and  C_29
                            x       y       z     vdW  Elec       q    Type
                         _______ _______ _______ _____ _____    ______ ____

>  <TORSDO>
F 4

$$$$
=
 OpenBabel10252415003D

 34 41  0  0  1  0  0  0  0  0999 V2000
  185.7160  178.6280  140.8420 C   0  0  0  0  0  0  0  0  0  0  0  0
  187.4690  178.1410  139.2130 C   0  0  0  0  0  0  0  0  0  0  0  0
  187.9070  177.9520  141.6240 C   0  0  0  0  0  0  0  0  0  0  0  0
  190.0640  177.2430  142.3630 C   0  0  0  0  0  0  0  0  0  0  0  0
  185.3080  178.8110  138.4730 C   0  0  0  0  0  3  0  0  0  0  0  0
  186.5900  178.4310  138.2160 N   0  0  0  0  0  0  0  0  0  0  0  0
  189.7180  177.4200  140.0730 C   0  0  0  0  0  0  0  0  0  0  0  0
  187.0390  178.2400  140.5610 C   0  0  0  0  0  0  0  0  0  0  0  0
  191.5500  176.7820  141.7190 S   0  0  0  0  0  0  0  0  0  0  0  0
  184.8480  178.9160  139.7890 C   0  0  0  0  0  3  0  0  0  0  0  0
  187.4910  178.0450  142.9730 C   0  0  0  0  0  0  0  0  0  0  0  0
  185.2830  178.7160  142.1690 C   0  0  0  0  0  3  0  0  0  0  0  0
  188.8860  177.7190  138.8520 C   0  0  0  0  0  3  0  0  0  0  0  0
  189.6980  177.3220  143.6670 N   0  0  0  0  0  0  0  0  0  0  0  0
  188.4310  177.7250  144.0130 C   0  0  0  0  0  0  0  0  0  0  0  0
  191.0430  176.9920  140.1070 C   0  0  0  0  0  0  0  0  0  0  0  0
  189.1970  177.5540  141.3510 C   0  0  1  0  0  3  0  0  0  0  0  0
  186.1610  178.4250  143.2240 C   0  0  0  0  0  3  0  0  0  0  0  0
  186.5670  178.2700  147.2930 C   0  0  0  0  0  0  0  0  0  0  0  0
  187.5710  177.9840  148.2190 C   0  0  0  0  0  3  0  0  0  0  0  0
  188.1050  177.8000  145.4630 C   0  0  0  0  0  0  0  0  0  0  0  0
  188.8420  177.6130  147.7780 C   0  0  0  0  0  3  0  0  0  0  0  0
  186.8350  178.1820  145.9240 C   0  0  0  0  0  3  0  0  0  0  0  0
  189.1080  177.5260  146.4080 C   0  0  0  0  0  3  0  0  0  0  0  0
  185.3340  178.6350  147.7190 F   0  0  0  0  0  0  0  0  0  0  0  0
  192.0510  176.3970  137.5290 C   0  0  1  0  0  3  0  0  0  0  0  0
  193.1690  176.7780  138.2480 C   0  0  2  0  0  3  0  0  0  0  0  0
  193.2880  175.5400  137.3880 C   0  0  2  0  0  3  0  0  0  0  0  0
  191.8590  176.7570  138.9650 N   0  0  0  0  0  0  0  0  0  0  0  0
  194.0020  175.8760  136.0860 C   0  0  1  0  0  3  0  0  0  0  0  0
  195.3660  176.0320  136.3450 O   0  0  0  0  0  1  0  0  0  0  0  0
  192.9570  173.6420  135.6320 C   0  0  0  0  0  1  0  0  0  0  0  0
  193.7910  174.7690  135.0500 C   0  0  0  0  0  3  0  0  0  0  0  0
  195.1210  174.1920  134.5940 C   0  0  0  0  0  1  0  0  0  0  0  0
  1 12  1  0  0  0  0
  2  8  1  0  0  0  0
  3 11  1  0  0  0  0
  4 14  2  0  0  0  0
  5 10  1  0  0  0  0
  6  5  2  0  0  0  0
  6  2  1  0  0  0  0
  7 16  2  0  0  0  0
  8  1  1  0  0  0  0
  8  3  2  0  0  0  0
  9  4  1  0  0  0  0
 10  1  2  0  0  0  0
 11 18  1  0  0  0  0
 11 15  2  0  0  0  0
 12 18  2  0  0  0  0
 13  2  2  0  0  0  0
 13  7  1  0  0  0  0
 14 15  1  0  0  0  0
 15 21  1  0  0  0  0
 16  9  1  0  0  0  0
 17  7  1  6  0  0  0
 17  3  1  0  0  0  0
 17  4  1  0  0  0  0
 19 25  1  0  0  0  0
 19 20  1  0  0  0  0
 21 23  1  0  0  0  0
 21 24  2  0  0  0  0
 22 20  2  0  0  0  0
 23 19  2  0  0  0  0
 24 22  1  0  0  0  0
 26 27  1  0  0  0  0
 26 29  1  1  0  0  0
 27 29  1  1  0  0  0
 28 30  1  6  0  0  0
 28 26  1  0  0  0  0
 28 27  1  0  0  0  0
 29 16  1  0  0  0  0
 30 31  1  1  0  0  0
 33 32  1  0  0  0  0
 33 30  1  0  0  0  0
 34 33  1  0  0  0  0
M  END
>  <MODEL>
6

>  <REMARK>
 VINA RESULT:      -9.5      2.125      4.603
  Name = 
  4 active torsions:
  status: ('A' for Active; 'I' for Inactive)
    1  A    between atoms: C_12  and  C_28
    2  A    between atoms: C_13  and  C_14
    3  A    between atoms: C_14  and  C_22
    4  A    between atoms: N_17  and  C_29
                            x       y       z     vdW  Elec       q    Type
                         _______ _______ _______ _____ _____    ______ ____

>  <TORSDO>
F 4

$$$$
=
 OpenBabel10252415003D

 34 41  0  0  1  0  0  0  0  0999 V2000
  189.9970  176.9950  145.5230 C   0  0  0  0  0  0  0  0  0  0  0  0
  187.6430  177.6370  145.6290 C   0  0  0  0  0  0  0  0  0  0  0  0
  188.8150  177.5100  143.4720 C   0  0  0  0  0  0  0  0  0  0  0  0
  187.6120  177.9820  141.4640 C   0  0  0  0  0  0  0  0  0  0  0  0
  188.8300  177.1300  147.6290 C   0  0  0  0  0  3  0  0  0  0  0  0
  187.6920  177.5030  146.9820 N   0  0  0  0  0  0  0  0  0  0  0  0
  186.4540  178.1390  143.4720 C   0  0  0  0  0  0  0  0  0  0  0  0
  188.8140  177.3850  144.8690 C   0  0  0  0  0  0  0  0  0  0  0  0
  186.0630  178.4250  140.9750 S   0  0  0  0  0  0  0  0  0  0  0  0
  190.0020  176.8690  146.9120 C   0  0  0  0  0  3  0  0  0  0  0  0
  189.9750  177.2590  142.7010 C   0  0  0  0  0  0  0  0  0  0  0  0
  191.1510  176.7330  144.7780 C   0  0  0  0  0  2  0  0  0  0  0  0
  186.3350  178.0550  144.9720 C   0  0  0  0  0  3  0  0  0  0  0  0
  188.7050  177.7500  140.6960 N   0  0  0  0  0  0  0  0  0  0  0  0
  189.9020  177.3970  141.2730 C   0  0  0  0  0  0  0  0  0  0  0  0
  185.4520  178.4690  142.5630 C   0  0  0  0  0  0  0  0  0  0  0  0
  187.6530  177.8730  142.8280 C   0  0  0  0  0  0  0  0  0  0  0  0
  191.1390  176.8620  143.3810 C   0  0  0  0  0  3  0  0  0  0  0  0
  192.0260  176.3590  138.2830 C   0  0  0  0  0  0  0  0  0  0  0  0
  193.3020  176.7060  138.7300 C   0  0  0  0  0  3  0  0  0  0  0  0
  191.0610  177.1690  140.3680 C   0  0  0  0  0  0  0  0  0  0  0  0
  193.4660  177.2770  139.9930 C   0  0  0  0  0  3  0  0  0  0  0  0
  190.9140  176.5850  139.0990 C   0  0  0  0  0  3  0  0  0  0  0  0
  192.3530  177.5030  140.8080 C   0  0  0  0  0  3  0  0  0  0  0  0
  191.8650  175.8000  137.0600 F   0  0  0  0  0  0  0  0  0  0  0  0
  182.7240  178.4210  143.3220 C   0  0  1  0  0  3  0  0  0  0  0  0
  183.0230  179.7670  143.2220 C   0  0  2  0  0  3  0  0  0  0  0  0
  181.7300  179.2960  142.5950 C   0  0  2  0  0  3  0  0  0  0  0  0
  184.1090  178.7930  142.9050 N   0  0  0  0  0  0  0  0  0  0  0  0
  180.5570  179.6160  143.5130 C   0  0  1  0  0  3  0  0  0  0  0  0
  180.0560  180.8780  143.1830 O   0  0  0  0  0  1  0  0  0  0  0  0
  179.6800  177.4190  144.3440 C   0  0  0  0  0  1  0  0  0  0  0  0
  179.4550  178.5640  143.3730 C   0  0  0  0  0  3  0  0  0  0  0  0
  179.4220  177.9960  141.9640 C   0  0  0  0  0  1  0  0  0  0  0  0
  1 10  2  0  0  0  0
  2  6  1  0  0  0  0
  3  8  2  0  0  0  0
  4 17  2  0  0  0  0
  6  5  2  0  0  0  0
  7 13  1  0  0  0  0
  8  1  1  0  0  0  0
  8  2  1  0  0  0  0
  9  4  1  0  0  0  0
  9 16  1  0  0  0  0
 10  5  1  0  0  0  0
 11 18  2  0  0  0  0
 11  3  1  0  0  0  0
 12  1  1  0  0  0  0
 13  2  2  0  0  0  0
 14 15  2  0  0  0  0
 14  4  1  0  0  0  0
 15 11  1  0  0  0  0
 16 29  1  0  0  0  0
 16  7  2  0  0  0  0
 17  7  1  0  0  0  0
 17  3  1  0  0  0  0
 18 12  1  0  0  0  0
 19 20  2  0  0  0  0
 19 23  1  0  0  0  0
 20 22  1  0  0  0  0
 21 24  1  0  0  0  0
 21 15  1  0  0  0  0
 22 24  2  0  0  0  0
 23 21  2  0  0  0  0
 25 19  1  0  0  0  0
 26 29  1  6  0  0  0
 27 29  1  6  0  0  0
 27 26  1  0  0  0  0
 28 27  1  0  0  0  0
 28 26  1  0  0  0  0
 28 30  1  1  0  0  0
 30 31  1  6  0  0  0
 33 30  1  0  0  0  0
 33 32  1  0  0  0  0
 34 33  1  0  0  0  0
M  END
>  <MODEL>
7

>  <REMARK>
 VINA RESULT:      -9.2      3.996      8.984
  Name = 
  4 active torsions:
  status: ('A' for Active; 'I' for Inactive)
    1  A    between atoms: C_12  and  C_28
    2  A    between atoms: C_13  and  C_14
    3  A    between atoms: C_14  and  C_22
    4  A    between atoms: N_17  and  C_29
                            x       y       z     vdW  Elec       q    Type
                         _______ _______ _______ _____ _____    ______ ____

>  <TORSDO>
F 4

$$$$
=
 OpenBabel10252415003D

 34 41  0  0  1  0  0  0  0  0999 V2000
  185.2560  178.5750  145.0500 C   0  0  0  0  0  0  0  0  0  0  0  0
  185.2100  178.6190  142.6090 C   0  0  0  0  0  0  0  0  0  0  0  0
  187.2750  178.0540  143.8160 C   0  0  0  0  0  0  0  0  0  0  0  0
  189.2380  177.5060  142.5720 C   0  0  0  0  0  0  0  0  0  0  0  0
  183.2420  179.1300  143.8470 C   0  0  0  0  0  3  0  0  0  0  0  0
  183.8970  178.9700  142.6640 N   0  0  0  0  0  0  0  0  0  0  0  0
  187.3230  178.0490  141.3730 C   0  0  0  0  0  0  0  0  0  0  0  0
  185.9210  178.4160  143.8200 C   0  0  0  0  0  0  0  0  0  0  0  0
  189.7390  177.3630  140.9710 S   0  0  0  0  0  0  0  0  0  0  0  0
  183.9090  178.9340  145.0610 C   0  0  0  0  0  3  0  0  0  0  0  0
  187.9960  177.8480  145.0170 C   0  0  0  0  0  0  0  0  0  0  0  0
  185.9490  178.3650  146.2480 C   0  0  0  0  0  3  0  0  0  0  0  0
  185.8770  178.4550  141.2510 C   0  0  0  0  0  3  0  0  0  0  0  0
  189.9580  177.3000  143.7030 N   0  0  0  0  0  0  0  0  0  0  0  0
  189.3800  177.4680  144.9390 C   0  0  0  0  0  0  0  0  0  0  0  0
  188.2200  177.7940  140.3380 C   0  0  0  0  0  0  0  0  0  0  0  0
  187.9230  177.8810  142.6130 C   0  0  1  0  0  3  0  0  0  0  0  0
  187.3040  178.0030  146.2300 C   0  0  0  0  0  3  0  0  0  0  0  0
  192.0810  176.1220  147.2660 C   0  0  0  0  0  0  0  0  0  0  0  0
  191.7710  176.7940  148.4490 C   0  0  0  0  0  3  0  0  0  0  0  0
  190.2340  177.2360  146.1350 C   0  0  0  0  0  0  0  0  0  0  0  0
  190.6940  177.6810  148.4860 C   0  0  0  0  0  3  0  0  0  0  0  0
  191.3140  176.3390  146.1180 C   0  0  0  0  0  3  0  0  0  0  0  0
  189.9280  177.8970  147.3370 C   0  0  0  0  0  3  0  0  0  0  0  0
  193.1230  175.2570  147.2300 F   0  0  0  0  0  0  0  0  0  0  0  0
  187.8050  178.6260  137.6630 C   0  0  1  0  0  3  0  0  0  0  0  0
  187.5550  177.2660  137.6360 C   0  0  2  0  0  3  0  0  0  0  0  0
  186.5730  178.1640  136.9190 C   0  0  2  0  0  3  0  0  0  0  0  0
  187.9140  177.8770  138.9510 N   0  0  0  0  0  0  0  0  0  0  0  0
  186.8510  178.1510  135.4220 C   0  0  1  0  0  3  0  0  0  0  0  0
  188.1690  177.7390  135.2090 O   0  0  0  0  0  1  0  0  0  0  0  0
  184.5650  177.1210  135.4410 C   0  0  0  0  0  1  0  0  0  0  0  0
  185.8860  177.2080  134.6980 C   0  0  0  0  0  3  0  0  0  0  0  0
  186.4690  175.8090  134.5960 C   0  0  0  0  0  1  0  0  0  0  0  0
  1 10  2  0  0  0  0
  1 12  1  0  0  0  0
  2  6  1  0  0  0  0
  2  8  1  0  0  0  0
  3  8  2  0  0  0  0
  3 11  1  0  0  0  0
  4 17  1  0  0  0  0
  4 14  2  0  0  0  0
  5 10  1  0  0  0  0
  6  5  2  0  0  0  0
  8  1  1  0  0  0  0
  9  4  1  0  0  0  0
 11 18  1  0  0  0  0
 13  7  1  0  0  0  0
 13  2  2  0  0  0  0
 14 15  1  0  0  0  0
 15 11  2  0  0  0  0
 15 21  1  0  0  0  0
 16  9  1  0  0  0  0
 16  7  2  0  0  0  0
 17  7  1  6  0  0  0
 17  3  1  0  0  0  0
 18 12  2  0  0  0  0
 19 20  1  0  0  0  0
 20 22  2  0  0  0  0
 21 24  2  0  0  0  0
 23 21  1  0  0  0  0
 23 19  2  0  0  0  0
 24 22  1  0  0  0  0
 25 19  1  0  0  0  0
 26 29  1  1  0  0  0
 27 26  1  0  0  0  0
 27 29  1  1  0  0  0
 28 30  1  6  0  0  0
 28 27  1  0  0  0  0
 28 26  1  0  0  0  0
 29 16  1  0  0  0  0
 30 31  1  1  0  0  0
 33 30  1  0  0  0  0
 33 32  1  0  0  0  0
 34 33  1  0  0  0  0
M  END
>  <MODEL>
8

>  <REMARK>
 VINA RESULT:      -8.8      4.058      6.531
  Name = 
  4 active torsions:
  status: ('A' for Active; 'I' for Inactive)
    1  A    between atoms: C_12  and  C_28
    2  A    between atoms: C_13  and  C_14
    3  A    between atoms: C_14  and  C_22
    4  A    between atoms: N_17  and  C_29
                            x       y       z     vdW  Elec       q    Type
                         _______ _______ _______ _____ _____    ______ ____

>  <TORSDO>
F 4

$$$$
=
 OpenBabel10252415003D

 34 41  0  0  1  0  0  0  0  0999 V2000
  186.6330  178.0930  143.9800 C   0  0  0  0  0  0  0  0  0  0  0  0
  188.7150  177.4580  142.8730 C   0  0  0  0  0  0  0  0  0  0  0  0
  186.7580  178.1580  141.5610 C   0  0  0  0  0  0  0  0  0  0  0  0
  186.9250  178.2520  139.1810 C   0  0  0  0  0  0  0  0  0  0  0  0
  188.5630  177.4000  145.2480 C   0  0  0  0  0  3  0  0  0  0  0  0
  189.2650  177.2210  144.0950 N   0  0  0  0  0  0  0  0  0  0  0  0
  188.8030  177.5650  140.3630 C   0  0  0  0  0  0  0  0  0  0  0  0
  187.3690  177.9010  142.7970 C   0  0  0  0  0  0  0  0  0  0  0  0
  188.0540  177.9660  137.9660 S   0  0  0  0  0  0  0  0  0  0  0  0
  187.2350  177.8390  145.2120 C   0  0  0  0  0  3  0  0  0  0  0  0
  185.4170  178.6010  141.4710 C   0  0  0  0  0  0  0  0  0  0  0  0
  185.3090  178.5400  143.9120 C   0  0  0  0  0  3  0  0  0  0  0  0
  189.5600  177.2410  141.6260 C   0  0  0  0  0  3  0  0  0  0  0  0
  185.6430  178.6770  139.0590 N   0  0  0  0  0  0  0  0  0  0  0  0
  184.8570  178.8550  140.1720 C   0  0  0  0  0  0  0  0  0  0  0  0
  189.2760  177.4980  139.0550 C   0  0  0  0  0  0  0  0  0  0  0  0
  187.4830  177.9880  140.4030 C   0  0  1  0  0  3  0  0  0  0  0  0
  184.7090  178.7940  142.6690 C   0  0  0  0  0  3  0  0  0  0  0  0
  181.0710  179.2070  140.4390 C   0  0  0  0  0  0  0  0  0  0  0  0
  180.8250  180.1750  139.4640 C   0  0  0  0  0  3  0  0  0  0  0  0
  183.4570  179.3130  139.9590 C   0  0  0  0  0  0  0  0  0  0  0  0
  181.8840  180.7100  138.7290 C   0  0  0  0  0  3  0  0  0  0  0  0
  182.3780  178.7760  140.6810 C   0  0  0  0  0  3  0  0  0  0  0  0
  183.1910  180.2780  138.9730 C   0  0  0  0  0  3  0  0  0  0  0  0
  180.0430  178.6830  141.1490 F   0  0  0  0  0  0  0  0  0  0  0  0
  191.5940  176.6450  137.6710 C   0  0  1  0  0  3  0  0  0  0  0  0
  192.0450  176.9140  138.9510 C   0  0  2  0  0  3  0  0  0  0  0  0
  192.5130  175.6280  138.3070 C   0  0  2  0  0  3  0  0  0  0  0  0
  190.5890  177.1010  138.6770 N   0  0  0  0  0  0  0  0  0  0  0  0
  193.9260  175.8000  137.7650 C   0  0  1  0  0  3  0  0  0  0  0  0
  194.8310  175.2530  138.6790 O   0  0  0  0  0  1  0  0  0  0  0  0
  194.5980  173.6950  136.5800 C   0  0  0  0  0  1  0  0  0  0  0  0
  194.0750  175.1100  136.4070 C   0  0  0  0  0  3  0  0  0  0  0  0
  195.0410  175.8700  135.5140 C   0  0  0  0  0  1  0  0  0  0  0  0
  1 10  2  0  0  0  0
  2  6  1  0  0  0  0
  3  8  2  0  0  0  0
  6  5  2  0  0  0  0
  7 17  1  0  0  0  0
  7 13  1  0  0  0  0
  8  2  1  0  0  0  0
  8  1  1  0  0  0  0
  9 16  1  0  0  0  0
  9  4  1  0  0  0  0
 10  5  1  0  0  0  0
 11  3  1  0  0  0  0
 11 18  1  0  0  0  0
 12  1  1  0  0  0  0
 13  2  2  0  0  0  0
 14  4  2  0  0  0  0
 14 15  1  0  0  0  0
 15 11  2  0  0  0  0
 16  7  2  0  0  0  0
 17  4  1  1  0  0  0
 17  3  1  0  0  0  0
 18 12  2  0  0  0  0
 19 23  1  0  0  0  0
 19 25  1  0  0  0  0
 20 19  2  0  0  0  0
 21 15  1  0  0  0  0
 21 23  2  0  0  0  0
 22 24  2  0  0  0  0
 22 20  1  0  0  0  0
 24 21  1  0  0  0  0
 26 28  1  0  0  0  0
 26 29  1  1  0  0  0
 26 27  1  0  0  0  0
 27 29  1  1  0  0  0
 28 30  1  6  0  0  0
 28 27  1  0  0  0  0
 29 16  1  0  0  0  0
 30 31  1  1  0  0  0
 33 32  1  0  0  0  0
 33 30  1  0  0  0  0
 34 33  1  0  0  0  0
M  END
>  <MODEL>
9

>  <REMARK>
 VINA RESULT:      -8.7      1.933      2.943
  Name = 
  4 active torsions:
  status: ('A' for Active; 'I' for Inactive)
    1  A    between atoms: C_12  and  C_28
    2  A    between atoms: C_13  and  C_14
    3  A    between atoms: C_14  and  C_22
    4  A    between atoms: N_17  and  C_29
                            x       y       z     vdW  Elec       q    Type
                         _______ _______ _______ _____ _____    ______ ____

>  <TORSDO>
F 4

$$$$
