=
 OpenBabel10262421263D

 32 37  0  0  1  0  0  0  0  0999 V2000
  182.2450  175.8090  138.8340 C   0  0  2  0  0  3  0  0  0  0  0  0
  183.8220  178.5890  138.3240 C   0  0  0  0  0  2  0  0  0  0  0  0
  186.5840  178.0070  142.8270 C   0  0  0  0  0  2  0  0  0  0  0  0
  190.4240  176.6880  138.5300 C   0  0  0  0  0  3  0  0  0  0  0  0
  191.3600  176.8940  139.5630 C   0  0  0  0  0  3  0  0  0  0  0  0
  184.6560  178.3800  141.1740 C   0  0  2  0  0  3  0  0  0  0  0  0
  186.4940  178.6990  139.5460 C   0  0  0  0  0  2  0  0  0  0  0  0
  181.9260  177.0530  138.0090 C   0  0  0  0  0  2  0  0  0  0  0  0
  184.4170  179.7530  139.1140 C   0  0  0  0  0  2  0  0  0  0  0  0
  189.0660  176.9800  138.7340 C   0  0  0  0  0  3  0  0  0  0  0  0
  187.3160  177.8060  140.4710 C   0  0  1  0  0  3  0  0  0  0  0  0
  188.6810  177.4940  139.9730 C   0  0  0  0  0  0  0  0  0  0  0  0
  188.9680  178.1770  142.1570 N   0  0  0  0  0  0  0  0  0  0  0  0
  182.6610  176.2790  140.2190 C   0  0  0  0  0  2  0  0  0  0  0  0
  182.3500  177.7590  140.2430 C   0  0  1  0  0  3  0  0  0  0  0  0
  183.3000  175.1130  138.2450 O   0  0  0  0  0  1  0  0  0  0  0  0
  185.3050  179.2930  140.1920 N   0  0  1  0  0  0  0  0  0  0  0  0
  183.1370  178.5640  141.2800 C   0  0  0  0  0  2  0  0  0  0  0  0
  182.4140  178.2500  138.8030 C   0  0  1  0  0  3  0  0  0  0  0  0
  190.9430  177.3890  140.8090 C   0  0  0  0  0  3  0  0  0  0  0  0
  189.5880  177.6720  140.9850 C   0  0  0  0  0  0  0  0  0  0  0  0
  185.2200  178.6510  142.5750 C   0  0  0  0  0  2  0  0  0  0  0  0
  187.5870  178.5070  141.8070 C   0  0  2  0  0  3  0  0  0  0  0  0
  189.6880  178.7860  143.2710 C   0  0  0  0  0  2  0  0  0  0  0  0
  188.9010  177.8780  145.3770 C   0  0  0  0  0  3  0  0  0  0  0  0
  188.8550  176.9260  146.5270 C   0  0  1  0  0  3  0  0  0  0  0  0
  191.5900  176.3780  145.4370 C   0  0  0  0  0  3  0  0  0  0  0  0
  191.3070  176.6940  146.8500 C   0  0  0  0  0  3  0  0  0  0  0  0
  190.1030  176.9820  147.3420 C   0  0  0  0  0  3  0  0  0  0  0  0
  187.7700  177.2270  147.3270 F   0  0  0  0  0  0  0  0  0  0  0  0
  190.9360  176.8640  144.3760 C   0  0  0  0  0  3  0  0  0  0  0  0
  189.8100  177.8210  144.4010 C   0  0  0  0  0  0  0  0  0  0  0  0
  1 16  1  6  0  0  0
  1 14  1  0  0  0  0
  2 19  1  0  0  0  0
  2  9  1  0  0  0  0
  4 10  2  0  0  0  0
  4  5  1  0  0  0  0
  5 20  2  0  0  0  0
  6 18  1  1  0  0  0
  6 22  1  0  0  0  0
  7 17  1  0  0  0  0
  8  1  1  0  0  0  0
 10 12  1  0  0  0  0
 11  7  1  6  0  0  0
 11 23  1  0  0  0  0
 12 11  1  0  0  0  0
 12 21  2  0  0  0  0
 13 24  1  0  0  0  0
 15 14  1  6  0  0  0
 15 18  1  0  0  0  0
 17  9  1  6  0  0  0
 17  6  1  0  0  0  0
 19  8  1  6  0  0  0
 19 15  1  0  0  0  0
 20 21  1  0  0  0  0
 21 13  1  0  0  0  0
 22  3  1  0  0  0  0
 23 13  1  0  0  0  0
 23  3  1  1  0  0  0
 24 32  1  0  0  0  0
 25 26  1  0  0  0  0
 26 30  1  1  0  0  0
 26 29  1  0  0  0  0
 27 28  1  0  0  0  0
 28 29  2  0  0  0  0
 31 32  1  0  0  0  0
 31 27  2  0  0  0  0
 32 25  2  0  0  0  0
M  END
>  <MODEL>
1

>  <REMARK>
 VINA RESULT:      -9.4      0.000      0.000
  Name = 
  2 active torsions:
  status: ('A' for Active; 'I' for Inactive)
    1  A    between atoms: N_16  and  C_27
    2  A    between atoms: C_27  and  C_32
                            x       y       z     vdW  Elec       q    Type
                         _______ _______ _______ _____ _____    ______ ____

>  <TORSDO>
F 2

$$$$
=
 OpenBabel10262421263D

 32 37  0  0  1  0  0  0  0  0999 V2000
  180.6180  175.8970  138.5460 C   0  0  2  0  0  3  0  0  0  0  0  0
  181.8840  178.8310  138.0330 C   0  0  0  0  0  2  0  0  0  0  0  0
  185.5390  178.0670  141.8150 C   0  0  0  0  0  2  0  0  0  0  0  0
  188.4920  177.4640  136.7300 C   0  0  0  0  0  3  0  0  0  0  0  0
  189.6050  177.6510  137.5730 C   0  0  0  0  0  3  0  0  0  0  0  0
  183.2940  178.4310  140.6240 C   0  0  2  0  0  3  0  0  0  0  0  0
  184.7380  179.0470  138.7080 C   0  0  0  0  0  2  0  0  0  0  0  0
  180.0610  177.1800  137.9370 C   0  0  0  0  0  2  0  0  0  0  0  0
  182.5550  179.9620  138.8090 C   0  0  0  0  0  2  0  0  0  0  0  0
  187.1890  177.6250  137.2270 C   0  0  0  0  0  3  0  0  0  0  0  0
  185.7840  178.1430  139.3530 C   0  0  1  0  0  3  0  0  0  0  0  0
  187.0350  177.9900  138.5650 C   0  0  0  0  0  0  0  0  0  0  0  0
  187.7200  178.4910  140.7090 N   0  0  0  0  0  0  0  0  0  0  0  0
  181.2790  176.2700  139.8630 C   0  0  0  0  0  2  0  0  0  0  0  0
  180.8890  177.7120  140.1050 C   0  0  1  0  0  3  0  0  0  0  0  0
  181.5710  175.3460  137.6900 O   0  0  0  0  0  1  0  0  0  0  0  0
  183.6720  179.4800  139.6350 N   0  0  1  0  0  0  0  0  0  0  0  0
  181.8210  178.4800  141.0460 C   0  0  0  0  0  2  0  0  0  0  0  0
  180.6270  178.3360  138.7420 C   0  0  1  0  0  3  0  0  0  0  0  0
  189.4220  177.9940  138.9230 C   0  0  0  0  0  3  0  0  0  0  0  0
  188.1170  178.1480  139.3920 C   0  0  0  0  0  0  0  0  0  0  0  0
  184.1150  178.6170  141.9070 C   0  0  0  0  0  2  0  0  0  0  0  0
  186.2800  178.7380  140.6760 C   0  0  2  0  0  3  0  0  0  0  0  0
  188.6140  179.0530  141.7180 C   0  0  0  0  0  2  0  0  0  0  0  0
  188.3830  177.9450  143.8620 C   0  0  0  0  0  3  0  0  0  0  0  0
  188.6360  176.8990  144.8990 C   0  0  1  0  0  3  0  0  0  0  0  0
  191.0230  176.5380  143.1280 C   0  0  0  0  0  3  0  0  0  0  0  0
  191.0940  176.7250  144.5890 C   0  0  0  0  0  3  0  0  0  0  0  0
  190.0460  176.9300  145.3850 C   0  0  0  0  0  3  0  0  0  0  0  0
  187.7780  177.0950  145.9640 F   0  0  0  0  0  0  0  0  0  0  0  0
  190.1210  177.0890  142.3070 C   0  0  0  0  0  3  0  0  0  0  0  0
  189.0230  178.0010  142.6920 C   0  0  0  0  0  0  0  0  0  0  0  0
  1 16  1  6  0  0  0
  1 14  1  0  0  0  0
  2 19  1  0  0  0  0
  2  9  1  0  0  0  0
  3 22  1  0  0  0  0
  4 10  2  0  0  0  0
  4  5  1  0  0  0  0
  5 20  2  0  0  0  0
  6 18  1  1  0  0  0
  6 22  1  0  0  0  0
  8  1  1  0  0  0  0
  9 17  1  0  0  0  0
 10 12  1  0  0  0  0
 11  7  1  6  0  0  0
 11 23  1  0  0  0  0
 12 11  1  0  0  0  0
 12 21  2  0  0  0  0
 13 24  1  0  0  0  0
 15 14  1  6  0  0  0
 15 18  1  0  0  0  0
 17  7  1  6  0  0  0
 17  6  1  0  0  0  0
 19  8  1  6  0  0  0
 19 15  1  0  0  0  0
 20 21  1  0  0  0  0
 21 13  1  0  0  0  0
 23 13  1  0  0  0  0
 23  3  1  1  0  0  0
 24 32  1  0  0  0  0
 25 26  1  0  0  0  0
 26 29  1  0  0  0  0
 26 30  1  1  0  0  0
 27 28  1  0  0  0  0
 28 29  2  0  0  0  0
 31 32  1  0  0  0  0
 31 27  2  0  0  0  0
 32 25  2  0  0  0  0
M  END
>  <MODEL>
2

>  <REMARK>
 VINA RESULT:      -8.1      1.433      1.946
  Name = 
  2 active torsions:
  status: ('A' for Active; 'I' for Inactive)
    1  A    between atoms: N_16  and  C_27
    2  A    between atoms: C_27  and  C_32
                            x       y       z     vdW  Elec       q    Type
                         _______ _______ _______ _____ _____    ______ ____

>  <TORSDO>
F 2

$$$$
=
 OpenBabel10262421263D

 32 37  0  0  1  0  0  0  0  0999 V2000
  189.0210  174.6150  136.2040 C   0  0  2  0  0  3  0  0  0  0  0  0
  189.9970  177.4620  137.3950 C   0  0  0  0  0  2  0  0  0  0  0  0
  185.3030  178.2370  139.7620 C   0  0  0  0  0  2  0  0  0  0  0  0
  188.9710  176.7520  144.1540 C   0  0  0  0  0  3  0  0  0  0  0  0
  187.9460  177.3080  144.9440 C   0  0  0  0  0  3  0  0  0  0  0  0
  187.1190  177.9550  137.9690 C   0  0  2  0  0  3  0  0  0  0  0  0
  188.6550  178.2480  139.8900 C   0  0  0  0  0  2  0  0  0  0  0  0
  190.1060  175.6030  135.7860 C   0  0  0  0  0  2  0  0  0  0  0  0
  189.4310  178.8400  137.7320 C   0  0  0  0  0  2  0  0  0  0  0  0
  188.9210  176.8500  142.7540 C   0  0  0  0  0  3  0  0  0  0  0  0
  187.5130  177.7010  140.7410 C   0  0  1  0  0  3  0  0  0  0  0  0
  187.8450  177.5270  142.1790 C   0  0  0  0  0  0  0  0  0  0  0  0
  185.8380  178.6620  142.1490 N   0  0  0  0  0  0  0  0  0  0  0  0
  187.7410  175.4090  136.4100 C   0  0  0  0  0  2  0  0  0  0  0  0
  188.0470  176.7930  135.8830 C   0  0  1  0  0  3  0  0  0  0  0  0
  189.3820  174.0000  137.4030 O   0  0  0  0  0  1  0  0  0  0  0  0
  188.2260  178.7530  138.5690 N   0  0  1  0  0  0  0  0  0  0  0  0
  187.1520  177.9040  136.4380 C   0  0  0  0  0  2  0  0  0  0  0  0
  189.5500  176.9960  136.0120 C   0  0  1  0  0  3  0  0  0  0  0  0
  186.8600  177.9620  144.3390 C   0  0  0  0  0  3  0  0  0  0  0  0
  186.8360  178.0470  142.9470 C   0  0  0  0  0  0  0  0  0  0  0  0
  185.7710  178.5850  138.3490 C   0  0  0  0  0  2  0  0  0  0  0  0
  186.3370  178.6860  140.7750 C   0  0  2  0  0  3  0  0  0  0  0  0
  184.8310  179.5880  142.6580 C   0  0  0  0  0  2  0  0  0  0  0  0
  182.8920  178.6590  141.5390 C   0  0  0  0  0  3  0  0  0  0  0  0
  181.5900  177.9360  141.4270 C   0  0  1  0  0  3  0  0  0  0  0  0
  181.6100  178.6330  144.3390 C   0  0  0  0  0  3  0  0  0  0  0  0
  180.4950  178.9340  143.4210 C   0  0  0  0  0  3  0  0  0  0  0  0
  180.4880  178.6700  142.1150 C   0  0  0  0  0  3  0  0  0  0  0  0
  181.2690  177.7740  140.0930 F   0  0  0  0  0  0  0  0  0  0  0  0
  182.9100  178.6280  144.0230 C   0  0  0  0  0  3  0  0  0  0  0  0
  183.4940  178.9310  142.6990 C   0  0  0  0  0  0  0  0  0  0  0  0
  1 14  1  0  0  0  0
  1 16  1  1  0  0  0
  2  9  1  0  0  0  0
  4  5  1  0  0  0  0
  6 18  1  6  0  0  0
  6 22  1  0  0  0  0
  6 17  1  0  0  0  0
  8  1  1  0  0  0  0
 10  4  2  0  0  0  0
 11  7  1  6  0  0  0
 11 23  1  0  0  0  0
 11 12  1  0  0  0  0
 12 10  1  0  0  0  0
 12 21  2  0  0  0  0
 13 24  1  0  0  0  0
 13 21  1  0  0  0  0
 15 19  1  0  0  0  0
 15 14  1  1  0  0  0
 15 18  1  0  0  0  0
 17  9  1  6  0  0  0
 17  7  1  0  0  0  0
 19  8  1  1  0  0  0
 19  2  1  0  0  0  0
 20  5  2  0  0  0  0
 21 20  1  0  0  0  0
 22  3  1  0  0  0  0
 23  3  1  6  0  0  0
 23 13  1  0  0  0  0
 24 32  1  0  0  0  0
 25 32  2  0  0  0  0
 26 30  1  6  0  0  0
 26 25  1  0  0  0  0
 26 29  1  0  0  0  0
 28 27  1  0  0  0  0
 29 28  2  0  0  0  0
 31 27  2  0  0  0  0
 32 31  1  0  0  0  0
M  END
>  <MODEL>
3

>  <REMARK>
 VINA RESULT:      -7.9      2.944      6.534
  Name = 
  2 active torsions:
  status: ('A' for Active; 'I' for Inactive)
    1  A    between atoms: N_16  and  C_27
    2  A    between atoms: C_27  and  C_32
                            x       y       z     vdW  Elec       q    Type
                         _______ _______ _______ _____ _____    ______ ____

>  <TORSDO>
F 2

$$$$
=
 OpenBabel10262421263D

 32 37  0  0  1  0  0  0  0  0999 V2000
  185.6810  175.0320  135.7770 C   0  0  2  0  0  3  0  0  0  0  0  0
  187.2920  177.8370  135.6870 C   0  0  0  0  0  2  0  0  0  0  0  0
  188.1200  177.6890  140.9340 C   0  0  0  0  0  2  0  0  0  0  0  0
  193.3340  176.2500  138.5510 C   0  0  0  0  0  3  0  0  0  0  0  0
  193.7980  176.5680  139.8430 C   0  0  0  0  0  3  0  0  0  0  0  0
  186.9690  177.8620  138.6450 C   0  0  2  0  0  3  0  0  0  0  0  0
  189.2870  178.1500  137.8230 C   0  0  0  0  0  2  0  0  0  0  0  0
  185.6850  176.2010  134.7960 C   0  0  0  0  0  2  0  0  0  0  0  0
  187.5210  179.0780  136.5480 C   0  0  0  0  0  2  0  0  0  0  0  0
  191.9980  176.4940  138.1960 C   0  0  0  0  0  3  0  0  0  0  0  0
  189.7030  177.3600  139.0600 C   0  0  1  0  0  3  0  0  0  0  0  0
  191.1590  177.0750  139.1490 C   0  0  0  0  0  0  0  0  0  0  0  0
  190.5750  177.9180  141.2140 N   0  0  0  0  0  0  0  0  0  0  0  0
  185.5250  175.6140  137.1730 C   0  0  0  0  0  2  0  0  0  0  0  0
  185.2080  177.0770  136.9570 C   0  0  1  0  0  3  0  0  0  0  0  0
  186.8910  174.3450  135.6940 O   0  0  0  0  0  1  0  0  0  0  0  0
  187.9330  178.7330  137.9160 N   0  0  1  0  0  0  0  0  0  0  0  0
  185.5240  177.9850  138.1480 C   0  0  0  0  0  2  0  0  0  0  0  0
  185.8130  177.4700  135.6170 C   0  0  1  0  0  3  0  0  0  0  0  0
  192.9270  177.1280  140.7910 C   0  0  0  0  0  3  0  0  0  0  0  0
  191.6050  177.3620  140.4120 C   0  0  0  0  0  0  0  0  0  0  0  0
  186.9480  178.2530  140.1290 C   0  0  0  0  0  2  0  0  0  0  0  0
  189.4300  178.1620  140.3380 C   0  0  2  0  0  3  0  0  0  0  0  0
  190.8030  178.6340  142.4660 C   0  0  0  0  0  2  0  0  0  0  0  0
  189.3060  177.9700  144.2540 C   0  0  0  0  0  3  0  0  0  0  0  0
  188.8070  177.1280  145.3820 C   0  0  1  0  0  3  0  0  0  0  0  0
  191.6800  176.2940  145.2710 C   0  0  0  0  0  3  0  0  0  0  0  0
  190.9960  176.7510  146.4940 C   0  0  0  0  0  3  0  0  0  0  0  0
  189.7310  177.1660  146.5520 C   0  0  0  0  0  3  0  0  0  0  0  0
  187.5580  177.5730  145.7690 F   0  0  0  0  0  0  0  0  0  0  0  0
  191.4470  176.7310  144.0280 C   0  0  0  0  0  3  0  0  0  0  0  0
  190.4670  177.7640  143.6290 C   0  0  0  0  0  0  0  0  0  0  0  0
  1 16  1  1  0  0  0
  1 14  1  0  0  0  0
  2  9  1  0  0  0  0
  4  5  1  0  0  0  0
  5 20  2  0  0  0  0
  6 18  1  6  0  0  0
  6 22  1  0  0  0  0
  7 17  1  0  0  0  0
  8  1  1  0  0  0  0
 10  4  2  0  0  0  0
 10 12  1  0  0  0  0
 11  7  1  6  0  0  0
 11 12  1  0  0  0  0
 11 23  1  0  0  0  0
 12 21  2  0  0  0  0
 13 24  1  0  0  0  0
 15 14  1  1  0  0  0
 15 18  1  0  0  0  0
 17  9  1  6  0  0  0
 17  6  1  0  0  0  0
 19  8  1  6  0  0  0
 19  2  1  0  0  0  0
 19 15  1  0  0  0  0
 21 20  1  0  0  0  0
 21 13  1  0  0  0  0
 22  3  1  0  0  0  0
 23  3  1  1  0  0  0
 23 13  1  0  0  0  0
 24 32  1  0  0  0  0
 25 26  1  0  0  0  0
 26 30  1  1  0  0  0
 26 29  1  0  0  0  0
 27 28  1  0  0  0  0
 28 29  2  0  0  0  0
 31 27  2  0  0  0  0
 32 31  1  0  0  0  0
 32 25  2  0  0  0  0
M  END
>  <MODEL>
4

>  <REMARK>
 VINA RESULT:      -7.6      2.311      3.040
  Name = 
  2 active torsions:
  status: ('A' for Active; 'I' for Inactive)
    1  A    between atoms: N_16  and  C_27
    2  A    between atoms: C_27  and  C_32
                            x       y       z     vdW  Elec       q    Type
                         _______ _______ _______ _____ _____    ______ ____

>  <TORSDO>
F 2

$$$$
=
 OpenBabel10262421263D

 32 37  0  0  1  0  0  0  0  0999 V2000
  180.7490  177.1980  134.9420 C   0  0  2  0  0  3  0  0  0  0  0  0
  181.9850  175.2490  137.2110 C   0  0  0  0  0  2  0  0  0  0  0  0
  184.5640  179.3010  139.4830 C   0  0  0  0  0  2  0  0  0  0  0  0
  179.9920  178.2310  143.0730 C   0  0  0  0  0  3  0  0  0  0  0  0
  180.7660  178.9880  143.9740 C   0  0  0  0  0  3  0  0  0  0  0  0
  183.8460  177.4930  137.8080 C   0  0  2  0  0  3  0  0  0  0  0  0
  182.6010  176.5950  139.7510 C   0  0  0  0  0  2  0  0  0  0  0  0
  180.9990  175.6940  135.0000 C   0  0  0  0  0  2  0  0  0  0  0  0
  183.2560  175.0900  138.0440 C   0  0  0  0  0  2  0  0  0  0  0  0
  180.5190  177.8520  141.8280 C   0  0  0  0  0  3  0  0  0  0  0  0
  182.5870  178.0320  140.2620 C   0  0  1  0  0  3  0  0  0  0  0  0
  181.8280  178.2310  141.5240 C   0  0  0  0  0  0  0  0  0  0  0  0
  183.8560  179.2740  141.8620 N   0  0  0  0  0  0  0  0  0  0  0  0
  182.0280  177.8870  135.3910 C   0  0  0  0  0  2  0  0  0  0  0  0
  183.0610  176.7860  135.4740 C   0  0  1  0  0  3  0  0  0  0  0  0
  179.7120  177.5360  135.8100 O   0  0  0  0  0  1  0  0  0  0  0  0
  183.6310  176.3380  138.7240 N   0  0  1  0  0  0  0  0  0  0  0  0
  184.2520  177.0900  136.3860 C   0  0  0  0  0  2  0  0  0  0  0  0
  182.3090  175.4890  135.7390 C   0  0  1  0  0  3  0  0  0  0  0  0
  182.0710  179.3780  143.6340 C   0  0  0  0  0  3  0  0  0  0  0  0
  182.5720  178.9880  142.3910 C   0  0  0  0  0  0  0  0  0  0  0  0
  184.9860  178.3690  138.3480 C   0  0  0  0  0  2  0  0  0  0  0  0
  184.0020  178.4930  140.6350 C   0  0  2  0  0  3  0  0  0  0  0  0
  184.9850  179.7530  142.6540 C   0  0  0  0  0  2  0  0  0  0  0  0
  185.0970  178.8430  144.8990 C   0  0  0  0  0  3  0  0  0  0  0  0
  185.4070  177.8330  145.9540 C   0  0  1  0  0  3  0  0  0  0  0  0
  187.1820  176.9020  143.7300 C   0  0  0  0  0  3  0  0  0  0  0  0
  187.6430  177.1580  145.1070 C   0  0  0  0  0  3  0  0  0  0  0  0
  186.8760  177.6140  146.0970 C   0  0  0  0  0  3  0  0  0  0  0  0
  184.8870  178.2570  147.1620 F   0  0  0  0  0  0  0  0  0  0  0  0
  186.2180  177.5690  143.0850 C   0  0  0  0  0  3  0  0  0  0  0  0
  185.4290  178.7010  143.6140 C   0  0  0  0  0  0  0  0  0  0  0  0
  1  8  1  0  0  0  0
  1 14  1  0  0  0  0
  1 16  1  1  0  0  0
  2  9  1  0  0  0  0
  4  5  1  0  0  0  0
  6 18  1  6  0  0  0
  6 22  1  0  0  0  0
  6 17  1  0  0  0  0
 10  4  2  0  0  0  0
 11  7  1  1  0  0  0
 11 23  1  0  0  0  0
 11 12  1  0  0  0  0
 12 10  1  0  0  0  0
 12 21  2  0  0  0  0
 13 21  1  0  0  0  0
 13 24  1  0  0  0  0
 15 14  1  1  0  0  0
 15 19  1  0  0  0  0
 15 18  1  0  0  0  0
 17  9  1  6  0  0  0
 17  7  1  0  0  0  0
 19  8  1  6  0  0  0
 19  2  1  0  0  0  0
 20  5  2  0  0  0  0
 21 20  1  0  0  0  0
 22  3  1  0  0  0  0
 23  3  1  6  0  0  0
 23 13  1  0  0  0  0
 24 32  1  0  0  0  0
 25 26  1  0  0  0  0
 26 29  1  0  0  0  0
 26 30  1  1  0  0  0
 27 28  1  0  0  0  0
 28 29  2  0  0  0  0
 31 32  1  0  0  0  0
 31 27  2  0  0  0  0
 32 25  2  0  0  0  0
M  END
>  <MODEL>
5

>  <REMARK>
 VINA RESULT:      -7.5      3.119      5.697
  Name = 
  2 active torsions:
  status: ('A' for Active; 'I' for Inactive)
    1  A    between atoms: N_16  and  C_27
    2  A    between atoms: C_27  and  C_32
                            x       y       z     vdW  Elec       q    Type
                         _______ _______ _______ _____ _____    ______ ____

>  <TORSDO>
F 2

$$$$
=
 OpenBabel10262421263D

 32 37  0  0  1  0  0  0  0  0999 V2000
  182.4600  174.4020  136.0320 C   0  0  2  0  0  3  0  0  0  0  0  0
  184.5660  176.3970  134.5960 C   0  0  0  0  0  2  0  0  0  0  0  0
  186.9030  177.4970  139.2400 C   0  0  0  0  0  2  0  0  0  0  0  0
  190.6600  173.8510  136.4960 C   0  0  0  0  0  3  0  0  0  0  0  0
  191.5570  174.3590  137.4560 C   0  0  0  0  0  3  0  0  0  0  0  0
  185.1790  177.3670  137.3420 C   0  0  2  0  0  3  0  0  0  0  0  0
  187.1350  176.6520  136.0020 C   0  0  0  0  0  2  0  0  0  0  0  0
  182.4320  175.1770  134.7180 C   0  0  0  0  0  2  0  0  0  0  0  0
  185.3260  177.6910  134.8810 C   0  0  0  0  0  2  0  0  0  0  0  0
  189.3730  174.3970  136.3680 C   0  0  0  0  0  3  0  0  0  0  0  0
  187.7160  176.1590  137.3230 C   0  0  1  0  0  3  0  0  0  0  0  0
  189.0230  175.4610  137.2000 C   0  0  0  0  0  0  0  0  0  0  0  0
  189.3100  177.0000  138.8940 N   0  0  0  0  0  0  0  0  0  0  0  0
  182.8780  175.3760  137.1230 C   0  0  0  0  0  2  0  0  0  0  0  0
  182.8550  176.7380  136.4650 C   0  0  1  0  0  3  0  0  0  0  0  0
  183.3950  173.3710  135.9500 O   0  0  0  0  0  1  0  0  0  0  0  0
  186.0460  177.6380  136.1620 N   0  0  1  0  0  0  0  0  0  0  0  0
  183.7200  177.7980  137.1510 C   0  0  0  0  0  2  0  0  0  0  0  0
  183.0930  176.5170  134.9780 C   0  0  1  0  0  3  0  0  0  0  0  0
  191.1720  175.4140  138.2990 C   0  0  0  0  0  3  0  0  0  0  0  0
  189.8880  175.9400  138.1490 C   0  0  0  0  0  0  0  0  0  0  0  0
  185.7030  178.1510  138.5530 C   0  0  0  0  0  2  0  0  0  0  0  0
  188.0400  177.3360  138.2520 C   0  0  2  0  0  3  0  0  0  0  0  0
  190.0670  177.9310  139.7240 C   0  0  0  0  0  2  0  0  0  0  0  0
  189.0500  177.0000  141.7180 C   0  0  0  0  0  3  0  0  0  0  0  0
  189.0140  176.3930  143.0830 C   0  0  1  0  0  3  0  0  0  0  0  0
  191.7560  177.5960  143.0620 C   0  0  0  0  0  3  0  0  0  0  0  0
  190.7550  177.8300  144.1200 C   0  0  0  0  0  3  0  0  0  0  0  0
  189.5170  177.3370  144.1220 C   0  0  0  0  0  3  0  0  0  0  0  0
  187.7180  176.0250  143.3860 F   0  0  0  0  0  0  0  0  0  0  0  0
  191.5000  177.4140  141.7620 C   0  0  0  0  0  3  0  0  0  0  0  0
  190.1680  177.4190  141.1200 C   0  0  0  0  0  0  0  0  0  0  0  0
  1 16  1  6  0  0  0
  1 14  1  0  0  0  0
  2  9  1  0  0  0  0
  4  5  1  0  0  0  0
  5 20  2  0  0  0  0
  6 18  1  6  0  0  0
  6 22  1  0  0  0  0
  7 17  1  0  0  0  0
  8 19  1  0  0  0  0
  8  1  1  0  0  0  0
 10  4  2  0  0  0  0
 10 12  1  0  0  0  0
 11  7  1  6  0  0  0
 11 23  1  0  0  0  0
 12 11  1  0  0  0  0
 12 21  2  0  0  0  0
 13 24  1  0  0  0  0
 15 14  1  1  0  0  0
 15 18  1  0  0  0  0
 17  9  1  6  0  0  0
 17  6  1  0  0  0  0
 19  2  1  1  0  0  0
 19 15  1  0  0  0  0
 21 20  1  0  0  0  0
 21 13  1  0  0  0  0
 22  3  1  0  0  0  0
 23 13  1  0  0  0  0
 23  3  1  1  0  0  0
 24 32  1  0  0  0  0
 25 26  1  0  0  0  0
 26 30  1  1  0  0  0
 26 29  1  0  0  0  0
 27 28  1  0  0  0  0
 28 29  2  0  0  0  0
 31 27  2  0  0  0  0
 32 25  2  0  0  0  0
 32 31  1  0  0  0  0
M  END
>  <MODEL>
6

>  <REMARK>
 VINA RESULT:      -6.5      2.579      3.666
  Name = 
  2 active torsions:
  status: ('A' for Active; 'I' for Inactive)
    1  A    between atoms: N_16  and  C_27
    2  A    between atoms: C_27  and  C_32
                            x       y       z     vdW  Elec       q    Type
                         _______ _______ _______ _____ _____    ______ ____

>  <TORSDO>
F 2

$$$$
