=
 OpenBabel10262419323D

 31 34  0  0  1  0  0  0  0  0999 V2000
  190.9880  177.2340  146.2930 C   0  0  2  0  0  3  0  0  0  0  0  0
  189.1860  177.2190  144.5780 C   0  0  1  0  0  3  0  0  0  0  0  0
  191.8360  176.6540  145.3390 O   0  0  0  0  0  0  0  0  0  0  0  0
  191.3880  176.7690  147.6780 C   0  0  0  0  0  1  0  0  0  0  0  0
  189.5470  176.8230  146.0160 C   0  0  0  0  0  2  0  0  0  0  0  0
  190.2310  176.8040  143.6250 N   0  0  0  0  0  0  0  0  0  0  0  0
  191.5270  177.2790  144.1200 C   0  0  0  0  0  2  0  0  0  0  0  0
  187.8000  176.6750  144.1770 C   0  0  2  0  0  3  0  0  0  0  0  0
  187.9150  175.6590  143.2250 O   0  0  0  0  0  1  0  0  0  0  0  0
  186.8180  177.7240  143.7240 C   0  0  0  0  0  0  0  0  0  0  0  0
  185.8130  179.0190  141.9260 C   0  0  0  0  0  3  0  0  0  0  0  0
  186.7380  178.0700  142.3650 C   0  0  0  0  0  3  0  0  0  0  0  0
  184.9470  179.6230  142.8370 C   0  0  0  0  0  3  0  0  0  0  0  0
  185.0060  179.2780  144.1880 C   0  0  0  0  0  3  0  0  0  0  0  0
  185.9410  178.3340  144.6460 C   0  0  0  0  0  0  0  0  0  0  0  0
  184.5630  178.0030  146.6890 C   0  0  0  0  0  1  0  0  0  0  0  0
  186.9080  178.8050  146.9060 C   0  0  0  0  0  1  0  0  0  0  0  0
  185.9590  177.9390  146.0960 C   0  0  0  0  0  3  0  0  0  0  0  0
  189.9980  177.5100  142.3720 C   0  0  0  0  0  2  0  0  0  0  0  0
  190.6550  176.7630  141.2210 C   0  0  0  0  0  2  0  0  0  0  0  0
  190.4950  177.5380  139.9240 C   0  0  0  0  0  2  0  0  0  0  0  0
  186.0910  177.1360  137.0740 C   0  0  0  0  0  0  0  0  0  0  0  0
  187.6940  177.9670  138.7250 C   0  0  0  0  0  3  0  0  0  0  0  0
  189.4720  174.9980  137.1800 S   0  0  0  0  0  0  0  0  0  0  0  0
  190.5110  175.6290  138.3230 N   0  0  0  0  0  0  0  0  0  0  0  0
  184.8580  177.2430  136.4470 O   0  0  0  0  0  1  0  0  0  0  0  0
  189.8560  176.6900  138.8720 C   0  0  0  0  0  0  0  0  0  0  0  0
  186.4480  178.0580  138.0790 C   0  0  0  0  0  3  0  0  0  0  0  0
  188.2000  176.0510  137.3610 C   0  0  0  0  0  0  0  0  0  0  0  0
  188.5700  176.9450  138.3500 C   0  0  0  0  0  0  0  0  0  0  0  0
  186.9770  176.1120  136.7020 C   0  0  0  0  0  3  0  0  0  0  0  0
  1  4  1  1  0  0  0
  2  8  1  6  0  0  0
  2  5  1  0  0  0  0
  3  1  1  0  0  0  0
  5  1  1  0  0  0  0
  6  7  1  0  0  0  0
  6  2  1  0  0  0  0
  7  3  1  0  0  0  0
  8  9  1  6  0  0  0
 10  8  1  0  0  0  0
 10 15  1  0  0  0  0
 11 12  1  0  0  0  0
 11 13  2  0  0  0  0
 12 10  2  0  0  0  0
 13 14  1  0  0  0  0
 14 15  2  0  0  0  0
 15 18  1  0  0  0  0
 18 16  1  0  0  0  0
 18 17  1  0  0  0  0
 19  6  1  0  0  0  0
 20 19  1  0  0  0  0
 21 20  1  0  0  0  0
 22 28  1  0  0  0  0
 24 29  1  0  0  0  0
 24 25  1  0  0  0  0
 25 27  2  0  0  0  0
 26 22  1  0  0  0  0
 27 21  1  0  0  0  0
 28 23  2  0  0  0  0
 29 30  2  0  0  0  0
 30 23  1  0  0  0  0
 30 27  1  0  0  0  0
 31 22  2  0  0  0  0
 31 29  1  0  0  0  0
M  END
>  <MODEL>
1

>  <REMARK>
 VINA RESULT:      -8.4      0.000      0.000
  Name = 
  7 active torsions:
  status: ('A' for Active; 'I' for Inactive)
    1  A    between atoms: C_4  and  C_5
    2  A    between atoms: C_4  and  C_12
    3  A    between atoms: C_9  and  C_23
    4  A    between atoms: C_15  and  C_20
    5  A    between atoms: C_15  and  C_23
    6  A    between atoms: C_20  and  N_27
    7  A    between atoms: C_30  and  C_31
                            x       y       z     vdW  Elec       q    Type
                         _______ _______ _______ _____ _____    ______ ____

>  <TORSDO>
F 7

$$$$
=
 OpenBabel10262419323D

 31 34  0  0  1  0  0  0  0  0999 V2000
  191.5130  177.4120  140.9060 C   0  0  2  0  0  3  0  0  0  0  0  0
  190.1160  178.1940  142.8100 C   0  0  1  0  0  3  0  0  0  0  0  0
  190.8500  176.1790  140.9880 O   0  0  0  0  0  0  0  0  0  0  0  0
  192.9280  177.1950  140.4120 C   0  0  0  0  0  1  0  0  0  0  0  0
  191.5520  178.0660  142.2810 C   0  0  0  0  0  2  0  0  0  0  0  0
  189.3680  176.9350  142.6510 N   0  0  0  0  0  0  0  0  0  0  0  0
  189.5080  176.4830  141.2630 C   0  0  0  0  0  2  0  0  0  0  0  0
  190.0980  178.6890  144.2700 C   0  0  2  0  0  3  0  0  0  0  0  0
  190.9000  179.8220  144.4270 O   0  0  0  0  0  1  0  0  0  0  0  0
  190.4460  177.6410  145.2950 C   0  0  0  0  0  0  0  0  0  0  0  0
  192.0180  176.0010  146.1670 C   0  0  0  0  0  3  0  0  0  0  0  0
  191.6680  176.9530  145.2090 C   0  0  0  0  0  3  0  0  0  0  0  0
  191.1570  175.7340  147.2320 C   0  0  0  0  0  3  0  0  0  0  0  0
  189.9460  176.4200  147.3380 C   0  0  0  0  0  3  0  0  0  0  0  0
  189.5760  177.3720  146.3740 C   0  0  0  0  0  0  0  0  0  0  0  0
  188.0410  178.4790  147.9860 C   0  0  0  0  0  1  0  0  0  0  0  0
  187.1070  177.3710  145.9650 C   0  0  0  0  0  1  0  0  0  0  0  0
  188.2910  178.1370  146.5290 C   0  0  0  0  0  3  0  0  0  0  0  0
  187.9530  177.2310  142.8350 C   0  0  0  0  0  2  0  0  0  0  0  0
  187.4000  177.9320  141.6030 C   0  0  0  0  0  2  0  0  0  0  0  0
  186.5940  179.1550  142.0040 C   0  0  0  0  0  2  0  0  0  0  0  0
  181.5740  178.7460  143.5250 C   0  0  0  0  0  0  0  0  0  0  0  0
  184.0140  178.8640  143.6570 C   0  0  0  0  0  3  0  0  0  0  0  0
  183.3140  179.0940  139.9390 S   0  0  0  0  0  0  0  0  0  0  0  0
  184.9720  179.1740  140.1130 N   0  0  0  0  0  0  0  0  0  0  0  0
  180.3470  178.6390  144.1650 O   0  0  0  0  0  1  0  0  0  0  0  0
  185.2070  179.0840  141.4520 C   0  0  0  0  0  0  0  0  0  0  0  0
  182.7610  178.7550  144.2850 C   0  0  0  0  0  3  0  0  0  0  0  0
  182.8800  178.9530  141.5360 C   0  0  0  0  0  0  0  0  0  0  0  0
  184.0570  178.9640  142.2630 C   0  0  0  0  0  0  0  0  0  0  0  0
  181.6250  178.8470  142.1250 C   0  0  0  0  0  3  0  0  0  0  0  0
  1  4  1  1  0  0  0
  1  3  1  0  0  0  0
  1  5  1  0  0  0  0
  2  8  1  1  0  0  0
  3  7  1  0  0  0  0
  5  2  1  0  0  0  0
  6  2  1  0  0  0  0
  6 19  1  0  0  0  0
  7  6  1  0  0  0  0
  8  9  1  6  0  0  0
  8 10  1  0  0  0  0
 10 15  1  0  0  0  0
 11 13  2  0  0  0  0
 12 10  2  0  0  0  0
 12 11  1  0  0  0  0
 13 14  1  0  0  0  0
 15 18  1  0  0  0  0
 15 14  2  0  0  0  0
 17 18  1  0  0  0  0
 18 16  1  0  0  0  0
 20 21  1  0  0  0  0
 20 19  1  0  0  0  0
 22 26  1  0  0  0  0
 22 28  1  0  0  0  0
 23 28  2  0  0  0  0
 24 25  1  0  0  0  0
 24 29  1  0  0  0  0
 25 27  2  0  0  0  0
 27 21  1  0  0  0  0
 27 30  1  0  0  0  0
 29 31  1  0  0  0  0
 29 30  2  0  0  0  0
 30 23  1  0  0  0  0
 31 22  2  0  0  0  0
M  END
>  <MODEL>
2

>  <REMARK>
 VINA RESULT:      -8.3      3.157      5.763
  Name = 
  7 active torsions:
  status: ('A' for Active; 'I' for Inactive)
    1  A    between atoms: C_4  and  C_5
    2  A    between atoms: C_4  and  C_12
    3  A    between atoms: C_9  and  C_23
    4  A    between atoms: C_15  and  C_20
    5  A    between atoms: C_15  and  C_23
    6  A    between atoms: C_20  and  N_27
    7  A    between atoms: C_30  and  C_31
                            x       y       z     vdW  Elec       q    Type
                         _______ _______ _______ _____ _____    ______ ____

>  <TORSDO>
F 7

$$$$
=
 OpenBabel10262419323D

 31 34  0  0  1  0  0  0  0  0999 V2000
  190.5050  177.7030  140.5400 C   0  0  2  0  0  3  0  0  0  0  0  0
  189.0850  177.3380  142.5490 C   0  0  1  0  0  3  0  0  0  0  0  0
  189.3280  177.7850  139.7820 O   0  0  0  0  0  0  0  0  0  0  0  0
  191.6190  177.1340  139.6870 C   0  0  0  0  0  1  0  0  0  0  0  0
  190.2770  176.8000  141.7450 C   0  0  0  0  0  2  0  0  0  0  0  0
  187.9400  177.6470  141.6760 N   0  0  0  0  0  0  0  0  0  0  0  0
  188.4100  178.4920  140.5740 C   0  0  0  0  0  2  0  0  0  0  0  0
  188.6930  176.3710  143.6850 C   0  0  2  0  0  3  0  0  0  0  0  0
  187.5900  175.5930  143.3240 O   0  0  0  0  0  1  0  0  0  0  0  0
  188.4680  177.0280  145.0230 C   0  0  0  0  0  0  0  0  0  0  0  0
  186.9420  177.9580  146.6730 C   0  0  0  0  0  3  0  0  0  0  0  0
  187.1690  177.3760  145.4240 C   0  0  0  0  0  3  0  0  0  0  0  0
  188.0100  178.1870  147.5400 C   0  0  0  0  0  3  0  0  0  0  0  0
  189.3050  177.8330  147.1590 C   0  0  0  0  0  3  0  0  0  0  0  0
  189.5490  177.2580  145.9010 C   0  0  0  0  0  0  0  0  0  0  0  0
  191.7080  176.3600  146.7460 C   0  0  0  0  0  1  0  0  0  0  0  0
  191.7060  177.9610  144.8420 C   0  0  0  0  0  1  0  0  0  0  0  0
  190.9430  176.8390  145.5250 C   0  0  0  0  0  3  0  0  0  0  0  0
  187.0050  178.4650  142.4380 C   0  0  0  0  0  2  0  0  0  0  0  0
  185.5750  178.0600  142.1180 C   0  0  0  0  0  2  0  0  0  0  0  0
  184.9220  179.0880  141.2100 C   0  0  0  0  0  2  0  0  0  0  0  0
  180.2200  178.5290  143.5030 C   0  0  0  0  0  0  0  0  0  0  0  0
  182.6130  178.9620  143.2410 C   0  0  0  0  0  3  0  0  0  0  0  0
  181.4810  178.0840  139.7320 S   0  0  0  0  0  0  0  0  0  0  0  0
  183.1170  178.4010  139.6360 N   0  0  0  0  0  0  0  0  0  0  0  0
  179.1010  178.4590  144.3210 O   0  0  0  0  0  1  0  0  0  0  0  0
  183.5090  178.7080  140.9030 C   0  0  0  0  0  0  0  0  0  0  0  0
  181.4680  178.8840  144.0530 C   0  0  0  0  0  3  0  0  0  0  0  0
  181.2530  178.3360  141.3580 C   0  0  0  0  0  0  0  0  0  0  0  0
  182.4870  178.6820  141.8770 C   0  0  0  0  0  0  0  0  0  0  0  0
  180.1010  178.2490  142.1320 C   0  0  0  0  0  3  0  0  0  0  0  0
  1  4  1  6  0  0  0
  1  5  1  0  0  0  0
  2  8  1  1  0  0  0
  3  1  1  0  0  0  0
  3  7  1  0  0  0  0
  5  2  1  0  0  0  0
  6 19  1  0  0  0  0
  6  2  1  0  0  0  0
  7  6  1  0  0  0  0
  8  9  1  6  0  0  0
  8 10  1  0  0  0  0
 10 12  2  0  0  0  0
 10 15  1  0  0  0  0
 11 13  2  0  0  0  0
 12 11  1  0  0  0  0
 14 13  1  0  0  0  0
 15 14  2  0  0  0  0
 17 18  1  0  0  0  0
 18 15  1  0  0  0  0
 18 16  1  0  0  0  0
 20 19  1  0  0  0  0
 21 20  1  0  0  0  0
 22 28  1  0  0  0  0
 22 26  1  0  0  0  0
 23 28  2  0  0  0  0
 24 29  1  0  0  0  0
 25 24  1  0  0  0  0
 25 27  2  0  0  0  0
 27 21  1  0  0  0  0
 27 30  1  0  0  0  0
 29 30  2  0  0  0  0
 29 31  1  0  0  0  0
 30 23  1  0  0  0  0
 31 22  2  0  0  0  0
M  END
>  <MODEL>
3

>  <REMARK>
 VINA RESULT:      -8.2      3.509      6.149
  Name = 
  7 active torsions:
  status: ('A' for Active; 'I' for Inactive)
    1  A    between atoms: C_4  and  C_5
    2  A    between atoms: C_4  and  C_12
    3  A    between atoms: C_9  and  C_23
    4  A    between atoms: C_15  and  C_20
    5  A    between atoms: C_15  and  C_23
    6  A    between atoms: C_20  and  N_27
    7  A    between atoms: C_30  and  C_31
                            x       y       z     vdW  Elec       q    Type
                         _______ _______ _______ _____ _____    ______ ____

>  <TORSDO>
F 7

$$$$
=
 OpenBabel10262419323D

 31 34  0  0  1  0  0  0  0  0999 V2000
  184.7490  178.5370  142.6160 C   0  0  2  0  0  3  0  0  0  0  0  0
  186.9970  177.4730  142.5730 C   0  0  1  0  0  3  0  0  0  0  0  0
  185.3090  179.6360  141.9490 O   0  0  0  0  0  0  0  0  0  0  0  0
  183.6140  179.0060  143.5030 C   0  0  0  0  0  1  0  0  0  0  0  0
  185.8130  177.8600  143.4700 C   0  0  0  0  0  2  0  0  0  0  0  0
  187.4010  178.5900  141.7020 N   0  0  0  0  0  0  0  0  0  0  0  0
  186.2100  179.1000  141.0160 C   0  0  0  0  0  2  0  0  0  0  0  0
  188.1810  176.9410  143.4050 C   0  0  2  0  0  3  0  0  0  0  0  0
  188.3160  175.5580  143.2590 O   0  0  0  0  0  1  0  0  0  0  0  0
  188.1510  177.3250  144.8620 C   0  0  0  0  0  0  0  0  0  0  0  0
  186.8800  177.7810  146.8850 C   0  0  0  0  0  3  0  0  0  0  0  0
  186.9220  177.4550  145.5280 C   0  0  0  0  0  3  0  0  0  0  0  0
  188.0650  177.9670  147.5950 C   0  0  0  0  0  3  0  0  0  0  0  0
  189.2950  177.8260  146.9490 C   0  0  0  0  0  3  0  0  0  0  0  0
  189.3520  177.5110  145.5810 C   0  0  0  0  0  0  0  0  0  0  0  0
  191.6800  176.6880  145.8690 C   0  0  0  0  0  1  0  0  0  0  0  0
  191.2380  178.6200  144.3660 C   0  0  0  0  0  1  0  0  0  0  0  0
  190.6840  177.3160  144.9110 C   0  0  0  0  0  3  0  0  0  0  0  0
  188.2650  178.0530  140.6590 C   0  0  0  0  0  2  0  0  0  0  0  0
  187.5960  178.1940  139.3010 C   0  0  0  0  0  2  0  0  0  0  0  0
  188.6350  178.1810  138.1920 C   0  0  0  0  0  2  0  0  0  0  0  0
  192.3950  174.5660  137.5060 C   0  0  0  0  0  0  0  0  0  0  0  0
  191.3220  176.6840  138.0950 C   0  0  0  0  0  3  0  0  0  0  0  0
  188.4620  174.5760  136.7760 S   0  0  0  0  0  0  0  0  0  0  0  0
  187.8040  176.0480  137.2080 N   0  0  0  0  0  0  0  0  0  0  0  0
  193.5420  173.7880  137.4330 O   0  0  0  0  0  1  0  0  0  0  0  0
  188.8440  176.7950  137.6740 C   0  0  0  0  0  0  0  0  0  0  0  0
  192.4720  175.8800  138.0120 C   0  0  0  0  0  3  0  0  0  0  0  0
  190.0490  174.8620  137.1750 C   0  0  0  0  0  0  0  0  0  0  0  0
  190.1020  176.1530  137.6680 C   0  0  0  0  0  0  0  0  0  0  0  0
  191.1660  174.0400  137.0790 C   0  0  0  0  0  3  0  0  0  0  0  0
  1  5  1  0  0  0  0
  1  4  1  1  0  0  0
  2  8  1  1  0  0  0
  2  5  1  0  0  0  0
  3  1  1  0  0  0  0
  6  2  1  0  0  0  0
  7  6  1  0  0  0  0
  7  3  1  0  0  0  0
  8  9  1  1  0  0  0
  8 10  1  0  0  0  0
 10 12  2  0  0  0  0
 10 15  1  0  0  0  0
 11 13  2  0  0  0  0
 12 11  1  0  0  0  0
 14 13  1  0  0  0  0
 15 14  2  0  0  0  0
 17 18  1  0  0  0  0
 18 15  1  0  0  0  0
 18 16  1  0  0  0  0
 19  6  1  0  0  0  0
 20 19  1  0  0  0  0
 21 20  1  0  0  0  0
 22 28  1  0  0  0  0
 24 29  1  0  0  0  0
 24 25  1  0  0  0  0
 25 27  2  0  0  0  0
 26 22  1  0  0  0  0
 27 21  1  0  0  0  0
 28 23  2  0  0  0  0
 29 30  2  0  0  0  0
 30 27  1  0  0  0  0
 30 23  1  0  0  0  0
 31 29  1  0  0  0  0
 31 22  2  0  0  0  0
M  END
>  <MODEL>
4

>  <REMARK>
 VINA RESULT:      -8.2      2.455      4.982
  Name = 
  7 active torsions:
  status: ('A' for Active; 'I' for Inactive)
    1  A    between atoms: C_4  and  C_5
    2  A    between atoms: C_4  and  C_12
    3  A    between atoms: C_9  and  C_23
    4  A    between atoms: C_15  and  C_20
    5  A    between atoms: C_15  and  C_23
    6  A    between atoms: C_20  and  N_27
    7  A    between atoms: C_30  and  C_31
                            x       y       z     vdW  Elec       q    Type
                         _______ _______ _______ _____ _____    ______ ____

>  <TORSDO>
F 7

$$$$
=
 OpenBabel10262419323D

 31 34  0  0  1  0  0  0  0  0999 V2000
  181.3680  179.0580  143.5450 C   0  0  2  0  0  3  0  0  0  0  0  0
  183.2630  179.0830  141.9330 C   0  0  1  0  0  3  0  0  0  0  0  0
  182.1520  178.2510  144.3810 O   0  0  0  0  0  0  0  0  0  0  0  0
  179.9050  178.7170  143.7360 C   0  0  0  0  0  1  0  0  0  0  0  0
  181.7580  178.8230  142.0910 C   0  0  0  0  0  2  0  0  0  0  0  0
  184.0410  178.4100  142.9880 N   0  0  0  0  0  0  0  0  0  0  0  0
  183.4580  178.7560  144.2880 C   0  0  0  0  0  2  0  0  0  0  0  0
  183.7550  178.6940  140.5250 C   0  0  2  0  0  3  0  0  0  0  0  0
  184.9340  179.3690  140.2000 O   0  0  0  0  0  1  0  0  0  0  0  0
  182.7290  178.8540  139.4320 C   0  0  0  0  0  0  0  0  0  0  0  0
  181.5390  180.2860  137.8660 C   0  0  0  0  0  3  0  0  0  0  0  0
  182.4650  180.1260  138.8990 C   0  0  0  0  0  3  0  0  0  0  0  0
  180.8770  179.1750  137.3450 C   0  0  0  0  0  3  0  0  0  0  0  0
  181.1410  177.9030  137.8550 C   0  0  0  0  0  3  0  0  0  0  0  0
  182.0610  177.7290  138.9030 C   0  0  0  0  0  0  0  0  0  0  0  0
  183.1060  175.5410  138.3560 C   0  0  0  0  0  1  0  0  0  0  0  0
  181.1130  175.6120  139.8420 C   0  0  0  0  0  1  0  0  0  0  0  0
  182.3690  176.3480  139.4090 C   0  0  0  0  0  3  0  0  0  0  0  0
  185.3820  178.9800  142.9850 C   0  0  0  0  0  2  0  0  0  0  0  0
  186.4190  177.8780  142.8370 C   0  0  0  0  0  2  0  0  0  0  0  0
  187.0140  177.5220  144.1890 C   0  0  0  0  0  2  0  0  0  0  0  0
  191.3300  176.7690  147.1020 C   0  0  0  0  0  0  0  0  0  0  0  0
  189.0090  177.2790  146.5190 C   0  0  0  0  0  3  0  0  0  0  0  0
  190.6370  176.5980  143.1650 S   0  0  0  0  0  0  0  0  0  0  0  0
  189.0360  176.9520  142.8510 N   0  0  0  0  0  0  0  0  0  0  0  0
  192.3110  176.6120  148.0710 O   0  0  0  0  0  1  0  0  0  0  0  0
  188.4680  177.2000  144.0640 C   0  0  0  0  0  0  0  0  0  0  0  0
  190.0180  177.1170  147.4850 C   0  0  0  0  0  3  0  0  0  0  0  0
  190.6260  176.7470  144.8200 C   0  0  0  0  0  0  0  0  0  0  0  0
  189.3330  177.0870  145.1740 C   0  0  0  0  0  0  0  0  0  0  0  0
  191.6480  176.5780  145.7480 C   0  0  0  0  0  3  0  0  0  0  0  0
  1  4  1  6  0  0  0
  1  3  1  0  0  0  0
  2  8  1  6  0  0  0
  2  5  1  0  0  0  0
  2  6  1  0  0  0  0
  5  1  1  0  0  0  0
  6  7  1  0  0  0  0
  7  3  1  0  0  0  0
  8  9  1  6  0  0  0
 10  8  1  0  0  0  0
 11 12  1  0  0  0  0
 12 10  2  0  0  0  0
 13 14  1  0  0  0  0
 13 11  2  0  0  0  0
 14 15  2  0  0  0  0
 15 18  1  0  0  0  0
 15 10  1  0  0  0  0
 16 18  1  0  0  0  0
 18 17  1  0  0  0  0
 19  6  1  0  0  0  0
 20 19  1  0  0  0  0
 20 21  1  0  0  0  0
 22 28  1  0  0  0  0
 22 26  1  0  0  0  0
 23 28  2  0  0  0  0
 24 29  1  0  0  0  0
 25 24  1  0  0  0  0
 25 27  2  0  0  0  0
 27 21  1  0  0  0  0
 27 30  1  0  0  0  0
 29 30  2  0  0  0  0
 29 31  1  0  0  0  0
 30 23  1  0  0  0  0
 31 22  2  0  0  0  0
M  END
>  <MODEL>
5

>  <REMARK>
 VINA RESULT:      -8.1      3.742      8.051
  Name = 
  7 active torsions:
  status: ('A' for Active; 'I' for Inactive)
    1  A    between atoms: C_4  and  C_5
    2  A    between atoms: C_4  and  C_12
    3  A    between atoms: C_9  and  C_23
    4  A    between atoms: C_15  and  C_20
    5  A    between atoms: C_15  and  C_23
    6  A    between atoms: C_20  and  N_27
    7  A    between atoms: C_30  and  C_31
                            x       y       z     vdW  Elec       q    Type
                         _______ _______ _______ _____ _____    ______ ____

>  <TORSDO>
F 7

$$$$
=
 OpenBabel10262419323D

 31 34  0  0  1  0  0  0  0  0999 V2000
  188.3740  178.6770  140.4240 C   0  0  2  0  0  3  0  0  0  0  0  0
  187.9040  177.8630  142.7270 C   0  0  1  0  0  3  0  0  0  0  0  0
  187.0010  178.5740  140.1580 O   0  0  0  0  0  0  0  0  0  0  0  0
  189.1580  178.4230  139.1530 C   0  0  0  0  0  1  0  0  0  0  0  0
  188.7710  177.6520  141.4780 C   0  0  0  0  0  2  0  0  0  0  0  0
  186.4790  177.9970  142.3780 N   0  0  0  0  0  0  0  0  0  0  0  0
  186.3510  179.0070  141.3240 C   0  0  0  0  0  2  0  0  0  0  0  0
  188.1350  176.7480  143.7660 C   0  0  2  0  0  3  0  0  0  0  0  0
  187.2020  175.7190  143.6150 O   0  0  0  0  0  1  0  0  0  0  0  0
  188.1840  177.2190  145.1970 C   0  0  0  0  0  0  0  0  0  0  0  0
  187.0210  177.9150  147.2170 C   0  0  0  0  0  3  0  0  0  0  0  0
  186.9930  177.5060  145.8820 C   0  0  0  0  0  3  0  0  0  0  0  0
  188.2390  178.0280  147.8860 C   0  0  0  0  0  3  0  0  0  0  0  0
  189.4300  177.7320  147.2210 C   0  0  0  0  0  3  0  0  0  0  0  0
  189.4170  177.3310  145.8740 C   0  0  0  0  0  0  0  0  0  0  0  0
  191.6940  176.3790  146.1750 C   0  0  0  0  0  1  0  0  0  0  0  0
  191.3230  178.1640  144.4830 C   0  0  0  0  0  1  0  0  0  0  0  0
  190.7040  176.9700  145.1870 C   0  0  0  0  0  3  0  0  0  0  0  0
  185.7840  178.5380  143.5380 C   0  0  0  0  0  2  0  0  0  0  0  0
  184.5810  179.3550  143.0940 C   0  0  0  0  0  2  0  0  0  0  0  0
  183.2940  178.7250  143.5990 C   0  0  0  0  0  2  0  0  0  0  0  0
  181.6130  177.5870  138.7460 C   0  0  0  0  0  0  0  0  0  0  0  0
  183.0470  177.6490  140.7270 C   0  0  0  0  0  3  0  0  0  0  0  0
  180.0640  179.7650  141.7230 S   0  0  0  0  0  0  0  0  0  0  0  0
  181.0960  179.7540  143.0360 N   0  0  0  0  0  0  0  0  0  0  0  0
  181.3830  177.1440  137.4510 O   0  0  0  0  0  1  0  0  0  0  0  0
  182.1630  178.9960  142.6600 C   0  0  0  0  0  0  0  0  0  0  0  0
  182.7960  177.2120  139.4140 C   0  0  0  0  0  3  0  0  0  0  0  0
  180.9440  178.8170  140.6810 C   0  0  0  0  0  0  0  0  0  0  0  0
  182.0980  178.4610  141.3540 C   0  0  0  0  0  0  0  0  0  0  0  0
  180.6640  178.4030  139.3830 C   0  0  0  0  0  3  0  0  0  0  0  0
  1  4  1  6  0  0  0
  1  5  1  0  0  0  0
  2  8  1  1  0  0  0
  3  1  1  0  0  0  0
  3  7  1  0  0  0  0
  5  2  1  0  0  0  0
  6  2  1  0  0  0  0
  6 19  1  0  0  0  0
  7  6  1  0  0  0  0
  8  9  1  1  0  0  0
  8 10  1  0  0  0  0
 10 15  2  0  0  0  0
 10 12  1  0  0  0  0
 11 13  1  0  0  0  0
 12 11  2  0  0  0  0
 14 13  2  0  0  0  0
 15 14  1  0  0  0  0
 17 18  1  0  0  0  0
 18 15  1  0  0  0  0
 18 16  1  0  0  0  0
 20 19  1  0  0  0  0
 20 21  1  0  0  0  0
 22 31  2  0  0  0  0
 22 28  1  0  0  0  0
 23 30  1  0  0  0  0
 24 25  1  0  0  0  0
 26 22  1  0  0  0  0
 27 25  2  0  0  0  0
 27 21  1  0  0  0  0
 28 23  2  0  0  0  0
 29 30  2  0  0  0  0
 29 24  1  0  0  0  0
 30 27  1  0  0  0  0
 31 29  1  0  0  0  0
M  END
>  <MODEL>
6

>  <REMARK>
 VINA RESULT:      -8.0      3.708      6.283
  Name = 
  7 active torsions:
  status: ('A' for Active; 'I' for Inactive)
    1  A    between atoms: C_4  and  C_5
    2  A    between atoms: C_4  and  C_12
    3  A    between atoms: C_9  and  C_23
    4  A    between atoms: C_15  and  C_20
    5  A    between atoms: C_15  and  C_23
    6  A    between atoms: C_20  and  N_27
    7  A    between atoms: C_30  and  C_31
                            x       y       z     vdW  Elec       q    Type
                         _______ _______ _______ _____ _____    ______ ____

>  <TORSDO>
F 7

$$$$
=
 OpenBabel10262419323D

 31 34  0  0  1  0  0  0  0  0999 V2000
  184.6930  178.7810  142.9520 C   0  0  2  0  0  3  0  0  0  0  0  0
  186.8280  177.5260  142.7190 C   0  0  1  0  0  3  0  0  0  0  0  0
  185.2280  179.7570  142.1000 O   0  0  0  0  0  0  0  0  0  0  0  0
  183.7350  179.4300  143.9290 C   0  0  0  0  0  1  0  0  0  0  0  0
  185.8170  178.0990  143.7220 C   0  0  0  0  0  2  0  0  0  0  0  0
  187.1820  178.5150  141.6850 N   0  0  0  0  0  0  0  0  0  0  0  0
  185.9450  179.0570  141.1170 C   0  0  0  0  0  2  0  0  0  0  0  0
  188.0780  176.9760  143.4340 C   0  0  2  0  0  3  0  0  0  0  0  0
  188.1930  175.5950  143.2530 O   0  0  0  0  0  1  0  0  0  0  0  0
  188.1780  177.3340  144.8950 C   0  0  0  0  0  0  0  0  0  0  0  0
  187.0900  177.7640  147.0280 C   0  0  0  0  0  3  0  0  0  0  0  0
  187.0120  177.4610  145.6670 C   0  0  0  0  0  3  0  0  0  0  0  0
  188.3340  177.9280  147.6360 C   0  0  0  0  0  3  0  0  0  0  0  0
  189.5020  177.7900  146.8830 C   0  0  0  0  0  3  0  0  0  0  0  0
  189.4370  177.4980  145.5100 C   0  0  0  0  0  0  0  0  0  0  0  0
  191.6920  176.4510  145.4980 C   0  0  0  0  0  1  0  0  0  0  0  0
  191.3450  178.6310  144.3520 C   0  0  0  0  0  1  0  0  0  0  0  0
  190.7050  177.3050  144.7250 C   0  0  0  0  0  3  0  0  0  0  0  0
  187.8460  177.8060  140.5990 C   0  0  0  0  0  2  0  0  0  0  0  0
  189.0180  178.6230  140.0790 C   0  0  0  0  0  2  0  0  0  0  0  0
  189.1530  178.4630  138.5740 C   0  0  0  0  0  2  0  0  0  0  0  0
  187.9300  173.8110  136.4420 C   0  0  0  0  0  0  0  0  0  0  0  0
  187.6690  176.0890  137.2960 C   0  0  0  0  0  3  0  0  0  0  0  0
  191.3350  175.3330  137.8900 S   0  0  0  0  0  0  0  0  0  0  0  0
  191.0770  176.8850  138.4460 N   0  0  0  0  0  0  0  0  0  0  0  0
  187.3730  172.6870  135.8500 O   0  0  0  0  0  1  0  0  0  0  0  0
  189.7560  177.1390  138.2310 C   0  0  0  0  0  0  0  0  0  0  0  0
  187.1240  174.9400  136.6970 C   0  0  0  0  0  3  0  0  0  0  0  0
  189.7990  174.9720  137.3720 C   0  0  0  0  0  0  0  0  0  0  0  0
  189.0260  176.0900  137.6310 C   0  0  0  0  0  0  0  0  0  0  0  0
  189.2930  173.8190  136.7820 C   0  0  0  0  0  3  0  0  0  0  0  0
  1  5  1  0  0  0  0
  1  4  1  1  0  0  0
  2  8  1  1  0  0  0
  2  5  1  0  0  0  0
  3  1  1  0  0  0  0
  6  2  1  0  0  0  0
  7  6  1  0  0  0  0
  7  3  1  0  0  0  0
  8  9  1  1  0  0  0
  8 10  1  0  0  0  0
 10 15  2  0  0  0  0
 10 12  1  0  0  0  0
 11 13  1  0  0  0  0
 12 11  2  0  0  0  0
 14 13  2  0  0  0  0
 15 14  1  0  0  0  0
 17 18  1  0  0  0  0
 18 16  1  0  0  0  0
 18 15  1  0  0  0  0
 19  6  1  0  0  0  0
 20 19  1  0  0  0  0
 21 20  1  0  0  0  0
 22 28  2  0  0  0  0
 22 31  1  0  0  0  0
 23 30  2  0  0  0  0
 24 25  1  0  0  0  0
 26 22  1  0  0  0  0
 27 25  2  0  0  0  0
 27 21  1  0  0  0  0
 28 23  1  0  0  0  0
 29 30  1  0  0  0  0
 29 24  1  0  0  0  0
 30 27  1  0  0  0  0
 31 29  2  0  0  0  0
M  END
>  <MODEL>
7

>  <REMARK>
 VINA RESULT:      -7.9      2.003      4.469
  Name = 
  7 active torsions:
  status: ('A' for Active; 'I' for Inactive)
    1  A    between atoms: C_4  and  C_5
    2  A    between atoms: C_4  and  C_12
    3  A    between atoms: C_9  and  C_23
    4  A    between atoms: C_15  and  C_20
    5  A    between atoms: C_15  and  C_23
    6  A    between atoms: C_20  and  N_27
    7  A    between atoms: C_30  and  C_31
                            x       y       z     vdW  Elec       q    Type
                         _______ _______ _______ _____ _____    ______ ____

>  <TORSDO>
F 7

$$$$
=
 OpenBabel10262419323D

 31 34  0  0  1  0  0  0  0  0999 V2000
  191.8570  176.2820  138.3950 C   0  0  2  0  0  3  0  0  0  0  0  0
  189.5500  177.1910  138.1970 C   0  0  1  0  0  3  0  0  0  0  0  0
  192.0440  177.1280  139.4980 O   0  0  0  0  0  0  0  0  0  0  0  0
  193.1770  176.0790  137.6810 C   0  0  0  0  0  1  0  0  0  0  0  0
  190.8520  176.9060  137.4360 C   0  0  0  0  0  2  0  0  0  0  0  0
  189.8120  177.8680  139.4790 N   0  0  0  0  0  0  0  0  0  0  0  0
  190.8330  177.1090  140.2070 C   0  0  0  0  0  2  0  0  0  0  0  0
  188.5520  177.9810  137.3270 C   0  0  2  0  0  3  0  0  0  0  0  0
  188.6050  179.3470  137.6170 O   0  0  0  0  0  1  0  0  0  0  0  0
  187.1330  177.4780  137.3790 C   0  0  0  0  0  0  0  0  0  0  0  0
  184.8060  177.8240  138.0000 C   0  0  0  0  0  3  0  0  0  0  0  0
  186.1310  178.2640  137.9700 C   0  0  0  0  0  3  0  0  0  0  0  0
  184.4650  176.5990  137.4270 C   0  0  0  0  0  3  0  0  0  0  0  0
  185.4490  175.8140  136.8230 C   0  0  0  0  0  3  0  0  0  0  0  0
  186.7880  176.2390  136.7970 C   0  0  0  0  0  0  0  0  0  0  0  0
  187.7270  175.5670  134.5950 C   0  0  0  0  0  1  0  0  0  0  0  0
  187.7130  173.9360  136.4730 C   0  0  0  0  0  1  0  0  0  0  0  0
  187.8260  175.4040  136.1010 C   0  0  0  0  0  3  0  0  0  0  0  0
  188.6000  177.7840  140.2830 C   0  0  0  0  0  2  0  0  0  0  0  0
  188.9120  178.1130  141.7350 C   0  0  0  0  0  2  0  0  0  0  0  0
  188.5940  176.9260  142.6290 C   0  0  0  0  0  2  0  0  0  0  0  0
  188.2690  177.7160  147.8210 C   0  0  0  0  0  0  0  0  0  0  0  0
  187.5990  177.5500  145.4740 C   0  0  0  0  0  3  0  0  0  0  0  0
  191.3030  176.7530  145.3970 S   0  0  0  0  0  0  0  0  0  0  0  0
  190.7660  176.6540  143.8200 N   0  0  0  0  0  0  0  0  0  0  0  0
  187.9320  177.9590  149.1450 O   0  0  0  0  0  1  0  0  0  0  0  0
  189.4360  176.9490  143.8640 C   0  0  0  0  0  0  0  0  0  0  0  0
  187.2780  177.7940  146.8210 C   0  0  0  0  0  3  0  0  0  0  0  0
  189.8760  177.1580  146.1440 C   0  0  0  0  0  0  0  0  0  0  0  0
  188.9190  177.2290  145.1480 C   0  0  0  0  0  0  0  0  0  0  0  0
  189.5940  177.3930  147.4850 C   0  0  0  0  0  3  0  0  0  0  0  0
  1  4  1  6  0  0  0
  1  3  1  0  0  0  0
  2  8  1  6  0  0  0
  2  6  1  0  0  0  0
  3  7  1  0  0  0  0
  5  2  1  0  0  0  0
  5  1  1  0  0  0  0
  6  7  1  0  0  0  0
  6 19  1  0  0  0  0
  8 10  1  0  0  0  0
  8  9  1  1  0  0  0
 10 12  1  0  0  0  0
 12 11  2  0  0  0  0
 13 11  1  0  0  0  0
 14 13  2  0  0  0  0
 15 14  1  0  0  0  0
 15 10  2  0  0  0  0
 16 18  1  0  0  0  0
 18 17  1  0  0  0  0
 18 15  1  0  0  0  0
 19 20  1  0  0  0  0
 20 21  1  0  0  0  0
 21 27  1  0  0  0  0
 22 26  1  0  0  0  0
 23 28  1  0  0  0  0
 24 29  1  0  0  0  0
 25 27  2  0  0  0  0
 25 24  1  0  0  0  0
 27 30  1  0  0  0  0
 28 22  2  0  0  0  0
 29 31  2  0  0  0  0
 30 23  2  0  0  0  0
 30 29  1  0  0  0  0
 31 22  1  0  0  0  0
M  END
>  <MODEL>
8

>  <REMARK>
 VINA RESULT:      -7.8      2.857      7.875
  Name = 
  7 active torsions:
  status: ('A' for Active; 'I' for Inactive)
    1  A    between atoms: C_4  and  C_5
    2  A    between atoms: C_4  and  C_12
    3  A    between atoms: C_9  and  C_23
    4  A    between atoms: C_15  and  C_20
    5  A    between atoms: C_15  and  C_23
    6  A    between atoms: C_20  and  N_27
    7  A    between atoms: C_30  and  C_31
                            x       y       z     vdW  Elec       q    Type
                         _______ _______ _______ _____ _____    ______ ____

>  <TORSDO>
F 7

$$$$
=
 OpenBabel10262419323D

 31 34  0  0  1  0  0  0  0  0999 V2000
  191.7590  176.1880  138.2940 C   0  0  2  0  0  3  0  0  0  0  0  0
  189.4830  177.1850  138.1830 C   0  0  1  0  0  3  0  0  0  0  0  0
  192.0360  177.0570  139.3590 O   0  0  0  0  0  0  0  0  0  0  0  0
  193.0320  175.9110  137.5220 C   0  0  0  0  0  1  0  0  0  0  0  0
  190.7320  176.8240  137.3670 C   0  0  0  0  0  2  0  0  0  0  0  0
  189.8360  177.8880  139.4280 N   0  0  0  0  0  0  0  0  0  0  0  0
  190.8620  177.1090  140.1280 C   0  0  0  0  0  2  0  0  0  0  0  0
  188.4740  177.9890  137.3390 C   0  0  2  0  0  3  0  0  0  0  0  0
  188.5800  179.3580  137.5990 O   0  0  0  0  0  1  0  0  0  0  0  0
  187.0430  177.5310  137.4600 C   0  0  0  0  0  0  0  0  0  0  0  0
  184.7980  177.8720  138.3330 C   0  0  0  0  0  3  0  0  0  0  0  0
  186.1340  178.2680  138.2350 C   0  0  0  0  0  3  0  0  0  0  0  0
  184.3530  176.7440  137.6450 C   0  0  0  0  0  3  0  0  0  0  0  0
  185.2440  176.0100  136.8590 C   0  0  0  0  0  3  0  0  0  0  0  0
  186.5930  176.3900  136.7620 C   0  0  0  0  0  0  0  0  0  0  0  0
  186.8260  175.1920  134.5960 C   0  0  0  0  0  1  0  0  0  0  0  0
  188.1020  174.4020  136.5800 C   0  0  0  0  0  1  0  0  0  0  0  0
  187.5270  175.6170  135.8740 C   0  0  0  0  0  3  0  0  0  0  0  0
  188.6640  177.8770  140.2940 C   0  0  0  0  0  2  0  0  0  0  0  0
  189.0920  177.9090  141.7530 C   0  0  0  0  0  2  0  0  0  0  0  0
  188.4100  176.7980  142.5330 C   0  0  0  0  0  2  0  0  0  0  0  0
  188.0650  177.8870  147.6680 C   0  0  0  0  0  0  0  0  0  0  0  0
  188.9760  177.0860  145.5440 C   0  0  0  0  0  3  0  0  0  0  0  0
  185.5470  178.3950  144.6010 S   0  0  0  0  0  0  0  0  0  0  0  0
  186.2410  177.8310  143.1920 N   0  0  0  0  0  0  0  0  0  0  0  0
  188.2160  178.0850  149.0340 O   0  0  0  0  0  1  0  0  0  0  0  0
  187.4680  177.3590  143.5480 C   0  0  0  0  0  0  0  0  0  0  0  0
  189.1090  177.2940  146.9280 C   0  0  0  0  0  3  0  0  0  0  0  0
  186.7790  178.0590  145.6630 C   0  0  0  0  0  0  0  0  0  0  0  0
  187.7900  177.4790  144.9180 C   0  0  0  0  0  0  0  0  0  0  0  0
  186.8760  178.2800  147.0320 C   0  0  0  0  0  3  0  0  0  0  0  0
  1  4  1  6  0  0  0
  1  3  1  0  0  0  0
  2  8  1  6  0  0  0
  2  6  1  0  0  0  0
  3  7  1  0  0  0  0
  5  2  1  0  0  0  0
  5  1  1  0  0  0  0
  6  7  1  0  0  0  0
  6 19  1  0  0  0  0
  8 10  1  0  0  0  0
  8  9  1  1  0  0  0
 10 12  1  0  0  0  0
 12 11  2  0  0  0  0
 13 11  1  0  0  0  0
 14 13  2  0  0  0  0
 15 14  1  0  0  0  0
 15 10  2  0  0  0  0
 16 18  1  0  0  0  0
 18 17  1  0  0  0  0
 18 15  1  0  0  0  0
 19 20  1  0  0  0  0
 20 21  1  0  0  0  0
 21 27  1  0  0  0  0
 22 26  1  0  0  0  0
 23 28  1  0  0  0  0
 24 29  1  0  0  0  0
 25 27  2  0  0  0  0
 25 24  1  0  0  0  0
 27 30  1  0  0  0  0
 28 22  2  0  0  0  0
 29 31  2  0  0  0  0
 30 23  2  0  0  0  0
 30 29  1  0  0  0  0
 31 22  1  0  0  0  0
M  END
>  <MODEL>
9

>  <REMARK>
 VINA RESULT:      -7.8      2.891      7.879
  Name = 
  7 active torsions:
  status: ('A' for Active; 'I' for Inactive)
    1  A    between atoms: C_4  and  C_5
    2  A    between atoms: C_4  and  C_12
    3  A    between atoms: C_9  and  C_23
    4  A    between atoms: C_15  and  C_20
    5  A    between atoms: C_15  and  C_23
    6  A    between atoms: C_20  and  N_27
    7  A    between atoms: C_30  and  C_31
                            x       y       z     vdW  Elec       q    Type
                         _______ _______ _______ _____ _____    ______ ____

>  <TORSDO>
F 7

$$$$
