=
 OpenBabel10262420183D

 55 59  0  0  1  0  0  0  0  0999 V2000
  184.9570  178.2150  143.1400 C   0  0  1  0  0  3  0  0  0  0  0  0
  184.1200  179.4100  143.5920 C   0  0  0  0  0  2  0  0  0  0  0  0
  183.0300  178.9710  144.5520 C   0  0  0  0  0  2  0  0  0  0  0  0
  179.0790  179.3840  142.8470 C   0  0  0  0  0  2  0  0  0  0  0  0
  181.7170  178.9220  143.8460 C   0  0  0  0  0  0  0  0  0  0  0  0
  181.5370  179.7750  142.6110 C   0  0  0  0  0  2  0  0  0  0  0  0
  179.3270  178.1990  143.7730 C   0  0  0  0  0  2  0  0  0  0  0  0
  180.2360  179.4880  141.8610 C   0  0  2  0  0  3  0  0  0  0  0  0
  180.6870  178.2800  144.4190 C   0  0  0  0  0  3  0  0  0  0  0  0
  179.4320  181.4690  141.6630 O   0  0  0  0  0  1  0  0  0  0  0  0
  179.9880  180.5120  140.9490 O   0  0  0  0  0  0  0  0  0  0  0  0
  184.6970  177.9210  141.7970 O   0  0  0  0  0  0  0  0  0  0  0  0
  185.2500  178.9750  141.0640 C   0  0  0  0  0  2  0  0  0  0  0  0
  184.6600  179.0190  139.6580 C   0  0  0  0  0  2  0  0  0  0  0  0
  185.5240  178.2580  138.6670 C   0  0  0  0  0  2  0  0  0  0  0  0
  184.7300  177.3640  137.9450 O   0  0  0  0  0  0  0  0  0  0  0  0
  183.7600  178.1570  137.3360 C   0  0  0  0  0  2  0  0  0  0  0  0
  180.8860  174.7500  138.5750 C   0  0  0  0  0  2  0  0  0  0  0  0
  180.0100  174.7440  139.8320 C   0  0  0  0  0  2  0  0  0  0  0  0
  182.0130  176.7620  139.4850 O   0  0  0  0  0  0  0  0  0  0  0  0
  179.6000  177.2020  139.2010 C   0  0  0  0  0  2  0  0  0  0  0  0
  179.5300  176.1320  140.2930 C   0  0  0  0  0  2  0  0  0  0  0  0
  182.1770  175.5660  138.7330 C   0  0  2  0  0  3  0  0  0  0  0  0
  181.2420  177.8090  137.3730 C   0  0  2  0  0  3  0  0  0  0  0  0
  181.0460  177.6230  138.8900 C   0  0  2  0  0  3  0  0  0  0  0  0
  182.8110  175.8390  137.3610 C   0  0  0  0  0  2  0  0  0  0  0  0
  182.5970  177.2810  136.8810 C   0  0  2  0  0  3  0  0  0  0  0  0
  180.9650  180.2560  137.8090 C   0  0  0  0  0  3  0  0  0  0  0  0
  180.2780  181.8030  136.0680 C   0  0  0  0  0  0  0  0  0  0  0  0
  180.5400  179.4410  135.5690 C   0  0  0  0  0  3  0  0  0  0  0  0
  180.2220  180.7390  135.1560 C   0  0  0  0  0  3  0  0  0  0  0  0
  180.6490  181.5550  137.3950 C   0  0  0  0  0  3  0  0  0  0  0  0
  180.9170  179.1960  136.8980 C   0  0  0  0  0  0  0  0  0  0  0  0
  179.9300  183.1970  135.6570 C   0  0  1  0  0  3  0  0  0  0  0  0
  179.1010  183.8910  136.7210 C   0  0  0  0  0  1  0  0  0  0  0  0
  181.1370  183.9650  135.3930 N   0  0  0  0  0  1  0  0  0  0  0  0
  186.4630  178.4520  143.3420 C   0  0  0  0  0  2  0  0  0  0  0  0
  187.1730  177.5760  144.3960 C   0  0  1  0  0  3  0  0  0  0  0  0
  189.6420  177.7000  144.8310 C   0  0  0  0  0  3  0  0  0  0  0  0
  188.4140  178.2210  144.9470 C   0  0  0  0  0  3  0  0  0  0  0  0
  189.9290  176.4260  144.0980 C   0  0  2  0  0  3  0  0  0  0  0  0
  191.4000  176.2840  143.8530 C   0  0  0  0  0  0  0  0  0  0  0  0
  192.1490  177.4090  143.5350 O   0  0  0  0  0  0  0  0  0  0  0  0
  191.9660  175.1600  143.9420 O   0  0  0  0  0  1  0  0  0  0  0  0
  189.1420  176.4000  142.7900 C   0  0  0  0  0  2  0  0  0  0  0  0
  190.0120  176.6980  141.6660 N   0  0  0  0  0  0  0  0  0  0  0  0
  189.1670  177.0180  140.5430 C   0  0  1  0  0  3  0  0  0  0  0  0
  189.7300  178.0000  141.2920 O   0  0  0  0  0  0  0  0  0  0  0  0
  189.8970  176.8820  139.3310 O   0  0  0  0  0  0  0  0  0  0  0  0
  189.4440  177.3900  138.1100 C   0  0  0  0  0  0  0  0  0  0  0  0
  189.3430  176.5770  137.0710 C   0  0  0  0  0  2  0  0  0  0  0  0
  189.0590  178.8220  137.9480 C   0  0  0  0  0  1  0  0  0  0  0  0
  186.2260  177.1710  145.5200 C   0  0  0  0  0  2  0  0  0  0  0  0
  186.4650  178.0040  146.7330 C   0  0  0  0  0  3  0  0  0  0  0  0
  185.7330  179.0930  146.9440 C   0  0  0  0  0  2  0  0  0  0  0  0
  1 37  1  6  0  0  0
  1  2  1  0  0  0  0
  2  3  1  0  0  0  0
  4  7  1  0  0  0  0
  5  9  2  0  0  0  0
  5  3  1  0  0  0  0
  6  5  1  0  0  0  0
  7  9  1  0  0  0  0
  8 11  1  6  0  0  0
  8  6  1  0  0  0  0
  8  4  1  0  0  0  0
 11 10  1  0  0  0  0
 12  1  1  0  0  0  0
 13 12  1  0  0  0  0
 14 13  1  0  0  0  0
 15 14  1  0  0  0  0
 16 15  1  0  0  0  0
 17 16  1  0  0  0  0
 18 23  1  0  0  0  0
 18 19  1  0  0  0  0
 19 22  1  0  0  0  0
 21 22  1  0  0  0  0
 23 26  1  6  0  0  0
 23 20  1  0  0  0  0
 24 33  1  1  0  0  0
 24 25  1  0  0  0  0
 25 21  1  6  0  0  0
 25 20  1  0  0  0  0
 27 17  1  1  0  0  0
 27 26  1  0  0  0  0
 27 24  1  0  0  0  0
 29 32  2  0  0  0  0
 30 33  1  0  0  0  0
 31 30  2  0  0  0  0
 31 29  1  0  0  0  0
 32 28  1  0  0  0  0
 33 28  2  0  0  0  0
 34 29  1  0  0  0  0
 34 35  1  1  0  0  0
 36 34  1  0  0  0  0
 38 37  1  6  0  0  0
 38 40  1  0  0  0  0
 38 53  1  0  0  0  0
 39 40  2  0  0  0  0
 41 45  1  6  0  0  0
 41 39  1  0  0  0  0
 42 44  1  0  0  0  0
 42 41  1  0  0  0  0
 43 42  2  0  0  0  0
 46 45  1  0  0  0  0
 47 49  1  6  0  0  0
 47 48  1  0  0  0  0
 47 46  1  0  0  0  0
 48 46  1  0  0  0  0
 50 49  1  0  0  0  0
 51 50  2  0  0  0  0
 52 50  1  0  0  0  0
 53 54  1  0  0  0  0
 54 55  2  0  0  0  0
M  END
>  <MODEL>
1

>  <REMARK>
 VINA RESULT:      -6.7      0.000      0.000
  Name = 
  24 active torsions:
  status: ('A' for Active; 'I' for Inactive)
    1  A    between atoms: C_1  and  C_53
    2  A    between atoms: N_3  and  C_38
    3  A    between atoms: C_4  and  O_35
    4  A    between atoms: C_4  and  C_37
    5  A    between atoms: C_5  and  C_37
    6  A    between atoms: C_5  and  O_40
    7  A    between atoms: C_6  and  C_53
    8  A    between atoms: C_7  and  C_20
    9  A    between atoms: C_8  and  C_22
   10  A    between atoms: C_8  and  C_43
   11  A    between atoms: C_10  and  C_32
   12  A    between atoms: C_11  and  O_50
   13  A    between atoms: C_12  and  O_50
   14  A    between atoms: C_19  and  O_40
   15  A    between atoms: C_19  and  C_49
   16  A    between atoms: C_20  and  C_22
   17  A    between atoms: C_22  and  C_46
   18  A    between atoms: C_27  and  C_54
   19  A    between atoms: O_28  and  C_44
   20  A    between atoms: C_33  and  C_52
   21  A    between atoms: O_35  and  C_43
   22  A    between atoms: C_38  and  C_53
   23  A    between atoms: C_43  and  C_51
   24  A    between atoms: C_51  and  C_54
                            x       y       z     vdW  Elec       q    Type
                         _______ _______ _______ _____ _____    ______ ____

>  <TORSDO>
F 24

$$$$
=
 OpenBabel10262420183D

 55 59  0  0  1  0  0  0  0  0999 V2000
  184.4600  178.4160  143.0790 C   0  0  1  0  0  3  0  0  0  0  0  0
  183.3430  179.3380  143.5650 C   0  0  0  0  0  2  0  0  0  0  0  0
  182.1290  178.5330  143.9920 C   0  0  0  0  0  2  0  0  0  0  0  0
  179.2020  179.7070  141.0360 C   0  0  0  0  0  2  0  0  0  0  0  0
  180.9630  178.8710  143.1260 C   0  0  0  0  0  0  0  0  0  0  0  0
  180.5350  177.8680  142.0800 C   0  0  0  0  0  2  0  0  0  0  0  0
  179.2800  180.5300  142.3170 C   0  0  0  0  0  2  0  0  0  0  0  0
  179.2130  178.2270  141.4000 C   0  0  2  0  0  3  0  0  0  0  0  0
  180.4490  180.1100  143.1700 C   0  0  0  0  0  3  0  0  0  0  0  0
  179.8980  176.4560  140.3990 O   0  0  0  0  0  1  0  0  0  0  0  0
  179.0560  177.4570  140.2490 O   0  0  0  0  0  0  0  0  0  0  0  0
  184.0940  177.8010  141.8770 O   0  0  0  0  0  0  0  0  0  0  0  0
  183.8630  178.8430  140.9730 C   0  0  0  0  0  2  0  0  0  0  0  0
  183.5610  178.2910  139.5840 C   0  0  0  0  0  2  0  0  0  0  0  0
  184.1690  179.1590  138.4950 C   0  0  0  0  0  2  0  0  0  0  0  0
  185.4620  178.7170  138.2120 O   0  0  0  0  0  0  0  0  0  0  0  0
  185.3020  177.4160  137.7410 C   0  0  0  0  0  2  0  0  0  0  0  0
  189.4680  177.3240  135.7310 C   0  0  0  0  0  2  0  0  0  0  0  0
  190.6330  176.4220  136.1520 C   0  0  0  0  0  2  0  0  0  0  0  0
  188.2950  176.6080  137.7960 O   0  0  0  0  0  0  0  0  0  0  0  0
  188.7900  174.6450  136.3820 C   0  0  0  0  0  2  0  0  0  0  0  0
  190.2190  175.0600  136.7380 C   0  0  0  0  0  2  0  0  0  0  0  0
  188.5230  177.6790  136.8890 C   0  0  2  0  0  3  0  0  0  0  0  0
  186.5590  175.8270  136.2060 C   0  0  2  0  0  3  0  0  0  0  0  0
  187.7380  175.4750  137.1330 C   0  0  2  0  0  3  0  0  0  0  0  0
  187.2060  178.2560  136.3470 C   0  0  0  0  0  2  0  0  0  0  0  0
  186.0430  177.2570  136.4180 C   0  0  2  0  0  3  0  0  0  0  0  0
  185.5050  173.7670  137.1570 C   0  0  0  0  0  3  0  0  0  0  0  0
  183.5060  172.7830  136.1940 C   0  0  0  0  0  0  0  0  0  0  0  0
  184.4660  174.7920  135.2250 C   0  0  0  0  0  3  0  0  0  0  0  0
  183.4840  173.7960  135.2240 C   0  0  0  0  0  3  0  0  0  0  0  0
  184.5210  172.7720  137.1570 C   0  0  0  0  0  3  0  0  0  0  0  0
  185.4800  174.7830  136.1960 C   0  0  0  0  0  0  0  0  0  0  0  0
  182.4770  171.6990  136.2060 C   0  0  1  0  0  3  0  0  0  0  0  0
  183.1210  170.3350  136.3650 C   0  0  0  0  0  1  0  0  0  0  0  0
  181.5210  171.9210  137.2800 N   0  0  0  0  0  1  0  0  0  0  0  0
  185.7930  179.1630  142.9020 C   0  0  0  0  0  2  0  0  0  0  0  0
  187.0490  178.3030  142.6480 C   0  0  1  0  0  3  0  0  0  0  0  0
  187.9720  176.4000  143.9990 C   0  0  0  0  0  3  0  0  0  0  0  0
  186.9700  176.9520  143.3040 C   0  0  0  0  0  3  0  0  0  0  0  0
  189.2820  177.0850  144.2390 C   0  0  2  0  0  3  0  0  0  0  0  0
  190.3630  176.4440  143.4230 C   0  0  0  0  0  0  0  0  0  0  0  0
  191.5990  177.0680  143.3190 O   0  0  0  0  0  1  0  0  0  0  0  0
  190.1680  175.3420  142.8410 O   0  0  0  0  0  0  0  0  0  0  0  0
  189.6130  177.0470  145.7290 C   0  0  0  0  0  2  0  0  0  0  0  0
  188.9120  178.1050  146.4340 N   0  0  0  0  0  0  0  0  0  0  0  0
  188.0370  177.4740  147.3910 C   0  0  1  0  0  3  0  0  0  0  0  0
  189.2430  177.9660  147.7700 O   0  0  0  0  0  0  0  0  0  0  0  0
  187.0190  178.3830  147.7900 O   0  0  0  0  0  0  0  0  0  0  0  0
  185.9210  178.6960  146.9830 C   0  0  0  0  0  0  0  0  0  0  0  0
  185.8590  179.8890  146.4130 C   0  0  0  0  0  2  0  0  0  0  0  0
  184.8210  177.7200  146.7380 C   0  0  0  0  0  1  0  0  0  0  0  0
  187.3450  178.1670  141.1580 C   0  0  0  0  0  2  0  0  0  0  0  0
  188.7180  178.6560  140.8490 C   0  0  0  0  0  3  0  0  0  0  0  0
  189.6340  177.8120  140.3850 C   0  0  0  0  0  2  0  0  0  0  0  0
  1 37  1  6  0  0  0
  1  2  1  0  0  0  0
  2  3  1  0  0  0  0
  4  8  1  0  0  0  0
  4  7  1  0  0  0  0
  5  9  2  0  0  0  0
  5  3  1  0  0  0  0
  6  5  1  0  0  0  0
  7  9  1  0  0  0  0
  8 11  1  6  0  0  0
  8  6  1  0  0  0  0
 11 10  1  0  0  0  0
 12  1  1  0  0  0  0
 13 12  1  0  0  0  0
 14 13  1  0  0  0  0
 15 14  1  0  0  0  0
 16 15  1  0  0  0  0
 17 16  1  0  0  0  0
 18 19  1  0  0  0  0
 19 22  1  0  0  0  0
 21 22  1  0  0  0  0
 23 18  1  6  0  0  0
 23 20  1  0  0  0  0
 24 33  1  1  0  0  0
 24 27  1  0  0  0  0
 24 25  1  0  0  0  0
 25 21  1  6  0  0  0
 25 20  1  0  0  0  0
 26 27  1  0  0  0  0
 26 23  1  0  0  0  0
 27 17  1  1  0  0  0
 28 32  1  0  0  0  0
 29 34  1  0  0  0  0
 29 32  2  0  0  0  0
 30 33  1  0  0  0  0
 31 30  2  0  0  0  0
 31 29  1  0  0  0  0
 33 28  2  0  0  0  0
 34 35  1  1  0  0  0
 34 36  1  0  0  0  0
 38 53  1  6  0  0  0
 38 37  1  0  0  0  0
 38 40  1  0  0  0  0
 40 39  2  0  0  0  0
 41 39  1  1  0  0  0
 41 45  1  0  0  0  0
 42 41  1  0  0  0  0
 43 42  1  0  0  0  0
 44 42  2  0  0  0  0
 45 46  1  0  0  0  0
 46 47  1  0  0  0  0
 46 48  1  0  0  0  0
 47 48  1  0  0  0  0
 47 49  1  1  0  0  0
 50 49  1  0  0  0  0
 51 50  2  0  0  0  0
 52 50  1  0  0  0  0
 54 53  1  0  0  0  0
 55 54  2  0  0  0  0
M  END
>  <MODEL>
2

>  <REMARK>
 VINA RESULT:      -6.3      3.194      6.411
  Name = 
  24 active torsions:
  status: ('A' for Active; 'I' for Inactive)
    1  A    between atoms: C_1  and  C_53
    2  A    between atoms: N_3  and  C_38
    3  A    between atoms: C_4  and  O_35
    4  A    between atoms: C_4  and  C_37
    5  A    between atoms: C_5  and  C_37
    6  A    between atoms: C_5  and  O_40
    7  A    between atoms: C_6  and  C_53
    8  A    between atoms: C_7  and  C_20
    9  A    between atoms: C_8  and  C_22
   10  A    between atoms: C_8  and  C_43
   11  A    between atoms: C_10  and  C_32
   12  A    between atoms: C_11  and  O_50
   13  A    between atoms: C_12  and  O_50
   14  A    between atoms: C_19  and  O_40
   15  A    between atoms: C_19  and  C_49
   16  A    between atoms: C_20  and  C_22
   17  A    between atoms: C_22  and  C_46
   18  A    between atoms: C_27  and  C_54
   19  A    between atoms: O_28  and  C_44
   20  A    between atoms: C_33  and  C_52
   21  A    between atoms: O_35  and  C_43
   22  A    between atoms: C_38  and  C_53
   23  A    between atoms: C_43  and  C_51
   24  A    between atoms: C_51  and  C_54
                            x       y       z     vdW  Elec       q    Type
                         _______ _______ _______ _____ _____    ______ ____

>  <TORSDO>
F 24

$$$$
=
 OpenBabel10262420183D

 55 59  0  0  1  0  0  0  0  0999 V2000
  189.4220  177.7430  138.5050 C   0  0  1  0  0  3  0  0  0  0  0  0
  190.0830  177.1140  137.2800 C   0  0  0  0  0  2  0  0  0  0  0  0
  190.4390  175.6630  137.5460 C   0  0  0  0  0  2  0  0  0  0  0  0
  194.4240  174.6850  136.1850 C   0  0  0  0  0  2  0  0  0  0  0  0
  191.8860  175.4320  137.2670 C   0  0  0  0  0  0  0  0  0  0  0  0
  192.5920  176.3820  136.3280 C   0  0  0  0  0  2  0  0  0  0  0  0
  193.9190  173.9920  137.4450 C   0  0  0  0  0  2  0  0  0  0  0  0
  194.1070  176.1730  136.2820 C   0  0  2  0  0  3  0  0  0  0  0  0
  192.4660  174.3020  137.7000 C   0  0  0  0  0  3  0  0  0  0  0  0
  195.9150  176.9860  135.4570 O   0  0  0  0  0  1  0  0  0  0  0  0
  194.6360  176.8400  135.1780 O   0  0  0  0  0  0  0  0  0  0  0  0
  188.1450  178.2120  138.1800 O   0  0  0  0  0  0  0  0  0  0  0  0
  188.0640  178.1550  136.7860 C   0  0  0  0  0  2  0  0  0  0  0  0
  186.7340  177.5490  136.3490 C   0  0  0  0  0  2  0  0  0  0  0  0
  185.7010  177.6110  137.4620 C   0  0  0  0  0  2  0  0  0  0  0  0
  184.4880  178.0730  136.9480 O   0  0  0  0  0  0  0  0  0  0  0  0
  183.6190  178.0850  138.0370 C   0  0  0  0  0  2  0  0  0  0  0  0
  180.1670  175.3580  139.4710 C   0  0  0  0  0  2  0  0  0  0  0  0
  179.3400  175.5740  140.7430 C   0  0  0  0  0  2  0  0  0  0  0  0
  181.6890  177.1440  140.2740 O   0  0  0  0  0  0  0  0  0  0  0  0
  179.4020  178.0380  140.0140 C   0  0  0  0  0  2  0  0  0  0  0  0
  179.1520  177.0460  141.1520 C   0  0  0  0  0  2  0  0  0  0  0  0
  181.5970  175.9110  139.5720 C   0  0  2  0  0  3  0  0  0  0  0  0
  181.0830  178.2390  138.1330 C   0  0  2  0  0  3  0  0  0  0  0  0
  180.8930  178.1540  139.6590 C   0  0  2  0  0  3  0  0  0  0  0  0
  182.2360  176.0010  138.1780 C   0  0  0  0  0  2  0  0  0  0  0  0
  182.2970  177.4370  137.6400 C   0  0  2  0  0  3  0  0  0  0  0  0
  181.2120  180.7120  138.4870 C   0  0  0  0  0  3  0  0  0  0  0  0
  180.8810  182.2900  136.6720 C   0  0  0  0  0  0  0  0  0  0  0  0
  180.7560  179.9020  136.2510 C   0  0  0  0  0  3  0  0  0  0  0  0
  180.6840  181.2200  135.7870 C   0  0  0  0  0  3  0  0  0  0  0  0
  181.1430  182.0300  138.0230 C   0  0  0  0  0  3  0  0  0  0  0  0
  181.0230  179.6430  137.6050 C   0  0  0  0  0  0  0  0  0  0  0  0
  180.7960  183.7080  136.2060 C   0  0  1  0  0  3  0  0  0  0  0  0
  179.5710  183.9260  135.3390 C   0  0  0  0  0  1  0  0  0  0  0  0
  180.7640  184.6140  137.3420 N   0  0  0  0  0  1  0  0  0  0  0  0
  189.3360  176.7610  139.6870 C   0  0  0  0  0  2  0  0  0  0  0  0
  189.9950  177.2010  141.0110 C   0  0  1  0  0  3  0  0  0  0  0  0
  190.0610  176.1460  143.2870 C   0  0  0  0  0  3  0  0  0  0  0  0
  190.2130  176.0550  141.9600 C   0  0  0  0  0  3  0  0  0  0  0  0
  189.6160  177.3960  143.9810 C   0  0  2  0  0  3  0  0  0  0  0  0
  190.8010  178.1650  144.4810 C   0  0  0  0  0  0  0  0  0  0  0  0
  191.0380  179.4440  143.9950 O   0  0  0  0  0  0  0  0  0  0  0  0
  191.5770  177.6700  145.3440 O   0  0  0  0  0  1  0  0  0  0  0  0
  188.6650  177.0380  145.1200 C   0  0  0  0  0  2  0  0  0  0  0  0
  187.7660  178.1430  145.4000 N   0  0  0  0  0  0  0  0  0  0  0  0
  186.4950  177.5760  145.7770 C   0  0  1  0  0  3  0  0  0  0  0  0
  187.3740  178.0000  146.7190 O   0  0  0  0  0  0  0  0  0  0  0  0
  185.4680  178.5480  145.6310 O   0  0  0  0  0  0  0  0  0  0  0  0
  184.6690  178.6430  144.4880 C   0  0  0  0  0  0  0  0  0  0  0  0
  183.4250  179.0770  144.6040 C   0  0  0  0  0  2  0  0  0  0  0  0
  185.1840  178.2790  143.1360 C   0  0  0  0  0  1  0  0  0  0  0  0
  191.2960  177.9580  140.7670 C   0  0  0  0  0  2  0  0  0  0  0  0
  192.4370  177.0100  140.6250 C   0  0  0  0  0  3  0  0  0  0  0  0
  193.4780  177.3330  139.8660 C   0  0  0  0  0  2  0  0  0  0  0  0
  1  2  1  6  0  0  0
  1 37  1  0  0  0  0
  2  3  1  0  0  0  0
  4  8  1  0  0  0  0
  4  7  1  0  0  0  0
  5  3  1  0  0  0  0
  5  9  2  0  0  0  0
  6  5  1  0  0  0  0
  7  9  1  0  0  0  0
  8 11  1  6  0  0  0
  8  6  1  0  0  0  0
 11 10  1  0  0  0  0
 12  1  1  0  0  0  0
 13 12  1  0  0  0  0
 14 13  1  0  0  0  0
 14 15  1  0  0  0  0
 16 15  1  0  0  0  0
 16 17  1  0  0  0  0
 18 23  1  0  0  0  0
 18 19  1  0  0  0  0
 19 22  1  0  0  0  0
 21 22  1  0  0  0  0
 23 26  1  6  0  0  0
 23 20  1  0  0  0  0
 24 33  1  1  0  0  0
 24 25  1  0  0  0  0
 25 21  1  6  0  0  0
 25 20  1  0  0  0  0
 27 17  1  1  0  0  0
 27 24  1  0  0  0  0
 27 26  1  0  0  0  0
 29 32  2  0  0  0  0
 30 33  1  0  0  0  0
 31 30  2  0  0  0  0
 31 29  1  0  0  0  0
 32 28  1  0  0  0  0
 33 28  2  0  0  0  0
 34 35  1  1  0  0  0
 34 29  1  0  0  0  0
 34 36  1  0  0  0  0
 38 37  1  6  0  0  0
 38 40  1  0  0  0  0
 40 39  2  0  0  0  0
 41 39  1  1  0  0  0
 41 42  1  0  0  0  0
 41 45  1  0  0  0  0
 42 44  1  0  0  0  0
 43 42  2  0  0  0  0
 45 46  1  0  0  0  0
 46 47  1  0  0  0  0
 46 48  1  0  0  0  0
 47 49  1  6  0  0  0
 47 48  1  0  0  0  0
 50 51  2  0  0  0  0
 50 49  1  0  0  0  0
 52 50  1  0  0  0  0
 53 38  1  0  0  0  0
 54 53  1  0  0  0  0
 55 54  2  0  0  0  0
M  END
>  <MODEL>
3

>  <REMARK>
 VINA RESULT:      -6.3      2.606      7.326
  Name = 
  24 active torsions:
  status: ('A' for Active; 'I' for Inactive)
    1  A    between atoms: C_1  and  C_53
    2  A    between atoms: N_3  and  C_38
    3  A    between atoms: C_4  and  O_35
    4  A    between atoms: C_4  and  C_37
    5  A    between atoms: C_5  and  C_37
    6  A    between atoms: C_5  and  O_40
    7  A    between atoms: C_6  and  C_53
    8  A    between atoms: C_7  and  C_20
    9  A    between atoms: C_8  and  C_22
   10  A    between atoms: C_8  and  C_43
   11  A    between atoms: C_10  and  C_32
   12  A    between atoms: C_11  and  O_50
   13  A    between atoms: C_12  and  O_50
   14  A    between atoms: C_19  and  O_40
   15  A    between atoms: C_19  and  C_49
   16  A    between atoms: C_20  and  C_22
   17  A    between atoms: C_22  and  C_46
   18  A    between atoms: C_27  and  C_54
   19  A    between atoms: O_28  and  C_44
   20  A    between atoms: C_33  and  C_52
   21  A    between atoms: O_35  and  C_43
   22  A    between atoms: C_38  and  C_53
   23  A    between atoms: C_43  and  C_51
   24  A    between atoms: C_51  and  C_54
                            x       y       z     vdW  Elec       q    Type
                         _______ _______ _______ _____ _____    ______ ____

>  <TORSDO>
F 24

$$$$
=
 OpenBabel10262420183D

 55 59  0  0  1  0  0  0  0  0999 V2000
  190.7280  175.8240  136.6720 C   0  0  1  0  0  3  0  0  0  0  0  0
  191.7400  175.6410  135.5430 C   0  0  0  0  0  2  0  0  0  0  0  0
  193.1180  176.1060  135.9740 C   0  0  0  0  0  2  0  0  0  0  0  0
  195.8040  172.7400  136.3570 C   0  0  0  0  0  2  0  0  0  0  0  0
  193.9680  174.9310  136.3220 C   0  0  0  0  0  0  0  0  0  0  0  0
  195.4020  175.1800  136.7270 C   0  0  0  0  0  2  0  0  0  0  0  0
  194.3070  172.4570  136.4040 C   0  0  0  0  0  2  0  0  0  0  0  0
  196.1080  173.9310  137.2580 C   0  0  2  0  0  3  0  0  0  0  0  0
  193.5030  173.6930  136.0910 C   0  0  0  0  0  3  0  0  0  0  0  0
  197.6100  175.4650  137.3070 O   0  0  0  0  0  1  0  0  0  0  0  0
  197.4840  174.1540  137.2960 O   0  0  0  0  0  0  0  0  0  0  0  0
  191.1340  176.8560  137.5250 O   0  0  0  0  0  0  0  0  0  0  0  0
  190.9290  176.3790  138.8230 C   0  0  0  0  0  2  0  0  0  0  0  0
  190.5170  177.5150  139.7540 C   0  0  0  0  0  2  0  0  0  0  0  0
  189.3100  177.1360  140.5950 C   0  0  0  0  0  2  0  0  0  0  0  0
  189.0190  178.1690  141.4870 O   0  0  0  0  0  0  0  0  0  0  0  0
  189.9860  178.0650  142.4840 C   0  0  0  0  0  2  0  0  0  0  0  0
  191.8000  175.2680  145.6930 C   0  0  0  0  0  2  0  0  0  0  0  0
  192.1610  175.6800  147.1230 C   0  0  0  0  0  2  0  0  0  0  0  0
  191.4430  177.6710  145.1930 O   0  0  0  0  0  0  0  0  0  0  0  0
  189.9300  176.9510  147.0070 C   0  0  0  0  0  2  0  0  0  0  0  0
  191.2720  176.7840  147.7230 C   0  0  0  0  0  2  0  0  0  0  0  0
  191.8930  176.4220  144.6830 C   0  0  2  0  0  3  0  0  0  0  0  0
  189.1550  176.9210  144.5980 C   0  0  2  0  0  3  0  0  0  0  0  0
  190.0850  177.5990  145.6220 C   0  0  2  0  0  3  0  0  0  0  0  0
  191.1770  176.0500  143.3760 C   0  0  0  0  0  2  0  0  0  0  0  0
  189.8160  176.7420  143.2240 C   0  0  2  0  0  3  0  0  0  0  0  0
  187.3050  178.2290  145.6570 C   0  0  0  0  0  3  0  0  0  0  0  0
  185.2150  178.6690  144.5030 C   0  0  0  0  0  0  0  0  0  0  0  0
  186.9730  177.4030  143.4060 C   0  0  0  0  0  3  0  0  0  0  0  0
  185.6930  177.9660  143.3870 C   0  0  0  0  0  3  0  0  0  0  0  0
  186.0250  178.7960  145.6370 C   0  0  0  0  0  3  0  0  0  0  0  0
  187.7860  177.5360  144.5430 C   0  0  0  0  0  0  0  0  0  0  0  0
  183.8460  179.2690  144.5140 C   0  0  1  0  0  3  0  0  0  0  0  0
  183.0110  178.7460  143.3610 C   0  0  0  0  0  1  0  0  0  0  0  0
  183.1790  178.9860  145.7750 N   0  0  0  0  0  1  0  0  0  0  0  0
  189.3120  176.1070  136.1430 C   0  0  0  0  0  2  0  0  0  0  0  0
  188.2470  175.0150  136.3740 C   0  0  1  0  0  3  0  0  0  0  0  0
  185.9340  174.5130  135.5400 C   0  0  0  0  0  3  0  0  0  0  0  0
  187.1450  175.0520  135.3530 C   0  0  0  0  0  3  0  0  0  0  0  0
  185.5210  173.8390  136.8130 C   0  0  2  0  0  3  0  0  0  0  0  0
  184.8930  172.5110  136.5210 C   0  0  0  0  0  0  0  0  0  0  0  0
  184.0430  171.9390  137.4560 O   0  0  0  0  0  1  0  0  0  0  0  0
  185.1190  171.9130  135.4320 O   0  0  0  0  0  0  0  0  0  0  0  0
  184.5680  174.7470  137.5860 C   0  0  0  0  0  2  0  0  0  0  0  0
  184.2730  175.9460  136.8200 N   0  0  0  0  0  0  0  0  0  0  0  0
  183.5900  176.8590  137.7020 C   0  0  1  0  0  3  0  0  0  0  0  0
  184.9200  176.9860  137.4630 O   0  0  0  0  0  0  0  0  0  0  0  0
  182.8880  177.8340  136.9420 O   0  0  0  0  0  0  0  0  0  0  0  0
  182.0620  178.8000  137.5240 C   0  0  0  0  0  0  0  0  0  0  0  0
  182.4660  179.4160  138.6230 C   0  0  0  0  0  2  0  0  0  0  0  0
  180.7420  179.1650  136.9340 C   0  0  0  0  0  1  0  0  0  0  0  0
  188.8740  173.6260  136.4470 C   0  0  0  0  0  2  0  0  0  0  0  0
  188.7910  172.9440  135.1250 C   0  0  0  0  0  3  0  0  0  0  0  0
  188.8440  171.6180  135.0590 C   0  0  0  0  0  2  0  0  0  0  0  0
  1  2  1  6  0  0  0
  1 12  1  0  0  0  0
  2  3  1  0  0  0  0
  3  5  1  0  0  0  0
  4  7  1  0  0  0  0
  4  8  1  0  0  0  0
  5  6  1  0  0  0  0
  6  8  1  0  0  0  0
  8 11  1  6  0  0  0
  9  5  2  0  0  0  0
  9  7  1  0  0  0  0
 11 10  1  0  0  0  0
 12 13  1  0  0  0  0
 13 14  1  0  0  0  0
 14 15  1  0  0  0  0
 15 16  1  0  0  0  0
 16 17  1  0  0  0  0
 18 19  1  0  0  0  0
 19 22  1  0  0  0  0
 20 25  1  0  0  0  0
 21 22  1  0  0  0  0
 23 26  1  6  0  0  0
 23 20  1  0  0  0  0
 23 18  1  0  0  0  0
 24 33  1  6  0  0  0
 24 25  1  0  0  0  0
 25 21  1  1  0  0  0
 27 17  1  1  0  0  0
 27 26  1  0  0  0  0
 27 24  1  0  0  0  0
 29 34  1  0  0  0  0
 29 32  2  0  0  0  0
 30 33  1  0  0  0  0
 31 30  2  0  0  0  0
 31 29  1  0  0  0  0
 32 28  1  0  0  0  0
 33 28  2  0  0  0  0
 34 35  1  6  0  0  0
 34 36  1  0  0  0  0
 37 38  1  0  0  0  0
 37  1  1  0  0  0  0
 38 40  1  6  0  0  0
 38 53  1  0  0  0  0
 40 39  2  0  0  0  0
 41 39  1  6  0  0  0
 41 45  1  0  0  0  0
 42 41  1  0  0  0  0
 42 43  1  0  0  0  0
 44 42  2  0  0  0  0
 46 48  1  0  0  0  0
 46 45  1  0  0  0  0
 46 47  1  0  0  0  0
 47 49  1  6  0  0  0
 48 47  1  0  0  0  0
 49 50  1  0  0  0  0
 50 51  2  0  0  0  0
 52 50  1  0  0  0  0
 54 53  1  0  0  0  0
 55 54  2  0  0  0  0
M  END
>  <MODEL>
4

>  <REMARK>
 VINA RESULT:      -6.1      3.795     11.450
  Name = 
  24 active torsions:
  status: ('A' for Active; 'I' for Inactive)
    1  A    between atoms: C_1  and  C_53
    2  A    between atoms: N_3  and  C_38
    3  A    between atoms: C_4  and  O_35
    4  A    between atoms: C_4  and  C_37
    5  A    between atoms: C_5  and  C_37
    6  A    between atoms: C_5  and  O_40
    7  A    between atoms: C_6  and  C_53
    8  A    between atoms: C_7  and  C_20
    9  A    between atoms: C_8  and  C_22
   10  A    between atoms: C_8  and  C_43
   11  A    between atoms: C_10  and  C_32
   12  A    between atoms: C_11  and  O_50
   13  A    between atoms: C_12  and  O_50
   14  A    between atoms: C_19  and  O_40
   15  A    between atoms: C_19  and  C_49
   16  A    between atoms: C_20  and  C_22
   17  A    between atoms: C_22  and  C_46
   18  A    between atoms: C_27  and  C_54
   19  A    between atoms: O_28  and  C_44
   20  A    between atoms: C_33  and  C_52
   21  A    between atoms: O_35  and  C_43
   22  A    between atoms: C_38  and  C_53
   23  A    between atoms: C_43  and  C_51
   24  A    between atoms: C_51  and  C_54
                            x       y       z     vdW  Elec       q    Type
                         _______ _______ _______ _____ _____    ______ ____

>  <TORSDO>
F 24

$$$$
=
 OpenBabel10262420183D

 55 59  0  0  1  0  0  0  0  0999 V2000
  187.8880  178.5050  142.1520 C   0  0  1  0  0  3  0  0  0  0  0  0
  189.0310  177.5050  142.3220 C   0  0  0  0  0  2  0  0  0  0  0  0
  190.1770  178.1250  143.1010 C   0  0  0  0  0  2  0  0  0  0  0  0
  190.5700  177.0710  147.2750 C   0  0  0  0  0  2  0  0  0  0  0  0
  190.2220  177.5590  144.4800 C   0  0  0  0  0  0  0  0  0  0  0  0
  189.1000  177.9030  145.4310 C   0  0  0  0  0  2  0  0  0  0  0  0
  191.4570  176.3370  146.2750 C   0  0  0  0  0  2  0  0  0  0  0  0
  189.1450  177.1050  146.7350 C   0  0  2  0  0  3  0  0  0  0  0  0
  191.3310  176.9240  144.8920 C   0  0  0  0  0  3  0  0  0  0  0  0
  189.1100  178.2050  148.5790 O   0  0  0  0  0  1  0  0  0  0  0  0
  188.3010  177.6970  147.6740 O   0  0  0  0  0  0  0  0  0  0  0  0
  187.7620  178.8730  140.8080 O   0  0  0  0  0  0  0  0  0  0  0  0
  188.7560  178.1640  140.1260 C   0  0  0  0  0  2  0  0  0  0  0  0
  188.4850  178.1700  138.6250 C   0  0  0  0  0  2  0  0  0  0  0  0
  189.7710  178.0480  137.8250 C   0  0  0  0  0  2  0  0  0  0  0  0
  189.4950  177.4760  136.5820 O   0  0  0  0  0  0  0  0  0  0  0  0
  190.5500  176.5960  136.3510 C   0  0  0  0  0  2  0  0  0  0  0  0
  188.2670  172.5780  136.5610 C   0  0  0  0  0  2  0  0  0  0  0  0
  188.2340  171.5200  135.4530 C   0  0  0  0  0  2  0  0  0  0  0  0
  189.3640  174.1020  134.9410 O   0  0  0  0  0  0  0  0  0  0  0  0
  190.7360  172.0730  135.2550 C   0  0  0  0  0  2  0  0  0  0  0  0
  189.5090  171.4420  134.5940 C   0  0  0  0  0  2  0  0  0  0  0  0
  188.4590  174.0080  136.0340 C   0  0  2  0  0  3  0  0  0  0  0  0
  191.1740  174.1480  136.6360 C   0  0  2  0  0  3  0  0  0  0  0  0
  190.6550  173.6070  135.2900 C   0  0  2  0  0  3  0  0  0  0  0  0
  188.8510  174.9530  137.1800 C   0  0  0  0  0  2  0  0  0  0  0  0
  190.3400  175.3240  137.1650 C   0  0  2  0  0  3  0  0  0  0  0  0
  193.4810  173.5690  137.4100 C   0  0  0  0  0  3  0  0  0  0  0  0
  195.4280  174.8470  136.7220 C   0  0  0  0  0  0  0  0  0  0  0  0
  193.2190  175.4590  135.9190 C   0  0  0  0  0  3  0  0  0  0  0  0
  194.5990  175.6830  135.9580 C   0  0  0  0  0  3  0  0  0  0  0  0
  194.8630  173.7920  137.4470 C   0  0  0  0  0  3  0  0  0  0  0  0
  192.6550  174.3970  136.6430 C   0  0  0  0  0  0  0  0  0  0  0  0
  196.9040  175.0720  136.7930 C   0  0  1  0  0  3  0  0  0  0  0  0
  197.6670  173.8060  136.4520 C   0  0  0  0  0  1  0  0  0  0  0  0
  197.2960  176.1430  135.8910 N   0  0  0  0  0  1  0  0  0  0  0  0
  186.5510  177.9510  142.6720 C   0  0  0  0  0  2  0  0  0  0  0  0
  185.2980  178.8240  142.4470 C   0  0  1  0  0  3  0  0  0  0  0  0
  183.5070  178.2590  140.7830 C   0  0  0  0  0  3  0  0  0  0  0  0
  184.1200  178.0320  141.9510 C   0  0  0  0  0  3  0  0  0  0  0  0
  183.9500  179.3080  139.8110 C   0  0  2  0  0  3  0  0  0  0  0  0
  182.7640  180.0100  139.2240 C   0  0  0  0  0  0  0  0  0  0  0  0
  181.5530  179.3380  139.1270 O   0  0  0  0  0  1  0  0  0  0  0  0
  182.8490  181.2050  138.8270 O   0  0  0  0  0  0  0  0  0  0  0  0
  184.8110  178.6680  138.7240 C   0  0  0  0  0  2  0  0  0  0  0  0
  184.3390  177.3270  138.4240 N   0  0  0  0  0  0  0  0  0  0  0  0
  184.1450  177.2510  136.9980 C   0  0  1  0  0  3  0  0  0  0  0  0
  185.2750  176.7690  137.5720 O   0  0  0  0  0  0  0  0  0  0  0  0
  183.2840  176.1640  136.6830 O   0  0  0  0  0  0  0  0  0  0  0  0
  182.0380  175.9820  137.2890 C   0  0  0  0  0  0  0  0  0  0  0  0
  180.9410  176.2580  136.6040 C   0  0  0  0  0  2  0  0  0  0  0  0
  181.9090  175.4740  138.6860 C   0  0  0  0  0  1  0  0  0  0  0  0
  184.9320  179.6150  143.6980 C   0  0  0  0  0  2  0  0  0  0  0  0
  184.2790  178.7310  144.7050 C   0  0  0  0  0  3  0  0  0  0  0  0
  184.8510  178.5380  145.8890 C   0  0  0  0  0  2  0  0  0  0  0  0
  1  2  1  6  0  0  0
  1 37  1  0  0  0  0
  2  3  1  0  0  0  0
  3  5  1  0  0  0  0
  5  9  2  0  0  0  0
  5  6  1  0  0  0  0
  6  8  1  0  0  0  0
  7  4  1  0  0  0  0
  8  4  1  0  0  0  0
  8 11  1  1  0  0  0
  9  7  1  0  0  0  0
 11 10  1  0  0  0  0
 12  1  1  0  0  0  0
 13 12  1  0  0  0  0
 14 13  1  0  0  0  0
 15 14  1  0  0  0  0
 16 15  1  0  0  0  0
 17 16  1  0  0  0  0
 19 18  1  0  0  0  0
 20 25  1  0  0  0  0
 20 23  1  0  0  0  0
 22 21  1  0  0  0  0
 22 19  1  0  0  0  0
 23 18  1  1  0  0  0
 23 26  1  0  0  0  0
 24 33  1  6  0  0  0
 24 27  1  0  0  0  0
 25 21  1  1  0  0  0
 25 24  1  0  0  0  0
 27 17  1  6  0  0  0
 27 26  1  0  0  0  0
 28 32  1  0  0  0  0
 29 34  1  0  0  0  0
 29 32  2  0  0  0  0
 30 31  2  0  0  0  0
 30 33  1  0  0  0  0
 31 29  1  0  0  0  0
 33 28  2  0  0  0  0
 34 35  1  6  0  0  0
 36 34  1  0  0  0  0
 38 40  1  1  0  0  0
 38 37  1  0  0  0  0
 38 53  1  0  0  0  0
 39 40  2  0  0  0  0
 41 45  1  6  0  0  0
 41 39  1  0  0  0  0
 42 41  1  0  0  0  0
 43 42  1  0  0  0  0
 44 42  2  0  0  0  0
 46 45  1  0  0  0  0
 47 49  1  1  0  0  0
 47 48  1  0  0  0  0
 47 46  1  0  0  0  0
 48 46  1  0  0  0  0
 49 50  1  0  0  0  0
 50 52  1  0  0  0  0
 51 50  2  0  0  0  0
 53 54  1  0  0  0  0
 54 55  2  0  0  0  0
M  END
>  <MODEL>
5

>  <REMARK>
 VINA RESULT:      -6.1      3.733     10.030
  Name = 
  24 active torsions:
  status: ('A' for Active; 'I' for Inactive)
    1  A    between atoms: C_1  and  C_53
    2  A    between atoms: N_3  and  C_38
    3  A    between atoms: C_4  and  O_35
    4  A    between atoms: C_4  and  C_37
    5  A    between atoms: C_5  and  C_37
    6  A    between atoms: C_5  and  O_40
    7  A    between atoms: C_6  and  C_53
    8  A    between atoms: C_7  and  C_20
    9  A    between atoms: C_8  and  C_22
   10  A    between atoms: C_8  and  C_43
   11  A    between atoms: C_10  and  C_32
   12  A    between atoms: C_11  and  O_50
   13  A    between atoms: C_12  and  O_50
   14  A    between atoms: C_19  and  O_40
   15  A    between atoms: C_19  and  C_49
   16  A    between atoms: C_20  and  C_22
   17  A    between atoms: C_22  and  C_46
   18  A    between atoms: C_27  and  C_54
   19  A    between atoms: O_28  and  C_44
   20  A    between atoms: C_33  and  C_52
   21  A    between atoms: O_35  and  C_43
   22  A    between atoms: C_38  and  C_53
   23  A    between atoms: C_43  and  C_51
   24  A    between atoms: C_51  and  C_54
                            x       y       z     vdW  Elec       q    Type
                         _______ _______ _______ _____ _____    ______ ____

>  <TORSDO>
F 24

$$$$
=
 OpenBabel10262420183D

 55 59  0  0  1  0  0  0  0  0999 V2000
  187.8460  178.3140  141.9530 C   0  0  1  0  0  3  0  0  0  0  0  0
  188.6620  177.1280  142.4620 C   0  0  0  0  0  2  0  0  0  0  0  0
  189.9020  177.6030  143.1970 C   0  0  0  0  0  2  0  0  0  0  0  0
  189.2210  176.7510  147.3800 C   0  0  0  0  0  2  0  0  0  0  0  0
  189.6790  177.5370  144.6710 C   0  0  0  0  0  0  0  0  0  0  0  0
  190.8640  177.2440  145.5600 C   0  0  0  0  0  2  0  0  0  0  0  0
  188.1170  177.4750  146.6190 C   0  0  0  0  0  2  0  0  0  0  0  0
  190.5570  177.4050  147.0500 C   0  0  2  0  0  3  0  0  0  0  0  0
  188.4230  177.5520  145.1450 C   0  0  0  0  0  3  0  0  0  0  0  0
  192.3760  176.2720  146.9110 O   0  0  0  0  0  1  0  0  0  0  0  0
  191.5710  176.8130  147.8020 O   0  0  0  0  0  0  0  0  0  0  0  0
  188.5050  178.9340  140.8850 O   0  0  0  0  0  0  0  0  0  0  0  0
  188.4540  178.0200  139.8280 C   0  0  0  0  0  2  0  0  0  0  0  0
  188.7270  178.7200  138.5000 C   0  0  0  0  0  2  0  0  0  0  0  0
  189.4970  177.8240  137.5450 C   0  0  0  0  0  2  0  0  0  0  0  0
  188.7790  177.6810  136.3570 O   0  0  0  0  0  0  0  0  0  0  0  0
  189.0080  176.3680  135.9550 C   0  0  0  0  0  2  0  0  0  0  0  0
  185.8160  173.2350  137.1390 C   0  0  0  0  0  2  0  0  0  0  0  0
  185.4390  172.0000  136.3130 C   0  0  0  0  0  2  0  0  0  0  0  0
  187.1380  174.0150  135.1910 O   0  0  0  0  0  0  0  0  0  0  0  0
  187.9790  171.8250  135.9610 C   0  0  0  0  0  2  0  0  0  0  0  0
  186.5890  171.4020  135.4830 C   0  0  0  0  0  2  0  0  0  0  0  0
  186.3210  174.4090  136.2860 C   0  0  2  0  0  3  0  0  0  0  0  0
  189.0210  173.9710  136.8050 C   0  0  2  0  0  3  0  0  0  0  0  0
  188.2860  173.2950  135.6320 C   0  0  2  0  0  3  0  0  0  0  0  0
  187.0180  175.4530  137.1710 C   0  0  0  0  0  2  0  0  0  0  0  0
  188.5470  175.4110  137.0500 C   0  0  2  0  0  3  0  0  0  0  0  0
  191.3120  174.5330  137.6370 C   0  0  0  0  0  3  0  0  0  0  0  0
  193.3130  173.6070  136.6200 C   0  0  0  0  0  0  0  0  0  0  0  0
  191.1200  173.0060  135.7680 C   0  0  0  0  0  3  0  0  0  0  0  0
  192.5140  172.9000  135.7100 C   0  0  0  0  0  3  0  0  0  0  0  0
  192.7060  174.4240  137.5810 C   0  0  0  0  0  3  0  0  0  0  0  0
  190.5130  173.8220  136.7350 C   0  0  0  0  0  0  0  0  0  0  0  0
  194.8050  173.5220  136.5720 C   0  0  1  0  0  3  0  0  0  0  0  0
  195.4060  174.7940  136.0050 C   0  0  0  0  0  1  0  0  0  0  0  0
  195.3410  173.2720  137.8990 N   0  0  0  0  0  1  0  0  0  0  0  0
  186.4270  177.9030  141.5270 C   0  0  0  0  0  2  0  0  0  0  0  0
  185.2970  178.9240  141.7770 C   0  0  1  0  0  3  0  0  0  0  0  0
  183.6790  178.9230  139.8600 C   0  0  0  0  0  3  0  0  0  0  0  0
  184.7160  179.4720  140.5040 C   0  0  0  0  0  3  0  0  0  0  0  0
  182.9460  177.7160  140.3590 C   0  0  2  0  0  3  0  0  0  0  0  0
  183.0390  176.6010  139.3630 C   0  0  0  0  0  0  0  0  0  0  0  0
  183.8510  176.7490  138.2470 O   0  0  0  0  0  0  0  0  0  0  0  0
  182.3980  175.5270  139.5310 O   0  0  0  0  0  1  0  0  0  0  0  0
  181.4920  178.0830  140.6480 C   0  0  0  0  0  2  0  0  0  0  0  0
  181.3510  179.5210  140.8020 N   0  0  0  0  0  0  0  0  0  0  0  0
  179.9480  179.8280  140.6820 C   0  0  1  0  0  3  0  0  0  0  0  0
  180.5330  179.7140  141.9010 O   0  0  0  0  0  0  0  0  0  0  0  0
  179.7770  181.2060  140.3770 O   0  0  0  0  0  0  0  0  0  0  0  0
  179.3070  181.6570  139.1400 C   0  0  0  0  0  0  0  0  0  0  0  0
  179.1190  180.7830  138.1640 C   0  0  0  0  0  2  0  0  0  0  0  0
  179.0000  183.0950  138.8910 C   0  0  0  0  0  1  0  0  0  0  0  0
  184.2040  178.3440  142.6680 C   0  0  0  0  0  2  0  0  0  0  0  0
  184.6380  178.3380  144.0940 C   0  0  0  0  0  3  0  0  0  0  0  0
  185.1240  179.4450  144.6450 C   0  0  0  0  0  2  0  0  0  0  0  0
  1 37  1  6  0  0  0
  1  2  1  0  0  0  0
  2  3  1  0  0  0  0
  3  5  1  0  0  0  0
  5  9  2  0  0  0  0
  5  6  1  0  0  0  0
  6  8  1  0  0  0  0
  7  4  1  0  0  0  0
  8  4  1  0  0  0  0
  8 11  1  1  0  0  0
  9  7  1  0  0  0  0
 10 11  1  0  0  0  0
 12  1  1  0  0  0  0
 13 12  1  0  0  0  0
 14 13  1  0  0  0  0
 15 14  1  0  0  0  0
 16 15  1  0  0  0  0
 17 16  1  0  0  0  0
 19 18  1  0  0  0  0
 20 25  1  0  0  0  0
 20 23  1  0  0  0  0
 22 21  1  0  0  0  0
 22 19  1  0  0  0  0
 23 18  1  1  0  0  0
 23 26  1  0  0  0  0
 24 33  1  6  0  0  0
 24 27  1  0  0  0  0
 25 21  1  1  0  0  0
 25 24  1  0  0  0  0
 27 17  1  6  0  0  0
 27 26  1  0  0  0  0
 29 32  2  0  0  0  0
 30 33  1  0  0  0  0
 31 30  2  0  0  0  0
 31 29  1  0  0  0  0
 32 28  1  0  0  0  0
 33 28  2  0  0  0  0
 34 35  1  1  0  0  0
 34 29  1  0  0  0  0
 34 36  1  0  0  0  0
 37 38  1  0  0  0  0
 38 40  1  6  0  0  0
 38 53  1  0  0  0  0
 39 40  2  0  0  0  0
 41 39  1  6  0  0  0
 41 45  1  0  0  0  0
 42 44  1  0  0  0  0
 42 41  1  0  0  0  0
 43 42  2  0  0  0  0
 45 46  1  0  0  0  0
 46 48  1  0  0  0  0
 47 49  1  6  0  0  0
 47 46  1  0  0  0  0
 47 48  1  0  0  0  0
 50 49  1  0  0  0  0
 51 50  2  0  0  0  0
 52 50  1  0  0  0  0
 53 54  1  0  0  0  0
 54 55  2  0  0  0  0
M  END
>  <MODEL>
6

>  <REMARK>
 VINA RESULT:      -6.0      3.213      9.676
  Name = 
  24 active torsions:
  status: ('A' for Active; 'I' for Inactive)
    1  A    between atoms: C_1  and  C_53
    2  A    between atoms: N_3  and  C_38
    3  A    between atoms: C_4  and  O_35
    4  A    between atoms: C_4  and  C_37
    5  A    between atoms: C_5  and  C_37
    6  A    between atoms: C_5  and  O_40
    7  A    between atoms: C_6  and  C_53
    8  A    between atoms: C_7  and  C_20
    9  A    between atoms: C_8  and  C_22
   10  A    between atoms: C_8  and  C_43
   11  A    between atoms: C_10  and  C_32
   12  A    between atoms: C_11  and  O_50
   13  A    between atoms: C_12  and  O_50
   14  A    between atoms: C_19  and  O_40
   15  A    between atoms: C_19  and  C_49
   16  A    between atoms: C_20  and  C_22
   17  A    between atoms: C_22  and  C_46
   18  A    between atoms: C_27  and  C_54
   19  A    between atoms: O_28  and  C_44
   20  A    between atoms: C_33  and  C_52
   21  A    between atoms: O_35  and  C_43
   22  A    between atoms: C_38  and  C_53
   23  A    between atoms: C_43  and  C_51
   24  A    between atoms: C_51  and  C_54
                            x       y       z     vdW  Elec       q    Type
                         _______ _______ _______ _____ _____    ______ ____

>  <TORSDO>
F 24

$$$$
=
 OpenBabel10262420183D

 55 59  0  0  1  0  0  0  0  0999 V2000
  182.9590  178.5220  139.6390 C   0  0  1  0  0  3  0  0  0  0  0  0
  182.3560  179.3310  138.4920 C   0  0  0  0  0  2  0  0  0  0  0  0
  182.2180  180.7920  138.8780 C   0  0  0  0  0  2  0  0  0  0  0  0
  179.6320  182.9820  136.1950 C   0  0  0  0  0  2  0  0  0  0  0  0
  181.5020  181.5390  137.8040 C   0  0  0  0  0  0  0  0  0  0  0  0
  181.4870  183.0470  137.8710 C   0  0  0  0  0  2  0  0  0  0  0  0
  179.9810  181.5460  135.8230 C   0  0  0  0  0  2  0  0  0  0  0  0
  180.9070  183.7040  136.6170 C   0  0  2  0  0  3  0  0  0  0  0  0
  180.7450  180.8610  136.9260 C   0  0  0  0  0  3  0  0  0  0  0  0
  179.4360  185.2450  136.3490 O   0  0  0  0  0  1  0  0  0  0  0  0
  180.6240  185.0440  136.8800 O   0  0  0  0  0  0  0  0  0  0  0  0
  183.4500  179.3780  140.6310 O   0  0  0  0  0  0  0  0  0  0  0  0
  184.0470  178.5490  141.5860 C   0  0  0  0  0  2  0  0  0  0  0  0
  184.9330  179.3620  142.5240 C   0  0  0  0  0  2  0  0  0  0  0  0
  185.3280  178.5610  143.7520 C   0  0  0  0  0  2  0  0  0  0  0  0
  185.9110  177.3560  143.3570 O   0  0  0  0  0  0  0  0  0  0  0  0
  186.6540  176.9380  144.4580 C   0  0  0  0  0  2  0  0  0  0  0  0
  189.7190  178.2620  147.6610 C   0  0  0  0  0  2  0  0  0  0  0  0
  190.9820  177.4860  148.0510 C   0  0  0  0  0  2  0  0  0  0  0  0
  189.0220  176.2770  146.3480 O   0  0  0  0  0  0  0  0  0  0  0  0
  191.1870  177.1220  145.5150 C   0  0  0  0  0  2  0  0  0  0  0  0
  191.6190  176.6700  146.9110 C   0  0  0  0  0  2  0  0  0  0  0  0
  188.5820  177.3620  147.1550 C   0  0  2  0  0  3  0  0  0  0  0  0
  189.0170  177.8780  144.4540 C   0  0  2  0  0  3  0  0  0  0  0  0
  189.7320  176.7370  145.2010 C   0  0  2  0  0  3  0  0  0  0  0  0
  187.5100  178.2020  146.4450 C   0  0  0  0  0  2  0  0  0  0  0  0
  187.5660  178.0720  144.9170 C   0  0  2  0  0  3  0  0  0  0  0  0
  190.0410  176.8480  142.4170 C   0  0  0  0  0  3  0  0  0  0  0  0
  189.5460  177.6510  140.1810 C   0  0  0  0  0  0  0  0  0  0  0  0
  188.5020  178.6920  142.1110 C   0  0  0  0  0  3  0  0  0  0  0  0
  188.6860  178.6160  140.7270 C   0  0  0  0  0  3  0  0  0  0  0  0
  190.2230  176.7700  141.0320 C   0  0  0  0  0  3  0  0  0  0  0  0
  189.1780  177.8040  142.9630 C   0  0  0  0  0  0  0  0  0  0  0  0
  189.7700  177.5580  138.7060 C   0  0  1  0  0  3  0  0  0  0  0  0
  189.1420  176.3000  138.1360 C   0  0  0  0  0  1  0  0  0  0  0  0
  189.2270  178.7280  138.0360 N   0  0  0  0  0  1  0  0  0  0  0  0
  181.9480  177.5360  140.2490 C   0  0  0  0  0  2  0  0  0  0  0  0
  180.4560  177.7910  139.9500 C   0  0  1  0  0  3  0  0  0  0  0  0
  179.6740  175.6250  138.9530 C   0  0  0  0  0  3  0  0  0  0  0  0
  179.6410  176.5270  139.9410 C   0  0  0  0  0  3  0  0  0  0  0  0
  180.5620  175.7500  137.7530 C   0  0  2  0  0  3  0  0  0  0  0  0
  179.8390  175.3020  136.5200 C   0  0  0  0  0  0  0  0  0  0  0  0
  179.5730  176.2200  135.5140 O   0  0  0  0  0  0  0  0  0  0  0  0
  179.4790  174.1000  136.3810 O   0  0  0  0  0  1  0  0  0  0  0  0
  181.8380  174.9410  137.9750 C   0  0  0  0  0  2  0  0  0  0  0  0
  182.7380  175.0900  136.8440 N   0  0  0  0  0  0  0  0  0  0  0  0
  184.0160  175.5060  137.3670 C   0  0  1  0  0  3  0  0  0  0  0  0
  183.7800  174.2050  137.0590 O   0  0  0  0  0  0  0  0  0  0  0  0
  184.7950  176.0920  136.3320 O   0  0  0  0  0  0  0  0  0  0  0  0
  185.7030  177.1300  136.5620 C   0  0  0  0  0  0  0  0  0  0  0  0
  186.5330  177.4870  135.5950 C   0  0  0  0  0  2  0  0  0  0  0  0
  185.7550  177.8560  137.8640 C   0  0  0  0  0  1  0  0  0  0  0  0
  179.8580  178.8160  140.9080 C   0  0  0  0  0  2  0  0  0  0  0  0
  179.8660  178.2950  142.3040 C   0  0  0  0  0  3  0  0  0  0  0  0
  180.5450  178.9380  143.2480 C   0  0  0  0  0  2  0  0  0  0  0  0
  1  2  1  6  0  0  0
  1 37  1  0  0  0  0
  1 12  1  0  0  0  0
  2  3  1  0  0  0  0
  4  8  1  0  0  0  0
  5  6  1  0  0  0  0
  5  3  1  0  0  0  0
  7  4  1  0  0  0  0
  7  9  1  0  0  0  0
  8 11  1  1  0  0  0
  8  6  1  0  0  0  0
  9  5  2  0  0  0  0
 10 11  1  0  0  0  0
 12 13  1  0  0  0  0
 13 14  1  0  0  0  0
 14 15  1  0  0  0  0
 16 15  1  0  0  0  0
 16 17  1  0  0  0  0
 18 19  1  0  0  0  0
 20 23  1  0  0  0  0
 21 22  1  0  0  0  0
 22 19  1  0  0  0  0
 23 26  1  6  0  0  0
 23 18  1  0  0  0  0
 24 33  1  6  0  0  0
 24 27  1  0  0  0  0
 24 25  1  0  0  0  0
 25 21  1  1  0  0  0
 25 20  1  0  0  0  0
 27 17  1  1  0  0  0
 27 26  1  0  0  0  0
 28 33  1  0  0  0  0
 29 31  2  0  0  0  0
 29 32  1  0  0  0  0
 30 33  2  0  0  0  0
 31 30  1  0  0  0  0
 32 28  2  0  0  0  0
 34 35  1  6  0  0  0
 34 29  1  0  0  0  0
 36 34  1  0  0  0  0
 38 40  1  1  0  0  0
 38 37  1  0  0  0  0
 38 53  1  0  0  0  0
 39 40  2  0  0  0  0
 41 45  1  1  0  0  0
 41 39  1  0  0  0  0
 42 41  1  0  0  0  0
 43 42  2  0  0  0  0
 44 42  1  0  0  0  0
 46 48  1  0  0  0  0
 46 47  1  0  0  0  0
 46 45  1  0  0  0  0
 47 49  1  6  0  0  0
 48 47  1  0  0  0  0
 49 50  1  0  0  0  0
 50 52  1  0  0  0  0
 51 50  2  0  0  0  0
 53 54  1  0  0  0  0
 54 55  2  0  0  0  0
M  END
>  <MODEL>
7

>  <REMARK>
 VINA RESULT:      -5.9      2.627      9.211
  Name = 
  24 active torsions:
  status: ('A' for Active; 'I' for Inactive)
    1  A    between atoms: C_1  and  C_53
    2  A    between atoms: N_3  and  C_38
    3  A    between atoms: C_4  and  O_35
    4  A    between atoms: C_4  and  C_37
    5  A    between atoms: C_5  and  C_37
    6  A    between atoms: C_5  and  O_40
    7  A    between atoms: C_6  and  C_53
    8  A    between atoms: C_7  and  C_20
    9  A    between atoms: C_8  and  C_22
   10  A    between atoms: C_8  and  C_43
   11  A    between atoms: C_10  and  C_32
   12  A    between atoms: C_11  and  O_50
   13  A    between atoms: C_12  and  O_50
   14  A    between atoms: C_19  and  O_40
   15  A    between atoms: C_19  and  C_49
   16  A    between atoms: C_20  and  C_22
   17  A    between atoms: C_22  and  C_46
   18  A    between atoms: C_27  and  C_54
   19  A    between atoms: O_28  and  C_44
   20  A    between atoms: C_33  and  C_52
   21  A    between atoms: O_35  and  C_43
   22  A    between atoms: C_38  and  C_53
   23  A    between atoms: C_43  and  C_51
   24  A    between atoms: C_51  and  C_54
                            x       y       z     vdW  Elec       q    Type
                         _______ _______ _______ _____ _____    ______ ____

>  <TORSDO>
F 24

$$$$
=
 OpenBabel10262420183D

 55 59  0  0  1  0  0  0  0  0999 V2000
  189.0840  177.5780  139.6920 C   0  0  1  0  0  3  0  0  0  0  0  0
  190.3160  177.7590  138.8080 C   0  0  0  0  0  2  0  0  0  0  0  0
  191.4070  176.7800  139.1990 C   0  0  0  0  0  2  0  0  0  0  0  0
  192.9070  174.1020  136.1550 C   0  0  0  0  0  2  0  0  0  0  0  0
  191.8660  176.0210  138.0000 C   0  0  0  0  0  0  0  0  0  0  0  0
  190.9330  174.9930  137.4050 C   0  0  0  0  0  2  0  0  0  0  0  0
  193.6830  175.3890  136.4070 C   0  0  0  0  0  2  0  0  0  0  0  0
  191.4220  174.4330  136.0680 C   0  0  2  0  0  3  0  0  0  0  0  0
  193.1430  176.1340  137.6000 C   0  0  0  0  0  3  0  0  0  0  0  0
  191.3250  172.7700  134.7130 O   0  0  0  0  0  1  0  0  0  0  0  0
  190.7010  173.2820  135.7530 O   0  0  0  0  0  0  0  0  0  0  0  0
  188.0460  176.9870  138.9630 O   0  0  0  0  0  0  0  0  0  0  0  0
  188.1650  177.4850  137.6620 C   0  0  0  0  0  2  0  0  0  0  0  0
  187.0480  178.4800  137.3630 C   0  0  0  0  0  2  0  0  0  0  0  0
  185.8350  178.2370  138.2430 C   0  0  0  0  0  2  0  0  0  0  0  0
  184.7380  177.9060  137.4460 O   0  0  0  0  0  0  0  0  0  0  0  0
  183.6690  178.6070  137.9980 C   0  0  0  0  0  2  0  0  0  0  0  0
  180.3070  175.7360  139.3630 C   0  0  0  0  0  2  0  0  0  0  0  0
  179.4920  175.8780  140.6520 C   0  0  0  0  0  2  0  0  0  0  0  0
  181.7930  177.5280  140.2190 O   0  0  0  0  0  0  0  0  0  0  0  0
  179.4800  178.3700  140.0220 C   0  0  0  0  0  2  0  0  0  0  0  0
  179.2710  177.3270  141.1220 C   0  0  0  0  0  2  0  0  0  0  0  0
  181.7230  176.3220  139.4680 C   0  0  2  0  0  3  0  0  0  0  0  0
  181.1310  178.6900  138.1310 C   0  0  2  0  0  3  0  0  0  0  0  0
  180.9630  178.5400  139.6540 C   0  0  2  0  0  3  0  0  0  0  0  0
  182.3420  176.4840  138.0720 C   0  0  0  0  0  2  0  0  0  0  0  0
  182.3580  177.9410  137.5920 C   0  0  2  0  0  3  0  0  0  0  0  0
  180.7130  180.3660  136.3210 C   0  0  0  0  0  3  0  0  0  0  0  0
  180.8620  182.7560  136.7210 C   0  0  0  0  0  0  0  0  0  0  0  0
  181.2680  181.1880  138.5300 C   0  0  0  0  0  3  0  0  0  0  0  0
  181.1860  182.5030  138.0630 C   0  0  0  0  0  3  0  0  0  0  0  0
  180.6280  181.6830  135.8540 C   0  0  0  0  0  3  0  0  0  0  0  0
  181.0280  180.1130  137.6600 C   0  0  0  0  0  0  0  0  0  0  0  0
  180.7820  184.1520  136.1930 C   0  0  1  0  0  3  0  0  0  0  0  0
  179.9570  184.2080  134.9210 C   0  0  0  0  0  1  0  0  0  0  0  0
  180.2100  185.0400  137.1920 N   0  0  0  0  0  1  0  0  0  0  0  0
  189.3870  176.7400  140.9460 C   0  0  0  0  0  2  0  0  0  0  0  0
  188.9070  177.3060  142.2990 C   0  0  1  0  0  3  0  0  0  0  0  0
  190.4550  178.7870  143.6060 C   0  0  0  0  0  3  0  0  0  0  0  0
  189.5470  178.6240  142.6360 C   0  0  0  0  0  3  0  0  0  0  0  0
  190.9730  177.6610  144.4460 C   0  0  2  0  0  3  0  0  0  0  0  0
  191.6540  176.6390  143.5880 C   0  0  0  0  0  0  0  0  0  0  0  0
  192.4260  177.0580  142.5130 O   0  0  0  0  0  0  0  0  0  0  0  0
  191.5440  175.4070  143.8360 O   0  0  0  0  0  1  0  0  0  0  0  0
  189.8220  177.0430  145.2380 C   0  0  0  0  0  2  0  0  0  0  0  0
  189.0820  178.0720  145.9480 N   0  0  0  0  0  0  0  0  0  0  0  0
  187.7110  177.6330  146.0310 C   0  0  1  0  0  3  0  0  0  0  0  0
  188.5600  177.4650  147.0760 O   0  0  0  0  0  0  0  0  0  0  0  0
  186.8620  178.7420  146.2960 O   0  0  0  0  0  0  0  0  0  0  0  0
  185.4800  178.7050  146.0920 C   0  0  0  0  0  0  0  0  0  0  0  0
  184.9590  179.3860  145.0840 C   0  0  0  0  0  2  0  0  0  0  0  0
  184.5750  177.9100  146.9710 C   0  0  0  0  0  1  0  0  0  0  0  0
  187.3870  177.4090  142.3570 C   0  0  0  0  0  2  0  0  0  0  0  0
  186.9330  178.7430  141.8730 C   0  0  0  0  0  3  0  0  0  0  0  0
  185.6350  178.9900  141.7290 C   0  0  0  0  0  2  0  0  0  0  0  0
  1  2  1  6  0  0  0
  1 37  1  0  0  0  0
  2  3  1  0  0  0  0
  4  7  1  0  0  0  0
  5  3  1  0  0  0  0
  6  5  1  0  0  0  0
  7  9  1  0  0  0  0
  8 11  1  1  0  0  0
  8  4  1  0  0  0  0
  8  6  1  0  0  0  0
  9  5  2  0  0  0  0
 10 11  1  0  0  0  0
 12  1  1  0  0  0  0
 13 12  1  0  0  0  0
 14 13  1  0  0  0  0
 14 15  1  0  0  0  0
 16 17  1  0  0  0  0
 16 15  1  0  0  0  0
 18 23  1  0  0  0  0
 18 19  1  0  0  0  0
 19 22  1  0  0  0  0
 21 22  1  0  0  0  0
 23 26  1  6  0  0  0
 23 20  1  0  0  0  0
 24 33  1  1  0  0  0
 24 25  1  0  0  0  0
 25 21  1  6  0  0  0
 25 20  1  0  0  0  0
 27 17  1  1  0  0  0
 27 26  1  0  0  0  0
 27 24  1  0  0  0  0
 28 33  1  0  0  0  0
 29 31  2  0  0  0  0
 31 30  1  0  0  0  0
 32 28  2  0  0  0  0
 32 29  1  0  0  0  0
 33 30  2  0  0  0  0
 34 35  1  6  0  0  0
 34 29  1  0  0  0  0
 34 36  1  0  0  0  0
 38 37  1  6  0  0  0
 38 53  1  0  0  0  0
 38 40  1  0  0  0  0
 40 39  2  0  0  0  0
 41 39  1  6  0  0  0
 41 45  1  0  0  0  0
 42 44  1  0  0  0  0
 42 41  1  0  0  0  0
 43 42  2  0  0  0  0
 45 46  1  0  0  0  0
 46 47  1  0  0  0  0
 46 48  1  0  0  0  0
 47 49  1  1  0  0  0
 47 48  1  0  0  0  0
 50 49  1  0  0  0  0
 50 52  1  0  0  0  0
 51 50  2  0  0  0  0
 54 53  1  0  0  0  0
 55 54  2  0  0  0  0
M  END
>  <MODEL>
8

>  <REMARK>
 VINA RESULT:      -5.8      2.307      6.758
  Name = 
  24 active torsions:
  status: ('A' for Active; 'I' for Inactive)
    1  A    between atoms: C_1  and  C_53
    2  A    between atoms: N_3  and  C_38
    3  A    between atoms: C_4  and  O_35
    4  A    between atoms: C_4  and  C_37
    5  A    between atoms: C_5  and  C_37
    6  A    between atoms: C_5  and  O_40
    7  A    between atoms: C_6  and  C_53
    8  A    between atoms: C_7  and  C_20
    9  A    between atoms: C_8  and  C_22
   10  A    between atoms: C_8  and  C_43
   11  A    between atoms: C_10  and  C_32
   12  A    between atoms: C_11  and  O_50
   13  A    between atoms: C_12  and  O_50
   14  A    between atoms: C_19  and  O_40
   15  A    between atoms: C_19  and  C_49
   16  A    between atoms: C_20  and  C_22
   17  A    between atoms: C_22  and  C_46
   18  A    between atoms: C_27  and  C_54
   19  A    between atoms: O_28  and  C_44
   20  A    between atoms: C_33  and  C_52
   21  A    between atoms: O_35  and  C_43
   22  A    between atoms: C_38  and  C_53
   23  A    between atoms: C_43  and  C_51
   24  A    between atoms: C_51  and  C_54
                            x       y       z     vdW  Elec       q    Type
                         _______ _______ _______ _____ _____    ______ ____

>  <TORSDO>
F 24

$$$$
=
 OpenBabel10262420183D

 55 59  0  0  1  0  0  0  0  0999 V2000
  184.1880  176.8350  137.2000 C   0  0  1  0  0  3  0  0  0  0  0  0
  183.8450  175.9380  136.0130 C   0  0  0  0  0  2  0  0  0  0  0  0
  182.9540  174.7890  136.4470 C   0  0  0  0  0  2  0  0  0  0  0  0
  185.1300  171.1270  135.7100 C   0  0  0  0  0  2  0  0  0  0  0  0
  183.7210  173.5100  136.4210 C   0  0  0  0  0  0  0  0  0  0  0  0
  185.2140  173.5770  136.2060 C   0  0  0  0  0  2  0  0  0  0  0  0
  183.7590  171.0130  136.3640 C   0  0  0  0  0  2  0  0  0  0  0  0
  185.9160  172.2330  136.4050 C   0  0  2  0  0  3  0  0  0  0  0  0
  183.0540  172.3450  136.4030 C   0  0  0  0  0  3  0  0  0  0  0  0
  187.2140  173.3900  135.1460 O   0  0  0  0  0  1  0  0  0  0  0  0
  187.2060  172.2970  135.8790 O   0  0  0  0  0  0  0  0  0  0  0  0
  185.3490  177.5690  136.9330 O   0  0  0  0  0  0  0  0  0  0  0  0
  185.8130  177.1090  135.6970 C   0  0  0  0  0  2  0  0  0  0  0  0
  186.8530  178.0660  135.1240 C   0  0  0  0  0  2  0  0  0  0  0  0
  187.6410  178.7570  136.2240 C   0  0  0  0  0  2  0  0  0  0  0  0
  188.9210  178.2050  136.3000 O   0  0  0  0  0  0  0  0  0  0  0  0
  189.1240  177.9570  137.6550 C   0  0  0  0  0  2  0  0  0  0  0  0
  191.3180  174.1470  136.2130 C   0  0  0  0  0  2  0  0  0  0  0  0
  192.8360  174.0000  136.0750 C   0  0  0  0  0  2  0  0  0  0  0  0
  191.6830  176.5720  136.5850 O   0  0  0  0  0  0  0  0  0  0  0  0
  192.8670  175.2640  138.3120 C   0  0  0  0  0  2  0  0  0  0  0  0
  193.6610  174.8220  137.0810 C   0  0  0  0  0  2  0  0  0  0  0  0
  190.8240  175.5890  136.0200 C   0  0  2  0  0  3  0  0  0  0  0  0
  190.5280  176.1330  138.7350 C   0  0  2  0  0  3  0  0  0  0  0  0
  191.8530  176.3710  137.9860 C   0  0  2  0  0  3  0  0  0  0  0  0
  189.3820  175.7340  136.5290 C   0  0  0  0  0  2  0  0  0  0  0  0
  189.2960  176.4580  137.8790 C   0  0  2  0  0  3  0  0  0  0  0  0
  191.6850  177.2650  140.6420 C   0  0  0  0  0  3  0  0  0  0  0  0
  190.5130  177.8750  142.6790 C   0  0  0  0  0  0  0  0  0  0  0  0
  189.3210  176.7900  140.8620 C   0  0  0  0  0  3  0  0  0  0  0  0
  189.3270  177.3500  142.1440 C   0  0  0  0  0  3  0  0  0  0  0  0
  191.6910  177.8280  141.9230 C   0  0  0  0  0  3  0  0  0  0  0  0
  190.5020  176.7490  140.1040 C   0  0  0  0  0  0  0  0  0  0  0  0
  190.5500  178.4660  144.0510 C   0  0  1  0  0  3  0  0  0  0  0  0
  191.1720  177.5040  145.0440 C   0  0  0  0  0  1  0  0  0  0  0  0
  191.2920  179.7170  144.0440 N   0  0  0  0  0  1  0  0  0  0  0  0
  183.0350  177.7890  137.5590 C   0  0  0  0  0  2  0  0  0  0  0  0
  182.0180  177.2920  138.6080 C   0  0  1  0  0  3  0  0  0  0  0  0
  183.3220  177.2510  140.7510 C   0  0  0  0  0  3  0  0  0  0  0  0
  182.6730  176.6060  139.7740 C   0  0  0  0  0  3  0  0  0  0  0  0
  183.4360  178.7430  140.8180 C   0  0  2  0  0  3  0  0  0  0  0  0
  184.6470  179.2080  140.0700 C   0  0  0  0  0  0  0  0  0  0  0  0
  185.8770  178.6190  140.3300 O   0  0  0  0  0  1  0  0  0  0  0  0
  184.5620  180.1190  139.2000 O   0  0  0  0  0  0  0  0  0  0  0  0
  183.4800  179.1880  142.2780 C   0  0  0  0  0  2  0  0  0  0  0  0
  184.2340  178.2380  143.0780 N   0  0  0  0  0  0  0  0  0  0  0  0
  184.9800  178.9960  144.0510 C   0  0  1  0  0  3  0  0  0  0  0  0
  183.8050  178.4030  144.3820 O   0  0  0  0  0  0  0  0  0  0  0  0
  186.0540  178.2130  144.5570 O   0  0  0  0  0  0  0  0  0  0  0  0
  186.4350  178.2260  145.9010 C   0  0  0  0  0  0  0  0  0  0  0  0
  187.4980  177.5330  146.2770 C   0  0  0  0  0  2  0  0  0  0  0  0
  185.6830  179.0080  146.9250 C   0  0  0  0  0  1  0  0  0  0  0  0
  181.1060  178.4180  139.0820 C   0  0  0  0  0  2  0  0  0  0  0  0
  180.3640  179.0120  137.9340 C   0  0  0  0  0  3  0  0  0  0  0  0
  179.8230  180.2210  138.0470 C   0  0  0  0  0  2  0  0  0  0  0  0
  1  2  1  6  0  0  0
  1 37  1  0  0  0  0
  2  3  1  0  0  0  0
  4  7  1  0  0  0  0
  4  8  1  0  0  0  0
  5  3  1  0  0  0  0
  6  8  1  0  0  0  0
  6  5  1  0  0  0  0
  7  9  1  0  0  0  0
  8 11  1  6  0  0  0
  9  5  2  0  0  0  0
 10 11  1  0  0  0  0
 12  1  1  0  0  0  0
 13 12  1  0  0  0  0
 14 13  1  0  0  0  0
 14 15  1  0  0  0  0
 15 16  1  0  0  0  0
 16 17  1  0  0  0  0
 19 18  1  0  0  0  0
 19 22  1  0  0  0  0
 20 25  1  0  0  0  0
 22 21  1  0  0  0  0
 23 18  1  1  0  0  0
 23 26  1  0  0  0  0
 23 20  1  0  0  0  0
 24 33  1  1  0  0  0
 25 21  1  6  0  0  0
 25 24  1  0  0  0  0
 26 27  1  0  0  0  0
 27 17  1  6  0  0  0
 27 24  1  0  0  0  0
 28 32  1  0  0  0  0
 29 34  1  0  0  0  0
 30 31  2  0  0  0  0
 31 29  1  0  0  0  0
 32 29  2  0  0  0  0
 33 28  2  0  0  0  0
 33 30  1  0  0  0  0
 34 35  1  1  0  0  0
 36 34  1  0  0  0  0
 38 37  1  6  0  0  0
 38 53  1  0  0  0  0
 38 40  1  0  0  0  0
 40 39  2  0  0  0  0
 41 39  1  1  0  0  0
 41 45  1  0  0  0  0
 42 43  1  0  0  0  0
 42 41  1  0  0  0  0
 44 42  2  0  0  0  0
 45 46  1  0  0  0  0
 46 47  1  0  0  0  0
 46 48  1  0  0  0  0
 47 48  1  0  0  0  0
 47 49  1  1  0  0  0
 49 50  1  0  0  0  0
 50 51  2  0  0  0  0
 50 52  1  0  0  0  0
 54 55  2  0  0  0  0
 54 53  1  0  0  0  0
M  END
>  <MODEL>
9

>  <REMARK>
 VINA RESULT:      -5.8      3.061      9.753
  Name = 
  24 active torsions:
  status: ('A' for Active; 'I' for Inactive)
    1  A    between atoms: C_1  and  C_53
    2  A    between atoms: N_3  and  C_38
    3  A    between atoms: C_4  and  O_35
    4  A    between atoms: C_4  and  C_37
    5  A    between atoms: C_5  and  C_37
    6  A    between atoms: C_5  and  O_40
    7  A    between atoms: C_6  and  C_53
    8  A    between atoms: C_7  and  C_20
    9  A    between atoms: C_8  and  C_22
   10  A    between atoms: C_8  and  C_43
   11  A    between atoms: C_10  and  C_32
   12  A    between atoms: C_11  and  O_50
   13  A    between atoms: C_12  and  O_50
   14  A    between atoms: C_19  and  O_40
   15  A    between atoms: C_19  and  C_49
   16  A    between atoms: C_20  and  C_22
   17  A    between atoms: C_22  and  C_46
   18  A    between atoms: C_27  and  C_54
   19  A    between atoms: O_28  and  C_44
   20  A    between atoms: C_33  and  C_52
   21  A    between atoms: O_35  and  C_43
   22  A    between atoms: C_38  and  C_53
   23  A    between atoms: C_43  and  C_51
   24  A    between atoms: C_51  and  C_54
                            x       y       z     vdW  Elec       q    Type
                         _______ _______ _______ _____ _____    ______ ____

>  <TORSDO>
F 24

$$$$
