=
 OpenBabel10262421493D

 30 33  0  0  1  0  0  0  0  0999 V2000
  190.9960  177.1860  144.6330 C   0  0  2  0  0  3  0  0  0  0  0  0
  191.5990  177.1670  146.0350 C   0  0  0  0  0  2  0  0  0  0  0  0
  191.7490  178.2100  143.8000 C   0  0  0  0  0  1  0  0  0  0  0  0
  188.7770  177.2320  145.7660 C   0  0  0  0  0  0  0  0  0  0  0  0
  190.7470  176.2860  146.9290 C   0  0  0  0  0  2  0  0  0  0  0  0
  189.5050  177.4660  144.6450 C   0  0  0  0  0  0  0  0  0  0  0  0
  189.4050  176.7650  146.9280 O   0  0  0  0  0  0  0  0  0  0  0  0
  185.4660  179.0570  146.5270 C   0  0  0  0  0  3  0  0  0  0  0  0
  184.8060  178.7790  145.3990 C   0  0  0  0  0  3  0  0  0  0  0  0
  186.9230  178.7190  146.6730 C   0  0  1  0  0  3  0  0  0  0  0  0
  186.6470  177.4700  144.4880 C   0  0  0  0  0  3  0  0  0  0  0  0
  187.3070  178.4780  148.3940 Cl  0  0  0  0  0  0  0  0  0  0  0  0
  185.4640  178.0590  144.2850 C   0  0  0  0  0  0  0  0  0  0  0  0
  187.2910  177.4710  145.8510 C   0  0  1  0  0  3  0  0  0  0  0  0
  185.9170  179.7490  141.9240 O   0  0  0  0  0  0  0  0  0  0  0  0
  185.0620  178.8260  141.8780 C   0  0  0  0  0  0  0  0  0  0  0  0
  184.8540  177.9500  142.9930 N   0  0  0  0  0  2  0  0  0  0  0  0
  184.2930  178.6450  140.6960 N   0  0  0  0  0  1  0  0  0  0  0  0
  188.8340  177.8500  143.3570 C   0  0  0  0  0  2  0  0  0  0  0  0
  188.9110  176.7080  142.3630 C   0  0  0  0  0  2  0  0  0  0  0  0
  188.2590  177.0730  141.1860 O   0  0  0  0  0  0  0  0  0  0  0  0
  189.0970  178.0190  140.5930 C   0  0  2  0  0  3  0  0  0  0  0  0
  188.3390  178.8910  139.8110 O   0  0  0  0  0  1  0  0  0  0  0  0
  192.1290  176.6330  138.9940 C   0  0  0  0  0  2  0  0  0  0  0  0
  190.1210  177.3420  139.7440 C   0  0  0  0  0  0  0  0  0  0  0  0
  191.0070  176.0900  138.1400 C   0  0  2  0  0  0  0  0  0  0  0  0
  189.7860  176.5650  138.6480 O   0  0  0  0  0  0  0  0  0  0  0  0
  191.3930  177.4120  139.9850 N   0  0  0  0  0  0  0  0  0  0  0  0
  191.0200  174.6830  138.1580 O   0  0  0  0  0  0  0  0  0  0  0  0
  191.0940  175.3020  136.8950 C   0  0  0  0  0  2  0  0  0  0  0  0
  1  3  1  6  0  0  0
  1  6  1  0  0  0  0
  1  2  1  0  0  0  0
  2  5  1  0  0  0  0
  4  7  1  0  0  0  0
  6  4  2  0  0  0  0
  7  5  1  0  0  0  0
  8 10  1  0  0  0  0
  9  8  2  0  0  0  0
 10 12  1  1  0  0  0
 11 14  1  0  0  0  0
 13 11  2  0  0  0  0
 13  9  1  0  0  0  0
 14  4  1  6  0  0  0
 14 10  1  0  0  0  0
 16 15  2  0  0  0  0
 16 17  1  0  0  0  0
 17 13  1  0  0  0  0
 18 16  1  0  0  0  0
 19  6  1  0  0  0  0
 20 19  1  0  0  0  0
 21 20  1  0  0  0  0
 22 23  1  6  0  0  0
 22 21  1  0  0  0  0
 24 28  1  0  0  0  0
 25 28  2  0  0  0  0
 25 22  1  0  0  0  0
 26 30  1  6  0  0  0
 26 29  1  0  0  0  0
 26 27  1  0  0  0  0
 26 24  1  0  0  0  0
 27 25  1  0  0  0  0
 30 29  1  0  0  0  0
M  END
>  <MODEL>
1

>  <REMARK>
 VINA RESULT:      -8.7      0.000      0.000
  Name = 
  7 active torsions:
  status: ('A' for Active; 'I' for Inactive)
    1  A    between atoms: C_1  and  O_4
    2  A    between atoms: C_1  and  C_5
    3  A    between atoms: O_4  and  C_27
    4  A    between atoms: C_5  and  C_22
    5  A    between atoms: C_8  and  C_27
    6  A    between atoms: N_16  and  C_25
    7  A    between atoms: C_19  and  C_29
                            x       y       z     vdW  Elec       q    Type
                         _______ _______ _______ _____ _____    ______ ____

>  <TORSDO>
F 7

$$$$
=
 OpenBabel10262421493D

 30 33  0  0  1  0  0  0  0  0999 V2000
  189.7570  177.8940  145.2680 C   0  0  2  0  0  3  0  0  0  0  0  0
  191.2650  178.0770  145.1210 C   0  0  0  0  0  2  0  0  0  0  0  0
  189.5010  176.9030  146.3910 C   0  0  0  0  0  1  0  0  0  0  0  0
  189.7060  177.6830  142.7850 C   0  0  0  0  0  0  0  0  0  0  0  0
  191.5440  178.9200  143.8900 C   0  0  0  0  0  2  0  0  0  0  0  0
  189.0960  177.4520  143.9750 C   0  0  0  0  0  0  0  0  0  0  0  0
  190.9650  178.2960  142.7480 O   0  0  0  0  0  0  0  0  0  0  0  0
  188.1300  178.0870  139.2890 C   0  0  0  0  0  3  0  0  0  0  0  0
  188.8300  177.1580  138.6310 C   0  0  0  0  0  3  0  0  0  0  0  0
  188.4890  178.4740  140.6960 C   0  0  1  0  0  3  0  0  0  0  0  0
  190.0830  176.5080  140.6170 C   0  0  0  0  0  3  0  0  0  0  0  0
  187.0400  179.0790  141.5340 Cl  0  0  0  0  0  0  0  0  0  0  0  0
  189.9330  176.4230  139.2910 C   0  0  0  0  0  0  0  0  0  0  0  0
  189.1070  177.2890  141.4600 C   0  0  1  0  0  3  0  0  0  0  0  0
  192.7460  176.9560  138.6290 O   0  0  0  0  0  0  0  0  0  0  0  0
  192.1900  175.9110  138.2010 C   0  0  0  0  0  0  0  0  0  0  0  0
  190.8370  175.5940  138.5490 N   0  0  0  0  0  2  0  0  0  0  0  0
  192.9210  175.0260  137.3620 N   0  0  0  0  0  1  0  0  0  0  0  0
  187.6980  176.9070  144.0310 C   0  0  0  0  0  2  0  0  0  0  0  0
  186.7840  177.8780  144.7520 C   0  0  0  0  0  2  0  0  0  0  0  0
  185.4580  177.6050  144.4150 O   0  0  0  0  0  0  0  0  0  0  0  0
  184.8040  178.8330  144.5200 C   0  0  2  0  0  3  0  0  0  0  0  0
  184.3550  179.0140  145.8290 O   0  0  0  0  0  1  0  0  0  0  0  0
  182.4270  178.6520  141.6930 C   0  0  0  0  0  2  0  0  0  0  0  0
  183.6460  178.8830  143.5800 C   0  0  0  0  0  0  0  0  0  0  0  0
  181.5830  179.1940  142.8230 C   0  0  2  0  0  0  0  0  0  0  0  0
  182.3900  179.3220  143.9660 O   0  0  0  0  0  0  0  0  0  0  0  0
  183.7250  178.4990  142.3440 N   0  0  0  0  0  0  0  0  0  0  0  0
  180.5090  178.3240  143.0870 O   0  0  0  0  0  0  0  0  0  0  0  0
  180.1830  179.6600  142.7860 C   0  0  0  0  0  2  0  0  0  0  0  0
  1  3  1  1  0  0  0
  2  1  1  0  0  0  0
  4  6  2  0  0  0  0
  5  2  1  0  0  0  0
  6 19  1  0  0  0  0
  6  1  1  0  0  0  0
  7  4  1  0  0  0  0
  7  5  1  0  0  0  0
  8 10  1  0  0  0  0
  9  8  2  0  0  0  0
  9 13  1  0  0  0  0
 10 14  1  0  0  0  0
 10 12  1  1  0  0  0
 11 14  1  0  0  0  0
 13 11  2  0  0  0  0
 14  4  1  1  0  0  0
 16 17  1  0  0  0  0
 16 15  2  0  0  0  0
 17 13  1  0  0  0  0
 18 16  1  0  0  0  0
 19 20  1  0  0  0  0
 21 22  1  0  0  0  0
 21 20  1  0  0  0  0
 22 23  1  1  0  0  0
 24 28  1  0  0  0  0
 25 27  1  0  0  0  0
 25 22  1  0  0  0  0
 26 24  1  6  0  0  0
 26 29  1  0  0  0  0
 26 27  1  0  0  0  0
 28 25  2  0  0  0  0
 30 26  1  0  0  0  0
 30 29  1  0  0  0  0
M  END
>  <MODEL>
2

>  <REMARK>
 VINA RESULT:      -8.7      2.811      7.200
  Name = 
  7 active torsions:
  status: ('A' for Active; 'I' for Inactive)
    1  A    between atoms: C_1  and  O_4
    2  A    between atoms: C_1  and  C_5
    3  A    between atoms: O_4  and  C_27
    4  A    between atoms: C_5  and  C_22
    5  A    between atoms: C_8  and  C_27
    6  A    between atoms: N_16  and  C_25
    7  A    between atoms: C_19  and  C_29
                            x       y       z     vdW  Elec       q    Type
                         _______ _______ _______ _____ _____    ______ ____

>  <TORSDO>
F 7

$$$$
=
 OpenBabel10262421493D

 30 33  0  0  1  0  0  0  0  0999 V2000
  189.7030  176.8100  145.4670 C   0  0  2  0  0  3  0  0  0  0  0  0
  189.8780  177.7570  146.6500 C   0  0  0  0  0  2  0  0  0  0  0  0
  190.9000  176.9690  144.5440 C   0  0  0  0  0  1  0  0  0  0  0  0
  187.3600  177.6500  145.3530 C   0  0  0  0  0  0  0  0  0  0  0  0
  188.6120  177.7460  147.4860 C   0  0  0  0  0  2  0  0  0  0  0  0
  188.3970  177.0380  144.7280 C   0  0  0  0  0  0  0  0  0  0  0  0
  187.5020  178.1070  146.6700 O   0  0  0  0  0  0  0  0  0  0  0  0
  183.8920  179.2180  144.7300 C   0  0  0  0  0  3  0  0  0  0  0  0
  183.9630  179.3720  143.4040 C   0  0  0  0  0  3  0  0  0  0  0  0
  185.0960  178.7970  145.5250 C   0  0  1  0  0  3  0  0  0  0  0  0
  186.1900  178.3930  143.2770 C   0  0  0  0  0  3  0  0  0  0  0  0
  184.5670  177.9610  147.0050 Cl  0  0  0  0  0  0  0  0  0  0  0  0
  185.2070  179.0590  142.6630 C   0  0  0  0  0  0  0  0  0  0  0  0
  186.0280  177.8980  144.6920 C   0  0  1  0  0  3  0  0  0  0  0  0
  183.7930  177.9960  140.3160 O   0  0  0  0  0  0  0  0  0  0  0  0
  184.7070  178.8490  140.1630 C   0  0  0  0  0  0  0  0  0  0  0  0
  185.3790  179.4270  141.2890 N   0  0  0  0  0  2  0  0  0  0  0  0
  185.0740  179.2500  138.8500 N   0  0  0  0  0  1  0  0  0  0  0  0
  188.2270  176.4350  143.3630 C   0  0  0  0  0  2  0  0  0  0  0  0
  189.0160  177.2250  142.3380 C   0  0  0  0  0  2  0  0  0  0  0  0
  188.4300  177.0700  141.0820 O   0  0  0  0  0  0  0  0  0  0  0  0
  189.1640  177.9060  140.2410 C   0  0  2  0  0  3  0  0  0  0  0  0
  188.2930  178.6880  139.4810 O   0  0  0  0  0  1  0  0  0  0  0  0
  191.8850  176.1910  138.4170 C   0  0  0  0  0  2  0  0  0  0  0  0
  190.0320  177.0960  139.3360 C   0  0  0  0  0  0  0  0  0  0  0  0
  190.6350  175.6680  137.7480 C   0  0  2  0  0  0  0  0  0  0  0  0
  189.5170  176.2670  138.3540 O   0  0  0  0  0  0  0  0  0  0  0  0
  191.3260  177.0920  139.4200 N   0  0  0  0  0  0  0  0  0  0  0  0
  190.5620  174.2700  137.8790 O   0  0  0  0  0  0  0  0  0  0  0  0
  190.5190  174.7870  136.5700 C   0  0  0  0  0  2  0  0  0  0  0  0
  1  3  1  6  0  0  0
  1  2  1  0  0  0  0
  2  5  1  0  0  0  0
  4  7  1  0  0  0  0
  6  4  2  0  0  0  0
  6  1  1  0  0  0  0
  7  5  1  0  0  0  0
  8 10  1  0  0  0  0
  9  8  2  0  0  0  0
 10 12  1  1  0  0  0
 11 14  1  0  0  0  0
 13 11  2  0  0  0  0
 13  9  1  0  0  0  0
 14  4  1  1  0  0  0
 14 10  1  0  0  0  0
 16 15  2  0  0  0  0
 16 17  1  0  0  0  0
 17 13  1  0  0  0  0
 18 16  1  0  0  0  0
 19  6  1  0  0  0  0
 20 19  1  0  0  0  0
 21 20  1  0  0  0  0
 22 23  1  6  0  0  0
 22 21  1  0  0  0  0
 24 28  1  0  0  0  0
 25 28  2  0  0  0  0
 25 22  1  0  0  0  0
 26 30  1  6  0  0  0
 26 29  1  0  0  0  0
 26 27  1  0  0  0  0
 26 24  1  0  0  0  0
 27 25  1  0  0  0  0
 30 29  1  0  0  0  0
M  END
>  <MODEL>
3

>  <REMARK>
 VINA RESULT:      -8.7      1.376      1.721
  Name = 
  7 active torsions:
  status: ('A' for Active; 'I' for Inactive)
    1  A    between atoms: C_1  and  O_4
    2  A    between atoms: C_1  and  C_5
    3  A    between atoms: O_4  and  C_27
    4  A    between atoms: C_5  and  C_22
    5  A    between atoms: C_8  and  C_27
    6  A    between atoms: N_16  and  C_25
    7  A    between atoms: C_19  and  C_29
                            x       y       z     vdW  Elec       q    Type
                         _______ _______ _______ _____ _____    ______ ____

>  <TORSDO>
F 7

$$$$
=
 OpenBabel10262421493D

 30 33  0  0  1  0  0  0  0  0999 V2000
  191.0470  177.2620  144.7030 C   0  0  2  0  0  3  0  0  0  0  0  0
  191.5840  177.1240  146.1240 C   0  0  0  0  0  2  0  0  0  0  0  0
  191.8340  178.3520  143.9960 C   0  0  0  0  0  1  0  0  0  0  0  0
  188.7780  177.2170  145.7330 C   0  0  0  0  0  0  0  0  0  0  0  0
  190.6940  176.1710  146.9010 C   0  0  0  0  0  2  0  0  0  0  0  0
  189.5560  177.5430  144.6710 C   0  0  0  0  0  0  0  0  0  0  0  0
  189.3530  176.6520  146.8790 O   0  0  0  0  0  0  0  0  0  0  0  0
  185.4380  179.0370  146.3690 C   0  0  0  0  0  3  0  0  0  0  0  0
  184.8130  178.7400  145.2260 C   0  0  0  0  0  3  0  0  0  0  0  0
  186.8920  178.7080  146.5630 C   0  0  1  0  0  3  0  0  0  0  0  0
  186.6860  177.4270  144.3890 C   0  0  0  0  0  3  0  0  0  0  0  0
  187.2250  178.4920  148.2990 Cl  0  0  0  0  0  0  0  0  0  0  0  0
  185.5070  178.0080  144.1420 C   0  0  0  0  0  0  0  0  0  0  0  0
  187.2890  177.4500  145.7700 C   0  0  1  0  0  3  0  0  0  0  0  0
  185.9090  179.7560  141.8140 O   0  0  0  0  0  0  0  0  0  0  0  0
  185.1170  178.7810  141.7350 C   0  0  0  0  0  0  0  0  0  0  0  0
  184.9380  177.8790  142.8340 N   0  0  0  0  0  2  0  0  0  0  0  0
  184.3900  178.5690  140.5320 N   0  0  0  0  0  1  0  0  0  0  0  0
  188.9440  178.0370  143.3910 C   0  0  0  0  0  2  0  0  0  0  0  0
  189.2250  177.0620  142.2650 C   0  0  0  0  0  2  0  0  0  0  0  0
  189.7470  177.7540  141.1720 O   0  0  0  0  0  0  0  0  0  0  0  0
  190.7020  176.8950  140.6290 C   0  0  2  0  0  3  0  0  0  0  0  0
  191.9700  177.4610  140.7590 O   0  0  0  0  0  1  0  0  0  0  0  0
  190.3230  175.6000  137.1860 C   0  0  0  0  0  2  0  0  0  0  0  0
  190.4090  176.6420  139.1870 C   0  0  0  0  0  0  0  0  0  0  0  0
  189.6180  176.9360  137.1340 C   0  0  2  0  0  0  0  0  0  0  0  0
  189.7070  177.5400  138.4000 O   0  0  0  0  0  0  0  0  0  0  0  0
  190.7690  175.5580  138.5750 N   0  0  0  0  0  0  0  0  0  0  0  0
  188.2680  176.7590  136.7790 O   0  0  0  0  0  0  0  0  0  0  0  0
  189.0290  177.6230  135.9690 C   0  0  0  0  0  2  0  0  0  0  0  0
  1  3  1  1  0  0  0
  1  2  1  0  0  0  0
  2  5  1  0  0  0  0
  4  7  1  0  0  0  0
  6  1  1  0  0  0  0
  6  4  2  0  0  0  0
  7  5  1  0  0  0  0
  8 10  1  0  0  0  0
  9  8  2  0  0  0  0
 10 12  1  1  0  0  0
 11 14  1  0  0  0  0
 13 11  2  0  0  0  0
 13  9  1  0  0  0  0
 14  4  1  6  0  0  0
 14 10  1  0  0  0  0
 16 15  2  0  0  0  0
 16 17  1  0  0  0  0
 17 13  1  0  0  0  0
 18 16  1  0  0  0  0
 19  6  1  0  0  0  0
 20 19  1  0  0  0  0
 21 20  1  0  0  0  0
 22 23  1  6  0  0  0
 22 21  1  0  0  0  0
 24 28  1  0  0  0  0
 25 22  1  0  0  0  0
 26 30  1  6  0  0  0
 26 24  1  0  0  0  0
 26 27  1  0  0  0  0
 27 25  1  0  0  0  0
 28 25  2  0  0  0  0
 29 26  1  0  0  0  0
 30 29  1  0  0  0  0
M  END
>  <MODEL>
4

>  <REMARK>
 VINA RESULT:      -8.6      1.200      1.490
  Name = 
  7 active torsions:
  status: ('A' for Active; 'I' for Inactive)
    1  A    between atoms: C_1  and  O_4
    2  A    between atoms: C_1  and  C_5
    3  A    between atoms: O_4  and  C_27
    4  A    between atoms: C_5  and  C_22
    5  A    between atoms: C_8  and  C_27
    6  A    between atoms: N_16  and  C_25
    7  A    between atoms: C_19  and  C_29
                            x       y       z     vdW  Elec       q    Type
                         _______ _______ _______ _____ _____    ______ ____

>  <TORSDO>
F 7

$$$$
=
 OpenBabel10262421493D

 30 33  0  0  1  0  0  0  0  0999 V2000
  189.3820  177.8270  139.3730 C   0  0  2  0  0  3  0  0  0  0  0  0
  188.6510  177.1950  138.1920 C   0  0  0  0  0  2  0  0  0  0  0  0
  190.4300  176.8450  139.8700 C   0  0  0  0  0  1  0  0  0  0  0  0
  187.1250  178.4600  140.2190 C   0  0  0  0  0  0  0  0  0  0  0  0
  187.4840  178.0820  137.7990 C   0  0  0  0  0  2  0  0  0  0  0  0
  188.4370  178.2430  140.4860 C   0  0  0  0  0  0  0  0  0  0  0  0
  186.6290  178.2650  138.9230 O   0  0  0  0  0  0  0  0  0  0  0  0
  183.7420  178.7970  142.0400 C   0  0  0  0  0  3  0  0  0  0  0  0
  184.1570  178.6030  143.2960 C   0  0  0  0  0  3  0  0  0  0  0  0
  184.6710  178.5830  140.8780 C   0  0  1  0  0  3  0  0  0  0  0  0
  186.4860  178.3520  142.6290 C   0  0  0  0  0  3  0  0  0  0  0  0
  184.1550  179.5980  139.5100 Cl  0  0  0  0  0  0  0  0  0  0  0  0
  185.5630  178.2480  143.5910 C   0  0  0  0  0  0  0  0  0  0  0  0
  186.1290  178.8890  141.2660 C   0  0  1  0  0  3  0  0  0  0  0  0
  185.4480  179.7530  146.1130 O   0  0  0  0  0  0  0  0  0  0  0  0
  185.9520  178.5990  146.0950 C   0  0  0  0  0  0  0  0  0  0  0  0
  185.9760  177.8180  144.8940 N   0  0  0  0  0  2  0  0  0  0  0  0
  186.5020  178.0600  147.2900 N   0  0  0  0  0  1  0  0  0  0  0  0
  189.0120  178.5610  141.8360 C   0  0  0  0  0  2  0  0  0  0  0  0
  189.4080  177.2850  142.5520 C   0  0  0  0  0  2  0  0  0  0  0  0
  190.7110  177.4100  143.0350 O   0  0  0  0  0  0  0  0  0  0  0  0
  190.6210  178.3450  144.0660 C   0  0  2  0  0  3  0  0  0  0  0  0
  191.6780  179.2510  143.9700 O   0  0  0  0  0  1  0  0  0  0  0  0
  189.9770  176.7560  147.3420 C   0  0  0  0  0  2  0  0  0  0  0  0
  190.6660  177.6590  145.3910 C   0  0  0  0  0  0  0  0  0  0  0  0
  191.4640  176.5680  147.1510 C   0  0  2  0  0  0  0  0  0  0  0  0
  191.8370  177.1510  145.9280 O   0  0  0  0  0  0  0  0  0  0  0  0
  189.6120  177.4670  146.1210 N   0  0  0  0  0  0  0  0  0  0  0  0
  191.7840  175.1980  147.1490 O   0  0  0  0  0  0  0  0  0  0  0  0
  192.4500  176.0030  148.0930 C   0  0  0  0  0  2  0  0  0  0  0  0
  1  3  1  1  0  0  0
  1  6  1  0  0  0  0
  2  1  1  0  0  0  0
  4  6  2  0  0  0  0
  5  2  1  0  0  0  0
  5  7  1  0  0  0  0
  6 19  1  0  0  0  0
  7  4  1  0  0  0  0
  8  9  2  0  0  0  0
  9 13  1  0  0  0  0
 10 12  1  6  0  0  0
 10 14  1  0  0  0  0
 10  8  1  0  0  0  0
 11 13  2  0  0  0  0
 13 17  1  0  0  0  0
 14  4  1  6  0  0  0
 14 11  1  0  0  0  0
 16 15  2  0  0  0  0
 16 18  1  0  0  0  0
 17 16  1  0  0  0  0
 19 20  1  0  0  0  0
 20 21  1  0  0  0  0
 21 22  1  0  0  0  0
 22 23  1  1  0  0  0
 22 25  1  0  0  0  0
 25 27  1  0  0  0  0
 25 28  2  0  0  0  0
 26 24  1  1  0  0  0
 26 30  1  0  0  0  0
 27 26  1  0  0  0  0
 28 24  1  0  0  0  0
 29 26  1  0  0  0  0
 29 30  1  0  0  0  0
M  END
>  <MODEL>
5

>  <REMARK>
 VINA RESULT:      -7.9      3.035      6.254
  Name = 
  7 active torsions:
  status: ('A' for Active; 'I' for Inactive)
    1  A    between atoms: C_1  and  O_4
    2  A    between atoms: C_1  and  C_5
    3  A    between atoms: O_4  and  C_27
    4  A    between atoms: C_5  and  C_22
    5  A    between atoms: C_8  and  C_27
    6  A    between atoms: N_16  and  C_25
    7  A    between atoms: C_19  and  C_29
                            x       y       z     vdW  Elec       q    Type
                         _______ _______ _______ _____ _____    ______ ____

>  <TORSDO>
F 7

$$$$
=
 OpenBabel10262421493D

 30 33  0  0  1  0  0  0  0  0999 V2000
  183.7850  176.6000  137.7620 C   0  0  2  0  0  3  0  0  0  0  0  0
  183.1520  175.2810  138.1950 C   0  0  0  0  0  2  0  0  0  0  0  0
  185.1430  176.3020  137.1480 C   0  0  0  0  0  1  0  0  0  0  0  0
  183.0940  177.4740  139.9910 C   0  0  0  0  0  0  0  0  0  0  0  0
  181.8810  175.5720  138.9720 C   0  0  0  0  0  2  0  0  0  0  0  0
  183.8960  177.5940  138.9030 C   0  0  0  0  0  0  0  0  0  0  0  0
  182.1860  176.4110  140.0810 O   0  0  0  0  0  0  0  0  0  0  0  0
  181.9010  179.3660  143.1330 C   0  0  0  0  0  3  0  0  0  0  0  0
  183.0130  179.2770  143.8690 C   0  0  0  0  0  3  0  0  0  0  0  0
  181.7670  178.6090  141.8410 C   0  0  1  0  0  3  0  0  0  0  0  0
  184.2240  178.0700  142.1340 C   0  0  0  0  0  3  0  0  0  0  0  0
  180.6310  179.4620  140.7680 Cl  0  0  0  0  0  0  0  0  0  0  0  0
  184.1800  178.4960  143.4010 C   0  0  0  0  0  0  0  0  0  0  0  0
  183.1340  178.4290  141.1560 C   0  0  1  0  0  3  0  0  0  0  0  0
  184.3490  178.8570  146.3130 O   0  0  0  0  0  0  0  0  0  0  0  0
  185.3510  178.4400  145.6750 C   0  0  0  0  0  0  0  0  0  0  0  0
  185.2860  178.2020  144.2640 N   0  0  0  0  0  2  0  0  0  0  0  0
  186.5660  178.1940  146.3690 N   0  0  0  0  0  1  0  0  0  0  0  0
  184.7880  178.7900  138.7320 C   0  0  0  0  0  2  0  0  0  0  0  0
  186.2440  178.3700  138.7820 C   0  0  0  0  0  2  0  0  0  0  0  0
  186.7470  178.5950  140.0630 O   0  0  0  0  0  0  0  0  0  0  0  0
  188.1070  178.2980  139.9690 C   0  0  2  0  0  3  0  0  0  0  0  0
  188.3170  177.3880  138.9330 O   0  0  0  0  0  1  0  0  0  0  0  0
  188.6170  177.0030  143.3950 C   0  0  0  0  0  2  0  0  0  0  0  0
  188.6000  177.7210  141.2540 C   0  0  0  0  0  0  0  0  0  0  0  0
  189.9490  176.7500  142.7260 C   0  0  2  0  0  0  0  0  0  0  0  0
  189.8820  177.2190  141.4030 O   0  0  0  0  0  0  0  0  0  0  0  0
  187.8590  177.6250  142.3130 N   0  0  0  0  0  0  0  0  0  0  0  0
  190.2430  175.3750  142.7340 O   0  0  0  0  0  0  0  0  0  0  0  0
  191.1950  176.2300  143.3200 C   0  0  0  0  0  2  0  0  0  0  0  0
  1  3  1  1  0  0  0
  1  2  1  0  0  0  0
  1  6  1  0  0  0  0
  2  5  1  0  0  0  0
  4  7  1  0  0  0  0
  5  7  1  0  0  0  0
  6  4  2  0  0  0  0
  8  9  2  0  0  0  0
 10 12  1  6  0  0  0
 10  8  1  0  0  0  0
 11 13  2  0  0  0  0
 13  9  1  0  0  0  0
 13 17  1  0  0  0  0
 14  4  1  6  0  0  0
 14 10  1  0  0  0  0
 14 11  1  0  0  0  0
 16 15  2  0  0  0  0
 16 18  1  0  0  0  0
 17 16  1  0  0  0  0
 19 20  1  0  0  0  0
 19  6  1  0  0  0  0
 20 21  1  0  0  0  0
 22 23  1  6  0  0  0
 22 21  1  0  0  0  0
 22 25  1  0  0  0  0
 25 27  1  0  0  0  0
 25 28  2  0  0  0  0
 26 29  1  0  0  0  0
 26 30  1  1  0  0  0
 26 24  1  0  0  0  0
 27 26  1  0  0  0  0
 28 24  1  0  0  0  0
 29 30  1  0  0  0  0
M  END
>  <MODEL>
6

>  <REMARK>
 VINA RESULT:      -7.9      3.632      6.416
  Name = 
  7 active torsions:
  status: ('A' for Active; 'I' for Inactive)
    1  A    between atoms: C_1  and  O_4
    2  A    between atoms: C_1  and  C_5
    3  A    between atoms: O_4  and  C_27
    4  A    between atoms: C_5  and  C_22
    5  A    between atoms: C_8  and  C_27
    6  A    between atoms: N_16  and  C_25
    7  A    between atoms: C_19  and  C_29
                            x       y       z     vdW  Elec       q    Type
                         _______ _______ _______ _____ _____    ______ ____

>  <TORSDO>
F 7

$$$$
=
 OpenBabel10262421493D

 30 33  0  0  1  0  0  0  0  0999 V2000
  187.2940  177.7430  146.2260 C   0  0  2  0  0  3  0  0  0  0  0  0
  186.8140  178.9720  146.9930 C   0  0  0  0  0  2  0  0  0  0  0  0
  188.8060  177.8140  146.1030 C   0  0  0  0  0  1  0  0  0  0  0  0
  185.4450  178.2230  144.6260 C   0  0  0  0  0  0  0  0  0  0  0  0
  185.2970  179.0120  146.9680 C   0  0  0  0  0  2  0  0  0  0  0  0
  186.6300  177.6100  144.8680 C   0  0  0  0  0  0  0  0  0  0  0  0
  184.8450  179.0110  145.6170 O   0  0  0  0  0  0  0  0  0  0  0  0
  182.8600  179.0230  141.8770 C   0  0  0  0  0  3  0  0  0  0  0  0
  183.6670  178.9950  140.8120 C   0  0  0  0  0  3  0  0  0  0  0  0
  183.4180  178.9490  143.2710 C   0  0  1  0  0  3  0  0  0  0  0  0
  185.6260  178.4320  142.1460 C   0  0  0  0  0  3  0  0  0  0  0  0
  182.1960  178.2530  144.3630 Cl  0  0  0  0  0  0  0  0  0  0  0  0
  185.1280  178.8110  140.9640 C   0  0  0  0  0  0  0  0  0  0  0  0
  184.7180  178.1260  143.3090 C   0  0  1  0  0  3  0  0  0  0  0  0
  184.9220  177.7240  138.2410 O   0  0  0  0  0  0  0  0  0  0  0  0
  185.9240  178.4130  138.5660 C   0  0  0  0  0  0  0  0  0  0  0  0
  186.0310  179.0020  139.8670 N   0  0  0  0  0  2  0  0  0  0  0  0
  186.9670  178.6140  137.6210 N   0  0  0  0  0  1  0  0  0  0  0  0
  187.2280  176.6660  143.8640 C   0  0  0  0  0  2  0  0  0  0  0  0
  188.3390  177.3520  143.0940 C   0  0  0  0  0  2  0  0  0  0  0  0
  189.4070  176.4700  142.9360 O   0  0  0  0  0  0  0  0  0  0  0  0
  190.5070  177.2860  142.6700 C   0  0  2  0  0  3  0  0  0  0  0  0
  190.1720  178.6180  142.9160 O   0  0  0  0  0  1  0  0  0  0  0  0
  192.2470  177.1260  139.4120 C   0  0  0  0  0  2  0  0  0  0  0  0
  190.9350  177.1290  141.2490 C   0  0  0  0  0  0  0  0  0  0  0  0
  190.8570  176.6290  139.0880 C   0  0  2  0  0  0  0  0  0  0  0  0
  190.0860  176.6570  140.2620 O   0  0  0  0  0  0  0  0  0  0  0  0
  192.1350  177.3990  140.8410 N   0  0  0  0  0  0  0  0  0  0  0  0
  190.9160  175.3180  138.5810 O   0  0  0  0  0  0  0  0  0  0  0  0
  190.2860  176.2820  137.7720 C   0  0  0  0  0  2  0  0  0  0  0  0
  1  3  1  6  0  0  0
  1  2  1  0  0  0  0
  4  6  2  0  0  0  0
  4  7  1  0  0  0  0
  5  2  1  0  0  0  0
  6  1  1  0  0  0  0
  7  5  1  0  0  0  0
  8 10  1  0  0  0  0
  9 13  1  0  0  0  0
  9  8  2  0  0  0  0
 10 14  1  0  0  0  0
 10 12  1  1  0  0  0
 11 14  1  0  0  0  0
 13 11  2  0  0  0  0
 14  4  1  1  0  0  0
 15 16  2  0  0  0  0
 16 17  1  0  0  0  0
 17 13  1  0  0  0  0
 18 16  1  0  0  0  0
 19  6  1  0  0  0  0
 20 19  1  0  0  0  0
 21 20  1  0  0  0  0
 22 23  1  6  0  0  0
 22 21  1  0  0  0  0
 24 28  1  0  0  0  0
 25 22  1  0  0  0  0
 26 30  1  6  0  0  0
 26 24  1  0  0  0  0
 26 27  1  0  0  0  0
 27 25  1  0  0  0  0
 28 25  2  0  0  0  0
 29 26  1  0  0  0  0
 30 29  1  0  0  0  0
M  END
>  <MODEL>
7

>  <REMARK>
 VINA RESULT:      -7.7      2.244      3.629
  Name = 
  7 active torsions:
  status: ('A' for Active; 'I' for Inactive)
    1  A    between atoms: C_1  and  O_4
    2  A    between atoms: C_1  and  C_5
    3  A    between atoms: O_4  and  C_27
    4  A    between atoms: C_5  and  C_22
    5  A    between atoms: C_8  and  C_27
    6  A    between atoms: N_16  and  C_25
    7  A    between atoms: C_19  and  C_29
                            x       y       z     vdW  Elec       q    Type
                         _______ _______ _______ _____ _____    ______ ____

>  <TORSDO>
F 7

$$$$
=
 OpenBabel10262421493D

 30 33  0  0  1  0  0  0  0  0999 V2000
  184.0650  178.5990  142.4010 C   0  0  2  0  0  3  0  0  0  0  0  0
  182.8660  178.6750  143.3420 C   0  0  0  0  0  2  0  0  0  0  0  0
  183.8060  177.5030  141.3810 C   0  0  0  0  0  1  0  0  0  0  0  0
  185.4740  178.6940  144.4550 C   0  0  0  0  0  0  0  0  0  0  0  0
  183.1830  179.6340  144.4740 C   0  0  0  0  0  2  0  0  0  0  0  0
  185.3710  178.3720  143.1410 C   0  0  0  0  0  0  0  0  0  0  0  0
  184.3640  179.2030  145.1430 O   0  0  0  0  0  0  0  0  0  0  0  0
  187.7750  177.5850  147.3430 C   0  0  0  0  0  3  0  0  0  0  0  0
  188.8070  177.1270  146.6280 C   0  0  0  0  0  3  0  0  0  0  0  0
  186.4880  177.9810  146.6750 C   0  0  1  0  0  3  0  0  0  0  0  0
  187.7590  177.6940  144.5040 C   0  0  0  0  0  3  0  0  0  0  0  0
  185.6550  179.2010  147.6690 Cl  0  0  0  0  0  0  0  0  0  0  0  0
  188.7480  177.0680  145.1500 C   0  0  0  0  0  0  0  0  0  0  0  0
  186.7390  178.5130  145.2530 C   0  0  1  0  0  3  0  0  0  0  0  0
  191.6410  177.5810  145.0580 O   0  0  0  0  0  0  0  0  0  0  0  0
  191.1400  176.6900  144.3230 C   0  0  0  0  0  0  0  0  0  0  0  0
  189.7420  176.3780  144.3820 N   0  0  0  0  0  2  0  0  0  0  0  0
  191.9760  175.9770  143.4230 N   0  0  0  0  0  1  0  0  0  0  0  0
  186.5760  177.9400  142.3570 C   0  0  0  0  0  2  0  0  0  0  0  0
  186.9530  179.0030  141.3430 C   0  0  0  0  0  2  0  0  0  0  0  0
  188.3390  179.0270  141.1900 O   0  0  0  0  0  0  0  0  0  0  0  0
  188.6560  177.7920  140.6220 C   0  0  2  0  0  3  0  0  0  0  0  0
  189.8860  177.3530  141.1140 O   0  0  0  0  0  1  0  0  0  0  0  0
  189.0440  178.7930  137.0840 C   0  0  0  0  0  2  0  0  0  0  0  0
  188.7200  177.9080  139.1360 C   0  0  0  0  0  0  0  0  0  0  0  0
  188.6420  177.3390  136.9920 C   0  0  2  0  0  0  0  0  0  0  0  0
  188.4500  176.8430  138.2930 O   0  0  0  0  0  0  0  0  0  0  0  0
  189.0560  179.0030  138.5290 N   0  0  0  0  0  0  0  0  0  0  0  0
  189.6440  176.5990  136.3380 O   0  0  0  0  0  0  0  0  0  0  0  0
  188.3500  176.5380  135.7880 C   0  0  0  0  0  2  0  0  0  0  0  0
  1  3  1  6  0  0  0
  1  6  1  0  0  0  0
  1  2  1  0  0  0  0
  2  5  1  0  0  0  0
  4  7  1  0  0  0  0
  5  7  1  0  0  0  0
  6  4  2  0  0  0  0
  9  8  2  0  0  0  0
 10  8  1  0  0  0  0
 10 12  1  1  0  0  0
 11 13  2  0  0  0  0
 11 14  1  0  0  0  0
 13  9  1  0  0  0  0
 14  4  1  6  0  0  0
 14 10  1  0  0  0  0
 16 17  1  0  0  0  0
 16 15  2  0  0  0  0
 17 13  1  0  0  0  0
 18 16  1  0  0  0  0
 19  6  1  0  0  0  0
 20 19  1  0  0  0  0
 21 20  1  0  0  0  0
 22 23  1  1  0  0  0
 22 21  1  0  0  0  0
 24 28  1  0  0  0  0
 25 22  1  0  0  0  0
 26 30  1  6  0  0  0
 26 24  1  0  0  0  0
 26 27  1  0  0  0  0
 27 25  1  0  0  0  0
 28 25  2  0  0  0  0
 29 26  1  0  0  0  0
 30 29  1  0  0  0  0
M  END
>  <MODEL>
8

>  <REMARK>
 VINA RESULT:      -7.6      2.341      4.783
  Name = 
  7 active torsions:
  status: ('A' for Active; 'I' for Inactive)
    1  A    between atoms: C_1  and  O_4
    2  A    between atoms: C_1  and  C_5
    3  A    between atoms: O_4  and  C_27
    4  A    between atoms: C_5  and  C_22
    5  A    between atoms: C_8  and  C_27
    6  A    between atoms: N_16  and  C_25
    7  A    between atoms: C_19  and  C_29
                            x       y       z     vdW  Elec       q    Type
                         _______ _______ _______ _____ _____    ______ ____

>  <TORSDO>
F 7

$$$$
=
 OpenBabel10262421493D

 30 33  0  0  1  0  0  0  0  0999 V2000
  189.7190  177.2180  141.0590 C   0  0  2  0  0  3  0  0  0  0  0  0
  191.0860  177.8780  140.9050 C   0  0  0  0  0  2  0  0  0  0  0  0
  188.6840  178.0930  140.3710 C   0  0  0  0  0  1  0  0  0  0  0  0
  190.3290  176.8890  143.4520 C   0  0  0  0  0  0  0  0  0  0  0  0
  192.1010  177.1160  141.7380 C   0  0  0  0  0  2  0  0  0  0  0  0
  189.3560  176.9640  142.5100 C   0  0  0  0  0  0  0  0  0  0  0  0
  191.6700  177.0830  143.0960 O   0  0  0  0  0  0  0  0  0  0  0  0
  190.9740  176.6060  147.2440 C   0  0  0  0  0  3  0  0  0  0  0  0
  189.8510  177.1750  147.6940 C   0  0  0  0  0  3  0  0  0  0  0  0
  191.3180  176.6270  145.7810 C   0  0  1  0  0  3  0  0  0  0  0  0
  188.9810  177.5410  145.4480 C   0  0  0  0  0  3  0  0  0  0  0  0
  192.3520  175.2300  145.3950 Cl  0  0  0  0  0  0  0  0  0  0  0  0
  188.8700  177.7740  146.7600 C   0  0  0  0  0  0  0  0  0  0  0  0
  190.0490  176.6240  144.9100 C   0  0  1  0  0  3  0  0  0  0  0  0
  186.0060  177.4500  146.1880 O   0  0  0  0  0  0  0  0  0  0  0  0
  186.3990  178.4230  146.8840 C   0  0  0  0  0  0  0  0  0  0  0  0
  187.7810  178.5820  147.2260 N   0  0  0  0  0  2  0  0  0  0  0  0
  185.4530  179.3800  147.3430 N   0  0  0  0  0  1  0  0  0  0  0  0
  187.9290  176.6410  142.8490 C   0  0  0  0  0  2  0  0  0  0  0  0
  187.0750  177.8910  142.7730 C   0  0  0  0  0  2  0  0  0  0  0  0
  185.7310  177.5440  142.9140 O   0  0  0  0  0  0  0  0  0  0  0  0
  185.0450  178.4320  142.0860 C   0  0  2  0  0  3  0  0  0  0  0  0
  185.7150  179.6560  142.0540 O   0  0  0  0  0  1  0  0  0  0  0  0
  181.9350  179.0040  144.0020 C   0  0  0  0  0  2  0  0  0  0  0  0
  183.6530  178.6330  142.5840 C   0  0  0  0  0  0  0  0  0  0  0  0
  181.4480  178.8930  142.5750 C   0  0  2  0  0  0  0  0  0  0  0  0
  182.5550  178.6580  141.7410 O   0  0  0  0  0  0  0  0  0  0  0  0
  183.3730  178.8220  143.8360 N   0  0  0  0  0  0  0  0  0  0  0  0
  180.7990  180.0790  142.1890 O   0  0  0  0  0  0  0  0  0  0  0  0
  180.0610  178.8860  142.0720 C   0  0  0  0  0  2  0  0  0  0  0  0
  1  3  1  1  0  0  0
  1  6  1  0  0  0  0
  2  1  1  0  0  0  0
  2  5  1  0  0  0  0
  5  7  1  0  0  0  0
  6 19  1  0  0  0  0
  6  4  2  0  0  0  0
  7  4  1  0  0  0  0
  8  9  2  0  0  0  0
 10 12  1  6  0  0  0
 10  8  1  0  0  0  0
 11 13  2  0  0  0  0
 13 17  1  0  0  0  0
 13  9  1  0  0  0  0
 14  4  1  6  0  0  0
 14 11  1  0  0  0  0
 14 10  1  0  0  0  0
 15 16  2  0  0  0  0
 16 17  1  0  0  0  0
 16 18  1  0  0  0  0
 20 19  1  0  0  0  0
 20 21  1  0  0  0  0
 22 23  1  1  0  0  0
 22 25  1  0  0  0  0
 22 21  1  0  0  0  0
 25 28  2  0  0  0  0
 26 30  1  6  0  0  0
 26 24  1  0  0  0  0
 27 26  1  0  0  0  0
 27 25  1  0  0  0  0
 28 24  1  0  0  0  0
 29 26  1  0  0  0  0
 30 29  1  0  0  0  0
M  END
>  <MODEL>
9

>  <REMARK>
 VINA RESULT:      -7.6      3.077      6.412
  Name = 
  7 active torsions:
  status: ('A' for Active; 'I' for Inactive)
    1  A    between atoms: C_1  and  O_4
    2  A    between atoms: C_1  and  C_5
    3  A    between atoms: O_4  and  C_27
    4  A    between atoms: C_5  and  C_22
    5  A    between atoms: C_8  and  C_27
    6  A    between atoms: N_16  and  C_25
    7  A    between atoms: C_19  and  C_29
                            x       y       z     vdW  Elec       q    Type
                         _______ _______ _______ _____ _____    ______ ____

>  <TORSDO>
F 7

$$$$
