=
 OpenBabel10262421243D

 32 37  0  0  1  0  0  0  0  0999 V2000
  181.8890  180.0130  138.2070 N   0  0  0  0  0  0  0  0  0  0  0  0
  184.5000  178.4340  142.4200 C   0  0  0  0  0  0  0  0  0  0  0  0
  189.1250  178.2040  140.6050 C   0  0  0  0  0  3  0  0  0  0  0  0
  189.5780  177.6890  141.8190 C   0  0  0  0  0  3  0  0  0  0  0  0
  184.8010  178.8030  144.8990 C   0  0  0  0  0  0  0  0  0  0  0  0
  185.8830  178.5970  145.8250 C   0  0  0  0  0  0  0  0  0  0  0  0
  182.6390  178.8340  140.9630 N   0  0  0  0  0  0  0  0  0  0  0  0
  184.9360  178.9630  140.0780 C   0  0  0  0  0  3  0  0  0  0  0  0
  188.1570  177.8260  147.2020 C   0  0  0  0  0  0  0  0  0  0  0  0
  182.9850  179.1060  138.5270 C   0  0  0  0  0  2  0  0  0  0  0  0
  187.7700  178.4820  140.4290 C   0  0  0  0  0  3  0  0  0  0  0  0
  185.4110  178.5620  141.2660 C   0  0  0  0  0  0  0  0  0  0  0  0
  186.8480  178.2550  141.4660 C   0  0  0  0  0  0  0  0  0  0  0  0
  186.3460  177.3900  143.8230 C   0  0  2  0  0  3  0  0  0  0  0  0
  187.2110  178.6720  147.8160 C   0  0  0  0  0  3  0  0  0  0  0  0
  180.4560  179.5820  140.1440 C   0  0  0  0  0  2  0  0  0  0  0  0
  183.5080  179.4070  139.9220 C   0  0  1  0  0  3  0  0  0  0  0  0
  186.0530  179.0640  147.1260 C   0  0  0  0  0  3  0  0  0  0  0  0
  181.2620  178.4410  140.6850 C   0  0  0  0  0  2  0  0  0  0  0  0
  180.7260  180.2540  139.0190 C   0  0  0  0  0  0  0  0  0  0  0  0
  188.6760  177.4560  142.8580 C   0  0  0  0  0  3  0  0  0  0  0  0
  187.3130  177.7580  142.7110 C   0  0  0  0  0  0  0  0  0  0  0  0
  187.9540  177.3680  145.8900 C   0  0  0  0  0  3  0  0  0  0  0  0
  183.1780  178.5350  142.2550 C   0  0  0  0  0  3  0  0  0  0  0  0
  183.7940  179.5340  145.0980 O   0  0  0  0  0  0  0  0  0  0  0  0
  189.5870  177.3370  148.0830 Cl  0  0  0  0  0  0  0  0  0  0  0  0
  185.0620  178.0970  143.6880 N   0  0  0  0  0  0  0  0  0  0  0  0
  186.8110  177.7870  145.2060 C   0  0  0  0  0  0  0  0  0  0  0  0
  179.1920  182.2030  139.8380 O   0  0  0  0  0  0  0  0  0  0  0  0
  179.6050  181.5370  138.5330 S   0  0  1  0  0  0  0  0  0  0  0  0
  180.8280  182.9660  137.5690 S   0  0  0  0  0  0  0  0  0  0  0  0
  180.3120  182.3950  135.9270 C   0  0  0  0  0  1  0  0  0  0  0  0
  1 10  1  0  0  0  0
  1 20  2  0  0  0  0
  2 27  1  0  0  0  0
  3  4  1  0  0  0  0
  4 21  2  0  0  0  0
  5 25  2  0  0  0  0
  5  6  1  0  0  0  0
  6 18  1  0  0  0  0
  7 24  1  0  0  0  0
  8 12  2  0  0  0  0
  9 15  1  0  0  0  0
  9 26  1  0  0  0  0
 11  3  2  0  0  0  0
 11 13  1  0  0  0  0
 12 13  1  0  0  0  0
 12  2  1  0  0  0  0
 13 22  2  0  0  0  0
 14 22  1  6  0  0  0
 14 28  1  0  0  0  0
 16 19  1  0  0  0  0
 17 10  1  6  0  0  0
 17  8  1  0  0  0  0
 17  7  1  0  0  0  0
 18 15  2  0  0  0  0
 19  7  1  0  0  0  0
 20 16  1  0  0  0  0
 22 21  1  0  0  0  0
 23  9  2  0  0  0  0
 24  2  2  0  0  0  0
 27 14  1  0  0  0  0
 27  5  1  0  0  0  0
 28  6  2  0  0  0  0
 28 23  1  0  0  0  0
 30 20  1  0  0  0  0
 30 29  2  1  0  0  0
 31 30  1  0  0  0  0
 32 31  1  0  0  0  0
M  END
>  <MODEL>
1

>  <REMARK>
 VINA RESULT:     -10.2      0.000      0.000
  Name = 
  2 active torsions:
  status: ('A' for Active; 'I' for Inactive)
    1  A    between atoms: S_1  and  S_20
    2  A    between atoms: S_20  and  C_24
                            x       y       z     vdW  Elec       q    Type
                         _______ _______ _______ _____ _____    ______ ____

>  <TORSDO>
F 2

$$$$
=
 OpenBabel10262421243D

 32 37  0  0  1  0  0  0  0  0999 V2000
  184.6560  178.3830  138.9370 N   0  0  0  0  0  2  0  0  0  0  0  0
  188.4450  177.7360  142.4410 C   0  0  0  0  0  0  0  0  0  0  0  0
  185.8800  178.2260  146.6740 C   0  0  0  0  0  3  0  0  0  0  0  0
  187.0620  178.1260  147.4060 C   0  0  0  0  0  3  0  0  0  0  0  0
  190.4410  176.3190  143.0600 C   0  0  0  0  0  0  0  0  0  0  0  0
  191.1030  175.9960  144.2960 C   0  0  0  0  0  0  0  0  0  0  0  0
  187.4070  178.1920  140.3290 N   0  0  0  0  0  0  0  0  0  0  0  0
  186.0520  178.2100  142.3870 C   0  0  0  0  0  3  0  0  0  0  0  0
  192.1240  175.8640  146.8650 C   0  0  0  0  0  0  0  0  0  0  0  0
  185.0510  178.9460  140.2220 C   0  0  0  0  0  2  0  0  0  0  0  0
  185.9170  178.1940  145.2800 C   0  0  0  0  0  3  0  0  0  0  0  0
  187.1620  178.0160  143.1140 C   0  0  0  0  0  0  0  0  0  0  0  0
  187.1380  178.0550  144.5970 C   0  0  0  0  0  0  0  0  0  0  0  0
  189.6930  177.8830  144.6520 C   0  0  2  0  0  3  0  0  0  0  0  0
  192.5490  174.9430  145.8870 C   0  0  0  0  0  3  0  0  0  0  0  0
  186.8730  178.0980  137.9410 C   0  0  0  0  0  3  0  0  0  0  0  0
  186.0580  178.0280  140.8960 C   0  0  1  0  0  3  0  0  0  0  0  0
  192.0400  175.0060  144.5810 C   0  0  0  0  0  3  0  0  0  0  0  0
  187.6240  178.8090  139.0250 C   0  0  0  0  0  2  0  0  0  0  0  0
  185.5450  177.9440  137.8960 C   0  0  0  0  0  0  0  0  0  0  0  0
  188.2830  177.9880  146.7420 C   0  0  0  0  0  3  0  0  0  0  0  0
  188.3390  177.9240  145.3410 C   0  0  0  0  0  0  0  0  0  0  0  0
  191.1810  176.8550  146.5460 C   0  0  0  0  0  3  0  0  0  0  0  0
  188.5550  177.8550  141.1150 C   0  0  0  0  0  3  0  0  0  0  0  0
  190.5550  175.6840  141.9780 O   0  0  0  0  0  0  0  0  0  0  0  0
  192.7810  175.7790  148.4850 Cl  0  0  0  0  0  0  0  0  0  0  0  0
  189.5820  177.4410  143.2530 N   0  0  0  0  0  0  0  0  0  0  0  0
  190.6630  176.8900  145.2490 C   0  0  0  0  0  0  0  0  0  0  0  0
  185.7710  177.4950  135.3320 O   0  0  0  0  0  0  0  0  0  0  0  0
  184.8570  177.1140  136.4880 S   0  0  1  0  0  0  0  0  0  0  0  0
  185.2580  175.0690  136.8350 S   0  0  0  0  0  0  0  0  0  0  0  0
  183.7240  174.8620  137.7810 C   0  0  0  0  0  1  0  0  0  0  0  0
  1 10  1  0  0  0  0
  2 12  1  0  0  0  0
  2 27  1  0  0  0  0
  3  4  1  0  0  0  0
  5 27  1  0  0  0  0
  5  6  1  0  0  0  0
  6 18  2  0  0  0  0
  6 28  1  0  0  0  0
  7 17  1  0  0  0  0
  7 24  1  0  0  0  0
  8 12  2  0  0  0  0
  9 26  1  0  0  0  0
 11  3  2  0  0  0  0
 12 13  1  0  0  0  0
 13 11  1  0  0  0  0
 13 22  2  0  0  0  0
 14 28  1  1  0  0  0
 14 22  1  0  0  0  0
 15  9  2  0  0  0  0
 16 19  1  0  0  0  0
 17 10  1  6  0  0  0
 17  8  1  0  0  0  0
 18 15  1  0  0  0  0
 19  7  1  0  0  0  0
 20 16  2  0  0  0  0
 20  1  1  0  0  0  0
 21  4  2  0  0  0  0
 22 21  1  0  0  0  0
 23  9  1  0  0  0  0
 24  2  2  0  0  0  0
 25  5  2  0  0  0  0
 27 14  1  0  0  0  0
 28 23  2  0  0  0  0
 30 29  2  6  0  0  0
 30 31  1  0  0  0  0
 30 20  1  0  0  0  0
 31 32  1  0  0  0  0
M  END
>  <MODEL>
2

>  <REMARK>
 VINA RESULT:      -9.7      3.908      5.633
  Name = 
  2 active torsions:
  status: ('A' for Active; 'I' for Inactive)
    1  A    between atoms: S_1  and  S_20
    2  A    between atoms: S_20  and  C_24
                            x       y       z     vdW  Elec       q    Type
                         _______ _______ _______ _____ _____    ______ ____

>  <TORSDO>
F 2

$$$$
=
 OpenBabel10262421243D

 32 37  0  0  1  0  0  0  0  0999 V2000
  183.3030  179.5980  138.7080 N   0  0  0  0  0  0  0  0  0  0  0  0
  186.1600  177.8870  142.7030 C   0  0  0  0  0  0  0  0  0  0  0  0
  190.6860  177.8260  140.6410 C   0  0  0  0  0  3  0  0  0  0  0  0
  191.2110  177.2660  141.8040 C   0  0  0  0  0  3  0  0  0  0  0  0
  186.5860  178.1530  145.1770 C   0  0  0  0  0  0  0  0  0  0  0  0
  187.7180  177.9280  146.0350 C   0  0  0  0  0  0  0  0  0  0  0  0
  184.2180  178.3140  141.3640 N   0  0  0  0  0  0  0  0  0  0  0  0
  186.4620  178.5260  140.3680 C   0  0  0  0  0  3  0  0  0  0  0  0
  190.0750  177.1410  147.2560 C   0  0  0  0  0  0  0  0  0  0  0  0
  184.4290  178.7000  138.9280 C   0  0  0  0  0  2  0  0  0  0  0  0
  189.3190  178.0850  140.5480 C   0  0  0  0  0  3  0  0  0  0  0  0
  187.0060  178.0820  141.5100 C   0  0  0  0  0  0  0  0  0  0  0  0
  188.4570  177.7950  141.6200 C   0  0  0  0  0  0  0  0  0  0  0  0
  188.0950  176.8180  143.9600 C   0  0  2  0  0  3  0  0  0  0  0  0
  189.1490  177.9410  147.9550 C   0  0  0  0  0  3  0  0  0  0  0  0
  181.9820  179.0560  140.6950 C   0  0  0  0  0  2  0  0  0  0  0  0
  185.0210  178.9490  140.3060 C   0  0  1  0  0  3  0  0  0  0  0  0
  187.9500  178.3400  147.3450 C   0  0  0  0  0  3  0  0  0  0  0  0
  182.8350  177.9070  141.1420 C   0  0  0  0  0  2  0  0  0  0  0  0
  182.1810  179.7810  139.5890 C   0  0  0  0  0  0  0  0  0  0  0  0
  190.3690  176.9710  142.8780 C   0  0  0  0  0  3  0  0  0  0  0  0
  188.9960  177.2530  142.8160 C   0  0  0  0  0  0  0  0  0  0  0  0
  189.8110  176.7370  145.9360 C   0  0  0  0  0  3  0  0  0  0  0  0
  184.8300  177.9700  142.6120 C   0  0  0  0  0  3  0  0  0  0  0  0
  185.5790  178.8540  145.4600 O   0  0  0  0  0  0  0  0  0  0  0  0
  191.5580  176.6410  148.0380 Cl  0  0  0  0  0  0  0  0  0  0  0  0
  186.7940  177.5060  143.9240 N   0  0  0  0  0  0  0  0  0  0  0  0
  188.6260  177.1630  145.3330 C   0  0  0  0  0  0  0  0  0  0  0  0
  181.1800  181.3170  137.7280 O   0  0  0  0  0  0  0  0  0  0  0  0
  181.0140  181.0630  139.2200 S   0  0  1  0  0  0  0  0  0  0  0  0
  179.1290  180.1250  139.3950 S   0  0  0  0  0  0  0  0  0  0  0  0
  178.9310  180.6980  141.1050 C   0  0  0  0  0  1  0  0  0  0  0  0
  1 10  1  0  0  0  0
  1 20  2  0  0  0  0
  2 27  1  0  0  0  0
  3  4  1  0  0  0  0
  4 21  2  0  0  0  0
  5 25  2  0  0  0  0
  5  6  1  0  0  0  0
  6 18  1  0  0  0  0
  7 24  1  0  0  0  0
  8 12  2  0  0  0  0
  9 15  1  0  0  0  0
  9 26  1  0  0  0  0
 11  3  2  0  0  0  0
 11 13  1  0  0  0  0
 12 13  1  0  0  0  0
 12  2  1  0  0  0  0
 13 22  2  0  0  0  0
 14 22  1  6  0  0  0
 14 28  1  0  0  0  0
 16 19  1  0  0  0  0
 17 10  1  6  0  0  0
 17  8  1  0  0  0  0
 17  7  1  0  0  0  0
 18 15  2  0  0  0  0
 19  7  1  0  0  0  0
 20 16  1  0  0  0  0
 22 21  1  0  0  0  0
 23  9  2  0  0  0  0
 24  2  2  0  0  0  0
 27 14  1  0  0  0  0
 27  5  1  0  0  0  0
 28 23  1  0  0  0  0
 28  6  2  0  0  0  0
 30 29  2  6  0  0  0
 30 31  1  0  0  0  0
 30 20  1  0  0  0  0
 31 32  1  0  0  0  0
M  END
>  <MODEL>
3

>  <REMARK>
 VINA RESULT:      -9.2      1.676      2.152
  Name = 
  2 active torsions:
  status: ('A' for Active; 'I' for Inactive)
    1  A    between atoms: S_1  and  S_20
    2  A    between atoms: S_20  and  C_24
                            x       y       z     vdW  Elec       q    Type
                         _______ _______ _______ _____ _____    ______ ____

>  <TORSDO>
F 2

$$$$
=
 OpenBabel10262421243D

 32 37  0  0  1  0  0  0  0  0999 V2000
  192.4230  175.2330  135.9500 N   0  0  0  0  0  0  0  0  0  0  0  0
  189.6450  177.1910  139.8880 C   0  0  0  0  0  0  0  0  0  0  0  0
  185.2780  177.9670  137.6400 C   0  0  0  0  0  3  0  0  0  0  0  0
  184.7800  178.5540  138.8030 C   0  0  0  0  0  3  0  0  0  0  0  0
  189.0690  176.9010  142.3290 C   0  0  0  0  0  0  0  0  0  0  0  0
  187.9390  177.2550  143.1470 C   0  0  0  0  0  0  0  0  0  0  0  0
  191.5710  176.5390  138.6170 N   0  0  0  0  0  0  0  0  0  0  0  0
  189.3700  176.6840  137.5180 C   0  0  0  0  0  3  0  0  0  0  0  0
  185.6610  178.3250  144.2980 C   0  0  0  0  0  0  0  0  0  0  0  0
  191.4240  176.2740  136.1600 C   0  0  0  0  0  2  0  0  0  0  0  0
  186.5980  177.5200  137.5950 C   0  0  0  0  0  3  0  0  0  0  0  0
  188.8390  177.1600  138.6540 C   0  0  0  0  0  0  0  0  0  0  0  0
  187.4390  177.6470  138.7140 C   0  0  0  0  0  0  0  0  0  0  0  0
  187.8220  178.4790  141.1060 C   0  0  2  0  0  3  0  0  0  0  0  0
  186.4300  177.3770  145.0020 C   0  0  0  0  0  3  0  0  0  0  0  0
  193.7090  175.5120  138.0130 C   0  0  0  0  0  2  0  0  0  0  0  0
  190.7380  176.0630  137.5000 C   0  0  1  0  0  3  0  0  0  0  0  0
  187.5900  176.8330  144.4280 C   0  0  0  0  0  3  0  0  0  0  0  0
  193.0060  176.7530  138.4700 C   0  0  0  0  0  2  0  0  0  0  0  0
  193.4640  174.8610  136.8700 C   0  0  0  0  0  0  0  0  0  0  0  0
  185.6030  178.6890  139.9230 C   0  0  0  0  0  3  0  0  0  0  0  0
  186.9250  178.2180  139.9080 C   0  0  0  0  0  0  0  0  0  0  0  0
  186.0420  178.7340  143.0090 C   0  0  0  0  0  3  0  0  0  0  0  0
  190.9540  176.9230  139.8510 C   0  0  0  0  0  3  0  0  0  0  0  0
  189.9530  176.0540  142.6260 O   0  0  0  0  0  0  0  0  0  0  0  0
  184.2270  179.0030  145.0370 Cl  0  0  0  0  0  0  0  0  0  0  0  0
  189.0140  177.6150  141.0970 N   0  0  0  0  0  0  0  0  0  0  0  0
  187.1820  178.1650  142.4390 C   0  0  0  0  0  0  0  0  0  0  0  0
  195.5590  173.9670  135.5910 O   0  0  0  0  0  0  0  0  0  0  0  0
  194.4550  173.4400  136.4980 S   0  0  1  0  0  0  0  0  0  0  0  0
  195.4310  172.9880  138.3170 S   0  0  0  0  0  0  0  0  0  0  0  0
  196.9880  173.7140  137.7370 C   0  0  0  0  0  1  0  0  0  0  0  0
  1 10  1  0  0  0  0
  1 20  2  0  0  0  0
  2 27  1  0  0  0  0
  3  4  1  0  0  0  0
  4 21  2  0  0  0  0
  5 25  2  0  0  0  0
  5  6  1  0  0  0  0
  6 18  1  0  0  0  0
  7 24  1  0  0  0  0
  8 12  2  0  0  0  0
  9 15  1  0  0  0  0
  9 26  1  0  0  0  0
 11  3  2  0  0  0  0
 11 13  1  0  0  0  0
 12 13  1  0  0  0  0
 12  2  1  0  0  0  0
 13 22  2  0  0  0  0
 14 22  1  6  0  0  0
 14 28  1  0  0  0  0
 16 19  1  0  0  0  0
 17 10  1  6  0  0  0
 17  8  1  0  0  0  0
 17  7  1  0  0  0  0
 18 15  2  0  0  0  0
 19  7  1  0  0  0  0
 20 16  1  0  0  0  0
 22 21  1  0  0  0  0
 23  9  2  0  0  0  0
 24  2  2  0  0  0  0
 27 14  1  0  0  0  0
 27  5  1  0  0  0  0
 28 23  1  0  0  0  0
 28  6  2  0  0  0  0
 30 29  2  6  0  0  0
 30 20  1  0  0  0  0
 30 31  1  0  0  0  0
 32 31  1  0  0  0  0
M  END
>  <MODEL>
4

>  <REMARK>
 VINA RESULT:      -8.9      6.741      9.232
  Name = 
  2 active torsions:
  status: ('A' for Active; 'I' for Inactive)
    1  A    between atoms: S_1  and  S_20
    2  A    between atoms: S_20  and  C_24
                            x       y       z     vdW  Elec       q    Type
                         _______ _______ _______ _____ _____    ______ ____

>  <TORSDO>
F 2

$$$$
=
 OpenBabel10262421243D

 32 37  0  0  1  0  0  0  0  0999 V2000
  182.1450  178.6440  139.7830 N   0  0  0  0  0  2  0  0  0  0  0  0
  186.6690  178.1680  142.3060 C   0  0  0  0  0  0  0  0  0  0  0  0
  185.0970  178.1630  147.0240 C   0  0  0  0  0  3  0  0  0  0  0  0
  186.4190  178.1370  147.4670 C   0  0  0  0  0  3  0  0  0  0  0  0
  188.8620  176.9180  142.3580 C   0  0  0  0  0  0  0  0  0  0  0  0
  189.8110  176.5910  143.3880 C   0  0  0  0  0  0  0  0  0  0  0  0
  185.1460  178.6420  140.5160 N   0  0  0  0  0  0  0  0  0  0  0  0
  184.2950  178.4100  142.8170 C   0  0  0  0  0  3  0  0  0  0  0  0
  191.3940  176.4120  145.6520 C   0  0  0  0  0  0  0  0  0  0  0  0
  182.7740  179.1690  140.9890 C   0  0  0  0  0  2  0  0  0  0  0  0
  184.8200  178.2150  145.6580 C   0  0  0  0  0  3  0  0  0  0  0  0
  185.5530  178.2830  143.2640 C   0  0  0  0  0  0  0  0  0  0  0  0
  185.8620  178.2350  144.7140 C   0  0  0  0  0  0  0  0  0  0  0  0
  188.3680  178.3090  144.1920 C   0  0  2  0  0  3  0  0  0  0  0  0
  191.6610  175.5940  144.5360 C   0  0  0  0  0  3  0  0  0  0  0  0
  184.0950  178.6330  138.3040 C   0  0  0  0  0  3  0  0  0  0  0  0
  183.9790  178.3150  141.3510 C   0  0  1  0  0  3  0  0  0  0  0  0
  190.8660  175.6820  143.3820 C   0  0  0  0  0  3  0  0  0  0  0  0
  185.0110  179.3500  139.2480 C   0  0  0  0  0  2  0  0  0  0  0  0
  182.8080  178.3530  138.5400 C   0  0  0  0  0  0  0  0  0  0  0  0
  187.4650  178.1570  146.5430 C   0  0  0  0  0  3  0  0  0  0  0  0
  187.2070  178.1780  145.1630 C   0  0  0  0  0  0  0  0  0  0  0  0
  190.3250  177.3230  145.6260 C   0  0  0  0  0  3  0  0  0  0  0  0
  186.4660  178.3730  141.0010 C   0  0  0  0  0  3  0  0  0  0  0  0
  188.7800  176.3610  141.2320 O   0  0  0  0  0  0  0  0  0  0  0  0
  192.4050  176.2980  147.0760 Cl  0  0  0  0  0  0  0  0  0  0  0  0
  187.9800  177.9390  142.8210 N   0  0  0  0  0  0  0  0  0  0  0  0
  189.5260  177.3820  144.4820 C   0  0  0  0  0  0  0  0  0  0  0  0
  181.6760  178.6170  136.2010 O   0  0  0  0  0  0  0  0  0  0  0  0
  181.8900  177.5430  137.2590 S   0  0  1  0  0  0  0  0  0  0  0  0
  183.2710  176.2030  136.3890 S   0  0  0  0  0  0  0  0  0  0  0  0
  183.1290  175.0500  137.7820 C   0  0  0  0  0  1  0  0  0  0  0  0
  1 10  1  0  0  0  0
  2 27  1  0  0  0  0
  2 12  1  0  0  0  0
  3  4  1  0  0  0  0
  5 27  1  0  0  0  0
  5  6  1  0  0  0  0
  6 28  1  0  0  0  0
  7 24  1  0  0  0  0
  7 17  1  0  0  0  0
  8 12  2  0  0  0  0
  9 26  1  0  0  0  0
 11  3  2  0  0  0  0
 12 13  1  0  0  0  0
 13 22  2  0  0  0  0
 13 11  1  0  0  0  0
 14 28  1  1  0  0  0
 14 22  1  0  0  0  0
 15  9  2  0  0  0  0
 16 20  2  0  0  0  0
 16 19  1  0  0  0  0
 17 10  1  6  0  0  0
 17  8  1  0  0  0  0
 18  6  2  0  0  0  0
 18 15  1  0  0  0  0
 19  7  1  0  0  0  0
 20  1  1  0  0  0  0
 21  4  2  0  0  0  0
 22 21  1  0  0  0  0
 23  9  1  0  0  0  0
 24  2  2  0  0  0  0
 25  5  2  0  0  0  0
 27 14  1  0  0  0  0
 28 23  2  0  0  0  0
 30 29  2  6  0  0  0
 30 20  1  0  0  0  0
 31 30  1  0  0  0  0
 31 32  1  0  0  0  0
M  END
>  <MODEL>
5

>  <REMARK>
 VINA RESULT:      -8.9      2.862      4.605
  Name = 
  2 active torsions:
  status: ('A' for Active; 'I' for Inactive)
    1  A    between atoms: S_1  and  S_20
    2  A    between atoms: S_20  and  C_24
                            x       y       z     vdW  Elec       q    Type
                         _______ _______ _______ _____ _____    ______ ____

>  <TORSDO>
F 2

$$$$
=
 OpenBabel10262421243D

 32 37  0  0  1  0  0  0  0  0999 V2000
  180.9190  178.5960  141.5970 N   0  0  0  0  0  2  0  0  0  0  0  0
  186.0250  178.5170  140.6060 C   0  0  0  0  0  0  0  0  0  0  0  0
  187.8200  177.3790  145.1020 C   0  0  0  0  0  3  0  0  0  0  0  0
  189.1210  177.5170  144.6200 C   0  0  0  0  0  3  0  0  0  0  0  0
  187.7830  177.7030  138.9870 C   0  0  0  0  0  0  0  0  0  0  0  0
  189.1800  177.3770  139.0970 C   0  0  0  0  0  0  0  0  0  0  0  0
  183.6980  179.0150  140.3140 N   0  0  0  0  0  0  0  0  0  0  0  0
  184.5150  178.2220  142.5000 C   0  0  0  0  0  3  0  0  0  0  0  0
  191.8470  177.0900  139.7810 C   0  0  0  0  0  0  0  0  0  0  0  0
  182.1570  179.0030  142.2510 C   0  0  0  0  0  2  0  0  0  0  0  0
  186.7350  177.6220  144.2600 C   0  0  0  0  0  3  0  0  0  0  0  0
  185.7730  178.2510  142.0350 C   0  0  0  0  0  0  0  0  0  0  0  0
  186.9360  178.0020  142.9210 C   0  0  0  0  0  0  0  0  0  0  0  0
  188.5310  178.6280  141.0180 C   0  0  2  0  0  3  0  0  0  0  0  0
  191.3650  176.5480  138.5730 C   0  0  0  0  0  3  0  0  0  0  0  0
  181.4800  179.2080  139.2950 C   0  0  0  0  0  3  0  0  0  0  0  0
  183.3400  178.3350  141.5690 C   0  0  1  0  0  3  0  0  0  0  0  0
  190.0150  176.6930  138.2160 C   0  0  0  0  0  3  0  0  0  0  0  0
  182.7660  179.9020  139.6260 C   0  0  0  0  0  2  0  0  0  0  0  0
  180.6470  178.6590  140.1860 C   0  0  0  0  0  0  0  0  0  0  0  0
  189.3370  177.8940  143.2930 C   0  0  0  0  0  3  0  0  0  0  0  0
  188.2600  178.1140  142.4220 C   0  0  0  0  0  0  0  0  0  0  0  0
  190.9810  177.7790  140.6470 C   0  0  0  0  0  3  0  0  0  0  0  0
  185.0320  178.9110  139.8030 C   0  0  0  0  0  3  0  0  0  0  0  0
  187.0190  177.3510  138.0500 O   0  0  0  0  0  0  0  0  0  0  0  0
  193.5360  176.9110  140.2030 Cl  0  0  0  0  0  0  0  0  0  0  0  0
  187.3700  178.4440  140.1330 N   0  0  0  0  0  0  0  0  0  0  0  0
  189.6350  177.8930  140.2920 C   0  0  0  0  0  0  0  0  0  0  0  0
  179.3910  177.7340  138.0910 O   0  0  0  0  0  0  0  0  0  0  0  0
  179.1460  177.9370  139.5800 S   0  0  1  0  0  0  0  0  0  0  0  0
  179.1380  175.9850  140.3900 S   0  0  0  0  0  0  0  0  0  0  0  0
  180.7120  175.5760  139.5890 C   0  0  0  0  0  1  0  0  0  0  0  0
  1 10  1  0  0  0  0
  2 12  1  0  0  0  0
  4  3  1  0  0  0  0
  5  6  1  0  0  0  0
  5 27  1  0  0  0  0
  6 28  1  0  0  0  0
  7 17  1  0  0  0  0
  9 26  1  0  0  0  0
  9 23  1  0  0  0  0
 11  3  2  0  0  0  0
 12  8  2  0  0  0  0
 12 13  1  0  0  0  0
 13 11  1  0  0  0  0
 14 28  1  6  0  0  0
 14 22  1  0  0  0  0
 15  9  2  0  0  0  0
 16 19  1  0  0  0  0
 16 20  2  0  0  0  0
 17 10  1  1  0  0  0
 17  8  1  0  0  0  0
 18 15  1  0  0  0  0
 18  6  2  0  0  0  0
 19  7  1  0  0  0  0
 20  1  1  0  0  0  0
 21  4  2  0  0  0  0
 22 13  2  0  0  0  0
 22 21  1  0  0  0  0
 24  7  1  0  0  0  0
 24  2  2  0  0  0  0
 25  5  2  0  0  0  0
 27  2  1  0  0  0  0
 27 14  1  0  0  0  0
 28 23  2  0  0  0  0
 30 29  2  6  0  0  0
 30 20  1  0  0  0  0
 30 31  1  0  0  0  0
 32 31  1  0  0  0  0
M  END
>  <MODEL>
6

>  <REMARK>
 VINA RESULT:      -8.5      3.108      5.305
  Name = 
  2 active torsions:
  status: ('A' for Active; 'I' for Inactive)
    1  A    between atoms: S_1  and  S_20
    2  A    between atoms: S_20  and  C_24
                            x       y       z     vdW  Elec       q    Type
                         _______ _______ _______ _____ _____    ______ ____

>  <TORSDO>
F 2

$$$$
=
 OpenBabel10262421243D

 32 37  0  0  1  0  0  0  0  0999 V2000
  194.2750  176.4410  137.9410 N   0  0  0  0  0  2  0  0  0  0  0  0
  189.7890  176.9930  140.5150 C   0  0  0  0  0  0  0  0  0  0  0  0
  191.4660  178.1660  145.0490 C   0  0  0  0  0  3  0  0  0  0  0  0
  190.1600  178.1550  145.5370 C   0  0  0  0  0  3  0  0  0  0  0  0
  187.4770  178.0000  140.4060 C   0  0  0  0  0  0  0  0  0  0  0  0
  186.5240  178.4440  141.3870 C   0  0  0  0  0  0  0  0  0  0  0  0
  191.3100  176.3010  138.7960 N   0  0  0  0  0  0  0  0  0  0  0  0
  192.1870  177.1040  140.9550 C   0  0  0  0  0  3  0  0  0  0  0  0
  184.9860  178.9460  143.6330 C   0  0  0  0  0  0  0  0  0  0  0  0
  193.7360  176.1270  139.2580 C   0  0  0  0  0  2  0  0  0  0  0  0
  191.7130  177.8500  143.7130 C   0  0  0  0  0  3  0  0  0  0  0  0
  190.9340  177.1980  141.4240 C   0  0  0  0  0  0  0  0  0  0  0  0
  190.6570  177.5250  142.8440 C   0  0  0  0  0  0  0  0  0  0  0  0
  188.1610  177.0910  142.4660 C   0  0  2  0  0  3  0  0  0  0  0  0
  184.6060  179.4760  142.3840 C   0  0  0  0  0  3  0  0  0  0  0  0
  192.3000  175.9400  136.5860 C   0  0  0  0  0  3  0  0  0  0  0  0
  192.4560  176.9140  139.4880 C   0  0  1  0  0  3  0  0  0  0  0  0
  185.3770  179.2220  141.2390 C   0  0  0  0  0  3  0  0  0  0  0  0
  191.4890  175.3540  137.7010 C   0  0  0  0  0  2  0  0  0  0  0  0
  193.5550  176.3910  136.6980 C   0  0  0  0  0  0  0  0  0  0  0  0
  189.1000  177.8330  144.6870 C   0  0  0  0  0  3  0  0  0  0  0  0
  189.3240  177.5420  143.3330 C   0  0  0  0  0  0  0  0  0  0  0  0
  186.1450  178.1610  143.7500 C   0  0  0  0  0  3  0  0  0  0  0  0
  189.9810  176.5350  139.2750 C   0  0  0  0  0  3  0  0  0  0  0  0
  187.4710  178.3090  139.1840 O   0  0  0  0  0  0  0  0  0  0  0  0
  184.0030  179.2610  145.0460 Cl  0  0  0  0  0  0  0  0  0  0  0  0
  188.4740  177.1960  141.0320 N   0  0  0  0  0  0  0  0  0  0  0  0
  186.9180  177.9390  142.6080 C   0  0  0  0  0  0  0  0  0  0  0  0
  195.3320  178.0450  135.7330 O   0  0  0  0  0  0  0  0  0  0  0  0
  194.3500  176.9950  135.2330 S   0  0  1  0  0  0  0  0  0  0  0  0
  195.5650  175.3880  134.5940 S   0  0  0  0  0  0  0  0  0  0  0  0
  197.0010  176.0310  135.4970 C   0  0  0  0  0  1  0  0  0  0  0  0
  1 10  1  0  0  0  0
  2 27  1  0  0  0  0
  2 12  1  0  0  0  0
  3  4  1  0  0  0  0
  5 27  1  0  0  0  0
  5  6  1  0  0  0  0
  6 28  1  0  0  0  0
  7 24  1  0  0  0  0
  7 17  1  0  0  0  0
  8 12  2  0  0  0  0
  9 23  1  0  0  0  0
  9 26  1  0  0  0  0
 11  3  2  0  0  0  0
 12 13  1  0  0  0  0
 13 22  2  0  0  0  0
 13 11  1  0  0  0  0
 14 28  1  6  0  0  0
 14 22  1  0  0  0  0
 15  9  2  0  0  0  0
 16 20  2  0  0  0  0
 16 19  1  0  0  0  0
 17 10  1  1  0  0  0
 17  8  1  0  0  0  0
 18  6  2  0  0  0  0
 18 15  1  0  0  0  0
 19  7  1  0  0  0  0
 20  1  1  0  0  0  0
 21  4  2  0  0  0  0
 22 21  1  0  0  0  0
 24  2  2  0  0  0  0
 25  5  2  0  0  0  0
 27 14  1  0  0  0  0
 28 23  2  0  0  0  0
 30 29  2  1  0  0  0
 30 20  1  0  0  0  0
 31 30  1  0  0  0  0
 31 32  1  0  0  0  0
M  END
>  <MODEL>
7

>  <REMARK>
 VINA RESULT:      -8.3      6.400      9.076
  Name = 
  2 active torsions:
  status: ('A' for Active; 'I' for Inactive)
    1  A    between atoms: S_1  and  S_20
    2  A    between atoms: S_20  and  C_24
                            x       y       z     vdW  Elec       q    Type
                         _______ _______ _______ _____ _____    ______ ____

>  <TORSDO>
F 2

$$$$
=
 OpenBabel10262421243D

 32 37  0  0  1  0  0  0  0  0999 V2000
  183.0420  178.8910  142.4610 N   0  0  0  0  0  2  0  0  0  0  0  0
  187.5250  177.9150  140.0110 C   0  0  0  0  0  0  0  0  0  0  0  0
  190.6080  177.4400  143.8840 C   0  0  0  0  0  3  0  0  0  0  0  0
  191.6870  177.3000  143.0120 C   0  0  0  0  0  3  0  0  0  0  0  0
  188.5980  176.5660  138.1660 C   0  0  0  0  0  0  0  0  0  0  0  0
  189.9280  176.0780  137.9180 C   0  0  0  0  0  0  0  0  0  0  0  0
  185.2700  178.6630  140.3340 N   0  0  0  0  0  0  0  0  0  0  0  0
  186.7000  178.2070  142.2880 C   0  0  0  0  0  3  0  0  0  0  0  0
  192.6460  175.5650  137.8070 C   0  0  0  0  0  0  0  0  0  0  0  0
  184.4490  179.2430  142.5970 C   0  0  0  0  0  2  0  0  0  0  0  0
  189.3270  177.6620  143.3790 C   0  0  0  0  0  3  0  0  0  0  0  0
  187.7360  177.9710  141.4700 C   0  0  0  0  0  0  0  0  0  0  0  0
  189.1050  177.7410  141.9930 C   0  0  0  0  0  0  0  0  0  0  0  0
  190.0300  177.7570  139.6050 C   0  0  2  0  0  3  0  0  0  0  0  0
  191.7600  174.8690  136.9600 C   0  0  0  0  0  3  0  0  0  0  0  0
  182.8600  178.9590  140.0220 C   0  0  0  0  0  3  0  0  0  0  0  0
  185.2960  178.2970  141.7590 C   0  0  1  0  0  3  0  0  0  0  0  0
  190.3810  175.1270  137.0060 C   0  0  0  0  0  3  0  0  0  0  0  0
  184.2280  179.5190  139.7780 C   0  0  0  0  0  2  0  0  0  0  0  0
  182.3280  178.7150  141.2250 C   0  0  0  0  0  0  0  0  0  0  0  0
  191.4830  177.3780  141.6320 C   0  0  0  0  0  3  0  0  0  0  0  0
  190.1970  177.5700  141.1030 C   0  0  0  0  0  0  0  0  0  0  0  0
  192.1590  176.5220  138.7120 C   0  0  0  0  0  3  0  0  0  0  0  0
  186.3540  178.2780  139.4800 C   0  0  0  0  0  3  0  0  0  0  0  0
  187.5470  176.1470  137.6130 O   0  0  0  0  0  0  0  0  0  0  0  0
  194.3630  175.2400  137.7240 Cl  0  0  0  0  0  0  0  0  0  0  0  0
  188.6330  177.5660  139.1820 N   0  0  0  0  0  0  0  0  0  0  0  0
  190.7830  176.7500  138.7660 C   0  0  0  0  0  0  0  0  0  0  0  0
  180.2340  178.3020  142.7310 O   0  0  0  0  0  0  0  0  0  0  0  0
  180.6660  178.1020  141.2850 S   0  0  1  0  0  0  0  0  0  0  0  0
  179.5430  179.5190  140.1910 S   0  0  0  0  0  0  0  0  0  0  0  0
  179.5190  180.6750  141.5890 C   0  0  0  0  0  1  0  0  0  0  0  0
  1 10  1  0  0  0  0
  2 12  1  0  0  0  0
  4  3  2  0  0  0  0
  5 27  1  0  0  0  0
  6  5  1  0  0  0  0
  6 28  1  0  0  0  0
  7 17  1  0  0  0  0
  9 23  1  0  0  0  0
 11  3  1  0  0  0  0
 12 13  1  0  0  0  0
 12  8  2  0  0  0  0
 13 11  2  0  0  0  0
 14 28  1  6  0  0  0
 14 22  1  0  0  0  0
 15 18  1  0  0  0  0
 15  9  2  0  0  0  0
 16 20  2  0  0  0  0
 17  8  1  1  0  0  0
 17 10  1  0  0  0  0
 18  6  2  0  0  0  0
 19 16  1  0  0  0  0
 19  7  1  0  0  0  0
 20 30  1  0  0  0  0
 20  1  1  0  0  0  0
 21  4  1  0  0  0  0
 22 21  2  0  0  0  0
 22 13  1  0  0  0  0
 23 28  2  0  0  0  0
 24  2  2  0  0  0  0
 24  7  1  0  0  0  0
 25  5  2  0  0  0  0
 26  9  1  0  0  0  0
 27 14  1  0  0  0  0
 27  2  1  0  0  0  0
 30 29  2  1  0  0  0
 31 30  1  0  0  0  0
 31 32  1  0  0  0  0
M  END
>  <MODEL>
8

>  <REMARK>
 VINA RESULT:      -7.9      3.813      6.249
  Name = 
  2 active torsions:
  status: ('A' for Active; 'I' for Inactive)
    1  A    between atoms: S_1  and  S_20
    2  A    between atoms: S_20  and  C_24
                            x       y       z     vdW  Elec       q    Type
                         _______ _______ _______ _____ _____    ______ ____

>  <TORSDO>
F 2

$$$$
=
 OpenBabel10262421243D

 32 37  0  0  1  0  0  0  0  0999 V2000
  191.0130  176.1900  136.6910 N   0  0  0  0  0  0  0  0  0  0  0  0
  190.5240  177.3210  141.7440 C   0  0  0  0  0  0  0  0  0  0  0  0
  185.6450  178.2490  142.0130 C   0  0  0  0  0  3  0  0  0  0  0  0
  185.7850  178.6080  143.3530 C   0  0  0  0  0  3  0  0  0  0  0  0
  191.1700  176.5990  144.0760 C   0  0  0  0  0  0  0  0  0  0  0  0
  190.5800  176.7550  145.3790 C   0  0  0  0  0  0  0  0  0  0  0  0
  191.5850  176.9870  139.6210 N   0  0  0  0  0  0  0  0  0  0  0  0
  189.1330  177.2060  139.7430 C   0  0  0  0  0  3  0  0  0  0  0  0
  189.1680  177.5040  147.6380 C   0  0  0  0  0  0  0  0  0  0  0  0
  190.2750  177.1300  137.5250 C   0  0  0  0  0  2  0  0  0  0  0  0
  186.7660  177.8800  141.2700 C   0  0  0  0  0  3  0  0  0  0  0  0
  189.2260  177.4580  141.0570 C   0  0  0  0  0  0  0  0  0  0  0  0
  188.0430  177.8590  141.8580 C   0  0  0  0  0  0  0  0  0  0  0  0
  189.5500  178.2960  143.8820 C   0  0  2  0  0  3  0  0  0  0  0  0
  190.1440  176.4910  147.7180 C   0  0  0  0  0  3  0  0  0  0  0  0
  193.1370  176.1810  137.9070 C   0  0  0  0  0  2  0  0  0  0  0  0
  190.3030  176.6640  138.9720 C   0  0  1  0  0  3  0  0  0  0  0  0
  190.8680  176.1080  146.5790 C   0  0  0  0  0  3  0  0  0  0  0  0
  192.7840  177.2920  138.8480 C   0  0  0  0  0  2  0  0  0  0  0  0
  192.3520  175.7200  136.9270 C   0  0  0  0  0  0  0  0  0  0  0  0
  187.0460  178.5930  143.9520 C   0  0  0  0  0  3  0  0  0  0  0  0
  188.1820  178.1960  143.2300 C   0  0  0  0  0  0  0  0  0  0  0  0
  188.9040  178.1410  146.4140 C   0  0  0  0  0  3  0  0  0  0  0  0
  191.6450  177.1280  141.0450 C   0  0  0  0  0  3  0  0  0  0  0  0
  192.0550  175.7580  143.7670 O   0  0  0  0  0  0  0  0  0  0  0  0
  188.2860  177.9770  149.0730 Cl  0  0  0  0  0  0  0  0  0  0  0  0
  190.5610  177.5060  143.1600 N   0  0  0  0  0  0  0  0  0  0  0  0
  189.6120  177.7320  145.2830 C   0  0  0  0  0  0  0  0  0  0  0  0
  192.1070  174.4570  134.6540 O   0  0  0  0  0  0  0  0  0  0  0  0
  192.9930  174.4320  135.8920 S   0  0  1  0  0  0  0  0  0  0  0  0
  194.8590  175.1690  135.2290 S   0  0  0  0  0  0  0  0  0  0  0  0
  195.7610  174.1390  136.4190 C   0  0  0  0  0  1  0  0  0  0  0  0
  1 20  2  0  0  0  0
  1 10  1  0  0  0  0
  2 27  1  0  0  0  0
  3  4  1  0  0  0  0
  4 21  2  0  0  0  0
  5  6  1  0  0  0  0
  6 18  1  0  0  0  0
  7 24  1  0  0  0  0
  8 12  2  0  0  0  0
  9 15  1  0  0  0  0
  9 26  1  0  0  0  0
 11 13  1  0  0  0  0
 11  3  2  0  0  0  0
 12  2  1  0  0  0  0
 12 13  1  0  0  0  0
 13 22  2  0  0  0  0
 14 22  1  6  0  0  0
 14 28  1  0  0  0  0
 16 19  1  0  0  0  0
 17 10  1  6  0  0  0
 17  7  1  0  0  0  0
 17  8  1  0  0  0  0
 18 15  2  0  0  0  0
 19  7  1  0  0  0  0
 20 16  1  0  0  0  0
 22 21  1  0  0  0  0
 23  9  2  0  0  0  0
 24  2  2  0  0  0  0
 25  5  2  0  0  0  0
 27 14  1  0  0  0  0
 27  5  1  0  0  0  0
 28  6  2  0  0  0  0
 28 23  1  0  0  0  0
 30 29  2  6  0  0  0
 30 20  1  0  0  0  0
 31 30  1  0  0  0  0
 31 32  1  0  0  0  0
M  END
>  <MODEL>
9

>  <REMARK>
 VINA RESULT:      -7.8      6.182      8.446
  Name = 
  2 active torsions:
  status: ('A' for Active; 'I' for Inactive)
    1  A    between atoms: S_1  and  S_20
    2  A    between atoms: S_20  and  C_24
                            x       y       z     vdW  Elec       q    Type
                         _______ _______ _______ _____ _____    ______ ____

>  <TORSDO>
F 2

$$$$
