=
 OpenBabel10262421183D

 32 34  0  0  1  0  0  0  0  0999 V2000
  187.2570  178.3630  141.4190 N   0  0  0  0  0  0  0  0  0  0  0  0
  186.2250  178.2240  142.2050 C   0  0  0  0  0  0  0  0  0  0  0  0
  184.9050  177.9980  141.6860 N   0  0  0  0  0  2  0  0  0  0  0  0
  184.7940  179.8590  140.2740 O   0  0  0  0  0  0  0  0  0  0  0  0
  184.2730  178.7800  140.6630 C   0  0  0  0  0  0  0  0  0  0  0  0
  186.4310  178.1920  143.6660 C   0  0  0  0  0  0  0  0  0  0  0  0
  185.4190  178.6370  144.5300 C   0  0  0  0  0  3  0  0  0  0  0  0
  189.1920  177.1420  147.5150 C   0  0  0  0  0  3  0  0  0  0  0  0
  187.6330  177.7090  144.2090 C   0  0  0  0  0  3  0  0  0  0  0  0
  186.9760  178.0730  147.8380 C   0  0  0  0  0  3  0  0  0  0  0  0
  186.7920  178.1170  146.4530 C   0  0  0  0  0  0  0  0  0  0  0  0
  185.5980  178.6000  145.9170 C   0  0  0  0  0  3  0  0  0  0  0  0
  187.8180  177.6680  145.5920 C   0  0  0  0  0  0  0  0  0  0  0  0
  188.1760  177.5870  148.3680 C   0  0  0  0  0  3  0  0  0  0  0  0
  189.0140  177.1820  146.1280 C   0  0  0  0  0  3  0  0  0  0  0  0
  187.2360  178.2840  139.9620 C   0  0  0  0  0  2  0  0  0  0  0  0
  188.6220  178.1680  139.4140 C   0  0  0  0  0  0  0  0  0  0  0  0
  189.0210  178.9890  138.6040 O   0  0  0  0  0  0  0  0  0  0  0  0
  189.5340  177.0770  139.8820 C   0  0  0  0  0  2  0  0  0  0  0  0
  190.8820  177.2980  139.3760 N   0  0  0  0  0  0  0  0  0  0  0  0
  191.2860  176.0810  138.6850 C   0  0  1  0  0  3  0  0  0  0  0  0
  190.4150  175.8620  137.4620 C   0  0  0  0  0  2  0  0  0  0  0  0
  191.8050  176.4330  137.3010 C   0  0  2  0  0  3  0  0  0  0  0  0
  192.6690  175.4280  136.8700 O   0  0  0  0  0  1  0  0  0  0  0  0
  191.7480  177.4320  140.5390 C   0  0  0  0  0  2  0  0  0  0  0  0
  190.9150  177.3720  141.8060 C   0  0  0  0  0  2  0  0  0  0  0  0
  191.5610  176.0890  143.6450 C   0  0  0  0  0  1  0  0  0  0  0  0
  191.7880  177.3520  142.9660 N   0  0  0  0  0  2  0  0  0  0  0  0
  183.0520  178.3790  140.1190 O   0  0  0  0  0  0  0  0  0  0  0  0
  181.9870  177.8790  140.9190 C   0  0  0  0  0  2  0  0  0  0  0  0
  181.6150  178.9240  143.1490 C   0  0  0  0  0  1  0  0  0  0  0  0
  181.2980  179.0080  141.6680 C   0  0  0  0  0  2  0  0  0  0  0  0
  1  2  2  0  0  0  0
  2  6  1  0  0  0  0
  3  2  1  0  0  0  0
  4  5  2  0  0  0  0
  5  3  1  0  0  0  0
  6  9  2  0  0  0  0
  6  7  1  0  0  0  0
  7 12  2  0  0  0  0
  8 14  1  0  0  0  0
  9 13  1  0  0  0  0
 10 14  2  0  0  0  0
 11 10  1  0  0  0  0
 12 11  1  0  0  0  0
 13 15  1  0  0  0  0
 13 11  2  0  0  0  0
 15  8  2  0  0  0  0
 16  1  1  0  0  0  0
 17 19  1  0  0  0  0
 17 16  1  0  0  0  0
 18 17  2  0  0  0  0
 20 19  1  0  0  0  0
 20 25  1  0  0  0  0
 21 20  1  1  0  0  0
 22 21  1  0  0  0  0
 23 24  1  6  0  0  0
 23 22  1  0  0  0  0
 23 21  1  0  0  0  0
 25 26  1  0  0  0  0
 26 28  1  0  0  0  0
 28 27  1  0  0  0  0
 29  5  1  0  0  0  0
 29 30  1  0  0  0  0
 30 32  1  0  0  0  0
 32 31  1  0  0  0  0
M  END
>  <MODEL>
1

>  <REMARK>
 VINA RESULT:      -7.9      0.000      0.000
  Name = 
  12 active torsions:
  status: ('A' for Active; 'I' for Inactive)
    1  A    between atoms: N_1  and  C_4
    2  A    between atoms: C_2  and  C_5
    3  A    between atoms: C_3  and  N_20
    4  A    between atoms: C_4  and  C_24
    5  A    between atoms: C_13  and  O_18
    6  A    between atoms: C_13  and  C_29
    7  A    between atoms: C_15  and  N_20
    8  A    between atoms: C_15  and  C_26
    9  A    between atoms: C_16  and  N_20
   10  A    between atoms: C_16  and  C_24
   11  A    between atoms: O_18  and  C_30
   12  A    between atoms: N_19  and  C_26
                            x       y       z     vdW  Elec       q    Type
                         _______ _______ _______ _____ _____    ______ ____

>  <TORSDO>
F 12

$$$$
=
 OpenBabel10262421183D

 32 34  0  0  1  0  0  0  0  0999 V2000
  186.4290  178.6050  140.3580 N   0  0  0  0  0  0  0  0  0  0  0  0
  185.3480  178.6080  141.0890 C   0  0  0  0  0  0  0  0  0  0  0  0
  184.0400  178.4900  140.5050 N   0  0  0  0  0  2  0  0  0  0  0  0
  184.1940  180.2840  139.0120 O   0  0  0  0  0  0  0  0  0  0  0  0
  183.5460  179.2820  139.4160 C   0  0  0  0  0  0  0  0  0  0  0  0
  185.4720  178.6250  142.5590 C   0  0  0  0  0  0  0  0  0  0  0  0
  184.4740  179.2210  143.3440 C   0  0  0  0  0  3  0  0  0  0  0  0
  187.8920  177.4640  146.6010 C   0  0  0  0  0  3  0  0  0  0  0  0
  186.5820  178.0380  143.1890 C   0  0  0  0  0  3  0  0  0  0  0  0
  185.7830  178.6510  146.7560 C   0  0  0  0  0  3  0  0  0  0  0  0
  185.6770  178.6470  145.3630 C   0  0  0  0  0  0  0  0  0  0  0  0
  184.5750  179.2330  144.7390 C   0  0  0  0  0  3  0  0  0  0  0  0
  186.6890  178.0440  144.5810 C   0  0  0  0  0  0  0  0  0  0  0  0
  186.8910  178.0600  147.3740 C   0  0  0  0  0  3  0  0  0  0  0  0
  187.7920  177.4550  145.2050 C   0  0  0  0  0  3  0  0  0  0  0  0
  186.4750  178.4600  138.9060 C   0  0  0  0  0  2  0  0  0  0  0  0
  187.8760  178.2210  138.4390 C   0  0  0  0  0  0  0  0  0  0  0  0
  188.4010  179.0170  137.6780 O   0  0  0  0  0  0  0  0  0  0  0  0
  188.6480  177.0370  138.9300 C   0  0  0  0  0  2  0  0  0  0  0  0
  189.9660  177.4520  139.3890 N   0  0  0  0  0  0  0  0  0  0  0  0
  190.8820  176.3520  139.1160 C   0  0  1  0  0  3  0  0  0  0  0  0
  190.4870  175.6520  137.8290 C   0  0  0  0  0  2  0  0  0  0  0  0
  191.6390  176.6310  137.8290 C   0  0  2  0  0  3  0  0  0  0  0  0
  192.8410  175.9260  137.8470 O   0  0  0  0  0  1  0  0  0  0  0  0
  189.8820  177.5850  140.8370 C   0  0  0  0  0  2  0  0  0  0  0  0
  191.2330  177.2810  141.4570 C   0  0  0  0  0  2  0  0  0  0  0  0
  190.1990  175.7560  142.8900 C   0  0  0  0  0  1  0  0  0  0  0  0
  191.0610  176.9230  142.8540 N   0  0  0  0  0  2  0  0  0  0  0  0
  182.3210  178.9790  138.8200 O   0  0  0  0  0  0  0  0  0  0  0  0
  181.1840  178.5760  139.5750 C   0  0  0  0  0  2  0  0  0  0  0  0
  180.7730  179.1850  141.9540 C   0  0  0  0  0  1  0  0  0  0  0  0
  180.7430  179.6800  140.5220 C   0  0  0  0  0  2  0  0  0  0  0  0
  1  2  2  0  0  0  0
  2  6  1  0  0  0  0
  3  2  1  0  0  0  0
  4  5  2  0  0  0  0
  5  3  1  0  0  0  0
  6  9  2  0  0  0  0
  6  7  1  0  0  0  0
  7 12  2  0  0  0  0
  8 14  1  0  0  0  0
  9 13  1  0  0  0  0
 10 14  2  0  0  0  0
 11 10  1  0  0  0  0
 12 11  1  0  0  0  0
 13 15  1  0  0  0  0
 13 11  2  0  0  0  0
 15  8  2  0  0  0  0
 16  1  1  0  0  0  0
 17 16  1  0  0  0  0
 17 19  1  0  0  0  0
 18 17  2  0  0  0  0
 19 20  1  0  0  0  0
 20 25  1  0  0  0  0
 21 20  1  6  0  0  0
 22 21  1  0  0  0  0
 23 22  1  0  0  0  0
 23 24  1  1  0  0  0
 23 21  1  0  0  0  0
 25 26  1  0  0  0  0
 26 28  1  0  0  0  0
 28 27  1  0  0  0  0
 29  5  1  0  0  0  0
 29 30  1  0  0  0  0
 30 32  1  0  0  0  0
 32 31  1  0  0  0  0
M  END
>  <MODEL>
2

>  <REMARK>
 VINA RESULT:      -7.8      1.131      1.403
  Name = 
  12 active torsions:
  status: ('A' for Active; 'I' for Inactive)
    1  A    between atoms: N_1  and  C_4
    2  A    between atoms: C_2  and  C_5
    3  A    between atoms: C_3  and  N_20
    4  A    between atoms: C_4  and  C_24
    5  A    between atoms: C_13  and  O_18
    6  A    between atoms: C_13  and  C_29
    7  A    between atoms: C_15  and  N_20
    8  A    between atoms: C_15  and  C_26
    9  A    between atoms: C_16  and  N_20
   10  A    between atoms: C_16  and  C_24
   11  A    between atoms: O_18  and  C_30
   12  A    between atoms: N_19  and  C_26
                            x       y       z     vdW  Elec       q    Type
                         _______ _______ _______ _____ _____    ______ ____

>  <TORSDO>
F 12

$$$$
=
 OpenBabel10262421183D

 32 34  0  0  1  0  0  0  0  0999 V2000
  190.0170  177.5970  142.1110 N   0  0  0  0  0  0  0  0  0  0  0  0
  189.4310  177.7340  143.2690 C   0  0  0  0  0  0  0  0  0  0  0  0
  190.1760  177.7420  144.4970 N   0  0  0  0  0  2  0  0  0  0  0  0
  191.2790  175.6990  144.2150 O   0  0  0  0  0  0  0  0  0  0  0  0
  191.1480  176.7600  144.8820 C   0  0  0  0  0  0  0  0  0  0  0  0
  187.9790  177.9940  143.3150 C   0  0  0  0  0  0  0  0  0  0  0  0
  187.2480  178.1230  142.1240 C   0  0  0  0  0  3  0  0  0  0  0  0
  183.8940  178.6750  145.8440 C   0  0  0  0  0  3  0  0  0  0  0  0
  187.3110  178.1050  144.5460 C   0  0  0  0  0  3  0  0  0  0  0  0
  183.8300  178.6950  143.4200 C   0  0  0  0  0  3  0  0  0  0  0  0
  185.2080  178.4640  143.3800 C   0  0  0  0  0  0  0  0  0  0  0  0
  185.8690  178.3570  142.1560 C   0  0  0  0  0  3  0  0  0  0  0  0
  185.9350  178.3370  144.5850 C   0  0  0  0  0  0  0  0  0  0  0  0
  183.1740  178.8000  144.6510 C   0  0  0  0  0  3  0  0  0  0  0  0
  185.2740  178.4430  145.8120 C   0  0  0  0  0  3  0  0  0  0  0  0
  191.4540  177.4670  141.8940 C   0  0  0  0  0  2  0  0  0  0  0  0
  191.7520  177.1880  140.4550 C   0  0  0  0  0  0  0  0  0  0  0  0
  192.8500  177.4690  140.0020 O   0  0  0  0  0  0  0  0  0  0  0  0
  190.7300  176.5330  139.5820 C   0  0  0  0  0  2  0  0  0  0  0  0
  190.6390  177.2300  138.3050 N   0  0  0  0  0  0  0  0  0  0  0  0
  189.2370  177.5660  138.0980 C   0  0  1  0  0  3  0  0  0  0  0  0
  188.8360  178.7130  139.0070 C   0  0  0  0  0  2  0  0  0  0  0  0
  189.1320  178.9780  137.5480 C   0  0  2  0  0  3  0  0  0  0  0  0
  187.9310  179.1060  136.8510 O   0  0  0  0  0  1  0  0  0  0  0  0
  191.0010  176.2640  137.2760 C   0  0  0  0  0  2  0  0  0  0  0  0
  190.1230  175.0330  137.3990 C   0  0  0  0  0  2  0  0  0  0  0  0
  191.2000  173.9150  135.6560 C   0  0  0  0  0  1  0  0  0  0  0  0
  189.9190  174.4450  136.0870 N   0  0  0  0  0  2  0  0  0  0  0  0
  191.9300  176.9480  146.0220 O   0  0  0  0  0  0  0  0  0  0  0  0
  191.4310  176.7220  147.3360 C   0  0  0  0  0  2  0  0  0  0  0  0
  189.2950  177.8070  148.0160 C   0  0  0  0  0  1  0  0  0  0  0  0
  189.9150  176.6090  147.3250 C   0  0  0  0  0  2  0  0  0  0  0  0
  1  2  2  0  0  0  0
  2  6  1  0  0  0  0
  2  3  1  0  0  0  0
  3  5  1  0  0  0  0
  4  5  2  0  0  0  0
  5 29  1  0  0  0  0
  6  9  1  0  0  0  0
  7 12  1  0  0  0  0
  7  6  2  0  0  0  0
  9 13  2  0  0  0  0
 10 14  2  0  0  0  0
 11 10  1  0  0  0  0
 11 13  1  0  0  0  0
 12 11  2  0  0  0  0
 13 15  1  0  0  0  0
 14  8  1  0  0  0  0
 15  8  2  0  0  0  0
 16  1  1  0  0  0  0
 17 16  1  0  0  0  0
 18 17  2  0  0  0  0
 19 17  1  0  0  0  0
 20 19  1  0  0  0  0
 21 20  1  1  0  0  0
 21 22  1  0  0  0  0
 23 24  1  6  0  0  0
 23 21  1  0  0  0  0
 23 22  1  0  0  0  0
 25 26  1  0  0  0  0
 25 20  1  0  0  0  0
 27 28  1  0  0  0  0
 28 26  1  0  0  0  0
 29 30  1  0  0  0  0
 32 30  1  0  0  0  0
 32 31  1  0  0  0  0
M  END
>  <MODEL>
3

>  <REMARK>
 VINA RESULT:      -7.7      2.564      5.857
  Name = 
  12 active torsions:
  status: ('A' for Active; 'I' for Inactive)
    1  A    between atoms: N_1  and  C_4
    2  A    between atoms: C_2  and  C_5
    3  A    between atoms: C_3  and  N_20
    4  A    between atoms: C_4  and  C_24
    5  A    between atoms: C_13  and  O_18
    6  A    between atoms: C_13  and  C_29
    7  A    between atoms: C_15  and  N_20
    8  A    between atoms: C_15  and  C_26
    9  A    between atoms: C_16  and  N_20
   10  A    between atoms: C_16  and  C_24
   11  A    between atoms: O_18  and  C_30
   12  A    between atoms: N_19  and  C_26
                            x       y       z     vdW  Elec       q    Type
                         _______ _______ _______ _____ _____    ______ ____

>  <TORSDO>
F 12

$$$$
=
 OpenBabel10262421183D

 32 34  0  0  1  0  0  0  0  0999 V2000
  186.9690  178.3190  141.2520 N   0  0  0  0  0  0  0  0  0  0  0  0
  185.9300  178.2880  142.0420 C   0  0  0  0  0  0  0  0  0  0  0  0
  184.5990  178.1100  141.5320 N   0  0  0  0  0  2  0  0  0  0  0  0
  184.5970  179.8870  140.0130 O   0  0  0  0  0  0  0  0  0  0  0  0
  184.0130  178.8650  140.4630 C   0  0  0  0  0  0  0  0  0  0  0  0
  186.1340  178.3300  143.5030 C   0  0  0  0  0  0  0  0  0  0  0  0
  185.1630  178.9090  144.3330 C   0  0  0  0  0  3  0  0  0  0  0  0
  188.8050  177.3000  147.4200 C   0  0  0  0  0  3  0  0  0  0  0  0
  187.2930  177.7850  144.0790 C   0  0  0  0  0  3  0  0  0  0  0  0
  186.6720  178.4270  147.6760 C   0  0  0  0  0  3  0  0  0  0  0  0
  186.4900  178.3990  146.2910 C   0  0  0  0  0  0  0  0  0  0  0  0
  185.3390  178.9440  145.7200 C   0  0  0  0  0  3  0  0  0  0  0  0
  187.4760  177.8150  145.4630 C   0  0  0  0  0  0  0  0  0  0  0  0
  187.8290  177.8790  148.2400 C   0  0  0  0  0  3  0  0  0  0  0  0
  188.6290  177.2680  146.0330 C   0  0  0  0  0  3  0  0  0  0  0  0
  186.9420  178.1550  139.8020 C   0  0  0  0  0  2  0  0  0  0  0  0
  188.2870  178.4330  139.2100 C   0  0  0  0  0  0  0  0  0  0  0  0
  188.3670  178.8340  138.0600 O   0  0  0  0  0  0  0  0  0  0  0  0
  189.5270  178.2610  140.0290 C   0  0  0  0  0  2  0  0  0  0  0  0
  189.8200  176.8440  140.2040 N   0  0  0  0  0  0  0  0  0  0  0  0
  190.7890  176.7370  141.2870 C   0  0  1  0  0  3  0  0  0  0  0  0
  190.3970  177.6560  142.4300 C   0  0  0  0  0  2  0  0  0  0  0  0
  190.1070  176.1750  142.5220 C   0  0  2  0  0  3  0  0  0  0  0  0
  191.0640  175.5680  143.3340 O   0  0  0  0  0  1  0  0  0  0  0  0
  190.4910  176.4030  138.9890 C   0  0  0  0  0  2  0  0  0  0  0  0
  191.9300  176.8840  138.9960 C   0  0  0  0  0  2  0  0  0  0  0  0
  191.9140  174.9150  137.7430 C   0  0  0  0  0  1  0  0  0  0  0  0
  192.7220  176.0700  138.0920 N   0  0  0  0  0  2  0  0  0  0  0  0
  182.7710  178.5050  139.9400 O   0  0  0  0  0  0  0  0  0  0  0  0
  181.6820  178.1040  140.7640 C   0  0  0  0  0  2  0  0  0  0  0  0
  180.7870  178.7560  142.9940 C   0  0  0  0  0  1  0  0  0  0  0  0
  181.2020  179.2600  141.6260 C   0  0  0  0  0  2  0  0  0  0  0  0
  1  2  2  0  0  0  0
  2  6  1  0  0  0  0
  3  2  1  0  0  0  0
  4  5  2  0  0  0  0
  5  3  1  0  0  0  0
  6  9  2  0  0  0  0
  6  7  1  0  0  0  0
  7 12  2  0  0  0  0
  8 14  1  0  0  0  0
  9 13  1  0  0  0  0
 10 14  2  0  0  0  0
 11 10  1  0  0  0  0
 12 11  1  0  0  0  0
 13 15  1  0  0  0  0
 13 11  2  0  0  0  0
 15  8  2  0  0  0  0
 16  1  1  0  0  0  0
 17 16  1  0  0  0  0
 17 19  1  0  0  0  0
 18 17  2  0  0  0  0
 19 20  1  0  0  0  0
 21 20  1  6  0  0  0
 21 22  1  0  0  0  0
 21 23  1  0  0  0  0
 22 23  1  0  0  0  0
 23 24  1  1  0  0  0
 25 26  1  0  0  0  0
 25 20  1  0  0  0  0
 27 28  1  0  0  0  0
 28 26  1  0  0  0  0
 29  5  1  0  0  0  0
 29 30  1  0  0  0  0
 30 32  1  0  0  0  0
 32 31  1  0  0  0  0
M  END
>  <MODEL>
4

>  <REMARK>
 VINA RESULT:      -7.7      1.407      2.467
  Name = 
  12 active torsions:
  status: ('A' for Active; 'I' for Inactive)
    1  A    between atoms: N_1  and  C_4
    2  A    between atoms: C_2  and  C_5
    3  A    between atoms: C_3  and  N_20
    4  A    between atoms: C_4  and  C_24
    5  A    between atoms: C_13  and  O_18
    6  A    between atoms: C_13  and  C_29
    7  A    between atoms: C_15  and  N_20
    8  A    between atoms: C_15  and  C_26
    9  A    between atoms: C_16  and  N_20
   10  A    between atoms: C_16  and  C_24
   11  A    between atoms: O_18  and  C_30
   12  A    between atoms: N_19  and  C_26
                            x       y       z     vdW  Elec       q    Type
                         _______ _______ _______ _____ _____    ______ ____

>  <TORSDO>
F 12

$$$$
=
 OpenBabel10262421183D

 32 34  0  0  1  0  0  0  0  0999 V2000
  188.4200  177.4210  141.2830 N   0  0  0  0  0  0  0  0  0  0  0  0
  188.2920  177.5160  142.5780 C   0  0  0  0  0  0  0  0  0  0  0  0
  189.4220  177.4090  143.4590 N   0  0  0  0  0  2  0  0  0  0  0  0
  190.2080  175.3340  142.7210 O   0  0  0  0  0  0  0  0  0  0  0  0
  190.3960  176.3570  143.4320 C   0  0  0  0  0  0  0  0  0  0  0  0
  186.9720  177.8460  143.1490 C   0  0  0  0  0  0  0  0  0  0  0  0
  186.8170  177.9720  144.5380 C   0  0  0  0  0  3  0  0  0  0  0  0
  182.2720  178.9030  142.5730 C   0  0  0  0  0  3  0  0  0  0  0  0
  185.8610  178.0470  142.3130 C   0  0  0  0  0  3  0  0  0  0  0  0
  183.2270  178.8270  144.8010 C   0  0  0  0  0  3  0  0  0  0  0  0
  184.4720  178.4990  144.2570 C   0  0  0  0  0  0  0  0  0  0  0  0
  185.5730  178.2970  145.0900 C   0  0  0  0  0  3  0  0  0  0  0  0
  184.6170  178.3720  142.8570 C   0  0  0  0  0  0  0  0  0  0  0  0
  182.1280  179.0280  143.9590 C   0  0  0  0  0  3  0  0  0  0  0  0
  183.5150  178.5750  142.0210 C   0  0  0  0  0  3  0  0  0  0  0  0
  189.6760  177.2310  140.5630 C   0  0  0  0  0  2  0  0  0  0  0  0
  189.6260  177.8910  139.2220 C   0  0  0  0  0  0  0  0  0  0  0  0
  189.0010  178.9310  139.0850 O   0  0  0  0  0  0  0  0  0  0  0  0
  190.3660  177.3060  138.0600 C   0  0  0  0  0  2  0  0  0  0  0  0
  189.5490  176.2970  137.4000 N   0  0  0  0  0  0  0  0  0  0  0  0
  190.4540  175.4380  136.6470 C   0  0  1  0  0  3  0  0  0  0  0  0
  191.4810  174.8200  137.5770 C   0  0  0  0  0  2  0  0  0  0  0  0
  190.2950  174.0020  137.1170 C   0  0  2  0  0  3  0  0  0  0  0  0
  190.6980  173.1430  136.0960 O   0  0  0  0  0  1  0  0  0  0  0  0
  188.7220  176.9990  136.4280 C   0  0  0  0  0  2  0  0  0  0  0  0
  187.3010  176.4690  136.4880 C   0  0  0  0  0  2  0  0  0  0  0  0
  185.1320  177.1470  137.0200 C   0  0  0  0  0  1  0  0  0  0  0  0
  186.5230  177.2630  137.4220 N   0  0  0  0  0  2  0  0  0  0  0  0
  191.5410  176.4330  144.2260 O   0  0  0  0  0  0  0  0  0  0  0  0
  191.6240  177.2780  145.3680 C   0  0  0  0  0  2  0  0  0  0  0  0
  189.8730  176.9420  147.1070 C   0  0  0  0  0  1  0  0  0  0  0  0
  191.2500  176.5190  146.6310 C   0  0  0  0  0  2  0  0  0  0  0  0
  1  2  2  0  0  0  0
  2  6  1  0  0  0  0
  2  3  1  0  0  0  0
  4  5  2  0  0  0  0
  5  3  1  0  0  0  0
  5 29  1  0  0  0  0
  6  7  1  0  0  0  0
  7 12  2  0  0  0  0
  8 14  1  0  0  0  0
  9 13  1  0  0  0  0
  9  6  2  0  0  0  0
 11 10  1  0  0  0  0
 11 12  1  0  0  0  0
 13 11  2  0  0  0  0
 14 10  2  0  0  0  0
 15  8  2  0  0  0  0
 15 13  1  0  0  0  0
 16  1  1  0  0  0  0
 17 16  1  0  0  0  0
 18 17  2  0  0  0  0
 19 17  1  0  0  0  0
 20 19  1  0  0  0  0
 21 23  1  0  0  0  0
 21 20  1  1  0  0  0
 21 22  1  0  0  0  0
 23 24  1  6  0  0  0
 23 22  1  0  0  0  0
 25 26  1  0  0  0  0
 25 20  1  0  0  0  0
 26 28  1  0  0  0  0
 27 28  1  0  0  0  0
 29 30  1  0  0  0  0
 30 32  1  0  0  0  0
 32 31  1  0  0  0  0
M  END
>  <MODEL>
5

>  <REMARK>
 VINA RESULT:      -7.7      2.439      5.769
  Name = 
  12 active torsions:
  status: ('A' for Active; 'I' for Inactive)
    1  A    between atoms: N_1  and  C_4
    2  A    between atoms: C_2  and  C_5
    3  A    between atoms: C_3  and  N_20
    4  A    between atoms: C_4  and  C_24
    5  A    between atoms: C_13  and  O_18
    6  A    between atoms: C_13  and  C_29
    7  A    between atoms: C_15  and  N_20
    8  A    between atoms: C_15  and  C_26
    9  A    between atoms: C_16  and  N_20
   10  A    between atoms: C_16  and  C_24
   11  A    between atoms: O_18  and  C_30
   12  A    between atoms: N_19  and  C_26
                            x       y       z     vdW  Elec       q    Type
                         _______ _______ _______ _____ _____    ______ ____

>  <TORSDO>
F 12

$$$$
=
 OpenBabel10262421183D

 32 34  0  0  1  0  0  0  0  0999 V2000
  184.5680  178.7630  142.3890 N   0  0  0  0  0  0  0  0  0  0  0  0
  184.1670  178.4880  143.5990 C   0  0  0  0  0  0  0  0  0  0  0  0
  182.7910  178.1960  143.8920 N   0  0  0  0  0  2  0  0  0  0  0  0
  181.8530  180.1370  142.9890 O   0  0  0  0  0  0  0  0  0  0  0  0
  181.6710  178.9960  143.4890 C   0  0  0  0  0  0  0  0  0  0  0  0
  185.1660  178.3680  144.6790 C   0  0  0  0  0  0  0  0  0  0  0  0
  184.8310  178.7350  145.9920 C   0  0  0  0  0  3  0  0  0  0  0  0
  189.6060  177.1390  146.2010 C   0  0  0  0  0  3  0  0  0  0  0  0
  186.4540  177.8780  144.4100 C   0  0  0  0  0  3  0  0  0  0  0  0
  187.9820  177.9980  147.7850 C   0  0  0  0  0  3  0  0  0  0  0  0
  187.0450  178.1250  146.7570 C   0  0  0  0  0  0  0  0  0  0  0  0
  185.7660  178.6140  147.0260 C   0  0  0  0  0  3  0  0  0  0  0  0
  187.3920  177.7540  145.4380 C   0  0  0  0  0  0  0  0  0  0  0  0
  189.2620  177.5060  147.5070 C   0  0  0  0  0  3  0  0  0  0  0  0
  188.6720  177.2620  145.1670 C   0  0  0  0  0  3  0  0  0  0  0  0
  183.7250  178.7870  141.1970 C   0  0  0  0  0  2  0  0  0  0  0  0
  184.5440  179.0400  139.9710 C   0  0  0  0  0  0  0  0  0  0  0  0
  184.4830  180.1270  139.4200 O   0  0  0  0  0  0  0  0  0  0  0  0
  185.4620  177.9850  139.4410 C   0  0  0  0  0  2  0  0  0  0  0  0
  186.7710  178.5560  139.1550 N   0  0  0  0  0  0  0  0  0  0  0  0
  187.3510  177.7770  138.0690 C   0  0  1  0  0  3  0  0  0  0  0  0
  186.3200  177.5520  136.9790 C   0  0  0  0  0  2  0  0  0  0  0  0
  187.3790  178.6160  136.8030 C   0  0  2  0  0  3  0  0  0  0  0  0
  188.3790  178.1350  135.9600 O   0  0  0  0  0  1  0  0  0  0  0  0
  187.5960  178.3210  140.3320 C   0  0  0  0  0  2  0  0  0  0  0  0
  189.0630  178.3530  139.9440 C   0  0  0  0  0  2  0  0  0  0  0  0
  190.7620  176.7570  139.8520 C   0  0  0  0  0  1  0  0  0  0  0  0
  189.8000  177.3870  140.7380 N   0  0  0  0  0  2  0  0  0  0  0  0
  180.3670  178.5390  143.6870 O   0  0  0  0  0  0  0  0  0  0  0  0
  179.3090  178.8340  142.7830 C   0  0  0  0  0  2  0  0  0  0  0  0
  179.8590  178.6790  140.3580 C   0  0  0  0  0  1  0  0  0  0  0  0
  179.3630  177.9160  141.5710 C   0  0  0  0  0  2  0  0  0  0  0  0
  1  2  2  0  0  0  0
  2  3  1  0  0  0  0
  2  6  1  0  0  0  0
  4  5  2  0  0  0  0
  5 29  1  0  0  0  0
  5  3  1  0  0  0  0
  6  7  1  0  0  0  0
  7 12  2  0  0  0  0
  8 14  1  0  0  0  0
  9  6  2  0  0  0  0
  9 13  1  0  0  0  0
 11 12  1  0  0  0  0
 11 10  1  0  0  0  0
 13 11  2  0  0  0  0
 14 10  2  0  0  0  0
 15 13  1  0  0  0  0
 15  8  2  0  0  0  0
 16  1  1  0  0  0  0
 17 16  1  0  0  0  0
 18 17  2  0  0  0  0
 19 17  1  0  0  0  0
 20 19  1  0  0  0  0
 20 25  1  0  0  0  0
 21 20  1  1  0  0  0
 22 21  1  0  0  0  0
 23 24  1  6  0  0  0
 23 22  1  0  0  0  0
 23 21  1  0  0  0  0
 26 25  1  0  0  0  0
 26 28  1  0  0  0  0
 27 28  1  0  0  0  0
 30 29  1  0  0  0  0
 31 32  1  0  0  0  0
 32 30  1  0  0  0  0
M  END
>  <MODEL>
6

>  <REMARK>
 VINA RESULT:      -7.5      1.892      3.293
  Name = 
  12 active torsions:
  status: ('A' for Active; 'I' for Inactive)
    1  A    between atoms: N_1  and  C_4
    2  A    between atoms: C_2  and  C_5
    3  A    between atoms: C_3  and  N_20
    4  A    between atoms: C_4  and  C_24
    5  A    between atoms: C_13  and  O_18
    6  A    between atoms: C_13  and  C_29
    7  A    between atoms: C_15  and  N_20
    8  A    between atoms: C_15  and  C_26
    9  A    between atoms: C_16  and  N_20
   10  A    between atoms: C_16  and  C_24
   11  A    between atoms: O_18  and  C_30
   12  A    between atoms: N_19  and  C_26
                            x       y       z     vdW  Elec       q    Type
                         _______ _______ _______ _____ _____    ______ ____

>  <TORSDO>
F 12

$$$$
=
 OpenBabel10262421183D

 32 34  0  0  1  0  0  0  0  0999 V2000
  188.6870  177.5720  141.5420 N   0  0  0  0  0  0  0  0  0  0  0  0
  188.4880  177.5690  142.8310 C   0  0  0  0  0  0  0  0  0  0  0  0
  189.5660  177.3830  143.7620 N   0  0  0  0  0  2  0  0  0  0  0  0
  190.3780  175.3620  142.9110 O   0  0  0  0  0  0  0  0  0  0  0  0
  190.5330  176.3260  143.7070 C   0  0  0  0  0  0  0  0  0  0  0  0
  187.1400  177.8700  143.3530 C   0  0  0  0  0  0  0  0  0  0  0  0
  186.9180  177.9300  144.7370 C   0  0  0  0  0  3  0  0  0  0  0  0
  182.4690  178.9440  142.6020 C   0  0  0  0  0  3  0  0  0  0  0  0
  186.0700  178.1080  142.4750 C   0  0  0  0  0  3  0  0  0  0  0  0
  183.3160  178.7640  144.8670 C   0  0  0  0  0  3  0  0  0  0  0  0
  184.5870  178.4640  144.3690 C   0  0  0  0  0  0  0  0  0  0  0  0
  185.6480  178.2250  145.2430 C   0  0  0  0  0  3  0  0  0  0  0  0
  184.8000  178.4050  142.9730 C   0  0  0  0  0  0  0  0  0  0  0  0
  182.2580  179.0030  143.9830 C   0  0  0  0  0  3  0  0  0  0  0  0
  183.7390  178.6450  142.0960 C   0  0  0  0  0  3  0  0  0  0  0  0
  189.9790  177.4240  140.8780 C   0  0  0  0  0  2  0  0  0  0  0  0
  189.8220  177.4600  139.3920 C   0  0  0  0  0  0  0  0  0  0  0  0
  189.4370  178.4850  138.8510 O   0  0  0  0  0  0  0  0  0  0  0  0
  190.1700  176.2640  138.5630 C   0  0  0  0  0  2  0  0  0  0  0  0
  190.0350  176.5780  137.1460 N   0  0  0  0  0  0  0  0  0  0  0  0
  189.0540  175.6530  136.5930 C   0  0  1  0  0  3  0  0  0  0  0  0
  187.6510  176.0990  136.9620 C   0  0  0  0  0  2  0  0  0  0  0  0
  188.1900  176.3800  135.5770 C   0  0  2  0  0  3  0  0  0  0  0  0
  187.6630  175.4520  134.6820 O   0  0  0  0  0  1  0  0  0  0  0  0
  191.3140  176.2630  136.5240 C   0  0  0  0  0  2  0  0  0  0  0  0
  192.3360  175.9320  137.5960 C   0  0  0  0  0  2  0  0  0  0  0  0
  194.2940  176.0340  136.3310 C   0  0  0  0  0  1  0  0  0  0  0  0
  193.5440  176.7070  137.3760 N   0  0  0  0  0  2  0  0  0  0  0  0
  191.6330  176.3280  144.5660 O   0  0  0  0  0  0  0  0  0  0  0  0
  191.6800  177.1220  145.7460 C   0  0  0  0  0  2  0  0  0  0  0  0
  192.4300  175.6290  147.5920 C   0  0  0  0  0  1  0  0  0  0  0  0
  191.2370  176.3170  146.9570 C   0  0  0  0  0  2  0  0  0  0  0  0
  1  2  2  0  0  0  0
  2  6  1  0  0  0  0
  2  3  1  0  0  0  0
  4  5  2  0  0  0  0
  5  3  1  0  0  0  0
  5 29  1  0  0  0  0
  6  7  1  0  0  0  0
  7 12  2  0  0  0  0
  8 14  1  0  0  0  0
  9 13  1  0  0  0  0
  9  6  2  0  0  0  0
 11 10  1  0  0  0  0
 11 12  1  0  0  0  0
 13 11  2  0  0  0  0
 14 10  2  0  0  0  0
 15  8  2  0  0  0  0
 15 13  1  0  0  0  0
 16  1  1  0  0  0  0
 17 16  1  0  0  0  0
 18 17  2  0  0  0  0
 19 17  1  0  0  0  0
 20 19  1  0  0  0  0
 21 22  1  0  0  0  0
 21 20  1  1  0  0  0
 23 24  1  6  0  0  0
 23 21  1  0  0  0  0
 23 22  1  0  0  0  0
 25 20  1  0  0  0  0
 25 26  1  0  0  0  0
 27 28  1  0  0  0  0
 28 26  1  0  0  0  0
 29 30  1  0  0  0  0
 30 32  1  0  0  0  0
 32 31  1  0  0  0  0
M  END
>  <MODEL>
7

>  <REMARK>
 VINA RESULT:      -7.5      2.575      5.856
  Name = 
  12 active torsions:
  status: ('A' for Active; 'I' for Inactive)
    1  A    between atoms: N_1  and  C_4
    2  A    between atoms: C_2  and  C_5
    3  A    between atoms: C_3  and  N_20
    4  A    between atoms: C_4  and  C_24
    5  A    between atoms: C_13  and  O_18
    6  A    between atoms: C_13  and  C_29
    7  A    between atoms: C_15  and  N_20
    8  A    between atoms: C_15  and  C_26
    9  A    between atoms: C_16  and  N_20
   10  A    between atoms: C_16  and  C_24
   11  A    between atoms: O_18  and  C_30
   12  A    between atoms: N_19  and  C_26
                            x       y       z     vdW  Elec       q    Type
                         _______ _______ _______ _____ _____    ______ ____

>  <TORSDO>
F 12

$$$$
=
 OpenBabel10262421183D

 32 34  0  0  1  0  0  0  0  0999 V2000
  186.5590  178.4280  140.5370 N   0  0  0  0  0  0  0  0  0  0  0  0
  185.4590  178.5520  141.2290 C   0  0  0  0  0  0  0  0  0  0  0  0
  184.1680  178.5610  140.5990 N   0  0  0  0  0  2  0  0  0  0  0  0
  184.5580  180.3060  139.0930 O   0  0  0  0  0  0  0  0  0  0  0  0
  183.7960  179.3820  139.4840 C   0  0  0  0  0  0  0  0  0  0  0  0
  185.5340  178.5780  142.7020 C   0  0  0  0  0  0  0  0  0  0  0  0
  184.4880  179.1410  143.4500 C   0  0  0  0  0  3  0  0  0  0  0  0
  187.8570  177.5200  146.8280 C   0  0  0  0  0  3  0  0  0  0  0  0
  186.6420  178.0340  143.3720 C   0  0  0  0  0  3  0  0  0  0  0  0
  185.7020  178.6290  146.9080 C   0  0  0  0  0  3  0  0  0  0  0  0
  185.6420  178.6170  145.5110 C   0  0  0  0  0  0  0  0  0  0  0  0
  184.5420  179.1600  144.8480 C   0  0  0  0  0  3  0  0  0  0  0  0
  186.7020  178.0490  144.7670 C   0  0  0  0  0  0  0  0  0  0  0  0
  186.8080  178.0810  147.5650 C   0  0  0  0  0  3  0  0  0  0  0  0
  187.8040  177.5030  145.4300 C   0  0  0  0  0  3  0  0  0  0  0  0
  186.6410  178.2560  139.0900 C   0  0  0  0  0  2  0  0  0  0  0  0
  188.0100  178.5920  138.5910 C   0  0  0  0  0  0  0  0  0  0  0  0
  188.1460  179.0600  137.4720 O   0  0  0  0  0  0  0  0  0  0  0  0
  189.2070  178.3940  139.4670 C   0  0  0  0  0  2  0  0  0  0  0  0
  189.3290  176.9910  139.8420 N   0  0  0  0  0  0  0  0  0  0  0  0
  190.3340  176.9140  140.8940 C   0  0  1  0  0  3  0  0  0  0  0  0
  189.9750  177.8570  142.0280 C   0  0  0  0  0  2  0  0  0  0  0  0
  189.6960  176.3770  142.1640 C   0  0  2  0  0  3  0  0  0  0  0  0
  190.6820  175.7940  142.9570 O   0  0  0  0  0  1  0  0  0  0  0  0
  189.8720  176.2950  138.6840 C   0  0  0  0  0  2  0  0  0  0  0  0
  191.3770  176.4830  138.6340 C   0  0  0  0  0  2  0  0  0  0  0  0
  193.2710  176.3720  137.2750 C   0  0  0  0  0  1  0  0  0  0  0  0
  191.9020  175.9080  137.4080 N   0  0  0  0  0  2  0  0  0  0  0  0
  182.5680  179.1980  138.8480 O   0  0  0  0  0  0  0  0  0  0  0  0
  181.7200  180.2850  138.4940 C   0  0  0  0  0  2  0  0  0  0  0  0
  181.2440  179.0520  136.3840 C   0  0  0  0  0  1  0  0  0  0  0  0
  180.6340  179.8330  137.5320 C   0  0  0  0  0  2  0  0  0  0  0  0
  1  2  2  0  0  0  0
  2  6  1  0  0  0  0
  3  2  1  0  0  0  0
  4  5  2  0  0  0  0
  5  3  1  0  0  0  0
  6  9  2  0  0  0  0
  6  7  1  0  0  0  0
  7 12  2  0  0  0  0
  8 14  1  0  0  0  0
  9 13  1  0  0  0  0
 10 14  2  0  0  0  0
 11 10  1  0  0  0  0
 12 11  1  0  0  0  0
 13 15  1  0  0  0  0
 13 11  2  0  0  0  0
 15  8  2  0  0  0  0
 16  1  1  0  0  0  0
 17 16  1  0  0  0  0
 17 19  1  0  0  0  0
 18 17  2  0  0  0  0
 19 20  1  0  0  0  0
 21 20  1  6  0  0  0
 21 22  1  0  0  0  0
 21 23  1  0  0  0  0
 22 23  1  0  0  0  0
 23 24  1  1  0  0  0
 25 20  1  0  0  0  0
 26 25  1  0  0  0  0
 27 28  1  0  0  0  0
 28 26  1  0  0  0  0
 29  5  1  0  0  0  0
 30 29  1  0  0  0  0
 31 32  1  0  0  0  0
 32 30  1  0  0  0  0
M  END
>  <MODEL>
8

>  <REMARK>
 VINA RESULT:      -7.4      1.991      3.142
  Name = 
  12 active torsions:
  status: ('A' for Active; 'I' for Inactive)
    1  A    between atoms: N_1  and  C_4
    2  A    between atoms: C_2  and  C_5
    3  A    between atoms: C_3  and  N_20
    4  A    between atoms: C_4  and  C_24
    5  A    between atoms: C_13  and  O_18
    6  A    between atoms: C_13  and  C_29
    7  A    between atoms: C_15  and  N_20
    8  A    between atoms: C_15  and  C_26
    9  A    between atoms: C_16  and  N_20
   10  A    between atoms: C_16  and  C_24
   11  A    between atoms: O_18  and  C_30
   12  A    between atoms: N_19  and  C_26
                            x       y       z     vdW  Elec       q    Type
                         _______ _______ _______ _____ _____    ______ ____

>  <TORSDO>
F 12

$$$$
=
 OpenBabel10262421183D

 32 34  0  0  1  0  0  0  0  0999 V2000
  182.9800  178.6890  143.5890 N   0  0  0  0  0  0  0  0  0  0  0  0
  184.2690  178.7950  143.4190 C   0  0  0  0  0  0  0  0  0  0  0  0
  184.8340  179.2240  142.1700 N   0  0  0  0  0  2  0  0  0  0  0  0
  183.8120  177.6340  140.7930 O   0  0  0  0  0  0  0  0  0  0  0  0
  184.5080  178.6800  140.8840 C   0  0  0  0  0  0  0  0  0  0  0  0
  185.1670  178.5710  144.5680 C   0  0  0  0  0  0  0  0  0  0  0  0
  184.7260  178.8450  145.8710 C   0  0  0  0  0  3  0  0  0  0  0  0
  189.4380  177.1300  146.3650 C   0  0  0  0  0  3  0  0  0  0  0  0
  186.4670  178.0740  144.3740 C   0  0  0  0  0  3  0  0  0  0  0  0
  187.6960  177.9030  147.8660 C   0  0  0  0  0  3  0  0  0  0  0  0
  186.8540  178.1290  146.7740 C   0  0  0  0  0  0  0  0  0  0  0  0
  185.5650  178.6250  146.9690 C   0  0  0  0  0  3  0  0  0  0  0  0
  187.3090  177.8510  145.4650 C   0  0  0  0  0  0  0  0  0  0  0  0
  188.9880  177.4050  147.6610 C   0  0  0  0  0  3  0  0  0  0  0  0
  188.6000  177.3530  145.2670 C   0  0  0  0  0  3  0  0  0  0  0  0
  181.9600  179.0040  142.5920 C   0  0  0  0  0  2  0  0  0  0  0  0
  180.5880  178.7850  143.1460 C   0  0  0  0  0  0  0  0  0  0  0  0
  180.4450  178.5990  144.3430 O   0  0  0  0  0  0  0  0  0  0  0  0
  179.3920  178.8300  142.2480 C   0  0  0  0  0  2  0  0  0  0  0  0
  179.8120  178.8890  140.8550 N   0  0  0  0  0  0  0  0  0  0  0  0
  179.0720  179.9780  140.2290 C   0  0  1  0  0  3  0  0  0  0  0  0
  179.2140  181.2440  141.0530 C   0  0  0  0  0  2  0  0  0  0  0  0
  180.0410  181.0660  139.8000 C   0  0  2  0  0  3  0  0  0  0  0  0
  179.4690  181.8010  138.7630 O   0  0  0  0  0  1  0  0  0  0  0  0
  179.3590  177.6540  140.2290 C   0  0  0  0  0  2  0  0  0  0  0  0
  180.4270  177.1380  139.2830 C   0  0  0  0  0  2  0  0  0  0  0  0
  180.0210  174.9310  139.9230 C   0  0  0  0  0  1  0  0  0  0  0  0
  181.0490  175.9530  139.8460 N   0  0  0  0  0  2  0  0  0  0  0  0
  184.9950  179.2750  139.7190 O   0  0  0  0  0  0  0  0  0  0  0  0
  184.9260  178.6380  138.4490 C   0  0  0  0  0  2  0  0  0  0  0  0
  186.2470  176.9170  137.2250 C   0  0  0  0  0  1  0  0  0  0  0  0
  186.3120  178.2360  137.9700 C   0  0  0  0  0  2  0  0  0  0  0  0
  2  1  2  0  0  0  0
  2  6  1  0  0  0  0
  3  2  1  0  0  0  0
  4  5  2  0  0  0  0
  5  3  1  0  0  0  0
  6  7  1  0  0  0  0
  7 12  2  0  0  0  0
  8 14  1  0  0  0  0
  9  6  2  0  0  0  0
  9 13  1  0  0  0  0
 11 12  1  0  0  0  0
 11 10  1  0  0  0  0
 13 11  2  0  0  0  0
 14 10  2  0  0  0  0
 15 13  1  0  0  0  0
 15  8  2  0  0  0  0
 16 17  1  0  0  0  0
 16  1  1  0  0  0  0
 17 18  2  0  0  0  0
 19 17  1  0  0  0  0
 20 19  1  0  0  0  0
 21 20  1  1  0  0  0
 21 22  1  0  0  0  0
 23 24  1  6  0  0  0
 23 21  1  0  0  0  0
 23 22  1  0  0  0  0
 25 20  1  0  0  0  0
 26 28  1  0  0  0  0
 26 25  1  0  0  0  0
 28 27  1  0  0  0  0
 29  5  1  0  0  0  0
 30 29  1  0  0  0  0
 31 32  1  0  0  0  0
 32 30  1  0  0  0  0
M  END
>  <MODEL>
9

>  <REMARK>
 VINA RESULT:      -7.4      3.512      7.690
  Name = 
  12 active torsions:
  status: ('A' for Active; 'I' for Inactive)
    1  A    between atoms: N_1  and  C_4
    2  A    between atoms: C_2  and  C_5
    3  A    between atoms: C_3  and  N_20
    4  A    between atoms: C_4  and  C_24
    5  A    between atoms: C_13  and  O_18
    6  A    between atoms: C_13  and  C_29
    7  A    between atoms: C_15  and  N_20
    8  A    between atoms: C_15  and  C_26
    9  A    between atoms: C_16  and  N_20
   10  A    between atoms: C_16  and  C_24
   11  A    between atoms: O_18  and  C_30
   12  A    between atoms: N_19  and  C_26
                            x       y       z     vdW  Elec       q    Type
                         _______ _______ _______ _____ _____    ______ ____

>  <TORSDO>
F 12

$$$$
