=
 OpenBabel10262420073D

 27 31  0  0  1  0  0  0  0  0999 V2000
  187.4050  178.4550  142.0450 N   0  0  0  0  0  2  0  0  0  0  0  0
  187.8310  177.5590  144.2490 C   0  0  0  0  0  0  0  0  0  0  0  0
  189.3910  176.3230  142.8130 O   0  0  0  0  0  0  0  0  0  0  0  0
  190.4770  177.1820  147.4630 C   0  0  0  0  0  3  0  0  0  0  0  0
  192.5300  176.3670  148.3600 F   0  0  0  0  0  0  0  0  0  0  0  0
  187.5530  178.1150  145.5070 C   0  0  0  0  0  3  0  0  0  0  0  0
  191.1410  176.0470  144.9910 C   0  0  0  0  0  3  0  0  0  0  0  0
  190.4410  177.1790  139.3920 C   0  0  0  0  0  0  0  0  0  0  0  0
  192.0130  175.9220  146.0760 C   0  0  0  0  0  3  0  0  0  0  0  0
  191.3890  176.7390  138.4790 O   0  0  0  0  0  1  0  0  0  0  0  0
  189.9300  176.7360  145.1340 C   0  0  0  0  0  0  0  0  0  0  0  0
  186.8550  177.6440  143.1140 C   0  0  1  0  0  3  0  0  0  0  0  0
  191.6820  176.4890  147.3110 C   0  0  0  0  0  0  0  0  0  0  0  0
  189.6010  177.3090  146.3820 C   0  0  0  0  0  0  0  0  0  0  0  0
  188.5010  178.0440  141.2260 C   0  0  0  0  0  0  0  0  0  0  0  0
  189.0470  176.8840  144.0530 C   0  0  0  0  0  0  0  0  0  0  0  0
  190.3160  176.5440  140.6280 C   0  0  0  0  0  3  0  0  0  0  0  0
  188.4330  177.9830  146.5330 N   0  0  0  0  0  0  0  0  0  0  0  0
  189.6200  178.2600  139.0790 C   0  0  0  0  0  3  0  0  0  0  0  0
  188.6530  178.6840  139.9910 C   0  0  0  0  0  3  0  0  0  0  0  0
  189.3720  176.9750  141.5690 C   0  0  0  0  0  0  0  0  0  0  0  0
  182.8980  178.9660  144.1710 C   0  0  0  0  0  3  0  0  0  0  0  0
  185.4830  178.1210  143.4980 C   0  0  0  0  0  0  0  0  0  0  0  0
  184.5180  178.2930  142.5000 C   0  0  0  0  0  3  0  0  0  0  0  0
  183.2280  178.7170  142.8350 C   0  0  0  0  0  3  0  0  0  0  0  0
  183.8570  178.7920  145.1720 C   0  0  0  0  0  3  0  0  0  0  0  0
  185.1470  178.3670  144.8380 C   0  0  0  0  0  3  0  0  0  0  0  0
  1 12  1  0  0  0  0
  2  6  1  0  0  0  0
  3 16  1  0  0  0  0
  6 18  2  0  0  0  0
  7 11  2  0  0  0  0
  7  9  1  0  0  0  0
  8 17  1  0  0  0  0
  9 13  2  0  0  0  0
 10  8  1  0  0  0  0
 11 14  1  0  0  0  0
 12 23  1  1  0  0  0
 12  2  1  0  0  0  0
 13  4  1  0  0  0  0
 13  5  1  0  0  0  0
 14 18  1  0  0  0  0
 14  4  2  0  0  0  0
 15 21  1  0  0  0  0
 15  1  1  0  0  0  0
 16  2  2  0  0  0  0
 16 11  1  0  0  0  0
 17 21  2  0  0  0  0
 19  8  2  0  0  0  0
 19 20  1  0  0  0  0
 20 15  2  0  0  0  0
 21  3  1  0  0  0  0
 22 26  1  0  0  0  0
 23 27  1  0  0  0  0
 24 25  1  0  0  0  0
 24 23  2  0  0  0  0
 25 22  2  0  0  0  0
 27 26  2  0  0  0  0
M  END
>  <MODEL>
1

>  <REMARK>
 VINA RESULT:     -11.3      0.000      0.000
  Name = 
  1 active torsions:
  status: ('A' for Active; 'I' for Inactive)
    1  A    between atoms: C_9  and  C_15
                            x       y       z     vdW  Elec       q    Type
                         _______ _______ _______ _____ _____    ______ ____

>  <TORSDO>
F 1

$$$$
=
 OpenBabel10262420073D

 27 31  0  0  1  0  0  0  0  0999 V2000
  186.2180  178.6170  141.7870 N   0  0  0  0  0  2  0  0  0  0  0  0
  185.9640  178.1640  144.1470 C   0  0  0  0  0  0  0  0  0  0  0  0
  187.9430  176.8560  143.5200 O   0  0  0  0  0  0  0  0  0  0  0  0
  187.4780  178.6140  148.0190 C   0  0  0  0  0  3  0  0  0  0  0  0
  189.1740  178.1730  149.6340 F   0  0  0  0  0  0  0  0  0  0  0  0
  185.2830  178.9010  145.1290 C   0  0  0  0  0  3  0  0  0  0  0  0
  188.9290  177.1360  146.1340 C   0  0  0  0  0  3  0  0  0  0  0  0
  189.9810  177.2010  140.4760 C   0  0  0  0  0  0  0  0  0  0  0  0
  189.4190  177.2890  147.4340 C   0  0  0  0  0  3  0  0  0  0  0  0
  191.1850  176.7040  139.9960 O   0  0  0  0  0  1  0  0  0  0  0  0
  187.7080  177.7180  145.7680 C   0  0  0  0  0  0  0  0  0  0  0  0
  185.3920  177.9540  142.7780 C   0  0  1  0  0  3  0  0  0  0  0  0
  188.6950  178.0270  148.3750 C   0  0  0  0  0  0  0  0  0  0  0  0
  186.9810  178.4640  146.7210 C   0  0  0  0  0  0  0  0  0  0  0  0
  187.5320  178.1790  141.4340 C   0  0  0  0  0  0  0  0  0  0  0  0
  187.2050  177.5880  144.4630 C   0  0  0  0  0  0  0  0  0  0  0  0
  189.4990  176.7820  141.7170 C   0  0  0  0  0  3  0  0  0  0  0  0
  185.8000  179.0370  146.3780 N   0  0  0  0  0  0  0  0  0  0  0  0
  189.2590  178.1250  139.7250 C   0  0  0  0  0  3  0  0  0  0  0  0
  188.0390  178.6050  140.2020 C   0  0  0  0  0  3  0  0  0  0  0  0
  188.2910  177.2760  142.2260 C   0  0  0  0  0  0  0  0  0  0  0  0
  181.2560  179.0510  142.3070 C   0  0  0  0  0  3  0  0  0  0  0  0
  183.9520  178.3550  142.6290 C   0  0  0  0  0  0  0  0  0  0  0  0
  183.3750  178.3650  141.3540 C   0  0  0  0  0  3  0  0  0  0  0  0
  182.0310  178.7150  141.1920 C   0  0  0  0  0  3  0  0  0  0  0  0
  181.8260  179.0380  143.5830 C   0  0  0  0  0  3  0  0  0  0  0  0
  183.1690  178.6880  143.7460 C   0  0  0  0  0  3  0  0  0  0  0  0
  1 12  1  0  0  0  0
  2 16  2  0  0  0  0
  2  6  1  0  0  0  0
  3 16  1  0  0  0  0
  4 13  1  0  0  0  0
  6 18  2  0  0  0  0
  7  9  1  0  0  0  0
  8 17  1  0  0  0  0
  9 13  2  0  0  0  0
 10  8  1  0  0  0  0
 11  7  2  0  0  0  0
 11 14  1  0  0  0  0
 12 23  1  1  0  0  0
 12  2  1  0  0  0  0
 13  5  1  0  0  0  0
 14  4  2  0  0  0  0
 15  1  1  0  0  0  0
 15 21  1  0  0  0  0
 16 11  1  0  0  0  0
 17 21  2  0  0  0  0
 18 14  1  0  0  0  0
 19 20  1  0  0  0  0
 19  8  2  0  0  0  0
 20 15  2  0  0  0  0
 21  3  1  0  0  0  0
 22 26  1  0  0  0  0
 23 27  1  0  0  0  0
 24 23  2  0  0  0  0
 25 24  1  0  0  0  0
 25 22  2  0  0  0  0
 26 27  2  0  0  0  0
M  END
>  <MODEL>
2

>  <REMARK>
 VINA RESULT:     -11.1      1.649      2.264
  Name = 
  1 active torsions:
  status: ('A' for Active; 'I' for Inactive)
    1  A    between atoms: C_9  and  C_15
                            x       y       z     vdW  Elec       q    Type
                         _______ _______ _______ _____ _____    ______ ____

>  <TORSDO>
F 1

$$$$
=
 OpenBabel10262420073D

 27 31  0  0  1  0  0  0  0  0999 V2000
  189.7460  178.2370  141.5180 N   0  0  0  0  0  2  0  0  0  0  0  0
  187.3340  178.0880  141.5600 C   0  0  0  0  0  0  0  0  0  0  0  0
  188.0120  177.0590  143.6810 O   0  0  0  0  0  0  0  0  0  0  0  0
  183.7430  179.3340  143.3010 C   0  0  0  0  0  3  0  0  0  0  0  0
  182.2860  179.4210  145.1860 F   0  0  0  0  0  0  0  0  0  0  0  0
  186.3810  178.8310  140.8450 C   0  0  0  0  0  3  0  0  0  0  0  0
  185.5800  177.8700  144.8270 C   0  0  0  0  0  3  0  0  0  0  0  0
  191.2840  177.3070  145.3460 C   0  0  0  0  0  0  0  0  0  0  0  0
  184.3720  178.2870  145.3930 C   0  0  0  0  0  3  0  0  0  0  0  0
  191.8300  176.9580  146.5730 O   0  0  0  0  0  1  0  0  0  0  0  0
  185.8760  178.1790  143.4930 C   0  0  0  0  0  0  0  0  0  0  0  0
  188.5930  177.5920  140.9180 C   0  0  1  0  0  3  0  0  0  0  0  0
  183.4550  179.0180  144.6330 C   0  0  0  0  0  0  0  0  0  0  0  0
  184.9480  178.9190  142.7280 C   0  0  0  0  0  0  0  0  0  0  0  0
  190.1870  177.9820  142.8530 C   0  0  0  0  0  0  0  0  0  0  0  0
  187.0900  177.7810  142.9080 C   0  0  0  0  0  0  0  0  0  0  0  0
  189.9540  176.9930  145.0600 C   0  0  0  0  0  3  0  0  0  0  0  0
  185.2250  179.2290  141.4360 N   0  0  0  0  0  0  0  0  0  0  0  0
  192.0580  177.9800  144.4040 C   0  0  0  0  0  3  0  0  0  0  0  0
  191.5110  178.3090  143.1630 C   0  0  0  0  0  3  0  0  0  0  0  0
  189.3790  177.3430  143.8320 C   0  0  0  0  0  0  0  0  0  0  0  0
  188.6330  177.9260  136.6260 C   0  0  0  0  0  3  0  0  0  0  0  0
  188.6290  177.7180  139.4210 C   0  0  0  0  0  0  0  0  0  0  0  0
  188.1380  176.6680  138.6370 C   0  0  0  0  0  3  0  0  0  0  0  0
  188.1410  176.7700  137.2420 C   0  0  0  0  0  3  0  0  0  0  0  0
  189.1200  178.9790  137.4050 C   0  0  0  0  0  3  0  0  0  0  0  0
  189.1160  178.8780  138.7990 C   0  0  0  0  0  3  0  0  0  0  0  0
  1 15  1  0  0  0  0
  2 16  1  0  0  0  0
  3 21  1  0  0  0  0
  4 13  2  0  0  0  0
  6 18  1  0  0  0  0
  6  2  2  0  0  0  0
  7  9  2  0  0  0  0
  8 10  1  0  0  0  0
 11  7  1  0  0  0  0
 12 23  1  6  0  0  0
 12  1  1  0  0  0  0
 12  2  1  0  0  0  0
 13  5  1  0  0  0  0
 13  9  1  0  0  0  0
 14  4  1  0  0  0  0
 14 11  1  0  0  0  0
 15 20  2  0  0  0  0
 15 21  1  0  0  0  0
 16 11  2  0  0  0  0
 16  3  1  0  0  0  0
 17  8  1  0  0  0  0
 18 14  2  0  0  0  0
 19  8  2  0  0  0  0
 20 19  1  0  0  0  0
 21 17  2  0  0  0  0
 22 25  2  0  0  0  0
 22 26  1  0  0  0  0
 24 23  2  0  0  0  0
 25 24  1  0  0  0  0
 26 27  2  0  0  0  0
 27 23  1  0  0  0  0
M  END
>  <MODEL>
3

>  <REMARK>
 VINA RESULT:     -10.3      2.964      6.253
  Name = 
  1 active torsions:
  status: ('A' for Active; 'I' for Inactive)
    1  A    between atoms: C_9  and  C_15
                            x       y       z     vdW  Elec       q    Type
                         _______ _______ _______ _____ _____    ______ ____

>  <TORSDO>
F 1

$$$$
=
 OpenBabel10262420073D

 27 31  0  0  1  0  0  0  0  0999 V2000
  189.8660  176.8300  141.2300 N   0  0  0  0  0  2  0  0  0  0  0  0
  188.0280  177.8350  142.4360 C   0  0  0  0  0  0  0  0  0  0  0  0
  187.8760  178.8460  140.2050 O   0  0  0  0  0  0  0  0  0  0  0  0
  183.8910  178.2190  142.9020 C   0  0  0  0  0  3  0  0  0  0  0  0
  181.7780  178.9290  142.0580 F   0  0  0  0  0  0  0  0  0  0  0  0
  187.3670  177.3880  143.5910 C   0  0  0  0  0  3  0  0  0  0  0  0
  185.1040  179.1310  140.5480 C   0  0  0  0  0  3  0  0  0  0  0  0
  189.4840  177.6840  137.1070 C   0  0  0  0  0  0  0  0  0  0  0  0
  183.7230  179.2590  140.7200 C   0  0  0  0  0  3  0  0  0  0  0  0
  189.4230  177.9860  135.7540 O   0  0  0  0  0  1  0  0  0  0  0  0
  185.8890  178.5490  141.5520 C   0  0  0  0  0  0  0  0  0  0  0  0
  189.5180  177.7510  142.2950 C   0  0  1  0  0  3  0  0  0  0  0  0
  183.1170  178.8030  141.8950 C   0  0  0  0  0  0  0  0  0  0  0  0
  185.2730  178.0890  142.7360 C   0  0  0  0  0  0  0  0  0  0  0  0
  189.6320  177.0970  139.8470 C   0  0  0  0  0  0  0  0  0  0  0  0
  187.2760  178.3980  141.3930 C   0  0  0  0  0  0  0  0  0  0  0  0
  188.7150  178.4080  138.0190 C   0  0  0  0  0  3  0  0  0  0  0  0
  186.0210  177.5190  143.7150 N   0  0  0  0  0  0  0  0  0  0  0  0
  190.3050  176.6520  137.5540 C   0  0  0  0  0  3  0  0  0  0  0  0
  190.3810  176.3660  138.9180 C   0  0  0  0  0  3  0  0  0  0  0  0
  188.7540  178.1160  139.3880 C   0  0  0  0  0  0  0  0  0  0  0  0
  191.6740  176.7500  145.8840 C   0  0  0  0  0  3  0  0  0  0  0  0
  190.2520  177.4090  143.5610 C   0  0  0  0  0  0  0  0  0  0  0  0
  190.9890  176.2210  143.6220 C   0  0  0  0  0  3  0  0  0  0  0  0
  191.6970  175.8910  144.7810 C   0  0  0  0  0  3  0  0  0  0  0  0
  190.9430  177.9400  145.8270 C   0  0  0  0  0  3  0  0  0  0  0  0
  190.2350  178.2720  144.6680 C   0  0  0  0  0  3  0  0  0  0  0  0
  1 12  1  0  0  0  0
  2  6  1  0  0  0  0
  3 16  1  0  0  0  0
  6 18  2  0  0  0  0
  7  9  2  0  0  0  0
  7 11  1  0  0  0  0
  8 19  2  0  0  0  0
  8 17  1  0  0  0  0
  9 13  1  0  0  0  0
 10  8  1  0  0  0  0
 11 14  2  0  0  0  0
 12  2  1  0  0  0  0
 12 23  1  1  0  0  0
 13  5  1  0  0  0  0
 13  4  2  0  0  0  0
 14  4  1  0  0  0  0
 14 18  1  0  0  0  0
 15  1  1  0  0  0  0
 16 11  1  0  0  0  0
 16  2  2  0  0  0  0
 17 21  2  0  0  0  0
 19 20  1  0  0  0  0
 20 15  2  0  0  0  0
 21 15  1  0  0  0  0
 21  3  1  0  0  0  0
 23 24  2  0  0  0  0
 23 27  1  0  0  0  0
 24 25  1  0  0  0  0
 25 22  2  0  0  0  0
 26 22  1  0  0  0  0
 27 26  2  0  0  0  0
M  END
>  <MODEL>
4

>  <REMARK>
 VINA RESULT:     -10.0      3.048      6.131
  Name = 
  1 active torsions:
  status: ('A' for Active; 'I' for Inactive)
    1  A    between atoms: C_9  and  C_15
                            x       y       z     vdW  Elec       q    Type
                         _______ _______ _______ _____ _____    ______ ____

>  <TORSDO>
F 1

$$$$
=
 OpenBabel10262420073D

 27 31  0  0  1  0  0  0  0  0999 V2000
  189.7730  176.8580  141.8220 N   0  0  0  0  0  2  0  0  0  0  0  0
  187.8360  177.8710  142.8530 C   0  0  0  0  0  0  0  0  0  0  0  0
  187.8800  178.8640  140.6100 O   0  0  0  0  0  0  0  0  0  0  0  0
  183.6740  178.2520  142.9510 C   0  0  0  0  0  3  0  0  0  0  0  0
  181.6430  178.9530  141.9190 F   0  0  0  0  0  0  0  0  0  0  0  0
  187.0760  177.4320  143.9490 C   0  0  0  0  0  3  0  0  0  0  0  0
  185.0880  179.1470  140.7050 C   0  0  0  0  0  3  0  0  0  0  0  0
  189.7550  177.6800  137.6740 C   0  0  0  0  0  0  0  0  0  0  0  0
  183.6970  179.2750  140.7550 C   0  0  0  0  0  3  0  0  0  0  0  0
  189.8130  177.9710  136.3190 O   0  0  0  0  0  1  0  0  0  0  0  0
  185.7820  178.5750  141.7790 C   0  0  0  0  0  0  0  0  0  0  0  0
  189.3320  177.7870  142.8450 C   0  0  1  0  0  3  0  0  0  0  0  0
  182.9900  178.8280  141.8750 C   0  0  0  0  0  0  0  0  0  0  0  0
  185.0650  178.1230  142.9080 C   0  0  0  0  0  0  0  0  0  0  0  0
  189.6620  177.1140  140.4210 C   0  0  0  0  0  0  0  0  0  0  0  0
  187.1780  178.4250  141.7440 C   0  0  0  0  0  0  0  0  0  0  0  0
  188.9090  178.4100  138.5090 C   0  0  0  0  0  3  0  0  0  0  0  0
  185.7240  177.5620  143.9530 N   0  0  0  0  0  0  0  0  0  0  0  0
  190.5340  176.6520  138.2010 C   0  0  0  0  0  3  0  0  0  0  0  0
  190.4900  176.3770  139.5670 C   0  0  0  0  0  3  0  0  0  0  0  0
  188.8270  178.1290  139.8790 C   0  0  0  0  0  0  0  0  0  0  0  0
  191.0460  176.8220  146.6740 C   0  0  0  0  0  3  0  0  0  0  0  0
  189.9520  177.4560  144.1730 C   0  0  0  0  0  0  0  0  0  0  0  0
  189.3190  177.8810  145.3460 C   0  0  0  0  0  3  0  0  0  0  0  0
  189.8650  177.5670  146.5950 C   0  0  0  0  0  3  0  0  0  0  0  0
  191.6800  176.3900  145.5050 C   0  0  0  0  0  3  0  0  0  0  0  0
  191.1340  176.7040  144.2570 C   0  0  0  0  0  3  0  0  0  0  0  0
  1 12  1  0  0  0  0
  2  6  1  0  0  0  0
  3 16  1  0  0  0  0
  6 18  2  0  0  0  0
  7  9  2  0  0  0  0
  7 11  1  0  0  0  0
  8 19  2  0  0  0  0
  8 17  1  0  0  0  0
  9 13  1  0  0  0  0
 10  8  1  0  0  0  0
 11 14  2  0  0  0  0
 12  2  1  0  0  0  0
 12 23  1  1  0  0  0
 13  5  1  0  0  0  0
 13  4  2  0  0  0  0
 14  4  1  0  0  0  0
 14 18  1  0  0  0  0
 15  1  1  0  0  0  0
 16 11  1  0  0  0  0
 16  2  2  0  0  0  0
 17 21  2  0  0  0  0
 19 20  1  0  0  0  0
 20 15  2  0  0  0  0
 21 15  1  0  0  0  0
 21  3  1  0  0  0  0
 23 27  2  0  0  0  0
 23 24  1  0  0  0  0
 24 25  2  0  0  0  0
 25 22  1  0  0  0  0
 26 22  2  0  0  0  0
 27 26  1  0  0  0  0
M  END
>  <MODEL>
5

>  <REMARK>
 VINA RESULT:      -9.9      2.983      6.024
  Name = 
  1 active torsions:
  status: ('A' for Active; 'I' for Inactive)
    1  A    between atoms: C_9  and  C_15
                            x       y       z     vdW  Elec       q    Type
                         _______ _______ _______ _____ _____    ______ ____

>  <TORSDO>
F 1

$$$$
=
 OpenBabel10262420073D

 27 31  0  0  1  0  0  0  0  0999 V2000
  188.2540  177.1910  143.0590 N   0  0  0  0  0  2  0  0  0  0  0  0
  186.1300  178.3440  143.0540 C   0  0  0  0  0  0  0  0  0  0  0  0
  187.1500  179.0050  140.9220 O   0  0  0  0  0  0  0  0  0  0  0  0
  182.3250  178.7400  141.3670 C   0  0  0  0  0  3  0  0  0  0  0  0
  180.9420  179.2880  139.5050 F   0  0  0  0  0  0  0  0  0  0  0  0
  184.9630  178.0680  143.7830 C   0  0  0  0  0  3  0  0  0  0  0  0
  184.5870  179.3020  139.8140 C   0  0  0  0  0  3  0  0  0  0  0  0
  189.9880  177.4090  139.2080 C   0  0  0  0  0  0  0  0  0  0  0  0
  183.3080  179.4370  139.2660 C   0  0  0  0  0  3  0  0  0  0  0  0
  190.6130  177.5030  137.9730 O   0  0  0  0  0  1  0  0  0  0  0  0
  184.7440  178.8890  141.1430 C   0  0  0  0  0  0  0  0  0  0  0  0
  187.4900  178.2580  143.6770 C   0  0  1  0  0  3  0  0  0  0  0  0
  182.1790  179.1570  140.0400 C   0  0  0  0  0  0  0  0  0  0  0  0
  183.6000  178.6050  141.9220 C   0  0  0  0  0  0  0  0  0  0  0  0
  188.7430  177.2440  141.7180 C   0  0  0  0  0  0  0  0  0  0  0  0
  186.0200  178.7330  141.7090 C   0  0  0  0  0  0  0  0  0  0  0  0
  188.9190  178.2530  139.5150 C   0  0  0  0  0  3  0  0  0  0  0  0
  183.7390  178.1990  143.2100 N   0  0  0  0  0  0  0  0  0  0  0  0
  190.4190  176.4660  140.1390 C   0  0  0  0  0  3  0  0  0  0  0  0
  189.8020  176.3910  141.3870 C   0  0  0  0  0  3  0  0  0  0  0  0
  188.2670  178.1710  140.7510 C   0  0  0  0  0  0  0  0  0  0  0  0
  187.5550  177.8800  147.9640 C   0  0  0  0  0  3  0  0  0  0  0  0
  187.4900  178.1200  145.1730 C   0  0  0  0  0  0  0  0  0  0  0  0
  188.5760  177.5000  145.8010 C   0  0  0  0  0  3  0  0  0  0  0  0
  188.6080  177.3780  147.1930 C   0  0  0  0  0  3  0  0  0  0  0  0
  186.4710  178.5050  147.3430 C   0  0  0  0  0  3  0  0  0  0  0  0
  186.4370  178.6280  145.9510 C   0  0  0  0  0  3  0  0  0  0  0  0
  1 12  1  0  0  0  0
  2 12  1  0  0  0  0
  2  6  1  0  0  0  0
  3 16  1  0  0  0  0
  4 14  1  0  0  0  0
  5 13  1  0  0  0  0
  7 11  1  0  0  0  0
  8 17  2  0  0  0  0
  8 19  1  0  0  0  0
  9  7  2  0  0  0  0
  9 13  1  0  0  0  0
 10  8  1  0  0  0  0
 11 16  1  0  0  0  0
 11 14  2  0  0  0  0
 12 23  1  1  0  0  0
 13  4  2  0  0  0  0
 14 18  1  0  0  0  0
 15  1  1  0  0  0  0
 16  2  2  0  0  0  0
 17 21  1  0  0  0  0
 18  6  2  0  0  0  0
 19 20  2  0  0  0  0
 20 15  1  0  0  0  0
 21  3  1  0  0  0  0
 21 15  2  0  0  0  0
 23 24  2  0  0  0  0
 23 27  1  0  0  0  0
 24 25  1  0  0  0  0
 25 22  2  0  0  0  0
 26 22  1  0  0  0  0
 27 26  2  0  0  0  0
M  END
>  <MODEL>
6

>  <REMARK>
 VINA RESULT:      -9.8      3.428      6.223
  Name = 
  1 active torsions:
  status: ('A' for Active; 'I' for Inactive)
    1  A    between atoms: C_9  and  C_15
                            x       y       z     vdW  Elec       q    Type
                         _______ _______ _______ _____ _____    ______ ____

>  <TORSDO>
F 1

$$$$
=
 OpenBabel10262420073D

 27 31  0  0  1  0  0  0  0  0999 V2000
  189.0970  178.0050  146.8900 N   0  0  0  0  0  2  0  0  0  0  0  0
  190.2850  177.0980  144.9910 C   0  0  0  0  0  0  0  0  0  0  0  0
  187.9270  176.9050  144.3420 O   0  0  0  0  0  0  0  0  0  0  0  0
  191.3680  177.5030  140.9730 C   0  0  0  0  0  3  0  0  0  0  0  0
  190.7570  177.5770  138.6700 F   0  0  0  0  0  0  0  0  0  0  0  0
  191.6190  177.2900  144.5980 C   0  0  0  0  0  3  0  0  0  0  0  0
  188.6730  177.1410  141.6450 C   0  0  0  0  0  3  0  0  0  0  0  0
  185.0400  178.6060  145.8610 C   0  0  0  0  0  0  0  0  0  0  0  0
  189.0510  177.2710  140.3060 C   0  0  0  0  0  3  0  0  0  0  0  0
  183.6910  178.7690  145.5790 O   0  0  0  0  0  1  0  0  0  0  0  0
  189.6400  177.1880  142.6580 C   0  0  0  0  0  0  0  0  0  0  0  0
  189.9060  176.8940  146.4260 C   0  0  1  0  0  3  0  0  0  0  0  0
  190.3960  177.4520  139.9700 C   0  0  0  0  0  0  0  0  0  0  0  0
  190.9970  177.3730  142.3140 C   0  0  0  0  0  0  0  0  0  0  0  0
  187.7600  178.2480  146.4490 C   0  0  0  0  0  0  0  0  0  0  0  0
  189.2800  177.0730  144.0110 C   0  0  0  0  0  0  0  0  0  0  0  0
  185.8360  177.8170  145.0300 C   0  0  0  0  0  3  0  0  0  0  0  0
  191.9430  177.4240  143.2860 N   0  0  0  0  0  0  0  0  0  0  0  0
  185.6020  179.2370  146.9680 C   0  0  0  0  0  3  0  0  0  0  0  0
  186.9530  179.0520  147.2610 C   0  0  0  0  0  3  0  0  0  0  0  0
  187.2010  177.6450  145.2890 C   0  0  0  0  0  0  0  0  0  0  0  0
  193.1790  176.2130  149.1380 C   0  0  0  0  0  3  0  0  0  0  0  0
  191.0620  176.6480  147.3550 C   0  0  0  0  0  0  0  0  0  0  0  0
  191.3680  177.6050  148.3290 C   0  0  0  0  0  3  0  0  0  0  0  0
  192.4260  177.3890  149.2180 C   0  0  0  0  0  3  0  0  0  0  0  0
  192.8740  175.2530  148.1700 C   0  0  0  0  0  3  0  0  0  0  0  0
  191.8160  175.4670  147.2810 C   0  0  0  0  0  3  0  0  0  0  0  0
  2 12  1  0  0  0  0
  3 21  1  0  0  0  0
  4 14  1  0  0  0  0
  5 13  1  0  0  0  0
  6  2  1  0  0  0  0
  7 11  1  0  0  0  0
  8 19  1  0  0  0  0
  9  7  2  0  0  0  0
 10  8  1  0  0  0  0
 11 16  1  0  0  0  0
 12  1  1  0  0  0  0
 12 23  1  1  0  0  0
 13  9  1  0  0  0  0
 13  4  2  0  0  0  0
 14 11  2  0  0  0  0
 14 18  1  0  0  0  0
 15  1  1  0  0  0  0
 15 20  1  0  0  0  0
 16  3  1  0  0  0  0
 16  2  2  0  0  0  0
 17 21  1  0  0  0  0
 17  8  2  0  0  0  0
 18  6  2  0  0  0  0
 19 20  2  0  0  0  0
 21 15  2  0  0  0  0
 22 25  1  0  0  0  0
 23 24  1  0  0  0  0
 24 25  2  0  0  0  0
 26 22  2  0  0  0  0
 27 23  2  0  0  0  0
 27 26  1  0  0  0  0
M  END
>  <MODEL>
7

>  <REMARK>
 VINA RESULT:      -9.5      2.896      7.076
  Name = 
  1 active torsions:
  status: ('A' for Active; 'I' for Inactive)
    1  A    between atoms: C_9  and  C_15
                            x       y       z     vdW  Elec       q    Type
                         _______ _______ _______ _____ _____    ______ ____

>  <TORSDO>
F 1

$$$$
=
 OpenBabel10262420073D

 27 31  0  0  1  0  0  0  0  0999 V2000
  187.4880  177.5170  142.0240 N   0  0  0  0  0  2  0  0  0  0  0  0
  189.6800  177.3190  143.0250 C   0  0  0  0  0  0  0  0  0  0  0  0
  188.3850  178.5440  144.7110 O   0  0  0  0  0  0  0  0  0  0  0  0
  192.0560  175.6630  146.0400 C   0  0  0  0  0  3  0  0  0  0  0  0
  192.6180  175.4650  148.3480 F   0  0  0  0  0  0  0  0  0  0  0  0
  190.7120  176.4120  142.7410 C   0  0  0  0  0  3  0  0  0  0  0  0
  190.0120  177.4530  146.7220 C   0  0  0  0  0  3  0  0  0  0  0  0
  184.7250  178.8550  144.9320 C   0  0  0  0  0  0  0  0  0  0  0  0
  190.8190  176.8960  147.7180 C   0  0  0  0  0  3  0  0  0  0  0  0
  183.7990  179.3420  145.8430 O   0  0  0  0  0  1  0  0  0  0  0  0
  190.2230  177.1210  145.3770 C   0  0  0  0  0  0  0  0  0  0  0  0
  188.8680  177.9580  141.9390 C   0  0  1  0  0  3  0  0  0  0  0  0
  191.8390  176.0030  147.3790 C   0  0  0  0  0  0  0  0  0  0  0  0
  191.2530  176.2160  145.0380 C   0  0  0  0  0  0  0  0  0  0  0  0
  186.6000  177.9010  143.0760 C   0  0  0  0  0  0  0  0  0  0  0  0
  189.4150  177.6580  144.3620 C   0  0  0  0  0  0  0  0  0  0  0  0
  186.0900  178.9600  145.2020 C   0  0  0  0  0  3  0  0  0  0  0  0
  191.4650  175.8830  143.7400 N   0  0  0  0  0  0  0  0  0  0  0  0
  184.2930  178.2530  143.7530 C   0  0  0  0  0  3  0  0  0  0  0  0
  185.2280  177.7850  142.8300 C   0  0  0  0  0  3  0  0  0  0  0  0
  187.0430  178.4680  144.3020 C   0  0  0  0  0  0  0  0  0  0  0  0
  190.3970  177.4590  137.9460 C   0  0  0  0  0  3  0  0  0  0  0  0
  189.4080  177.7610  140.5510 C   0  0  0  0  0  0  0  0  0  0  0  0
  188.6810  178.2520  139.4610 C   0  0  0  0  0  3  0  0  0  0  0  0
  189.1730  178.1000  138.1600 C   0  0  0  0  0  3  0  0  0  0  0  0
  191.1300  176.9710  139.0320 C   0  0  0  0  0  3  0  0  0  0  0  0
  190.6390  177.1230  140.3320 C   0  0  0  0  0  3  0  0  0  0  0  0
  1 15  1  0  0  0  0
  2 16  1  0  0  0  0
  4 13  2  0  0  0  0
  6  2  2  0  0  0  0
  6 18  1  0  0  0  0
  7  9  2  0  0  0  0
  8 17  1  0  0  0  0
  8 10  1  0  0  0  0
 11  7  1  0  0  0  0
 12 23  1  6  0  0  0
 12  1  1  0  0  0  0
 12  2  1  0  0  0  0
 13  9  1  0  0  0  0
 13  5  1  0  0  0  0
 14 11  1  0  0  0  0
 14  4  1  0  0  0  0
 15 21  1  0  0  0  0
 16  3  1  0  0  0  0
 16 11  2  0  0  0  0
 18 14  2  0  0  0  0
 19  8  2  0  0  0  0
 20 15  2  0  0  0  0
 20 19  1  0  0  0  0
 21  3  1  0  0  0  0
 21 17  2  0  0  0  0
 22 25  2  0  0  0  0
 22 26  1  0  0  0  0
 24 23  2  0  0  0  0
 25 24  1  0  0  0  0
 26 27  2  0  0  0  0
 27 23  1  0  0  0  0
M  END
>  <MODEL>
8

>  <REMARK>
 VINA RESULT:      -9.4      1.942      5.316
  Name = 
  1 active torsions:
  status: ('A' for Active; 'I' for Inactive)
    1  A    between atoms: C_9  and  C_15
                            x       y       z     vdW  Elec       q    Type
                         _______ _______ _______ _____ _____    ______ ____

>  <TORSDO>
F 1

$$$$
=
 OpenBabel10262420073D

 27 31  0  0  1  0  0  0  0  0999 V2000
  184.6700  178.0270  140.9740 N   0  0  0  0  0  2  0  0  0  0  0  0
  186.5360  178.2420  142.4960 C   0  0  0  0  0  0  0  0  0  0  0  0
  184.6880  179.3200  143.6950 O   0  0  0  0  0  0  0  0  0  0  0  0
  188.2750  177.1500  146.1370 C   0  0  0  0  0  3  0  0  0  0  0  0
  188.2490  177.1630  148.5210 F   0  0  0  0  0  0  0  0  0  0  0  0
  187.7280  177.5020  142.5560 C   0  0  0  0  0  3  0  0  0  0  0  0
  185.8860  178.6120  146.1340 C   0  0  0  0  0  3  0  0  0  0  0  0
  181.0890  179.0370  142.9830 C   0  0  0  0  0  0  0  0  0  0  0  0
  186.4830  178.2460  147.3430 C   0  0  0  0  0  3  0  0  0  0  0  0
  179.8990  179.4100  143.5910 O   0  0  0  0  0  1  0  0  0  0  0  0
  186.4810  178.2530  144.9170 C   0  0  0  0  0  0  0  0  0  0  0  0
  185.9460  178.6830  141.1910 C   0  0  1  0  0  3  0  0  0  0  0  0
  187.6750  177.5160  147.3460 C   0  0  0  0  0  0  0  0  0  0  0  0
  187.6850  177.5140  144.9240 C   0  0  0  0  0  0  0  0  0  0  0  0
  183.4960  178.3120  141.7370 C   0  0  0  0  0  0  0  0  0  0  0  0
  185.8910  178.5980  143.6910 C   0  0  0  0  0  0  0  0  0  0  0  0
  182.3090  179.3770  143.5690 C   0  0  0  0  0  3  0  0  0  0  0  0
  188.2690  177.1550  143.7530 N   0  0  0  0  0  0  0  0  0  0  0  0
  181.0670  178.3140  141.7920 C   0  0  0  0  0  3  0  0  0  0  0  0
  182.2650  177.9600  141.1730 C   0  0  0  0  0  3  0  0  0  0  0  0
  183.5220  179.0040  142.9780 C   0  0  0  0  0  0  0  0  0  0  0  0
  188.4830  178.2220  137.7450 C   0  0  0  0  0  3  0  0  0  0  0  0
  186.8470  178.5090  140.0010 C   0  0  0  0  0  0  0  0  0  0  0  0
  186.2790  178.2530  138.7480 C   0  0  0  0  0  3  0  0  0  0  0  0
  187.0950  178.1070  137.6220 C   0  0  0  0  0  3  0  0  0  0  0  0
  189.0550  178.4820  138.9930 C   0  0  0  0  0  3  0  0  0  0  0  0
  188.2400  178.6280  140.1190 C   0  0  0  0  0  3  0  0  0  0  0  0
  1 12  1  0  0  0  0
  1 15  1  0  0  0  0
  2  6  2  0  0  0  0
  2 16  1  0  0  0  0
  4 13  2  0  0  0  0
  6 18  1  0  0  0  0
  7  9  2  0  0  0  0
  8 17  1  0  0  0  0
  8 10  1  0  0  0  0
  9 13  1  0  0  0  0
 11 14  1  0  0  0  0
 11  7  1  0  0  0  0
 12 23  1  6  0  0  0
 12  2  1  0  0  0  0
 13  5  1  0  0  0  0
 14  4  1  0  0  0  0
 15 21  1  0  0  0  0
 16  3  1  0  0  0  0
 16 11  2  0  0  0  0
 18 14  2  0  0  0  0
 19  8  2  0  0  0  0
 20 15  2  0  0  0  0
 20 19  1  0  0  0  0
 21 17  2  0  0  0  0
 21  3  1  0  0  0  0
 22 26  1  0  0  0  0
 23 27  1  0  0  0  0
 24 23  2  0  0  0  0
 25 22  2  0  0  0  0
 25 24  1  0  0  0  0
 26 27  2  0  0  0  0
M  END
>  <MODEL>
9

>  <REMARK>
 VINA RESULT:      -9.3      2.908      6.089
  Name = 
  1 active torsions:
  status: ('A' for Active; 'I' for Inactive)
    1  A    between atoms: C_9  and  C_15
                            x       y       z     vdW  Elec       q    Type
                         _______ _______ _______ _____ _____    ______ ____

>  <TORSDO>
F 1

$$$$
