=
 OpenBabel10262422013D

 30 34  0  0  1  0  0  0  0  0999 V2000
  191.1640  176.0120  138.2670 C   0  0  2  0  0  3  0  0  0  0  0  0
  193.8180  176.4740  135.9110 C   0  0  0  0  0  3  0  0  0  0  0  0
  190.7730  173.4110  137.1220 C   0  0  0  0  0  2  0  0  0  0  0  0
  190.2570  176.9330  137.4510 C   0  0  2  0  0  3  0  0  0  0  0  0
  191.6410  176.7760  139.5080 C   0  0  0  0  0  2  0  0  0  0  0  0
  186.8750  179.1270  135.7770 C   0  0  0  0  0  2  0  0  0  0  0  0
  189.3780  177.9930  139.5290 C   0  0  1  0  0  3  0  0  0  0  0  0
  188.5630  175.6830  135.9220 C   0  0  1  0  0  3  0  0  0  0  0  0
  188.6760  174.2610  136.4840 C   0  0  0  0  0  2  0  0  0  0  0  0
  190.4430  177.2430  140.3540 C   0  0  0  0  0  2  0  0  0  0  0  0
  189.0170  177.1340  138.3160 C   0  0  1  0  0  3  0  0  0  0  0  0
  193.9700  175.5730  134.9430 C   0  0  0  0  0  3  0  0  0  0  0  0
  187.4380  176.3800  136.5920 N   0  0  2  0  0  0  0  0  0  0  0  0
  186.7050  177.9590  134.8230 C   0  0  0  0  0  2  0  0  0  0  0  0
  193.5730  176.0850  137.3290 C   0  0  0  0  0  2  0  0  0  0  0  0
  192.0650  174.1530  136.8920 C   0  0  0  0  0  0  0  0  0  0  0  0
  193.8460  174.1150  135.1330 C   0  0  0  0  0  3  0  0  0  0  0  0
  192.2700  175.3600  137.4720 C   0  0  0  0  0  0  0  0  0  0  0  0
  190.6140  176.5610  135.1400 O   0  0  0  0  0  0  0  0  0  0  0  0
  189.8710  173.5840  135.9880 N   0  0  0  0  0  2  0  0  0  0  0  0
  189.8730  176.4010  136.0970 C   0  0  0  0  0  0  0  0  0  0  0  0
  186.3810  176.7040  135.6260 C   0  0  0  0  0  2  0  0  0  0  0  0
  188.0280  178.8320  136.7200 C   0  0  0  0  0  2  0  0  0  0  0  0
  193.0660  173.4830  136.0220 C   0  0  0  0  0  0  0  0  0  0  0  0
  193.0770  172.1280  135.9970 F   0  0  0  0  0  0  0  0  0  0  0  0
  187.7860  177.5210  137.4860 C   0  0  2  0  0  3  0  0  0  0  0  0
  188.1520  178.2450  140.3990 C   0  0  0  0  0  2  0  0  0  0  0  0
  188.5210  178.2610  141.8740 C   0  0  0  0  0  2  0  0  0  0  0  0
  187.4650  177.5350  142.6870 C   0  0  0  0  0  2  0  0  0  0  0  0
  188.0970  176.3560  143.3970 C   0  0  0  0  0  1  0  0  0  0  0  0
  1  5  1  1  0  0  0
  2 15  1  0  0  0  0
  4 21  1  6  0  0  0
  4  1  1  0  0  0  0
  4 11  1  0  0  0  0
  5 10  1  0  0  0  0
  6 23  1  0  0  0  0
  7 10  1  0  0  0  0
  7 27  1  1  0  0  0
  8 21  1  0  0  0  0
  8  9  1  1  0  0  0
  8 13  1  0  0  0  0
 11  7  1  0  0  0  0
 12 17  1  0  0  0  0
 12  2  2  0  0  0  0
 13 26  1  0  0  0  0
 14 22  1  0  0  0  0
 14  6  1  0  0  0  0
 15 18  1  0  0  0  0
 16  3  1  0  0  0  0
 16 18  2  0  0  0  0
 17 24  2  0  0  0  0
 18  1  1  0  0  0  0
 19 21  2  0  0  0  0
 20  9  1  0  0  0  0
 20  3  1  0  0  0  0
 22 13  1  0  0  0  0
 23 26  1  0  0  0  0
 24 16  1  0  0  0  0
 25 24  1  0  0  0  0
 26 11  1  0  0  0  0
 27 28  1  0  0  0  0
 28 29  1  0  0  0  0
 29 30  1  0  0  0  0
M  END
>  <MODEL>
1

>  <REMARK>
 VINA RESULT:      -6.0      0.000      0.000
  Name = 
  3 active torsions:
  status: ('A' for Active; 'I' for Inactive)
    1  A    between atoms: C_6  and  C_8
    2  A    between atoms: C_6  and  C_21
    3  A    between atoms: C_9  and  C_21
                            x       y       z     vdW  Elec       q    Type
                         _______ _______ _______ _____ _____    ______ ____

>  <TORSDO>
F 3

$$$$
=
 OpenBabel10262422013D

 30 34  0  0  1  0  0  0  0  0999 V2000
  184.4210  177.8410  137.7910 C   0  0  2  0  0  3  0  0  0  0  0  0
  183.5290  178.1740  141.2420 C   0  0  0  0  0  3  0  0  0  0  0  0
  181.7600  178.6980  137.1530 C   0  0  0  0  0  2  0  0  0  0  0  0
  184.3220  176.3200  137.8960 C   0  0  2  0  0  3  0  0  0  0  0  0
  185.9040  178.2300  137.7600 C   0  0  0  0  0  2  0  0  0  0  0  0
  184.0680  172.0400  137.0770 C   0  0  0  0  0  2  0  0  0  0  0  0
  186.3690  176.0400  136.4980 C   0  0  1  0  0  3  0  0  0  0  0  0
  182.0940  175.3300  136.9880 C   0  0  1  0  0  3  0  0  0  0  0  0
  181.5340  176.5440  136.2380 C   0  0  0  0  0  2  0  0  0  0  0  0
  186.6180  177.5590  136.5720 C   0  0  0  0  0  2  0  0  0  0  0  0
  184.8600  175.7970  136.5670 C   0  0  1  0  0  3  0  0  0  0  0  0
  182.2520  178.3950  141.5470 C   0  0  0  0  0  3  0  0  0  0  0  0
  182.8540  174.4820  136.0360 N   0  0  2  0  0  0  0  0  0  0  0  0
  182.5630  172.2290  137.0340 C   0  0  0  0  0  2  0  0  0  0  0  0
  184.2210  178.9030  140.1410 C   0  0  0  0  0  2  0  0  0  0  0  0
  182.3280  178.9520  138.5250 C   0  0  0  0  0  0  0  0  0  0  0  0
  181.3640  179.3130  140.8080 C   0  0  0  0  0  3  0  0  0  0  0  0
  183.6020  178.5920  138.8130 C   0  0  0  0  0  0  0  0  0  0  0  0
  182.4950  175.7320  139.2830 O   0  0  0  0  0  0  0  0  0  0  0  0
  180.9230  177.5020  137.1550 N   0  0  0  0  0  2  0  0  0  0  0  0
  182.9350  175.7940  138.1450 C   0  0  0  0  0  0  0  0  0  0  0  0
  182.2130  173.1700  135.8870 C   0  0  0  0  0  2  0  0  0  0  0  0
  184.7290  173.3840  137.3220 C   0  0  0  0  0  2  0  0  0  0  0  0
  181.4250  179.6140  139.5030 C   0  0  0  0  0  0  0  0  0  0  0  0
  180.4780  180.4560  139.0210 F   0  0  0  0  0  0  0  0  0  0  0  0
  184.3280  174.3960  136.2360 C   0  0  2  0  0  3  0  0  0  0  0  0
  186.9460  175.4970  135.1970 C   0  0  0  0  0  2  0  0  0  0  0  0
  188.2740  174.7970  135.4360 C   0  0  0  0  0  2  0  0  0  0  0  0
  188.3380  174.2600  136.8530 C   0  0  0  0  0  2  0  0  0  0  0  0
  188.3070  172.7460  136.8210 C   0  0  0  0  0  1  0  0  0  0  0  0
  1  5  1  1  0  0  0
  1  4  1  0  0  0  0
  1 18  1  0  0  0  0
  2 12  2  0  0  0  0
  3 20  1  0  0  0  0
  3 16  1  0  0  0  0
  4 21  1  6  0  0  0
  6 23  1  0  0  0  0
  7 27  1  6  0  0  0
  7 11  1  0  0  0  0
  7 10  1  0  0  0  0
  8  9  1  6  0  0  0
  8 21  1  0  0  0  0
  9 20  1  0  0  0  0
 10  5  1  0  0  0  0
 11  4  1  0  0  0  0
 13 26  1  0  0  0  0
 13  8  1  0  0  0  0
 14  6  1  0  0  0  0
 15  2  1  0  0  0  0
 16 18  2  0  0  0  0
 16 24  1  0  0  0  0
 17 12  1  0  0  0  0
 18 15  1  0  0  0  0
 21 19  2  0  0  0  0
 22 13  1  0  0  0  0
 22 14  1  0  0  0  0
 24 17  2  0  0  0  0
 25 24  1  0  0  0  0
 26 11  1  0  0  0  0
 26 23  1  0  0  0  0
 27 28  1  0  0  0  0
 28 29  1  0  0  0  0
 30 29  1  0  0  0  0
M  END
>  <MODEL>
2

>  <REMARK>
 VINA RESULT:      -5.5      5.285      8.828
  Name = 
  3 active torsions:
  status: ('A' for Active; 'I' for Inactive)
    1  A    between atoms: C_6  and  C_8
    2  A    between atoms: C_6  and  C_21
    3  A    between atoms: C_9  and  C_21
                            x       y       z     vdW  Elec       q    Type
                         _______ _______ _______ _____ _____    ______ ____

>  <TORSDO>
F 3

$$$$
=
 OpenBabel10262422013D

 30 34  0  0  1  0  0  0  0  0999 V2000
  182.4600  177.7430  136.4740 C   0  0  2  0  0  3  0  0  0  0  0  0
  181.8260  174.2200  136.4920 C   0  0  0  0  0  3  0  0  0  0  0  0
  185.2200  177.1150  136.0120 C   0  0  0  0  0  2  0  0  0  0  0  0
  182.3240  177.7920  137.9950 C   0  0  2  0  0  3  0  0  0  0  0  0
  181.1890  178.3380  135.8540 C   0  0  0  0  0  2  0  0  0  0  0  0
  182.3950  178.9430  142.2050 C   0  0  0  0  0  2  0  0  0  0  0  0
  181.0520  179.9330  137.8640 C   0  0  1  0  0  3  0  0  0  0  0  0
  184.5920  177.8090  139.2690 C   0  0  1  0  0  3  0  0  0  0  0  0
  185.5580  178.1070  138.1170 C   0  0  0  0  0  2  0  0  0  0  0  0
  180.9770  179.7870  136.3310 C   0  0  0  0  0  2  0  0  0  0  0  0
  182.3470  179.2770  138.3460 C   0  0  1  0  0  3  0  0  0  0  0  0
  182.8670  173.3900  136.4940 C   0  0  0  0  0  3  0  0  0  0  0  0
  184.2170  179.0850  139.9280 N   0  0  2  0  0  0  0  0  0  0  0  0
  183.7850  178.3370  142.2550 C   0  0  0  0  0  2  0  0  0  0  0  0
  181.7620  175.4120  135.5980 C   0  0  0  0  0  2  0  0  0  0  0  0
  184.1540  176.0810  135.7540 C   0  0  0  0  0  0  0  0  0  0  0  0
  184.0870  173.5790  135.6870 C   0  0  0  0  0  3  0  0  0  0  0  0
  182.8470  176.3920  135.9240 C   0  0  0  0  0  0  0  0  0  0  0  0
  183.3000  175.8560  138.9450 O   0  0  0  0  0  0  0  0  0  0  0  0
  185.8270  176.9120  137.3230 N   0  0  0  0  0  2  0  0  0  0  0  0
  183.3990  177.0570  138.7470 C   0  0  0  0  0  0  0  0  0  0  0  0
  184.7000  179.1130  141.3140 C   0  0  0  0  0  2  0  0  0  0  0  0
  181.8570  178.8330  140.7900 C   0  0  0  0  0  2  0  0  0  0  0  0
  184.6250  174.7450  135.3030 C   0  0  0  0  0  0  0  0  0  0  0  0
  185.7800  174.6870  134.5940 F   0  0  0  0  0  0  0  0  0  0  0  0
  182.7990  179.5240  139.7910 C   0  0  2  0  0  3  0  0  0  0  0  0
  181.0260  181.4120  138.2300 C   0  0  0  0  0  2  0  0  0  0  0  0
  180.7290  182.2730  137.0130 C   0  0  0  0  0  2  0  0  0  0  0  0
  180.7350  183.7410  137.3940 C   0  0  0  0  0  2  0  0  0  0  0  0
  181.0990  184.5750  136.1820 C   0  0  0  0  0  1  0  0  0  0  0  0
  1  5  1  6  0  0  0
  1  4  1  0  0  0  0
  2 12  2  0  0  0  0
  3 20  1  0  0  0  0
  4 11  1  0  0  0  0
  4 21  1  1  0  0  0
  5 10  1  0  0  0  0
  6 14  1  0  0  0  0
  7 27  1  6  0  0  0
  7 11  1  0  0  0  0
  8  9  1  6  0  0  0
  8 13  1  0  0  0  0
 10  7  1  0  0  0  0
 11 26  1  0  0  0  0
 13 22  1  0  0  0  0
 15 18  1  0  0  0  0
 15  2  1  0  0  0  0
 16 18  2  0  0  0  0
 16  3  1  0  0  0  0
 17 12  1  0  0  0  0
 18  1  1  0  0  0  0
 20  9  1  0  0  0  0
 21 19  2  0  0  0  0
 21  8  1  0  0  0  0
 22 14  1  0  0  0  0
 23  6  1  0  0  0  0
 24 17  2  0  0  0  0
 24 16  1  0  0  0  0
 25 24  1  0  0  0  0
 26 13  1  0  0  0  0
 26 23  1  0  0  0  0
 28 29  1  0  0  0  0
 28 27  1  0  0  0  0
 30 29  1  0  0  0  0
M  END
>  <MODEL>
3

>  <REMARK>
 VINA RESULT:      -5.4      5.772      8.763
  Name = 
  3 active torsions:
  status: ('A' for Active; 'I' for Inactive)
    1  A    between atoms: C_6  and  C_8
    2  A    between atoms: C_6  and  C_21
    3  A    between atoms: C_9  and  C_21
                            x       y       z     vdW  Elec       q    Type
                         _______ _______ _______ _____ _____    ______ ____

>  <TORSDO>
F 3

$$$$
=
 OpenBabel10262422013D

 30 34  0  0  1  0  0  0  0  0999 V2000
  187.3220  177.2570  138.7380 C   0  0  2  0  0  3  0  0  0  0  0  0
  188.8750  178.2810  135.6800 C   0  0  0  0  0  3  0  0  0  0  0  0
  186.6960  174.7770  137.4410 C   0  0  0  0  0  2  0  0  0  0  0  0
  186.1210  178.1570  138.4490 C   0  0  2  0  0  3  0  0  0  0  0  0
  188.1780  177.9230  139.8220 C   0  0  0  0  0  2  0  0  0  0  0  0
  182.2300  180.1340  138.4490 C   0  0  0  0  0  2  0  0  0  0  0  0
  186.0140  178.8680  140.8370 C   0  0  1  0  0  3  0  0  0  0  0  0
  184.0610  176.9070  137.4670 C   0  0  1  0  0  3  0  0  0  0  0  0
  184.4640  175.4530  137.7340 C   0  0  0  0  0  2  0  0  0  0  0  0
  187.3540  178.1530  141.1020 C   0  0  0  0  0  2  0  0  0  0  0  0
  185.2820  178.1180  139.7230 C   0  0  1  0  0  3  0  0  0  0  0  0
  188.7110  177.5180  134.6010 C   0  0  0  0  0  3  0  0  0  0  0  0
  183.2250  177.3930  138.5920 N   0  0  2  0  0  0  0  0  0  0  0  0
  181.7900  179.0720  137.4600 C   0  0  0  0  0  2  0  0  0  0  0  0
  189.1990  177.7070  137.0170 C   0  0  0  0  0  2  0  0  0  0  0  0
  187.7600  175.6810  136.8730 C   0  0  0  0  0  0  0  0  0  0  0  0
  188.7580  176.0440  134.6050 C   0  0  0  0  0  3  0  0  0  0  0  0
  188.0910  176.8290  137.5120 C   0  0  0  0  0  0  0  0  0  0  0  0
  185.6150  178.0940  136.1370 O   0  0  0  0  0  0  0  0  0  0  0  0
  185.4280  174.9760  136.7470 N   0  0  0  0  0  2  0  0  0  0  0  0
  185.2950  177.7440  137.2620 C   0  0  0  0  0  0  0  0  0  0  0  0
  181.8670  177.7040  138.1310 C   0  0  0  0  0  2  0  0  0  0  0  0
  183.6670  179.8650  138.8590 C   0  0  0  0  0  2  0  0  0  0  0  0
  188.4060  175.2310  135.6120 C   0  0  0  0  0  0  0  0  0  0  0  0
  188.4920  173.8970  135.3850 F   0  0  0  0  0  0  0  0  0  0  0  0
  183.8090  178.4560  139.4580 C   0  0  2  0  0  3  0  0  0  0  0  0
  185.1880  178.8800  142.1170 C   0  0  0  0  0  2  0  0  0  0  0  0
  185.8640  178.0740  143.2140 C   0  0  0  0  0  2  0  0  0  0  0  0
  185.4080  178.5560  144.5780 C   0  0  0  0  0  2  0  0  0  0  0  0
  183.9260  178.8650  144.5340 C   0  0  0  0  0  1  0  0  0  0  0  0
  1  5  1  1  0  0  0
  2 15  1  0  0  0  0
  4 21  1  6  0  0  0
  4  1  1  0  0  0  0
  4 11  1  0  0  0  0
  5 10  1  0  0  0  0
  6 23  1  0  0  0  0
  7 10  1  0  0  0  0
  7 27  1  1  0  0  0
  8  9  1  1  0  0  0
  8 13  1  0  0  0  0
 11  7  1  0  0  0  0
 12 17  1  0  0  0  0
 12  2  2  0  0  0  0
 13 26  1  0  0  0  0
 14 22  1  0  0  0  0
 14  6  1  0  0  0  0
 15 18  1  0  0  0  0
 16  3  1  0  0  0  0
 16 18  2  0  0  0  0
 17 24  2  0  0  0  0
 18  1  1  0  0  0  0
 19 21  2  0  0  0  0
 20  3  1  0  0  0  0
 20  9  1  0  0  0  0
 21  8  1  0  0  0  0
 22 13  1  0  0  0  0
 23 26  1  0  0  0  0
 24 16  1  0  0  0  0
 25 24  1  0  0  0  0
 26 11  1  0  0  0  0
 27 28  1  0  0  0  0
 28 29  1  0  0  0  0
 30 29  1  0  0  0  0
M  END
>  <MODEL>
4

>  <REMARK>
 VINA RESULT:      -5.4      3.259      4.629
  Name = 
  3 active torsions:
  status: ('A' for Active; 'I' for Inactive)
    1  A    between atoms: C_6  and  C_8
    2  A    between atoms: C_6  and  C_21
    3  A    between atoms: C_9  and  C_21
                            x       y       z     vdW  Elec       q    Type
                         _______ _______ _______ _____ _____    ______ ____

>  <TORSDO>
F 3

$$$$
=
 OpenBabel10262422013D

 30 34  0  0  1  0  0  0  0  0999 V2000
  183.2710  177.5030  136.1300 C   0  0  2  0  0  3  0  0  0  0  0  0
  184.0930  174.0330  136.4420 C   0  0  0  0  0  3  0  0  0  0  0  0
  185.7440  178.0770  137.4650 C   0  0  0  0  0  2  0  0  0  0  0  0
  182.2450  177.3770  137.2550 C   0  0  2  0  0  3  0  0  0  0  0  0
  182.5200  177.5800  134.7950 C   0  0  0  0  0  2  0  0  0  0  0  0
  179.3530  178.1370  140.4350 C   0  0  0  0  0  2  0  0  0  0  0  0
  180.6370  178.8280  136.0190 C   0  0  1  0  0  3  0  0  0  0  0  0
  183.0920  178.2110  139.5700 C   0  0  1  0  0  3  0  0  0  0  0  0
  184.3620  178.9590  139.1500 C   0  0  0  0  0  2  0  0  0  0  0  0
  181.5550  178.7800  134.7820 C   0  0  0  0  0  2  0  0  0  0  0  0
  181.5100  178.7150  137.2700 C   0  0  1  0  0  3  0  0  0  0  0  0
  185.1360  173.6950  137.1970 C   0  0  0  0  0  3  0  0  0  0  0  0
  181.9650  179.1740  139.6400 N   0  0  2  0  0  0  0  0  0  0  0  0
  180.5350  178.1410  141.3870 C   0  0  0  0  0  2  0  0  0  0  0  0
  184.1480  175.1610  135.4690 C   0  0  0  0  0  2  0  0  0  0  0  0
  185.5170  176.7240  136.8410 C   0  0  0  0  0  0  0  0  0  0  0  0
  186.4210  174.4200  137.2180 C   0  0  0  0  0  3  0  0  0  0  0  0
  184.3690  176.4680  136.1680 C   0  0  0  0  0  0  0  0  0  0  0  0
  183.0780  175.9330  138.9370 O   0  0  0  0  0  0  0  0  0  0  0  0
  185.4660  178.0370  138.8970 N   0  0  0  0  0  2  0  0  0  0  0  0
  182.8280  177.0830  138.6100 C   0  0  0  0  0  0  0  0  0  0  0  0
  181.4680  179.2890  141.0160 C   0  0  0  0  0  2  0  0  0  0  0  0
  179.8580  177.9270  139.0190 C   0  0  0  0  0  2  0  0  0  0  0  0
  186.6100  175.7290  137.0030 C   0  0  0  0  0  0  0  0  0  0  0  0
  187.8780  176.1950  137.1110 F   0  0  0  0  0  0  0  0  0  0  0  0
  180.8760  179.0140  138.6350 C   0  0  2  0  0  3  0  0  0  0  0  0
  179.8590  180.1390  136.0180 C   0  0  0  0  0  2  0  0  0  0  0  0
  180.5270  181.1720  135.1260 C   0  0  0  0  0  2  0  0  0  0  0  0
  180.4310  182.5490  135.7530 C   0  0  0  0  0  2  0  0  0  0  0  0
  180.8060  182.4640  137.2180 C   0  0  0  0  0  1  0  0  0  0  0  0
  1  5  1  6  0  0  0
  1 18  1  0  0  0  0
  1  4  1  0  0  0  0
  2 12  2  0  0  0  0
  3 20  1  0  0  0  0
  4 11  1  0  0  0  0
  4 21  1  1  0  0  0
  6 14  1  0  0  0  0
  7 27  1  1  0  0  0
  7 11  1  0  0  0  0
  8  9  1  6  0  0  0
  8 13  1  0  0  0  0
 10  5  1  0  0  0  0
 10  7  1  0  0  0  0
 11 26  1  0  0  0  0
 12 17  1  0  0  0  0
 13 22  1  0  0  0  0
 15 18  1  0  0  0  0
 15  2  1  0  0  0  0
 16 24  1  0  0  0  0
 16  3  1  0  0  0  0
 18 16  2  0  0  0  0
 20  9  1  0  0  0  0
 21 19  2  0  0  0  0
 21  8  1  0  0  0  0
 22 14  1  0  0  0  0
 23  6  1  0  0  0  0
 24 25  1  0  0  0  0
 24 17  2  0  0  0  0
 26 23  1  0  0  0  0
 26 13  1  0  0  0  0
 28 29  1  0  0  0  0
 28 27  1  0  0  0  0
 29 30  1  0  0  0  0
M  END
>  <MODEL>
5

>  <REMARK>
 VINA RESULT:      -5.0      5.468      8.605
  Name = 
  3 active torsions:
  status: ('A' for Active; 'I' for Inactive)
    1  A    between atoms: C_6  and  C_8
    2  A    between atoms: C_6  and  C_21
    3  A    between atoms: C_9  and  C_21
                            x       y       z     vdW  Elec       q    Type
                         _______ _______ _______ _____ _____    ______ ____

>  <TORSDO>
F 3

$$$$
=
 OpenBabel10262422013D

 30 34  0  0  1  0  0  0  0  0999 V2000
  182.3920  178.1430  136.8990 C   0  0  2  0  0  3  0  0  0  0  0  0
  182.8030  174.5980  136.6220 C   0  0  0  0  0  3  0  0  0  0  0  0
  185.0130  178.2270  138.0590 C   0  0  0  0  0  2  0  0  0  0  0  0
  181.4500  177.9570  138.0880 C   0  0  2  0  0  3  0  0  0  0  0  0
  181.5540  178.5090  135.6680 C   0  0  0  0  0  2  0  0  0  0  0  0
  178.9320  178.5250  141.6070 C   0  0  0  0  0  2  0  0  0  0  0  0
  179.9400  179.7500  137.2360 C   0  0  1  0  0  3  0  0  0  0  0  0
  182.5720  178.3220  140.4070 C   0  0  1  0  0  3  0  0  0  0  0  0
  183.8870  178.9830  139.9790 C   0  0  0  0  0  2  0  0  0  0  0  0
  180.7450  179.7950  135.9220 C   0  0  0  0  0  2  0  0  0  0  0  0
  180.8880  179.3480  138.3670 C   0  0  1  0  0  3  0  0  0  0  0  0
  183.8520  174.0340  137.2160 C   0  0  0  0  0  3  0  0  0  0  0  0
  181.5800  179.3800  140.7240 N   0  0  2  0  0  0  0  0  0  0  0  0
  180.1760  178.2510  142.4310 C   0  0  0  0  0  2  0  0  0  0  0  0
  182.9200  175.8510  135.8230 C   0  0  0  0  0  2  0  0  0  0  0  0
  184.5730  177.0210  137.2690 C   0  0  0  0  0  0  0  0  0  0  0  0
  185.2140  174.6010  137.2190 C   0  0  0  0  0  3  0  0  0  0  0  0
  183.3540  177.0000  136.6800 C   0  0  0  0  0  0  0  0  0  0  0  0
  182.2270  176.1860  139.4530 O   0  0  0  0  0  0  0  0  0  0  0  0
  184.8460  177.9960  139.4900 N   0  0  0  0  0  2  0  0  0  0  0  0
  182.0970  177.3930  139.3220 C   0  0  0  0  0  0  0  0  0  0  0  0
  181.2120  179.3330  142.1440 C   0  0  0  0  0  2  0  0  0  0  0  0
  179.2940  178.4840  140.1340 C   0  0  0  0  0  2  0  0  0  0  0  0
  185.5450  175.9000  137.1790 C   0  0  0  0  0  0  0  0  0  0  0  0
  186.8660  176.2010  137.2310 F   0  0  0  0  0  0  0  0  0  0  0  0
  180.4050  179.4980  139.8160 C   0  0  2  0  0  3  0  0  0  0  0  0
  179.3310  181.1220  137.5010 C   0  0  0  0  0  2  0  0  0  0  0  0
  180.0030  182.1920  136.6550 C   0  0  0  0  0  2  0  0  0  0  0  0
  180.7410  183.1770  137.5420 C   0  0  0  0  0  2  0  0  0  0  0  0
  181.1810  184.3670  136.7160 C   0  0  0  0  0  1  0  0  0  0  0  0
  1  5  1  6  0  0  0
  1  4  1  0  0  0  0
  2 12  2  0  0  0  0
  3 20  1  0  0  0  0
  4 11  1  0  0  0  0
  4 21  1  1  0  0  0
  5 10  1  0  0  0  0
  6 14  1  0  0  0  0
  7 27  1  1  0  0  0
  7 11  1  0  0  0  0
  8  9  1  6  0  0  0
  8 13  1  0  0  0  0
 10  7  1  0  0  0  0
 11 26  1  0  0  0  0
 12 17  1  0  0  0  0
 13 22  1  0  0  0  0
 15  2  1  0  0  0  0
 15 18  1  0  0  0  0
 16  3  1  0  0  0  0
 18  1  1  0  0  0  0
 18 16  2  0  0  0  0
 20  9  1  0  0  0  0
 21 19  2  0  0  0  0
 21  8  1  0  0  0  0
 22 14  1  0  0  0  0
 23  6  1  0  0  0  0
 24 17  2  0  0  0  0
 24 25  1  0  0  0  0
 24 16  1  0  0  0  0
 26 23  1  0  0  0  0
 26 13  1  0  0  0  0
 28 27  1  0  0  0  0
 28 29  1  0  0  0  0
 30 29  1  0  0  0  0
M  END
>  <MODEL>
6

>  <REMARK>
 VINA RESULT:      -5.0      6.167      9.346
  Name = 
  3 active torsions:
  status: ('A' for Active; 'I' for Inactive)
    1  A    between atoms: C_6  and  C_8
    2  A    between atoms: C_6  and  C_21
    3  A    between atoms: C_9  and  C_21
                            x       y       z     vdW  Elec       q    Type
                         _______ _______ _______ _____ _____    ______ ____

>  <TORSDO>
F 3

$$$$
=
 OpenBabel10262422013D

 30 34  0  0  1  0  0  0  0  0999 V2000
  185.1760  177.5500  137.1700 C   0  0  2  0  0  3  0  0  0  0  0  0
  183.0540  177.0770  140.0140 C   0  0  0  0  0  3  0  0  0  0  0  0
  182.8060  177.5080  135.5550 C   0  0  0  0  0  2  0  0  0  0  0  0
  185.6210  176.0900  137.2400 C   0  0  2  0  0  3  0  0  0  0  0  0
  186.3120  178.4300  137.7060 C   0  0  0  0  0  2  0  0  0  0  0  0
  187.2940  172.1430  136.4170 C   0  0  0  0  0  2  0  0  0  0  0  0
  187.9780  176.7310  136.7340 C   0  0  1  0  0  3  0  0  0  0  0  0
  184.4080  174.5220  135.5550 C   0  0  1  0  0  3  0  0  0  0  0  0
  183.7440  175.5560  134.6390 C   0  0  0  0  0  2  0  0  0  0  0  0
  187.5980  178.2180  136.8860 C   0  0  0  0  0  2  0  0  0  0  0  0
  186.7520  175.9730  136.2210 C   0  0  1  0  0  3  0  0  0  0  0  0
  181.7700  176.7970  139.8050 C   0  0  0  0  0  3  0  0  0  0  0  0
  185.7150  174.1290  134.9720 N   0  0  2  0  0  0  0  0  0  0  0  0
  185.9510  171.8010  135.8000 C   0  0  0  0  0  2  0  0  0  0  0  0
  183.7680  178.1450  139.2560 C   0  0  0  0  0  2  0  0  0  0  0  0
  182.7070  177.7530  137.0390 C   0  0  0  0  0  0  0  0  0  0  0  0
  180.9310  177.4410  138.7760 C   0  0  0  0  0  3  0  0  0  0  0  0
  183.8290  177.8220  137.7950 C   0  0  0  0  0  0  0  0  0  0  0  0
  183.7810  174.7210  137.8250 O   0  0  0  0  0  0  0  0  0  0  0  0
  182.5350  176.1080  135.2450 N   0  0  0  0  0  2  0  0  0  0  0  0
  184.5410  175.0860  136.9430 C   0  0  0  0  0  0  0  0  0  0  0  0
  185.7100  172.7100  134.5990 C   0  0  0  0  0  2  0  0  0  0  0  0
  187.2700  173.5860  136.8870 C   0  0  0  0  0  2  0  0  0  0  0  0
  181.3370  177.9190  137.5910 C   0  0  0  0  0  0  0  0  0  0  0  0
  180.3850  178.4380  136.7770 F   0  0  0  0  0  0  0  0  0  0  0  0
  186.9380  174.5340  135.7230 C   0  0  2  0  0  3  0  0  0  0  0  0
  189.1400  176.6060  135.7570 C   0  0  0  0  0  2  0  0  0  0  0  0
  190.3470  175.9620  136.4190 C   0  0  0  0  0  2  0  0  0  0  0  0
  190.0880  175.7600  137.9000 C   0  0  0  0  0  2  0  0  0  0  0  0
  191.1430  176.4940  138.7010 C   0  0  0  0  0  1  0  0  0  0  0  0
  1  4  1  0  0  0  0
  1  5  1  1  0  0  0
  1 18  1  0  0  0  0
  3 16  1  0  0  0  0
  4 21  1  6  0  0  0
  6 23  1  0  0  0  0
  7 27  1  6  0  0  0
  7 10  1  0  0  0  0
  8  9  1  6  0  0  0
  8 21  1  0  0  0  0
  9 20  1  0  0  0  0
 10  5  1  0  0  0  0
 11  7  1  0  0  0  0
 11  4  1  0  0  0  0
 12  2  2  0  0  0  0
 13  8  1  0  0  0  0
 13 26  1  0  0  0  0
 14  6  1  0  0  0  0
 15  2  1  0  0  0  0
 16 24  1  0  0  0  0
 16 18  2  0  0  0  0
 17 12  1  0  0  0  0
 18 15  1  0  0  0  0
 20  3  1  0  0  0  0
 21 19  2  0  0  0  0
 22 13  1  0  0  0  0
 22 14  1  0  0  0  0
 24 17  2  0  0  0  0
 25 24  1  0  0  0  0
 26 11  1  0  0  0  0
 26 23  1  0  0  0  0
 27 28  1  0  0  0  0
 28 29  1  0  0  0  0
 29 30  1  0  0  0  0
M  END
>  <MODEL>
7

>  <REMARK>
 VINA RESULT:      -5.0      4.390      7.845
  Name = 
  3 active torsions:
  status: ('A' for Active; 'I' for Inactive)
    1  A    between atoms: C_6  and  C_8
    2  A    between atoms: C_6  and  C_21
    3  A    between atoms: C_9  and  C_21
                            x       y       z     vdW  Elec       q    Type
                         _______ _______ _______ _____ _____    ______ ____

>  <TORSDO>
F 3

$$$$
=
 OpenBabel10262422013D

 30 34  0  0  1  0  0  0  0  0999 V2000
  183.5510  178.6940  138.7350 C   0  0  2  0  0  3  0  0  0  0  0  0
  181.5970  178.3560  141.7150 C   0  0  0  0  0  3  0  0  0  0  0  0
  181.3930  180.2400  137.6480 C   0  0  0  0  0  2  0  0  0  0  0  0
  183.2290  177.2530  138.3420 C   0  0  2  0  0  3  0  0  0  0  0  0
  184.9940  178.7460  139.2500 C   0  0  0  0  0  2  0  0  0  0  0  0
  182.7230  173.4660  136.2310 C   0  0  0  0  0  2  0  0  0  0  0  0
  185.5740  176.8850  137.5750 C   0  0  1  0  0  3  0  0  0  0  0  0
  181.3310  177.0260  136.5760 C   0  0  1  0  0  3  0  0  0  0  0  0
  181.2170  178.4790  136.1010 C   0  0  0  0  0  2  0  0  0  0  0  0
  185.9760  178.2480  138.1730 C   0  0  0  0  0  2  0  0  0  0  0  0
  184.1130  176.9680  137.1300 C   0  0  1  0  0  3  0  0  0  0  0  0
  180.3310  178.7690  141.6920 C   0  0  0  0  0  3  0  0  0  0  0  0
  182.2530  176.2930  135.6740 N   0  0  2  0  0  0  0  0  0  0  0  0
  181.3580  173.9820  135.8160 C   0  0  0  0  0  2  0  0  0  0  0  0
  182.7070  179.1650  141.1340 C   0  0  0  0  0  2  0  0  0  0  0  0
  181.4930  180.0200  139.1360 C   0  0  0  0  0  0  0  0  0  0  0  0
  179.8690  180.0100  141.0430 C   0  0  0  0  0  3  0  0  0  0  0  0
  182.5380  179.3310  139.6550 C   0  0  0  0  0  0  0  0  0  0  0  0
  180.9830  176.7560  138.8990 O   0  0  0  0  0  0  0  0  0  0  0  0
  180.4600  179.2920  137.0480 N   0  0  0  0  0  2  0  0  0  0  0  0
  181.7850  176.9970  138.0110 C   0  0  0  0  0  0  0  0  0  0  0  0
  181.5390  175.2300  134.9570 C   0  0  0  0  0  2  0  0  0  0  0  0
  183.4280  174.5320  137.0500 C   0  0  0  0  0  2  0  0  0  0  0  0
  180.4040  180.6010  139.9650 C   0  0  0  0  0  0  0  0  0  0  0  0
  179.7910  181.7220  139.5090 F   0  0  0  0  0  0  0  0  0  0  0  0
  183.5500  175.8420  136.2540 C   0  0  2  0  0  3  0  0  0  0  0  0
  186.4830  176.5660  136.3940 C   0  0  0  0  0  2  0  0  0  0  0  0
  187.3990  175.3950  136.7090 C   0  0  0  0  0  2  0  0  0  0  0  0
  186.9340  174.1510  135.9750 C   0  0  0  0  0  2  0  0  0  0  0  0
  186.8840  172.9850  136.9400 C   0  0  0  0  0  1  0  0  0  0  0  0
  1  5  1  1  0  0  0
  1 18  1  0  0  0  0
  3 16  1  0  0  0  0
  4 21  1  6  0  0  0
  4  1  1  0  0  0  0
  6 23  1  0  0  0  0
  7 27  1  6  0  0  0
  7 10  1  0  0  0  0
  8  9  1  6  0  0  0
  8 21  1  0  0  0  0
  9 20  1  0  0  0  0
 10  5  1  0  0  0  0
 11  7  1  0  0  0  0
 11  4  1  0  0  0  0
 12  2  2  0  0  0  0
 13 26  1  0  0  0  0
 13  8  1  0  0  0  0
 14  6  1  0  0  0  0
 15  2  1  0  0  0  0
 16 18  2  0  0  0  0
 16 24  1  0  0  0  0
 17 12  1  0  0  0  0
 18 15  1  0  0  0  0
 20  3  1  0  0  0  0
 21 19  2  0  0  0  0
 22 13  1  0  0  0  0
 22 14  1  0  0  0  0
 24 17  2  0  0  0  0
 25 24  1  0  0  0  0
 26 23  1  0  0  0  0
 26 11  1  0  0  0  0
 27 28  1  0  0  0  0
 29 28  1  0  0  0  0
 29 30  1  0  0  0  0
M  END
>  <MODEL>
8

>  <REMARK>
 VINA RESULT:      -4.6      6.041      9.636
  Name = 
  3 active torsions:
  status: ('A' for Active; 'I' for Inactive)
    1  A    between atoms: C_6  and  C_8
    2  A    between atoms: C_6  and  C_21
    3  A    between atoms: C_9  and  C_21
                            x       y       z     vdW  Elec       q    Type
                         _______ _______ _______ _____ _____    ______ ____

>  <TORSDO>
F 3

$$$$
=
 OpenBabel10262422013D

 30 34  0  0  1  0  0  0  0  0999 V2000
  185.0480  177.4610  138.0260 C   0  0  2  0  0  3  0  0  0  0  0  0
  187.3650  178.1310  135.3810 C   0  0  0  0  0  3  0  0  0  0  0  0
  185.3880  174.6730  137.4450 C   0  0  0  0  0  2  0  0  0  0  0  0
  183.8840  177.9010  137.1390 C   0  0  2  0  0  3  0  0  0  0  0  0
  185.3280  178.5720  139.0460 C   0  0  0  0  0  2  0  0  0  0  0  0
  179.9510  178.6680  135.4090 C   0  0  0  0  0  2  0  0  0  0  0  0
  182.8120  179.0920  139.0500 C   0  0  1  0  0  3  0  0  0  0  0  0
  182.5710  175.9370  136.0490 C   0  0  1  0  0  3  0  0  0  0  0  0
  183.1130  174.7550  136.8600 C   0  0  0  0  0  2  0  0  0  0  0  0
  184.0780  178.8580  139.8980 C   0  0  0  0  0  2  0  0  0  0  0  0
  182.6710  177.9300  138.0650 C   0  0  1  0  0  3  0  0  0  0  0  0
  187.7370  177.1240  134.5950 C   0  0  0  0  0  3  0  0  0  0  0  0
  181.3170  176.4220  136.6780 N   0  0  2  0  0  0  0  0  0  0  0  0
  180.0930  177.3250  134.7170 C   0  0  0  0  0  2  0  0  0  0  0  0
  187.2960  177.9980  136.8650 C   0  0  0  0  0  2  0  0  0  0  0  0
  186.3990  175.6780  136.9540 C   0  0  0  0  0  0  0  0  0  0  0  0
  188.0490  175.7630  135.0720 C   0  0  0  0  0  3  0  0  0  0  0  0
  186.2660  176.9890  137.2690 C   0  0  0  0  0  0  0  0  0  0  0  0
  184.2480  177.1630  134.9200 O   0  0  0  0  0  0  0  0  0  0  0  0
  184.4330  174.3460  136.3910 N   0  0  0  0  0  2  0  0  0  0  0  0
  183.6210  177.0110  135.9560 C   0  0  0  0  0  0  0  0  0  0  0  0
  180.1770  176.2280  135.7740 C   0  0  0  0  0  2  0  0  0  0  0  0
  181.1740  178.9100  136.2750 C   0  0  0  0  0  2  0  0  0  0  0  0
  187.5190  175.1430  136.1360 C   0  0  0  0  0  0  0  0  0  0  0  0
  187.9230  173.8700  136.3710 F   0  0  0  0  0  0  0  0  0  0  0  0
  181.3520  177.7760  137.2980 C   0  0  2  0  0  3  0  0  0  0  0  0
  181.5990  179.1730  139.9690 C   0  0  0  0  0  2  0  0  0  0  0  0
  181.8270  178.3860  141.2500 C   0  0  0  0  0  2  0  0  0  0  0  0
  181.0240  178.9870  142.3870 C   0  0  0  0  0  2  0  0  0  0  0  0
  181.8610  178.9920  143.6490 C   0  0  0  0  0  1  0  0  0  0  0  0
  1  5  1  6  0  0  0
  2 15  1  0  0  0  0
  4 21  1  6  0  0  0
  4  1  1  0  0  0  0
  4 11  1  0  0  0  0
  5 10  1  0  0  0  0
  6 23  1  0  0  0  0
  7 10  1  0  0  0  0
  7 27  1  1  0  0  0
  8 13  1  0  0  0  0
  8  9  1  1  0  0  0
 11  7  1  0  0  0  0
 12 17  1  0  0  0  0
 12  2  2  0  0  0  0
 13 26  1  0  0  0  0
 14  6  1  0  0  0  0
 14 22  1  0  0  0  0
 15 18  1  0  0  0  0
 16 18  2  0  0  0  0
 16  3  1  0  0  0  0
 17 24  2  0  0  0  0
 18  1  1  0  0  0  0
 19 21  2  0  0  0  0
 20  9  1  0  0  0  0
 20  3  1  0  0  0  0
 21  8  1  0  0  0  0
 22 13  1  0  0  0  0
 23 26  1  0  0  0  0
 24 25  1  0  0  0  0
 24 16  1  0  0  0  0
 26 11  1  0  0  0  0
 27 28  1  0  0  0  0
 28 29  1  0  0  0  0
 29 30  1  0  0  0  0
M  END
>  <MODEL>
9

>  <REMARK>
 VINA RESULT:      -4.6      4.533      6.325
  Name = 
  3 active torsions:
  status: ('A' for Active; 'I' for Inactive)
    1  A    between atoms: C_6  and  C_8
    2  A    between atoms: C_6  and  C_21
    3  A    between atoms: C_9  and  C_21
                            x       y       z     vdW  Elec       q    Type
                         _______ _______ _______ _____ _____    ______ ____

>  <TORSDO>
F 3

$$$$
