=
 OpenBabel10262423183D

 34 36  0  0  1  0  0  0  0  0999 V2000
  190.5580  177.4520  142.0250 N   0  0  0  0  0  2  0  0  0  0  0  0
  190.6200  175.2840  142.8970 O   0  0  0  0  0  0  0  0  0  0  0  0
  190.2110  176.4720  143.0120 C   0  0  0  0  0  0  0  0  0  0  0  0
  187.3640  176.6020  142.9750 O   0  0  0  0  0  1  0  0  0  0  0  0
  187.2340  178.4720  147.5620 C   0  0  0  0  0  2  0  0  0  0  0  0
  189.3500  177.7520  146.4790 C   0  0  0  0  0  3  0  0  0  0  0  0
  188.0340  176.9650  144.1400 C   0  0  0  0  0  0  0  0  0  0  0  0
  190.0970  177.2430  145.4160 C   0  0  0  0  0  0  0  0  0  0  0  0
  189.4420  176.8700  144.2140 C   0  0  0  0  0  0  0  0  0  0  0  0
  185.7410  178.1480  147.5590 C   0  0  0  0  0  2  0  0  0  0  0  0
  185.1320  178.3900  146.1790 C   0  0  2  0  0  3  0  0  0  0  0  0
  187.9620  177.8470  146.4070 C   0  0  0  0  0  0  0  0  0  0  0  0
  185.7880  177.4750  145.1460 C   0  0  0  0  0  2  0  0  0  0  0  0
  187.2950  177.4540  145.2300 C   0  0  0  0  0  0  0  0  0  0  0  0
  191.4770  177.1220  145.6080 O   0  0  0  0  0  0  0  0  0  0  0  0
  192.0550  176.1170  146.4280 C   0  0  0  0  0  1  0  0  0  0  0  0
  185.2750  179.7840  145.7810 N   0  0  0  0  0  2  0  0  0  0  0  0
  184.6530  179.9250  144.4740 C   0  0  0  0  0  2  0  0  0  0  0  0
  182.8390  178.9020  143.1100 C   0  0  0  0  0  1  0  0  0  0  0  0
  183.2510  179.3470  144.5010 C   0  0  0  0  0  2  0  0  0  0  0  0
  188.9780  176.8720  139.7100 F   0  0  0  0  0  0  0  0  0  0  0  0
  193.1060  177.0720  139.3470 C   0  0  0  0  0  3  0  0  0  0  0  0
  190.9250  176.6600  138.3590 C   0  0  0  0  0  0  0  0  0  0  0  0
  191.1250  177.1850  140.7350 C   0  0  0  0  0  0  0  0  0  0  0  0
  192.3370  176.7170  138.2360 C   0  0  0  0  0  0  0  0  0  0  0  0
  192.5050  177.3170  140.5810 C   0  0  0  0  0  3  0  0  0  0  0  0
  190.3320  176.8720  139.6150 C   0  0  0  0  0  0  0  0  0  0  0  0
  193.0780  176.3560  137.0160 C   0  0  0  0  0  3  0  0  0  0  0  0
  194.3270  176.1940  137.0100 O   0  0  0  0  0  0  0  0  0  0  0  0
  190.0620  176.4470  137.2360 N   0  0  0  0  0  2  0  0  0  0  0  0
  189.7820  177.4830  136.2540 C   0  0  0  0  0  2  0  0  0  0  0  0
  188.9170  179.3340  137.4740 O   0  0  0  0  0  1  0  0  0  0  0  0
  188.6700  178.3430  136.7400 C   0  0  0  0  0  0  0  0  0  0  0  0
  187.3570  178.0290  136.4160 O   0  0  0  0  0  0  0  0  0  0  0  0
  1  3  1  0  0  0  0
  2  3  2  0  0  0  0
  3  9  1  0  0  0  0
  4  7  1  0  0  0  0
  7  9  2  0  0  0  0
  7 14  1  0  0  0  0
  8 15  1  0  0  0  0
  8  6  2  0  0  0  0
  9  8  1  0  0  0  0
 10  5  1  0  0  0  0
 11 17  1  6  0  0  0
 11 10  1  0  0  0  0
 12  6  1  0  0  0  0
 12  5  1  0  0  0  0
 13 14  1  0  0  0  0
 13 11  1  0  0  0  0
 14 12  2  0  0  0  0
 15 16  1  0  0  0  0
 18 20  1  0  0  0  0
 18 17  1  0  0  0  0
 19 20  1  0  0  0  0
 22 26  1  0  0  0  0
 23 27  2  0  0  0  0
 24  1  1  0  0  0  0
 25 23  1  0  0  0  0
 25 22  2  0  0  0  0
 26 24  2  0  0  0  0
 27 21  1  0  0  0  0
 27 24  1  0  0  0  0
 28 25  1  0  0  0  0
 29 28  2  0  0  0  0
 30 23  1  0  0  0  0
 31 33  1  0  0  0  0
 31 30  1  0  0  0  0
 33 32  1  0  0  0  0
 34 33  2  0  0  0  0
M  END
>  <MODEL>
1

>  <REMARK>
 VINA RESULT:      -8.2      0.000      0.000
  Name = 
  10 active torsions:
  status: ('A' for Active; 'I' for Inactive)
    1  A    between atoms: C_7  and  N_14
    2  A    between atoms: C_7  and  C_15
    3  A    between atoms: N_8  and  C_18
    4  A    between atoms: O_12  and  C_19
    5  A    between atoms: C_13  and  C_24
    6  A    between atoms: N_14  and  C_16
    7  A    between atoms: C_17  and  C_20
    8  A    between atoms: C_24  and  N_25
    9  A    between atoms: N_25  and  C_27
   10  A    between atoms: C_26  and  C_28
                            x       y       z     vdW  Elec       q    Type
                         _______ _______ _______ _____ _____    ______ ____

>  <TORSDO>
F 10

$$$$
=
 OpenBabel10262423183D

 34 36  0  0  1  0  0  0  0  0999 V2000
  188.0890  177.0400  141.9850 N   0  0  0  0  0  2  0  0  0  0  0  0
  188.7870  179.1420  141.2390 O   0  0  0  0  0  0  0  0  0  0  0  0
  188.4920  177.9500  140.9530 C   0  0  0  0  0  0  0  0  0  0  0  0
  186.4740  178.4130  138.9940 O   0  0  0  0  0  1  0  0  0  0  0  0
  188.8840  175.6770  135.6380 C   0  0  0  0  0  2  0  0  0  0  0  0
  189.8290  176.1650  137.8820 C   0  0  0  0  0  3  0  0  0  0  0  0
  187.6020  177.6820  138.6300 C   0  0  0  0  0  0  0  0  0  0  0  0
  189.7850  176.7250  139.1590 C   0  0  0  0  0  0  0  0  0  0  0  0
  188.6460  177.4710  139.5590 C   0  0  0  0  0  0  0  0  0  0  0  0
  187.9520  176.2920  134.5950 C   0  0  0  0  0  2  0  0  0  0  0  0
  186.5450  176.4780  135.1600 C   0  0  2  0  0  3  0  0  0  0  0  0
  188.8000  176.3720  136.9660 C   0  0  0  0  0  0  0  0  0  0  0  0
  186.5790  177.4390  136.3480 C   0  0  0  0  0  2  0  0  0  0  0  0
  187.6750  177.1340  137.3400 C   0  0  0  0  0  0  0  0  0  0  0  0
  190.8960  176.5190  139.9840 O   0  0  0  0  0  0  0  0  0  0  0  0
  191.9910  177.4210  140.0390 C   0  0  0  0  0  1  0  0  0  0  0  0
  185.9690  175.2010  135.5600 N   0  0  0  0  0  2  0  0  0  0  0  0
  184.6390  175.4730  136.0840 C   0  0  0  0  0  2  0  0  0  0  0  0
  185.3250  173.5120  137.4560 C   0  0  0  0  0  1  0  0  0  0  0  0
  184.4410  174.7440  137.3990 C   0  0  0  0  0  2  0  0  0  0  0  0
  189.9430  177.0840  144.1640 F   0  0  0  0  0  0  0  0  0  0  0  0
  186.0040  178.1970  144.8330 C   0  0  0  0  0  3  0  0  0  0  0  0
  188.2420  177.7770  145.6770 C   0  0  0  0  0  0  0  0  0  0  0  0
  187.7170  177.3950  143.3230 C   0  0  0  0  0  0  0  0  0  0  0  0
  186.8930  178.1460  145.9090 C   0  0  0  0  0  0  0  0  0  0  0  0
  186.4140  177.8380  143.5510 C   0  0  0  0  0  3  0  0  0  0  0  0
  188.6380  177.3810  144.3880 C   0  0  0  0  0  0  0  0  0  0  0  0
  186.3260  178.4230  147.2400 C   0  0  0  0  0  3  0  0  0  0  0  0
  185.7880  179.5240  147.5270 O   0  0  0  0  0  0  0  0  0  0  0  0
  189.2460  177.8410  146.6960 N   0  0  0  0  0  2  0  0  0  0  0  0
  189.7730  176.6560  147.3540 C   0  0  0  0  0  2  0  0  0  0  0  0
  191.9450  177.2160  148.1490 O   0  0  0  0  0  1  0  0  0  0  0  0
  191.2570  176.6520  147.2600 C   0  0  0  0  0  0  0  0  0  0  0  0
  191.8810  176.0610  146.1700 O   0  0  0  0  0  0  0  0  0  0  0  0
  1 24  1  0  0  0  0
  3  2  2  0  0  0  0
  3  1  1  0  0  0  0
  5 12  1  0  0  0  0
  6  8  1  0  0  0  0
  7  4  1  0  0  0  0
  7  9  1  0  0  0  0
  8  9  2  0  0  0  0
  8 15  1  0  0  0  0
  9  3  1  0  0  0  0
 10 11  1  0  0  0  0
 10  5  1  0  0  0  0
 11 17  1  1  0  0  0
 11 13  1  0  0  0  0
 12 14  1  0  0  0  0
 12  6  2  0  0  0  0
 13 14  1  0  0  0  0
 14  7  2  0  0  0  0
 15 16  1  0  0  0  0
 17 18  1  0  0  0  0
 18 20  1  0  0  0  0
 20 19  1  0  0  0  0
 21 27  1  0  0  0  0
 22 25  1  0  0  0  0
 23 25  2  0  0  0  0
 23 30  1  0  0  0  0
 24 26  1  0  0  0  0
 24 27  2  0  0  0  0
 25 28  1  0  0  0  0
 26 22  2  0  0  0  0
 27 23  1  0  0  0  0
 28 29  2  0  0  0  0
 30 31  1  0  0  0  0
 33 31  1  0  0  0  0
 33 32  1  0  0  0  0
 34 33  2  0  0  0  0
M  END
>  <MODEL>
2

>  <REMARK>
 VINA RESULT:      -7.8      2.926      8.786
  Name = 
  10 active torsions:
  status: ('A' for Active; 'I' for Inactive)
    1  A    between atoms: C_7  and  N_14
    2  A    between atoms: C_7  and  C_15
    3  A    between atoms: N_8  and  C_18
    4  A    between atoms: O_12  and  C_19
    5  A    between atoms: C_13  and  C_24
    6  A    between atoms: N_14  and  C_16
    7  A    between atoms: C_17  and  C_20
    8  A    between atoms: C_24  and  N_25
    9  A    between atoms: N_25  and  C_27
   10  A    between atoms: C_26  and  C_28
                            x       y       z     vdW  Elec       q    Type
                         _______ _______ _______ _____ _____    ______ ____

>  <TORSDO>
F 10

$$$$
=
 OpenBabel10262423183D

 34 36  0  0  1  0  0  0  0  0999 V2000
  190.1260  177.3280  141.6410 N   0  0  0  0  0  2  0  0  0  0  0  0
  190.5610  175.2780  142.6760 O   0  0  0  0  0  0  0  0  0  0  0  0
  190.0170  176.4140  142.7400 C   0  0  0  0  0  0  0  0  0  0  0  0
  187.1740  176.5560  142.9010 O   0  0  0  0  0  1  0  0  0  0  0  0
  187.3730  178.4890  147.4600 C   0  0  0  0  0  2  0  0  0  0  0  0
  189.4050  177.7450  146.2410 C   0  0  0  0  0  3  0  0  0  0  0  0
  187.9260  176.9320  144.0110 C   0  0  0  0  0  0  0  0  0  0  0  0
  190.0740  177.2180  145.1350 C   0  0  0  0  0  0  0  0  0  0  0  0
  189.3350  176.8310  143.9870 C   0  0  0  0  0  0  0  0  0  0  0  0
  185.8830  178.1720  147.5650 C   0  0  0  0  0  2  0  0  0  0  0  0
  185.1790  178.3980  146.2280 C   0  0  2  0  0  3  0  0  0  0  0  0
  188.0160  177.8460  146.2650 C   0  0  0  0  0  0  0  0  0  0  0  0
  185.7570  177.4650  145.1650 C   0  0  0  0  0  2  0  0  0  0  0  0
  187.2660  177.4390  145.1430 C   0  0  0  0  0  0  0  0  0  0  0  0
  191.4640  177.0940  145.2310 O   0  0  0  0  0  0  0  0  0  0  0  0
  192.0940  176.0650  145.9790 C   0  0  0  0  0  1  0  0  0  0  0  0
  185.2980  179.7850  145.8020 N   0  0  0  0  0  2  0  0  0  0  0  0
  184.5110  179.9330  144.5880 C   0  0  0  0  0  2  0  0  0  0  0  0
  182.4990  179.0850  143.3920 C   0  0  0  0  0  1  0  0  0  0  0  0
  183.1850  179.2100  144.7380 C   0  0  0  0  0  2  0  0  0  0  0  0
  192.8950  177.1060  140.9500 F   0  0  0  0  0  0  0  0  0  0  0  0
  190.0190  176.3660  138.0540 C   0  0  0  0  0  3  0  0  0  0  0  0
  192.3520  176.5720  138.6960 C   0  0  0  0  0  0  0  0  0  0  0  0
  190.5820  177.0070  140.3200 C   0  0  0  0  0  0  0  0  0  0  0  0
  191.3700  176.3310  137.7020 C   0  0  0  0  0  0  0  0  0  0  0  0
  189.6280  176.6880  139.3530 C   0  0  0  0  0  3  0  0  0  0  0  0
  191.9490  176.9320  139.9930 C   0  0  0  0  0  0  0  0  0  0  0  0
  191.6690  176.1060  136.2780 C   0  0  0  0  0  3  0  0  0  0  0  0
  190.8570  176.4060  135.3640 O   0  0  0  0  0  0  0  0  0  0  0  0
  193.7540  176.4120  138.4500 N   0  0  0  0  0  2  0  0  0  0  0  0
  194.3420  175.1390  138.0650 C   0  0  0  0  0  2  0  0  0  0  0  0
  195.6790  175.4880  140.0020 O   0  0  0  0  0  1  0  0  0  0  0  0
  195.2760  174.6800  139.1260 C   0  0  0  0  0  0  0  0  0  0  0  0
  195.7340  173.3690  139.1290 O   0  0  0  0  0  0  0  0  0  0  0  0
  1  3  1  0  0  0  0
  2  3  2  0  0  0  0
  3  9  1  0  0  0  0
  4  7  1  0  0  0  0
  5 10  1  0  0  0  0
  6 12  1  0  0  0  0
  7 14  1  0  0  0  0
  8 15  1  0  0  0  0
  8  6  2  0  0  0  0
  9  7  2  0  0  0  0
  9  8  1  0  0  0  0
 11 17  1  6  0  0  0
 11 10  1  0  0  0  0
 12  5  1  0  0  0  0
 13 11  1  0  0  0  0
 14 13  1  0  0  0  0
 14 12  2  0  0  0  0
 15 16  1  0  0  0  0
 18 20  1  0  0  0  0
 18 17  1  0  0  0  0
 19 20  1  0  0  0  0
 22 26  1  0  0  0  0
 23 27  2  0  0  0  0
 24  1  1  0  0  0  0
 25 22  2  0  0  0  0
 25 23  1  0  0  0  0
 26 24  2  0  0  0  0
 27 24  1  0  0  0  0
 27 21  1  0  0  0  0
 28 25  1  0  0  0  0
 29 28  2  0  0  0  0
 30 23  1  0  0  0  0
 31 30  1  0  0  0  0
 31 33  1  0  0  0  0
 33 34  2  0  0  0  0
 33 32  1  0  0  0  0
M  END
>  <MODEL>
3

>  <REMARK>
 VINA RESULT:      -7.7      1.684      3.154
  Name = 
  10 active torsions:
  status: ('A' for Active; 'I' for Inactive)
    1  A    between atoms: C_7  and  N_14
    2  A    between atoms: C_7  and  C_15
    3  A    between atoms: N_8  and  C_18
    4  A    between atoms: O_12  and  C_19
    5  A    between atoms: C_13  and  C_24
    6  A    between atoms: N_14  and  C_16
    7  A    between atoms: C_17  and  C_20
    8  A    between atoms: C_24  and  N_25
    9  A    between atoms: N_25  and  C_27
   10  A    between atoms: C_26  and  C_28
                            x       y       z     vdW  Elec       q    Type
                         _______ _______ _______ _____ _____    ______ ____

>  <TORSDO>
F 10

$$$$
=
 OpenBabel10262423183D

 34 36  0  0  1  0  0  0  0  0999 V2000
  186.0340  177.6840  143.0780 N   0  0  0  0  0  2  0  0  0  0  0  0
  185.8350  179.7480  141.9990 O   0  0  0  0  0  0  0  0  0  0  0  0
  185.2600  178.7440  142.5030 C   0  0  0  0  0  0  0  0  0  0  0  0
  183.9820  177.6770  140.1890 O   0  0  0  0  0  1  0  0  0  0  0  0
  179.4880  178.7190  142.0000 C   0  0  0  0  0  2  0  0  0  0  0  0
  181.5670  179.0930  143.3060 C   0  0  0  0  0  3  0  0  0  0  0  0
  183.1890  178.1340  141.2390 C   0  0  0  0  0  0  0  0  0  0  0  0
  182.9520  179.0830  143.4760 C   0  0  0  0  0  0  0  0  0  0  0  0
  183.7860  178.6270  142.4220 C   0  0  0  0  0  0  0  0  0  0  0  0
  178.9320  177.8040  140.9100 C   0  0  0  0  0  2  0  0  0  0  0  0
  179.7340  177.9440  139.6170 C   0  0  2  0  0  3  0  0  0  0  0  0
  180.9790  178.6090  142.1400 C   0  0  0  0  0  0  0  0  0  0  0  0
  181.1850  177.5260  139.8500 C   0  0  0  0  0  2  0  0  0  0  0  0
  181.7920  178.1260  141.0950 C   0  0  0  0  0  0  0  0  0  0  0  0
  183.4460  179.5270  144.7070 O   0  0  0  0  0  0  0  0  0  0  0  0
  183.8660  178.6390  145.7330 C   0  0  0  0  0  1  0  0  0  0  0  0
  179.6760  179.3080  139.1100 N   0  0  0  0  0  2  0  0  0  0  0  0
  180.1160  179.2720  137.7240 C   0  0  0  0  0  2  0  0  0  0  0  0
  181.7470  181.0070  138.4520 C   0  0  0  0  0  1  0  0  0  0  0  0
  180.7850  180.5840  137.3580 C   0  0  0  0  0  2  0  0  0  0  0  0
  187.0270  177.8260  145.7580 F   0  0  0  0  0  0  0  0  0  0  0  0
  189.7190  177.6490  142.6070 C   0  0  0  0  0  3  0  0  0  0  0  0
  189.2780  177.8410  144.9880 C   0  0  0  0  0  0  0  0  0  0  0  0
  187.4320  177.7360  143.3950 C   0  0  0  0  0  0  0  0  0  0  0  0
  190.2000  177.7930  143.9110 C   0  0  0  0  0  0  0  0  0  0  0  0
  188.3500  177.6080  142.3520 C   0  0  0  0  0  3  0  0  0  0  0  0
  187.8990  177.8360  144.7190 C   0  0  0  0  0  0  0  0  0  0  0  0
  191.6560  177.9530  144.0570 C   0  0  0  0  0  3  0  0  0  0  0  0
  192.2030  179.0830  144.1550 O   0  0  0  0  0  0  0  0  0  0  0  0
  189.6940  177.8410  146.3590 N   0  0  0  0  0  2  0  0  0  0  0  0
  189.9660  176.6160  147.0950 C   0  0  0  0  0  2  0  0  0  0  0  0
  192.0870  175.6600  146.5930 O   0  0  0  0  0  0  0  0  0  0  0  0
  191.4320  176.4720  147.2970 C   0  0  0  0  0  0  0  0  0  0  0  0
  192.0720  177.2030  148.2880 O   0  0  0  0  0  1  0  0  0  0  0  0
  1 24  1  0  0  0  0
  2  3  2  0  0  0  0
  3  1  1  0  0  0  0
  4  7  1  0  0  0  0
  5 12  1  0  0  0  0
  6  8  1  0  0  0  0
  7  9  1  0  0  0  0
  8 15  1  0  0  0  0
  9  3  1  0  0  0  0
  9  8  2  0  0  0  0
 10  5  1  0  0  0  0
 11 17  1  1  0  0  0
 11 13  1  0  0  0  0
 11 10  1  0  0  0  0
 12  6  2  0  0  0  0
 13 14  1  0  0  0  0
 14  7  2  0  0  0  0
 14 12  1  0  0  0  0
 15 16  1  0  0  0  0
 18 17  1  0  0  0  0
 20 18  1  0  0  0  0
 20 19  1  0  0  0  0
 22 25  1  0  0  0  0
 23 30  1  0  0  0  0
 24 27  2  0  0  0  0
 25 28  1  0  0  0  0
 25 23  2  0  0  0  0
 26 22  2  0  0  0  0
 26 24  1  0  0  0  0
 27 23  1  0  0  0  0
 27 21  1  0  0  0  0
 28 29  2  0  0  0  0
 30 31  1  0  0  0  0
 31 33  1  0  0  0  0
 32 33  2  0  0  0  0
 33 34  1  0  0  0  0
M  END
>  <MODEL>
4

>  <REMARK>
 VINA RESULT:      -7.6      3.952      7.763
  Name = 
  10 active torsions:
  status: ('A' for Active; 'I' for Inactive)
    1  A    between atoms: C_7  and  N_14
    2  A    between atoms: C_7  and  C_15
    3  A    between atoms: N_8  and  C_18
    4  A    between atoms: O_12  and  C_19
    5  A    between atoms: C_13  and  C_24
    6  A    between atoms: N_14  and  C_16
    7  A    between atoms: C_17  and  C_20
    8  A    between atoms: C_24  and  N_25
    9  A    between atoms: N_25  and  C_27
   10  A    between atoms: C_26  and  C_28
                            x       y       z     vdW  Elec       q    Type
                         _______ _______ _______ _____ _____    ______ ____

>  <TORSDO>
F 10

$$$$
=
 OpenBabel10262423183D

 34 36  0  0  1  0  0  0  0  0999 V2000
  185.0660  177.8720  142.9440 N   0  0  0  0  0  2  0  0  0  0  0  0
  185.7510  179.8990  142.0040 O   0  0  0  0  0  0  0  0  0  0  0  0
  184.9920  178.8940  141.9410 C   0  0  0  0  0  0  0  0  0  0  0  0
  182.1610  178.8670  142.2680 O   0  0  0  0  0  1  0  0  0  0  0  0
  181.4620  177.7970  137.4800 C   0  0  0  0  0  2  0  0  0  0  0  0
  183.7130  178.2450  138.4270 C   0  0  0  0  0  3  0  0  0  0  0  0
  182.6880  178.6790  140.9920 C   0  0  0  0  0  0  0  0  0  0  0  0
  184.5920  178.5400  139.4710 C   0  0  0  0  0  0  0  0  0  0  0  0
  184.0840  178.7320  140.7820 C   0  0  0  0  0  0  0  0  0  0  0  0
  179.9980  178.1720  137.6990 C   0  0  0  0  0  2  0  0  0  0  0  0
  179.5190  177.7260  139.0790 C   0  0  2  0  0  3  0  0  0  0  0  0
  182.3370  178.1920  138.6340 C   0  0  0  0  0  0  0  0  0  0  0  0
  180.3260  178.4310  140.1690 C   0  0  0  0  0  2  0  0  0  0  0  0
  181.8160  178.4080  139.9260 C   0  0  0  0  0  0  0  0  0  0  0  0
  185.9500  178.6390  139.1520 O   0  0  0  0  0  0  0  0  0  0  0  0
  186.5120  178.0460  137.9900 C   0  0  0  0  0  1  0  0  0  0  0  0
  179.6240  176.2810  139.2280 N   0  0  0  0  0  2  0  0  0  0  0  0
  179.2250  175.9570  140.5880 C   0  0  0  0  0  2  0  0  0  0  0  0
  179.4890  173.7470  139.4740 C   0  0  0  0  0  1  0  0  0  0  0  0
  179.2610  174.4550  140.7960 C   0  0  0  0  0  2  0  0  0  0  0  0
  187.6850  176.8100  143.3990 F   0  0  0  0  0  0  0  0  0  0  0  0
  185.7630  178.8440  146.4610 C   0  0  0  0  0  3  0  0  0  0  0  0
  187.6700  177.5760  145.6510 C   0  0  0  0  0  0  0  0  0  0  0  0
  185.7450  177.9730  144.2020 C   0  0  0  0  0  0  0  0  0  0  0  0
  187.0090  178.2610  146.7030 C   0  0  0  0  0  0  0  0  0  0  0  0
  185.1430  178.7130  145.2200 C   0  0  0  0  0  3  0  0  0  0  0  0
  187.0210  177.4170  144.4150 C   0  0  0  0  0  0  0  0  0  0  0  0
  187.5170  178.3510  148.0820 C   0  0  0  0  0  3  0  0  0  0  0  0
  187.8420  177.3330  148.7470 O   0  0  0  0  0  0  0  0  0  0  0  0
  189.0070  177.0790  145.7760 N   0  0  0  0  0  2  0  0  0  0  0  0
  190.1640  177.8060  145.2750 C   0  0  0  0  0  2  0  0  0  0  0  0
  192.0560  176.7530  146.2630 O   0  0  0  0  0  1  0  0  0  0  0  0
  191.3430  176.9000  145.2370 C   0  0  0  0  0  0  0  0  0  0  0  0
  191.6790  176.2480  144.0580 O   0  0  0  0  0  0  0  0  0  0  0  0
  1 24  1  0  0  0  0
  3  2  2  0  0  0  0
  3  1  1  0  0  0  0
  5 10  1  0  0  0  0
  5 12  1  0  0  0  0
  6 12  2  0  0  0  0
  6  8  1  0  0  0  0
  7  4  1  0  0  0  0
  8  9  2  0  0  0  0
  9  7  1  0  0  0  0
  9  3  1  0  0  0  0
 10 11  1  0  0  0  0
 11 17  1  6  0  0  0
 11 13  1  0  0  0  0
 12 14  1  0  0  0  0
 14 13  1  0  0  0  0
 14  7  2  0  0  0  0
 15  8  1  0  0  0  0
 16 15  1  0  0  0  0
 17 18  1  0  0  0  0
 18 20  1  0  0  0  0
 19 20  1  0  0  0  0
 21 27  1  0  0  0  0
 22 25  1  0  0  0  0
 23 30  1  0  0  0  0
 23 25  2  0  0  0  0
 24 27  2  0  0  0  0
 24 26  1  0  0  0  0
 25 28  1  0  0  0  0
 26 22  2  0  0  0  0
 27 23  1  0  0  0  0
 28 29  2  0  0  0  0
 31 30  1  0  0  0  0
 33 31  1  0  0  0  0
 33 32  1  0  0  0  0
 34 33  2  0  0  0  0
M  END
>  <MODEL>
5

>  <REMARK>
 VINA RESULT:      -7.6      4.027      8.701
  Name = 
  10 active torsions:
  status: ('A' for Active; 'I' for Inactive)
    1  A    between atoms: C_7  and  N_14
    2  A    between atoms: C_7  and  C_15
    3  A    between atoms: N_8  and  C_18
    4  A    between atoms: O_12  and  C_19
    5  A    between atoms: C_13  and  C_24
    6  A    between atoms: N_14  and  C_16
    7  A    between atoms: C_17  and  C_20
    8  A    between atoms: C_24  and  N_25
    9  A    between atoms: N_25  and  C_27
   10  A    between atoms: C_26  and  C_28
                            x       y       z     vdW  Elec       q    Type
                         _______ _______ _______ _____ _____    ______ ____

>  <TORSDO>
F 10

$$$$
=
 OpenBabel10262423183D

 34 36  0  0  1  0  0  0  0  0999 V2000
  188.2490  176.9270  141.8200 N   0  0  0  0  0  2  0  0  0  0  0  0
  189.0200  179.0170  141.1120 O   0  0  0  0  0  0  0  0  0  0  0  0
  188.6990  177.8360  140.8070 C   0  0  0  0  0  0  0  0  0  0  0  0
  190.7660  176.0040  140.1000 O   0  0  0  0  0  1  0  0  0  0  0  0
  189.6580  176.3690  135.2840 C   0  0  0  0  0  2  0  0  0  0  0  0
  188.3210  177.4990  137.0460 C   0  0  0  0  0  3  0  0  0  0  0  0
  189.9360  176.4940  139.0960 C   0  0  0  0  0  0  0  0  0  0  0  0
  188.0390  177.8470  138.3670 C   0  0  0  0  0  0  0  0  0  0  0  0
  188.8710  177.3670  139.4120 C   0  0  0  0  0  0  0  0  0  0  0  0
  190.5230  175.1270  135.0800 C   0  0  0  0  0  2  0  0  0  0  0  0
  191.7380  175.1480  136.0060 C   0  0  2  0  0  3  0  0  0  0  0  0
  189.3710  176.6390  136.7330 C   0  0  0  0  0  0  0  0  0  0  0  0
  191.2870  175.1400  137.4650 C   0  0  0  0  0  2  0  0  0  0  0  0
  190.1890  176.1320  137.7630 C   0  0  0  0  0  0  0  0  0  0  0  0
  186.9230  178.6610  138.5880 O   0  0  0  0  0  0  0  0  0  0  0  0
  185.5900  178.1790  138.5030 C   0  0  0  0  0  1  0  0  0  0  0  0
  192.5760  176.3100  135.7430 N   0  0  0  0  0  2  0  0  0  0  0  0
  193.7350  176.2120  136.6160 C   0  0  0  0  0  2  0  0  0  0  0  0
  195.6290  174.6060  136.7900 C   0  0  0  0  0  1  0  0  0  0  0  0
  194.8890  175.5630  135.8750 C   0  0  0  0  0  2  0  0  0  0  0  0
  190.0990  177.1100  143.9960 F   0  0  0  0  0  0  0  0  0  0  0  0
  186.1010  177.9990  144.6550 C   0  0  0  0  0  3  0  0  0  0  0  0
  188.3620  177.7230  145.5010 C   0  0  0  0  0  0  0  0  0  0  0  0
  187.8580  177.2780  143.1540 C   0  0  0  0  0  0  0  0  0  0  0  0
  186.9930  178.0160  145.7300 C   0  0  0  0  0  0  0  0  0  0  0  0
  186.5320  177.6460  143.3770 C   0  0  0  0  0  3  0  0  0  0  0  0
  188.7790  177.3330  144.2170 C   0  0  0  0  0  0  0  0  0  0  0  0
  186.4120  178.2770  147.0580 C   0  0  0  0  0  3  0  0  0  0  0  0
  185.3140  178.8750  147.2070 O   0  0  0  0  0  0  0  0  0  0  0  0
  189.3600  177.8610  146.5180 N   0  0  0  0  0  2  0  0  0  0  0  0
  189.8260  176.7380  147.3180 C   0  0  0  0  0  2  0  0  0  0  0  0
  192.0260  177.1280  148.1360 O   0  0  0  0  0  1  0  0  0  0  0  0
  191.3060  176.6410  147.2260 C   0  0  0  0  0  0  0  0  0  0  0  0
  191.8960  176.0470  146.1180 O   0  0  0  0  0  0  0  0  0  0  0  0
  1 24  1  0  0  0  0
  3  2  2  0  0  0  0
  3  1  1  0  0  0  0
  5 12  1  0  0  0  0
  6  8  1  0  0  0  0
  7  9  1  0  0  0  0
  7  4  1  0  0  0  0
  8 15  1  0  0  0  0
  8  9  2  0  0  0  0
  9  3  1  0  0  0  0
 10  5  1  0  0  0  0
 10 11  1  0  0  0  0
 11 17  1  1  0  0  0
 11 13  1  0  0  0  0
 12  6  2  0  0  0  0
 12 14  1  0  0  0  0
 13 14  1  0  0  0  0
 14  7  2  0  0  0  0
 16 15  1  0  0  0  0
 17 18  1  0  0  0  0
 20 18  1  0  0  0  0
 20 19  1  0  0  0  0
 21 27  1  0  0  0  0
 22 25  1  0  0  0  0
 23 25  2  0  0  0  0
 23 30  1  0  0  0  0
 24 26  1  0  0  0  0
 24 27  2  0  0  0  0
 25 28  1  0  0  0  0
 26 22  2  0  0  0  0
 27 23  1  0  0  0  0
 28 29  2  0  0  0  0
 30 31  1  0  0  0  0
 33 31  1  0  0  0  0
 33 32  1  0  0  0  0
 34 33  2  0  0  0  0
M  END
>  <MODEL>
6

>  <REMARK>
 VINA RESULT:      -7.5      2.361      9.722
  Name = 
  10 active torsions:
  status: ('A' for Active; 'I' for Inactive)
    1  A    between atoms: C_7  and  N_14
    2  A    between atoms: C_7  and  C_15
    3  A    between atoms: N_8  and  C_18
    4  A    between atoms: O_12  and  C_19
    5  A    between atoms: C_13  and  C_24
    6  A    between atoms: N_14  and  C_16
    7  A    between atoms: C_17  and  C_20
    8  A    between atoms: C_24  and  N_25
    9  A    between atoms: N_25  and  C_27
   10  A    between atoms: C_26  and  C_28
                            x       y       z     vdW  Elec       q    Type
                         _______ _______ _______ _____ _____    ______ ____

>  <TORSDO>
F 10

$$$$
=
 OpenBabel10262423183D

 34 36  0  0  1  0  0  0  0  0999 V2000
  186.1990  177.4360  143.8680 N   0  0  0  0  0  2  0  0  0  0  0  0
  186.3400  179.2580  142.4110 O   0  0  0  0  0  0  0  0  0  0  0  0
  185.6110  178.4920  143.0970 C   0  0  0  0  0  0  0  0  0  0  0  0
  184.1570  177.8820  140.7230 O   0  0  0  0  0  1  0  0  0  0  0  0
  179.9160  179.4930  142.7180 C   0  0  0  0  0  2  0  0  0  0  0  0
  182.0360  179.3830  144.0080 C   0  0  0  0  0  3  0  0  0  0  0  0
  183.4590  178.3650  141.8270 C   0  0  0  0  0  0  0  0  0  0  0  0
  183.3990  179.1220  144.1470 C   0  0  0  0  0  0  0  0  0  0  0  0
  184.1370  178.6340  143.0380 C   0  0  0  0  0  0  0  0  0  0  0  0
  179.2070  178.7950  141.5600 C   0  0  0  0  0  2  0  0  0  0  0  0
  180.0140  178.9190  140.2690 C   0  0  2  0  0  3  0  0  0  0  0  0
  181.3670  179.1190  142.8150 C   0  0  0  0  0  0  0  0  0  0  0  0
  181.3730  178.2410  140.4310 C   0  0  0  0  0  2  0  0  0  0  0  0
  182.0810  178.6080  141.7120 C   0  0  0  0  0  0  0  0  0  0  0  0
  183.9680  179.3560  145.4040 O   0  0  0  0  0  0  0  0  0  0  0  0
  184.2590  178.3130  146.3220 C   0  0  0  0  0  1  0  0  0  0  0  0
  180.1870  180.3150  139.8930 N   0  0  0  0  0  2  0  0  0  0  0  0
  180.7250  180.3350  138.5420 C   0  0  0  0  0  2  0  0  0  0  0  0
  180.7830  182.6680  137.6740 C   0  0  0  0  0  1  0  0  0  0  0  0
  181.5860  181.5680  138.3430 C   0  0  0  0  0  2  0  0  0  0  0  0
  188.1580  176.7010  141.9160 F   0  0  0  0  0  0  0  0  0  0  0  0
  189.3710  177.5000  145.8010 C   0  0  0  0  0  3  0  0  0  0  0  0
  189.8990  176.8080  143.5340 C   0  0  0  0  0  0  0  0  0  0  0  0
  187.5930  177.2900  144.1720 C   0  0  0  0  0  0  0  0  0  0  0  0
  190.3130  177.0700  144.8650 C   0  0  0  0  0  0  0  0  0  0  0  0
  188.0260  177.6220  145.4560 C   0  0  0  0  0  3  0  0  0  0  0  0
  188.5360  176.8980  143.2040 C   0  0  0  0  0  0  0  0  0  0  0  0
  191.6810  176.8540  145.3650 C   0  0  0  0  0  3  0  0  0  0  0  0
  191.9560  176.8490  146.5940 O   0  0  0  0  0  0  0  0  0  0  0  0
  190.8250  176.5060  142.4840 N   0  0  0  0  0  2  0  0  0  0  0  0
  191.2320  177.4860  141.4890 C   0  0  0  0  0  2  0  0  0  0  0  0
  190.9070  176.0080  139.6530 O   0  0  0  0  0  1  0  0  0  0  0  0
  190.6520  177.1270  140.1680 C   0  0  0  0  0  0  0  0  0  0  0  0
  189.8610  178.0410  139.4860 O   0  0  0  0  0  0  0  0  0  0  0  0
  1 24  1  0  0  0  0
  2  3  2  0  0  0  0
  3  1  1  0  0  0  0
  4  7  1  0  0  0  0
  5 12  1  0  0  0  0
  6  8  1  0  0  0  0
  7  9  1  0  0  0  0
  8 15  1  0  0  0  0
  9  3  1  0  0  0  0
  9  8  2  0  0  0  0
 10  5  1  0  0  0  0
 11 17  1  1  0  0  0
 11 13  1  0  0  0  0
 11 10  1  0  0  0  0
 12  6  2  0  0  0  0
 13 14  1  0  0  0  0
 14  7  2  0  0  0  0
 14 12  1  0  0  0  0
 15 16  1  0  0  0  0
 18 17  1  0  0  0  0
 19 20  1  0  0  0  0
 20 18  1  0  0  0  0
 21 27  1  0  0  0  0
 23 25  1  0  0  0  0
 24 26  2  0  0  0  0
 25 28  1  0  0  0  0
 25 22  2  0  0  0  0
 26 22  1  0  0  0  0
 27 23  2  0  0  0  0
 27 24  1  0  0  0  0
 28 29  2  0  0  0  0
 30 23  1  0  0  0  0
 31 30  1  0  0  0  0
 32 33  1  0  0  0  0
 33 31  1  0  0  0  0
 34 33  2  0  0  0  0
M  END
>  <MODEL>
7

>  <REMARK>
 VINA RESULT:      -7.4      3.102      6.566
  Name = 
  10 active torsions:
  status: ('A' for Active; 'I' for Inactive)
    1  A    between atoms: C_7  and  N_14
    2  A    between atoms: C_7  and  C_15
    3  A    between atoms: N_8  and  C_18
    4  A    between atoms: O_12  and  C_19
    5  A    between atoms: C_13  and  C_24
    6  A    between atoms: N_14  and  C_16
    7  A    between atoms: C_17  and  C_20
    8  A    between atoms: C_24  and  N_25
    9  A    between atoms: N_25  and  C_27
   10  A    between atoms: C_26  and  C_28
                            x       y       z     vdW  Elec       q    Type
                         _______ _______ _______ _____ _____    ______ ____

>  <TORSDO>
F 10

$$$$
=
 OpenBabel10262423183D

 34 36  0  0  1  0  0  0  0  0999 V2000
  190.1510  176.5300  141.4830 N   0  0  0  0  0  2  0  0  0  0  0  0
  191.9470  177.8380  140.7580 O   0  0  0  0  0  0  0  0  0  0  0  0
  190.8830  177.2260  140.4670 C   0  0  0  0  0  0  0  0  0  0  0  0
  188.5830  178.6490  139.5670 O   0  0  0  0  0  1  0  0  0  0  0  0
  188.8810  176.5970  135.0660 C   0  0  0  0  0  2  0  0  0  0  0  0
  190.5870  176.1960  136.8260 C   0  0  0  0  0  3  0  0  0  0  0  0
  189.2670  177.8450  138.6600 C   0  0  0  0  0  0  0  0  0  0  0  0
  191.1170  176.3500  138.1070 C   0  0  0  0  0  0  0  0  0  0  0  0
  190.4390  177.1600  139.0550 C   0  0  0  0  0  0  0  0  0  0  0  0
  187.8940  177.6690  134.6070 C   0  0  0  0  0  2  0  0  0  0  0  0
  186.8600  177.9620  135.6930 C   0  0  2  0  0  3  0  0  0  0  0  0
  189.4310  176.8690  136.4360 C   0  0  0  0  0  0  0  0  0  0  0  0
  187.5510  178.5010  136.9450 C   0  0  0  0  0  2  0  0  0  0  0  0
  188.7620  177.7000  137.3580 C   0  0  0  0  0  0  0  0  0  0  0  0
  192.3170  175.6870  138.3840 O   0  0  0  0  0  0  0  0  0  0  0  0
  192.7680  174.5680  137.6350 C   0  0  0  0  0  1  0  0  0  0  0  0
  186.0880  176.7700  136.0160 N   0  0  0  0  0  2  0  0  0  0  0  0
  184.6950  177.1740  136.1220 C   0  0  0  0  0  2  0  0  0  0  0  0
  184.0920  178.0970  138.3540 C   0  0  0  0  0  1  0  0  0  0  0  0
  184.1620  176.8430  137.5030 C   0  0  0  0  0  2  0  0  0  0  0  0
  188.3970  178.0300  143.1770 F   0  0  0  0  0  0  0  0  0  0  0  0
  191.6080  176.0130  144.8610 C   0  0  0  0  0  3  0  0  0  0  0  0
  189.6900  177.4850  145.0990 C   0  0  0  0  0  0  0  0  0  0  0  0
  190.3450  176.6560  142.8980 C   0  0  0  0  0  0  0  0  0  0  0  0
  190.7940  176.8050  145.6750 C   0  0  0  0  0  0  0  0  0  0  0  0
  191.3780  175.9290  143.4890 C   0  0  0  0  0  3  0  0  0  0  0  0
  189.4880  177.4230  143.7100 C   0  0  0  0  0  0  0  0  0  0  0  0
  191.1980  176.9260  147.0850 C   0  0  0  0  0  3  0  0  0  0  0  0
  191.9060  176.0580  147.6600 O   0  0  0  0  0  0  0  0  0  0  0  0
  188.7270  178.1960  145.8860 N   0  0  0  0  0  2  0  0  0  0  0  0
  187.5830  177.5440  146.5040 C   0  0  0  0  0  2  0  0  0  0  0  0
  185.8530  178.0340  144.9460 O   0  0  0  0  0  0  0  0  0  0  0  0
  186.3330  178.2340  146.0920 C   0  0  0  0  0  0  0  0  0  0  0  0
  185.7160  179.1290  146.9560 O   0  0  0  0  0  1  0  0  0  0  0  0
  1 24  1  0  0  0  0
  3  2  2  0  0  0  0
  3  1  1  0  0  0  0
  5 12  1  0  0  0  0
  6  8  1  0  0  0  0
  7  9  1  0  0  0  0
  7  4  1  0  0  0  0
  8 15  1  0  0  0  0
  8  9  2  0  0  0  0
  9  3  1  0  0  0  0
 10  5  1  0  0  0  0
 10 11  1  0  0  0  0
 11 17  1  1  0  0  0
 11 13  1  0  0  0  0
 12  6  2  0  0  0  0
 12 14  1  0  0  0  0
 13 14  1  0  0  0  0
 14  7  2  0  0  0  0
 16 15  1  0  0  0  0
 17 18  1  0  0  0  0
 18 20  1  0  0  0  0
 20 19  1  0  0  0  0
 21 27  1  0  0  0  0
 22 25  1  0  0  0  0
 23 25  2  0  0  0  0
 23 30  1  0  0  0  0
 24 26  1  0  0  0  0
 24 27  2  0  0  0  0
 25 28  1  0  0  0  0
 26 22  2  0  0  0  0
 27 23  1  0  0  0  0
 28 29  2  0  0  0  0
 30 31  1  0  0  0  0
 32 33  2  0  0  0  0
 33 31  1  0  0  0  0
 33 34  1  0  0  0  0
M  END
>  <MODEL>
8

>  <REMARK>
 VINA RESULT:      -7.4      2.482      8.068
  Name = 
  10 active torsions:
  status: ('A' for Active; 'I' for Inactive)
    1  A    between atoms: C_7  and  N_14
    2  A    between atoms: C_7  and  C_15
    3  A    between atoms: N_8  and  C_18
    4  A    between atoms: O_12  and  C_19
    5  A    between atoms: C_13  and  C_24
    6  A    between atoms: N_14  and  C_16
    7  A    between atoms: C_17  and  C_20
    8  A    between atoms: C_24  and  N_25
    9  A    between atoms: N_25  and  C_27
   10  A    between atoms: C_26  and  C_28
                            x       y       z     vdW  Elec       q    Type
                         _______ _______ _______ _____ _____    ______ ____

>  <TORSDO>
F 10

$$$$
=
 OpenBabel10262423183D

 34 36  0  0  1  0  0  0  0  0999 V2000
  185.3210  177.8470  143.3690 N   0  0  0  0  0  2  0  0  0  0  0  0
  184.6320  180.0590  143.6740 O   0  0  0  0  0  0  0  0  0  0  0  0
  184.4290  178.9420  143.1250 C   0  0  0  0  0  0  0  0  0  0  0  0
  184.8970  178.8810  140.3140 O   0  0  0  0  0  1  0  0  0  0  0  0
  180.0370  178.8200  139.3480 C   0  0  0  0  0  2  0  0  0  0  0  0
  180.9340  178.7220  141.6610 C   0  0  0  0  0  3  0  0  0  0  0  0
  183.5850  178.8100  140.7740 C   0  0  0  0  0  0  0  0  0  0  0  0
  181.9670  178.7150  142.6000 C   0  0  0  0  0  0  0  0  0  0  0  0
  183.3140  178.7910  142.1610 C   0  0  0  0  0  0  0  0  0  0  0  0
  180.4130  178.4210  137.9220 C   0  0  0  0  0  2  0  0  0  0  0  0
  181.6870  179.1350  137.4720 C   0  0  2  0  0  3  0  0  0  0  0  0
  181.2000  178.7420  140.2950 C   0  0  0  0  0  0  0  0  0  0  0  0
  182.8580  178.7360  138.3690 C   0  0  0  0  0  2  0  0  0  0  0  0
  182.5340  178.7890  139.8420 C   0  0  0  0  0  0  0  0  0  0  0  0
  181.6030  178.6250  143.9470 O   0  0  0  0  0  0  0  0  0  0  0  0
  180.2500  178.5790  144.3770 C   0  0  0  0  0  1  0  0  0  0  0  0
  181.5090  180.5800  137.4860 N   0  0  0  0  0  2  0  0  0  0  0  0
  180.7500  180.9330  136.2960 C   0  0  0  0  0  2  0  0  0  0  0  0
  179.9370  182.6760  137.8770 C   0  0  0  0  0  1  0  0  0  0  0  0
  180.2150  182.3470  136.4230 C   0  0  0  0  0  2  0  0  0  0  0  0
  188.1330  177.9100  142.8410 F   0  0  0  0  0  0  0  0  0  0  0  0
  186.8130  177.7360  146.7690 C   0  0  0  0  0  3  0  0  0  0  0  0
  188.6340  177.7630  145.1620 C   0  0  0  0  0  0  0  0  0  0  0  0
  186.3140  177.7830  144.4010 C   0  0  0  0  0  0  0  0  0  0  0  0
  188.1840  177.6920  146.5050 C   0  0  0  0  0  0  0  0  0  0  0  0
  185.8880  177.7940  145.7290 C   0  0  0  0  0  3  0  0  0  0  0  0
  187.6940  177.7840  144.1180 C   0  0  0  0  0  0  0  0  0  0  0  0
  189.0690  177.5040  147.6670 C   0  0  0  0  0  3  0  0  0  0  0  0
  189.1070  178.3210  148.6240 O   0  0  0  0  0  0  0  0  0  0  0  0
  190.0200  177.8710  144.8180 N   0  0  0  0  0  2  0  0  0  0  0  0
  190.8740  176.7080  144.6290 C   0  0  0  0  0  2  0  0  0  0  0  0
  190.4470  175.2620  142.7880 O   0  0  0  0  0  1  0  0  0  0  0  0
  190.9250  176.3560  143.1860 C   0  0  0  0  0  0  0  0  0  0  0  0
  191.5350  177.2160  142.2830 O   0  0  0  0  0  0  0  0  0  0  0  0
  1 24  1  0  0  0  0
  3  1  1  0  0  0  0
  3  2  2  0  0  0  0
  4  7  1  0  0  0  0
  5 12  1  0  0  0  0
  6  8  1  0  0  0  0
  7  9  1  0  0  0  0
  8 15  1  0  0  0  0
  9  8  2  0  0  0  0
  9  3  1  0  0  0  0
 10  5  1  0  0  0  0
 11 17  1  1  0  0  0
 11 10  1  0  0  0  0
 11 13  1  0  0  0  0
 12  6  2  0  0  0  0
 13 14  1  0  0  0  0
 14 12  1  0  0  0  0
 14  7  2  0  0  0  0
 15 16  1  0  0  0  0
 18 20  1  0  0  0  0
 18 17  1  0  0  0  0
 20 19  1  0  0  0  0
 21 27  1  0  0  0  0
 23 25  2  0  0  0  0
 24 26  1  0  0  0  0
 25 22  1  0  0  0  0
 25 28  1  0  0  0  0
 26 22  2  0  0  0  0
 27 24  2  0  0  0  0
 27 23  1  0  0  0  0
 28 29  2  0  0  0  0
 30 23  1  0  0  0  0
 31 30  1  0  0  0  0
 32 33  1  0  0  0  0
 33 31  1  0  0  0  0
 34 33  2  0  0  0  0
M  END
>  <MODEL>
9

>  <REMARK>
 VINA RESULT:      -7.4      4.005      8.460
  Name = 
  10 active torsions:
  status: ('A' for Active; 'I' for Inactive)
    1  A    between atoms: C_7  and  N_14
    2  A    between atoms: C_7  and  C_15
    3  A    between atoms: N_8  and  C_18
    4  A    between atoms: O_12  and  C_19
    5  A    between atoms: C_13  and  C_24
    6  A    between atoms: N_14  and  C_16
    7  A    between atoms: C_17  and  C_20
    8  A    between atoms: C_24  and  N_25
    9  A    between atoms: N_25  and  C_27
   10  A    between atoms: C_26  and  C_28
                            x       y       z     vdW  Elec       q    Type
                         _______ _______ _______ _____ _____    ______ ____

>  <TORSDO>
F 10

$$$$
