=
 OpenBabel10262421123D

 32 37  0  0  1  0  0  0  0  0999 V2000
  186.3130  178.2430  139.9040 C   0  0  1  0  0  3  0  0  0  0  0  0
  187.2710  178.2330  142.2780 C   0  0  2  0  0  3  0  0  0  0  0  0
  186.6420  178.4930  138.4320 C   0  0  0  0  0  2  0  0  0  0  0  0
  187.5570  178.4680  140.7790 C   0  0  1  0  0  3  0  0  0  0  0  0
  187.9180  176.9630  142.8660 C   0  0  2  0  0  3  0  0  0  0  0  0
  184.6530  178.8700  146.1900 O   0  0  0  0  0  0  0  0  0  0  0  0
  185.7870  178.1860  142.6220 C   0  0  2  0  0  3  0  0  0  0  0  0
  186.7100  177.5950  146.3330 C   0  0  0  0  0  2  0  0  0  0  0  0
  186.9340  177.7990  144.8440 C   0  0  1  0  0  3  0  0  0  0  0  0
  188.7590  177.7140  140.2430 C   0  0  0  0  0  0  0  0  0  0  0  0
  187.6630  176.7340  144.2580 O   0  0  0  0  0  0  0  0  0  0  0  0
  189.6020  177.0370  141.0420 C   0  0  0  0  0  3  0  0  0  0  0  0
  189.0370  177.7900  138.7720 C   0  0  0  0  0  2  0  0  0  0  0  0
  185.0090  179.2820  141.8980 C   0  0  0  0  0  2  0  0  0  0  0  0
  185.1270  179.1240  140.3660 C   0  0  2  0  0  3  0  0  0  0  0  0
  185.5840  178.0360  144.1420 C   0  0  1  0  0  3  0  0  0  0  0  0
  189.4090  176.9570  142.5360 C   0  0  2  0  0  3  0  0  0  0  0  0
  187.7520  177.5440  137.9790 C   0  0  0  0  0  2  0  0  0  0  0  0
  185.8990  178.7900  146.8480 C   0  0  0  0  0  2  0  0  0  0  0  0
  184.8990  179.2120  144.8420 C   0  0  0  0  0  2  0  0  0  0  0  0
  181.8330  178.9640  138.4420 C   0  0  0  0  0  0  0  0  0  0  0  0
  181.1340  179.7300  137.7300 O   0  0  0  0  0  0  0  0  0  0  0  0
  183.8350  178.6230  139.7930 C   0  0  0  0  0  0  0  0  0  0  0  0
  181.3920  177.5880  138.6840 C   0  0  0  0  0  3  0  0  0  0  0  0
  183.4040  177.2020  140.0990 C   0  0  0  0  0  2  0  0  0  0  0  0
  183.0910  179.4390  139.0310 C   0  0  0  0  0  0  0  0  0  0  0  0
  183.4990  180.7110  138.7870 F   0  0  0  0  0  0  0  0  0  0  0  0
  182.1110  176.7680  139.4540 C   0  0  0  0  0  0  0  0  0  0  0  0
  180.3090  175.3710  140.0850 O   0  0  0  0  0  1  0  0  0  0  0  0
  181.6430  175.3700  139.6700 C   0  0  0  0  0  2  0  0  0  0  0  0
  190.1150  175.7250  143.0920 C   0  0  0  0  0  2  0  0  0  0  0  0
  191.4180  176.0330  143.4900 O   0  0  0  0  0  1  0  0  0  0  0  0
  1  3  1  6  0  0  0
  1 15  1  0  0  0  0
  1  4  1  0  0  0  0
  2  7  1  0  0  0  0
  2  5  1  0  0  0  0
  4  2  1  0  0  0  0
  5 11  1  0  0  0  0
  6 19  1  0  0  0  0
  7 16  1  0  0  0  0
  8 19  1  0  0  0  0
  9  8  1  0  0  0  0
 10  4  1  0  0  0  0
 10 12  2  0  0  0  0
 11  9  1  0  0  0  0
 12 17  1  0  0  0  0
 13 10  1  0  0  0  0
 14  7  1  0  0  0  0
 15 14  1  0  0  0  0
 16 20  1  0  0  0  0
 16  9  1  0  0  0  0
 17  5  1  0  0  0  0
 17 31  1  0  0  0  0
 18  3  1  0  0  0  0
 18 13  1  0  0  0  0
 20  6  1  0  0  0  0
 21 24  1  0  0  0  0
 21 26  1  0  0  0  0
 22 21  2  0  0  0  0
 23 25  1  0  0  0  0
 23 15  1  0  0  0  0
 24 28  2  0  0  0  0
 26 23  2  0  0  0  0
 27 26  1  0  0  0  0
 28 30  1  0  0  0  0
 28 25  1  0  0  0  0
 30 29  1  0  0  0  0
 31 32  1  0  0  0  0
M  END
>  <MODEL>
1

>  <REMARK>
 VINA RESULT:      -9.2      0.000      0.000
  Name = 
  3 active torsions:
  status: ('A' for Active; 'I' for Inactive)
    1  A    between atoms: C_13  and  C_29
    2  A    between atoms: C_15  and  C_26
    3  A    between atoms: C_16  and  C_27
                            x       y       z     vdW  Elec       q    Type
                         _______ _______ _______ _____ _____    ______ ____

>  <TORSDO>
F 3

$$$$
=
 OpenBabel10262421123D

 32 37  0  0  1  0  0  0  0  0999 V2000
  185.4860  178.2510  140.4480 C   0  0  1  0  0  3  0  0  0  0  0  0
  186.9210  178.3710  142.5640 C   0  0  2  0  0  3  0  0  0  0  0  0
  185.4460  178.5730  138.9530 C   0  0  0  0  0  2  0  0  0  0  0  0
  186.8360  178.6710  141.0520 C   0  0  1  0  0  3  0  0  0  0  0  0
  187.8760  177.2210  142.9410 C   0  0  2  0  0  3  0  0  0  0  0  0
  185.1360  178.5050  146.9650 O   0  0  0  0  0  0  0  0  0  0  0  0
  185.5720  178.0690  143.2100 C   0  0  2  0  0  3  0  0  0  0  0  0
  187.3560  177.5930  146.6100 C   0  0  0  0  0  2  0  0  0  0  0  0
  187.2180  177.8520  145.1190 C   0  0  1  0  0  3  0  0  0  0  0  0
  188.0010  178.1380  140.2400 C   0  0  0  0  0  0  0  0  0  0  0  0
  187.9660  176.9330  144.3420 O   0  0  0  0  0  0  0  0  0  0  0  0
  189.0930  177.6020  140.8100 C   0  0  0  0  0  3  0  0  0  0  0  0
  187.9400  178.2800  138.7490 C   0  0  0  0  0  2  0  0  0  0  0  0
  184.4900  179.0280  142.7200 C   0  0  0  0  0  2  0  0  0  0  0  0
  184.3010  178.9130  141.1910 C   0  0  2  0  0  3  0  0  0  0  0  0
  185.7290  177.8670  144.7280 C   0  0  1  0  0  3  0  0  0  0  0  0
  189.2410  177.4710  142.3050 C   0  0  2  0  0  3  0  0  0  0  0  0
  186.5710  177.8310  138.2320 C   0  0  0  0  0  2  0  0  0  0  0  0
  186.4910  178.6280  147.3430 C   0  0  0  0  0  2  0  0  0  0  0  0
  185.0290  178.9010  145.6150 C   0  0  0  0  0  2  0  0  0  0  0  0
  180.6000  177.9710  141.1400 C   0  0  0  0  0  0  0  0  0  0  0  0
  179.5330  178.3650  141.6770 O   0  0  0  0  0  0  0  0  0  0  0  0
  183.0130  178.2090  140.8780 C   0  0  0  0  0  0  0  0  0  0  0  0
  180.5720  176.8500  140.1980 C   0  0  0  0  0  3  0  0  0  0  0  0
  183.0400  177.0310  139.9230 C   0  0  0  0  0  2  0  0  0  0  0  0
  181.8750  178.6320  141.4480 C   0  0  0  0  0  0  0  0  0  0  0  0
  181.8870  179.6810  142.3090 F   0  0  0  0  0  0  0  0  0  0  0  0
  181.6980  176.4050  139.6360 C   0  0  0  0  0  0  0  0  0  0  0  0
  182.8720  175.1070  138.0430 O   0  0  0  0  0  1  0  0  0  0  0  0
  181.6350  175.2700  138.6720 C   0  0  0  0  0  2  0  0  0  0  0  0
  190.2400  176.3680  142.6400 C   0  0  0  0  0  2  0  0  0  0  0  0
  191.3380  176.8820  143.3360 O   0  0  0  0  0  1  0  0  0  0  0  0
  1  3  1  6  0  0  0
  1  4  1  0  0  0  0
  1 15  1  0  0  0  0
  2  5  1  0  0  0  0
  2  7  1  0  0  0  0
  4  2  1  0  0  0  0
  5 11  1  0  0  0  0
  6 19  1  0  0  0  0
  7 16  1  0  0  0  0
  8 19  1  0  0  0  0
  9  8  1  0  0  0  0
 10 12  2  0  0  0  0
 10  4  1  0  0  0  0
 11  9  1  0  0  0  0
 12 17  1  0  0  0  0
 13 10  1  0  0  0  0
 14  7  1  0  0  0  0
 15 14  1  0  0  0  0
 16  9  1  0  0  0  0
 16 20  1  0  0  0  0
 17 31  1  0  0  0  0
 17  5  1  0  0  0  0
 18 13  1  0  0  0  0
 18  3  1  0  0  0  0
 20  6  1  0  0  0  0
 21 26  1  0  0  0  0
 21 22  2  0  0  0  0
 23 15  1  0  0  0  0
 23 26  2  0  0  0  0
 24 21  1  0  0  0  0
 25 23  1  0  0  0  0
 26 27  1  0  0  0  0
 28 25  1  0  0  0  0
 28 24  2  0  0  0  0
 29 30  1  0  0  0  0
 30 28  1  0  0  0  0
 31 32  1  0  0  0  0
M  END
>  <MODEL>
2

>  <REMARK>
 VINA RESULT:      -8.6      1.568      1.656
  Name = 
  3 active torsions:
  status: ('A' for Active; 'I' for Inactive)
    1  A    between atoms: C_13  and  C_29
    2  A    between atoms: C_15  and  C_26
    3  A    between atoms: C_16  and  C_27
                            x       y       z     vdW  Elec       q    Type
                         _______ _______ _______ _____ _____    ______ ____

>  <TORSDO>
F 3

$$$$
=
 OpenBabel10262421123D

 32 37  0  0  1  0  0  0  0  0999 V2000
  181.2370  179.3790  140.2760 C   0  0  1  0  0  3  0  0  0  0  0  0
  183.5000  178.5280  141.1160 C   0  0  2  0  0  3  0  0  0  0  0  0
  179.7230  179.2930  140.4800 C   0  0  0  0  0  2  0  0  0  0  0  0
  181.9670  178.4800  141.2880 C   0  0  1  0  0  3  0  0  0  0  0  0
  184.2530  179.2620  142.2450 C   0  0  2  0  0  3  0  0  0  0  0  0
  187.4200  178.3550  138.4380 O   0  0  0  0  0  0  0  0  0  0  0  0
  183.9540  179.1430  139.7970 C   0  0  2  0  0  3  0  0  0  0  0  0
  187.6340  178.5700  140.8440 C   0  0  0  0  0  2  0  0  0  0  0  0
  186.1200  178.5740  140.9740 C   0  0  1  0  0  3  0  0  0  0  0  0
  181.4850  178.7310  142.7040 C   0  0  0  0  0  0  0  0  0  0  0  0
  185.6780  179.3120  142.0990 O   0  0  0  0  0  0  0  0  0  0  0  0
  182.3270  178.8160  143.7490 C   0  0  0  0  0  3  0  0  0  0  0  0
  180.0080  178.8210  142.9380 C   0  0  0  0  0  2  0  0  0  0  0  0
  183.1080  178.6450  138.6270 C   0  0  0  0  0  2  0  0  0  0  0  0
  181.6230  179.0220  138.8200 C   0  0  2  0  0  3  0  0  0  0  0  0
  185.4870  179.0770  139.6630 C   0  0  1  0  0  3  0  0  0  0  0  0
  183.8220  178.6890  143.5930 C   0  0  2  0  0  3  0  0  0  0  0  0
  179.3640  179.7390  141.8970 C   0  0  0  0  0  2  0  0  0  0  0  0
  187.9910  177.7660  139.5880 C   0  0  0  0  0  2  0  0  0  0  0  0
  186.0200  178.2010  138.5260 C   0  0  0  0  0  2  0  0  0  0  0  0
  180.3630  180.8890  135.7360 C   0  0  0  0  0  0  0  0  0  0  0  0
  179.9190  180.6050  134.5940 O   0  0  0  0  0  0  0  0  0  0  0  0
  181.2410  180.1280  137.8800 C   0  0  0  0  0  0  0  0  0  0  0  0
  180.4790  182.2910  136.1460 C   0  0  0  0  0  3  0  0  0  0  0  0
  181.4100  181.5640  138.3370 C   0  0  0  0  0  2  0  0  0  0  0  0
  180.7640  179.8240  136.6640 C   0  0  0  0  0  0  0  0  0  0  0  0
  180.6370  178.5280  136.2810 F   0  0  0  0  0  0  0  0  0  0  0  0
  180.9680  182.6110  137.3460 C   0  0  0  0  0  0  0  0  0  0  0  0
  182.3680  184.5060  137.5640 O   0  0  0  0  0  1  0  0  0  0  0  0
  181.0610  184.0460  137.7380 C   0  0  0  0  0  2  0  0  0  0  0  0
  184.5320  179.3690  144.7590 C   0  0  0  0  0  2  0  0  0  0  0  0
  183.9650  178.9920  145.9790 O   0  0  0  0  0  1  0  0  0  0  0  0
  1  3  1  6  0  0  0
  1  4  1  0  0  0  0
  2  4  1  0  0  0  0
  2  5  1  0  0  0  0
  3 18  1  0  0  0  0
  4 10  1  0  0  0  0
  5 17  1  0  0  0  0
  6 20  1  0  0  0  0
  6 19  1  0  0  0  0
  7  2  1  0  0  0  0
  8  9  1  0  0  0  0
  9 11  1  0  0  0  0
 10 13  1  0  0  0  0
 10 12  2  0  0  0  0
 11  5  1  0  0  0  0
 14 15  1  0  0  0  0
 14  7  1  0  0  0  0
 15  1  1  0  0  0  0
 16  7  1  0  0  0  0
 16  9  1  0  0  0  0
 17 12  1  0  0  0  0
 17 31  1  0  0  0  0
 18 13  1  0  0  0  0
 19  8  1  0  0  0  0
 20 16  1  0  0  0  0
 21 24  1  0  0  0  0
 21 26  1  0  0  0  0
 22 21  2  0  0  0  0
 23 25  1  0  0  0  0
 23 15  1  0  0  0  0
 24 28  2  0  0  0  0
 26 23  2  0  0  0  0
 27 26  1  0  0  0  0
 28 30  1  0  0  0  0
 28 25  1  0  0  0  0
 29 30  1  0  0  0  0
 31 32  1  0  0  0  0
M  END
>  <MODEL>
3

>  <REMARK>
 VINA RESULT:      -8.2      2.979      6.237
  Name = 
  3 active torsions:
  status: ('A' for Active; 'I' for Inactive)
    1  A    between atoms: C_13  and  C_29
    2  A    between atoms: C_15  and  C_26
    3  A    between atoms: C_16  and  C_27
                            x       y       z     vdW  Elec       q    Type
                         _______ _______ _______ _____ _____    ______ ____

>  <TORSDO>
F 3

$$$$
=
 OpenBabel10262421123D

 32 37  0  0  1  0  0  0  0  0999 V2000
  185.9880  178.3840  139.8530 C   0  0  1  0  0  3  0  0  0  0  0  0
  186.9880  178.3270  142.2090 C   0  0  2  0  0  3  0  0  0  0  0  0
  186.2940  178.6600  138.3800 C   0  0  0  0  0  2  0  0  0  0  0  0
  187.2490  178.5880  140.7100 C   0  0  1  0  0  3  0  0  0  0  0  0
  187.6390  177.0430  142.7630 C   0  0  2  0  0  3  0  0  0  0  0  0
  184.4420  178.9050  146.1770 O   0  0  0  0  0  0  0  0  0  0  0  0
  185.5100  178.2800  142.5780 C   0  0  2  0  0  3  0  0  0  0  0  0
  186.4950  177.6170  146.2610 C   0  0  0  0  0  2  0  0  0  0  0  0
  186.6940  177.8470  144.7720 C   0  0  1  0  0  3  0  0  0  0  0  0
  188.4380  177.8380  140.1390 C   0  0  0  0  0  0  0  0  0  0  0  0
  187.4060  176.7900  144.1540 O   0  0  0  0  0  0  0  0  0  0  0  0
  189.2910  177.1430  140.9110 C   0  0  0  0  0  3  0  0  0  0  0  0
  188.6900  177.9400  138.6660 C   0  0  0  0  0  2  0  0  0  0  0  0
  184.7250  179.3930  141.8880 C   0  0  0  0  0  2  0  0  0  0  0  0
  184.8160  179.2630  140.3520 C   0  0  2  0  0  3  0  0  0  0  0  0
  185.3330  178.1040  144.0980 C   0  0  1  0  0  3  0  0  0  0  0  0
  189.1230  177.0360  142.4060 C   0  0  2  0  0  3  0  0  0  0  0  0
  187.3910  177.7150  137.8900 C   0  0  0  0  0  2  0  0  0  0  0  0
  185.6990  178.8070  146.8120 C   0  0  0  0  0  2  0  0  0  0  0  0
  184.6660  179.2690  144.8320 C   0  0  0  0  0  2  0  0  0  0  0  0
  181.7720  177.0770  139.6150 C   0  0  0  0  0  0  0  0  0  0  0  0
  181.3490  175.9360  139.9310 O   0  0  0  0  0  0  0  0  0  0  0  0
  183.5110  178.7790  139.7930 C   0  0  0  0  0  0  0  0  0  0  0  0
  180.9780  177.9300  138.7280 C   0  0  0  0  0  3  0  0  0  0  0  0
  182.7400  179.6850  138.8520 C   0  0  0  0  0  2  0  0  0  0  0  0
  183.0580  177.5630  140.1330 C   0  0  0  0  0  0  0  0  0  0  0  0
  183.7780  176.7710  140.9680 F   0  0  0  0  0  0  0  0  0  0  0  0
  181.4220  179.1360  138.3650 C   0  0  0  0  0  0  0  0  0  0  0  0
  181.2070  181.2180  137.2620 O   0  0  0  0  0  1  0  0  0  0  0  0
  180.5850  179.9850  137.4720 C   0  0  0  0  0  2  0  0  0  0  0  0
  189.8330  175.7910  142.9280 C   0  0  0  0  0  2  0  0  0  0  0  0
  190.9760  176.1340  143.6540 O   0  0  0  0  0  1  0  0  0  0  0  0
  1  3  1  6  0  0  0
  1 15  1  0  0  0  0
  1  4  1  0  0  0  0
  2  7  1  0  0  0  0
  2  5  1  0  0  0  0
  4  2  1  0  0  0  0
  5 11  1  0  0  0  0
  6 19  1  0  0  0  0
  7 16  1  0  0  0  0
  8 19  1  0  0  0  0
  9  8  1  0  0  0  0
 10  4  1  0  0  0  0
 10 12  2  0  0  0  0
 11  9  1  0  0  0  0
 12 17  1  0  0  0  0
 13 10  1  0  0  0  0
 14  7  1  0  0  0  0
 15 14  1  0  0  0  0
 16  9  1  0  0  0  0
 16 20  1  0  0  0  0
 17  5  1  0  0  0  0
 17 31  1  0  0  0  0
 18  3  1  0  0  0  0
 18 13  1  0  0  0  0
 20  6  1  0  0  0  0
 21 22  2  0  0  0  0
 21 26  1  0  0  0  0
 23 26  2  0  0  0  0
 23 15  1  0  0  0  0
 24 21  1  0  0  0  0
 25 23  1  0  0  0  0
 26 27  1  0  0  0  0
 28 24  2  0  0  0  0
 28 25  1  0  0  0  0
 29 30  1  0  0  0  0
 30 28  1  0  0  0  0
 31 32  1  0  0  0  0
M  END
>  <MODEL>
4

>  <REMARK>
 VINA RESULT:      -8.1      0.991      2.074
  Name = 
  3 active torsions:
  status: ('A' for Active; 'I' for Inactive)
    1  A    between atoms: C_13  and  C_29
    2  A    between atoms: C_15  and  C_26
    3  A    between atoms: C_16  and  C_27
                            x       y       z     vdW  Elec       q    Type
                         _______ _______ _______ _____ _____    ______ ____

>  <TORSDO>
F 3

$$$$
=
 OpenBabel10262421123D

 32 37  0  0  1  0  0  0  0  0999 V2000
  189.7170  177.6900  141.8360 C   0  0  1  0  0  3  0  0  0  0  0  0
  188.0480  178.3130  143.6750 C   0  0  2  0  0  3  0  0  0  0  0  0
  191.1860  177.7580  141.4170 C   0  0  0  0  0  2  0  0  0  0  0  0
  189.5200  178.3510  143.2110 C   0  0  1  0  0  3  0  0  0  0  0  0
  187.7660  177.3520  144.8480 C   0  0  2  0  0  3  0  0  0  0  0  0
  183.4030  178.9630  142.9210 O   0  0  0  0  0  0  0  0  0  0  0  0
  187.0600  177.9720  142.5650 C   0  0  2  0  0  3  0  0  0  0  0  0
  184.1630  178.2580  145.1130 C   0  0  0  0  0  2  0  0  0  0  0  0
  185.5970  178.2530  144.6090 C   0  0  1  0  0  3  0  0  0  0  0  0
  190.5140  177.8240  144.2300 C   0  0  0  0  0  0  0  0  0  0  0  0
  186.4040  177.3090  145.2910 O   0  0  0  0  0  0  0  0  0  0  0  0
  190.1600  177.5130  145.4890 C   0  0  0  0  0  3  0  0  0  0  0  0
  191.9500  177.7130  143.8170 C   0  0  0  0  0  2  0  0  0  0  0  0
  187.3950  178.7130  141.2720 C   0  0  0  0  0  2  0  0  0  0  0  0
  188.8020  178.3290  140.7640 C   0  0  2  0  0  3  0  0  0  0  0  0
  185.6120  178.0390  143.0840 C   0  0  1  0  0  3  0  0  0  0  0  0
  188.7430  177.6450  145.9850 C   0  0  2  0  0  3  0  0  0  0  0  0
  192.0550  177.0380  142.4480 C   0  0  0  0  0  2  0  0  0  0  0  0
  183.3860  179.2960  144.2930 C   0  0  0  0  0  2  0  0  0  0  0  0
  184.7270  179.1200  142.4570 C   0  0  0  0  0  2  0  0  0  0  0  0
  187.4800  176.6630  137.5920 C   0  0  0  0  0  0  0  0  0  0  0  0
  186.4470  176.7140  136.8770 O   0  0  0  0  0  0  0  0  0  0  0  0
  188.6970  177.4460  139.5570 C   0  0  0  0  0  0  0  0  0  0  0  0
  188.5770  175.7630  137.2280 C   0  0  0  0  0  3  0  0  0  0  0  0
  189.8440  176.5060  139.2380 C   0  0  0  0  0  2  0  0  0  0  0  0
  187.5970  177.5030  138.7910 C   0  0  0  0  0  0  0  0  0  0  0  0
  186.5820  178.3460  139.1110 F   0  0  0  0  0  0  0  0  0  0  0  0
  189.6720  175.6800  137.9880 C   0  0  0  0  0  0  0  0  0  0  0  0
  190.2560  173.5190  137.2210 O   0  0  0  0  0  1  0  0  0  0  0  0
  190.7750  174.7640  137.5830 C   0  0  0  0  0  2  0  0  0  0  0  0
  188.5180  176.7290  147.1840 C   0  0  0  0  0  2  0  0  0  0  0  0
  187.9840  177.4390  148.2620 O   0  0  0  0  0  1  0  0  0  0  0  0
  1  3  1  6  0  0  0
  1  4  1  0  0  0  0
  2  5  1  0  0  0  0
  3 18  1  0  0  0  0
  4  2  1  0  0  0  0
  4 10  1  0  0  0  0
  5 11  1  0  0  0  0
  5 17  1  0  0  0  0
  6 19  1  0  0  0  0
  7 16  1  0  0  0  0
  7  2  1  0  0  0  0
  9  8  1  0  0  0  0
  9 11  1  0  0  0  0
 10 12  2  0  0  0  0
 12 17  1  0  0  0  0
 13 10  1  0  0  0  0
 14  7  1  0  0  0  0
 15 14  1  0  0  0  0
 15  1  1  0  0  0  0
 16  9  1  0  0  0  0
 17 31  1  0  0  0  0
 18 13  1  0  0  0  0
 19  8  1  0  0  0  0
 20  6  1  0  0  0  0
 20 16  1  0  0  0  0
 21 26  1  0  0  0  0
 22 21  2  0  0  0  0
 23 15  1  0  0  0  0
 24 21  1  0  0  0  0
 24 28  2  0  0  0  0
 25 23  1  0  0  0  0
 26 27  1  0  0  0  0
 26 23  2  0  0  0  0
 28 25  1  0  0  0  0
 29 30  1  0  0  0  0
 30 28  1  0  0  0  0
 31 32  1  0  0  0  0
M  END
>  <MODEL>
5

>  <REMARK>
 VINA RESULT:      -7.9      3.013      5.035
  Name = 
  3 active torsions:
  status: ('A' for Active; 'I' for Inactive)
    1  A    between atoms: C_13  and  C_29
    2  A    between atoms: C_15  and  C_26
    3  A    between atoms: C_16  and  C_27
                            x       y       z     vdW  Elec       q    Type
                         _______ _______ _______ _____ _____    ______ ____

>  <TORSDO>
F 3

$$$$
=
 OpenBabel10262421123D

 32 37  0  0  1  0  0  0  0  0999 V2000
  189.8100  177.3540  139.7330 C   0  0  1  0  0  3  0  0  0  0  0  0
  189.2580  177.8750  142.1780 C   0  0  2  0  0  3  0  0  0  0  0  0
  190.8700  177.4980  138.6410 C   0  0  0  0  0  2  0  0  0  0  0  0
  190.3000  177.9900  141.0450 C   0  0  1  0  0  3  0  0  0  0  0  0
  189.6340  176.8890  143.3030 C   0  0  2  0  0  3  0  0  0  0  0  0
  184.8350  178.3050  143.8580 O   0  0  0  0  0  0  0  0  0  0  0  0
  187.8610  177.4980  141.6960 C   0  0  2  0  0  3  0  0  0  0  0  0
  186.6130  177.6140  145.3560 C   0  0  0  0  0  2  0  0  0  0  0  0
  187.6030  177.6850  144.2060 C   0  0  1  0  0  3  0  0  0  0  0  0
  191.6880  177.5020  141.4160 C   0  0  0  0  0  0  0  0  0  0  0  0
  188.6770  176.7740  144.3630 O   0  0  0  0  0  0  0  0  0  0  0  0
  192.0210  177.1610  142.6730 C   0  0  0  0  0  3  0  0  0  0  0  0
  192.7300  177.4660  140.3400 C   0  0  0  0  0  2  0  0  0  0  0  0
  187.4790  178.2680  140.4340 C   0  0  0  0  0  2  0  0  0  0  0  0
  188.4590  177.9590  139.2810 C   0  0  2  0  0  3  0  0  0  0  0  0
  186.8640  177.4880  142.8690 C   0  0  1  0  0  3  0  0  0  0  0  0
  191.0360  177.2170  143.8130 C   0  0  2  0  0  3  0  0  0  0  0  0
  192.1640  176.8110  139.0780 C   0  0  0  0  0  2  0  0  0  0  0  0
  185.4920  178.6210  145.0670 C   0  0  0  0  0  2  0  0  0  0  0  0
  185.7450  178.5310  142.8020 C   0  0  0  0  0  2  0  0  0  0  0  0
  186.0540  176.6960  136.5970 C   0  0  0  0  0  0  0  0  0  0  0  0
  185.0260  177.1080  136.0010 O   0  0  0  0  0  0  0  0  0  0  0  0
  187.7990  177.0840  138.2570 C   0  0  0  0  0  0  0  0  0  0  0  0
  186.6090  175.3800  136.2690 C   0  0  0  0  0  3  0  0  0  0  0  0
  188.3910  175.7170  137.9750 C   0  0  0  0  0  2  0  0  0  0  0  0
  186.7050  177.5260  137.6190 C   0  0  0  0  0  0  0  0  0  0  0  0
  186.1920  178.7510  137.9030 F   0  0  0  0  0  0  0  0  0  0  0  0
  187.6870  174.9180  136.9070 C   0  0  0  0  0  0  0  0  0  0  0  0
  189.4610  173.3760  137.1780 O   0  0  0  0  0  1  0  0  0  0  0  0
  188.2350  173.5810  136.5410 C   0  0  0  0  0  2  0  0  0  0  0  0
  191.4730  176.2790  144.9330 C   0  0  0  0  0  2  0  0  0  0  0  0
  191.7270  176.9890  146.1090 O   0  0  0  0  0  1  0  0  0  0  0  0
  1  3  1  6  0  0  0
  1  4  1  0  0  0  0
  2  5  1  0  0  0  0
  3 18  1  0  0  0  0
  4 10  1  0  0  0  0
  4  2  1  0  0  0  0
  5 17  1  0  0  0  0
  5 11  1  0  0  0  0
  6 19  1  0  0  0  0
  7  2  1  0  0  0  0
  7 16  1  0  0  0  0
  9 11  1  0  0  0  0
  9  8  1  0  0  0  0
 10 12  2  0  0  0  0
 12 17  1  0  0  0  0
 13 10  1  0  0  0  0
 14  7  1  0  0  0  0
 15  1  1  0  0  0  0
 15 14  1  0  0  0  0
 16  9  1  0  0  0  0
 17 31  1  0  0  0  0
 18 13  1  0  0  0  0
 19  8  1  0  0  0  0
 20 16  1  0  0  0  0
 20  6  1  0  0  0  0
 21 26  1  0  0  0  0
 22 21  2  0  0  0  0
 23 15  1  0  0  0  0
 24 21  1  0  0  0  0
 24 28  2  0  0  0  0
 25 23  1  0  0  0  0
 26 27  1  0  0  0  0
 26 23  2  0  0  0  0
 28 25  1  0  0  0  0
 30 28  1  0  0  0  0
 30 29  1  0  0  0  0
 31 32  1  0  0  0  0
M  END
>  <MODEL>
6

>  <REMARK>
 VINA RESULT:      -7.7      2.925      4.092
  Name = 
  3 active torsions:
  status: ('A' for Active; 'I' for Inactive)
    1  A    between atoms: C_13  and  C_29
    2  A    between atoms: C_15  and  C_26
    3  A    between atoms: C_16  and  C_27
                            x       y       z     vdW  Elec       q    Type
                         _______ _______ _______ _____ _____    ______ ____

>  <TORSDO>
F 3

$$$$
=
 OpenBabel10262421123D

 32 37  0  0  1  0  0  0  0  0999 V2000
  182.4820  178.4520  142.3930 C   0  0  1  0  0  3  0  0  0  0  0  0
  182.3040  177.9580  139.8870 C   0  0  2  0  0  3  0  0  0  0  0  0
  181.7450  179.0340  143.6000 C   0  0  0  0  0  2  0  0  0  0  0  0
  181.5990  178.5290  141.1360 C   0  0  1  0  0  3  0  0  0  0  0  0
  181.7370  176.6170  139.3820 C   0  0  2  0  0  3  0  0  0  0  0  0
  186.0520  177.6140  136.9880 O   0  0  0  0  0  0  0  0  0  0  0  0
  183.8090  177.7770  140.0580 C   0  0  2  0  0  3  0  0  0  0  0  0
  184.0120  176.4210  136.4400 C   0  0  0  0  0  2  0  0  0  0  0  0
  183.3650  176.9560  137.7060 C   0  0  1  0  0  3  0  0  0  0  0  0
  180.2160  177.9590  141.3910 C   0  0  0  0  0  0  0  0  0  0  0  0
  182.3810  176.0760  138.2210 O   0  0  0  0  0  0  0  0  0  0  0  0
  179.5920  177.1570  140.5120 C   0  0  0  0  0  3  0  0  0  0  0  0
  179.5100  178.3680  142.6480 C   0  0  0  0  0  2  0  0  0  0  0  0
  184.4400  178.9750  140.7640 C   0  0  0  0  0  2  0  0  0  0  0  0
  183.8400  179.1620  142.1750 C   0  0  2  0  0  3  0  0  0  0  0  0
  184.4510  177.2890  138.7460 C   0  0  1  0  0  3  0  0  0  0  0  0
  180.2250  176.7420  139.2080 C   0  0  2  0  0  3  0  0  0  0  0  0
  180.4540  178.2530  143.8460 C   0  0  0  0  0  2  0  0  0  0  0  0
  185.0670  177.4400  135.9910 C   0  0  0  0  0  2  0  0  0  0  0  0
  185.4410  178.2530  138.0880 C   0  0  0  0  0  2  0  0  0  0  0  0
  185.6800  178.8480  145.5070 C   0  0  0  0  0  0  0  0  0  0  0  0
  185.5900  179.3250  146.6670 O   0  0  0  0  0  0  0  0  0  0  0  0
  184.8320  178.7490  143.2220 C   0  0  0  0  0  0  0  0  0  0  0  0
  186.7340  177.8790  145.1950 C   0  0  0  0  0  3  0  0  0  0  0  0
  185.9250  177.7690  142.8430 C   0  0  0  0  0  2  0  0  0  0  0  0
  184.7330  179.2540  144.4600 C   0  0  0  0  0  0  0  0  0  0  0  0
  183.7500  180.1410  144.7640 F   0  0  0  0  0  0  0  0  0  0  0  0
  186.8570  177.3790  143.9640 C   0  0  0  0  0  0  0  0  0  0  0  0
  189.1080  176.7530  144.3390 O   0  0  0  0  0  1  0  0  0  0  0  0
  187.9310  176.3850  143.6820 C   0  0  0  0  0  2  0  0  0  0  0  0
  179.5960  175.4470  138.7050 C   0  0  0  0  0  2  0  0  0  0  0  0
  179.7850  174.4100  139.6230 O   0  0  0  0  0  1  0  0  0  0  0  0
  1  3  1  1  0  0  0
  2  7  1  0  0  0  0
  2  4  1  0  0  0  0
  3 18  1  0  0  0  0
  4 10  1  0  0  0  0
  4  1  1  0  0  0  0
  5  2  1  0  0  0  0
  6 20  1  0  0  0  0
  7 14  1  0  0  0  0
  8  9  1  0  0  0  0
  9 11  1  0  0  0  0
  9 16  1  0  0  0  0
 10 13  1  0  0  0  0
 11  5  1  0  0  0  0
 12 10  2  0  0  0  0
 13 18  1  0  0  0  0
 14 15  1  0  0  0  0
 15  1  1  0  0  0  0
 15 23  1  0  0  0  0
 16  7  1  0  0  0  0
 17  5  1  0  0  0  0
 17 12  1  0  0  0  0
 19  8  1  0  0  0  0
 19  6  1  0  0  0  0
 20 16  1  0  0  0  0
 21 22  2  0  0  0  0
 23 26  2  0  0  0  0
 24 21  1  0  0  0  0
 25 23  1  0  0  0  0
 25 28  1  0  0  0  0
 26 27  1  0  0  0  0
 26 21  1  0  0  0  0
 28 24  2  0  0  0  0
 30 28  1  0  0  0  0
 30 29  1  0  0  0  0
 31 17  1  0  0  0  0
 31 32  1  0  0  0  0
M  END
>  <MODEL>
7

>  <REMARK>
 VINA RESULT:      -7.2      2.555      7.913
  Name = 
  3 active torsions:
  status: ('A' for Active; 'I' for Inactive)
    1  A    between atoms: C_13  and  C_29
    2  A    between atoms: C_15  and  C_26
    3  A    between atoms: C_16  and  C_27
                            x       y       z     vdW  Elec       q    Type
                         _______ _______ _______ _____ _____    ______ ____

>  <TORSDO>
F 3

$$$$
=
 OpenBabel10262421123D

 32 37  0  0  1  0  0  0  0  0999 V2000
  187.6500  177.4580  142.9640 C   0  0  1  0  0  3  0  0  0  0  0  0
  188.3800  177.0810  145.3890 C   0  0  2  0  0  3  0  0  0  0  0  0
  186.4460  177.5010  142.0220 C   0  0  0  0  0  2  0  0  0  0  0  0
  187.1970  177.1410  144.4000 C   0  0  1  0  0  3  0  0  0  0  0  0
  188.4460  178.2530  146.3880 C   0  0  2  0  0  3  0  0  0  0  0  0
  192.7150  175.5990  146.6440 O   0  0  0  0  0  0  0  0  0  0  0  0
  189.7440  176.9860  144.7140 C   0  0  2  0  0  3  0  0  0  0  0  0
  191.4190  176.9320  148.2010 C   0  0  0  0  0  2  0  0  0  0  0  0
  190.2940  177.0180  147.1830 C   0  0  1  0  0  3  0  0  0  0  0  0
  186.0580  178.0430  144.8370 C   0  0  0  0  0  0  0  0  0  0  0  0
  189.5390  178.2090  147.3150 O   0  0  0  0  0  0  0  0  0  0  0  0
  186.0090  178.6050  146.0570 C   0  0  0  0  0  3  0  0  0  0  0  0
  184.9230  178.2540  143.8810 C   0  0  0  0  0  2  0  0  0  0  0  0
  189.7230  176.0030  143.5460 C   0  0  0  0  0  2  0  0  0  0  0  0
  188.7100  176.4460  142.4680 C   0  0  2  0  0  3  0  0  0  0  0  0
  190.8630  176.8430  145.7630 C   0  0  1  0  0  3  0  0  0  0  0  0
  187.0940  178.3990  147.0840 C   0  0  2  0  0  3  0  0  0  0  0  0
  185.4610  178.5740  142.4850 C   0  0  0  0  0  2  0  0  0  0  0  0
  192.1750  175.6210  147.9490 C   0  0  0  0  0  2  0  0  0  0  0  0
  191.6390  175.5240  145.7340 C   0  0  0  0  0  2  0  0  0  0  0  0
  191.4980  177.4960  140.0790 C   0  0  0  0  0  0  0  0  0  0  0  0
  192.7560  177.5250  140.0730 O   0  0  0  0  0  0  0  0  0  0  0  0
  189.4300  176.9750  141.2630 C   0  0  0  0  0  0  0  0  0  0  0  0
  190.7520  177.9530  138.9040 C   0  0  0  0  0  3  0  0  0  0  0  0
  188.6140  177.4680  140.0840 C   0  0  0  0  0  2  0  0  0  0  0  0
  190.7710  177.0020  141.2560 C   0  0  0  0  0  0  0  0  0  0  0  0
  191.4730  176.5650  142.3330 F   0  0  0  0  0  0  0  0  0  0  0  0
  189.4170  177.9490  138.9010 C   0  0  0  0  0  0  0  0  0  0  0  0
  188.9440  179.7620  137.4570 O   0  0  0  0  0  1  0  0  0  0  0  0
  188.6870  178.4090  137.6860 C   0  0  0  0  0  2  0  0  0  0  0  0
  187.0880  179.5420  148.0930 C   0  0  0  0  0  2  0  0  0  0  0  0
  186.0550  180.4430  147.8220 O   0  0  0  0  0  1  0  0  0  0  0  0
  1  3  1  6  0  0  0
  1  4  1  0  0  0  0
  2  5  1  0  0  0  0
  3 18  1  0  0  0  0
  4 10  1  0  0  0  0
  4  2  1  0  0  0  0
  5 17  1  0  0  0  0
  5 11  1  0  0  0  0
  6 19  1  0  0  0  0
  7  2  1  0  0  0  0
  7 16  1  0  0  0  0
  9 11  1  0  0  0  0
  9  8  1  0  0  0  0
 10 12  2  0  0  0  0
 12 17  1  0  0  0  0
 13 10  1  0  0  0  0
 14  7  1  0  0  0  0
 15  1  1  0  0  0  0
 15 14  1  0  0  0  0
 16  9  1  0  0  0  0
 17 31  1  0  0  0  0
 18 13  1  0  0  0  0
 19  8  1  0  0  0  0
 20 16  1  0  0  0  0
 20  6  1  0  0  0  0
 21 26  1  0  0  0  0
 22 21  2  0  0  0  0
 23 15  1  0  0  0  0
 24 21  1  0  0  0  0
 25 23  1  0  0  0  0
 26 23  2  0  0  0  0
 26 27  1  0  0  0  0
 28 24  2  0  0  0  0
 28 25  1  0  0  0  0
 29 30  1  0  0  0  0
 30 28  1  0  0  0  0
 32 31  1  0  0  0  0
M  END
>  <MODEL>
8

>  <REMARK>
 VINA RESULT:      -7.0      3.856      6.812
  Name = 
  3 active torsions:
  status: ('A' for Active; 'I' for Inactive)
    1  A    between atoms: C_13  and  C_29
    2  A    between atoms: C_15  and  C_26
    3  A    between atoms: C_16  and  C_27
                            x       y       z     vdW  Elec       q    Type
                         _______ _______ _______ _____ _____    ______ ____

>  <TORSDO>
F 3

$$$$
=
 OpenBabel10262421123D

 32 37  0  0  1  0  0  0  0  0999 V2000
  187.4040  178.1570  140.5270 C   0  0  1  0  0  3  0  0  0  0  0  0
  188.4420  177.3430  138.3330 C   0  0  2  0  0  3  0  0  0  0  0  0
  186.3460  179.0790  141.1340 C   0  0  0  0  0  2  0  0  0  0  0  0
  187.3840  178.2530  138.9920 C   0  0  1  0  0  3  0  0  0  0  0  0
  187.8680  176.1190  137.5910 C   0  0  2  0  0  3  0  0  0  0  0  0
  192.8660  175.6520  137.9670 O   0  0  0  0  0  0  0  0  0  0  0  0
  189.5020  176.8280  139.3010 C   0  0  2  0  0  3  0  0  0  0  0  0
  191.1810  174.9240  136.3810 C   0  0  0  0  0  2  0  0  0  0  0  0
  190.1510  175.7890  137.0870 C   0  0  1  0  0  3  0  0  0  0  0  0
  185.9800  178.0840  138.4420 C   0  0  0  0  0  0  0  0  0  0  0  0
  188.8390  175.2660  136.9720 O   0  0  0  0  0  0  0  0  0  0  0  0
  185.7140  177.3340  137.3600 C   0  0  0  0  0  3  0  0  0  0  0  0
  184.8700  178.8420  139.1070 C   0  0  0  0  0  2  0  0  0  0  0  0
  189.9780  177.9280  140.2450 C   0  0  0  0  0  2  0  0  0  0  0  0
  188.8090  178.4710  141.0960 C   0  0  2  0  0  3  0  0  0  0  0  0
  190.5660  176.0010  138.5550 C   0  0  1  0  0  3  0  0  0  0  0  0
  186.7880  176.5820  136.6150 C   0  0  2  0  0  3  0  0  0  0  0  0
  184.9590  178.6840  140.6260 C   0  0  0  0  0  2  0  0  0  0  0  0
  192.5550  175.5730  136.5920 C   0  0  0  0  0  2  0  0  0  0  0  0
  191.9820  176.5820  138.5550 C   0  0  0  0  0  2  0  0  0  0  0  0
  190.2910  177.3270  144.4240 C   0  0  0  0  0  0  0  0  0  0  0  0
  191.4320  177.1170  144.9110 O   0  0  0  0  0  0  0  0  0  0  0  0
  188.9300  177.9940  142.5130 C   0  0  0  0  0  0  0  0  0  0  0  0
  189.0980  177.1290  145.2500 C   0  0  0  0  0  3  0  0  0  0  0  0
  187.6650  177.7710  143.3180 C   0  0  0  0  0  2  0  0  0  0  0  0
  190.1470  177.7740  143.0330 C   0  0  0  0  0  0  0  0  0  0  0  0
  191.2600  177.9710  142.2810 F   0  0  0  0  0  0  0  0  0  0  0  0
  187.8780  177.3260  144.7440 C   0  0  0  0  0  0  0  0  0  0  0  0
  186.8260  177.8600  146.7940 O   0  0  0  0  0  1  0  0  0  0  0  0
  186.6840  177.1280  145.6130 C   0  0  0  0  0  2  0  0  0  0  0  0
  186.1770  175.4190  135.8410 C   0  0  0  0  0  2  0  0  0  0  0  0
  185.5700  174.5060  136.7080 O   0  0  0  0  0  1  0  0  0  0  0  0
  1 15  1  0  0  0  0
  1  3  1  1  0  0  0
  2  4  1  0  0  0  0
  2  7  1  0  0  0  0
  4  1  1  0  0  0  0
  5  2  1  0  0  0  0
  6 20  1  0  0  0  0
  7 14  1  0  0  0  0
  8 19  1  0  0  0  0
  8  9  1  0  0  0  0
  9 16  1  0  0  0  0
 10  4  1  0  0  0  0
 10 13  1  0  0  0  0
 11  9  1  0  0  0  0
 11  5  1  0  0  0  0
 12 10  2  0  0  0  0
 13 18  1  0  0  0  0
 14 15  1  0  0  0  0
 15 23  1  0  0  0  0
 16 20  1  0  0  0  0
 16  7  1  0  0  0  0
 17 12  1  0  0  0  0
 17  5  1  0  0  0  0
 18  3  1  0  0  0  0
 19  6  1  0  0  0  0
 21 22  2  0  0  0  0
 21 24  1  0  0  0  0
 23 26  2  0  0  0  0
 23 25  1  0  0  0  0
 25 28  1  0  0  0  0
 26 21  1  0  0  0  0
 27 26  1  0  0  0  0
 28 24  2  0  0  0  0
 28 30  1  0  0  0  0
 30 29  1  0  0  0  0
 31 17  1  0  0  0  0
 31 32  1  0  0  0  0
M  END
>  <MODEL>
9

>  <REMARK>
 VINA RESULT:      -7.0      3.175      7.753
  Name = 
  3 active torsions:
  status: ('A' for Active; 'I' for Inactive)
    1  A    between atoms: C_13  and  C_29
    2  A    between atoms: C_15  and  C_26
    3  A    between atoms: C_16  and  C_27
                            x       y       z     vdW  Elec       q    Type
                         _______ _______ _______ _____ _____    ______ ____

>  <TORSDO>
F 3

$$$$
