=
 OpenBabel10262422253D

 43 47  0  0  1  0  0  0  0  0999 V2000
  191.2460  176.6410  147.0520 C   0  0  0  0  0  0  0  0  0  0  0  0
  187.1050  177.7590  144.3870 C   0  0  0  0  0  0  0  0  0  0  0  0
  187.8940  178.0880  141.7140 C   0  0  0  0  0  0  0  0  0  0  0  0
  188.9760  177.1320  146.3580 C   0  0  0  0  0  0  0  0  0  0  0  0
  191.6870  176.7900  145.7340 C   0  0  0  0  0  3  0  0  0  0  0  0
  192.1310  176.3250  148.0290 F   0  0  0  0  0  0  0  0  0  0  0  0
  189.4150  177.2860  145.0200 C   0  0  0  0  0  0  0  0  0  0  0  0
  189.8940  176.8120  147.3630 C   0  0  0  0  0  3  0  0  0  0  0  0
  190.7780  177.1120  144.7210 C   0  0  0  0  0  3  0  0  0  0  0  0
  188.8470  177.7790  142.6860 C   0  0  0  0  0  3  0  0  0  0  0  0
  188.4680  177.6050  144.0260 C   0  0  0  0  0  0  0  0  0  0  0  0
  186.7330  177.5950  145.7280 C   0  0  0  0  0  3  0  0  0  0  0  0
  186.1440  178.0760  143.4070 C   0  0  0  0  0  0  0  0  0  0  0  0
  186.5530  178.2370  142.0740 C   0  0  0  0  0  3  0  0  0  0  0  0
  187.6620  177.2910  146.6710 N   0  0  0  0  0  0  0  0  0  0  0  0
  188.3190  178.2950  140.3040 C   0  0  0  0  0  2  0  0  0  0  0  0
  189.2630  177.1850  139.8740 C   0  0  0  0  0  2  0  0  0  0  0  0
  187.6780  176.7080  137.7630 O   0  0  0  0  0  0  0  0  0  0  0  0
  189.1230  176.9140  138.1220 S   0  0  0  0  0  0  0  0  0  0  0  0
  189.6600  178.1050  137.3800 O   0  0  0  0  0  0  0  0  0  0  0  0
  190.0640  175.4690  137.6790 C   0  0  0  0  0  2  0  0  0  0  0  0
  191.2680  175.8660  136.9680 N   0  0  0  0  0  0  0  0  0  0  0  0
  193.7150  175.7190  135.6210 C   0  0  0  0  0  2  0  0  0  0  0  0
  193.6010  174.8920  136.9010 C   0  0  2  0  0  3  0  0  0  0  0  0
  191.2200  175.2120  135.6600 C   0  0  0  0  0  2  0  0  0  0  0  0
  192.4230  175.4140  137.7690 C   0  0  1  0  0  3  0  0  0  0  0  0
  192.8570  176.5570  138.6810 C   0  0  0  0  0  1  0  0  0  0  0  0
  192.4170  175.6370  134.8060 C   0  0  0  0  0  2  0  0  0  0  0  0
  194.9380  174.7740  137.6430 C   0  0  2  0  0  3  0  0  0  0  0  0
  196.5700  173.1350  137.4800 C   0  0  0  0  0  0  0  0  0  0  0  0
  197.0210  174.2790  136.8080 N   0  0  0  0  0  0  0  0  0  0  0  0
  197.2510  172.0840  137.5880 O   0  0  0  0  0  0  0  0  0  0  0  0
  196.0450  175.2820  136.8070 N   0  0  0  0  0  0  0  0  0  0  0  0
  195.2230  173.3130  138.0170 C   0  0  0  0  0  2  0  0  0  0  0  0
  184.7680  178.2630  143.7810 N   0  0  0  0  0  2  0  0  0  0  0  0
  183.7250  178.8620  142.9440 C   0  0  2  0  0  3  0  0  0  0  0  0
  182.5600  179.3220  143.8000 C   0  0  0  0  0  1  0  0  0  0  0  0
  183.2630  177.9220  141.9290 N   0  0  0  0  0  2  0  0  0  0  0  0
  182.8360  178.6950  140.7710 C   0  0  0  0  0  2  0  0  0  0  0  0
  183.5450  178.2010  139.5180 C   0  0  0  0  0  2  0  0  0  0  0  0
  185.5990  178.9320  138.2870 O   0  0  0  0  0  0  0  0  0  0  0  0
  184.4240  179.2690  138.9490 C   0  0  0  0  0  0  0  0  0  0  0  0
  184.0880  180.4760  139.0440 O   0  0  0  0  0  1  0  0  0  0  0  0
  1  8  1  0  0  0  0
  1  6  1  0  0  0  0
  2 12  1  0  0  0  0
  3 14  2  0  0  0  0
  3 10  1  0  0  0  0
  4 15  1  0  0  0  0
  4  8  2  0  0  0  0
  5  1  2  0  0  0  0
  7  4  1  0  0  0  0
  9  7  2  0  0  0  0
  9  5  1  0  0  0  0
 10 11  2  0  0  0  0
 11  2  1  0  0  0  0
 11  7  1  0  0  0  0
 12 15  2  0  0  0  0
 13 35  1  0  0  0  0
 13  2  2  0  0  0  0
 14 13  1  0  0  0  0
 16  3  1  0  0  0  0
 17 16  1  0  0  0  0
 18 19  2  0  0  0  0
 19 17  1  0  0  0  0
 20 19  2  0  0  0  0
 21 19  1  0  0  0  0
 22 21  1  0  0  0  0
 22 26  1  0  0  0  0
 24 23  1  6  0  0  0
 24 29  1  0  0  0  0
 24 26  1  0  0  0  0
 25 22  1  0  0  0  0
 26 27  1  6  0  0  0
 28 23  1  0  0  0  0
 28 25  1  0  0  0  0
 29 34  1  6  0  0  0
 30 32  2  0  0  0  0
 30 34  1  0  0  0  0
 31 30  1  0  0  0  0
 33 31  2  0  0  0  0
 33 29  1  0  0  0  0
 36 35  1  0  0  0  0
 36 37  1  1  0  0  0
 38 36  1  0  0  0  0
 39 38  1  0  0  0  0
 40 39  1  0  0  0  0
 41 42  2  0  0  0  0
 42 43  1  0  0  0  0
 42 40  1  0  0  0  0
M  END
>  <MODEL>
1

>  <REMARK>
 VINA RESULT:      -9.2      0.000      0.000
  Name = 
  12 active torsions:
  status: ('A' for Active; 'I' for Inactive)
    1  A    between atoms: C_1  and  N_9
    2  A    between atoms: C_1  and  N_35
    3  A    between atoms: C_2  and  C_6
    4  A    between atoms: C_2  and  C_13
    5  A    between atoms: C_3  and  N_4
    6  A    between atoms: C_3  and  S_12
    7  A    between atoms: C_6  and  S_12
    8  A    between atoms: N_9  and  C_32
    9  A    between atoms: C_11  and  C_14
   10  A    between atoms: C_25  and  C_32
   11  A    between atoms: C_25  and  C_37
   12  A    between atoms: C_34  and  N_35
                            x       y       z     vdW  Elec       q    Type
                         _______ _______ _______ _____ _____    ______ ____

>  <TORSDO>
F 12

$$$$
=
 OpenBabel10262422253D

 43 47  0  0  1  0  0  0  0  0999 V2000
  181.2060  179.0110  142.5650 C   0  0  0  0  0  0  0  0  0  0  0  0
  185.6970  178.3950  144.7910 C   0  0  0  0  0  0  0  0  0  0  0  0
  187.5200  177.6350  142.7990 C   0  0  0  0  0  0  0  0  0  0  0  0
  183.0220  178.8760  144.1650 C   0  0  0  0  0  0  0  0  0  0  0  0
  182.0770  178.6400  141.5370 C   0  0  0  0  0  3  0  0  0  0  0  0
  179.9030  179.2630  142.2880 F   0  0  0  0  0  0  0  0  0  0  0  0
  183.9100  178.4980  143.1300 C   0  0  0  0  0  0  0  0  0  0  0  0
  181.6770  179.1290  143.8760 C   0  0  0  0  0  3  0  0  0  0  0  0
  183.4230  178.3830  141.8160 C   0  0  0  0  0  3  0  0  0  0  0  0
  186.1850  177.8670  142.4650 C   0  0  0  0  0  3  0  0  0  0  0  0
  185.2610  178.2530  143.4490 C   0  0  0  0  0  0  0  0  0  0  0  0
  184.7680  178.7700  145.7710 C   0  0  0  0  0  3  0  0  0  0  0  0
  187.0430  178.1560  145.1280 C   0  0  0  0  0  0  0  0  0  0  0  0
  187.9440  177.7780  144.1220 C   0  0  0  0  0  3  0  0  0  0  0  0
  183.4700  178.9990  145.4430 N   0  0  0  0  0  0  0  0  0  0  0  0
  188.4790  177.2000  141.7470 C   0  0  0  0  0  2  0  0  0  0  0  0
  188.9380  178.3970  140.9320 C   0  0  0  0  0  2  0  0  0  0  0  0
  186.9270  178.3480  139.1570 O   0  0  0  0  0  0  0  0  0  0  0  0
  188.4210  178.2110  139.2400 S   0  0  0  0  0  0  0  0  0  0  0  0
  189.0700  179.2690  138.3920 O   0  0  0  0  0  0  0  0  0  0  0  0
  188.9090  176.6020  138.6540 C   0  0  0  0  0  2  0  0  0  0  0  0
  190.0340  176.7330  137.7420 N   0  0  0  0  0  0  0  0  0  0  0  0
  192.1310  176.0660  136.0160 C   0  0  0  0  0  2  0  0  0  0  0  0
  192.0600  175.2780  137.3230 C   0  0  2  0  0  3  0  0  0  0  0  0
  189.6280  176.1100  136.4820 C   0  0  0  0  0  2  0  0  0  0  0  0
  191.1840  176.0390  138.3560 C   0  0  1  0  0  3  0  0  0  0  0  0
  191.9990  177.0580  139.1470 C   0  0  0  0  0  1  0  0  0  0  0  0
  190.7280  176.2690  135.4290 C   0  0  0  0  0  2  0  0  0  0  0  0
  193.4460  174.8710  137.8380 C   0  0  2  0  0  3  0  0  0  0  0  0
  195.1490  173.7450  136.7400 C   0  0  0  0  0  0  0  0  0  0  0  0
  195.4950  175.1010  136.8230 N   0  0  0  0  0  0  0  0  0  0  0  0
  195.8910  172.8740  136.2190 O   0  0  0  0  0  0  0  0  0  0  0  0
  194.4680  175.8480  137.4100 N   0  0  0  0  0  0  0  0  0  0  0  0
  193.8320  173.4810  137.3140 C   0  0  0  0  0  2  0  0  0  0  0  0
  187.4740  178.2690  146.4960 N   0  0  0  0  0  2  0  0  0  0  0  0
  188.2690  177.2800  147.2300 C   0  0  2  0  0  3  0  0  0  0  0  0
  188.9460  177.9280  148.4220 C   0  0  0  0  0  1  0  0  0  0  0  0
  189.2620  176.6570  146.3630 N   0  0  0  0  0  2  0  0  0  0  0  0
  190.4600  177.4860  146.3940 C   0  0  0  0  0  2  0  0  0  0  0  0
  191.4940  176.9520  145.4120 C   0  0  0  0  0  2  0  0  0  0  0  0
  191.9090  177.2510  142.9620 O   0  0  0  0  0  0  0  0  0  0  0  0
  191.5500  177.8050  144.1850 C   0  0  0  0  0  0  0  0  0  0  0  0
  191.2460  179.0220  144.2510 O   0  0  0  0  0  1  0  0  0  0  0  0
  1  8  1  0  0  0  0
  2 13  1  0  0  0  0
  2 12  1  0  0  0  0
  3 14  1  0  0  0  0
  4 15  1  0  0  0  0
  5  9  1  0  0  0  0
  5  1  2  0  0  0  0
  6  1  1  0  0  0  0
  7 11  1  0  0  0  0
  7  4  1  0  0  0  0
  8  4  2  0  0  0  0
  9  7  2  0  0  0  0
 10  3  2  0  0  0  0
 10 11  1  0  0  0  0
 11  2  2  0  0  0  0
 13 35  1  0  0  0  0
 14 13  2  0  0  0  0
 15 12  2  0  0  0  0
 16  3  1  0  0  0  0
 17 16  1  0  0  0  0
 18 19  2  0  0  0  0
 19 17  1  0  0  0  0
 20 19  2  0  0  0  0
 21 19  1  0  0  0  0
 22 26  1  0  0  0  0
 22 21  1  0  0  0  0
 24 23  1  6  0  0  0
 24 29  1  0  0  0  0
 24 26  1  0  0  0  0
 25 22  1  0  0  0  0
 26 27  1  6  0  0  0
 28 23  1  0  0  0  0
 28 25  1  0  0  0  0
 29 34  1  6  0  0  0
 30 31  1  0  0  0  0
 30 34  1  0  0  0  0
 31 33  2  0  0  0  0
 32 30  2  0  0  0  0
 33 29  1  0  0  0  0
 35 36  1  0  0  0  0
 36 37  1  1  0  0  0
 38 39  1  0  0  0  0
 38 36  1  0  0  0  0
 40 39  1  0  0  0  0
 41 42  2  0  0  0  0
 42 43  1  0  0  0  0
 42 40  1  0  0  0  0
M  END
>  <MODEL>
2

>  <REMARK>
 VINA RESULT:      -9.1      2.860      5.646
  Name = 
  12 active torsions:
  status: ('A' for Active; 'I' for Inactive)
    1  A    between atoms: C_1  and  N_9
    2  A    between atoms: C_1  and  N_35
    3  A    between atoms: C_2  and  C_6
    4  A    between atoms: C_2  and  C_13
    5  A    between atoms: C_3  and  N_4
    6  A    between atoms: C_3  and  S_12
    7  A    between atoms: C_6  and  S_12
    8  A    between atoms: N_9  and  C_32
    9  A    between atoms: C_11  and  C_14
   10  A    between atoms: C_25  and  C_32
   11  A    between atoms: C_25  and  C_37
   12  A    between atoms: C_34  and  N_35
                            x       y       z     vdW  Elec       q    Type
                         _______ _______ _______ _____ _____    ______ ____

>  <TORSDO>
F 12

$$$$
=
 OpenBabel10262422253D

 43 47  0  0  1  0  0  0  0  0999 V2000
  185.7860  178.2260  145.7080 C   0  0  0  0  0  0  0  0  0  0  0  0
  182.5620  178.8160  141.8670 C   0  0  0  0  0  0  0  0  0  0  0  0
  183.9430  178.1750  139.5110 C   0  0  0  0  0  0  0  0  0  0  0  0
  183.8350  178.6850  144.3450 C   0  0  0  0  0  0  0  0  0  0  0  0
  186.5140  177.8920  144.5640 C   0  0  0  0  0  3  0  0  0  0  0  0
  186.3750  178.1600  146.9280 F   0  0  0  0  0  0  0  0  0  0  0  0
  184.5670  178.3500  143.1800 C   0  0  0  0  0  0  0  0  0  0  0  0
  184.4500  178.6220  145.6000 C   0  0  0  0  0  3  0  0  0  0  0  0
  185.9100  177.9540  143.3040 C   0  0  0  0  0  3  0  0  0  0  0  0
  184.6000  178.1070  140.7400 C   0  0  0  0  0  3  0  0  0  0  0  0
  183.9220  178.4190  141.9290 C   0  0  0  0  0  0  0  0  0  0  0  0
  181.8920  179.1360  143.0560 C   0  0  0  0  0  3  0  0  0  0  0  0
  181.9000  178.8890  140.6260 C   0  0  0  0  0  0  0  0  0  0  0  0
  182.6020  178.5640  139.4560 C   0  0  0  0  0  3  0  0  0  0  0  0
  182.5330  179.0670  144.2520 N   0  0  0  0  0  0  0  0  0  0  0  0
  184.6850  177.8660  138.2590 C   0  0  0  0  0  2  0  0  0  0  0  0
  185.8070  178.8700  138.0560 C   0  0  0  0  0  2  0  0  0  0  0  0
  186.6890  177.4830  135.9360 O   0  0  0  0  0  0  0  0  0  0  0  0
  187.1730  178.0930  137.2220 S   0  0  0  0  0  0  0  0  0  0  0  0
  188.2340  179.1140  136.9260 O   0  0  0  0  0  0  0  0  0  0  0  0
  187.8500  176.8230  138.2710 C   0  0  0  0  0  2  0  0  0  0  0  0
  189.0730  177.3030  138.8930 N   0  0  0  0  0  0  0  0  0  0  0  0
  191.3680  177.3970  140.4890 C   0  0  0  0  0  2  0  0  0  0  0  0
  190.0970  176.8890  141.1690 C   0  0  2  0  0  3  0  0  0  0  0  0
  190.1330  176.3660  138.5160 C   0  0  0  0  0  2  0  0  0  0  0  0
  188.8480  177.3230  140.3520 C   0  0  1  0  0  3  0  0  0  0  0  0
  188.3690  178.7150  140.7500 C   0  0  0  0  0  1  0  0  0  0  0  0
  191.4820  176.8360  139.0650 C   0  0  0  0  0  2  0  0  0  0  0  0
  190.0440  177.2520  142.6580 C   0  0  2  0  0  3  0  0  0  0  0  0
  191.3890  176.5190  144.3970 C   0  0  0  0  0  0  0  0  0  0  0  0
  191.7610  177.8300  144.0710 N   0  0  0  0  0  0  0  0  0  0  0  0
  191.9230  175.8600  145.3250 O   0  0  0  0  0  0  0  0  0  0  0  0
  191.0340  178.3020  142.9730 N   0  0  0  0  0  0  0  0  0  0  0  0
  190.3290  176.0190  143.5260 C   0  0  0  0  0  2  0  0  0  0  0  0
  180.5300  179.3230  140.5640 N   0  0  0  0  0  2  0  0  0  0  0  0
  180.0750  180.6910  140.3010 C   0  0  2  0  0  3  0  0  0  0  0  0
  179.1070  181.1420  141.3790 C   0  0  0  0  0  1  0  0  0  0  0  0
  179.4490  180.7930  138.9880 N   0  0  0  0  0  2  0  0  0  0  0  0
  179.6370  182.1570  138.5120 C   0  0  0  0  0  2  0  0  0  0  0  0
  181.0590  182.3440  138.0010 C   0  0  0  0  0  2  0  0  0  0  0  0
  180.2530  183.9720  136.2790 O   0  0  0  0  0  0  0  0  0  0  0  0
  181.1880  183.6300  137.2480 C   0  0  0  0  0  0  0  0  0  0  0  0
  182.1300  184.4190  137.5110 O   0  0  0  0  0  1  0  0  0  0  0  0
  1  6  1  0  0  0  0
  2 11  1  0  0  0  0
  2 12  1  0  0  0  0
  3 10  1  0  0  0  0
  4  8  2  0  0  0  0
  5  1  2  0  0  0  0
  7  9  2  0  0  0  0
  7  4  1  0  0  0  0
  8  1  1  0  0  0  0
  9  5  1  0  0  0  0
 10 11  2  0  0  0  0
 11  7  1  0  0  0  0
 12 15  2  0  0  0  0
 13  2  2  0  0  0  0
 14  3  2  0  0  0  0
 14 13  1  0  0  0  0
 15  4  1  0  0  0  0
 16  3  1  0  0  0  0
 17 16  1  0  0  0  0
 18 19  2  0  0  0  0
 19 17  1  0  0  0  0
 19 21  1  0  0  0  0
 20 19  2  0  0  0  0
 21 22  1  0  0  0  0
 22 26  1  0  0  0  0
 24 23  1  6  0  0  0
 24 29  1  0  0  0  0
 25 22  1  0  0  0  0
 25 28  1  0  0  0  0
 26 27  1  1  0  0  0
 26 24  1  0  0  0  0
 28 23  1  0  0  0  0
 29 33  1  0  0  0  0
 29 34  1  1  0  0  0
 30 32  2  0  0  0  0
 31 30  1  0  0  0  0
 33 31  2  0  0  0  0
 34 30  1  0  0  0  0
 35 13  1  0  0  0  0
 36 35  1  0  0  0  0
 36 37  1  1  0  0  0
 38 36  1  0  0  0  0
 39 38  1  0  0  0  0
 40 39  1  0  0  0  0
 41 42  2  0  0  0  0
 42 43  1  0  0  0  0
 42 40  1  0  0  0  0
M  END
>  <MODEL>
3

>  <REMARK>
 VINA RESULT:      -9.1      3.660      5.700
  Name = 
  12 active torsions:
  status: ('A' for Active; 'I' for Inactive)
    1  A    between atoms: C_1  and  N_9
    2  A    between atoms: C_1  and  N_35
    3  A    between atoms: C_2  and  C_6
    4  A    between atoms: C_2  and  C_13
    5  A    between atoms: C_3  and  N_4
    6  A    between atoms: C_3  and  S_12
    7  A    between atoms: C_6  and  S_12
    8  A    between atoms: N_9  and  C_32
    9  A    between atoms: C_11  and  C_14
   10  A    between atoms: C_25  and  C_32
   11  A    between atoms: C_25  and  C_37
   12  A    between atoms: C_34  and  N_35
                            x       y       z     vdW  Elec       q    Type
                         _______ _______ _______ _____ _____    ______ ____

>  <TORSDO>
F 12

$$$$
=
 OpenBabel10262422253D

 43 47  0  0  1  0  0  0  0  0999 V2000
  191.1080  176.8140  147.1200 C   0  0  0  0  0  0  0  0  0  0  0  0
  187.1890  177.6280  144.0410 C   0  0  0  0  0  0  0  0  0  0  0  0
  188.2270  178.1680  141.4910 C   0  0  0  0  0  0  0  0  0  0  0  0
  188.8890  177.1010  146.1890 C   0  0  0  0  0  0  0  0  0  0  0  0
  191.6730  177.0720  145.8680 C   0  0  0  0  0  3  0  0  0  0  0  0
  191.9090  176.5430  148.1800 F   0  0  0  0  0  0  0  0  0  0  0  0
  189.4530  177.3660  144.9180 C   0  0  0  0  0  0  0  0  0  0  0  0
  189.7200  176.8290  147.2810 C   0  0  0  0  0  3  0  0  0  0  0  0
  190.8510  177.3490  144.7710 C   0  0  0  0  0  3  0  0  0  0  0  0
  189.0950  177.9110  142.5540 C   0  0  0  0  0  3  0  0  0  0  0  0
  188.5920  177.6340  143.8340 C   0  0  0  0  0  0  0  0  0  0  0  0
  186.6920  177.3610  145.3240 C   0  0  0  0  0  3  0  0  0  0  0  0
  186.3130  177.8920  142.9700 C   0  0  0  0  0  0  0  0  0  0  0  0
  186.8460  178.1590  141.7000 C   0  0  0  0  0  3  0  0  0  0  0  0
  187.5390  177.1080  146.3560 N   0  0  0  0  0  0  0  0  0  0  0  0
  188.7800  178.4870  140.1470 C   0  0  0  0  0  2  0  0  0  0  0  0
  188.2380  177.5120  139.1160 C   0  0  0  0  0  2  0  0  0  0  0  0
  188.9330  179.6010  137.5810 O   0  0  0  0  0  0  0  0  0  0  0  0
  188.4480  178.1810  137.4810 S   0  0  0  0  0  0  0  0  0  0  0  0
  189.4520  177.3610  136.7220 O   0  0  0  0  0  0  0  0  0  0  0  0
  186.8850  178.1390  136.6290 C   0  0  0  0  0  2  0  0  0  0  0  0
  185.9600  177.2770  137.3450 N   0  0  0  0  0  0  0  0  0  0  0  0
  183.6790  175.7830  137.9660 C   0  0  0  0  0  2  0  0  0  0  0  0
  183.4330  177.1900  137.4230 C   0  0  2  0  0  3  0  0  0  0  0  0
  185.7310  176.1070  136.4950 C   0  0  0  0  0  2  0  0  0  0  0  0
  184.7200  178.0480  137.5680 C   0  0  1  0  0  3  0  0  0  0  0  0
  184.8030  178.7140  138.9370 C   0  0  0  0  0  1  0  0  0  0  0  0
  184.8230  175.1000  137.2060 C   0  0  0  0  0  2  0  0  0  0  0  0
  182.1680  177.8310  138.0070 C   0  0  2  0  0  3  0  0  0  0  0  0
  180.0820  178.1140  137.0380 C   0  0  0  0  0  0  0  0  0  0  0  0
  180.0020  177.0660  137.9640 N   0  0  0  0  0  0  0  0  0  0  0  0
  179.0980  178.5210  136.3690 O   0  0  0  0  0  0  0  0  0  0  0  0
  181.2530  176.7960  138.5300 N   0  0  0  0  0  0  0  0  0  0  0  0
  181.4350  178.6540  136.9390 C   0  0  0  0  0  2  0  0  0  0  0  0
  184.8930  177.9170  143.1910 N   0  0  0  0  0  2  0  0  0  0  0  0
  184.0540  179.1180  143.2500 C   0  0  2  0  0  3  0  0  0  0  0  0
  183.6190  179.3880  144.6780 C   0  0  0  0  0  1  0  0  0  0  0  0
  182.8890  178.9880  142.3840 N   0  0  0  0  0  2  0  0  0  0  0  0
  181.7020  179.0390  143.2270 C   0  0  0  0  0  2  0  0  0  0  0  0
  180.4640  178.6930  142.4120 C   0  0  0  0  0  2  0  0  0  0  0  0
  179.6910  181.0520  142.0890 O   0  0  0  0  0  1  0  0  0  0  0  0
  180.0690  179.8360  141.5320 C   0  0  0  0  0  0  0  0  0  0  0  0
  180.1050  179.7080  140.2820 O   0  0  0  0  0  0  0  0  0  0  0  0
  1  8  1  0  0  0  0
  1  6  1  0  0  0  0
  2 12  1  0  0  0  0
  3 14  2  0  0  0  0
  3 10  1  0  0  0  0
  4 15  1  0  0  0  0
  4  8  2  0  0  0  0
  5  1  2  0  0  0  0
  7  4  1  0  0  0  0
  9  7  2  0  0  0  0
  9  5  1  0  0  0  0
 10 11  2  0  0  0  0
 11  2  1  0  0  0  0
 11  7  1  0  0  0  0
 12 15  2  0  0  0  0
 13 35  1  0  0  0  0
 13  2  2  0  0  0  0
 14 13  1  0  0  0  0
 16  3  1  0  0  0  0
 17 16  1  0  0  0  0
 19 18  2  0  0  0  0
 19 17  1  0  0  0  0
 20 19  2  0  0  0  0
 21 22  1  0  0  0  0
 21 19  1  0  0  0  0
 22 26  1  0  0  0  0
 24 26  1  0  0  0  0
 24 23  1  1  0  0  0
 24 29  1  0  0  0  0
 25 28  1  0  0  0  0
 25 22  1  0  0  0  0
 26 27  1  1  0  0  0
 28 23  1  0  0  0  0
 29 34  1  6  0  0  0
 29 33  1  0  0  0  0
 30 31  1  0  0  0  0
 31 33  2  0  0  0  0
 32 30  2  0  0  0  0
 34 30  1  0  0  0  0
 35 36  1  0  0  0  0
 36 37  1  1  0  0  0
 38 39  1  0  0  0  0
 38 36  1  0  0  0  0
 40 39  1  0  0  0  0
 42 41  1  0  0  0  0
 42 40  1  0  0  0  0
 43 42  2  0  0  0  0
M  END
>  <MODEL>
4

>  <REMARK>
 VINA RESULT:      -8.8      4.402      7.192
  Name = 
  12 active torsions:
  status: ('A' for Active; 'I' for Inactive)
    1  A    between atoms: C_1  and  N_9
    2  A    between atoms: C_1  and  N_35
    3  A    between atoms: C_2  and  C_6
    4  A    between atoms: C_2  and  C_13
    5  A    between atoms: C_3  and  N_4
    6  A    between atoms: C_3  and  S_12
    7  A    between atoms: C_6  and  S_12
    8  A    between atoms: N_9  and  C_32
    9  A    between atoms: C_11  and  C_14
   10  A    between atoms: C_25  and  C_32
   11  A    between atoms: C_25  and  C_37
   12  A    between atoms: C_34  and  N_35
                            x       y       z     vdW  Elec       q    Type
                         _______ _______ _______ _____ _____    ______ ____

>  <TORSDO>
F 12

$$$$
=
 OpenBabel10262422253D

 43 47  0  0  1  0  0  0  0  0999 V2000
  186.7990  178.2140  146.3310 C   0  0  0  0  0  0  0  0  0  0  0  0
  182.9850  178.7230  143.0610 C   0  0  0  0  0  0  0  0  0  0  0  0
  183.9720  178.0690  140.5170 C   0  0  0  0  0  0  0  0  0  0  0  0
  184.6470  178.6350  145.2990 C   0  0  0  0  0  0  0  0  0  0  0  0
  187.3360  177.8750  145.0860 C   0  0  0  0  0  3  0  0  0  0  0  0
  187.5800  178.1690  147.4380 F   0  0  0  0  0  0  0  0  0  0  0  0
  185.1830  178.2950  144.0340 C   0  0  0  0  0  0  0  0  0  0  0  0
  185.4580  178.5930  146.4380 C   0  0  0  0  0  3  0  0  0  0  0  0
  186.5340  177.9150  143.9410 C   0  0  0  0  0  3  0  0  0  0  0  0
  184.8220  178.0240  141.6240 C   0  0  0  0  0  3  0  0  0  0  0  0
  184.3420  178.3420  142.9040 C   0  0  0  0  0  0  0  0  0  0  0  0
  182.5140  179.0500  144.3390 C   0  0  0  0  0  3  0  0  0  0  0  0
  182.1290  178.7740  141.9430 C   0  0  0  0  0  0  0  0  0  0  0  0
  182.6360  178.4430  140.6770 C   0  0  0  0  0  3  0  0  0  0  0  0
  183.3420  179.0010  145.4160 N   0  0  0  0  0  0  0  0  0  0  0  0
  184.5050  177.7550  139.1640 C   0  0  0  0  0  2  0  0  0  0  0  0
  185.5800  178.7570  138.7800 C   0  0  0  0  0  2  0  0  0  0  0  0
  185.8270  177.5070  136.4180 O   0  0  0  0  0  0  0  0  0  0  0  0
  186.6540  178.0520  137.5490 S   0  0  0  0  0  0  0  0  0  0  0  0
  187.5870  179.1070  137.0260 O   0  0  0  0  0  0  0  0  0  0  0  0
  187.6010  176.7370  138.2870 C   0  0  0  0  0  2  0  0  0  0  0  0
  188.8380  177.2720  138.8340 N   0  0  0  0  0  0  0  0  0  0  0  0
  191.2240  177.4670  140.2790 C   0  0  0  0  0  2  0  0  0  0  0  0
  190.0250  176.8940  141.0350 C   0  0  2  0  0  3  0  0  0  0  0  0
  189.9140  176.3900  138.3800 C   0  0  0  0  0  2  0  0  0  0  0  0
  188.7070  177.2710  140.3040 C   0  0  1  0  0  3  0  0  0  0  0  0
  188.1880  178.6360  140.7450 C   0  0  0  0  0  1  0  0  0  0  0  0
  191.2720  176.9220  138.8460 C   0  0  0  0  0  2  0  0  0  0  0  0
  190.0520  177.2440  142.5280 C   0  0  2  0  0  3  0  0  0  0  0  0
  191.4260  176.4240  144.2050 C   0  0  0  0  0  0  0  0  0  0  0  0
  191.8530  177.7170  143.8740 N   0  0  0  0  0  0  0  0  0  0  0  0
  191.9610  175.7290  145.1050 O   0  0  0  0  0  0  0  0  0  0  0  0
  191.1070  178.2380  142.8110 N   0  0  0  0  0  0  0  0  0  0  0  0
  190.3060  175.9890  143.3740 C   0  0  0  0  0  2  0  0  0  0  0  0
  180.7630  179.1920  142.1010 N   0  0  0  0  0  2  0  0  0  0  0  0
  180.0490  180.1370  141.2380 C   0  0  2  0  0  3  0  0  0  0  0  0
  179.0330  180.9240  142.0440 C   0  0  0  0  0  1  0  0  0  0  0  0
  179.3920  179.4480  140.1340 N   0  0  0  0  0  2  0  0  0  0  0  0
  179.8550  180.0550  138.8940 C   0  0  0  0  0  2  0  0  0  0  0  0
  179.6420  179.0970  137.7300 C   0  0  0  0  0  2  0  0  0  0  0  0
  180.8250  176.8910  137.7010 O   0  0  0  0  0  1  0  0  0  0  0  0
  180.8630  178.2650  137.4970 C   0  0  0  0  0  0  0  0  0  0  0  0
  181.9220  178.8050  137.0880 O   0  0  0  0  0  0  0  0  0  0  0  0
  1  8  1  0  0  0  0
  1  6  1  0  0  0  0
  2 12  1  0  0  0  0
  3 14  2  0  0  0  0
  3 10  1  0  0  0  0
  4 15  1  0  0  0  0
  4  8  2  0  0  0  0
  5  1  2  0  0  0  0
  7  4  1  0  0  0  0
  9  7  2  0  0  0  0
  9  5  1  0  0  0  0
 10 11  2  0  0  0  0
 11  2  1  0  0  0  0
 11  7  1  0  0  0  0
 12 15  2  0  0  0  0
 13 35  1  0  0  0  0
 13  2  2  0  0  0  0
 14 13  1  0  0  0  0
 16  3  1  0  0  0  0
 17 16  1  0  0  0  0
 18 19  2  0  0  0  0
 19 21  1  0  0  0  0
 19 17  1  0  0  0  0
 20 19  2  0  0  0  0
 21 22  1  0  0  0  0
 22 26  1  0  0  0  0
 24 23  1  6  0  0  0
 24 29  1  0  0  0  0
 25 22  1  0  0  0  0
 25 28  1  0  0  0  0
 26 27  1  1  0  0  0
 26 24  1  0  0  0  0
 28 23  1  0  0  0  0
 29 33  1  0  0  0  0
 29 34  1  1  0  0  0
 30 32  2  0  0  0  0
 31 30  1  0  0  0  0
 33 31  2  0  0  0  0
 34 30  1  0  0  0  0
 36 37  1  1  0  0  0
 36 35  1  0  0  0  0
 38 36  1  0  0  0  0
 39 38  1  0  0  0  0
 40 39  1  0  0  0  0
 42 41  1  0  0  0  0
 42 40  1  0  0  0  0
 43 42  2  0  0  0  0
M  END
>  <MODEL>
5

>  <REMARK>
 VINA RESULT:      -8.8      3.602      5.156
  Name = 
  12 active torsions:
  status: ('A' for Active; 'I' for Inactive)
    1  A    between atoms: C_1  and  N_9
    2  A    between atoms: C_1  and  N_35
    3  A    between atoms: C_2  and  C_6
    4  A    between atoms: C_2  and  C_13
    5  A    between atoms: C_3  and  N_4
    6  A    between atoms: C_3  and  S_12
    7  A    between atoms: C_6  and  S_12
    8  A    between atoms: N_9  and  C_32
    9  A    between atoms: C_11  and  C_14
   10  A    between atoms: C_25  and  C_32
   11  A    between atoms: C_25  and  C_37
   12  A    between atoms: C_34  and  N_35
                            x       y       z     vdW  Elec       q    Type
                         _______ _______ _______ _____ _____    ______ ____

>  <TORSDO>
F 12

$$$$
=
 OpenBabel10262422253D

 43 47  0  0  1  0  0  0  0  0999 V2000
  191.1940  176.7490  147.0980 C   0  0  0  0  0  0  0  0  0  0  0  0
  187.1010  177.7460  144.3130 C   0  0  0  0  0  0  0  0  0  0  0  0
  187.9780  178.3000  141.7060 C   0  0  0  0  0  0  0  0  0  0  0  0
  188.9270  177.1250  146.3290 C   0  0  0  0  0  0  0  0  0  0  0  0
  191.6800  177.0130  145.8140 C   0  0  0  0  0  3  0  0  0  0  0  0
  192.0570  176.4330  148.0950 F   0  0  0  0  0  0  0  0  0  0  0  0
  189.4100  177.3950  145.0260 C   0  0  0  0  0  0  0  0  0  0  0  0
  189.8210  176.8060  147.3550 C   0  0  0  0  0  3  0  0  0  0  0  0
  190.7940  177.3360  144.7810 C   0  0  0  0  0  3  0  0  0  0  0  0
  188.9090  177.9960  142.7020 C   0  0  0  0  0  3  0  0  0  0  0  0
  188.4860  177.7110  144.0090 C   0  0  0  0  0  0  0  0  0  0  0  0
  186.6850  177.4710  145.6230 C   0  0  0  0  0  3  0  0  0  0  0  0
  186.1630  178.0580  143.3100 C   0  0  0  0  0  0  0  0  0  0  0  0
  186.6150  178.3310  142.0110 C   0  0  0  0  0  3  0  0  0  0  0  0
  187.5920  177.1720  146.5890 N   0  0  0  0  0  0  0  0  0  0  0  0
  188.4470  178.6260  140.3330 C   0  0  0  0  0  2  0  0  0  0  0  0
  187.9160  177.6030  139.3430 C   0  0  0  0  0  2  0  0  0  0  0  0
  188.7560  179.3730  137.5110 O   0  0  0  0  0  0  0  0  0  0  0  0
  188.6180  177.8930  137.7350 S   0  0  0  0  0  0  0  0  0  0  0  0
  189.9700  177.2440  137.6470 O   0  0  0  0  0  0  0  0  0  0  0  0
  187.5460  177.1960  136.4960 C   0  0  0  0  0  2  0  0  0  0  0  0
  186.8440  176.0470  137.0460 N   0  0  0  0  0  0  0  0  0  0  0  0
  185.3980  173.6580  137.2030 C   0  0  0  0  0  2  0  0  0  0  0  0
  184.8830  174.6910  136.2020 C   0  0  2  0  0  3  0  0  0  0  0  0
  187.5560  174.8570  136.5780 C   0  0  0  0  0  2  0  0  0  0  0  0
  185.4570  176.0940  136.5420 C   0  0  1  0  0  3  0  0  0  0  0  0
  184.5940  176.8240  137.5670 C   0  0  0  0  0  1  0  0  0  0  0  0
  186.9310  173.5920  137.1740 C   0  0  0  0  0  2  0  0  0  0  0  0
  183.3580  174.6460  136.0460 C   0  0  2  0  0  3  0  0  0  0  0  0
  182.0090  172.9160  135.2950 C   0  0  0  0  0  0  0  0  0  0  0  0
  181.8830  173.0040  136.6880 N   0  0  0  0  0  0  0  0  0  0  0  0
  181.3740  172.0870  134.5950 O   0  0  0  0  0  0  0  0  0  0  0  0
  182.7350  173.9840  137.2110 N   0  0  0  0  0  0  0  0  0  0  0  0
  182.9660  173.8870  134.7710 C   0  0  0  0  0  2  0  0  0  0  0  0
  184.7620  178.1250  143.6300 N   0  0  0  0  0  2  0  0  0  0  0  0
  183.7520  178.8990  142.9030 C   0  0  2  0  0  3  0  0  0  0  0  0
  182.5620  179.1860  143.7990 C   0  0  0  0  0  1  0  0  0  0  0  0
  183.3190  178.1980  141.7000 N   0  0  0  0  0  2  0  0  0  0  0  0
  182.2510  178.9800  141.0920 C   0  0  0  0  0  2  0  0  0  0  0  0
  182.3780  178.9510  139.5750 C   0  0  0  0  0  2  0  0  0  0  0  0
  184.5430  180.0890  139.0390 O   0  0  0  0  0  1  0  0  0  0  0  0
  183.1540  180.1320  139.0840 C   0  0  0  0  0  0  0  0  0  0  0  0
  182.5500  181.1590  138.6840 O   0  0  0  0  0  0  0  0  0  0  0  0
  1  8  1  0  0  0  0
  1  6  1  0  0  0  0
  2 12  1  0  0  0  0
  3 14  2  0  0  0  0
  3 10  1  0  0  0  0
  4 15  1  0  0  0  0
  4  8  2  0  0  0  0
  5  1  2  0  0  0  0
  7  4  1  0  0  0  0
  9  7  2  0  0  0  0
  9  5  1  0  0  0  0
 10 11  2  0  0  0  0
 11  2  1  0  0  0  0
 11  7  1  0  0  0  0
 12 15  2  0  0  0  0
 13 35  1  0  0  0  0
 13  2  2  0  0  0  0
 14 13  1  0  0  0  0
 16  3  1  0  0  0  0
 17 16  1  0  0  0  0
 18 19  2  0  0  0  0
 19 17  1  0  0  0  0
 20 19  2  0  0  0  0
 21 22  1  0  0  0  0
 21 19  1  0  0  0  0
 24 26  1  0  0  0  0
 24 23  1  1  0  0  0
 25 22  1  0  0  0  0
 25 28  1  0  0  0  0
 26 22  1  0  0  0  0
 26 27  1  1  0  0  0
 28 23  1  0  0  0  0
 29 34  1  6  0  0  0
 29 24  1  0  0  0  0
 29 33  1  0  0  0  0
 30 31  1  0  0  0  0
 31 33  2  0  0  0  0
 32 30  2  0  0  0  0
 34 30  1  0  0  0  0
 36 35  1  0  0  0  0
 36 37  1  1  0  0  0
 38 36  1  0  0  0  0
 39 38  1  0  0  0  0
 40 39  1  0  0  0  0
 41 42  1  0  0  0  0
 42 40  1  0  0  0  0
 43 42  2  0  0  0  0
M  END
>  <MODEL>
6

>  <REMARK>
 VINA RESULT:      -8.7      4.010      6.037
  Name = 
  12 active torsions:
  status: ('A' for Active; 'I' for Inactive)
    1  A    between atoms: C_1  and  N_9
    2  A    between atoms: C_1  and  N_35
    3  A    between atoms: C_2  and  C_6
    4  A    between atoms: C_2  and  C_13
    5  A    between atoms: C_3  and  N_4
    6  A    between atoms: C_3  and  S_12
    7  A    between atoms: C_6  and  S_12
    8  A    between atoms: N_9  and  C_32
    9  A    between atoms: C_11  and  C_14
   10  A    between atoms: C_25  and  C_32
   11  A    between atoms: C_25  and  C_37
   12  A    between atoms: C_34  and  N_35
                            x       y       z     vdW  Elec       q    Type
                         _______ _______ _______ _____ _____    ______ ____

>  <TORSDO>
F 12

$$$$
=
 OpenBabel10262422253D

 43 47  0  0  1  0  0  0  0  0999 V2000
  191.1340  176.6880  147.0480 C   0  0  0  0  0  0  0  0  0  0  0  0
  189.0710  178.0210  142.6360 C   0  0  0  0  0  0  0  0  0  0  0  0
  186.2970  178.1850  143.0250 C   0  0  0  0  0  0  0  0  0  0  0  0
  190.7650  177.3100  144.7350 C   0  0  0  0  0  0  0  0  0  0  0  0
  189.7600  176.7610  147.2930 C   0  0  0  0  0  3  0  0  0  0  0  0
  191.9820  176.3570  148.0520 F   0  0  0  0  0  0  0  0  0  0  0  0
  189.3710  177.3850  144.9740 C   0  0  0  0  0  0  0  0  0  0  0  0
  191.6350  176.9620  145.7720 C   0  0  0  0  0  3  0  0  0  0  0  0
  188.8800  177.1060  146.2620 C   0  0  0  0  0  3  0  0  0  0  0  0
  187.1270  177.8230  144.0880 C   0  0  0  0  0  3  0  0  0  0  0  0
  188.5170  177.7420  143.9110 C   0  0  0  0  0  0  0  0  0  0  0  0
  190.4590  177.9280  142.4620 C   0  0  0  0  0  3  0  0  0  0  0  0
  188.2330  178.3810  141.5620 C   0  0  0  0  0  0  0  0  0  0  0  0
  186.8480  178.4600  141.7710 C   0  0  0  0  0  3  0  0  0  0  0  0
  191.2640  177.5790  143.4990 N   0  0  0  0  0  0  0  0  0  0  0  0
  184.8240  178.2390  143.2240 C   0  0  0  0  0  2  0  0  0  0  0  0
  184.2250  179.3570  142.3880 C   0  0  0  0  0  2  0  0  0  0  0  0
  183.4520  177.2400  140.9310 O   0  0  0  0  0  0  0  0  0  0  0  0
  183.1020  178.6800  141.1860 S   0  0  0  0  0  0  0  0  0  0  0  0
  181.6930  178.7700  141.7000 O   0  0  0  0  0  0  0  0  0  0  0  0
  183.2400  179.6070  139.6720 C   0  0  0  0  0  2  0  0  0  0  0  0
  182.0240  179.4520  138.8900 N   0  0  0  0  0  0  0  0  0  0  0  0
  180.2010  179.6120  136.7750 C   0  0  0  0  0  2  0  0  0  0  0  0
  180.9480  180.9010  137.1180 C   0  0  2  0  0  3  0  0  0  0  0  0
  182.3850  178.6850  137.6970 C   0  0  0  0  0  2  0  0  0  0  0  0
  181.5420  180.8060  138.5500 C   0  0  1  0  0  3  0  0  0  0  0  0
  180.5350  181.2420  139.6090 C   0  0  0  0  0  1  0  0  0  0  0  0
  181.1440  178.4040  136.8470 C   0  0  0  0  0  2  0  0  0  0  0  0
  180.1030  182.1540  136.8580 C   0  0  2  0  0  3  0  0  0  0  0  0
  180.7340  184.1880  135.9420 C   0  0  0  0  0  0  0  0  0  0  0  0
  180.0070  183.4750  134.9800 N   0  0  0  0  0  0  0  0  0  0  0  0
  181.1890  185.3430  135.7480 O   0  0  0  0  0  0  0  0  0  0  0  0
  179.6620  182.2020  135.4500 N   0  0  0  0  0  0  0  0  0  0  0  0
  180.9060  183.4230  137.1750 C   0  0  0  0  0  2  0  0  0  0  0  0
  188.7960  178.6310  140.2630 N   0  0  0  0  0  2  0  0  0  0  0  0
  188.4530  177.9200  139.0270 C   0  0  2  0  0  3  0  0  0  0  0  0
  189.3940  176.7490  138.8150 C   0  0  0  0  0  1  0  0  0  0  0  0
  188.4940  178.8150  137.8770 N   0  0  0  0  0  2  0  0  0  0  0  0
  187.4870  178.3630  136.9280 C   0  0  0  0  0  2  0  0  0  0  0  0
  186.2150  177.9620  137.6630 C   0  0  0  0  0  2  0  0  0  0  0  0
  186.0600  176.2920  135.8040 O   0  0  0  0  0  0  0  0  0  0  0  0
  185.5840  176.7680  137.0200 C   0  0  0  0  0  0  0  0  0  0  0  0
  184.6350  176.1750  137.5930 O   0  0  0  0  0  1  0  0  0  0  0  0
  1  5  1  0  0  0  0
  1  6  1  0  0  0  0
  2 11  1  0  0  0  0
  3 16  1  0  0  0  0
  3 10  1  0  0  0  0
  4  7  2  0  0  0  0
  4  8  1  0  0  0  0
  7  9  1  0  0  0  0
  8  1  2  0  0  0  0
  9  5  2  0  0  0  0
 11 10  2  0  0  0  0
 11  7  1  0  0  0  0
 12  2  1  0  0  0  0
 12 15  2  0  0  0  0
 13 14  1  0  0  0  0
 13  2  2  0  0  0  0
 14  3  2  0  0  0  0
 15  4  1  0  0  0  0
 17 16  1  0  0  0  0
 18 19  2  0  0  0  0
 19 20  2  0  0  0  0
 19 17  1  0  0  0  0
 21 19  1  0  0  0  0
 22 21  1  0  0  0  0
 23 28  1  0  0  0  0
 24 23  1  1  0  0  0
 24 26  1  0  0  0  0
 25 22  1  0  0  0  0
 26 22  1  0  0  0  0
 26 27  1  1  0  0  0
 28 25  1  0  0  0  0
 29 24  1  0  0  0  0
 29 34  1  6  0  0  0
 30 34  1  0  0  0  0
 31 33  2  0  0  0  0
 31 30  1  0  0  0  0
 32 30  2  0  0  0  0
 33 29  1  0  0  0  0
 35 13  1  0  0  0  0
 36 37  1  6  0  0  0
 36 35  1  0  0  0  0
 38 36  1  0  0  0  0
 39 40  1  0  0  0  0
 39 38  1  0  0  0  0
 41 42  2  0  0  0  0
 42 43  1  0  0  0  0
 42 40  1  0  0  0  0
M  END
>  <MODEL>
7

>  <REMARK>
 VINA RESULT:      -8.6      4.251      9.409
  Name = 
  12 active torsions:
  status: ('A' for Active; 'I' for Inactive)
    1  A    between atoms: C_1  and  N_9
    2  A    between atoms: C_1  and  N_35
    3  A    between atoms: C_2  and  C_6
    4  A    between atoms: C_2  and  C_13
    5  A    between atoms: C_3  and  N_4
    6  A    between atoms: C_3  and  S_12
    7  A    between atoms: C_6  and  S_12
    8  A    between atoms: N_9  and  C_32
    9  A    between atoms: C_11  and  C_14
   10  A    between atoms: C_25  and  C_32
   11  A    between atoms: C_25  and  C_37
   12  A    between atoms: C_34  and  N_35
                            x       y       z     vdW  Elec       q    Type
                         _______ _______ _______ _____ _____    ______ ____

>  <TORSDO>
F 12

$$$$
=
 OpenBabel10262422253D

 43 47  0  0  1  0  0  0  0  0999 V2000
  187.8840  177.4780  147.5840 C   0  0  0  0  0  0  0  0  0  0  0  0
  186.1880  178.5980  142.9610 C   0  0  0  0  0  0  0  0  0  0  0  0
  188.2350  177.9740  141.1460 C   0  0  0  0  0  0  0  0  0  0  0  0
  186.5420  178.1990  145.6990 C   0  0  0  0  0  0  0  0  0  0  0  0
  188.9310  177.1470  146.7190 C   0  0  0  0  0  3  0  0  0  0  0  0
  188.0230  177.2840  148.9180 F   0  0  0  0  0  0  0  0  0  0  0  0
  187.5980  177.8680  144.8160 C   0  0  0  0  0  0  0  0  0  0  0  0
  186.6930  178.0030  147.0750 C   0  0  0  0  0  3  0  0  0  0  0  0
  188.7920  177.3410  145.3410 C   0  0  0  0  0  3  0  0  0  0  0  0
  188.4340  177.7710  142.5120 C   0  0  0  0  0  3  0  0  0  0  0  0
  187.4180  178.0730  143.4330 C   0  0  0  0  0  0  0  0  0  0  0  0
  185.1820  178.9080  143.8850 C   0  0  0  0  0  3  0  0  0  0  0  0
  185.9900  178.8080  141.5820 C   0  0  0  0  0  0  0  0  0  0  0  0
  187.0210  178.4900  140.6860 C   0  0  0  0  0  3  0  0  0  0  0  0
  185.3760  178.7060  145.2150 N   0  0  0  0  0  0  0  0  0  0  0  0
  189.3320  177.6740  140.1870 C   0  0  0  0  0  2  0  0  0  0  0  0
  189.1470  178.4780  138.9120 C   0  0  0  0  0  2  0  0  0  0  0  0
  187.4410  176.9860  137.4770 O   0  0  0  0  0  0  0  0  0  0  0  0
  188.8900  177.3820  137.5350 S   0  0  0  0  0  0  0  0  0  0  0  0
  189.2720  178.0740  136.2580 O   0  0  0  0  0  0  0  0  0  0  0  0
  189.9000  175.9320  137.7480 C   0  0  0  0  0  2  0  0  0  0  0  0
  191.1460  176.0910  137.0180 N   0  0  0  0  0  0  0  0  0  0  0  0
  193.5590  175.4850  135.7380 C   0  0  0  0  0  2  0  0  0  0  0  0
  193.3380  174.8310  137.1010 C   0  0  2  0  0  3  0  0  0  0  0  0
  191.0200  175.3030  135.7910 C   0  0  0  0  0  2  0  0  0  0  0  0
  192.2330  175.5920  137.8850 C   0  0  1  0  0  3  0  0  0  0  0  0
  192.8060  176.7690  138.6690 C   0  0  0  0  0  1  0  0  0  0  0  0
  192.2640  175.4740  134.9150 C   0  0  0  0  0  2  0  0  0  0  0  0
  194.6470  174.6320  137.8750 C   0  0  2  0  0  3  0  0  0  0  0  0
  196.3050  173.0400  137.5720 C   0  0  0  0  0  0  0  0  0  0  0  0
  196.7670  174.2630  137.0670 N   0  0  0  0  0  0  0  0  0  0  0  0
  196.9950  171.9890  137.5740 O   0  0  0  0  0  0  0  0  0  0  0  0
  195.7780  175.2490  137.1520 N   0  0  0  0  0  0  0  0  0  0  0  0
  194.9370  173.1380  138.0740 C   0  0  0  0  0  2  0  0  0  0  0  0
  184.7540  179.3710  141.1110 N   0  0  0  0  0  2  0  0  0  0  0  0
  183.7470  178.6760  140.3030 C   0  0  2  0  0  3  0  0  0  0  0  0
  183.4050  179.4920  139.0700 C   0  0  0  0  0  1  0  0  0  0  0  0
  182.5430  178.4090  141.0800 N   0  0  0  0  0  2  0  0  0  0  0  0
  181.3970  178.5850  140.1980 C   0  0  0  0  0  2  0  0  0  0  0  0
  180.1480  178.8880  141.0130 C   0  0  0  0  0  2  0  0  0  0  0  0
  179.6890  180.8780  142.4610 O   0  0  0  0  0  1  0  0  0  0  0  0
  179.9830  180.3620  141.2040 C   0  0  0  0  0  0  0  0  0  0  0  0
  180.1370  181.1420  140.2310 O   0  0  0  0  0  0  0  0  0  0  0  0
  1  6  1  0  0  0  0
  2 11  1  0  0  0  0
  2 12  1  0  0  0  0
  3 10  1  0  0  0  0
  4  8  2  0  0  0  0
  5  1  2  0  0  0  0
  7  9  2  0  0  0  0
  7  4  1  0  0  0  0
  8  1  1  0  0  0  0
  9  5  1  0  0  0  0
 10 11  2  0  0  0  0
 11  7  1  0  0  0  0
 12 15  2  0  0  0  0
 13  2  2  0  0  0  0
 14  3  2  0  0  0  0
 14 13  1  0  0  0  0
 15  4  1  0  0  0  0
 16  3  1  0  0  0  0
 17 16  1  0  0  0  0
 18 19  2  0  0  0  0
 19 21  1  0  0  0  0
 19 17  1  0  0  0  0
 20 19  2  0  0  0  0
 22 21  1  0  0  0  0
 22 26  1  0  0  0  0
 24 23  1  6  0  0  0
 24 29  1  0  0  0  0
 24 26  1  0  0  0  0
 25 22  1  0  0  0  0
 26 27  1  6  0  0  0
 28 23  1  0  0  0  0
 28 25  1  0  0  0  0
 29 34  1  6  0  0  0
 30 32  2  0  0  0  0
 30 34  1  0  0  0  0
 31 33  2  0  0  0  0
 31 30  1  0  0  0  0
 33 29  1  0  0  0  0
 35 13  1  0  0  0  0
 36 37  1  6  0  0  0
 36 38  1  0  0  0  0
 36 35  1  0  0  0  0
 39 40  1  0  0  0  0
 39 38  1  0  0  0  0
 40 42  1  0  0  0  0
 42 41  1  0  0  0  0
 43 42  2  0  0  0  0
M  END
>  <MODEL>
8

>  <REMARK>
 VINA RESULT:      -8.6      1.663      2.458
  Name = 
  12 active torsions:
  status: ('A' for Active; 'I' for Inactive)
    1  A    between atoms: C_1  and  N_9
    2  A    between atoms: C_1  and  N_35
    3  A    between atoms: C_2  and  C_6
    4  A    between atoms: C_2  and  C_13
    5  A    between atoms: C_3  and  N_4
    6  A    between atoms: C_3  and  S_12
    7  A    between atoms: C_6  and  S_12
    8  A    between atoms: N_9  and  C_32
    9  A    between atoms: C_11  and  C_14
   10  A    between atoms: C_25  and  C_32
   11  A    between atoms: C_25  and  C_37
   12  A    between atoms: C_34  and  N_35
                            x       y       z     vdW  Elec       q    Type
                         _______ _______ _______ _____ _____    ______ ____

>  <TORSDO>
F 12

$$$$
=
 OpenBabel10262422253D

 43 47  0  0  1  0  0  0  0  0999 V2000
  183.2650  178.8570  144.4650 C   0  0  0  0  0  0  0  0  0  0  0  0
  181.9460  178.5020  139.6040 C   0  0  0  0  0  0  0  0  0  0  0  0
  184.2420  177.7750  138.1650 C   0  0  0  0  0  0  0  0  0  0  0  0
  182.0510  178.8620  142.3670 C   0  0  0  0  0  0  0  0  0  0  0  0
  184.4350  178.4900  143.7940 C   0  0  0  0  0  3  0  0  0  0  0  0
  183.2840  179.0280  145.8100 F   0  0  0  0  0  0  0  0  0  0  0  0
  183.2310  178.4920  141.6790 C   0  0  0  0  0  0  0  0  0  0  0  0
  182.0760  179.0430  143.7540 C   0  0  0  0  0  3  0  0  0  0  0  0
  184.4210  178.3090  142.4070 C   0  0  0  0  0  3  0  0  0  0  0  0
  184.3170  177.9540  139.5470 C   0  0  0  0  0  3  0  0  0  0  0  0
  183.1760  178.3120  140.2820 C   0  0  0  0  0  0  0  0  0  0  0  0
  180.8120  178.8700  140.3410 C   0  0  0  0  0  3  0  0  0  0  0  0
  181.8710  178.3250  138.2080 C   0  0  0  0  0  0  0  0  0  0  0  0
  183.0270  177.9600  137.5020 C   0  0  0  0  0  3  0  0  0  0  0  0
  180.8870  179.0410  141.6870 N   0  0  0  0  0  0  0  0  0  0  0  0
  185.4670  177.4210  137.3990 C   0  0  0  0  0  2  0  0  0  0  0  0
  186.4980  178.5300  137.5220 C   0  0  0  0  0  2  0  0  0  0  0  0
  188.0220  176.3500  137.8690 O   0  0  0  0  0  0  0  0  0  0  0  0
  188.1300  177.8310  137.6370 S   0  0  0  0  0  0  0  0  0  0  0  0
  188.8830  178.0870  136.3630 O   0  0  0  0  0  0  0  0  0  0  0  0
  188.9940  178.5900  138.9970 C   0  0  0  0  0  2  0  0  0  0  0  0
  188.8630  177.7600  140.1840 N   0  0  0  0  0  0  0  0  0  0  0  0
  188.8690  176.9560  142.8620 C   0  0  0  0  0  2  0  0  0  0  0  0
  190.0820  177.7620  142.4000 C   0  0  2  0  0  3  0  0  0  0  0  0
  187.8390  178.3840  141.0230 C   0  0  0  0  0  2  0  0  0  0  0  0
  190.1810  177.7320  140.8500 C   0  0  1  0  0  3  0  0  0  0  0  0
  190.9480  176.5090  140.3560 C   0  0  0  0  0  1  0  0  0  0  0  0
  187.5770  177.5320  142.2680 C   0  0  0  0  0  2  0  0  0  0  0  0
  191.3690  177.3550  143.1300 C   0  0  2  0  0  3  0  0  0  0  0  0
  191.7090  176.9400  145.3850 C   0  0  0  0  0  0  0  0  0  0  0  0
  191.6830  175.7140  144.7070 N   0  0  0  0  0  0  0  0  0  0  0  0
  191.9050  177.0410  146.6230 O   0  0  0  0  0  0  0  0  0  0  0  0
  191.4040  175.8950  143.3480 N   0  0  0  0  0  0  0  0  0  0  0  0
  191.4690  178.0660  144.4860 C   0  0  0  0  0  2  0  0  0  0  0  0
  180.6290  178.5500  137.5190 N   0  0  0  0  0  2  0  0  0  0  0  0
  180.2580  179.7680  136.7930 C   0  0  2  0  0  3  0  0  0  0  0  0
  180.6650  179.6570  135.3350 C   0  0  0  0  0  1  0  0  0  0  0  0
  180.8680  180.9460  137.3970 N   0  0  0  0  0  2  0  0  0  0  0  0
  179.9600  182.0670  137.1990 C   0  0  0  0  0  2  0  0  0  0  0  0
  180.7140  183.3840  137.3260 C   0  0  0  0  0  2  0  0  0  0  0  0
  180.9870  183.1960  134.8450 O   0  0  0  0  0  0  0  0  0  0  0  0
  180.9480  183.9950  135.9810 C   0  0  0  0  0  0  0  0  0  0  0  0
  181.0830  185.2400  135.8730 O   0  0  0  0  0  1  0  0  0  0  0  0
  1  6  1  0  0  0  0
  2 11  1  0  0  0  0
  2 12  1  0  0  0  0
  3 10  1  0  0  0  0
  4  8  1  0  0  0  0
  5  1  1  0  0  0  0
  7  4  2  0  0  0  0
  7  9  1  0  0  0  0
  8  1  2  0  0  0  0
  9  5  2  0  0  0  0
 10 11  2  0  0  0  0
 11  7  1  0  0  0  0
 12 15  2  0  0  0  0
 13  2  2  0  0  0  0
 14  3  2  0  0  0  0
 14 13  1  0  0  0  0
 15  4  1  0  0  0  0
 16 17  1  0  0  0  0
 16  3  1  0  0  0  0
 17 19  1  0  0  0  0
 19 18  2  0  0  0  0
 19 21  1  0  0  0  0
 20 19  2  0  0  0  0
 21 22  1  0  0  0  0
 22 26  1  0  0  0  0
 22 25  1  0  0  0  0
 24 23  1  6  0  0  0
 24 29  1  0  0  0  0
 25 28  1  0  0  0  0
 26 27  1  1  0  0  0
 26 24  1  0  0  0  0
 28 23  1  0  0  0  0
 29 33  1  0  0  0  0
 29 34  1  1  0  0  0
 30 32  2  0  0  0  0
 31 30  1  0  0  0  0
 33 31  2  0  0  0  0
 34 30  1  0  0  0  0
 35 13  1  0  0  0  0
 36 37  1  6  0  0  0
 36 38  1  0  0  0  0
 36 35  1  0  0  0  0
 39 40  1  0  0  0  0
 39 38  1  0  0  0  0
 41 42  2  0  0  0  0
 42 40  1  0  0  0  0
 43 42  1  0  0  0  0
M  END
>  <MODEL>
9

>  <REMARK>
 VINA RESULT:      -8.2      4.198      7.054
  Name = 
  12 active torsions:
  status: ('A' for Active; 'I' for Inactive)
    1  A    between atoms: C_1  and  N_9
    2  A    between atoms: C_1  and  N_35
    3  A    between atoms: C_2  and  C_6
    4  A    between atoms: C_2  and  C_13
    5  A    between atoms: C_3  and  N_4
    6  A    between atoms: C_3  and  S_12
    7  A    between atoms: C_6  and  S_12
    8  A    between atoms: N_9  and  C_32
    9  A    between atoms: C_11  and  C_14
   10  A    between atoms: C_25  and  C_32
   11  A    between atoms: C_25  and  C_37
   12  A    between atoms: C_34  and  N_35
                            x       y       z     vdW  Elec       q    Type
                         _______ _______ _______ _____ _____    ______ ____

>  <TORSDO>
F 12

$$$$
