=
 OpenBabel10262423093D

 37 38  0  0  1  0  0  0  0  0999 V2000
  185.9240  173.1150  136.1440 C   0  0  0  0  0  2  0  0  0  0  0  0
  180.6810  179.3150  137.3150 O   0  0  0  0  0  0  0  0  0  0  0  0
  184.7630  172.7120  135.2420 C   0  0  2  0  0  3  0  0  0  0  0  0
  183.8920  178.1660  138.6590 C   0  0  0  0  0  2  0  0  0  0  0  0
  181.3760  176.2950  136.3390 C   0  0  0  0  0  2  0  0  0  0  0  0
  183.0270  179.6710  139.1850 S   0  0  0  0  0  0  0  0  0  0  0  0
  187.2900  177.3200  137.2760 C   0  0  2  0  0  3  0  0  0  0  0  0
  181.8310  174.0580  137.3450 C   0  0  0  0  0  0  0  0  0  0  0  0
  182.5110  173.1960  134.5940 O   0  0  0  0  0  1  0  0  0  0  0  0
  187.4870  176.9880  134.8120 C   0  0  0  0  0  1  0  0  0  0  0  0
  185.7610  177.3110  137.3100 C   0  0  0  0  0  2  0  0  0  0  0  0
  181.8300  178.5170  141.2710 N   0  0  0  0  0  2  0  0  0  0  0  0
  183.4750  173.4720  135.5640 C   0  0  1  0  0  3  0  0  0  0  0  0
  180.7580  177.9960  139.2490 N   0  0  0  0  0  2  0  0  0  0  0  0
  181.7430  178.7160  139.9990 C   0  0  0  0  0  0  0  0  0  0  0  0
  187.9250  176.4350  136.1690 C   0  0  2  0  0  0  0  0  0  0  0  0
  184.5580  171.3340  135.3270 O   0  0  0  0  0  1  0  0  0  0  0  0
  182.9350  173.1280  136.9510 C   0  0  0  0  0  2  0  0  0  0  0  0
  179.7460  176.8700  136.9130 S   0  0  0  0  0  0  0  0  0  0  0  0
  187.4850  174.9970  136.3290 C   0  0  0  0  0  3  0  0  0  0  0  0
  185.2380  178.5160  138.0650 C   0  0  0  0  0  2  0  0  0  0  0  0
  182.1050  175.5270  137.4340 C   0  0  0  0  0  2  0  0  0  0  0  0
  180.6540  173.5130  137.9610 S   0  0  0  0  0  0  0  0  0  0  0  0
  180.4580  178.2050  137.8670 C   0  0  0  0  0  0  0  0  0  0  0  0
  186.2960  174.5430  135.9250 C   0  0  0  0  0  3  0  0  0  0  0  0
  188.6400  178.0100  139.3640 C   0  0  0  0  0  0  0  0  0  0  0  0
  187.8640  177.0770  138.6050 N   0  0  0  0  0  2  0  0  0  0  0  0
  188.9750  179.1240  138.8820 O   0  0  0  0  0  0  0  0  0  0  0  0
  189.1610  177.5760  141.0160 S   0  0  0  0  0  1  0  0  0  0  0  0
  190.0170  177.1730  135.1680 O   0  0  0  0  0  1  0  0  0  0  0  0
  189.4750  176.5260  136.2830 C   0  0  2  0  0  3  0  0  0  0  0  0
  192.6140  173.7720  137.6500 O   0  0  0  0  0  1  0  0  0  0  0  0
  190.7950  175.1800  137.8870 O   0  0  0  0  0  0  0  0  0  0  0  0
  192.1060  175.0480  137.3980 C   0  0  1  0  0  0  0  0  0  0  0  0
  193.0320  176.1390  137.9030 C   0  0  0  0  0  1  0  0  0  0  0  0
  190.3050  175.2530  136.5700 C   0  0  2  0  0  3  0  0  0  0  0  0
  191.6860  175.2130  135.9610 C   0  0  0  0  0  2  0  0  0  0  0  0
  2 24  2  0  0  0  0
  3 17  1  1  0  0  0
  3 13  1  0  0  0  0
  3  1  1  0  0  0  0
  4  6  1  0  0  0  0
  5 19  1  0  0  0  0
  5 22  1  0  0  0  0
  6 15  1  0  0  0  0
  7 11  1  0  0  0  0
  7 27  1  1  0  0  0
  8 22  1  0  0  0  0
  8 23  2  0  0  0  0
 11 21  1  0  0  0  0
 13  9  1  6  0  0  0
 13 18  1  0  0  0  0
 14 15  1  0  0  0  0
 15 12  2  0  0  0  0
 16 10  1  6  0  0  0
 16 31  1  0  0  0  0
 16 20  1  0  0  0  0
 16  7  1  0  0  0  0
 18  8  1  0  0  0  0
 19 24  1  0  0  0  0
 21  4  1  0  0  0  0
 24 14  1  0  0  0  0
 25  1  1  0  0  0  0
 25 20  2  0  0  0  0
 26 29  1  0  0  0  0
 27 26  1  0  0  0  0
 28 26  2  0  0  0  0
 31 30  1  6  0  0  0
 34 32  1  0  0  0  0
 34 33  1  0  0  0  0
 34 35  1  1  0  0  0
 36 31  1  1  0  0  0
 36 33  1  0  0  0  0
 37 36  1  0  0  0  0
 37 34  1  0  0  0  0
M  END
>  <MODEL>
1

>  <REMARK>
 VINA RESULT:      -6.1      0.000      0.000
  Name = 
  3 active torsions:
  status: ('A' for Active; 'I' for Inactive)
    1  A    between atoms: C_10  and  N_22
    2  A    between atoms: C_20  and  C_24
    3  A    between atoms: C_24  and  C_30
                            x       y       z     vdW  Elec       q    Type
                         _______ _______ _______ _____ _____    ______ ____

>  <TORSDO>
F 3

$$$$
=
 OpenBabel10262423093D

 37 38  0  0  1  0  0  0  0  0999 V2000
  187.9680  173.6990  136.5940 C   0  0  0  0  0  2  0  0  0  0  0  0
  183.9210  180.3640  139.1400 O   0  0  0  0  0  0  0  0  0  0  0  0
  186.9480  173.8850  135.4770 C   0  0  2  0  0  3  0  0  0  0  0  0
  186.5230  178.1060  140.3940 C   0  0  0  0  0  2  0  0  0  0  0  0
  184.1840  177.7000  137.2990 C   0  0  0  0  0  2  0  0  0  0  0  0
  185.8850  179.5500  141.2880 S   0  0  0  0  0  0  0  0  0  0  0  0
  189.8890  176.8960  139.2240 C   0  0  2  0  0  3  0  0  0  0  0  0
  183.9870  175.2250  137.5440 C   0  0  0  0  0  0  0  0  0  0  0  0
  185.0030  175.0840  134.7640 O   0  0  0  0  0  1  0  0  0  0  0  0
  190.4890  177.2770  136.8330 C   0  0  0  0  0  1  0  0  0  0  0  0
  188.4120  177.2570  139.0700 C   0  0  0  0  0  2  0  0  0  0  0  0
  184.1050  178.1620  142.7080 N   0  0  0  0  0  2  0  0  0  0  0  0
  185.7970  174.8090  135.8800 C   0  0  1  0  0  3  0  0  0  0  0  0
  183.3620  178.5520  140.5150 N   0  0  0  0  0  2  0  0  0  0  0  0
  184.3050  178.7470  141.5750 C   0  0  0  0  0  0  0  0  0  0  0  0
  190.5400  176.2530  137.9680 C   0  0  2  0  0  0  0  0  0  0  0  0
  186.4640  172.6410  135.0710 O   0  0  0  0  0  1  0  0  0  0  0  0
  184.9420  174.2120  136.9960 C   0  0  0  0  0  2  0  0  0  0  0  0
  182.6190  178.4630  137.8340 S   0  0  0  0  0  0  0  0  0  0  0  0
  189.8040  174.9890  137.5840 C   0  0  0  0  0  3  0  0  0  0  0  0
  187.9990  178.2720  140.1170 C   0  0  0  0  0  2  0  0  0  0  0  0
  184.5220  176.4850  138.1520 C   0  0  0  0  0  2  0  0  0  0  0  0
  182.6300  174.8320  137.7960 S   0  0  0  0  0  0  0  0  0  0  0  0
  183.3820  179.2320  139.2570 C   0  0  0  0  0  0  0  0  0  0  0  0
  188.6490  174.9880  136.9120 C   0  0  0  0  0  3  0  0  0  0  0  0
  190.6620  176.6610  141.6750 C   0  0  0  0  0  0  0  0  0  0  0  0
  190.1370  176.1320  140.4530 N   0  0  0  0  0  2  0  0  0  0  0  0
  191.0500  177.8570  141.7540 O   0  0  0  0  0  0  0  0  0  0  0  0
  190.7890  175.6010  143.1060 S   0  0  0  0  0  1  0  0  0  0  0  0
  192.7330  177.0760  138.6280 O   0  0  0  0  0  1  0  0  0  0  0  0
  192.0260  175.9180  138.2910 C   0  0  2  0  0  3  0  0  0  0  0  0
  195.1440  173.4030  136.4860 O   0  0  0  0  0  1  0  0  0  0  0  0
  193.2810  173.8460  137.7810 O   0  0  0  0  0  0  0  0  0  0  0  0
  194.6220  174.1790  137.5230 C   0  0  1  0  0  0  0  0  0  0  0  0
  195.4890  174.1260  138.7660 C   0  0  0  0  0  1  0  0  0  0  0  0
  192.8680  175.0970  137.2870 C   0  0  2  0  0  3  0  0  0  0  0  0
  194.2840  175.5740  137.0650 C   0  0  0  0  0  2  0  0  0  0  0  0
  1 25  1  0  0  0  0
  2 24  2  0  0  0  0
  3 17  1  1  0  0  0
  3 13  1  0  0  0  0
  3  1  1  0  0  0  0
  4  6  1  0  0  0  0
  5 19  1  0  0  0  0
  5 22  1  0  0  0  0
  6 15  1  0  0  0  0
  7 27  1  1  0  0  0
  8 23  2  0  0  0  0
  8 22  1  0  0  0  0
 11  7  1  0  0  0  0
 11 21  1  0  0  0  0
 13  9  1  6  0  0  0
 13 18  1  0  0  0  0
 14 15  1  0  0  0  0
 15 12  2  0  0  0  0
 16 10  1  6  0  0  0
 16 31  1  0  0  0  0
 16  7  1  0  0  0  0
 18  8  1  0  0  0  0
 19 24  1  0  0  0  0
 20 16  1  0  0  0  0
 21  4  1  0  0  0  0
 24 14  1  0  0  0  0
 25 20  2  0  0  0  0
 26 28  2  0  0  0  0
 26 29  1  0  0  0  0
 27 26  1  0  0  0  0
 31 30  1  6  0  0  0
 32 34  1  0  0  0  0
 34 33  1  0  0  0  0
 34 35  1  1  0  0  0
 36 33  1  0  0  0  0
 36 31  1  1  0  0  0
 37 36  1  0  0  0  0
 37 34  1  0  0  0  0
M  END
>  <MODEL>
2

>  <REMARK>
 VINA RESULT:      -5.6      2.385      3.071
  Name = 
  3 active torsions:
  status: ('A' for Active; 'I' for Inactive)
    1  A    between atoms: C_10  and  N_22
    2  A    between atoms: C_20  and  C_24
    3  A    between atoms: C_24  and  C_30
                            x       y       z     vdW  Elec       q    Type
                         _______ _______ _______ _____ _____    ______ ____

>  <TORSDO>
F 3

$$$$
=
 OpenBabel10262423093D

 37 38  0  0  1  0  0  0  0  0999 V2000
  186.5450  173.4890  137.0340 C   0  0  0  0  0  2  0  0  0  0  0  0
  179.0200  176.3280  135.4210 O   0  0  0  0  0  0  0  0  0  0  0  0
  186.0850  172.5350  135.9380 C   0  0  2  0  0  3  0  0  0  0  0  0
  181.7200  176.9600  137.8200 C   0  0  0  0  0  2  0  0  0  0  0  0
  181.2970  174.0140  135.2990 C   0  0  0  0  0  2  0  0  0  0  0  0
  180.1450  177.8580  137.7710 S   0  0  0  0  0  0  0  0  0  0  0  0
  185.3720  177.8550  137.6530 C   0  0  2  0  0  3  0  0  0  0  0  0
  182.3400  172.3280  136.8140 C   0  0  0  0  0  0  0  0  0  0  0  0
  184.2360  171.8220  134.5950 O   0  0  0  0  0  1  0  0  0  0  0  0
  186.5320  177.5800  135.4620 C   0  0  0  0  0  1  0  0  0  0  0  0
  184.1080  177.0940  137.2530 C   0  0  0  0  0  2  0  0  0  0  0  0
  178.9670  176.3360  139.6170 N   0  0  0  0  0  2  0  0  0  0  0  0
  184.5700  172.5710  135.7250 C   0  0  1  0  0  3  0  0  0  0  0  0
  179.0170  175.2850  137.5180 N   0  0  0  0  0  2  0  0  0  0  0  0
  179.2420  176.4230  138.3600 C   0  0  0  0  0  0  0  0  0  0  0  0
  186.6770  177.3620  136.9690 C   0  0  2  0  0  0  0  0  0  0  0  0
  186.5120  171.2390  136.2320 O   0  0  0  0  0  1  0  0  0  0  0  0
  183.8050  172.0520  136.9410 C   0  0  0  0  0  2  0  0  0  0  0  0
  179.4990  173.7280  135.2620 S   0  0  0  0  0  0  0  0  0  0  0  0
  186.9120  175.9010  137.2790 C   0  0  0  0  0  3  0  0  0  0  0  0
  182.8710  177.9080  137.5750 C   0  0  0  0  0  2  0  0  0  0  0  0
  181.8680  173.7430  136.6850 C   0  0  0  0  0  2  0  0  0  0  0  0
  181.4070  171.2940  137.1660 S   0  0  0  0  0  0  0  0  0  0  0  0
  179.1510  175.2720  136.0950 C   0  0  0  0  0  0  0  0  0  0  0  0
  186.2790  174.9060  136.6520 C   0  0  0  0  0  3  0  0  0  0  0  0
  185.0300  179.0670  139.9060 C   0  0  0  0  0  0  0  0  0  0  0  0
  185.4970  177.9720  139.1110 N   0  0  0  0  0  2  0  0  0  0  0  0
  184.5350  180.0950  139.3720 O   0  0  0  0  0  0  0  0  0  0  0  0
  185.1700  178.9820  141.6830 S   0  0  0  0  0  1  0  0  0  0  0  0
  188.3180  179.1010  136.5180 O   0  0  0  0  0  1  0  0  0  0  0  0
  187.8700  178.2100  137.4980 C   0  0  2  0  0  3  0  0  0  0  0  0
  190.6500  176.3650  140.3570 O   0  0  0  0  0  1  0  0  0  0  0  0
  188.7630  176.4800  139.0270 O   0  0  0  0  0  0  0  0  0  0  0  0
  189.5120  177.1080  140.0360 C   0  0  1  0  0  0  0  0  0  0  0  0
  188.6820  177.4380  141.2630 C   0  0  0  0  0  1  0  0  0  0  0  0
  189.0970  177.5100  138.1290 C   0  0  2  0  0  3  0  0  0  0  0  0
  189.8430  178.3000  139.1770 C   0  0  0  0  0  2  0  0  0  0  0  0
  2 24  2  0  0  0  0
  3 17  1  1  0  0  0
  3  1  1  0  0  0  0
  5 22  1  0  0  0  0
  6  4  1  0  0  0  0
  6 15  1  0  0  0  0
  7 27  1  1  0  0  0
  8 18  1  0  0  0  0
  8 23  2  0  0  0  0
 11 21  1  0  0  0  0
 11  7  1  0  0  0  0
 13  9  1  6  0  0  0
 13  3  1  0  0  0  0
 13 18  1  0  0  0  0
 14 15  1  0  0  0  0
 15 12  2  0  0  0  0
 16 10  1  6  0  0  0
 16 20  1  0  0  0  0
 16 31  1  0  0  0  0
 16  7  1  0  0  0  0
 19  5  1  0  0  0  0
 19 24  1  0  0  0  0
 21  4  1  0  0  0  0
 22  8  1  0  0  0  0
 24 14  1  0  0  0  0
 25  1  1  0  0  0  0
 25 20  2  0  0  0  0
 26 29  1  0  0  0  0
 27 26  1  0  0  0  0
 28 26  2  0  0  0  0
 31 30  1  6  0  0  0
 33 34  1  0  0  0  0
 34 32  1  0  0  0  0
 34 35  1  1  0  0  0
 36 31  1  1  0  0  0
 36 33  1  0  0  0  0
 36 37  1  0  0  0  0
 37 34  1  0  0  0  0
M  END
>  <MODEL>
3

>  <REMARK>
 VINA RESULT:      -5.4      2.445      3.055
  Name = 
  3 active torsions:
  status: ('A' for Active; 'I' for Inactive)
    1  A    between atoms: C_10  and  N_22
    2  A    between atoms: C_20  and  C_24
    3  A    between atoms: C_24  and  C_30
                            x       y       z     vdW  Elec       q    Type
                         _______ _______ _______ _____ _____    ______ ____

>  <TORSDO>
F 3

$$$$
=
 OpenBabel10262423093D

 37 38  0  0  1  0  0  0  0  0999 V2000
  185.0550  177.8740  142.8140 C   0  0  0  0  0  2  0  0  0  0  0  0
  191.1300  177.2740  137.3350 O   0  0  0  0  0  0  0  0  0  0  0  0
  186.1960  178.5720  143.5430 C   0  0  2  0  0  3  0  0  0  0  0  0
  187.6880  176.0790  137.7350 C   0  0  0  0  0  2  0  0  0  0  0  0
  190.0290  177.7780  140.3510 C   0  0  0  0  0  2  0  0  0  0  0  0
  188.7440  175.7360  136.3010 S   0  0  0  0  0  0  0  0  0  0  0  0
  184.3060  177.6260  138.3190 C   0  0  2  0  0  3  0  0  0  0  0  0
  189.1490  176.4510  142.2710 C   0  0  0  0  0  0  0  0  0  0  0  0
  188.5380  179.0670  143.5210 O   0  0  0  0  0  1  0  0  0  0  0  0
  184.2360  180.0040  139.0720 C   0  0  0  0  0  1  0  0  0  0  0  0
  185.8070  177.4390  138.5450 C   0  0  0  0  0  2  0  0  0  0  0  0
  189.5860  173.3740  137.2080 N   0  0  0  0  0  2  0  0  0  0  0  0
  187.5640  178.2590  142.9320 C   0  0  1  0  0  3  0  0  0  0  0  0
  190.7030  175.1580  138.2460 N   0  0  0  0  0  2  0  0  0  0  0  0
  189.7960  174.6460  137.2640 C   0  0  0  0  0  0  0  0  0  0  0  0
  183.6180  178.6220  139.2930 C   0  0  2  0  0  0  0  0  0  0  0  0
  186.1700  178.2300  144.8960 O   0  0  0  0  0  1  0  0  0  0  0  0
  187.9400  176.7870  143.0870 C   0  0  0  0  0  2  0  0  0  0  0  0
  191.6850  177.1520  139.9220 S   0  0  0  0  0  0  0  0  0  0  0  0
  183.8070  178.1730  140.7250 C   0  0  0  0  0  3  0  0  0  0  0  0
  186.4620  176.8550  137.3100 C   0  0  0  0  0  2  0  0  0  0  0  0
  189.1100  176.6450  140.7870 C   0  0  0  0  0  2  0  0  0  0  0  0
  190.1760  175.6360  142.8570 S   0  0  0  0  0  0  0  0  0  0  0  0
  191.1310  176.5190  138.3440 C   0  0  0  0  0  0  0  0  0  0  0  0
  184.9340  178.3720  141.4130 C   0  0  0  0  0  3  0  0  0  0  0  0
  183.0640  175.7680  137.0300 C   0  0  0  0  0  0  0  0  0  0  0  0
  183.6070  176.3400  138.2250 N   0  0  0  0  0  2  0  0  0  0  0  0
  183.0720  176.4030  135.9420 O   0  0  0  0  0  0  0  0  0  0  0  0
  182.3440  174.1350  137.0880 S   0  0  0  0  0  1  0  0  0  0  0  0
  181.7410  179.9530  138.5020 O   0  0  0  0  0  1  0  0  0  0  0  0
  182.0990  178.6800  138.9580 C   0  0  2  0  0  3  0  0  0  0  0  0
  178.9320  176.4570  141.0390 O   0  0  0  0  0  1  0  0  0  0  0  0
  181.0680  176.8300  140.2390 O   0  0  0  0  0  0  0  0  0  0  0  0
  179.7030  176.7570  139.9140 C   0  0  1  0  0  0  0  0  0  0  0  0
  179.4240  175.8110  138.7620 C   0  0  0  0  0  1  0  0  0  0  0  0
  181.0580  178.2170  140.0030 C   0  0  2  0  0  3  0  0  0  0  0  0
  179.6180  178.2160  139.5480 C   0  0  0  0  0  2  0  0  0  0  0  0
  1  3  1  0  0  0  0
  2 24  2  0  0  0  0
  3 17  1  1  0  0  0
  5 22  1  0  0  0  0
  6 15  1  0  0  0  0
  6  4  1  0  0  0  0
  7 27  1  1  0  0  0
  7 11  1  0  0  0  0
  7 16  1  0  0  0  0
  8 23  2  0  0  0  0
  8 18  1  0  0  0  0
 12 15  2  0  0  0  0
 13 18  1  0  0  0  0
 13  9  1  1  0  0  0
 13  3  1  0  0  0  0
 14 24  1  0  0  0  0
 15 14  1  0  0  0  0
 16 10  1  6  0  0  0
 16 20  1  0  0  0  0
 19  5  1  0  0  0  0
 20 25  2  0  0  0  0
 21  4  1  0  0  0  0
 21 11  1  0  0  0  0
 22  8  1  0  0  0  0
 24 19  1  0  0  0  0
 25  1  1  0  0  0  0
 26 29  1  0  0  0  0
 26 27  1  0  0  0  0
 28 26  2  0  0  0  0
 31 30  1  1  0  0  0
 31 16  1  0  0  0  0
 34 35  1  6  0  0  0
 34 33  1  0  0  0  0
 34 32  1  0  0  0  0
 36 31  1  6  0  0  0
 36 33  1  0  0  0  0
 37 34  1  0  0  0  0
 37 36  1  0  0  0  0
M  END
>  <MODEL>
4

>  <REMARK>
 VINA RESULT:      -5.3      3.091      9.297
  Name = 
  3 active torsions:
  status: ('A' for Active; 'I' for Inactive)
    1  A    between atoms: C_10  and  N_22
    2  A    between atoms: C_20  and  C_24
    3  A    between atoms: C_24  and  C_30
                            x       y       z     vdW  Elec       q    Type
                         _______ _______ _______ _____ _____    ______ ____

>  <TORSDO>
F 3

$$$$
=
 OpenBabel10262423093D

 37 38  0  0  1  0  0  0  0  0999 V2000
  186.1130  173.9870  136.7970 C   0  0  0  0  0  2  0  0  0  0  0  0
  179.5430  178.8520  137.4780 O   0  0  0  0  0  0  0  0  0  0  0  0
  185.2480  173.5010  135.6400 C   0  0  2  0  0  3  0  0  0  0  0  0
  182.6280  178.1570  139.3320 C   0  0  0  0  0  2  0  0  0  0  0  0
  181.0320  176.1860  136.3690 C   0  0  0  0  0  2  0  0  0  0  0  0
  181.3810  179.3810  139.8170 S   0  0  0  0  0  0  0  0  0  0  0  0
  186.3210  178.1740  138.6010 C   0  0  2  0  0  3  0  0  0  0  0  0
  181.7650  173.9570  137.2180 C   0  0  0  0  0  0  0  0  0  0  0  0
  183.1000  173.6340  134.5940 O   0  0  0  0  0  1  0  0  0  0  0  0
  187.0270  178.2340  136.2090 C   0  0  0  0  0  1  0  0  0  0  0  0
  184.8490  177.8700  138.3180 C   0  0  0  0  0  2  0  0  0  0  0  0
  180.1010  177.7410  141.4860 N   0  0  0  0  0  2  0  0  0  0  0  0
  183.7910  173.9500  135.7650 C   0  0  1  0  0  3  0  0  0  0  0  0
  179.5490  177.3140  139.2450 N   0  0  0  0  0  2  0  0  0  0  0  0
  180.2040  178.0960  140.2500 C   0  0  0  0  0  0  0  0  0  0  0  0
  187.3200  177.5890  137.5650 C   0  0  2  0  0  0  0  0  0  0  0  0
  185.3300  172.1110  135.5430 O   0  0  0  0  0  1  0  0  0  0  0  0
  183.0950  173.3190  136.9690 C   0  0  0  0  0  2  0  0  0  0  0  0
  179.2410  176.3550  136.6510 S   0  0  0  0  0  0  0  0  0  0  0  0
  187.1760  176.0860  137.4870 C   0  0  0  0  0  3  0  0  0  0  0  0
  183.9530  178.8360  139.0660 C   0  0  0  0  0  2  0  0  0  0  0  0
  181.6980  175.4250  137.5090 C   0  0  0  0  0  2  0  0  0  0  0  0
  180.6400  173.1180  137.5220 S   0  0  0  0  0  0  0  0  0  0  0  0
  179.4670  177.6540  137.8590 C   0  0  0  0  0  0  0  0  0  0  0  0
  186.2040  175.4760  136.8040 C   0  0  0  0  0  3  0  0  0  0  0  0
  186.3770  178.6620  141.1350 C   0  0  0  0  0  0  0  0  0  0  0  0
  186.6830  177.8610  139.9880 N   0  0  0  0  0  2  0  0  0  0  0  0
  185.8280  179.7890  141.0140 O   0  0  0  0  0  0  0  0  0  0  0  0
  186.8020  178.0630  142.7620 S   0  0  0  0  0  1  0  0  0  0  0  0
  188.8610  179.3160  138.3170 O   0  0  0  0  0  1  0  0  0  0  0  0
  188.7680  177.9560  138.0050 C   0  0  2  0  0  3  0  0  0  0  0  0
  191.7870  175.6720  135.7750 O   0  0  0  0  0  1  0  0  0  0  0  0
  189.6860  176.5400  136.1940 O   0  0  0  0  0  0  0  0  0  0  0  0
  190.7520  175.7820  136.7060 C   0  0  1  0  0  0  0  0  0  0  0  0
  190.3110  174.4280  137.2300 C   0  0  0  0  0  1  0  0  0  0  0  0
  189.9690  177.5700  137.1100 C   0  0  2  0  0  3  0  0  0  0  0  0
  191.0700  176.7860  137.7830 C   0  0  0  0  0  2  0  0  0  0  0  0
  1 25  1  0  0  0  0
  2 24  2  0  0  0  0
  3 17  1  1  0  0  0
  3 13  1  0  0  0  0
  3  1  1  0  0  0  0
  4  6  1  0  0  0  0
  5 19  1  0  0  0  0
  5 22  1  0  0  0  0
  6 15  1  0  0  0  0
  7 27  1  1  0  0  0
  8 22  1  0  0  0  0
  8 23  2  0  0  0  0
 11  7  1  0  0  0  0
 11 21  1  0  0  0  0
 13  9  1  6  0  0  0
 13 18  1  0  0  0  0
 14 15  1  0  0  0  0
 15 12  2  0  0  0  0
 16 10  1  6  0  0  0
 16 31  1  0  0  0  0
 16  7  1  0  0  0  0
 18  8  1  0  0  0  0
 19 24  1  0  0  0  0
 20 16  1  0  0  0  0
 21  4  1  0  0  0  0
 24 14  1  0  0  0  0
 25 20  2  0  0  0  0
 26 29  1  0  0  0  0
 27 26  1  0  0  0  0
 28 26  2  0  0  0  0
 31 30  1  6  0  0  0
 32 34  1  0  0  0  0
 33 34  1  0  0  0  0
 33 36  1  0  0  0  0
 34 35  1  1  0  0  0
 34 37  1  0  0  0  0
 36 37  1  0  0  0  0
 36 31  1  1  0  0  0
M  END
>  <MODEL>
5

>  <REMARK>
 VINA RESULT:      -4.9      1.501      1.940
  Name = 
  3 active torsions:
  status: ('A' for Active; 'I' for Inactive)
    1  A    between atoms: C_10  and  N_22
    2  A    between atoms: C_20  and  C_24
    3  A    between atoms: C_24  and  C_30
                            x       y       z     vdW  Elec       q    Type
                         _______ _______ _______ _____ _____    ______ ____

>  <TORSDO>
F 3

$$$$
=
 OpenBabel10262423093D

 37 38  0  0  1  0  0  0  0  0999 V2000
  184.5770  178.2540  142.4370 C   0  0  0  0  0  2  0  0  0  0  0  0
  189.7500  177.5630  136.1080 O   0  0  0  0  0  0  0  0  0  0  0  0
  185.7580  179.0930  142.9110 C   0  0  2  0  0  3  0  0  0  0  0  0
  186.5220  176.1790  137.1580 C   0  0  0  0  0  2  0  0  0  0  0  0
  189.0970  178.2680  139.2120 C   0  0  0  0  0  2  0  0  0  0  0  0
  187.3660  175.7770  135.6030 S   0  0  0  0  0  0  0  0  0  0  0  0
  183.1580  177.5400  138.1580 C   0  0  2  0  0  3  0  0  0  0  0  0
  188.6390  177.0690  141.3500 C   0  0  0  0  0  0  0  0  0  0  0  0
  188.0190  179.7410  142.4690 O   0  0  0  0  0  1  0  0  0  0  0  0
  183.0120  179.9670  138.7180 C   0  0  0  0  0  1  0  0  0  0  0  0
  184.6860  177.4770  138.1510 C   0  0  0  0  0  2  0  0  0  0  0  0
  188.5300  173.5720  136.5480 N   0  0  0  0  0  2  0  0  0  0  0  0
  187.0340  178.8180  142.1120 C   0  0  1  0  0  3  0  0  0  0  0  0
  189.6450  175.5170  137.2440 N   0  0  0  0  0  2  0  0  0  0  0  0
  188.6410  174.8540  136.4660 C   0  0  0  0  0  0  0  0  0  0  0  0
  182.5510  178.5730  139.1480 C   0  0  2  0  0  0  0  0  0  0  0  0
  185.9720  178.8770  144.2740 O   0  0  0  0  0  1  0  0  0  0  0  0
  187.5490  177.3960  142.3220 C   0  0  0  0  0  2  0  0  0  0  0  0
  190.7110  177.7190  138.5710 S   0  0  0  0  0  0  0  0  0  0  0  0
  182.9990  178.2730  140.5610 C   0  0  0  0  0  3  0  0  0  0  0  0
  185.1860  176.8270  136.8770 C   0  0  0  0  0  2  0  0  0  0  0  0
  188.3520  177.1210  139.8820 C   0  0  0  0  0  2  0  0  0  0  0  0
  189.8080  176.3830  141.8250 S   0  0  0  0  0  0  0  0  0  0  0  0
  189.9700  176.9060  137.1600 C   0  0  0  0  0  0  0  0  0  0  0  0
  184.1990  178.6110  141.0390 C   0  0  0  0  0  3  0  0  0  0  0  0
  181.9470  175.4610  137.2250 C   0  0  0  0  0  0  0  0  0  0  0  0
  182.5600  176.2060  138.2830 N   0  0  0  0  0  2  0  0  0  0  0  0
  181.7920  175.9630  136.0810 O   0  0  0  0  0  0  0  0  0  0  0  0
  181.3730  173.8010  137.5410 S   0  0  0  0  0  1  0  0  0  0  0  0
  180.5710  178.5990  137.7340 O   0  0  0  0  0  1  0  0  0  0  0  0
  180.9990  178.4970  139.0610 C   0  0  2  0  0  3  0  0  0  0  0  0
  178.9320  180.3470  142.4680 O   0  0  0  0  0  1  0  0  0  0  0  0
  180.7470  179.8220  141.1370 O   0  0  0  0  0  0  0  0  0  0  0  0
  179.6600  179.3170  141.8690 C   0  0  1  0  0  0  0  0  0  0  0  0
  180.0710  178.2530  142.8700 C   0  0  0  0  0  1  0  0  0  0  0  0
  180.1290  179.4300  139.9350 C   0  0  2  0  0  3  0  0  0  0  0  0
  178.9670  178.7770  140.6450 C   0  0  0  0  0  2  0  0  0  0  0  0
  1  3  1  0  0  0  0
  2 24  2  0  0  0  0
  3 17  1  1  0  0  0
  5 22  1  0  0  0  0
  6 15  1  0  0  0  0
  6  4  1  0  0  0  0
  7 27  1  1  0  0  0
  7 16  1  0  0  0  0
  8 23  2  0  0  0  0
  8 18  1  0  0  0  0
 11  7  1  0  0  0  0
 13 18  1  0  0  0  0
 13  9  1  1  0  0  0
 13  3  1  0  0  0  0
 15 12  2  0  0  0  0
 15 14  1  0  0  0  0
 16 10  1  6  0  0  0
 16 20  1  0  0  0  0
 19  5  1  0  0  0  0
 20 25  2  0  0  0  0
 21  4  1  0  0  0  0
 21 11  1  0  0  0  0
 22  8  1  0  0  0  0
 24 14  1  0  0  0  0
 24 19  1  0  0  0  0
 25  1  1  0  0  0  0
 26 29  1  0  0  0  0
 26 27  1  0  0  0  0
 28 26  2  0  0  0  0
 31 30  1  6  0  0  0
 31 16  1  0  0  0  0
 33 34  1  0  0  0  0
 34 32  1  0  0  0  0
 34 35  1  1  0  0  0
 36 31  1  1  0  0  0
 36 37  1  0  0  0  0
 36 33  1  0  0  0  0
 37 34  1  0  0  0  0
M  END
>  <MODEL>
6

>  <REMARK>
 VINA RESULT:      -4.0      2.877      9.367
  Name = 
  3 active torsions:
  status: ('A' for Active; 'I' for Inactive)
    1  A    between atoms: C_10  and  N_22
    2  A    between atoms: C_20  and  C_24
    3  A    between atoms: C_24  and  C_30
                            x       y       z     vdW  Elec       q    Type
                         _______ _______ _______ _____ _____    ______ ____

>  <TORSDO>
F 3

$$$$
=
 OpenBabel10262423093D

 37 38  0  0  1  0  0  0  0  0999 V2000
  187.2530  173.7810  137.4690 C   0  0  0  0  0  2  0  0  0  0  0  0
  180.7080  178.5440  136.1350 O   0  0  0  0  0  0  0  0  0  0  0  0
  186.7070  173.1980  136.1710 C   0  0  2  0  0  3  0  0  0  0  0  0
  183.2330  178.0440  138.7450 C   0  0  0  0  0  2  0  0  0  0  0  0
  182.4350  175.8380  135.6280 C   0  0  0  0  0  2  0  0  0  0  0  0
  181.9000  179.2720  138.8140 S   0  0  0  0  0  0  0  0  0  0  0  0
  186.9900  178.0860  138.9600 C   0  0  2  0  0  3  0  0  0  0  0  0
  182.9380  173.6900  136.7920 C   0  0  0  0  0  0  0  0  0  0  0  0
  184.8890  173.2130  134.6140 O   0  0  0  0  0  1  0  0  0  0  0  0
  188.2730  177.9950  136.8220 C   0  0  0  0  0  1  0  0  0  0  0  0
  185.6380  177.7330  138.3410 C   0  0  0  0  0  2  0  0  0  0  0  0
  180.2480  177.7250  140.2250 N   0  0  0  0  0  2  0  0  0  0  0  0
  185.2630  173.6240  135.8950 C   0  0  1  0  0  3  0  0  0  0  0  0
  180.2760  177.1320  137.9540 N   0  0  0  0  0  2  0  0  0  0  0  0
  180.6560  177.9950  139.0310 C   0  0  0  0  0  0  0  0  0  0  0  0
  188.2190  177.4520  138.2510 C   0  0  2  0  0  0  0  0  0  0  0  0
  186.8150  171.8070  136.1980 O   0  0  0  0  0  1  0  0  0  0  0  0
  184.2900  173.0640  136.9300 C   0  0  0  0  0  2  0  0  0  0  0  0
  180.6290  175.9890  135.4410 S   0  0  0  0  0  0  0  0  0  0  0  0
  188.1040  175.9440  138.2480 C   0  0  0  0  0  3  0  0  0  0  0  0
  184.5790  178.7290  138.7700 C   0  0  0  0  0  2  0  0  0  0  0  0
  182.7960  175.1720  136.9500 C   0  0  0  0  0  2  0  0  0  0  0  0
  181.7750  172.8510  136.8650 S   0  0  0  0  0  0  0  0  0  0  0  0
  180.5420  177.3730  136.5700 C   0  0  0  0  0  0  0  0  0  0  0  0
  187.3360  175.2690  137.3900 C   0  0  0  0  0  3  0  0  0  0  0  0
  186.3230  178.6940  141.3770 C   0  0  0  0  0  0  0  0  0  0  0  0
  186.9950  177.8780  140.4120 N   0  0  0  0  0  2  0  0  0  0  0  0
  185.7270  179.7500  141.0350 O   0  0  0  0  0  0  0  0  0  0  0  0
  186.3480  178.2190  143.0980 S   0  0  0  0  0  1  0  0  0  0  0  0
  190.4990  178.2920  138.1120 O   0  0  0  0  0  1  0  0  0  0  0  0
  189.5100  177.8790  139.0100 C   0  0  2  0  0  3  0  0  0  0  0  0
  190.9850  176.1190  142.7550 O   0  0  0  0  0  1  0  0  0  0  0  0
  189.3850  176.7670  141.2180 O   0  0  0  0  0  0  0  0  0  0  0  0
  190.4820  177.1760  141.9950 C   0  0  1  0  0  0  0  0  0  0  0  0
  190.1760  178.3940  142.8470 C   0  0  0  0  0  1  0  0  0  0  0  0
  190.1480  176.9250  140.0460 C   0  0  2  0  0  3  0  0  0  0  0  0
  191.3440  177.4650  140.7940 C   0  0  0  0  0  2  0  0  0  0  0  0
  2 24  2  0  0  0  0
  3 17  1  1  0  0  0
  3  1  1  0  0  0  0
  4 21  1  0  0  0  0
  4  6  1  0  0  0  0
  5 22  1  0  0  0  0
  6 15  1  0  0  0  0
  7 27  1  1  0  0  0
  8 23  2  0  0  0  0
  8 18  1  0  0  0  0
  8 22  1  0  0  0  0
 11 21  1  0  0  0  0
 11  7  1  0  0  0  0
 13  9  1  6  0  0  0
 13  3  1  0  0  0  0
 13 18  1  0  0  0  0
 14 15  1  0  0  0  0
 15 12  2  0  0  0  0
 16 10  1  6  0  0  0
 16  7  1  0  0  0  0
 16 31  1  0  0  0  0
 19  5  1  0  0  0  0
 19 24  1  0  0  0  0
 20 16  1  0  0  0  0
 24 14  1  0  0  0  0
 25  1  1  0  0  0  0
 25 20  2  0  0  0  0
 26 29  1  0  0  0  0
 27 26  1  0  0  0  0
 28 26  2  0  0  0  0
 31 30  1  6  0  0  0
 33 34  1  0  0  0  0
 34 32  1  0  0  0  0
 34 35  1  1  0  0  0
 36 31  1  6  0  0  0
 36 37  1  0  0  0  0
 36 33  1  0  0  0  0
 37 34  1  0  0  0  0
M  END
>  <MODEL>
7

>  <REMARK>
 VINA RESULT:      -3.8      2.200      2.846
  Name = 
  3 active torsions:
  status: ('A' for Active; 'I' for Inactive)
    1  A    between atoms: C_10  and  N_22
    2  A    between atoms: C_20  and  C_24
    3  A    between atoms: C_24  and  C_30
                            x       y       z     vdW  Elec       q    Type
                         _______ _______ _______ _____ _____    ______ ____

>  <TORSDO>
F 3

$$$$
