=
 OpenBabel10262420013D

 27 31  0  0  1  0  0  0  0  0999 V2000
  188.5820  176.6100  143.4430 C   0  0  0  0  0  2  0  0  0  0  0  0
  186.5250  177.9940  143.5550 C   0  0  0  0  0  0  0  0  0  0  0  0
  187.4080  178.6890  141.3940 N   0  0  0  0  0  2  0  0  0  0  0  0
  182.7180  178.3940  142.0960 O   0  0  0  0  0  0  0  0  0  0  0  0
  182.2390  177.5060  139.9150 C   0  0  0  0  0  1  0  0  0  0  0  0
  185.5090  177.9530  144.3780 N   0  0  0  0  0  0  0  0  0  0  0  0
  184.3790  178.6950  140.4430 C   0  0  1  0  0  3  0  0  0  0  0  0
  189.0100  177.4500  138.2860 C   0  0  0  0  0  3  0  0  0  0  0  0
  184.7070  179.8530  139.5210 C   0  0  0  0  0  1  0  0  0  0  0  0
  190.0710  176.6960  138.7880 C   0  0  0  0  0  3  0  0  0  0  0  0
  185.0180  178.9180  141.8100 C   0  0  1  0  0  3  0  0  0  0  0  0
  187.9380  177.8440  144.0530 C   0  0  1  0  0  3  0  0  0  0  0  0
  182.8610  178.6410  140.7050 C   0  0  2  0  0  3  0  0  0  0  0  0
  183.9450  178.4650  142.7110 C   0  0  0  0  0  0  0  0  0  0  0  0
  189.5880  176.9870  142.4620 N   0  0  0  0  0  2  0  0  0  0  0  0
  186.2700  178.0790  142.0620 C   0  0  2  0  0  3  0  0  0  0  0  0
  188.1220  178.0740  139.1630 C   0  0  0  0  0  3  0  0  0  0  0  0
  184.1790  178.0610  143.9200 N   0  0  0  0  0  0  0  0  0  0  0  0
  190.2370  176.5590  140.1670 C   0  0  0  0  0  3  0  0  0  0  0  0
  189.3390  177.1550  141.0610 C   0  0  0  0  0  0  0  0  0  0  0  0
  188.2700  177.9320  140.5480 C   0  0  0  0  0  0  0  0  0  0  0  0
  188.3920  177.9080  148.3330 C   0  0  0  0  0  3  0  0  0  0  0  0
  188.0730  177.8610  145.5490 C   0  0  0  0  0  0  0  0  0  0  0  0
  189.2700  177.4250  146.1290 C   0  0  0  0  0  3  0  0  0  0  0  0
  189.4290  177.4470  147.5180 C   0  0  0  0  0  3  0  0  0  0  0  0
  187.1960  178.3510  147.7600 C   0  0  0  0  0  3  0  0  0  0  0  0
  187.0360  178.3290  146.3720 C   0  0  0  0  0  3  0  0  0  0  0  0
  1 12  1  0  0  0  0
  2 12  1  0  0  0  0
  2  6  2  0  0  0  0
  4 14  1  0  0  0  0
  7  9  1  6  0  0  0
  7 13  1  0  0  0  0
  7 11  1  0  0  0  0
  8 10  2  0  0  0  0
  8 17  1  0  0  0  0
 10 19  1  0  0  0  0
 11 16  1  0  0  0  0
 11 14  1  1  0  0  0
 12 23  1  1  0  0  0
 13  5  1  6  0  0  0
 13  4  1  0  0  0  0
 14 18  2  0  0  0  0
 15  1  1  0  0  0  0
 16  3  1  6  0  0  0
 16  2  1  0  0  0  0
 17 21  2  0  0  0  0
 18  6  1  0  0  0  0
 19 20  2  0  0  0  0
 20 15  1  0  0  0  0
 21 20  1  0  0  0  0
 21  3  1  0  0  0  0
 23 24  2  0  0  0  0
 23 27  1  0  0  0  0
 24 25  1  0  0  0  0
 25 22  2  0  0  0  0
 26 22  1  0  0  0  0
 27 26  2  0  0  0  0
M  END
>  <MODEL>
1

>  <REMARK>
 VINA RESULT:      -9.5      0.000      0.000
  Name = 
  1 active torsions:
  status: ('A' for Active; 'I' for Inactive)
    1  A    between atoms: C_9  and  C_15
                            x       y       z     vdW  Elec       q    Type
                         _______ _______ _______ _____ _____    ______ ____

>  <TORSDO>
F 1

$$$$
=
 OpenBabel10262420013D

 27 31  0  0  1  0  0  0  0  0999 V2000
  186.4500  178.9210  142.1920 C   0  0  0  0  0  2  0  0  0  0  0  0
  186.0080  178.2400  144.5370 C   0  0  0  0  0  0  0  0  0  0  0  0
  187.9140  176.8140  144.0150 N   0  0  0  0  0  2  0  0  0  0  0  0
  187.3500  178.5730  148.3930 O   0  0  0  0  0  0  0  0  0  0  0  0
  189.6890  178.9940  148.7480 C   0  0  0  0  0  1  0  0  0  0  0  0
  185.2320  178.7640  145.4490 N   0  0  0  0  0  0  0  0  0  0  0  0
  188.8590  177.4220  146.9850 C   0  0  1  0  0  3  0  0  0  0  0  0
  191.2210  176.7510  142.3350 C   0  0  0  0  0  3  0  0  0  0  0  0
  189.4530  176.0290  147.0440 C   0  0  0  0  0  1  0  0  0  0  0  0
  190.9180  177.2770  141.0800 C   0  0  0  0  0  3  0  0  0  0  0  0
  187.4750  177.3740  146.3450 C   0  0  1  0  0  3  0  0  0  0  0  0
  185.5520  178.1060  143.1090 C   0  0  1  0  0  3  0  0  0  0  0  0
  188.6320  177.9620  148.4100 C   0  0  2  0  0  3  0  0  0  0  0  0
  186.7270  178.3160  147.1950 C   0  0  0  0  0  0  0  0  0  0  0  0
  187.2950  178.0480  141.3900 N   0  0  0  0  0  2  0  0  0  0  0  0
  187.4330  177.8640  144.8990 C   0  0  2  0  0  3  0  0  0  0  0  0
  190.2220  176.6360  143.3030 C   0  0  0  0  0  3  0  0  0  0  0  0
  185.6580  178.9230  146.7840 N   0  0  0  0  0  0  0  0  0  0  0  0
  189.6180  177.6970  140.7960 C   0  0  0  0  0  3  0  0  0  0  0  0
  188.6100  177.6160  141.7640 C   0  0  0  0  0  0  0  0  0  0  0  0
  188.9170  177.0680  143.0340 C   0  0  0  0  0  0  0  0  0  0  0  0
  181.3890  178.9620  142.4280 C   0  0  0  0  0  3  0  0  0  0  0  0
  184.1000  178.4210  142.8890 C   0  0  0  0  0  0  0  0  0  0  0  0
  183.5840  178.3750  141.5890 C   0  0  0  0  0  3  0  0  0  0  0  0
  182.2320  178.6470  141.3590 C   0  0  0  0  0  3  0  0  0  0  0  0
  181.8980  179.0040  143.7300 C   0  0  0  0  0  3  0  0  0  0  0  0
  183.2490  178.7330  143.9620 C   0  0  0  0  0  3  0  0  0  0  0  0
  1 12  1  0  0  0  0
  2 16  1  0  0  0  0
  2  6  2  0  0  0  0
  4 13  1  0  0  0  0
  6 18  1  0  0  0  0
  7  9  1  1  0  0  0
  7 13  1  0  0  0  0
  8 17  1  0  0  0  0
 10  8  2  0  0  0  0
 11  7  1  0  0  0  0
 11 14  1  1  0  0  0
 12 23  1  1  0  0  0
 12  2  1  0  0  0  0
 13  5  1  6  0  0  0
 14  4  1  0  0  0  0
 15 20  1  0  0  0  0
 15  1  1  0  0  0  0
 16  3  1  6  0  0  0
 16 11  1  0  0  0  0
 18 14  2  0  0  0  0
 19 10  1  0  0  0  0
 19 20  2  0  0  0  0
 20 21  1  0  0  0  0
 21 17  2  0  0  0  0
 21  3  1  0  0  0  0
 22 26  1  0  0  0  0
 23 27  1  0  0  0  0
 24 23  2  0  0  0  0
 25 24  1  0  0  0  0
 25 22  2  0  0  0  0
 26 27  2  0  0  0  0
M  END
>  <MODEL>
2

>  <REMARK>
 VINA RESULT:      -9.2      2.081      5.918
  Name = 
  1 active torsions:
  status: ('A' for Active; 'I' for Inactive)
    1  A    between atoms: C_9  and  C_15
                            x       y       z     vdW  Elec       q    Type
                         _______ _______ _______ _____ _____    ______ ____

>  <TORSDO>
F 1

$$$$
=
 OpenBabel10262420013D

 27 31  0  0  1  0  0  0  0  0999 V2000
  191.1620  177.5840  142.2900 C   0  0  0  0  0  2  0  0  0  0  0  0
  188.7730  177.6130  141.6190 C   0  0  0  0  0  0  0  0  0  0  0  0
  188.5920  176.6570  143.8530 N   0  0  0  0  0  2  0  0  0  0  0  0
  185.1970  179.5300  142.1820 O   0  0  0  0  0  0  0  0  0  0  0  0
  184.8260  180.6490  144.2760 C   0  0  0  0  0  1  0  0  0  0  0  0
  188.1760  178.1800  140.6030 N   0  0  0  0  0  0  0  0  0  0  0  0
  185.9710  178.4270  144.1230 C   0  0  1  0  0  3  0  0  0  0  0  0
  189.8620  176.9300  147.3270 C   0  0  0  0  0  3  0  0  0  0  0  0
  185.3690  177.3410  144.9920 C   0  0  0  0  0  1  0  0  0  0  0  0
  191.2430  176.9180  147.1320 C   0  0  0  0  0  3  0  0  0  0  0  0
  186.6610  177.8070  142.9130 C   0  0  1  0  0  3  0  0  0  0  0  0
  190.0910  176.9050  141.4520 C   0  0  1  0  0  3  0  0  0  0  0  0
  184.8570  179.3210  143.5450 C   0  0  2  0  0  3  0  0  0  0  0  0
  186.2690  178.7400  141.8430 C   0  0  0  0  0  0  0  0  0  0  0  0
  191.5260  176.7550  143.4300 N   0  0  0  0  0  2  0  0  0  0  0  0
  188.1860  177.7690  143.0090 C   0  0  2  0  0  3  0  0  0  0  0  0
  189.0030  176.8760  146.2290 C   0  0  0  0  0  3  0  0  0  0  0  0
  186.9560  178.8730  140.7520 N   0  0  0  0  0  0  0  0  0  0  0  0
  191.7640  176.8610  145.8390 C   0  0  0  0  0  3  0  0  0  0  0  0
  190.9160  176.8350  144.7250 C   0  0  0  0  0  0  0  0  0  0  0  0
  189.5140  176.8340  144.9260 C   0  0  0  0  0  0  0  0  0  0  0  0
  191.3990  176.3890  137.3840 C   0  0  0  0  0  3  0  0  0  0  0  0
  190.5260  176.7320  140.0250 C   0  0  0  0  0  0  0  0  0  0  0  0
  191.8650  176.9670  139.6890 C   0  0  0  0  0  3  0  0  0  0  0  0
  192.3000  176.7980  138.3720 C   0  0  0  0  0  3  0  0  0  0  0  0
  190.0630  176.1480  137.7140 C   0  0  0  0  0  3  0  0  0  0  0  0
  189.6260  176.3170  139.0310 C   0  0  0  0  0  3  0  0  0  0  0  0
  1 15  1  0  0  0  0
  3 21  1  0  0  0  0
  4 13  1  0  0  0  0
  6 18  1  0  0  0  0
  6  2  2  0  0  0  0
  7  9  1  1  0  0  0
 10  8  1  0  0  0  0
 11 14  1  6  0  0  0
 11 16  1  0  0  0  0
 11  7  1  0  0  0  0
 12 23  1  6  0  0  0
 12  2  1  0  0  0  0
 12  1  1  0  0  0  0
 13  7  1  0  0  0  0
 13  5  1  1  0  0  0
 14  4  1  0  0  0  0
 15 20  1  0  0  0  0
 16  2  1  6  0  0  0
 16  3  1  0  0  0  0
 17  8  2  0  0  0  0
 18 14  2  0  0  0  0
 19 10  2  0  0  0  0
 20 21  2  0  0  0  0
 20 19  1  0  0  0  0
 21 17  1  0  0  0  0
 22 26  2  0  0  0  0
 22 25  1  0  0  0  0
 24 23  1  0  0  0  0
 25 24  2  0  0  0  0
 26 27  1  0  0  0  0
 27 23  2  0  0  0  0
M  END
>  <MODEL>
3

>  <REMARK>
 VINA RESULT:      -8.9      2.181      6.017
  Name = 
  1 active torsions:
  status: ('A' for Active; 'I' for Inactive)
    1  A    between atoms: C_9  and  C_15
                            x       y       z     vdW  Elec       q    Type
                         _______ _______ _______ _____ _____    ______ ____

>  <TORSDO>
F 1

$$$$
=
 OpenBabel10262420013D

 27 31  0  0  1  0  0  0  0  0999 V2000
  189.7820  176.6690  140.5530 C   0  0  0  0  0  2  0  0  0  0  0  0
  187.9410  177.8820  141.6900 C   0  0  0  0  0  0  0  0  0  0  0  0
  187.7500  178.7990  139.4410 N   0  0  0  0  0  2  0  0  0  0  0  0
  183.8700  178.1020  142.0940 O   0  0  0  0  0  0  0  0  0  0  0  0
  182.5060  177.3430  140.2670 C   0  0  0  0  0  1  0  0  0  0  0  0
  187.3970  177.7050  142.8670 N   0  0  0  0  0  0  0  0  0  0  0  0
  184.6140  178.6470  139.9190 C   0  0  1  0  0  3  0  0  0  0  0  0
  187.8520  177.9150  135.8400 C   0  0  0  0  0  3  0  0  0  0  0  0
  184.4600  179.8910  139.0660 C   0  0  0  0  0  1  0  0  0  0  0  0
  189.0510  177.2080  135.7490 C   0  0  0  0  0  3  0  0  0  0  0  0
  185.7850  178.8160  140.8820 C   0  0  1  0  0  3  0  0  0  0  0  0
  189.4320  177.8030  141.5020 C   0  0  1  0  0  3  0  0  0  0  0  0
  183.3730  178.4600  140.8130 C   0  0  2  0  0  3  0  0  0  0  0  0
  185.2390  178.2190  142.1130 C   0  0  0  0  0  0  0  0  0  0  0  0
  190.2360  177.1910  139.2720 N   0  0  0  0  0  2  0  0  0  0  0  0
  187.0480  178.0580  140.4760 C   0  0  2  0  0  3  0  0  0  0  0  0
  187.4230  178.4040  137.0740 C   0  0  0  0  0  3  0  0  0  0  0  0
  185.9990  177.7460  143.0510 N   0  0  0  0  0  0  0  0  0  0  0  0
  189.8150  176.9830  136.8950 C   0  0  0  0  0  3  0  0  0  0  0  0
  189.3850  177.4430  138.1460 C   0  0  0  0  0  0  0  0  0  0  0  0
  188.1740  178.1730  138.2330 C   0  0  0  0  0  0  0  0  0  0  0  0
  191.7090  177.5120  145.1430 C   0  0  0  0  0  3  0  0  0  0  0  0
  190.2150  177.7210  142.7810 C   0  0  0  0  0  0  0  0  0  0  0  0
  190.5720  176.4630  143.2800 C   0  0  0  0  0  3  0  0  0  0  0  0
  191.3160  176.3590  144.4600 C   0  0  0  0  0  3  0  0  0  0  0  0
  191.3610  178.7720  144.6470 C   0  0  0  0  0  3  0  0  0  0  0  0
  190.6170  178.8780  143.4680 C   0  0  0  0  0  3  0  0  0  0  0  0
  1 12  1  0  0  0  0
  2  6  2  0  0  0  0
  4 14  1  0  0  0  0
  6 18  1  0  0  0  0
  7  9  1  1  0  0  0
  7 13  1  0  0  0  0
  7 11  1  0  0  0  0
  8 17  1  0  0  0  0
 10  8  2  0  0  0  0
 10 19  1  0  0  0  0
 11 14  1  1  0  0  0
 12  2  1  0  0  0  0
 12 23  1  1  0  0  0
 13  5  1  6  0  0  0
 13  4  1  0  0  0  0
 14 18  2  0  0  0  0
 15  1  1  0  0  0  0
 16  3  1  6  0  0  0
 16 11  1  0  0  0  0
 16  2  1  0  0  0  0
 17 21  2  0  0  0  0
 19 20  2  0  0  0  0
 20 21  1  0  0  0  0
 20 15  1  0  0  0  0
 21  3  1  0  0  0  0
 23 24  2  0  0  0  0
 23 27  1  0  0  0  0
 24 25  1  0  0  0  0
 25 22  2  0  0  0  0
 26 22  1  0  0  0  0
 27 26  2  0  0  0  0
M  END
>  <MODEL>
4

>  <REMARK>
 VINA RESULT:      -8.7      2.269      2.810
  Name = 
  1 active torsions:
  status: ('A' for Active; 'I' for Inactive)
    1  A    between atoms: C_9  and  C_15
                            x       y       z     vdW  Elec       q    Type
                         _______ _______ _______ _____ _____    ______ ____

>  <TORSDO>
F 1

$$$$
=
 OpenBabel10262420013D

 27 31  0  0  1  0  0  0  0  0999 V2000
  186.1580  179.2370  141.2300 C   0  0  0  0  0  2  0  0  0  0  0  0
  186.6300  177.9430  143.2940 C   0  0  0  0  0  0  0  0  0  0  0  0
  188.1260  176.8320  141.7250 N   0  0  0  0  0  2  0  0  0  0  0  0
  189.3710  177.3540  146.2800 O   0  0  0  0  0  0  0  0  0  0  0  0
  191.6800  177.8220  145.8100 C   0  0  0  0  0  1  0  0  0  0  0  0
  186.2880  178.1610  144.5380 N   0  0  0  0  0  0  0  0  0  0  0  0
  190.1690  176.7100  144.1520 C   0  0  1  0  0  3  0  0  0  0  0  0
  190.5200  177.4250  138.9540 C   0  0  0  0  0  3  0  0  0  0  0  0
  190.6830  175.3920  143.6080 C   0  0  0  0  0  1  0  0  0  0  0  0
  189.7760  178.2370  138.0980 C   0  0  0  0  0  3  0  0  0  0  0  0
  188.6450  176.7370  144.1030 C   0  0  1  0  0  3  0  0  0  0  0  0
  185.6520  178.1550  142.1690 C   0  0  1  0  0  3  0  0  0  0  0  0
  190.5330  176.8450  145.6430 C   0  0  2  0  0  3  0  0  0  0  0  0
  188.3230  177.3750  145.3910 C   0  0  0  0  0  0  0  0  0  0  0  0
  186.5900  178.6590  139.9650 N   0  0  0  0  0  2  0  0  0  0  0  0
  188.0670  177.5810  142.9690 C   0  0  2  0  0  3  0  0  0  0  0  0
  189.9690  176.9970  140.1630 C   0  0  0  0  0  3  0  0  0  0  0  0
  187.2040  177.9960  145.5980 N   0  0  0  0  0  0  0  0  0  0  0  0
  188.4860  178.6300  138.4560 C   0  0  0  0  0  3  0  0  0  0  0  0
  187.9280  178.2330  139.6780 C   0  0  0  0  0  0  0  0  0  0  0  0
  188.6800  177.3960  140.5390 C   0  0  0  0  0  0  0  0  0  0  0  0
  181.6340  178.9560  143.4910 C   0  0  0  0  0  3  0  0  0  0  0  0
  184.2410  178.4190  142.6150 C   0  0  0  0  0  0  0  0  0  0  0  0
  184.0010  178.7370  143.9560 C   0  0  0  0  0  3  0  0  0  0  0  0
  182.7000  179.0030  144.3940 C   0  0  0  0  0  3  0  0  0  0  0  0
  181.8690  178.6450  142.1480 C   0  0  0  0  0  3  0  0  0  0  0  0
  183.1690  178.3780  141.7090 C   0  0  0  0  0  3  0  0  0  0  0  0
  1 12  1  0  0  0  0
  2  6  2  0  0  0  0
  6 18  1  0  0  0  0
  7  9  1  1  0  0  0
  7 13  1  0  0  0  0
  8 17  1  0  0  0  0
 10 19  1  0  0  0  0
 10  8  2  0  0  0  0
 11  7  1  0  0  0  0
 11 14  1  1  0  0  0
 12 23  1  1  0  0  0
 12  2  1  0  0  0  0
 13  5  1  6  0  0  0
 13  4  1  0  0  0  0
 14 18  2  0  0  0  0
 14  4  1  0  0  0  0
 15  1  1  0  0  0  0
 16  3  1  6  0  0  0
 16  2  1  0  0  0  0
 16 11  1  0  0  0  0
 17 21  2  0  0  0  0
 19 20  2  0  0  0  0
 20 15  1  0  0  0  0
 20 21  1  0  0  0  0
 21  3  1  0  0  0  0
 22 25  1  0  0  0  0
 23 24  1  0  0  0  0
 24 25  2  0  0  0  0
 26 22  2  0  0  0  0
 27 26  1  0  0  0  0
 27 23  2  0  0  0  0
M  END
>  <MODEL>
5

>  <REMARK>
 VINA RESULT:      -8.6      2.132      5.519
  Name = 
  1 active torsions:
  status: ('A' for Active; 'I' for Inactive)
    1  A    between atoms: C_9  and  C_15
                            x       y       z     vdW  Elec       q    Type
                         _______ _______ _______ _____ _____    ______ ____

>  <TORSDO>
F 1

$$$$
=
 OpenBabel10262420013D

 27 31  0  0  1  0  0  0  0  0999 V2000
  189.2150  178.3810  140.1960 C   0  0  0  0  0  2  0  0  0  0  0  0
  191.2270  176.9810  139.8130 C   0  0  0  0  0  0  0  0  0  0  0  0
  189.6740  175.9620  138.2360 N   0  0  0  0  0  2  0  0  0  0  0  0
  194.3050  176.2450  137.2110 O   0  0  0  0  0  0  0  0  0  0  0  0
  193.9700  176.7490  134.8850 C   0  0  0  0  0  1  0  0  0  0  0  0
  192.4630  177.1300  140.2140 N   0  0  0  0  0  0  0  0  0  0  0  0
  192.1860  175.7200  136.3090 C   0  0  1  0  0  3  0  0  0  0  0  0
  187.0560  176.7150  135.7180 C   0  0  0  0  0  3  0  0  0  0  0  0
  191.5970  174.4360  135.7600 C   0  0  0  0  0  1  0  0  0  0  0  0
  186.2100  177.5690  136.4260 C   0  0  0  0  0  3  0  0  0  0  0  0
  192.0660  175.7430  137.8290 C   0  0  1  0  0  3  0  0  0  0  0  0
  190.0700  177.2480  140.7380 C   0  0  1  0  0  3  0  0  0  0  0  0
  193.6970  175.7770  136.0160 C   0  0  2  0  0  3  0  0  0  0  0  0
  193.3700  176.3090  138.2160 C   0  0  0  0  0  0  0  0  0  0  0  0
  187.9440  177.8750  139.7000 N   0  0  0  0  0  2  0  0  0  0  0  0
  190.9520  176.6440  138.3590 C   0  0  2  0  0  3  0  0  0  0  0  0
  188.2120  176.2210  136.3220 C   0  0  0  0  0  3  0  0  0  0  0  0
  193.5550  176.9130  139.3480 N   0  0  0  0  0  0  0  0  0  0  0  0
  186.5270  177.9350  137.7350 C   0  0  0  0  0  3  0  0  0  0  0  0
  187.6980  177.4710  138.3470 C   0  0  0  0  0  0  0  0  0  0  0  0
  188.5480  176.5930  137.6300 C   0  0  0  0  0  0  0  0  0  0  0  0
  191.2340  177.8610  144.8360 C   0  0  0  0  0  3  0  0  0  0  0  0
  190.4620  177.4800  142.1700 C   0  0  0  0  0  0  0  0  0  0  0  0
  190.7820  176.3810  142.9740 C   0  0  0  0  0  3  0  0  0  0  0  0
  191.1650  176.5700  144.3050 C   0  0  0  0  0  3  0  0  0  0  0  0
  190.9220  178.9640  144.0370 C   0  0  0  0  0  3  0  0  0  0  0  0
  190.5370  178.7760  142.7060 C   0  0  0  0  0  3  0  0  0  0  0  0
  1 12  1  0  0  0  0
  2  6  2  0  0  0  0
  2 12  1  0  0  0  0
  4 14  1  0  0  0  0
  7  9  1  1  0  0  0
  7 11  1  0  0  0  0
  8 17  2  0  0  0  0
  8 10  1  0  0  0  0
 10 19  2  0  0  0  0
 11 14  1  1  0  0  0
 11 16  1  0  0  0  0
 12 23  1  1  0  0  0
 13  5  1  6  0  0  0
 13  7  1  0  0  0  0
 13  4  1  0  0  0  0
 14 18  2  0  0  0  0
 15  1  1  0  0  0  0
 16  3  1  1  0  0  0
 16  2  1  0  0  0  0
 17 21  1  0  0  0  0
 18  6  1  0  0  0  0
 19 20  1  0  0  0  0
 20 15  1  0  0  0  0
 21  3  1  0  0  0  0
 21 20  2  0  0  0  0
 23 27  2  0  0  0  0
 23 24  1  0  0  0  0
 24 25  2  0  0  0  0
 25 22  1  0  0  0  0
 26 22  2  0  0  0  0
 27 26  1  0  0  0  0
M  END
>  <MODEL>
6

>  <REMARK>
 VINA RESULT:      -8.4      4.307      7.099
  Name = 
  1 active torsions:
  status: ('A' for Active; 'I' for Inactive)
    1  A    between atoms: C_9  and  C_15
                            x       y       z     vdW  Elec       q    Type
                         _______ _______ _______ _____ _____    ______ ____

>  <TORSDO>
F 1

$$$$
=
 OpenBabel10262420013D

 27 31  0  0  1  0  0  0  0  0999 V2000
  186.2670  178.9250  140.4060 C   0  0  0  0  0  2  0  0  0  0  0  0
  184.9560  178.4010  142.4460 C   0  0  0  0  0  0  0  0  0  0  0  0
  186.9970  177.1510  142.9000 N   0  0  0  0  0  2  0  0  0  0  0  0
  184.5930  179.2030  146.4470 O   0  0  0  0  0  0  0  0  0  0  0  0
  186.5540  179.9020  147.6470 C   0  0  0  0  0  1  0  0  0  0  0  0
  183.8440  178.9150  142.9050 N   0  0  0  0  0  0  0  0  0  0  0  0
  186.6130  178.1060  145.9040 C   0  0  1  0  0  3  0  0  0  0  0  0
  190.6980  177.3010  142.6910 C   0  0  0  0  0  3  0  0  0  0  0  0
  187.2210  176.7950  146.3610 C   0  0  0  0  0  1  0  0  0  0  0  0
  190.8980  177.6830  141.3640 C   0  0  0  0  0  3  0  0  0  0  0  0
  185.6150  177.8550  144.7780 C   0  0  1  0  0  3  0  0  0  0  0  0
  185.1290  178.0990  140.9820 C   0  0  1  0  0  3  0  0  0  0  0  0
  185.7930  178.7370  147.0450 C   0  0  2  0  0  3  0  0  0  0  0  0
  184.5280  178.7800  145.1410 C   0  0  0  0  0  0  0  0  0  0  0  0
  187.4190  178.0830  140.1170 N   0  0  0  0  0  2  0  0  0  0  0  0
  186.1320  178.2130  143.3860 C   0  0  2  0  0  3  0  0  0  0  0  0
  189.4020  177.1620  143.1890 C   0  0  0  0  0  3  0  0  0  0  0  0
  183.6810  179.2310  144.2700 N   0  0  0  0  0  0  0  0  0  0  0  0
  189.8000  177.9360  140.5400 C   0  0  0  0  0  3  0  0  0  0  0  0
  188.4930  177.8280  141.0310 C   0  0  0  0  0  0  0  0  0  0  0  0
  188.2930  177.4270  142.3750 C   0  0  0  0  0  0  0  0  0  0  0  0
  181.5670  178.5260  138.6030 C   0  0  0  0  0  3  0  0  0  0  0  0
  183.8740  178.2360  140.1680 C   0  0  0  0  0  0  0  0  0  0  0  0
  183.6670  179.4060  139.4280 C   0  0  0  0  0  3  0  0  0  0  0  0
  182.5160  179.5510  138.6490 C   0  0  0  0  0  3  0  0  0  0  0  0
  181.7710  177.3530  139.3350 C   0  0  0  0  0  3  0  0  0  0  0  0
  182.9210  177.2050  140.1150 C   0  0  0  0  0  3  0  0  0  0  0  0
  1 12  1  0  0  0  0
  2  6  2  0  0  0  0
  3 16  1  0  0  0  0
  4 13  1  0  0  0  0
  6 18  1  0  0  0  0
  7  9  1  1  0  0  0
  7 13  1  0  0  0  0
  8 17  1  0  0  0  0
 10  8  2  0  0  0  0
 11 14  1  1  0  0  0
 11  7  1  0  0  0  0
 12 23  1  6  0  0  0
 12  2  1  0  0  0  0
 13  5  1  6  0  0  0
 14  4  1  0  0  0  0
 15  1  1  0  0  0  0
 15 20  1  0  0  0  0
 16  2  1  6  0  0  0
 16 11  1  0  0  0  0
 18 14  2  0  0  0  0
 19 20  2  0  0  0  0
 19 10  1  0  0  0  0
 20 21  1  0  0  0  0
 21  3  1  0  0  0  0
 21 17  2  0  0  0  0
 22 25  2  0  0  0  0
 22 26  1  0  0  0  0
 24 23  2  0  0  0  0
 25 24  1  0  0  0  0
 26 27  2  0  0  0  0
 27 23  1  0  0  0  0
M  END
>  <MODEL>
7

>  <REMARK>
 VINA RESULT:      -8.3      1.843      5.936
  Name = 
  1 active torsions:
  status: ('A' for Active; 'I' for Inactive)
    1  A    between atoms: C_9  and  C_15
                            x       y       z     vdW  Elec       q    Type
                         _______ _______ _______ _____ _____    ______ ____

>  <TORSDO>
F 1

$$$$
=
 OpenBabel10262420013D

 27 31  0  0  1  0  0  0  0  0999 V2000
  187.3890  177.0830  142.5650 C   0  0  0  0  0  2  0  0  0  0  0  0
  189.7470  177.1010  143.3350 C   0  0  0  0  0  0  0  0  0  0  0  0
  188.6830  178.3340  145.1470 N   0  0  0  0  0  2  0  0  0  0  0  0
  192.3660  175.4640  146.0260 O   0  0  0  0  0  0  0  0  0  0  0  0
  191.4880  174.6320  148.1030 C   0  0  0  0  0  1  0  0  0  0  0  0
  190.7940  176.4470  142.9030 N   0  0  0  0  0  0  0  0  0  0  0  0
  190.6730  176.7540  147.0510 C   0  0  1  0  0  3  0  0  0  0  0  0
  185.6940  178.4220  147.3420 C   0  0  0  0  0  3  0  0  0  0  0  0
  190.7180  177.9700  147.9550 C   0  0  0  0  0  1  0  0  0  0  0  0
  184.6530  178.3360  146.4180 C   0  0  0  0  0  3  0  0  0  0  0  0
  190.7830  177.1820  145.5910 C   0  0  1  0  0  3  0  0  0  0  0  0
  188.7600  177.7110  142.3760 C   0  0  1  0  0  3  0  0  0  0  0  0
  191.8990  175.8570  147.3080 C   0  0  2  0  0  3  0  0  0  0  0  0
  191.6800  176.1470  145.0510 C   0  0  0  0  0  0  0  0  0  0  0  0
  186.4740  178.0260  143.1930 N   0  0  0  0  0  2  0  0  0  0  0  0
  189.4630  177.1500  144.8240 C   0  0  2  0  0  3  0  0  0  0  0  0
  187.0190  178.3860  146.9060 C   0  0  0  0  0  3  0  0  0  0  0  0
  191.7100  175.8440  143.7910 N   0  0  0  0  0  0  0  0  0  0  0  0
  184.9380  178.2050  145.0580 C   0  0  0  0  0  3  0  0  0  0  0  0
  186.2620  178.1390  144.6050 C   0  0  0  0  0  0  0  0  0  0  0  0
  187.3170  178.2410  145.5450 C   0  0  0  0  0  0  0  0  0  0  0  0
  189.9940  177.6980  138.2530 C   0  0  0  0  0  3  0  0  0  0  0  0
  189.1930  177.6830  140.9380 C   0  0  0  0  0  0  0  0  0  0  0  0
  188.6570  178.6200  140.0480 C   0  0  0  0  0  3  0  0  0  0  0  0
  189.0550  178.6270  138.7080 C   0  0  0  0  0  3  0  0  0  0  0  0
  190.5380  176.7630  139.1380 C   0  0  0  0  0  3  0  0  0  0  0  0
  190.1410  176.7540  140.4780 C   0  0  0  0  0  3  0  0  0  0  0  0
  1 15  1  0  0  0  0
  3 21  1  0  0  0  0
  4 13  1  0  0  0  0
  6  2  2  0  0  0  0
  6 18  1  0  0  0  0
  7 13  1  0  0  0  0
  7  9  1  1  0  0  0
 10  8  2  0  0  0  0
 11 14  1  6  0  0  0
 11  7  1  0  0  0  0
 12 23  1  6  0  0  0
 12  1  1  0  0  0  0
 12  2  1  0  0  0  0
 13  5  1  1  0  0  0
 14  4  1  0  0  0  0
 15 20  1  0  0  0  0
 16  2  1  6  0  0  0
 16  3  1  0  0  0  0
 16 11  1  0  0  0  0
 17  8  1  0  0  0  0
 18 14  2  0  0  0  0
 19 10  1  0  0  0  0
 20 19  2  0  0  0  0
 20 21  1  0  0  0  0
 21 17  2  0  0  0  0
 22 25  2  0  0  0  0
 22 26  1  0  0  0  0
 24 23  2  0  0  0  0
 25 24  1  0  0  0  0
 26 27  2  0  0  0  0
 27 23  1  0  0  0  0
M  END
>  <MODEL>
8

>  <REMARK>
 VINA RESULT:      -8.2      3.107      7.736
  Name = 
  1 active torsions:
  status: ('A' for Active; 'I' for Inactive)
    1  A    between atoms: C_9  and  C_15
                            x       y       z     vdW  Elec       q    Type
                         _______ _______ _______ _____ _____    ______ ____

>  <TORSDO>
F 1

$$$$
=
 OpenBabel10262420013D

 27 31  0  0  1  0  0  0  0  0999 V2000
  183.8230  178.0890  141.1700 C   0  0  0  0  0  2  0  0  0  0  0  0
  184.9540  178.3860  138.9820 C   0  0  0  0  0  0  0  0  0  0  0  0
  186.8130  178.8030  140.5000 N   0  0  0  0  0  2  0  0  0  0  0  0
  187.5470  176.6470  136.3300 O   0  0  0  0  0  0  0  0  0  0  0  0
  189.1740  175.0980  137.1830 C   0  0  0  0  0  1  0  0  0  0  0  0
  184.5520  178.1160  137.7670 N   0  0  0  0  0  0  0  0  0  0  0  0
  188.5660  177.2080  138.3870 C   0  0  1  0  0  3  0  0  0  0  0  0
  188.4330  177.6360  143.6270 C   0  0  0  0  0  3  0  0  0  0  0  0
  189.7390  178.1000  138.7380 C   0  0  0  0  0  1  0  0  0  0  0  0
  187.3570  177.5960  144.5130 C   0  0  0  0  0  3  0  0  0  0  0  0
  187.2990  178.0440  138.2370 C   0  0  1  0  0  3  0  0  0  0  0  0
  184.0280  179.0190  139.9860 C   0  0  1  0  0  3  0  0  0  0  0  0
  188.7900  176.5550  137.0100 C   0  0  2  0  0  3  0  0  0  0  0  0
  186.6730  177.4170  137.0600 C   0  0  0  0  0  0  0  0  0  0  0  0
  184.5050  178.6000  142.3500 N   0  0  0  0  0  2  0  0  0  0  0  0
  186.3390  177.9510  139.4220 C   0  0  2  0  0  3  0  0  0  0  0  0
  188.2280  178.0060  142.2970 C   0  0  0  0  0  3  0  0  0  0  0  0
  185.4010  177.4950  136.8260 N   0  0  0  0  0  0  0  0  0  0  0  0
  186.0740  177.9180  144.0660 C   0  0  0  0  0  3  0  0  0  0  0  0
  185.8460  178.2630  142.7280 C   0  0  0  0  0  0  0  0  0  0  0  0
  186.9430  178.3160  141.8330 C   0  0  0  0  0  0  0  0  0  0  0  0
  180.2500  180.3380  138.4000 C   0  0  0  0  0  3  0  0  0  0  0  0
  182.7210  179.4890  139.4140 C   0  0  0  0  0  0  0  0  0  0  0  0
  181.5770  178.7030  139.5950 C   0  0  0  0  0  3  0  0  0  0  0  0
  180.3450  179.1250  139.0880 C   0  0  0  0  0  3  0  0  0  0  0  0
  181.3870  181.1310  138.2210 C   0  0  0  0  0  3  0  0  0  0  0  0
  182.6210  180.7100  138.7280 C   0  0  0  0  0  3  0  0  0  0  0  0
  1 15  1  0  0  0  0
  2 12  1  0  0  0  0
  3 21  1  0  0  0  0
  4 13  1  0  0  0  0
  4 14  1  0  0  0  0
  6  2  2  0  0  0  0
  7  9  1  6  0  0  0
  8 10  1  0  0  0  0
 11 14  1  6  0  0  0
 11  7  1  0  0  0  0
 11 16  1  0  0  0  0
 12 23  1  6  0  0  0
 12  1  1  0  0  0  0
 13  5  1  1  0  0  0
 13  7  1  0  0  0  0
 15 20  1  0  0  0  0
 16  2  1  6  0  0  0
 16  3  1  0  0  0  0
 17  8  2  0  0  0  0
 18 14  2  0  0  0  0
 18  6  1  0  0  0  0
 19 10  2  0  0  0  0
 20 19  1  0  0  0  0
 21 17  1  0  0  0  0
 21 20  2  0  0  0  0
 22 25  1  0  0  0  0
 23 24  1  0  0  0  0
 25 24  2  0  0  0  0
 26 22  2  0  0  0  0
 26 27  1  0  0  0  0
 27 23  2  0  0  0  0
M  END
>  <MODEL>
9

>  <REMARK>
 VINA RESULT:      -8.2      2.644      7.087
  Name = 
  1 active torsions:
  status: ('A' for Active; 'I' for Inactive)
    1  A    between atoms: C_9  and  C_15
                            x       y       z     vdW  Elec       q    Type
                         _______ _______ _______ _____ _____    ______ ____

>  <TORSDO>
F 1

$$$$
