=
 OpenBabel10262420073D

 27 30  0  0  1  0  0  0  0  0999 V2000
  188.7140  177.9230  141.3580 N   0  0  0  0  0  0  0  0  0  0  0  0
  189.4470  177.2940  142.4650 C   0  0  1  0  0  3  0  0  0  0  0  0
  191.8510  176.4140  145.8650 C   0  0  0  0  0  3  0  0  0  0  0  0
  192.0660  176.0860  148.2150 F   0  0  0  0  0  0  0  0  0  0  0  0
  190.9500  177.5280  142.3580 C   0  0  0  0  0  2  0  0  0  0  0  0
  189.2300  177.3090  146.2570 C   0  0  0  0  0  3  0  0  0  0  0  0
  190.0070  176.9170  147.3510 C   0  0  0  0  0  3  0  0  0  0  0  0
  189.7530  177.2470  144.9610 C   0  0  0  0  0  0  0  0  0  0  0  0
  191.3160  176.4690  147.1550 C   0  0  0  0  0  0  0  0  0  0  0  0
  191.0850  176.8140  144.7660 C   0  0  0  0  0  0  0  0  0  0  0  0
  188.9080  177.7440  143.8230 C   0  0  0  0  0  2  0  0  0  0  0  0
  191.6710  176.6670  143.3900 C   0  0  0  0  0  2  0  0  0  0  0  0
  189.8320  177.3880  137.2820 C   0  0  0  0  0  3  0  0  0  0  0  0
  189.1000  177.7310  139.9780 C   0  0  0  0  0  0  0  0  0  0  0  0
  189.7310  176.5500  139.5500 C   0  0  0  0  0  3  0  0  0  0  0  0
  190.0940  176.3790  138.2110 C   0  0  0  0  0  3  0  0  0  0  0  0
  189.2050  178.5670  137.6920 C   0  0  0  0  0  3  0  0  0  0  0  0
  188.8420  178.7370  139.0310 C   0  0  0  0  0  3  0  0  0  0  0  0
  187.7110  178.8720  141.6430 N   0  0  0  0  0  2  0  0  0  0  0  0
  184.7220  178.5620  143.6600 C   0  0  0  0  0  3  0  0  0  0  0  0
  183.1950  178.6480  141.6850 C   0  0  0  0  0  0  0  0  0  0  0  0
  181.8490  178.4690  141.3930 O   0  0  0  0  0  1  0  0  0  0  0  0
  186.3110  178.5890  141.7690 C   0  0  0  0  0  0  0  0  0  0  0  0
  183.5610  178.8910  143.0950 C   0  0  0  0  0  3  0  0  0  0  0  0
  184.0610  178.6610  140.6630 C   0  0  0  0  0  3  0  0  0  0  0  0
  185.5230  178.8720  140.7320 C   0  0  0  0  0  3  0  0  0  0  0  0
  185.7920  177.8150  142.9390 C   0  0  0  0  0  2  0  0  0  0  0  0
  1 19  1  0  0  0  0
  2  1  1  6  0  0  0
  2 11  1  0  0  0  0
  3  9  1  0  0  0  0
  5  2  1  0  0  0  0
  5 12  1  0  0  0  0
  6  7  1  0  0  0  0
  8  6  2  0  0  0  0
  9  7  2  0  0  0  0
  9  4  1  0  0  0  0
 10  8  1  0  0  0  0
 10  3  2  0  0  0  0
 11  8  1  0  0  0  0
 12 10  1  0  0  0  0
 13 17  2  0  0  0  0
 13 16  1  0  0  0  0
 14  1  1  0  0  0  0
 15 14  1  0  0  0  0
 16 15  2  0  0  0  0
 17 18  1  0  0  0  0
 18 14  2  0  0  0  0
 19 23  1  0  0  0  0
 21 24  1  0  0  0  0
 22 21  1  0  0  0  0
 23 27  1  0  0  0  0
 24 20  2  0  0  0  0
 25 26  1  0  0  0  0
 25 21  2  0  0  0  0
 26 23  2  0  0  0  0
 27 20  1  0  0  0  0
M  END
>  <MODEL>
1

>  <REMARK>
 VINA RESULT:      -9.5      0.000      0.000
  Name = 
  4 active torsions:
  status: ('A' for Active; 'I' for Inactive)
    1  A    between atoms: N_1  and  N_15
    2  A    between atoms: N_1  and  C_18
    3  A    between atoms: C_2  and  N_15
    4  A    between atoms: C_9  and  N_15
                            x       y       z     vdW  Elec       q    Type
                         _______ _______ _______ _____ _____    ______ ____

>  <TORSDO>
F 4

$$$$
=
 OpenBabel10262420073D

 27 30  0  0  1  0  0  0  0  0999 V2000
  189.0590  177.5410  140.5510 N   0  0  0  0  0  0  0  0  0  0  0  0
  188.0420  178.1620  141.4100 C   0  0  1  0  0  3  0  0  0  0  0  0
  184.5870  179.1190  143.7030 C   0  0  0  0  0  3  0  0  0  0  0  0
  183.4150  179.1070  145.7780 F   0  0  0  0  0  0  0  0  0  0  0  0
  186.7290  178.3830  140.6660 C   0  0  0  0  0  2  0  0  0  0  0  0
  186.5440  177.4690  144.8300 C   0  0  0  0  0  3  0  0  0  0  0  0
  185.4500  177.8800  145.5960 C   0  0  0  0  0  3  0  0  0  0  0  0
  186.6730  177.8860  143.5020 C   0  0  0  0  0  0  0  0  0  0  0  0
  184.4720  178.7050  145.0340 C   0  0  0  0  0  0  0  0  0  0  0  0
  185.6730  178.7030  142.9260 C   0  0  0  0  0  0  0  0  0  0  0  0
  187.8270  177.3630  142.6950 C   0  0  0  0  0  2  0  0  0  0  0  0
  185.7970  179.2320  141.5250 C   0  0  0  0  0  2  0  0  0  0  0  0
  188.9160  177.8800  136.3070 C   0  0  0  0  0  3  0  0  0  0  0  0
  189.0110  177.6440  139.1090 C   0  0  0  0  0  0  0  0  0  0  0  0
  188.8640  176.5060  138.2970 C   0  0  0  0  0  3  0  0  0  0  0  0
  188.8160  176.6230  136.9060 C   0  0  0  0  0  3  0  0  0  0  0  0
  189.0620  179.0210  137.1000 C   0  0  0  0  0  3  0  0  0  0  0  0
  189.1100  178.9020  138.4920 C   0  0  0  0  0  3  0  0  0  0  0  0
  190.0180  176.6810  141.1250 N   0  0  0  0  0  2  0  0  0  0  0  0
  190.9020  178.8220  143.9070 C   0  0  0  0  0  3  0  0  0  0  0  0
  191.5470  176.9060  145.3750 C   0  0  0  0  0  0  0  0  0  0  0  0
  192.1510  176.6870  146.6050 O   0  0  0  0  0  1  0  0  0  0  0  0
  190.6780  176.8930  142.3800 C   0  0  0  0  0  0  0  0  0  0  0  0
  191.0100  178.2560  145.1080 C   0  0  0  0  0  3  0  0  0  0  0  0
  191.4250  175.8640  144.5420 C   0  0  0  0  0  3  0  0  0  0  0  0
  190.7870  175.8530  143.2090 C   0  0  0  0  0  3  0  0  0  0  0  0
  191.3970  178.1750  142.6580 C   0  0  0  0  0  2  0  0  0  0  0  0
  1 19  1  0  0  0  0
  2  1  1  6  0  0  0
  2 11  1  0  0  0  0
  3  9  1  0  0  0  0
  5  2  1  0  0  0  0
  5 12  1  0  0  0  0
  6  7  1  0  0  0  0
  8  6  2  0  0  0  0
  9  7  2  0  0  0  0
  9  4  1  0  0  0  0
 10  8  1  0  0  0  0
 10  3  2  0  0  0  0
 11  8  1  0  0  0  0
 12 10  1  0  0  0  0
 13 16  2  0  0  0  0
 13 17  1  0  0  0  0
 14  1  1  0  0  0  0
 15 14  2  0  0  0  0
 16 15  1  0  0  0  0
 17 18  2  0  0  0  0
 18 14  1  0  0  0  0
 19 23  1  0  0  0  0
 20 24  2  0  0  0  0
 21 22  1  0  0  0  0
 23 27  1  0  0  0  0
 23 26  2  0  0  0  0
 24 21  1  0  0  0  0
 25 21  2  0  0  0  0
 26 25  1  0  0  0  0
 27 20  1  0  0  0  0
M  END
>  <MODEL>
2

>  <REMARK>
 VINA RESULT:      -9.2      3.212      5.714
  Name = 
  4 active torsions:
  status: ('A' for Active; 'I' for Inactive)
    1  A    between atoms: N_1  and  N_15
    2  A    between atoms: N_1  and  C_18
    3  A    between atoms: C_2  and  N_15
    4  A    between atoms: C_9  and  N_15
                            x       y       z     vdW  Elec       q    Type
                         _______ _______ _______ _____ _____    ______ ____

>  <TORSDO>
F 4

$$$$
=
 OpenBabel10262420073D

 27 30  0  0  1  0  0  0  0  0999 V2000
  188.9420  177.7120  144.3470 N   0  0  0  0  0  0  0  0  0  0  0  0
  187.4850  177.7190  144.5310 C   0  0  1  0  0  3  0  0  0  0  0  0
  183.3710  178.7280  144.9420 C   0  0  0  0  0  3  0  0  0  0  0  0
  181.2150  179.0460  143.9780 F   0  0  0  0  0  0  0  0  0  0  0  0
  187.0700  178.5490  145.7410 C   0  0  0  0  0  2  0  0  0  0  0  0
  184.4490  178.4650  142.3750 C   0  0  0  0  0  3  0  0  0  0  0  0
  183.0810  178.6970  142.5380 C   0  0  0  0  0  3  0  0  0  0  0  0
  185.2850  178.3540  143.4900 C   0  0  0  0  0  0  0  0  0  0  0  0
  182.5410  178.8270  143.8200 C   0  0  0  0  0  0  0  0  0  0  0  0
  184.7430  178.5080  144.7870 C   0  0  0  0  0  0  0  0  0  0  0  0
  186.7600  178.1770  143.2660 C   0  0  0  0  0  2  0  0  0  0  0  0
  185.5850  178.3330  146.0190 C   0  0  0  0  0  2  0  0  0  0  0  0
  191.5630  176.1590  147.3240 C   0  0  0  0  0  3  0  0  0  0  0  0
  189.8390  177.1800  145.3480 C   0  0  0  0  0  0  0  0  0  0  0  0
  191.0720  176.6020  144.9970 C   0  0  0  0  0  3  0  0  0  0  0  0
  191.9280  176.0950  145.9780 C   0  0  0  0  0  3  0  0  0  0  0  0
  190.3430  176.7310  147.6890 C   0  0  0  0  0  3  0  0  0  0  0  0
  189.4870  177.2370  146.7070 C   0  0  0  0  0  3  0  0  0  0  0  0
  189.5030  178.3880  143.2440 N   0  0  0  0  0  2  0  0  0  0  0  0
  189.0370  177.2530  139.8380 C   0  0  0  0  0  3  0  0  0  0  0  0
  191.4900  177.0610  139.4040 C   0  0  0  0  0  0  0  0  0  0  0  0
  192.3450  176.5730  138.4260 O   0  0  0  0  0  1  0  0  0  0  0  0
  190.0040  177.7650  142.0530 C   0  0  0  0  0  0  0  0  0  0  0  0
  190.0870  177.3160  139.0200 C   0  0  0  0  0  3  0  0  0  0  0  0
  192.0080  177.3380  140.6080 C   0  0  0  0  0  3  0  0  0  0  0  0
  191.3020  177.8980  141.7800 C   0  0  0  0  0  3  0  0  0  0  0  0
  189.1450  176.8280  141.2630 C   0  0  0  0  0  2  0  0  0  0  0  0
  1 14  1  0  0  0  0
  2  1  1  6  0  0  0
  2  5  1  0  0  0  0
  5 12  1  0  0  0  0
  6  7  2  0  0  0  0
  6  8  1  0  0  0  0
  7  9  1  0  0  0  0
  8 10  2  0  0  0  0
  9  4  1  0  0  0  0
  9  3  2  0  0  0  0
 10  3  1  0  0  0  0
 10 12  1  0  0  0  0
 11  8  1  0  0  0  0
 11  2  1  0  0  0  0
 13 17  1  0  0  0  0
 14 18  1  0  0  0  0
 15 14  2  0  0  0  0
 15 16  1  0  0  0  0
 16 13  2  0  0  0  0
 18 17  2  0  0  0  0
 19  1  1  0  0  0  0
 20 27  1  0  0  0  0
 21 25  2  0  0  0  0
 22 21  1  0  0  0  0
 23 19  1  0  0  0  0
 24 21  1  0  0  0  0
 24 20  2  0  0  0  0
 25 26  1  0  0  0  0
 26 23  2  0  0  0  0
 27 23  1  0  0  0  0
M  END
>  <MODEL>
3

>  <REMARK>
 VINA RESULT:      -9.1      3.436      7.254
  Name = 
  4 active torsions:
  status: ('A' for Active; 'I' for Inactive)
    1  A    between atoms: N_1  and  N_15
    2  A    between atoms: N_1  and  C_18
    3  A    between atoms: C_2  and  N_15
    4  A    between atoms: C_9  and  N_15
                            x       y       z     vdW  Elec       q    Type
                         _______ _______ _______ _____ _____    ______ ____

>  <TORSDO>
F 4

$$$$
=
 OpenBabel10262420073D

 27 30  0  0  1  0  0  0  0  0999 V2000
  188.1540  177.9340  142.2180 N   0  0  0  0  0  0  0  0  0  0  0  0
  186.8280  177.8560  142.8450 C   0  0  1  0  0  3  0  0  0  0  0  0
  183.0300  178.6290  144.6020 C   0  0  0  0  0  3  0  0  0  0  0  0
  180.6750  178.9230  144.3890 F   0  0  0  0  0  0  0  0  0  0  0  0
  186.7960  178.5620  144.1960 C   0  0  0  0  0  2  0  0  0  0  0  0
  183.2560  178.6330  141.8150 C   0  0  0  0  0  3  0  0  0  0  0  0
  182.0030  178.7840  142.4150 C   0  0  0  0  0  3  0  0  0  0  0  0
  184.4010  178.4700  142.6010 C   0  0  0  0  0  0  0  0  0  0  0  0
  181.8900  178.7820  143.8080 C   0  0  0  0  0  0  0  0  0  0  0  0
  184.2890  178.4890  144.0100 C   0  0  0  0  0  0  0  0  0  0  0  0
  185.7350  178.3820  141.9160 C   0  0  0  0  0  2  0  0  0  0  0  0
  185.4780  178.2520  144.8990 C   0  0  0  0  0  2  0  0  0  0  0  0
  191.6560  176.5110  144.1820 C   0  0  0  0  0  3  0  0  0  0  0  0
  189.3470  177.4630  142.8860 C   0  0  0  0  0  0  0  0  0  0  0  0
  190.1890  178.3420  143.5910 C   0  0  0  0  0  3  0  0  0  0  0  0
  191.3360  177.8690  144.2330 C   0  0  0  0  0  3  0  0  0  0  0  0
  190.8290  175.6260  143.4870 C   0  0  0  0  0  3  0  0  0  0  0  0
  189.6830  176.0990  142.8440 C   0  0  0  0  0  3  0  0  0  0  0  0
  188.3050  178.6350  141.0040 N   0  0  0  0  0  2  0  0  0  0  0  0
  190.5070  176.4610  139.1250 C   0  0  0  0  0  3  0  0  0  0  0  0
  189.0170  176.4310  137.1200 C   0  0  0  0  0  0  0  0  0  0  0  0
  189.0390  175.9850  135.8050 O   0  0  0  0  0  1  0  0  0  0  0  0
  188.7370  178.0630  139.7620 C   0  0  0  0  0  0  0  0  0  0  0  0
  190.0000  175.8490  138.0550 C   0  0  0  0  0  3  0  0  0  0  0  0
  188.0610  177.3010  137.4700 C   0  0  0  0  0  3  0  0  0  0  0  0
  187.8210  177.8770  138.8100 C   0  0  0  0  0  3  0  0  0  0  0  0
  190.1940  177.8760  139.4730 C   0  0  0  0  0  2  0  0  0  0  0  0
  1 14  1  0  0  0  0
  2  1  1  6  0  0  0
  2  5  1  0  0  0  0
  5 12  1  0  0  0  0
  6  7  2  0  0  0  0
  6  8  1  0  0  0  0
  7  9  1  0  0  0  0
  8 10  2  0  0  0  0
  9  4  1  0  0  0  0
  9  3  2  0  0  0  0
 10  3  1  0  0  0  0
 10 12  1  0  0  0  0
 11  8  1  0  0  0  0
 11  2  1  0  0  0  0
 13 16  1  0  0  0  0
 14 15  1  0  0  0  0
 15 16  2  0  0  0  0
 17 13  2  0  0  0  0
 18 14  2  0  0  0  0
 18 17  1  0  0  0  0
 19  1  1  0  0  0  0
 20 27  1  0  0  0  0
 21 25  2  0  0  0  0
 21 24  1  0  0  0  0
 22 21  1  0  0  0  0
 23 19  1  0  0  0  0
 24 20  2  0  0  0  0
 25 26  1  0  0  0  0
 26 23  2  0  0  0  0
 27 23  1  0  0  0  0
M  END
>  <MODEL>
4

>  <REMARK>
 VINA RESULT:      -9.0      3.325      6.707
  Name = 
  4 active torsions:
  status: ('A' for Active; 'I' for Inactive)
    1  A    between atoms: N_1  and  N_15
    2  A    between atoms: N_1  and  C_18
    3  A    between atoms: C_2  and  N_15
    4  A    between atoms: C_9  and  N_15
                            x       y       z     vdW  Elec       q    Type
                         _______ _______ _______ _____ _____    ______ ____

>  <TORSDO>
F 4

$$$$
=
 OpenBabel10262420073D

 27 30  0  0  1  0  0  0  0  0999 V2000
  189.1470  177.6030  141.4980 N   0  0  0  0  0  0  0  0  0  0  0  0
  189.5300  176.9610  140.2330 C   0  0  1  0  0  3  0  0  0  0  0  0
  190.8370  176.0390  136.2900 C   0  0  0  0  0  3  0  0  0  0  0  0
  192.5760  175.4350  134.7770 F   0  0  0  0  0  0  0  0  0  0  0  0
  188.6820  177.4540  139.0660 C   0  0  0  0  0  2  0  0  0  0  0  0
  192.7500  176.4240  138.2930 C   0  0  0  0  0  3  0  0  0  0  0  0
  193.1470  176.0230  137.0150 C   0  0  0  0  0  3  0  0  0  0  0  0
  191.3970  176.6270  138.5820 C   0  0  0  0  0  0  0  0  0  0  0  0
  192.1920  175.8300  136.0140 C   0  0  0  0  0  0  0  0  0  0  0  0
  190.4320  176.4520  137.5630 C   0  0  0  0  0  0  0  0  0  0  0  0
  191.0220  177.1260  139.9480 C   0  0  0  0  0  2  0  0  0  0  0  0
  188.9620  176.5930  137.8380 C   0  0  0  0  0  2  0  0  0  0  0  0
  191.6800  177.5620  144.9220 C   0  0  0  0  0  3  0  0  0  0  0  0
  190.0050  177.5770  142.6610 C   0  0  0  0  0  0  0  0  0  0  0  0
  190.4410  176.3640  143.2240 C   0  0  0  0  0  3  0  0  0  0  0  0
  191.2730  176.3560  144.3470 C   0  0  0  0  0  3  0  0  0  0  0  0
  191.2570  178.7740  144.3750 C   0  0  0  0  0  3  0  0  0  0  0  0
  190.4250  178.7810  143.2520 C   0  0  0  0  0  3  0  0  0  0  0  0
  187.8430  178.1180  141.6450 N   0  0  0  0  0  2  0  0  0  0  0  0
  187.4870  177.4460  145.1840 C   0  0  0  0  0  3  0  0  0  0  0  0
  185.2250  178.4980  145.3130 C   0  0  0  0  0  0  0  0  0  0  0  0
  184.1800  178.6290  146.2180 O   0  0  0  0  0  1  0  0  0  0  0  0
  187.0300  177.9980  142.8200 C   0  0  0  0  0  0  0  0  0  0  0  0
  186.5490  178.1210  145.8470 C   0  0  0  0  0  3  0  0  0  0  0  0
  184.9820  178.7940  144.0290 C   0  0  0  0  0  3  0  0  0  0  0  0
  185.9430  178.7650  142.9060 C   0  0  0  0  0  3  0  0  0  0  0  0
  187.2780  176.9040  143.8110 C   0  0  0  0  0  2  0  0  0  0  0  0
  1 19  1  0  0  0  0
  1 14  1  0  0  0  0
  2  1  1  1  0  0  0
  3 10  1  0  0  0  0
  4  9  1  0  0  0  0
  5  2  1  0  0  0  0
  6  8  1  0  0  0  0
  7  6  2  0  0  0  0
  8 11  1  0  0  0  0
  9  3  2  0  0  0  0
  9  7  1  0  0  0  0
 10 12  1  0  0  0  0
 10  8  2  0  0  0  0
 11  2  1  0  0  0  0
 12  5  1  0  0  0  0
 14 15  2  0  0  0  0
 14 18  1  0  0  0  0
 15 16  1  0  0  0  0
 16 13  2  0  0  0  0
 17 13  1  0  0  0  0
 18 17  2  0  0  0  0
 19 23  1  0  0  0  0
 20 24  2  0  0  0  0
 21 24  1  0  0  0  0
 21 22  1  0  0  0  0
 23 26  2  0  0  0  0
 23 27  1  0  0  0  0
 25 21  2  0  0  0  0
 26 25  1  0  0  0  0
 27 20  1  0  0  0  0
M  END
>  <MODEL>
5

>  <REMARK>
 VINA RESULT:      -8.9      3.227      6.263
  Name = 
  4 active torsions:
  status: ('A' for Active; 'I' for Inactive)
    1  A    between atoms: N_1  and  N_15
    2  A    between atoms: N_1  and  C_18
    3  A    between atoms: C_2  and  N_15
    4  A    between atoms: C_9  and  N_15
                            x       y       z     vdW  Elec       q    Type
                         _______ _______ _______ _____ _____    ______ ____

>  <TORSDO>
F 4

$$$$
=
 OpenBabel10262420073D

 27 30  0  0  1  0  0  0  0  0999 V2000
  184.3240  178.9610  140.9260 N   0  0  0  0  0  0  0  0  0  0  0  0
  184.7250  179.0800  142.3350 C   0  0  1  0  0  3  0  0  0  0  0  0
  185.5690  178.4760  146.4620 C   0  0  0  0  0  3  0  0  0  0  0  0
  187.0820  177.8460  148.1910 F   0  0  0  0  0  0  0  0  0  0  0  0
  183.5480  178.8600  143.2800 C   0  0  0  0  0  2  0  0  0  0  0  0
  187.4130  177.5820  144.5590 C   0  0  0  0  0  3  0  0  0  0  0  0
  187.7120  177.4860  145.9210 C   0  0  0  0  0  3  0  0  0  0  0  0
  186.1990  178.1320  144.1390 C   0  0  0  0  0  0  0  0  0  0  0  0
  186.7910  177.9330  146.8720 C   0  0  0  0  0  0  0  0  0  0  0  0
  185.2570  178.5640  145.1020 C   0  0  0  0  0  0  0  0  0  0  0  0
  185.8900  178.1490  142.6690 C   0  0  0  0  0  2  0  0  0  0  0  0
  183.9670  179.2220  144.7020 C   0  0  0  0  0  2  0  0  0  0  0  0
  180.8200  176.8420  139.7550 C   0  0  0  0  0  3  0  0  0  0  0  0
  183.1420  178.2320  140.5250 C   0  0  0  0  0  0  0  0  0  0  0  0
  183.2050  176.8760  140.1590 C   0  0  0  0  0  3  0  0  0  0  0  0
  182.0520  176.1860  139.7760 C   0  0  0  0  0  3  0  0  0  0  0  0
  180.7400  178.1890  140.1170 C   0  0  0  0  0  3  0  0  0  0  0  0
  181.8940  178.8780  140.4990 C   0  0  0  0  0  3  0  0  0  0  0  0
  185.1960  179.4220  139.9180 N   0  0  0  0  0  2  0  0  0  0  0  0
  186.7440  178.3070  136.8420 C   0  0  0  0  0  3  0  0  0  0  0  0
  188.7480  177.3770  138.0080 C   0  0  0  0  0  0  0  0  0  0  0  0
  189.8670  176.6090  137.7150 O   0  0  0  0  0  1  0  0  0  0  0  0
  186.1590  178.6200  139.2210 C   0  0  0  0  0  0  0  0  0  0  0  0
  188.0440  178.0150  136.8770 C   0  0  0  0  0  3  0  0  0  0  0  0
  188.4250  177.5480  139.2970 C   0  0  0  0  0  3  0  0  0  0  0  0
  187.3080  178.3490  139.8410 C   0  0  0  0  0  3  0  0  0  0  0  0
  185.8010  177.9410  137.9370 C   0  0  0  0  0  2  0  0  0  0  0  0
  2  1  1  6  0  0  0
  2 11  1  0  0  0  0
  2  5  1  0  0  0  0
  3  9  1  0  0  0  0
  5 12  1  0  0  0  0
  6  7  1  0  0  0  0
  7  9  2  0  0  0  0
  8  6  2  0  0  0  0
  8 10  1  0  0  0  0
  9  4  1  0  0  0  0
 10  3  2  0  0  0  0
 11  8  1  0  0  0  0
 12 10  1  0  0  0  0
 13 16  2  0  0  0  0
 13 17  1  0  0  0  0
 14  1  1  0  0  0  0
 15 14  2  0  0  0  0
 16 15  1  0  0  0  0
 17 18  2  0  0  0  0
 18 14  1  0  0  0  0
 19  1  1  0  0  0  0
 20 24  2  0  0  0  0
 20 27  1  0  0  0  0
 21 25  2  0  0  0  0
 22 21  1  0  0  0  0
 23 26  2  0  0  0  0
 23 19  1  0  0  0  0
 24 21  1  0  0  0  0
 25 26  1  0  0  0  0
 27 23  1  0  0  0  0
M  END
>  <MODEL>
6

>  <REMARK>
 VINA RESULT:      -8.7      3.134      6.112
  Name = 
  4 active torsions:
  status: ('A' for Active; 'I' for Inactive)
    1  A    between atoms: N_1  and  N_15
    2  A    between atoms: N_1  and  C_18
    3  A    between atoms: C_2  and  N_15
    4  A    between atoms: C_9  and  N_15
                            x       y       z     vdW  Elec       q    Type
                         _______ _______ _______ _____ _____    ______ ____

>  <TORSDO>
F 4

$$$$
=
 OpenBabel10262420073D

 27 30  0  0  1  0  0  0  0  0999 V2000
  187.7170  178.1230  140.7690 N   0  0  0  0  0  0  0  0  0  0  0  0
  188.0920  177.7070  142.1270 C   0  0  1  0  0  3  0  0  0  0  0  0
  189.1510  177.4860  146.2430 C   0  0  0  0  0  3  0  0  0  0  0  0
  188.5220  177.2520  148.5290 F   0  0  0  0  0  0  0  0  0  0  0  0
  189.4310  178.3000  142.5530 C   0  0  0  0  0  2  0  0  0  0  0  0
  186.4520  177.7190  145.5520 C   0  0  0  0  0  3  0  0  0  0  0  0
  186.8190  177.5440  146.8890 C   0  0  0  0  0  3  0  0  0  0  0  0
  187.4270  177.7690  144.5520 C   0  0  0  0  0  0  0  0  0  0  0  0
  188.1680  177.4270  147.2340 C   0  0  0  0  0  0  0  0  0  0  0  0
  188.7940  177.6730  144.9040 C   0  0  0  0  0  0  0  0  0  0  0  0
  186.9930  178.0300  143.1380 C   0  0  0  0  0  2  0  0  0  0  0  0
  189.8760  177.6550  143.8620 C   0  0  0  0  0  2  0  0  0  0  0  0
  190.0880  177.1880  137.3550 C   0  0  0  0  0  3  0  0  0  0  0  0
  188.5270  177.7970  139.6160 C   0  0  0  0  0  0  0  0  0  0  0  0
  189.2820  176.6110  139.5620 C   0  0  0  0  0  3  0  0  0  0  0  0
  190.0570  176.3100  138.4400 C   0  0  0  0  0  3  0  0  0  0  0  0
  189.3420  178.3690  137.3930 C   0  0  0  0  0  3  0  0  0  0  0  0
  188.5680  178.6700  138.5170 C   0  0  0  0  0  3  0  0  0  0  0  0
  186.6320  179.0050  140.5910 N   0  0  0  0  0  2  0  0  0  0  0  0
  184.4790  177.4370  138.1380 C   0  0  0  0  0  3  0  0  0  0  0  0
  182.5300  177.3220  139.6970 C   0  0  0  0  0  0  0  0  0  0  0  0
  181.1780  177.0090  139.6610 O   0  0  0  0  0  1  0  0  0  0  0  0
  185.3260  178.6330  140.1270 C   0  0  0  0  0  0  0  0  0  0  0  0
  183.3720  176.8430  138.5820 C   0  0  0  0  0  3  0  0  0  0  0  0
  182.9950  177.9730  140.7720 C   0  0  0  0  0  3  0  0  0  0  0  0
  184.3910  178.3740  141.0420 C   0  0  0  0  0  3  0  0  0  0  0  0
  184.9740  178.7360  138.6760 C   0  0  0  0  0  2  0  0  0  0  0  0
  2  1  1  6  0  0  0
  2  5  1  0  0  0  0
  2 11  1  0  0  0  0
  3  9  1  0  0  0  0
  5 12  1  0  0  0  0
  6  7  1  0  0  0  0
  7  9  2  0  0  0  0
  8 10  1  0  0  0  0
  8  6  2  0  0  0  0
  9  4  1  0  0  0  0
 10  3  2  0  0  0  0
 11  8  1  0  0  0  0
 12 10  1  0  0  0  0
 13 17  2  0  0  0  0
 13 16  1  0  0  0  0
 14  1  1  0  0  0  0
 15 14  1  0  0  0  0
 16 15  2  0  0  0  0
 17 18  1  0  0  0  0
 18 14  2  0  0  0  0
 19  1  1  0  0  0  0
 20 24  2  0  0  0  0
 20 27  1  0  0  0  0
 21 25  2  0  0  0  0
 22 21  1  0  0  0  0
 23 19  1  0  0  0  0
 23 26  2  0  0  0  0
 24 21  1  0  0  0  0
 25 26  1  0  0  0  0
 27 23  1  0  0  0  0
M  END
>  <MODEL>
7

>  <REMARK>
 VINA RESULT:      -8.6      1.695      2.567
  Name = 
  4 active torsions:
  status: ('A' for Active; 'I' for Inactive)
    1  A    between atoms: N_1  and  N_15
    2  A    between atoms: N_1  and  C_18
    3  A    between atoms: C_2  and  N_15
    4  A    between atoms: C_9  and  N_15
                            x       y       z     vdW  Elec       q    Type
                         _______ _______ _______ _____ _____    ______ ____

>  <TORSDO>
F 4

$$$$
=
 OpenBabel10262420073D

 27 30  0  0  1  0  0  0  0  0999 V2000
  187.7720  177.6680  144.4840 N   0  0  0  0  0  0  0  0  0  0  0  0
  188.8850  177.8760  143.5470 C   0  0  1  0  0  3  0  0  0  0  0  0
  192.2600  177.5030  140.9840 C   0  0  0  0  0  3  0  0  0  0  0  0
  193.1790  177.1110  138.8200 F   0  0  0  0  0  0  0  0  0  0  0  0
  190.2320  177.5460  144.1820 C   0  0  0  0  0  2  0  0  0  0  0  0
  189.7400  176.7780  140.0140 C   0  0  0  0  0  3  0  0  0  0  0  0
  190.8480  176.7600  139.1630 C   0  0  0  0  0  3  0  0  0  0  0  0
  189.8810  177.1660  141.3500 C   0  0  0  0  0  0  0  0  0  0  0  0
  192.1070  177.1230  139.6470 C   0  0  0  0  0  0  0  0  0  0  0  0
  191.1590  177.5120  141.8450 C   0  0  0  0  0  0  0  0  0  0  0  0
  188.6770  177.1020  142.2460 C   0  0  0  0  0  2  0  0  0  0  0  0
  191.3540  177.9990  143.2530 C   0  0  0  0  0  2  0  0  0  0  0  0
  188.3050  177.9750  148.6990 C   0  0  0  0  0  3  0  0  0  0  0  0
  187.9440  177.7800  145.9150 C   0  0  0  0  0  0  0  0  0  0  0  0
  187.0380  178.5070  146.7080 C   0  0  0  0  0  3  0  0  0  0  0  0
  187.2180  178.6040  148.0900 C   0  0  0  0  0  3  0  0  0  0  0  0
  189.2130  177.2490  147.9260 C   0  0  0  0  0  3  0  0  0  0  0  0
  189.0330  177.1530  146.5430 C   0  0  0  0  0  3  0  0  0  0  0  0
  186.5410  177.1810  143.9990 N   0  0  0  0  0  2  0  0  0  0  0  0
  184.1990  178.3320  141.4890 C   0  0  0  0  0  3  0  0  0  0  0  0
  182.6020  179.2450  143.1780 C   0  0  0  0  0  0  0  0  0  0  0  0
  181.4470  180.0150  143.2180 O   0  0  0  0  0  1  0  0  0  0  0  0
  185.4240  177.9910  143.6070 C   0  0  0  0  0  0  0  0  0  0  0  0
  182.9620  178.6210  141.8890 C   0  0  0  0  0  3  0  0  0  0  0  0
  183.2710  179.0590  144.3240 C   0  0  0  0  0  3  0  0  0  0  0  0
  184.4930  178.2530  144.5260 C   0  0  0  0  0  3  0  0  0  0  0  0
  185.4110  178.6850  142.2820 C   0  0  0  0  0  2  0  0  0  0  0  0
  1 14  1  0  0  0  0
  2  5  1  0  0  0  0
  2  1  1  1  0  0  0
  3 10  1  0  0  0  0
  4  9  1  0  0  0  0
  6  8  1  0  0  0  0
  7  9  1  0  0  0  0
  7  6  2  0  0  0  0
  8 10  2  0  0  0  0
  8 11  1  0  0  0  0
  9  3  2  0  0  0  0
 10 12  1  0  0  0  0
 11  2  1  0  0  0  0
 12  5  1  0  0  0  0
 14 18  2  0  0  0  0
 14 15  1  0  0  0  0
 15 16  2  0  0  0  0
 16 13  1  0  0  0  0
 17 13  2  0  0  0  0
 18 17  1  0  0  0  0
 19  1  1  0  0  0  0
 20 24  2  0  0  0  0
 20 27  1  0  0  0  0
 21 22  1  0  0  0  0
 21 25  2  0  0  0  0
 23 19  1  0  0  0  0
 23 26  2  0  0  0  0
 24 21  1  0  0  0  0
 25 26  1  0  0  0  0
 27 23  1  0  0  0  0
M  END
>  <MODEL>
8

>  <REMARK>
 VINA RESULT:      -8.6      2.469      5.752
  Name = 
  4 active torsions:
  status: ('A' for Active; 'I' for Inactive)
    1  A    between atoms: N_1  and  N_15
    2  A    between atoms: N_1  and  C_18
    3  A    between atoms: C_2  and  N_15
    4  A    between atoms: C_9  and  N_15
                            x       y       z     vdW  Elec       q    Type
                         _______ _______ _______ _____ _____    ______ ____

>  <TORSDO>
F 4

$$$$
=
 OpenBabel10262420073D

 27 30  0  0  1  0  0  0  0  0999 V2000
  188.0160  178.3000  141.8250 N   0  0  0  0  0  0  0  0  0  0  0  0
  188.8870  177.5900  142.7710 C   0  0  1  0  0  3  0  0  0  0  0  0
  191.6980  176.4600  145.7600 C   0  0  0  0  0  3  0  0  0  0  0  0
  192.2010  175.9190  148.0250 F   0  0  0  0  0  0  0  0  0  0  0  0
  190.3620  177.8730  142.5080 C   0  0  0  0  0  2  0  0  0  0  0  0
  189.1310  177.2440  146.5450 C   0  0  0  0  0  3  0  0  0  0  0  0
  190.0400  176.7730  147.4960 C   0  0  0  0  0  3  0  0  0  0  0  0
  189.4940  177.3180  145.1970 C   0  0  0  0  0  0  0  0  0  0  0  0
  191.3230  176.3810  147.1040 C   0  0  0  0  0  0  0  0  0  0  0  0
  190.7990  176.9410  144.8030 C   0  0  0  0  0  0  0  0  0  0  0  0
  188.5100  177.8960  144.2200 C   0  0  0  0  0  2  0  0  0  0  0  0
  191.2170  176.9390  143.3600 C   0  0  0  0  0  2  0  0  0  0  0  0
  183.8150  178.6750  142.4200 C   0  0  0  0  0  3  0  0  0  0  0  0
  186.5910  178.4210  142.0370 C   0  0  0  0  0  0  0  0  0  0  0  0
  186.0040  178.0990  143.2740 C   0  0  0  0  0  3  0  0  0  0  0  0
  184.6250  178.2240  143.4640 C   0  0  0  0  0  3  0  0  0  0  0  0
  184.3830  179.0000  141.1860 C   0  0  0  0  0  3  0  0  0  0  0  0
  185.7620  178.8730  140.9970 C   0  0  0  0  0  3  0  0  0  0  0  0
  188.5440  178.7340  140.5910 N   0  0  0  0  0  2  0  0  0  0  0  0
  188.0030  178.2260  137.0480 C   0  0  0  0  0  3  0  0  0  0  0  0
  189.6670  176.3690  136.9040 C   0  0  0  0  0  0  0  0  0  0  0  0
  190.0950  175.4150  135.9910 O   0  0  0  0  0  1  0  0  0  0  0  0
  188.6640  177.9300  139.4100 C   0  0  0  0  0  0  0  0  0  0  0  0
  188.9210  177.5310  136.3790 C   0  0  0  0  0  3  0  0  0  0  0  0
  190.0210  176.2120  138.1860 C   0  0  0  0  0  3  0  0  0  0  0  0
  189.7150  177.1140  139.3170 C   0  0  0  0  0  3  0  0  0  0  0  0
  187.5460  177.8580  138.4190 C   0  0  0  0  0  2  0  0  0  0  0  0
  1 14  1  0  0  0  0
  2  1  1  6  0  0  0
  2 11  1  0  0  0  0
  3  9  1  0  0  0  0
  5  2  1  0  0  0  0
  5 12  1  0  0  0  0
  6  7  1  0  0  0  0
  8  6  2  0  0  0  0
  9  7  2  0  0  0  0
  9  4  1  0  0  0  0
 10  8  1  0  0  0  0
 10  3  2  0  0  0  0
 11  8  1  0  0  0  0
 12 10  1  0  0  0  0
 13 16  1  0  0  0  0
 14 15  1  0  0  0  0
 15 16  2  0  0  0  0
 17 13  2  0  0  0  0
 18 17  1  0  0  0  0
 18 14  2  0  0  0  0
 19  1  1  0  0  0  0
 20 27  1  0  0  0  0
 21 25  2  0  0  0  0
 22 21  1  0  0  0  0
 23 19  1  0  0  0  0
 24 21  1  0  0  0  0
 24 20  2  0  0  0  0
 25 26  1  0  0  0  0
 26 23  2  0  0  0  0
 27 23  1  0  0  0  0
M  END
>  <MODEL>
9

>  <REMARK>
 VINA RESULT:      -8.5      2.115      4.839
  Name = 
  4 active torsions:
  status: ('A' for Active; 'I' for Inactive)
    1  A    between atoms: N_1  and  N_15
    2  A    between atoms: N_1  and  C_18
    3  A    between atoms: C_2  and  N_15
    4  A    between atoms: C_9  and  N_15
                            x       y       z     vdW  Elec       q    Type
                         _______ _______ _______ _____ _____    ______ ____

>  <TORSDO>
F 4

$$$$
