=
 OpenBabel10262422463D

 43 47  0  0  1  0  0  0  0  0999 V2000
  185.5720  177.5320  137.5930 C   0  0  0  0  0  0  0  0  0  0  0  0
  184.2650  177.6840  137.8490 C   0  0  0  0  0  3  0  0  0  0  0  0
  182.1970  176.8270  140.1930 C   0  0  0  0  0  2  0  0  0  0  0  0
  181.4880  178.9990  138.1310 C   0  0  2  0  0  3  0  0  0  0  0  0
  181.5750  179.3810  136.6260 C   0  0  1  0  0  3  0  0  0  0  0  0
  180.8260  177.3810  139.9090 C   0  0  0  0  0  0  0  0  0  0  0  0
  179.8470  177.1030  140.7690 C   0  0  0  0  0  2  0  0  0  0  0  0
  182.4010  176.8970  136.3170 C   0  0  2  0  0  3  0  0  0  0  0  0
  180.4610  177.9630  138.5650 C   0  0  1  0  0  3  0  0  0  0  0  0
  182.4380  175.5500  139.4440 C   0  0  0  0  0  3  0  0  0  0  0  0
  182.2940  178.3260  135.7550 C   0  0  1  0  0  3  0  0  0  0  0  0
  180.1590  179.4460  138.7010 C   0  0  0  0  0  2  0  0  0  0  0  0
  182.8420  174.2840  137.3850 C   0  0  0  0  0  2  0  0  0  0  0  0
  182.9430  175.5340  138.2100 C   0  0  0  0  0  0  0  0  0  0  0  0
  183.3450  174.5440  135.9510 C   0  0  0  0  0  2  0  0  0  0  0  0
  183.2160  176.7530  137.5150 N   0  0  0  0  0  0  0  0  0  0  0  0
  182.7450  175.8100  135.2910 C   0  0  0  0  0  2  0  0  0  0  0  0
  180.8390  178.7180  135.4500 C   0  0  1  0  0  3  0  0  0  0  0  0
  179.7580  177.7000  135.8210 C   0  0  0  0  0  2  0  0  0  0  0  0
  179.3290  176.9090  134.5950 C   0  0  0  0  0  2  0  0  0  0  0  0
  179.3620  175.2000  136.2620 O   0  0  0  0  0  1  0  0  0  0  0  0
  178.9310  175.4910  134.9680 C   0  0  0  0  0  2  0  0  0  0  0  0
  186.5000  178.5970  138.0900 C   0  0  0  0  0  2  0  0  0  0  0  0
  186.5300  178.3790  141.9870 C   0  0  0  0  0  0  0  0  0  0  0  0
  187.9010  177.8570  142.1530 C   0  0  0  0  0  0  0  0  0  0  0  0
  188.5570  177.5510  143.7510 Cl  0  0  0  0  0  0  0  0  0  0  0  0
  188.1590  177.8590  139.7220 C   0  0  0  0  0  3  0  0  0  0  0  0
  185.9570  178.6120  140.6170 C   0  0  0  0  0  2  0  0  0  0  0  0
  186.9210  178.3140  139.4950 C   0  0  0  0  0  0  0  0  0  0  0  0
  185.8210  178.6270  142.9980 O   0  0  0  0  0  0  0  0  0  0  0  0
  188.6590  177.6140  141.0850 C   0  0  0  0  0  3  0  0  0  0  0  0
  186.1130  176.4100  136.7490 C   0  0  1  0  0  3  0  0  0  0  0  0
  187.2050  176.9300  135.8080 C   0  0  1  0  0  3  0  0  0  0  0  0
  186.8370  178.1220  135.1660 O   0  0  0  0  0  1  0  0  0  0  0  0
  188.4740  177.0170  136.4210 O   0  0  0  0  0  0  0  0  0  0  0  0
  189.4160  176.3470  135.6240 C   0  0  0  0  0  2  0  0  0  0  0  0
  190.7310  176.2520  136.3670 C   0  0  0  0  0  2  0  0  0  0  0  0
  190.4890  175.6650  137.7410 C   0  0  0  0  0  2  0  0  0  0  0  0
  190.2020  174.3040  137.6200 O   0  0  0  0  0  1  0  0  0  0  0  0
  186.6070  175.3500  137.5620 O   0  0  0  0  0  0  0  0  0  0  0  0
  186.0910  172.9780  137.9310 N   0  0  0  0  0  1  0  0  0  0  0  0
  186.6270  174.0240  137.1260 C   0  0  0  0  0  0  0  0  0  0  0  0
  187.1170  173.7510  136.0000 O   0  0  0  0  0  0  0  0  0  0  0  0
  1  2  2  0  0  0  0
  1 23  1  0  0  0  0
  4  9  1  0  0  0  0
  4 12  1  1  0  0  0
  5  4  1  0  0  0  0
  6  3  1  0  0  0  0
  6  7  2  0  0  0  0
  8 16  1  0  0  0  0
  9 12  1  0  0  0  0
  9  6  1  0  0  0  0
 10  3  1  0  0  0  0
 11  8  1  0  0  0  0
 11  5  1  0  0  0  0
 13 14  1  0  0  0  0
 14 10  2  0  0  0  0
 15 13  1  0  0  0  0
 16  2  1  0  0  0  0
 16 14  1  0  0  0  0
 17 15  1  0  0  0  0
 17  8  1  0  0  0  0
 18 11  1  0  0  0  0
 18 19  1  0  0  0  0
 18  5  1  0  0  0  0
 20 22  1  0  0  0  0
 20 19  1  0  0  0  0
 22 21  1  0  0  0  0
 23 29  1  0  0  0  0
 24 25  1  0  0  0  0
 24 30  2  0  0  0  0
 25 26  1  0  0  0  0
 27 31  1  0  0  0  0
 28 24  1  0  0  0  0
 29 27  2  0  0  0  0
 29 28  1  0  0  0  0
 31 25  2  0  0  0  0
 32 40  1  0  0  0  0
 32  1  1  0  0  0  0
 33 35  1  0  0  0  0
 33 32  1  0  0  0  0
 34 33  1  0  0  0  0
 36 37  1  0  0  0  0
 36 35  1  0  0  0  0
 37 38  1  0  0  0  0
 39 38  1  0  0  0  0
 42 40  1  0  0  0  0
 42 41  1  0  0  0  0
 43 42  2  0  0  0  0
M  END
>  <MODEL>
1

>  <REMARK>
 VINA RESULT:      -4.5      0.000      0.000
  Name = 
  14 active torsions:
  status: ('A' for Active; 'I' for Inactive)
    1  A    between atoms: C_1  and  C_34
    2  A    between atoms: C_1  and  C_35
    3  A    between atoms: C_5  and  C_18
    4  A    between atoms: C_5  and  C_23
    5  A    between atoms: C_8  and  C_21
    6  A    between atoms: C_8  and  O_30
    7  A    between atoms: C_8  and  C_34
    8  A    between atoms: C_10  and  C_41
    9  A    between atoms: C_10  and  C_42
   10  A    between atoms: O_16  and  C_21
   11  A    between atoms: O_16  and  C_23
   12  A    between atoms: C_22  and  C_42
   13  A    between atoms: O_30  and  C_33
   14  A    between atoms: N_36  and  C_38
                            x       y       z     vdW  Elec       q    Type
                         _______ _______ _______ _____ _____    ______ ____

>  <TORSDO>
F 14

$$$$
=
 OpenBabel10262422463D

 43 47  0  0  1  0  0  0  0  0999 V2000
  183.5420  178.6490  140.4630 C   0  0  0  0  0  0  0  0  0  0  0  0
  183.3130  178.0360  139.2930 C   0  0  0  0  0  3  0  0  0  0  0  0
  181.5250  179.2760  136.8910 C   0  0  0  0  0  2  0  0  0  0  0  0
  183.5090  176.9740  136.4020 C   0  0  2  0  0  3  0  0  0  0  0  0
  184.0570  175.6410  136.9860 C   0  0  1  0  0  3  0  0  0  0  0  0
  181.5790  178.3800  135.6820 C   0  0  0  0  0  0  0  0  0  0  0  0
  180.8780  178.7350  134.6060 C   0  0  0  0  0  2  0  0  0  0  0  0
  182.0810  175.8940  138.7130 C   0  0  2  0  0  3  0  0  0  0  0  0
  182.1340  176.9770  135.7510 C   0  0  1  0  0  3  0  0  0  0  0  0
  180.5080  178.7980  137.8830 C   0  0  0  0  0  3  0  0  0  0  0  0
  183.4300  175.2490  138.3440 C   0  0  1  0  0  3  0  0  0  0  0  0
  183.3860  176.8670  134.8980 C   0  0  0  0  0  2  0  0  0  0  0  0
  179.7010  177.2180  139.5740 C   0  0  0  0  0  2  0  0  0  0  0  0
  180.8080  177.9180  138.8400 C   0  0  0  0  0  0  0  0  0  0  0  0
  180.2770  176.1400  140.5140 C   0  0  0  0  0  2  0  0  0  0  0  0
  182.1110  177.3350  138.9180 N   0  0  0  0  0  0  0  0  0  0  0  0
  181.3080  175.2010  139.8420 C   0  0  0  0  0  2  0  0  0  0  0  0
  183.3050  174.3080  137.1350 C   0  0  1  0  0  3  0  0  0  0  0  0
  181.9340  174.2290  136.4600 C   0  0  0  0  0  2  0  0  0  0  0  0
  181.4220  172.7980  136.4590 C   0  0  0  0  0  2  0  0  0  0  0  0
  182.9770  171.1540  135.6970 O   0  0  0  0  0  1  0  0  0  0  0  0
  182.5220  171.8200  136.8350 C   0  0  0  0  0  2  0  0  0  0  0  0
  184.8410  179.3780  140.6180 C   0  0  0  0  0  2  0  0  0  0  0  0
  188.2350  177.6350  139.7930 C   0  0  0  0  0  0  0  0  0  0  0  0
  188.0150  177.4320  138.3470 C   0  0  0  0  0  0  0  0  0  0  0  0
  189.2460  176.6770  137.3510 Cl  0  0  0  0  0  0  0  0  0  0  0  0
  185.8120  178.4650  138.5720 C   0  0  0  0  0  3  0  0  0  0  0  0
  187.1680  178.2530  140.6530 C   0  0  0  0  0  2  0  0  0  0  0  0
  185.9340  178.6650  139.8900 C   0  0  0  0  0  0  0  0  0  0  0  0
  189.3220  177.2840  140.3230 O   0  0  0  0  0  0  0  0  0  0  0  0
  186.8740  177.8220  137.7820 C   0  0  0  0  0  3  0  0  0  0  0  0
  182.6070  178.5420  141.6370 C   0  0  1  0  0  3  0  0  0  0  0  0
  183.3740  178.7440  142.9490 C   0  0  1  0  0  3  0  0  0  0  0  0
  182.5470  178.6310  144.0760 O   0  0  0  0  0  1  0  0  0  0  0  0
  184.5320  177.9420  143.0460 O   0  0  0  0  0  0  0  0  0  0  0  0
  185.4440  178.5570  143.9190 C   0  0  0  0  0  2  0  0  0  0  0  0
  186.1500  177.4990  144.7390 C   0  0  0  0  0  2  0  0  0  0  0  0
  187.6440  177.6050  144.5160 C   0  0  0  0  0  2  0  0  0  0  0  0
  188.2760  177.8760  145.7310 O   0  0  0  0  0  1  0  0  0  0  0  0
  181.5360  179.4740  141.5270 O   0  0  0  0  0  0  0  0  0  0  0  0
  179.8520  178.2860  142.8610 N   0  0  0  0  0  1  0  0  0  0  0  0
  180.4700  179.4940  142.4270 C   0  0  0  0  0  0  0  0  0  0  0  0
  180.0560  180.5960  142.8700 O   0  0  0  0  0  0  0  0  0  0  0  0
  1 23  1  0  0  0  0
  1 32  1  0  0  0  0
  2  1  2  0  0  0  0
  3 10  1  0  0  0  0
  4 12  1  6  0  0  0
  4  5  1  0  0  0  0
  5 18  1  0  0  0  0
  5 11  1  0  0  0  0
  6  9  1  0  0  0  0
  6  3  1  0  0  0  0
  7  6  2  0  0  0  0
  8 16  1  0  0  0  0
  8 17  1  0  0  0  0
  9  4  1  0  0  0  0
 10 14  2  0  0  0  0
 11  8  1  0  0  0  0
 12  9  1  0  0  0  0
 13 15  1  0  0  0  0
 14 16  1  0  0  0  0
 14 13  1  0  0  0  0
 16  2  1  0  0  0  0
 17 15  1  0  0  0  0
 18 11  1  0  0  0  0
 19 18  1  0  0  0  0
 20 19  1  0  0  0  0
 20 22  1  0  0  0  0
 21 22  1  0  0  0  0
 24 30  2  0  0  0  0
 24 28  1  0  0  0  0
 25 24  1  0  0  0  0
 26 25  1  0  0  0  0
 27 29  2  0  0  0  0
 29 23  1  0  0  0  0
 29 28  1  0  0  0  0
 31 25  2  0  0  0  0
 31 27  1  0  0  0  0
 32 33  1  0  0  0  0
 33 35  1  0  0  0  0
 33 34  1  0  0  0  0
 35 36  1  0  0  0  0
 36 37  1  0  0  0  0
 38 37  1  0  0  0  0
 38 39  1  0  0  0  0
 40 32  1  0  0  0  0
 40 42  1  0  0  0  0
 42 41  1  0  0  0  0
 42 43  2  0  0  0  0
M  END
>  <MODEL>
2

>  <REMARK>
 VINA RESULT:      -4.4      2.746      5.973
  Name = 
  14 active torsions:
  status: ('A' for Active; 'I' for Inactive)
    1  A    between atoms: C_1  and  C_34
    2  A    between atoms: C_1  and  C_35
    3  A    between atoms: C_5  and  C_18
    4  A    between atoms: C_5  and  C_23
    5  A    between atoms: C_8  and  C_21
    6  A    between atoms: C_8  and  O_30
    7  A    between atoms: C_8  and  C_34
    8  A    between atoms: C_10  and  C_41
    9  A    between atoms: C_10  and  C_42
   10  A    between atoms: O_16  and  C_21
   11  A    between atoms: O_16  and  C_23
   12  A    between atoms: C_22  and  C_42
   13  A    between atoms: O_30  and  C_33
   14  A    between atoms: N_36  and  C_38
                            x       y       z     vdW  Elec       q    Type
                         _______ _______ _______ _____ _____    ______ ____

>  <TORSDO>
F 14

$$$$
=
 OpenBabel10262422463D

 43 47  0  0  1  0  0  0  0  0999 V2000
  185.2540  177.9030  138.2970 C   0  0  0  0  0  0  0  0  0  0  0  0
  183.9240  178.0470  138.3940 C   0  0  0  0  0  3  0  0  0  0  0  0
  181.9880  175.8950  139.8520 C   0  0  0  0  0  2  0  0  0  0  0  0
  181.0740  178.7850  139.3160 C   0  0  2  0  0  3  0  0  0  0  0  0
  181.0920  179.9370  138.2700 C   0  0  1  0  0  3  0  0  0  0  0  0
  180.5750  176.4130  139.9020 C   0  0  0  0  0  0  0  0  0  0  0  0
  179.6420  175.6380  140.4540 C   0  0  0  0  0  2  0  0  0  0  0  0
  182.0750  178.0980  136.6570 C   0  0  2  0  0  3  0  0  0  0  0  0
  180.1330  177.6100  139.0940 C   0  0  1  0  0  3  0  0  0  0  0  0
  182.2940  175.2620  138.5280 C   0  0  0  0  0  3  0  0  0  0  0  0
  181.8560  179.5890  136.9720 C   0  0  1  0  0  3  0  0  0  0  0  0
  179.7350  178.7470  140.0190 C   0  0  0  0  0  2  0  0  0  0  0  0
  182.7240  175.3690  136.1180 C   0  0  0  0  0  2  0  0  0  0  0  0
  182.7640  175.9630  137.4950 C   0  0  0  0  0  0  0  0  0  0  0  0
  183.1660  176.4090  135.0700 C   0  0  0  0  0  2  0  0  0  0  0  0
  182.9330  177.3800  137.5890 N   0  0  0  0  0  0  0  0  0  0  0  0
  182.4630  177.7820  135.2070 C   0  0  0  0  0  2  0  0  0  0  0  0
  180.3690  179.9770  136.9130 C   0  0  1  0  0  3  0  0  0  0  0  0
  179.3710  178.8470  136.6480 C   0  0  0  0  0  2  0  0  0  0  0  0
  178.9310  178.8560  135.1930 C   0  0  0  0  0  2  0  0  0  0  0  0
  179.1590  176.5180  135.6200 O   0  0  0  0  0  1  0  0  0  0  0  0
  178.9310  177.4530  134.6100 C   0  0  0  0  0  2  0  0  0  0  0  0
  186.1020  178.6440  139.2830 C   0  0  0  0  0  2  0  0  0  0  0  0
  185.4640  178.2830  143.1160 C   0  0  0  0  0  0  0  0  0  0  0  0
  184.0300  178.6340  143.1200 C   0  0  0  0  0  0  0  0  0  0  0  0
  183.1110  178.6350  144.6140 Cl  0  0  0  0  0  0  0  0  0  0  0  0
  184.1410  178.9640  140.7000 C   0  0  0  0  0  3  0  0  0  0  0  0
  186.2590  178.3120  141.8410 C   0  0  0  0  0  2  0  0  0  0  0  0
  185.4450  178.6750  140.6240 C   0  0  0  0  0  0  0  0  0  0  0  0
  186.0390  177.9610  144.1900 O   0  0  0  0  0  0  0  0  0  0  0  0
  183.4170  178.9550  141.9810 C   0  0  0  0  0  3  0  0  0  0  0  0
  185.9110  177.1250  137.1890 C   0  0  1  0  0  3  0  0  0  0  0  0
  187.1120  177.8990  136.6350 C   0  0  1  0  0  3  0  0  0  0  0  0
  186.9930  179.2840  136.8250 O   0  0  0  0  0  1  0  0  0  0  0  0
  188.3530  177.3970  137.0840 O   0  0  0  0  0  0  0  0  0  0  0  0
  189.0990  178.4480  137.6420 C   0  0  0  0  0  2  0  0  0  0  0  0
  190.3790  177.9000  138.2350 C   0  0  0  0  0  2  0  0  0  0  0  0
  190.1150  177.4310  139.6510 C   0  0  0  0  0  2  0  0  0  0  0  0
  190.4370  176.0770  139.7570 O   0  0  0  0  0  1  0  0  0  0  0  0
  186.3040  175.8310  137.6340 O   0  0  0  0  0  0  0  0  0  0  0  0
  186.4460  174.8070  135.4060 N   0  0  0  0  0  1  0  0  0  0  0  0
  186.2290  174.7060  136.8110 C   0  0  0  0  0  0  0  0  0  0  0  0
  185.9750  173.5830  137.3200 O   0  0  0  0  0  0  0  0  0  0  0  0
  1  2  2  0  0  0  0
  1 23  1  0  0  0  0
  3  6  1  0  0  0  0
  4 12  1  1  0  0  0
  5  4  1  0  0  0  0
  6  7  2  0  0  0  0
  8 11  1  0  0  0  0
  8 16  1  0  0  0  0
  9  4  1  0  0  0  0
  9  6  1  0  0  0  0
  9 12  1  0  0  0  0
 10  3  1  0  0  0  0
 11  5  1  0  0  0  0
 13 14  1  0  0  0  0
 14 16  1  0  0  0  0
 14 10  2  0  0  0  0
 15 17  1  0  0  0  0
 15 13  1  0  0  0  0
 16  2  1  0  0  0  0
 17  8  1  0  0  0  0
 18 11  1  0  0  0  0
 18  5  1  0  0  0  0
 19 18  1  0  0  0  0
 20 19  1  0  0  0  0
 22 20  1  0  0  0  0
 22 21  1  0  0  0  0
 23 29  1  0  0  0  0
 24 25  1  0  0  0  0
 24 30  2  0  0  0  0
 25 26  1  0  0  0  0
 27 31  1  0  0  0  0
 28 24  1  0  0  0  0
 29 27  2  0  0  0  0
 29 28  1  0  0  0  0
 31 25  2  0  0  0  0
 32 40  1  0  0  0  0
 32  1  1  0  0  0  0
 33 34  1  0  0  0  0
 33 35  1  0  0  0  0
 33 32  1  0  0  0  0
 35 36  1  0  0  0  0
 36 37  1  0  0  0  0
 37 38  1  0  0  0  0
 38 39  1  0  0  0  0
 41 42  1  0  0  0  0
 42 43  2  0  0  0  0
 42 40  1  0  0  0  0
M  END
>  <MODEL>
3

>  <REMARK>
 VINA RESULT:      -4.1      1.703      2.191
  Name = 
  14 active torsions:
  status: ('A' for Active; 'I' for Inactive)
    1  A    between atoms: C_1  and  C_34
    2  A    between atoms: C_1  and  C_35
    3  A    between atoms: C_5  and  C_18
    4  A    between atoms: C_5  and  C_23
    5  A    between atoms: C_8  and  C_21
    6  A    between atoms: C_8  and  O_30
    7  A    between atoms: C_8  and  C_34
    8  A    between atoms: C_10  and  C_41
    9  A    between atoms: C_10  and  C_42
   10  A    between atoms: O_16  and  C_21
   11  A    between atoms: O_16  and  C_23
   12  A    between atoms: C_22  and  C_42
   13  A    between atoms: O_30  and  C_33
   14  A    between atoms: N_36  and  C_38
                            x       y       z     vdW  Elec       q    Type
                         _______ _______ _______ _____ _____    ______ ____

>  <TORSDO>
F 14

$$$$
=
 OpenBabel10262422463D

 43 47  0  0  1  0  0  0  0  0999 V2000
  182.6540  178.8760  140.5500 C   0  0  0  0  0  0  0  0  0  0  0  0
  182.6950  177.8910  139.6410 C   0  0  0  0  0  3  0  0  0  0  0  0
  181.2810  179.0640  136.9720 C   0  0  0  0  0  2  0  0  0  0  0  0
  183.3230  176.7650  136.8380 C   0  0  2  0  0  3  0  0  0  0  0  0
  183.7820  175.4480  137.5280 C   0  0  1  0  0  3  0  0  0  0  0  0
  181.5180  178.1400  135.8060 C   0  0  0  0  0  0  0  0  0  0  0  0
  180.9840  178.4660  134.6290 C   0  0  0  0  0  2  0  0  0  0  0  0
  181.5700  175.7280  138.9350 C   0  0  2  0  0  3  0  0  0  0  0  0
  182.0600  176.7440  135.9890 C   0  0  1  0  0  3  0  0  0  0  0  0
  180.1290  178.6010  137.8120 C   0  0  0  0  0  3  0  0  0  0  0  0
  182.9610  175.0840  138.7860 C   0  0  1  0  0  3  0  0  0  0  0  0
  183.4260  176.6220  135.3350 C   0  0  0  0  0  2  0  0  0  0  0  0
  179.0840  177.0550  139.4010 C   0  0  0  0  0  2  0  0  0  0  0  0
  180.2850  177.7460  138.8240 C   0  0  0  0  0  0  0  0  0  0  0  0
  179.5170  176.0030  140.4410 C   0  0  0  0  0  2  0  0  0  0  0  0
  181.5650  177.1740  139.1080 N   0  0  0  0  0  0  0  0  0  0  0  0
  180.6400  175.0560  139.9520 C   0  0  0  0  0  2  0  0  0  0  0  0
  183.0210  174.1140  137.5940 C   0  0  1  0  0  3  0  0  0  0  0  0
  181.7660  174.0110  136.7250 C   0  0  0  0  0  2  0  0  0  0  0  0
  181.3770  172.5550  136.5220 C   0  0  0  0  0  2  0  0  0  0  0  0
  179.3840  171.3060  136.9350 O   0  0  0  0  0  1  0  0  0  0  0  0
  180.3430  172.1150  137.5450 C   0  0  0  0  0  2  0  0  0  0  0  0
  183.9490  179.5320  140.9160 C   0  0  0  0  0  2  0  0  0  0  0  0
  184.3690  178.7860  144.7240 C   0  0  0  0  0  0  0  0  0  0  0  0
  185.6320  178.0240  144.6460 C   0  0  0  0  0  0  0  0  0  0  0  0
  186.3930  177.3990  146.0980 Cl  0  0  0  0  0  0  0  0  0  0  0  0
  185.6150  178.3120  142.2190 C   0  0  0  0  0  3  0  0  0  0  0  0
  183.7010  179.2950  143.4780 C   0  0  0  0  0  2  0  0  0  0  0  0
  184.4630  178.9940  142.2110 C   0  0  0  0  0  0  0  0  0  0  0  0
  183.8340  179.0090  145.8420 O   0  0  0  0  0  0  0  0  0  0  0  0
  186.2090  177.8050  143.4660 C   0  0  0  0  0  3  0  0  0  0  0  0
  181.3940  179.2620  141.2770 C   0  0  1  0  0  3  0  0  0  0  0  0
  180.4520  180.0250  140.3410 C   0  0  1  0  0  3  0  0  0  0  0  0
  179.2130  180.3050  140.9370 O   0  0  0  0  0  1  0  0  0  0  0  0
  181.0450  181.1700  139.7650 O   0  0  0  0  0  0  0  0  0  0  0  0
  180.0580  181.9100  139.0940 C   0  0  0  0  0  2  0  0  0  0  0  0
  180.6930  182.6850  137.9590 C   0  0  0  0  0  2  0  0  0  0  0  0
  179.6570  183.5940  137.3310 C   0  0  0  0  0  2  0  0  0  0  0  0
  180.1590  184.1120  136.1360 O   0  0  0  0  0  1  0  0  0  0  0  0
  180.7470  178.1180  141.8260 O   0  0  0  0  0  0  0  0  0  0  0  0
  180.1950  179.2960  143.9080 N   0  0  0  0  0  1  0  0  0  0  0  0
  180.1960  178.1170  143.1080 C   0  0  0  0  0  0  0  0  0  0  0  0
  179.6820  177.0620  143.5590 O   0  0  0  0  0  0  0  0  0  0  0  0
  1 23  1  0  0  0  0
  1 32  1  0  0  0  0
  2  1  2  0  0  0  0
  3 10  1  0  0  0  0
  4 12  1  6  0  0  0
  4  5  1  0  0  0  0
  5 18  1  0  0  0  0
  5 11  1  0  0  0  0
  6  9  1  0  0  0  0
  6  3  1  0  0  0  0
  7  6  2  0  0  0  0
  8 16  1  0  0  0  0
  8 17  1  0  0  0  0
  9  4  1  0  0  0  0
 10 14  2  0  0  0  0
 11  8  1  0  0  0  0
 12  9  1  0  0  0  0
 13 15  1  0  0  0  0
 14 16  1  0  0  0  0
 14 13  1  0  0  0  0
 16  2  1  0  0  0  0
 17 15  1  0  0  0  0
 18 11  1  0  0  0  0
 19 18  1  0  0  0  0
 20 19  1  0  0  0  0
 20 22  1  0  0  0  0
 21 22  1  0  0  0  0
 23 29  1  0  0  0  0
 24 30  2  0  0  0  0
 25 24  1  0  0  0  0
 25 26  1  0  0  0  0
 27 31  1  0  0  0  0
 28 24  1  0  0  0  0
 29 27  2  0  0  0  0
 29 28  1  0  0  0  0
 31 25  2  0  0  0  0
 32 40  1  0  0  0  0
 33 34  1  0  0  0  0
 33 32  1  0  0  0  0
 35 33  1  0  0  0  0
 36 35  1  0  0  0  0
 37 36  1  0  0  0  0
 38 37  1  0  0  0  0
 39 38  1  0  0  0  0
 40 42  1  0  0  0  0
 42 43  2  0  0  0  0
 42 41  1  0  0  0  0
M  END
>  <MODEL>
4

>  <REMARK>
 VINA RESULT:      -3.4      4.159      6.647
  Name = 
  14 active torsions:
  status: ('A' for Active; 'I' for Inactive)
    1  A    between atoms: C_1  and  C_34
    2  A    between atoms: C_1  and  C_35
    3  A    between atoms: C_5  and  C_18
    4  A    between atoms: C_5  and  C_23
    5  A    between atoms: C_8  and  C_21
    6  A    between atoms: C_8  and  O_30
    7  A    between atoms: C_8  and  C_34
    8  A    between atoms: C_10  and  C_41
    9  A    between atoms: C_10  and  C_42
   10  A    between atoms: O_16  and  C_21
   11  A    between atoms: O_16  and  C_23
   12  A    between atoms: C_22  and  C_42
   13  A    between atoms: O_30  and  C_33
   14  A    between atoms: N_36  and  C_38
                            x       y       z     vdW  Elec       q    Type
                         _______ _______ _______ _____ _____    ______ ____

>  <TORSDO>
F 14

$$$$
=
 OpenBabel10262422463D

 43 47  0  0  1  0  0  0  0  0999 V2000
  184.2620  178.6330  139.6520 C   0  0  0  0  0  0  0  0  0  0  0  0
  183.4330  178.2960  138.6530 C   0  0  0  0  0  3  0  0  0  0  0  0
  180.9750  179.8720  137.2480 C   0  0  0  0  0  2  0  0  0  0  0  0
  182.3030  177.4370  135.9130 C   0  0  2  0  0  3  0  0  0  0  0  0
  182.8840  176.0180  136.1780 C   0  0  1  0  0  3  0  0  0  0  0  0
  180.4250  179.0670  136.1000 C   0  0  0  0  0  0  0  0  0  0  0  0
  179.3910  179.5650  135.4230 C   0  0  0  0  0  2  0  0  0  0  0  0
  181.8330  176.3280  138.5760 C   0  0  2  0  0  3  0  0  0  0  0  0
  180.7920  177.6180  135.8920 C   0  0  1  0  0  3  0  0  0  0  0  0
  180.4060  179.4190  138.5580 C   0  0  0  0  0  3  0  0  0  0  0  0
  182.8270  175.5880  137.6620 C   0  0  1  0  0  3  0  0  0  0  0  0
  181.5630  177.4540  134.5940 C   0  0  0  0  0  2  0  0  0  0  0  0
  180.1850  177.8010  140.3860 C   0  0  0  0  0  2  0  0  0  0  0  0
  180.9670  178.4470  139.2790 C   0  0  0  0  0  0  0  0  0  0  0  0
  180.9670  176.6070  140.9710 C   0  0  0  0  0  2  0  0  0  0  0  0
  182.1110  177.7400  138.7910 N   0  0  0  0  0  0  0  0  0  0  0  0
  181.5150  175.6280  139.9040 C   0  0  0  0  0  2  0  0  0  0  0  0
  182.1090  174.7550  136.5870 C   0  0  1  0  0  3  0  0  0  0  0  0
  180.5830  174.8550  136.5410 C   0  0  0  0  0  2  0  0  0  0  0  0
  179.9700  173.5040  136.2070 C   0  0  0  0  0  2  0  0  0  0  0  0
  179.5830  171.3230  137.0990 O   0  0  0  0  0  1  0  0  0  0  0  0
  179.8000  172.6540  137.4550 C   0  0  0  0  0  2  0  0  0  0  0  0
  185.5700  179.2590  139.2820 C   0  0  0  0  0  2  0  0  0  0  0  0
  186.9420  176.4520  136.9430 C   0  0  0  0  0  0  0  0  0  0  0  0
  188.2460  176.2510  137.6060 C   0  0  0  0  0  0  0  0  0  0  0  0
  189.3760  175.0470  137.0150 Cl  0  0  0  0  0  0  0  0  0  0  0  0
  187.6630  178.0030  139.2070 C   0  0  0  0  0  3  0  0  0  0  0  0
  185.9860  177.5040  137.4300 C   0  0  0  0  0  2  0  0  0  0  0  0
  186.4730  178.2530  138.6460 C   0  0  0  0  0  0  0  0  0  0  0  0
  186.6210  175.7440  135.9510 O   0  0  0  0  0  0  0  0  0  0  0  0
  188.5770  176.9850  138.6670 C   0  0  0  0  0  3  0  0  0  0  0  0
  183.9730  178.3120  141.0930 C   0  0  1  0  0  3  0  0  0  0  0  0
  185.2700  178.3190  141.9100 C   0  0  1  0  0  3  0  0  0  0  0  0
  185.7310  179.6170  142.1740 O   0  0  0  0  0  1  0  0  0  0  0  0
  185.1980  177.5240  143.0750 O   0  0  0  0  0  0  0  0  0  0  0  0
  185.8950  178.1660  144.1120 C   0  0  0  0  0  2  0  0  0  0  0  0
  186.7490  177.1550  144.8470 C   0  0  0  0  0  2  0  0  0  0  0  0
  188.1610  177.2010  144.3020 C   0  0  0  0  0  2  0  0  0  0  0  0
  189.0300  177.6370  145.3040 O   0  0  0  0  0  1  0  0  0  0  0  0
  183.0240  179.2220  141.6410 O   0  0  0  0  0  0  0  0  0  0  0  0
  183.0820  180.0980  143.9340 N   0  0  0  0  0  1  0  0  0  0  0  0
  182.6120  179.1570  142.9730 C   0  0  0  0  0  0  0  0  0  0  0  0
  181.8060  178.2590  143.3280 O   0  0  0  0  0  0  0  0  0  0  0  0
  1 32  1  0  0  0  0
  2 16  1  0  0  0  0
  2  1  2  0  0  0  0
  3 10  1  0  0  0  0
  4 12  1  6  0  0  0
  4  5  1  0  0  0  0
  5 18  1  0  0  0  0
  5 11  1  0  0  0  0
  6  3  1  0  0  0  0
  7  6  2  0  0  0  0
  8 16  1  0  0  0  0
  8 17  1  0  0  0  0
  9  4  1  0  0  0  0
  9  6  1  0  0  0  0
 10 14  2  0  0  0  0
 11  8  1  0  0  0  0
 12  9  1  0  0  0  0
 13 15  1  0  0  0  0
 14 13  1  0  0  0  0
 16 14  1  0  0  0  0
 17 15  1  0  0  0  0
 18 11  1  0  0  0  0
 19 18  1  0  0  0  0
 20 19  1  0  0  0  0
 20 22  1  0  0  0  0
 21 22  1  0  0  0  0
 23  1  1  0  0  0  0
 24 28  1  0  0  0  0
 24 25  1  0  0  0  0
 25 31  2  0  0  0  0
 26 25  1  0  0  0  0
 28 29  1  0  0  0  0
 29 27  2  0  0  0  0
 29 23  1  0  0  0  0
 30 24  2  0  0  0  0
 31 27  1  0  0  0  0
 32 40  1  0  0  0  0
 32 33  1  0  0  0  0
 33 34  1  0  0  0  0
 33 35  1  0  0  0  0
 35 36  1  0  0  0  0
 36 37  1  0  0  0  0
 38 37  1  0  0  0  0
 38 39  1  0  0  0  0
 40 42  1  0  0  0  0
 42 43  2  0  0  0  0
 42 41  1  0  0  0  0
M  END
>  <MODEL>
5

>  <REMARK>
 VINA RESULT:      -3.3      2.505      5.556
  Name = 
  14 active torsions:
  status: ('A' for Active; 'I' for Inactive)
    1  A    between atoms: C_1  and  C_34
    2  A    between atoms: C_1  and  C_35
    3  A    between atoms: C_5  and  C_18
    4  A    between atoms: C_5  and  C_23
    5  A    between atoms: C_8  and  C_21
    6  A    between atoms: C_8  and  O_30
    7  A    between atoms: C_8  and  C_34
    8  A    between atoms: C_10  and  C_41
    9  A    between atoms: C_10  and  C_42
   10  A    between atoms: O_16  and  C_21
   11  A    between atoms: O_16  and  C_23
   12  A    between atoms: C_22  and  C_42
   13  A    between atoms: O_30  and  C_33
   14  A    between atoms: N_36  and  C_38
                            x       y       z     vdW  Elec       q    Type
                         _______ _______ _______ _____ _____    ______ ____

>  <TORSDO>
F 14

$$$$
=
 OpenBabel10262422463D

 43 47  0  0  1  0  0  0  0  0999 V2000
  183.2690  177.6470  139.0020 C   0  0  0  0  0  0  0  0  0  0  0  0
  184.0350  176.7180  138.4120 C   0  0  0  0  0  3  0  0  0  0  0  0
  186.9240  176.6350  136.9470 C   0  0  0  0  0  2  0  0  0  0  0  0
  185.5260  174.0640  137.9020 C   0  0  2  0  0  3  0  0  0  0  0  0
  184.1530  173.3380  137.9910 C   0  0  1  0  0  3  0  0  0  0  0  0
  187.2660  175.2240  136.5440 C   0  0  0  0  0  0  0  0  0  0  0  0
  188.4180  175.0160  135.9080 C   0  0  0  0  0  2  0  0  0  0  0  0
  183.3170  175.2960  136.4360 C   0  0  2  0  0  3  0  0  0  0  0  0
  186.2400  174.1180  136.5590 C   0  0  1  0  0  3  0  0  0  0  0  0
  186.0310  177.2910  135.9380 C   0  0  0  0  0  3  0  0  0  0  0  0
  182.9750  174.1560  137.4130 C   0  0  1  0  0  3  0  0  0  0  0  0
  186.6180  173.0660  137.5890 C   0  0  0  0  0  2  0  0  0  0  0  0
  183.8780  177.5700  134.8000 C   0  0  0  0  0  2  0  0  0  0  0  0
  184.7010  177.2010  136.0000 C   0  0  0  0  0  0  0  0  0  0  0  0
  182.3920  177.2380  135.0450 C   0  0  0  0  0  2  0  0  0  0  0  0
  184.0670  176.4060  137.0060 N   0  0  0  0  0  0  0  0  0  0  0  0
  182.1450  175.8100  135.5900 C   0  0  0  0  0  2  0  0  0  0  0  0
  183.3180  172.7760  136.8280 C   0  0  1  0  0  3  0  0  0  0  0  0
  183.9980  172.7560  135.4580 C   0  0  0  0  0  2  0  0  0  0  0  0
  184.0820  171.3340  134.9250 C   0  0  0  0  0  2  0  0  0  0  0  0
  186.4380  170.9630  134.8250 O   0  0  0  0  0  1  0  0  0  0  0  0
  185.2770  170.5990  135.5070 C   0  0  0  0  0  2  0  0  0  0  0  0
  183.4440  177.8510  140.4750 C   0  0  0  0  0  2  0  0  0  0  0  0
  186.7860  177.9270  142.4900 C   0  0  0  0  0  0  0  0  0  0  0  0
  187.6800  178.3390  141.3890 C   0  0  0  0  0  0  0  0  0  0  0  0
  189.3940  178.5810  141.6700 Cl  0  0  0  0  0  0  0  0  0  0  0  0
  185.7590  178.3500  139.8790 C   0  0  0  0  0  3  0  0  0  0  0  0
  185.3220  177.6900  142.2430 C   0  0  0  0  0  2  0  0  0  0  0  0
  184.8930  177.9600  140.8220 C   0  0  0  0  0  0  0  0  0  0  0  0
  187.2470  177.7620  143.6510 O   0  0  0  0  0  0  0  0  0  0  0  0
  187.1900  178.5330  140.1660 C   0  0  0  0  0  3  0  0  0  0  0  0
  182.1890  178.3980  138.2710 C   0  0  1  0  0  3  0  0  0  0  0  0
  180.8070  177.9480  138.7550 C   0  0  1  0  0  3  0  0  0  0  0  0
  180.1170  177.2010  137.7890 O   0  0  0  0  0  1  0  0  0  0  0  0
  180.8380  177.3060  140.0130 O   0  0  0  0  0  0  0  0  0  0  0  0
  179.6340  176.6100  140.2030 C   0  0  0  0  0  2  0  0  0  0  0  0
  179.9320  175.2170  140.7170 C   0  0  0  0  0  2  0  0  0  0  0  0
  178.9490  174.2380  140.1110 C   0  0  0  0  0  2  0  0  0  0  0  0
  179.2110  174.1020  138.7470 O   0  0  0  0  0  1  0  0  0  0  0  0
  182.3480  179.8050  138.4260 O   0  0  0  0  0  0  0  0  0  0  0  0
  180.4950  180.6310  137.0430 N   0  0  0  0  0  1  0  0  0  0  0  0
  181.2980  180.7000  138.2190 C   0  0  0  0  0  0  0  0  0  0  0  0
  181.0510  181.5750  139.0870 O   0  0  0  0  0  0  0  0  0  0  0  0
  1 23  1  0  0  0  0
  2  1  2  0  0  0  0
  4 12  1  1  0  0  0
  4  5  1  0  0  0  0
  6  9  1  0  0  0  0
  6  3  1  0  0  0  0
  7  6  2  0  0  0  0
  8 16  1  0  0  0  0
  8 11  1  0  0  0  0
  9 12  1  0  0  0  0
  9  4  1  0  0  0  0
 10 14  2  0  0  0  0
 10  3  1  0  0  0  0
 11  5  1  0  0  0  0
 13 15  1  0  0  0  0
 13 14  1  0  0  0  0
 14 16  1  0  0  0  0
 15 17  1  0  0  0  0
 16  2  1  0  0  0  0
 17  8  1  0  0  0  0
 18 11  1  0  0  0  0
 18  5  1  0  0  0  0
 19 18  1  0  0  0  0
 20 19  1  0  0  0  0
 20 22  1  0  0  0  0
 21 22  1  0  0  0  0
 23 29  1  0  0  0  0
 24 30  2  0  0  0  0
 25 26  1  0  0  0  0
 25 24  1  0  0  0  0
 27 31  1  0  0  0  0
 27 29  2  0  0  0  0
 28 24  1  0  0  0  0
 29 28  1  0  0  0  0
 31 25  2  0  0  0  0
 32 40  1  0  0  0  0
 32 33  1  0  0  0  0
 32  1  1  0  0  0  0
 33 35  1  0  0  0  0
 34 33  1  0  0  0  0
 35 36  1  0  0  0  0
 36 37  1  0  0  0  0
 38 37  1  0  0  0  0
 39 38  1  0  0  0  0
 41 42  1  0  0  0  0
 42 40  1  0  0  0  0
 42 43  2  0  0  0  0
M  END
>  <MODEL>
6

>  <REMARK>
 VINA RESULT:      -2.7      2.520      6.574
  Name = 
  14 active torsions:
  status: ('A' for Active; 'I' for Inactive)
    1  A    between atoms: C_1  and  C_34
    2  A    between atoms: C_1  and  C_35
    3  A    between atoms: C_5  and  C_18
    4  A    between atoms: C_5  and  C_23
    5  A    between atoms: C_8  and  C_21
    6  A    between atoms: C_8  and  O_30
    7  A    between atoms: C_8  and  C_34
    8  A    between atoms: C_10  and  C_41
    9  A    between atoms: C_10  and  C_42
   10  A    between atoms: O_16  and  C_21
   11  A    between atoms: O_16  and  C_23
   12  A    between atoms: C_22  and  C_42
   13  A    between atoms: O_30  and  C_33
   14  A    between atoms: N_36  and  C_38
                            x       y       z     vdW  Elec       q    Type
                         _______ _______ _______ _____ _____    ______ ____

>  <TORSDO>
F 14

$$$$
=
 OpenBabel10262422463D

 43 47  0  0  1  0  0  0  0  0999 V2000
  185.4500  178.1960  138.8050 C   0  0  0  0  0  0  0  0  0  0  0  0
  184.1480  178.4410  139.0140 C   0  0  0  0  0  3  0  0  0  0  0  0
  181.9730  176.8570  140.8200 C   0  0  0  0  0  2  0  0  0  0  0  0
  181.4690  179.7310  139.8400 C   0  0  2  0  0  3  0  0  0  0  0  0
  181.6160  180.6890  138.6230 C   0  0  1  0  0  3  0  0  0  0  0  0
  180.6530  177.5800  140.8030 C   0  0  0  0  0  0  0  0  0  0  0  0
  179.6380  177.0490  141.4830 C   0  0  0  0  0  2  0  0  0  0  0  0
  182.2650  178.4950  137.3130 C   0  0  2  0  0  3  0  0  0  0  0  0
  180.3610  178.6880  139.8210 C   0  0  1  0  0  3  0  0  0  0  0  0
  182.1360  175.9850  139.6110 C   0  0  0  0  0  3  0  0  0  0  0  0
  182.2750  180.0330  137.3890 C   0  0  1  0  0  3  0  0  0  0  0  0
  180.1650  180.0030  140.5560 C   0  0  0  0  0  2  0  0  0  0  0  0
  182.4910  175.6490  137.2090 C   0  0  0  0  0  2  0  0  0  0  0  0
  182.6660  176.4390  138.4730 C   0  0  0  0  0  0  0  0  0  0  0  0
  183.0430  176.4360  136.0030 C   0  0  0  0  0  2  0  0  0  0  0  0
  183.0420  177.8120  138.3370 N   0  0  0  0  0  0  0  0  0  0  0  0
  182.5520  177.9030  135.9280 C   0  0  0  0  0  2  0  0  0  0  0  0
  180.8590  180.6240  137.2870 C   0  0  1  0  0  3  0  0  0  0  0  0
  179.7000  179.6280  137.2180 C   0  0  0  0  0  2  0  0  0  0  0  0
  179.0310  179.6820  135.8530 C   0  0  0  0  0  2  0  0  0  0  0  0
  180.1800  181.5460  134.8990 O   0  0  0  0  0  1  0  0  0  0  0  0
  178.9320  181.1110  135.3460 C   0  0  0  0  0  2  0  0  0  0  0  0
  186.4350  178.9190  139.6700 C   0  0  0  0  0  2  0  0  0  0  0  0
  184.6080  179.1640  143.1100 C   0  0  0  0  0  0  0  0  0  0  0  0
  185.6210  178.4710  143.9310 C   0  0  0  0  0  0  0  0  0  0  0  0
  185.3890  178.2650  145.6570 Cl  0  0  0  0  0  0  0  0  0  0  0  0
  186.9750  178.1460  141.9220 C   0  0  0  0  0  3  0  0  0  0  0  0
  184.7930  179.3140  141.6260 C   0  0  0  0  0  2  0  0  0  0  0  0
  186.0930  178.7460  141.1140 C   0  0  0  0  0  0  0  0  0  0  0  0
  183.5700  179.6320  143.6490 O   0  0  0  0  0  0  0  0  0  0  0  0
  186.7290  177.9940  143.3650 C   0  0  0  0  0  3  0  0  0  0  0  0
  185.9450  177.3220  137.6850 C   0  0  1  0  0  3  0  0  0  0  0  0
  187.3810  177.7020  137.3080 C   0  0  1  0  0  3  0  0  0  0  0  0
  188.3210  176.7630  137.7570 O   0  0  0  0  0  1  0  0  0  0  0  0
  187.5350  178.0070  135.9380 O   0  0  0  0  0  0  0  0  0  0  0  0
  188.2220  176.9570  135.3080 C   0  0  0  0  0  2  0  0  0  0  0  0
  189.4410  177.5050  134.5980 C   0  0  0  0  0  2  0  0  0  0  0  0
  190.5700  176.5000  134.6920 C   0  0  0  0  0  2  0  0  0  0  0  0
  190.7100  176.0830  136.0160 O   0  0  0  0  0  1  0  0  0  0  0  0
  185.8610  175.9440  138.0350 O   0  0  0  0  0  0  0  0  0  0  0  0
  185.7000  173.5630  137.4540 N   0  0  0  0  0  1  0  0  0  0  0  0
  185.7730  174.9350  137.0750 C   0  0  0  0  0  0  0  0  0  0  0  0
  185.7480  175.2430  135.8560 O   0  0  0  0  0  0  0  0  0  0  0  0
  1  2  2  0  0  0  0
  1 23  1  0  0  0  0
  4 12  1  1  0  0  0
  5  4  1  0  0  0  0
  6  3  1  0  0  0  0
  6  7  2  0  0  0  0
  8 11  1  0  0  0  0
  8 16  1  0  0  0  0
  9  4  1  0  0  0  0
  9 12  1  0  0  0  0
  9  6  1  0  0  0  0
 10  3  1  0  0  0  0
 11  5  1  0  0  0  0
 13 14  1  0  0  0  0
 14 10  2  0  0  0  0
 15 13  1  0  0  0  0
 16 14  1  0  0  0  0
 16  2  1  0  0  0  0
 17 15  1  0  0  0  0
 17  8  1  0  0  0  0
 18 11  1  0  0  0  0
 18  5  1  0  0  0  0
 19 18  1  0  0  0  0
 20 19  1  0  0  0  0
 21 22  1  0  0  0  0
 22 20  1  0  0  0  0
 23 29  1  0  0  0  0
 24 30  2  0  0  0  0
 24 25  1  0  0  0  0
 25 26  1  0  0  0  0
 27 31  1  0  0  0  0
 28 24  1  0  0  0  0
 29 28  1  0  0  0  0
 29 27  2  0  0  0  0
 31 25  2  0  0  0  0
 32 40  1  0  0  0  0
 32  1  1  0  0  0  0
 33 32  1  0  0  0  0
 33 34  1  0  0  0  0
 35 33  1  0  0  0  0
 36 35  1  0  0  0  0
 37 38  1  0  0  0  0
 37 36  1  0  0  0  0
 38 39  1  0  0  0  0
 42 41  1  0  0  0  0
 42 40  1  0  0  0  0
 43 42  2  0  0  0  0
M  END
>  <MODEL>
7

>  <REMARK>
 VINA RESULT:      -2.5      1.958      2.405
  Name = 
  14 active torsions:
  status: ('A' for Active; 'I' for Inactive)
    1  A    between atoms: C_1  and  C_34
    2  A    between atoms: C_1  and  C_35
    3  A    between atoms: C_5  and  C_18
    4  A    between atoms: C_5  and  C_23
    5  A    between atoms: C_8  and  C_21
    6  A    between atoms: C_8  and  O_30
    7  A    between atoms: C_8  and  C_34
    8  A    between atoms: C_10  and  C_41
    9  A    between atoms: C_10  and  C_42
   10  A    between atoms: O_16  and  C_21
   11  A    between atoms: O_16  and  C_23
   12  A    between atoms: C_22  and  C_42
   13  A    between atoms: O_30  and  C_33
   14  A    between atoms: N_36  and  C_38
                            x       y       z     vdW  Elec       q    Type
                         _______ _______ _______ _____ _____    ______ ____

>  <TORSDO>
F 14

$$$$
=
 OpenBabel10262422463D

 43 47  0  0  1  0  0  0  0  0999 V2000
  182.0840  176.8220  138.7400 C   0  0  0  0  0  0  0  0  0  0  0  0
  183.0290  176.0640  138.1650 C   0  0  0  0  0  3  0  0  0  0  0  0
  185.3600  177.1700  136.2030 C   0  0  0  0  0  2  0  0  0  0  0  0
  185.5740  174.4220  137.5730 C   0  0  2  0  0  3  0  0  0  0  0  0
  184.7750  173.1450  137.9620 C   0  0  1  0  0  3  0  0  0  0  0  0
  186.3100  176.0590  135.8430 C   0  0  0  0  0  0  0  0  0  0  0  0
  187.3210  176.3410  135.0220 C   0  0  0  0  0  2  0  0  0  0  0  0
  182.8810  174.1940  136.4570 C   0  0  2  0  0  3  0  0  0  0  0  0
  185.9900  174.6110  136.1210 C   0  0  1  0  0  3  0  0  0  0  0  0
  184.1390  177.1510  135.3330 C   0  0  0  0  0  3  0  0  0  0  0  0
  183.2840  173.1930  137.5560 C   0  0  1  0  0  3  0  0  0  0  0  0
  186.9710  174.0430  137.1340 C   0  0  0  0  0  2  0  0  0  0  0  0
  182.0150  176.1780  134.5940 C   0  0  0  0  0  2  0  0  0  0  0  0
  183.0550  176.4390  135.6440 C   0  0  0  0  0  0  0  0  0  0  0  0
  180.9410  175.2100  135.1290 C   0  0  0  0  0  2  0  0  0  0  0  0
  183.0370  175.5990  136.8010 N   0  0  0  0  0  0  0  0  0  0  0  0
  181.5150  173.9420  135.8070 C   0  0  0  0  0  2  0  0  0  0  0  0
  184.1970  172.0810  137.0140 C   0  0  1  0  0  3  0  0  0  0  0  0
  184.6180  172.1860  135.5470 C   0  0  0  0  0  2  0  0  0  0  0  0
  184.5830  170.8180  134.8830 C   0  0  0  0  0  2  0  0  0  0  0  0
  186.9320  171.1100  135.2030 O   0  0  0  0  0  1  0  0  0  0  0  0
  185.9530  170.1610  134.9080 C   0  0  0  0  0  2  0  0  0  0  0  0
  182.3090  177.2490  140.1580 C   0  0  0  0  0  2  0  0  0  0  0  0
  185.9600  178.4230  139.4330 C   0  0  0  0  0  0  0  0  0  0  0  0
  186.4110  178.5660  140.8310 C   0  0  0  0  0  0  0  0  0  0  0  0
  188.0510  179.0700  141.1970 Cl  0  0  0  0  0  0  0  0  0  0  0  0
  184.1880  177.8810  141.5820 C   0  0  0  0  0  3  0  0  0  0  0  0
  184.5460  178.0220  139.1190 C   0  0  0  0  0  2  0  0  0  0  0  0
  183.7050  177.7480  140.3410 C   0  0  0  0  0  0  0  0  0  0  0  0
  186.7590  178.6450  138.4840 O   0  0  0  0  0  0  0  0  0  0  0  0
  185.5720  178.3120  141.8340 C   0  0  0  0  0  3  0  0  0  0  0  0
  180.7850  177.1600  138.0600 C   0  0  1  0  0  3  0  0  0  0  0  0
  181.0190  178.1810  136.9420 C   0  0  1  0  0  3  0  0  0  0  0  0
  179.8760  178.3860  136.1540 O   0  0  0  0  0  1  0  0  0  0  0  0
  181.5810  179.3920  137.4020 O   0  0  0  0  0  0  0  0  0  0  0  0
  180.8120  180.4660  136.9260 C   0  0  0  0  0  2  0  0  0  0  0  0
  180.1510  181.1700  138.0920 C   0  0  0  0  0  2  0  0  0  0  0  0
  180.2090  182.6670  137.8720 C   0  0  0  0  0  2  0  0  0  0  0  0
  181.5380  183.0610  137.7140 O   0  0  0  0  0  1  0  0  0  0  0  0
  180.1510  175.9890  137.5540 O   0  0  0  0  0  0  0  0  0  0  0  0
  179.0640  175.5110  139.7030 N   0  0  0  0  0  1  0  0  0  0  0  0
  179.3750  175.1540  138.3590 C   0  0  0  0  0  0  0  0  0  0  0  0
  178.9360  174.0740  137.8880 O   0  0  0  0  0  0  0  0  0  0  0  0
  1 23  1  0  0  0  0
  2  1  2  0  0  0  0
  4 12  1  1  0  0  0
  4  5  1  0  0  0  0
  6  9  1  0  0  0  0
  6  3  1  0  0  0  0
  7  6  2  0  0  0  0
  8 16  1  0  0  0  0
  8 11  1  0  0  0  0
  9 12  1  0  0  0  0
  9  4  1  0  0  0  0
 10 14  2  0  0  0  0
 10  3  1  0  0  0  0
 11  5  1  0  0  0  0
 13 15  1  0  0  0  0
 13 14  1  0  0  0  0
 14 16  1  0  0  0  0
 15 17  1  0  0  0  0
 16  2  1  0  0  0  0
 17  8  1  0  0  0  0
 18 11  1  0  0  0  0
 18  5  1  0  0  0  0
 19 18  1  0  0  0  0
 20 22  1  0  0  0  0
 20 19  1  0  0  0  0
 22 21  1  0  0  0  0
 23 29  1  0  0  0  0
 24 25  1  0  0  0  0
 25 26  1  0  0  0  0
 25 31  2  0  0  0  0
 27 31  1  0  0  0  0
 28 24  1  0  0  0  0
 28 29  1  0  0  0  0
 29 27  2  0  0  0  0
 30 24  2  0  0  0  0
 32  1  1  0  0  0  0
 33 35  1  0  0  0  0
 33 32  1  0  0  0  0
 34 33  1  0  0  0  0
 36 35  1  0  0  0  0
 36 37  1  0  0  0  0
 38 37  1  0  0  0  0
 39 38  1  0  0  0  0
 40 32  1  0  0  0  0
 40 42  1  0  0  0  0
 42 41  1  0  0  0  0
 43 42  2  0  0  0  0
M  END
>  <MODEL>
8

>  <REMARK>
 VINA RESULT:      -2.3      2.517      6.598
  Name = 
  14 active torsions:
  status: ('A' for Active; 'I' for Inactive)
    1  A    between atoms: C_1  and  C_34
    2  A    between atoms: C_1  and  C_35
    3  A    between atoms: C_5  and  C_18
    4  A    between atoms: C_5  and  C_23
    5  A    between atoms: C_8  and  C_21
    6  A    between atoms: C_8  and  O_30
    7  A    between atoms: C_8  and  C_34
    8  A    between atoms: C_10  and  C_41
    9  A    between atoms: C_10  and  C_42
   10  A    between atoms: O_16  and  C_21
   11  A    between atoms: O_16  and  C_23
   12  A    between atoms: C_22  and  C_42
   13  A    between atoms: O_30  and  C_33
   14  A    between atoms: N_36  and  C_38
                            x       y       z     vdW  Elec       q    Type
                         _______ _______ _______ _____ _____    ______ ____

>  <TORSDO>
F 14

$$$$
=
 OpenBabel10262422463D

 43 47  0  0  1  0  0  0  0  0999 V2000
  185.5950  178.2180  139.1380 C   0  0  0  0  0  0  0  0  0  0  0  0
  184.2750  178.4120  139.2770 C   0  0  0  0  0  3  0  0  0  0  0  0
  182.0110  176.9060  141.0400 C   0  0  0  0  0  2  0  0  0  0  0  0
  181.5210  179.6910  139.8250 C   0  0  2  0  0  3  0  0  0  0  0  0
  181.7350  180.5650  138.5560 C   0  0  1  0  0  3  0  0  0  0  0  0
  180.6810  177.5950  140.8820 C   0  0  0  0  0  0  0  0  0  0  0  0
  179.6320  177.0880  141.5280 C   0  0  0  0  0  2  0  0  0  0  0  0
  182.5140  178.3010  137.4530 C   0  0  2  0  0  3  0  0  0  0  0  0
  180.4370  178.6230  139.8050 C   0  0  1  0  0  3  0  0  0  0  0  0
  182.2740  175.9560  139.9100 C   0  0  0  0  0  3  0  0  0  0  0  0
  182.4900  179.8400  137.4190 C   0  0  1  0  0  3  0  0  0  0  0  0
  180.1650  179.9810  140.4300 C   0  0  0  0  0  2  0  0  0  0  0  0
  182.8020  175.4610  137.5680 C   0  0  0  0  0  2  0  0  0  0  0  0
  182.8730  176.3420  138.7820 C   0  0  0  0  0  0  0  0  0  0  0  0
  183.4200  176.1740  136.3490 C   0  0  0  0  0  2  0  0  0  0  0  0
  183.2310  177.7100  138.5740 N   0  0  0  0  0  0  0  0  0  0  0  0
  182.9080  177.6200  136.1360 C   0  0  0  0  0  2  0  0  0  0  0  0
  181.0730  180.3880  137.1790 C   0  0  1  0  0  3  0  0  0  0  0  0
  179.9400  179.3620  137.1030 C   0  0  0  0  0  2  0  0  0  0  0  0
  179.5300  179.1280  135.6570 C   0  0  0  0  0  2  0  0  0  0  0  0
  179.8750  176.9620  134.7120 O   0  0  0  0  0  1  0  0  0  0  0  0
  178.9800  177.7250  135.4630 C   0  0  0  0  0  2  0  0  0  0  0  0
  186.5060  179.0140  140.0210 C   0  0  0  0  0  2  0  0  0  0  0  0
  186.5140  177.8730  143.7530 C   0  0  0  0  0  0  0  0  0  0  0  0
  185.2220  178.4670  144.1520 C   0  0  0  0  0  0  0  0  0  0  0  0
  184.6160  178.2780  145.7870 Cl  0  0  0  0  0  0  0  0  0  0  0  0
  184.9600  179.3360  141.8830 C   0  0  0  0  0  3  0  0  0  0  0  0
  187.0480  178.0610  142.3610 C   0  0  0  0  0  2  0  0  0  0  0  0
  186.1290  178.8430  141.4560 C   0  0  0  0  0  0  0  0  0  0  0  0
  187.1870  177.2070  144.5840 O   0  0  0  0  0  0  0  0  0  0  0  0
  184.5000  179.1540  143.2690 C   0  0  0  0  0  3  0  0  0  0  0  0
  186.1810  177.3270  138.0760 C   0  0  1  0  0  3  0  0  0  0  0  0
  186.4590  178.1310  136.8010 C   0  0  1  0  0  3  0  0  0  0  0  0
  186.9340  179.4220  137.0740 O   0  0  0  0  0  1  0  0  0  0  0  0
  187.2710  177.4410  135.8740 O   0  0  0  0  0  0  0  0  0  0  0  0
  186.4550  176.8740  134.8830 C   0  0  0  0  0  2  0  0  0  0  0  0
  186.8690  175.4360  134.6490 C   0  0  0  0  0  2  0  0  0  0  0  0
  188.3800  175.3510  134.6010 C   0  0  0  0  0  2  0  0  0  0  0  0
  188.7820  174.0620  134.9560 O   0  0  0  0  0  1  0  0  0  0  0  0
  187.3650  176.6870  138.5410 O   0  0  0  0  0  0  0  0  0  0  0  0
  189.0680  178.4460  138.7270 N   0  0  0  0  0  1  0  0  0  0  0  0
  188.6400  177.1740  138.2470 C   0  0  0  0  0  0  0  0  0  0  0  0
  189.4260  176.4760  137.5570 O   0  0  0  0  0  0  0  0  0  0  0  0
  1  2  2  0  0  0  0
  1 23  1  0  0  0  0
  4 12  1  1  0  0  0
  5  4  1  0  0  0  0
  6  3  1  0  0  0  0
  6  7  2  0  0  0  0
  8 16  1  0  0  0  0
  9  4  1  0  0  0  0
  9 12  1  0  0  0  0
  9  6  1  0  0  0  0
 10  3  1  0  0  0  0
 11  8  1  0  0  0  0
 11  5  1  0  0  0  0
 13 14  1  0  0  0  0
 14 10  2  0  0  0  0
 15 13  1  0  0  0  0
 16 14  1  0  0  0  0
 16  2  1  0  0  0  0
 17 15  1  0  0  0  0
 17  8  1  0  0  0  0
 18 11  1  0  0  0  0
 18  5  1  0  0  0  0
 19 18  1  0  0  0  0
 20 19  1  0  0  0  0
 21 22  1  0  0  0  0
 22 20  1  0  0  0  0
 23 29  1  0  0  0  0
 24 25  1  0  0  0  0
 24 30  2  0  0  0  0
 25 26  1  0  0  0  0
 27 31  1  0  0  0  0
 28 24  1  0  0  0  0
 29 27  2  0  0  0  0
 29 28  1  0  0  0  0
 31 25  2  0  0  0  0
 32 40  1  0  0  0  0
 32  1  1  0  0  0  0
 33 34  1  0  0  0  0
 33 32  1  0  0  0  0
 35 33  1  0  0  0  0
 36 35  1  0  0  0  0
 37 36  1  0  0  0  0
 38 37  1  0  0  0  0
 38 39  1  0  0  0  0
 42 40  1  0  0  0  0
 42 41  1  0  0  0  0
 43 42  2  0  0  0  0
M  END
>  <MODEL>
9

>  <REMARK>
 VINA RESULT:      -2.3      1.907      2.654
  Name = 
  14 active torsions:
  status: ('A' for Active; 'I' for Inactive)
    1  A    between atoms: C_1  and  C_34
    2  A    between atoms: C_1  and  C_35
    3  A    between atoms: C_5  and  C_18
    4  A    between atoms: C_5  and  C_23
    5  A    between atoms: C_8  and  C_21
    6  A    between atoms: C_8  and  O_30
    7  A    between atoms: C_8  and  C_34
    8  A    between atoms: C_10  and  C_41
    9  A    between atoms: C_10  and  C_42
   10  A    between atoms: O_16  and  C_21
   11  A    between atoms: O_16  and  C_23
   12  A    between atoms: C_22  and  C_42
   13  A    between atoms: O_30  and  C_33
   14  A    between atoms: N_36  and  C_38
                            x       y       z     vdW  Elec       q    Type
                         _______ _______ _______ _____ _____    ______ ____

>  <TORSDO>
F 14

$$$$
