=
 OpenBabel10262421033D

 32 37  0  0  1  0  0  0  0  0999 V2000
  186.7050  178.6150  141.6870 C   0  0  1  0  0  3  0  0  0  0  0  0
  184.5260  179.0340  140.9030 C   0  0  0  0  0  2  0  0  0  0  0  0
  188.0270  179.2090  141.1840 C   0  0  0  0  0  2  0  0  0  0  0  0
  185.7430  178.2570  140.6250 N   0  0  1  0  0  0  0  0  0  0  0  0
  183.5400  179.1030  139.7250 C   0  0  1  0  0  0  0  0  0  0  0  0
  182.5030  181.0400  138.8390 C   0  0  0  0  0  0  0  0  0  0  0  0
  181.2620  180.3760  139.2930 C   0  0  2  0  0  3  0  0  0  0  0  0
  186.2290  178.5400  139.2600 C   0  0  2  0  0  3  0  0  0  0  0  0
  181.8200  179.0140  140.3690 S   0  0  0  0  0  0  0  0  0  0  0  0
  185.2670  177.9580  138.2200 C   0  0  0  0  0  2  0  0  0  0  0  0
  187.6130  177.9320  139.0220 C   0  0  0  0  0  2  0  0  0  0  0  0
  183.6790  180.3650  139.0970 O   0  0  0  0  0  0  0  0  0  0  0  0
  183.8020  178.0020  138.6740 C   0  0  1  0  0  3  0  0  0  0  0  0
  188.6360  178.3490  140.0810 C   0  0  0  0  0  2  0  0  0  0  0  0
  182.4980  182.1590  138.2610 O   0  0  0  0  0  0  0  0  0  0  0  0
  179.0410  179.6860  138.4290 C   0  0  0  0  0  2  0  0  0  0  0  0
  180.5160  179.8030  138.0970 C   0  0  0  0  0  3  0  0  0  0  0  0
  179.5340  180.8310  137.5710 C   0  0  0  0  0  2  0  0  0  0  0  0
  183.2940  176.6040  139.0490 C   0  0  0  0  0  2  0  0  0  0  0  0
  183.4640  175.6970  138.0020 O   0  0  0  0  0  1  0  0  0  0  0  0
  185.7520  177.1300  143.3210 O   0  0  0  0  0  1  0  0  0  0  0  0
  186.9360  177.4390  142.6440 C   0  0  2  0  0  3  0  0  0  0  0  0
  190.0460  178.0650  145.4420 O   0  0  0  0  0  0  0  0  0  0  0  0
  190.2500  176.9410  144.6140 C   0  0  0  0  0  2  0  0  0  0  0  0
  188.7490  177.9990  146.0300 C   0  0  1  0  0  3  0  0  0  0  0  0
  188.0540  177.7600  143.6430 C   0  0  1  0  0  3  0  0  0  0  0  0
  187.6200  177.5410  145.0880 C   0  0  0  0  0  2  0  0  0  0  0  0
  189.3660  176.9990  143.3620 C   0  0  2  0  0  3  0  0  0  0  0  0
  189.1100  175.6940  142.9370 O   0  0  0  0  0  1  0  0  0  0  0  0
  188.6760  177.3370  147.4170 C   0  0  0  0  0  3  0  0  0  0  0  0
  189.4110  178.1540  148.4640 C   0  0  0  0  0  2  0  0  0  0  0  0
  187.8970  178.1630  148.4270 C   0  0  0  0  0  2  0  0  0  0  0  0
  1 22  1  6  0  0  0
  3  1  1  0  0  0  0
  4  2  1  1  0  0  0
  4  1  1  0  0  0  0
  5  9  1  0  0  0  0
  5  2  1  1  0  0  0
  6 12  1  0  0  0  0
  6  7  1  0  0  0  0
  7 17  1  6  0  0  0
  7  9  1  0  0  0  0
  8 10  1  6  0  0  0
  8  4  1  0  0  0  0
 10 13  1  0  0  0  0
 11  8  1  0  0  0  0
 11 14  1  0  0  0  0
 12  5  1  0  0  0  0
 13 19  1  1  0  0  0
 13  5  1  0  0  0  0
 14  3  1  0  0  0  0
 15  6  2  0  0  0  0
 17 16  1  0  0  0  0
 18 17  1  0  0  0  0
 18 16  1  0  0  0  0
 20 19  1  0  0  0  0
 22 21  1  1  0  0  0
 23 25  1  0  0  0  0
 24 23  1  0  0  0  0
 25 30  1  1  0  0  0
 26 22  1  6  0  0  0
 26 27  1  0  0  0  0
 27 25  1  0  0  0  0
 28 29  1  1  0  0  0
 28 26  1  0  0  0  0
 28 24  1  0  0  0  0
 30 32  1  0  0  0  0
 30 31  1  0  0  0  0
 32 31  1  0  0  0  0
M  END
>  <MODEL>
1

>  <REMARK>
 VINA RESULT:      -6.8      0.000      0.000
  Name = 
  5 active torsions:
  status: ('A' for Active; 'I' for Inactive)
    1  A    between atoms: C_1  and  C_27
    2  A    between atoms: C_7  and  C_15
    3  A    between atoms: C_11  and  C_12
    4  A    between atoms: C_13  and  C_29
    5  A    between atoms: C_16  and  C_27
                            x       y       z     vdW  Elec       q    Type
                         _______ _______ _______ _____ _____    ______ ____

>  <TORSDO>
F 5

$$$$
=
 OpenBabel10262421033D

 32 37  0  0  1  0  0  0  0  0999 V2000
  190.7180  175.6710  137.9340 C   0  0  1  0  0  3  0  0  0  0  0  0
  192.5550  174.2190  137.6960 C   0  0  0  0  0  2  0  0  0  0  0  0
  189.3970  175.6670  137.1550 C   0  0  0  0  0  2  0  0  0  0  0  0
  191.9200  175.4100  137.1150 N   0  0  1  0  0  0  0  0  0  0  0  0
  193.6010  173.5550  136.7850 C   0  0  1  0  0  0  0  0  0  0  0  0
  193.7630  171.2560  136.2330 C   0  0  0  0  0  0  0  0  0  0  0  0
  195.0580  171.3520  136.9420 C   0  0  2  0  0  3  0  0  0  0  0  0
  191.6300  175.1880  135.6840 C   0  0  2  0  0  3  0  0  0  0  0  0
  195.0030  172.9540  137.8110 S   0  0  0  0  0  0  0  0  0  0  0  0
  192.9320  175.1290  134.8800 C   0  0  0  0  0  2  0  0  0  0  0  0
  190.7650  176.3110  135.1090 C   0  0  0  0  0  2  0  0  0  0  0  0
  193.0130  172.4130  136.1850 O   0  0  0  0  0  0  0  0  0  0  0  0
  194.0890  174.4990  135.6650 C   0  0  1  0  0  3  0  0  0  0  0  0
  189.4840  176.5460  135.9110 C   0  0  0  0  0  2  0  0  0  0  0  0
  193.3570  170.1850  135.7100 O   0  0  0  0  0  0  0  0  0  0  0  0
  197.4590  170.8370  136.5960 C   0  0  0  0  0  2  0  0  0  0  0  0
  196.1980  171.3600  135.9360 C   0  0  0  0  0  3  0  0  0  0  0  0
  196.6580  169.9380  135.6790 C   0  0  0  0  0  2  0  0  0  0  0  0
  195.1080  175.5600  136.1010 C   0  0  0  0  0  2  0  0  0  0  0  0
  194.6570  176.8510  135.8260 O   0  0  0  0  0  1  0  0  0  0  0  0
  192.2070  177.0670  139.2070 O   0  0  0  0  0  1  0  0  0  0  0  0
  190.8830  176.9460  138.7700 C   0  0  2  0  0  3  0  0  0  0  0  0
  188.2530  177.2000  142.0710 O   0  0  0  0  0  0  0  0  0  0  0  0
  188.0510  178.2130  141.1100 C   0  0  0  0  0  2  0  0  0  0  0  0
  189.6290  177.1520  142.4360 C   0  0  1  0  0  3  0  0  0  0  0  0
  189.9240  176.9420  139.9650 C   0  0  1  0  0  3  0  0  0  0  0  0
  190.6260  177.2960  141.2720 C   0  0  0  0  0  2  0  0  0  0  0  0
  188.6890  177.8460  139.7650 C   0  0  2  0  0  3  0  0  0  0  0  0
  189.0310  179.0240  139.0980 O   0  0  0  0  0  1  0  0  0  0  0  0
  190.0250  177.9840  143.6690 C   0  0  0  0  0  3  0  0  0  0  0  0
  189.0180  177.8280  144.7940 C   0  0  0  0  0  2  0  0  0  0  0  0
  190.3580  177.1290  144.8790 C   0  0  0  0  0  2  0  0  0  0  0  0
  1 22  1  6  0  0  0
  3  1  1  0  0  0  0
  4  2  1  1  0  0  0
  4  1  1  0  0  0  0
  5  2  1  1  0  0  0
  5  9  1  0  0  0  0
  6  7  1  0  0  0  0
  7 17  1  6  0  0  0
  7  9  1  0  0  0  0
  8 10  1  6  0  0  0
  8  4  1  0  0  0  0
 10 13  1  0  0  0  0
 11  8  1  0  0  0  0
 11 14  1  0  0  0  0
 12  6  1  0  0  0  0
 12  5  1  0  0  0  0
 13 19  1  1  0  0  0
 13  5  1  0  0  0  0
 14  3  1  0  0  0  0
 15  6  2  0  0  0  0
 17 16  1  0  0  0  0
 18 17  1  0  0  0  0
 18 16  1  0  0  0  0
 20 19  1  0  0  0  0
 22 21  1  1  0  0  0
 23 25  1  0  0  0  0
 24 23  1  0  0  0  0
 25 30  1  1  0  0  0
 26 22  1  6  0  0  0
 26 27  1  0  0  0  0
 27 25  1  0  0  0  0
 28 29  1  1  0  0  0
 28 26  1  0  0  0  0
 28 24  1  0  0  0  0
 30 31  1  0  0  0  0
 30 32  1  0  0  0  0
 31 32  1  0  0  0  0
M  END
>  <MODEL>
2

>  <REMARK>
 VINA RESULT:      -6.7      7.090     10.506
  Name = 
  5 active torsions:
  status: ('A' for Active; 'I' for Inactive)
    1  A    between atoms: C_1  and  C_27
    2  A    between atoms: C_7  and  C_15
    3  A    between atoms: C_11  and  C_12
    4  A    between atoms: C_13  and  C_29
    5  A    between atoms: C_16  and  C_27
                            x       y       z     vdW  Elec       q    Type
                         _______ _______ _______ _____ _____    ______ ____

>  <TORSDO>
F 5

$$$$
=
 OpenBabel10262421033D

 32 37  0  0  1  0  0  0  0  0999 V2000
  184.8300  177.2000  138.0780 C   0  0  1  0  0  3  0  0  0  0  0  0
  187.1490  176.8860  138.3300 C   0  0  0  0  0  2  0  0  0  0  0  0
  183.8620  176.4440  137.1600 C   0  0  0  0  0  2  0  0  0  0  0  0
  186.1380  177.5190  137.4700 N   0  0  1  0  0  0  0  0  0  0  0  0
  188.5410  176.7710  137.6870 C   0  0  1  0  0  0  0  0  0  0  0  0
  189.9140  174.8430  137.5830 C   0  0  0  0  0  0  0  0  0  0  0  0
  190.8280  175.6580  138.4140 C   0  0  2  0  0  3  0  0  0  0  0  0
  186.2810  177.0460  136.0790 C   0  0  2  0  0  3  0  0  0  0  0  0
  189.8250  177.0770  138.9660 S   0  0  0  0  0  0  0  0  0  0  0  0
  187.5730  177.5890  135.4620 C   0  0  0  0  0  2  0  0  0  0  0  0
  185.1080  177.5030  135.2100 C   0  0  0  0  0  2  0  0  0  0  0  0
  188.7190  175.4390  137.2370 O   0  0  0  0  0  0  0  0  0  0  0  0
  188.7110  177.7210  136.4820 C   0  0  1  0  0  3  0  0  0  0  0  0
  183.7480  177.1200  135.7970 C   0  0  0  0  0  2  0  0  0  0  0  0
  190.1970  173.6720  137.2180 O   0  0  0  0  0  0  0  0  0  0  0  0
  193.2010  176.3780  138.4520 C   0  0  0  0  0  2  0  0  0  0  0  0
  191.9890  176.1560  137.5680 C   0  0  0  0  0  3  0  0  0  0  0  0
  193.1100  175.1350  137.5940 C   0  0  0  0  0  2  0  0  0  0  0  0
  188.9700  179.1900  136.8380 C   0  0  0  0  0  2  0  0  0  0  0  0
  187.7900  179.9350  136.8430 O   0  0  0  0  0  1  0  0  0  0  0  0
  185.0940  179.5110  138.6920 O   0  0  0  0  0  1  0  0  0  0  0  0
  184.1810  178.4510  138.6830 C   0  0  2  0  0  3  0  0  0  0  0  0
  182.7040  177.9290  142.6120 O   0  0  0  0  0  0  0  0  0  0  0  0
  181.8890  178.7530  141.8080 C   0  0  0  0  0  2  0  0  0  0  0  0
  184.0510  178.3910  142.5610 C   0  0  1  0  0  3  0  0  0  0  0  0
  183.6740  178.1710  140.1020 C   0  0  1  0  0  3  0  0  0  0  0  0
  184.5510  178.8180  141.1690 C   0  0  0  0  0  2  0  0  0  0  0  0
  182.1980  178.5660  140.3170 C   0  0  2  0  0  3  0  0  0  0  0  0
  181.8930  179.7530  139.6470 O   0  0  0  0  0  1  0  0  0  0  0  0
  184.4650  179.3720  143.6720 C   0  0  0  0  0  3  0  0  0  0  0  0
  183.8380  179.0030  145.0050 C   0  0  0  0  0  2  0  0  0  0  0  0
  185.3050  178.7200  144.7570 C   0  0  0  0  0  2  0  0  0  0  0  0
  1 22  1  6  0  0  0
  3  1  1  0  0  0  0
  4  1  1  0  0  0  0
  4  2  1  1  0  0  0
  5  2  1  1  0  0  0
  5  9  1  0  0  0  0
  6  7  1  0  0  0  0
  7 17  1  6  0  0  0
  7  9  1  0  0  0  0
  8 11  1  6  0  0  0
  8  4  1  0  0  0  0
 10  8  1  0  0  0  0
 10 13  1  0  0  0  0
 11 14  1  0  0  0  0
 12  6  1  0  0  0  0
 12  5  1  0  0  0  0
 13 19  1  1  0  0  0
 13  5  1  0  0  0  0
 14  3  1  0  0  0  0
 15  6  2  0  0  0  0
 17 18  1  0  0  0  0
 17 16  1  0  0  0  0
 18 16  1  0  0  0  0
 19 20  1  0  0  0  0
 22 21  1  1  0  0  0
 24 23  1  0  0  0  0
 25 23  1  0  0  0  0
 25 30  1  1  0  0  0
 26 22  1  6  0  0  0
 26 28  1  0  0  0  0
 26 27  1  0  0  0  0
 27 25  1  0  0  0  0
 28 29  1  6  0  0  0
 28 24  1  0  0  0  0
 30 32  1  0  0  0  0
 30 31  1  0  0  0  0
 32 31  1  0  0  0  0
M  END
>  <MODEL>
3

>  <REMARK>
 VINA RESULT:      -6.6      3.827      7.690
  Name = 
  5 active torsions:
  status: ('A' for Active; 'I' for Inactive)
    1  A    between atoms: C_1  and  C_27
    2  A    between atoms: C_7  and  C_15
    3  A    between atoms: C_11  and  C_12
    4  A    between atoms: C_13  and  C_29
    5  A    between atoms: C_16  and  C_27
                            x       y       z     vdW  Elec       q    Type
                         _______ _______ _______ _____ _____    ______ ____

>  <TORSDO>
F 5

$$$$
=
 OpenBabel10262421033D

 32 37  0  0  1  0  0  0  0  0999 V2000
  182.7690  178.1120  140.9470 C   0  0  1  0  0  3  0  0  0  0  0  0
  183.0900  176.3720  139.3950 C   0  0  0  0  0  2  0  0  0  0  0  0
  181.4470  178.7260  141.4270 C   0  0  0  0  0  2  0  0  0  0  0  0
  182.8240  177.8140  139.5010 N   0  0  1  0  0  0  0  0  0  0  0  0
  182.8180  175.7820  138.0020 C   0  0  1  0  0  0  0  0  0  0  0  0
  181.5600  173.8390  137.4920 C   0  0  0  0  0  0  0  0  0  0  0  0
  182.8580  173.3390  136.9880 C   0  0  2  0  0  3  0  0  0  0  0  0
  181.5870  178.1600  138.7730 C   0  0  2  0  0  3  0  0  0  0  0  0
  184.0970  174.5190  137.6180 S   0  0  0  0  0  0  0  0  0  0  0  0
  181.7990  178.0120  137.2640 C   0  0  0  0  0  2  0  0  0  0  0  0
  181.1580  179.6010  139.0550 C   0  0  0  0  0  2  0  0  0  0  0  0
  181.5720  175.1080  138.0360 O   0  0  0  0  0  0  0  0  0  0  0  0
  182.7560  176.8680  136.9060 C   0  0  1  0  0  3  0  0  0  0  0  0
  181.0330  179.9040  140.5500 C   0  0  0  0  0  2  0  0  0  0  0  0
  180.5060  173.1530  137.4420 O   0  0  0  0  0  0  0  0  0  0  0  0
  183.8280  172.3110  134.9500 C   0  0  0  0  0  2  0  0  0  0  0  0
  182.8650  173.3610  135.4680 C   0  0  0  0  0  3  0  0  0  0  0  0
  182.3390  172.0420  134.9380 C   0  0  0  0  0  2  0  0  0  0  0  0
  184.1150  177.4050  136.4390 C   0  0  0  0  0  2  0  0  0  0  0  0
  184.3500  177.1100  135.0950 O   0  0  0  0  0  1  0  0  0  0  0  0
  184.7660  179.2740  140.2790 O   0  0  0  0  0  1  0  0  0  0  0  0
  183.9780  178.9470  141.3880 C   0  0  2  0  0  3  0  0  0  0  0  0
  186.3510  177.1010  144.3620 O   0  0  0  0  0  0  0  0  0  0  0  0
  185.6790  178.2570  144.8130 C   0  0  0  0  0  2  0  0  0  0  0  0
  187.0620  177.3970  143.1620 C   0  0  1  0  0  3  0  0  0  0  0  0
  184.8100  178.1930  142.4310 C   0  0  1  0  0  3  0  0  0  0  0  0
  186.3060  178.2750  142.1480 C   0  0  0  0  0  2  0  0  0  0  0  0
  184.5200  178.6320  143.8820 C   0  0  2  0  0  3  0  0  0  0  0  0
  184.3150  180.0110  143.9590 O   0  0  0  0  0  1  0  0  0  0  0  0
  188.5310  177.8180  143.3410 C   0  0  0  0  0  3  0  0  0  0  0  0
  189.1640  177.1400  144.5430 C   0  0  0  0  0  2  0  0  0  0  0  0
  189.5050  176.6690  143.1450 C   0  0  0  0  0  2  0  0  0  0  0  0
  1 22  1  6  0  0  0
  1  3  1  0  0  0  0
  4  2  1  1  0  0  0
  4  1  1  0  0  0  0
  5 12  1  0  0  0  0
  5  2  1  1  0  0  0
  6 12  1  0  0  0  0
  7 17  1  6  0  0  0
  7  6  1  0  0  0  0
  7  9  1  0  0  0  0
  8 10  1  6  0  0  0
  8 11  1  0  0  0  0
  8  4  1  0  0  0  0
  9  5  1  0  0  0  0
 11 14  1  0  0  0  0
 13 19  1  1  0  0  0
 13 10  1  0  0  0  0
 13  5  1  0  0  0  0
 14  3  1  0  0  0  0
 15  6  2  0  0  0  0
 16 17  1  0  0  0  0
 18 16  1  0  0  0  0
 18 17  1  0  0  0  0
 20 19  1  0  0  0  0
 22 21  1  6  0  0  0
 23 24  1  0  0  0  0
 25 30  1  1  0  0  0
 25 23  1  0  0  0  0
 26 22  1  6  0  0  0
 26 28  1  0  0  0  0
 27 26  1  0  0  0  0
 27 25  1  0  0  0  0
 28 29  1  6  0  0  0
 28 24  1  0  0  0  0
 30 31  1  0  0  0  0
 32 30  1  0  0  0  0
 32 31  1  0  0  0  0
M  END
>  <MODEL>
4

>  <REMARK>
 VINA RESULT:      -6.5      2.902      5.577
  Name = 
  5 active torsions:
  status: ('A' for Active; 'I' for Inactive)
    1  A    between atoms: C_1  and  C_27
    2  A    between atoms: C_7  and  C_15
    3  A    between atoms: C_11  and  C_12
    4  A    between atoms: C_13  and  C_29
    5  A    between atoms: C_16  and  C_27
                            x       y       z     vdW  Elec       q    Type
                         _______ _______ _______ _____ _____    ______ ____

>  <TORSDO>
F 5

$$$$
=
 OpenBabel10262421033D

 32 37  0  0  1  0  0  0  0  0999 V2000
  190.1310  176.1580  138.6940 C   0  0  1  0  0  3  0  0  0  0  0  0
  191.9230  174.8080  137.9850 C   0  0  0  0  0  2  0  0  0  0  0  0
  188.7200  176.2530  138.1010 C   0  0  0  0  0  2  0  0  0  0  0  0
  191.2160  176.0640  137.6960 N   0  0  1  0  0  0  0  0  0  0  0  0
  192.8420  174.3260  136.8500 C   0  0  1  0  0  0  0  0  0  0  0  0
  192.9330  172.1550  135.9060 C   0  0  0  0  0  0  0  0  0  0  0  0
  194.3090  172.1610  136.4500 C   0  0  2  0  0  3  0  0  0  0  0  0
  190.7440  176.0750  136.2970 C   0  0  2  0  0  3  0  0  0  0  0  0
  194.3660  173.5960  137.5730 S   0  0  0  0  0  0  0  0  0  0  0  0
  191.9300  176.1780  135.3350 C   0  0  0  0  0  2  0  0  0  0  0  0
  189.8100  177.2570  136.0330 C   0  0  0  0  0  2  0  0  0  0  0  0
  192.1820  173.2870  136.1480 O   0  0  0  0  0  0  0  0  0  0  0  0
  193.1800  175.4540  135.8500 C   0  0  1  0  0  3  0  0  0  0  0  0
  188.6440  177.3280  137.0200 C   0  0  0  0  0  2  0  0  0  0  0  0
  192.4630  171.1760  135.2690 O   0  0  0  0  0  0  0  0  0  0  0  0
  196.6510  171.7820  135.7270 C   0  0  0  0  0  2  0  0  0  0  0  0
  195.3090  172.3610  135.3220 C   0  0  0  0  0  3  0  0  0  0  0  0
  195.7480  171.0110  134.7880 C   0  0  0  0  0  2  0  0  0  0  0  0
  194.2460  176.4500  136.3230 C   0  0  0  0  0  2  0  0  0  0  0  0
  195.4340  176.3130  135.6040 O   0  0  0  0  0  1  0  0  0  0  0  0
  191.7710  177.5660  139.7490 O   0  0  0  0  0  1  0  0  0  0  0  0
  190.4020  177.2820  139.7030 C   0  0  2  0  0  3  0  0  0  0  0  0
  188.9420  176.4850  143.5910 O   0  0  0  0  0  0  0  0  0  0  0  0
  188.2340  177.5050  142.9210 C   0  0  0  0  0  2  0  0  0  0  0  0
  190.3390  176.7620  143.5480 C   0  0  1  0  0  3  0  0  0  0  0  0
  189.8880  176.9000  141.0950 C   0  0  1  0  0  3  0  0  0  0  0  0
  190.8670  177.2850  142.2000 C   0  0  0  0  0  2  0  0  0  0  0  0
  188.4860  177.4630  141.4090 C   0  0  2  0  0  3  0  0  0  0  0  0
  188.3360  178.7530  140.8960 O   0  0  0  0  0  1  0  0  0  0  0  0
  190.9050  177.5340  144.7520 C   0  0  0  0  0  3  0  0  0  0  0  0
  190.2150  177.1360  146.0450 C   0  0  0  0  0  2  0  0  0  0  0  0
  191.6140  176.6360  145.7520 C   0  0  0  0  0  2  0  0  0  0  0  0
  1 22  1  6  0  0  0
  3  1  1  0  0  0  0
  4  2  1  1  0  0  0
  4  1  1  0  0  0  0
  5  9  1  0  0  0  0
  5  2  1  1  0  0  0
  6 12  1  0  0  0  0
  6  7  1  0  0  0  0
  7 17  1  6  0  0  0
  7  9  1  0  0  0  0
  8 10  1  6  0  0  0
  8  4  1  0  0  0  0
 10 13  1  0  0  0  0
 11  8  1  0  0  0  0
 11 14  1  0  0  0  0
 12  5  1  0  0  0  0
 13 19  1  1  0  0  0
 13  5  1  0  0  0  0
 14  3  1  0  0  0  0
 15  6  2  0  0  0  0
 17 16  1  0  0  0  0
 18 17  1  0  0  0  0
 18 16  1  0  0  0  0
 20 19  1  0  0  0  0
 22 21  1  1  0  0  0
 24 23  1  0  0  0  0
 25 23  1  0  0  0  0
 25 30  1  1  0  0  0
 26 22  1  6  0  0  0
 26 28  1  0  0  0  0
 26 27  1  0  0  0  0
 27 25  1  0  0  0  0
 28 29  1  1  0  0  0
 28 24  1  0  0  0  0
 30 32  1  0  0  0  0
 30 31  1  0  0  0  0
 32 31  1  0  0  0  0
M  END
>  <MODEL>
5

>  <REMARK>
 VINA RESULT:      -6.5      6.415      9.673
  Name = 
  5 active torsions:
  status: ('A' for Active; 'I' for Inactive)
    1  A    between atoms: C_1  and  C_27
    2  A    between atoms: C_7  and  C_15
    3  A    between atoms: C_11  and  C_12
    4  A    between atoms: C_13  and  C_29
    5  A    between atoms: C_16  and  C_27
                            x       y       z     vdW  Elec       q    Type
                         _______ _______ _______ _____ _____    ______ ____

>  <TORSDO>
F 5

$$$$
=
 OpenBabel10262421033D

 32 37  0  0  1  0  0  0  0  0999 V2000
  188.6740  176.8030  137.1870 C   0  0  1  0  0  3  0  0  0  0  0  0
  186.9870  175.1640  137.1370 C   0  0  0  0  0  2  0  0  0  0  0  0
  188.9870  177.8770  136.1370 C   0  0  0  0  0  2  0  0  0  0  0  0
  188.3310  175.4770  136.6320 N   0  0  1  0  0  0  0  0  0  0  0  0
  186.2850  174.0160  136.3920 C   0  0  1  0  0  0  0  0  0  0  0  0
  184.0830  174.0120  135.5170 C   0  0  0  0  0  0  0  0  0  0  0  0
  183.8740  172.9350  136.5090 C   0  0  2  0  0  3  0  0  0  0  0  0
  188.3480  175.4250  135.1570 C   0  0  2  0  0  3  0  0  0  0  0  0
  185.3360  173.0020  137.5960 S   0  0  0  0  0  0  0  0  0  0  0  0
  188.1830  173.9810  134.6740 C   0  0  0  0  0  2  0  0  0  0  0  0
  189.6620  175.9690  134.5940 C   0  0  0  0  0  2  0  0  0  0  0  0
  185.3440  174.5740  135.4920 O   0  0  0  0  0  0  0  0  0  0  0  0
  187.2760  173.1470  135.5870 C   0  0  1  0  0  3  0  0  0  0  0  0
  189.9960  177.3700  135.1100 C   0  0  0  0  0  2  0  0  0  0  0  0
  183.1710  174.4060  134.7450 O   0  0  0  0  0  0  0  0  0  0  0  0
  182.9800  170.6240  136.6140 C   0  0  0  0  0  2  0  0  0  0  0  0
  183.8270  171.5870  135.8060 C   0  0  0  0  0  3  0  0  0  0  0  0
  182.4040  171.2860  135.3820 C   0  0  0  0  0  2  0  0  0  0  0  0
  188.0900  172.1450  136.4140 C   0  0  0  0  0  2  0  0  0  0  0  0
  187.8980  170.8360  135.9710 O   0  0  0  0  0  1  0  0  0  0  0  0
  190.4160  175.4480  138.1440 O   0  0  0  0  0  1  0  0  0  0  0  0
  189.7850  176.6930  138.2380 C   0  0  2  0  0  3  0  0  0  0  0  0
  188.3490  177.5080  142.1320 O   0  0  0  0  0  0  0  0  0  0  0  0
  188.3070  178.6240  141.2700 C   0  0  0  0  0  2  0  0  0  0  0  0
  189.6520  176.9320  142.1090 C   0  0  1  0  0  3  0  0  0  0  0  0
  189.2230  176.9020  139.6490 C   0  0  1  0  0  3  0  0  0  0  0  0
  190.3080  176.8370  140.7200 C   0  0  0  0  0  2  0  0  0  0  0  0
  188.4070  178.2020  139.7990 C   0  0  2  0  0  3  0  0  0  0  0  0
  188.9860  179.2460  139.0750 O   0  0  0  0  0  1  0  0  0  0  0  0
  190.6220  177.4290  143.1950 C   0  0  0  0  0  3  0  0  0  0  0  0
  190.0990  177.1310  144.5890 C   0  0  0  0  0  2  0  0  0  0  0  0
  191.2260  176.3000  144.0120 C   0  0  0  0  0  2  0  0  0  0  0  0
  1 22  1  1  0  0  0
  3  1  1  0  0  0  0
  4  2  1  6  0  0  0
  4  1  1  0  0  0  0
  5  2  1  1  0  0  0
  5  9  1  0  0  0  0
  6  7  1  0  0  0  0
  7 17  1  6  0  0  0
  7  9  1  0  0  0  0
  8 11  1  1  0  0  0
  8  4  1  0  0  0  0
 10  8  1  0  0  0  0
 10 13  1  0  0  0  0
 11 14  1  0  0  0  0
 12  6  1  0  0  0  0
 12  5  1  0  0  0  0
 13  5  1  0  0  0  0
 13 19  1  1  0  0  0
 14  3  1  0  0  0  0
 15  6  2  0  0  0  0
 17 16  1  0  0  0  0
 18 17  1  0  0  0  0
 18 16  1  0  0  0  0
 20 19  1  0  0  0  0
 22 21  1  1  0  0  0
 24 23  1  0  0  0  0
 25 23  1  0  0  0  0
 25 30  1  1  0  0  0
 26 22  1  6  0  0  0
 26 28  1  0  0  0  0
 26 27  1  0  0  0  0
 27 25  1  0  0  0  0
 28 29  1  6  0  0  0
 28 24  1  0  0  0  0
 30 32  1  0  0  0  0
 30 31  1  0  0  0  0
 32 31  1  0  0  0  0
M  END
>  <MODEL>
6

>  <REMARK>
 VINA RESULT:      -6.4      4.566      6.422
  Name = 
  5 active torsions:
  status: ('A' for Active; 'I' for Inactive)
    1  A    between atoms: C_1  and  C_27
    2  A    between atoms: C_7  and  C_15
    3  A    between atoms: C_11  and  C_12
    4  A    between atoms: C_13  and  C_29
    5  A    between atoms: C_16  and  C_27
                            x       y       z     vdW  Elec       q    Type
                         _______ _______ _______ _____ _____    ______ ____

>  <TORSDO>
F 5

$$$$
=
 OpenBabel10262421033D

 32 37  0  0  1  0  0  0  0  0999 V2000
  187.6190  178.2820  137.8360 C   0  0  1  0  0  3  0  0  0  0  0  0
  185.4880  178.2720  138.8350 C   0  0  0  0  0  2  0  0  0  0  0  0
  188.0660  179.0030  136.5590 C   0  0  0  0  0  2  0  0  0  0  0  0
  186.2810  177.6590  137.7590 N   0  0  1  0  0  0  0  0  0  0  0  0
  183.9710  178.0510  138.7040 C   0  0  1  0  0  0  0  0  0  0  0  0
  182.2680  179.6910  138.8570 C   0  0  0  0  0  0  0  0  0  0  0  0
  181.8550  178.9070  140.0410 C   0  0  2  0  0  3  0  0  0  0  0  0
  185.6090  177.8480  136.4580 C   0  0  2  0  0  3  0  0  0  0  0  0
  183.2520  177.7820  140.3730 S   0  0  0  0  0  0  0  0  0  0  0  0
  184.3300  177.0080  136.3930 C   0  0  0  0  0  2  0  0  0  0  0  0
  186.5130  177.4310  135.2970 C   0  0  0  0  0  2  0  0  0  0  0  0
  183.3880  179.2360  138.1900 O   0  0  0  0  0  0  0  0  0  0  0  0
  183.6280  176.8850  137.7510 C   0  0  1  0  0  3  0  0  0  0  0  0
  187.8790  178.1190  135.3290 C   0  0  0  0  0  2  0  0  0  0  0  0
  181.6490  180.7200  138.4780 O   0  0  0  0  0  0  0  0  0  0  0  0
  179.8880  177.7360  140.9940 C   0  0  0  0  0  2  0  0  0  0  0  0
  180.6150  178.0900  139.7120 C   0  0  0  0  0  3  0  0  0  0  0  0
  179.3760  178.8620  140.1220 C   0  0  0  0  0  2  0  0  0  0  0  0
  183.8050  175.4820  138.3430 C   0  0  0  0  0  2  0  0  0  0  0  0
  184.5900  174.6710  137.5220 O   0  0  0  0  0  1  0  0  0  0  0  0
  188.1280  175.9860  138.3440 O   0  0  0  0  0  1  0  0  0  0  0  0
  188.6700  177.2760  138.3210 C   0  0  2  0  0  3  0  0  0  0  0  0
  190.1830  178.0840  142.1870 O   0  0  0  0  0  0  0  0  0  0  0  0
  190.9720  177.1750  141.4510 C   0  0  0  0  0  2  0  0  0  0  0  0
  188.8240  177.6550  142.1800 C   0  0  1  0  0  3  0  0  0  0  0  0
  189.1930  177.6600  139.7100 C   0  0  1  0  0  3  0  0  0  0  0  0
  188.3050  177.1270  140.8300 C   0  0  0  0  0  2  0  0  0  0  0  0
  190.6590  177.2450  139.9520 C   0  0  2  0  0  3  0  0  0  0  0  0
  190.9300  176.0000  139.3810 O   0  0  0  0  0  1  0  0  0  0  0  0
  188.3930  176.7800  143.3700 C   0  0  0  0  0  3  0  0  0  0  0  0
  188.9220  177.3260  144.6850 C   0  0  0  0  0  2  0  0  0  0  0  0
  187.4610  177.5020  144.3290 C   0  0  0  0  0  2  0  0  0  0  0  0
  1 22  1  6  0  0  0
  3  1  1  0  0  0  0
  4  1  1  0  0  0  0
  4  2  1  1  0  0  0
  5  2  1  1  0  0  0
  5  9  1  0  0  0  0
  6  7  1  0  0  0  0
  7 17  1  6  0  0  0
  7  9  1  0  0  0  0
  8 11  1  6  0  0  0
  8  4  1  0  0  0  0
 10  8  1  0  0  0  0
 10 13  1  0  0  0  0
 11 14  1  0  0  0  0
 12  5  1  0  0  0  0
 12  6  1  0  0  0  0
 13 19  1  1  0  0  0
 13  5  1  0  0  0  0
 14  3  1  0  0  0  0
 15  6  2  0  0  0  0
 17 18  1  0  0  0  0
 17 16  1  0  0  0  0
 18 16  1  0  0  0  0
 20 19  1  0  0  0  0
 22 21  1  1  0  0  0
 24 23  1  0  0  0  0
 25 23  1  0  0  0  0
 25 30  1  1  0  0  0
 26 22  1  6  0  0  0
 26 28  1  0  0  0  0
 26 27  1  0  0  0  0
 27 25  1  0  0  0  0
 28 29  1  1  0  0  0
 28 24  1  0  0  0  0
 30 32  1  0  0  0  0
 30 31  1  0  0  0  0
 32 31  1  0  0  0  0
M  END
>  <MODEL>
7

>  <REMARK>
 VINA RESULT:      -6.3      2.226      3.344
  Name = 
  5 active torsions:
  status: ('A' for Active; 'I' for Inactive)
    1  A    between atoms: C_1  and  C_27
    2  A    between atoms: C_7  and  C_15
    3  A    between atoms: C_11  and  C_12
    4  A    between atoms: C_13  and  C_29
    5  A    between atoms: C_16  and  C_27
                            x       y       z     vdW  Elec       q    Type
                         _______ _______ _______ _____ _____    ______ ____

>  <TORSDO>
F 5

$$$$
=
 OpenBabel10262421033D

 32 37  0  0  1  0  0  0  0  0999 V2000
  190.3280  177.2450  141.4860 C   0  0  1  0  0  3  0  0  0  0  0  0
  188.7340  177.1710  139.7560 C   0  0  0  0  0  2  0  0  0  0  0  0
  191.5030  178.2170  141.6560 C   0  0  0  0  0  2  0  0  0  0  0  0
  190.1070  176.7770  140.1030 N   0  0  1  0  0  0  0  0  0  0  0  0
  188.4240  177.1190  138.2510 C   0  0  1  0  0  0  0  0  0  0  0  0
  187.4050  178.8110  136.9410 C   0  0  0  0  0  0  0  0  0  0  0  0
  186.3420  177.7980  136.7670 C   0  0  2  0  0  3  0  0  0  0  0  0
  191.0620  177.3350  139.1240 C   0  0  2  0  0  3  0  0  0  0  0  0
  186.7060  176.5120  138.0070 S   0  0  0  0  0  0  0  0  0  0  0  0
  190.8930  176.6490  137.7660 C   0  0  0  0  0  2  0  0  0  0  0  0
  192.5080  177.1400  139.5810 C   0  0  0  0  0  2  0  0  0  0  0  0
  188.4690  178.4400  137.7380 O   0  0  0  0  0  0  0  0  0  0  0  0
  189.4400  176.2570  137.4720 C   0  0  1  0  0  3  0  0  0  0  0  0
  192.7660  177.6810  140.9890 C   0  0  0  0  0  2  0  0  0  0  0  0
  187.3470  179.9490  136.4070 O   0  0  0  0  0  0  0  0  0  0  0  0
  185.3270  176.1640  135.2010 C   0  0  0  0  0  2  0  0  0  0  0  0
  186.4240  177.1950  135.3740 C   0  0  0  0  0  3  0  0  0  0  0  0
  185.1710  177.5420  134.5960 C   0  0  0  0  0  2  0  0  0  0  0  0
  189.2380  174.7410  137.5900 C   0  0  0  0  0  2  0  0  0  0  0  0
  190.4560  174.0590  137.6060 O   0  0  0  0  0  1  0  0  0  0  0  0
  189.1880  175.4060  142.5360 O   0  0  0  0  0  1  0  0  0  0  0  0
  190.4190  176.0650  142.4620 C   0  0  2  0  0  3  0  0  0  0  0  0
  191.5770  177.1320  146.3880 O   0  0  0  0  0  0  0  0  0  0  0  0
  192.0150  175.8490  146.0000 C   0  0  0  0  0  2  0  0  0  0  0  0
  190.1770  177.2530  146.1490 C   0  0  1  0  0  3  0  0  0  0  0  0
  190.8540  176.5410  143.8530 C   0  0  1  0  0  3  0  0  0  0  0  0
  189.6800  176.6570  144.8190 C   0  0  0  0  0  2  0  0  0  0  0  0
  191.9710  175.6770  144.4760 C   0  0  2  0  0  3  0  0  0  0  0  0
  191.7810  174.3250  144.1860 O   0  0  0  0  0  1  0  0  0  0  0  0
  189.2630  176.9090  147.3380 C   0  0  0  0  0  3  0  0  0  0  0  0
  189.1140  178.0850  148.2860 C   0  0  0  0  0  2  0  0  0  0  0  0
  187.9790  177.7210  147.3520 C   0  0  0  0  0  2  0  0  0  0  0  0
  1  3  1  0  0  0  0
  1 22  1  1  0  0  0
  4  2  1  6  0  0  0
  4  1  1  0  0  0  0
  5  2  1  1  0  0  0
  6 12  1  0  0  0  0
  7 17  1  6  0  0  0
  7  6  1  0  0  0  0
  7  9  1  0  0  0  0
  8 10  1  6  0  0  0
  8 11  1  0  0  0  0
  8  4  1  0  0  0  0
  9  5  1  0  0  0  0
 11 14  1  0  0  0  0
 12  5  1  0  0  0  0
 13 19  1  1  0  0  0
 13 10  1  0  0  0  0
 13  5  1  0  0  0  0
 14  3  1  0  0  0  0
 15  6  2  0  0  0  0
 16 17  1  0  0  0  0
 18 16  1  0  0  0  0
 18 17  1  0  0  0  0
 19 20  1  0  0  0  0
 22 21  1  1  0  0  0
 24 23  1  0  0  0  0
 25 23  1  0  0  0  0
 25 30  1  1  0  0  0
 26 22  1  6  0  0  0
 26 28  1  0  0  0  0
 26 27  1  0  0  0  0
 27 25  1  0  0  0  0
 28 29  1  1  0  0  0
 28 24  1  0  0  0  0
 30 32  1  0  0  0  0
 30 31  1  0  0  0  0
 32 31  1  0  0  0  0
M  END
>  <MODEL>
8

>  <REMARK>
 VINA RESULT:      -6.2      3.967      4.817
  Name = 
  5 active torsions:
  status: ('A' for Active; 'I' for Inactive)
    1  A    between atoms: C_1  and  C_27
    2  A    between atoms: C_7  and  C_15
    3  A    between atoms: C_11  and  C_12
    4  A    between atoms: C_13  and  C_29
    5  A    between atoms: C_16  and  C_27
                            x       y       z     vdW  Elec       q    Type
                         _______ _______ _______ _____ _____    ______ ____

>  <TORSDO>
F 5

$$$$
=
 OpenBabel10262421033D

 32 37  0  0  1  0  0  0  0  0999 V2000
  183.1900  178.2440  143.0530 C   0  0  1  0  0  3  0  0  0  0  0  0
  183.3530  177.6430  140.7840 C   0  0  0  0  0  2  0  0  0  0  0  0
  181.9860  178.0950  143.9920 C   0  0  0  0  0  2  0  0  0  0  0  0
  182.8570  178.6920  141.6860 N   0  0  1  0  0  0  0  0  0  0  0  0
  182.7880  177.7190  139.3560 C   0  0  1  0  0  0  0  0  0  0  0  0
  181.8390  175.9500  138.0970 C   0  0  0  0  0  0  0  0  0  0  0  0
  182.9910  176.1960  137.2030 C   0  0  2  0  0  3  0  0  0  0  0  0
  181.4140  178.9150  141.4650 C   0  0  2  0  0  3  0  0  0  0  0  0
  184.1080  177.2760  138.1570 S   0  0  0  0  0  0  0  0  0  0  0  0
  181.1780  179.5660  140.1000 C   0  0  0  0  0  2  0  0  0  0  0  0
  180.8190  179.8280  142.5390 C   0  0  0  0  0  2  0  0  0  0  0  0
  181.7690  176.7430  139.2250 O   0  0  0  0  0  0  0  0  0  0  0  0
  182.1830  179.1040  139.0370 C   0  0  1  0  0  3  0  0  0  0  0  0
  181.1010  179.3390  143.9600 C   0  0  0  0  0  2  0  0  0  0  0  0
  180.9750  175.0660  137.8580 O   0  0  0  0  0  0  0  0  0  0  0  0
  183.5460  176.7340  134.8460 C   0  0  0  0  0  2  0  0  0  0  0  0
  182.5270  176.9260  135.9520 C   0  0  0  0  0  3  0  0  0  0  0  0
  182.2680  175.9240  134.8450 C   0  0  0  0  0  2  0  0  0  0  0  0
  183.2010  180.2050  138.7180 C   0  0  0  0  0  2  0  0  0  0  0  0
  182.6100  181.4690  138.7190 O   0  0  0  0  0  1  0  0  0  0  0  0
  184.8870  179.9080  142.6830 O   0  0  0  0  0  1  0  0  0  0  0  0
  184.2880  179.1190  143.6710 C   0  0  2  0  0  3  0  0  0  0  0  0
  187.2980  176.9600  145.7120 O   0  0  0  0  0  0  0  0  0  0  0  0
  186.7950  178.0560  146.4440 C   0  0  0  0  0  2  0  0  0  0  0  0
  187.6830  177.3880  144.4090 C   0  0  1  0  0  3  0  0  0  0  0  0
  185.3410  178.2560  144.3760 C   0  0  1  0  0  3  0  0  0  0  0  0
  186.7150  178.3720  143.7250 C   0  0  0  0  0  2  0  0  0  0  0  0
  185.4460  178.5300  145.8900 C   0  0  2  0  0  3  0  0  0  0  0  0
  185.3050  179.8910  146.1660 O   0  0  0  0  0  1  0  0  0  0  0  0
  189.1590  177.7900  144.2450 C   0  0  0  0  0  3  0  0  0  0  0  0
  190.0500  177.0530  145.2280 C   0  0  0  0  0  2  0  0  0  0  0  0
  190.0360  176.6440  143.7700 C   0  0  0  0  0  2  0  0  0  0  0  0
  1 22  1  1  0  0  0
  1  3  1  0  0  0  0
  4  2  1  6  0  0  0
  4  1  1  0  0  0  0
  5  2  1  1  0  0  0
  6 12  1  0  0  0  0
  7 17  1  6  0  0  0
  7  6  1  0  0  0  0
  7  9  1  0  0  0  0
  8 10  1  6  0  0  0
  8  4  1  0  0  0  0
  8 11  1  0  0  0  0
  9  5  1  0  0  0  0
 11 14  1  0  0  0  0
 12  5  1  0  0  0  0
 13 19  1  1  0  0  0
 13  5  1  0  0  0  0
 13 10  1  0  0  0  0
 14  3  1  0  0  0  0
 15  6  2  0  0  0  0
 16 17  1  0  0  0  0
 18 16  1  0  0  0  0
 18 17  1  0  0  0  0
 19 20  1  0  0  0  0
 22 21  1  6  0  0  0
 23 24  1  0  0  0  0
 25 30  1  1  0  0  0
 25 23  1  0  0  0  0
 26 22  1  6  0  0  0
 26 28  1  0  0  0  0
 27 26  1  0  0  0  0
 27 25  1  0  0  0  0
 28 29  1  6  0  0  0
 28 24  1  0  0  0  0
 30 31  1  0  0  0  0
 32 30  1  0  0  0  0
 32 31  1  0  0  0  0
M  END
>  <MODEL>
9

>  <REMARK>
 VINA RESULT:      -6.0      2.633      4.756
  Name = 
  5 active torsions:
  status: ('A' for Active; 'I' for Inactive)
    1  A    between atoms: C_1  and  C_27
    2  A    between atoms: C_7  and  C_15
    3  A    between atoms: C_11  and  C_12
    4  A    between atoms: C_13  and  C_29
    5  A    between atoms: C_16  and  C_27
                            x       y       z     vdW  Elec       q    Type
                         _______ _______ _______ _____ _____    ______ ____

>  <TORSDO>
F 5

$$$$
