=
 OpenBabel10262420183D

 55 59  0  0  1  0  0  0  0  0999 V2000
  188.8800  175.0830  136.0310 C   0  0  0  0  0  2  0  0  0  0  0  0
  183.7950  177.5330  137.3450 C   0  0  0  0  0  2  0  0  0  0  0  0
  184.6750  179.6430  139.1130 O   0  0  0  0  0  1  0  0  0  0  0  0
  188.8650  178.8900  140.1150 C   0  0  0  0  0  2  0  0  0  0  0  0
  189.2220  178.9620  141.6020 C   0  0  0  0  0  2  0  0  0  0  0  0
  189.2650  176.3750  140.1380 C   0  0  1  0  0  3  0  0  0  0  0  0
  189.6210  176.4630  141.6240 C   0  0  0  0  0  2  0  0  0  0  0  0
  186.5750  178.5310  138.1900 C   0  0  0  0  0  2  0  0  0  0  0  0
  190.1970  177.8440  141.9800 C   0  0  0  0  0  2  0  0  0  0  0  0
  187.0800  173.4460  136.6210 C   0  0  0  0  0  3  0  0  0  0  0  0
  188.2660  177.5100  139.8140 C   0  0  2  0  0  3  0  0  0  0  0  0
  185.1700  174.9950  135.2700 C   0  0  0  0  0  0  0  0  0  0  0  0
  189.1050  175.8690  137.3160 C   0  0  1  0  0  3  0  0  0  0  0  0
  186.5100  175.3880  135.2870 C   0  0  0  0  0  3  0  0  0  0  0  0
  190.5270  175.8180  137.9050 C   0  0  2  0  0  3  0  0  0  0  0  0
  182.7840  176.4370  137.0680 C   0  0  0  0  0  2  0  0  0  0  0  0
  190.5550  176.4790  139.3030 C   0  0  0  0  0  2  0  0  0  0  0  0
  184.4290  177.2920  138.7050 C   0  0  0  0  0  2  0  0  0  0  0  0
  185.3630  178.4310  139.1090 C   0  0  2  0  0  3  0  0  0  0  0  0
  185.7450  173.0430  136.6000 C   0  0  0  0  0  3  0  0  0  0  0  0
  182.2210  176.5970  135.6670 C   0  0  1  0  0  3  0  0  0  0  0  0
  187.4670  174.6150  135.9550 C   0  0  0  0  0  0  0  0  0  0  0  0
  187.5610  177.3970  138.4450 C   0  0  2  0  0  3  0  0  0  0  0  0
  188.5200  177.2690  137.2750 C   0  0  0  0  0  2  0  0  0  0  0  0
  182.8320  175.5830  134.7100 C   0  0  0  0  0  2  0  0  0  0  0  0
  184.2350  175.7920  134.5960 O   0  0  0  0  0  0  0  0  0  0  0  0
  184.7910  173.8160  135.9270 C   0  0  0  0  0  3  0  0  0  0  0  0
  192.8280  176.6680  137.6730 C   0  0  0  0  0  2  0  0  0  0  0  0
  193.7190  174.4600  136.8330 C   0  0  2  0  0  3  0  0  0  0  0  0
  191.7570  175.6540  135.7910 C   0  0  0  0  0  2  0  0  0  0  0  0
  192.3910  174.2920  136.0940 C   0  0  0  0  0  2  0  0  0  0  0  0
  193.5240  175.3540  138.0560 C   0  0  0  0  0  2  0  0  0  0  0  0
  191.5310  176.4470  137.0090 N   0  0  1  0  0  0  0  0  0  0  0  0
  194.8250  174.9940  135.9230 C   0  0  0  0  0  3  0  0  0  0  0  0
  195.0350  174.1250  134.8540 O   0  0  0  0  0  1  0  0  0  0  0  0
  196.0090  175.1190  136.6490 O   0  0  0  0  0  1  0  0  0  0  0  0
  180.8340  176.4270  135.7120 O   0  0  0  0  0  0  0  0  0  0  0  0
  180.3860  177.3630  136.5890 N   0  0  0  0  0  0  0  0  0  0  0  0
  181.1610  179.5030  136.0730 F   0  0  0  0  0  0  0  0  0  0  0  0
  180.1480  178.5880  135.8350 C   0  0  0  0  0  3  0  0  0  0  0  0
  178.9420  179.1510  136.2180 F   0  0  0  0  0  0  0  0  0  0  0  0
  179.0890  176.9050  137.0790 C   0  0  0  0  0  2  0  0  0  0  0  0
  178.9810  177.1370  138.5810 C   0  0  0  0  0  2  0  0  0  0  0  0
  180.9510  177.2310  140.1990 N   0  0  0  0  0  2  0  0  0  0  0  0
  180.0890  176.4690  139.3470 C   0  0  0  0  0  0  0  0  0  0  0  0
  180.2380  175.2180  139.2870 O   0  0  0  0  0  0  0  0  0  0  0  0
  180.7620  178.6480  140.4730 C   0  0  2  0  0  3  0  0  0  0  0  0
  181.0770  179.4530  139.2220 C   0  0  0  0  0  2  0  0  0  0  0  0
  181.0180  180.9470  139.4970 C   0  0  0  0  0  3  0  0  0  0  0  0
  181.8610  181.6670  138.4750 C   0  0  0  0  0  1  0  0  0  0  0  0
  179.5860  181.4430  139.3980 C   0  0  0  0  0  1  0  0  0  0  0  0
  181.6080  179.1000  141.6740 C   0  0  0  0  0  2  0  0  0  0  0  0
  180.7790  179.5070  142.8510 C   0  0  0  0  0  0  0  0  0  0  0  0
  180.2140  180.6380  142.8700 O   0  0  0  0  0  0  0  0  0  0  0  0
  180.5990  178.6010  143.9330 N   0  0  0  0  0  1  0  0  0  0  0  0
  2 18  1  0  0  0  0
  4  5  1  0  0  0  0
  5  9  1  0  0  0  0
  6 17  1  6  0  0  0
  6  7  1  0  0  0  0
  7  9  1  0  0  0  0
  8 23  1  0  0  0  0
  8 19  1  0  0  0  0
 11  4  1  6  0  0  0
 11  6  1  0  0  0  0
 12 14  2  0  0  0  0
 12 27  1  0  0  0  0
 13  1  1  6  0  0  0
 13 15  1  0  0  0  0
 14 22  1  0  0  0  0
 15 17  1  1  0  0  0
 16  2  1  0  0  0  0
 18 19  1  0  0  0  0
 19  3  1  6  0  0  0
 20 10  1  0  0  0  0
 21 37  1  1  0  0  0
 21 16  1  0  0  0  0
 22  1  1  0  0  0  0
 22 10  2  0  0  0  0
 23 24  1  6  0  0  0
 23 11  1  0  0  0  0
 24 13  1  0  0  0  0
 25 21  1  0  0  0  0
 26 25  1  0  0  0  0
 26 12  1  0  0  0  0
 27 20  2  0  0  0  0
 28 32  1  0  0  0  0
 29 34  1  6  0  0  0
 29 32  1  0  0  0  0
 30 31  1  0  0  0  0
 31 29  1  0  0  0  0
 33 30  1  6  0  0  0
 33 28  1  0  0  0  0
 33 15  1  0  0  0  0
 34 36  1  0  0  0  0
 35 34  1  0  0  0  0
 37 38  1  0  0  0  0
 38 42  1  0  0  0  0
 40 39  1  0  0  0  0
 40 41  1  0  0  0  0
 40 38  1  0  0  0  0
 42 43  1  0  0  0  0
 43 45  1  0  0  0  0
 44 47  1  0  0  0  0
 45 44  1  0  0  0  0
 46 45  2  0  0  0  0
 47 48  1  6  0  0  0
 47 52  1  0  0  0  0
 48 49  1  0  0  0  0
 50 49  1  0  0  0  0
 51 49  1  0  0  0  0
 52 53  1  0  0  0  0
 53 54  2  0  0  0  0
 53 55  1  0  0  0  0
M  END
>  <MODEL>
1

>  <REMARK>
 VINA RESULT:      -5.1      0.000      0.000
  Name = 
  13 active torsions:
  status: ('A' for Active; 'I' for Inactive)
    1  A    between atoms: C_1  and  C_53
    2  A    between atoms: N_3  and  C_38
    3  A    between atoms: C_6  and  C_12
    4  A    between atoms: C_6  and  C_46
    5  A    between atoms: O_8  and  N_22
    6  A    between atoms: O_8  and  C_43
    7  A    between atoms: C_10  and  C_32
    8  A    between atoms: C_11  and  C_29
    9  A    between atoms: C_20  and  N_22
   10  A    between atoms: N_22  and  C_46
   11  A    between atoms: C_29  and  C_38
   12  A    between atoms: C_33  and  N_52
   13  A    between atoms: C_38  and  C_53
                            x       y       z     vdW  Elec       q    Type
                         _______ _______ _______ _____ _____    ______ ____

>  <TORSDO>
F 13

$$$$
=
 OpenBabel10262420183D

 55 59  0  0  1  0  0  0  0  0999 V2000
  183.3780  174.8680  136.2630 C   0  0  0  0  0  2  0  0  0  0  0  0
  186.9460  178.0840  139.5050 C   0  0  0  0  0  2  0  0  0  0  0  0
  185.0380  179.3900  141.2390 O   0  0  0  0  0  1  0  0  0  0  0  0
  181.0420  178.6730  139.6160 C   0  0  0  0  0  2  0  0  0  0  0  0
  180.1410  179.9030  139.4830 C   0  0  0  0  0  2  0  0  0  0  0  0
  181.2020  178.5120  137.0800 C   0  0  1  0  0  3  0  0  0  0  0  0
  180.2990  179.7430  136.9620 C   0  0  0  0  0  2  0  0  0  0  0  0
  183.9110  177.7890  139.8750 C   0  0  0  0  0  2  0  0  0  0  0  0
  179.3550  179.8600  138.1700 C   0  0  0  0  0  2  0  0  0  0  0  0
  185.1200  176.0960  134.9510 C   0  0  0  0  0  3  0  0  0  0  0  0
  181.9860  178.6150  138.4080 C   0  0  2  0  0  3  0  0  0  0  0  0
  187.0280  175.6120  136.9510 C   0  0  0  0  0  0  0  0  0  0  0  0
  182.5220  175.9710  136.8720 C   0  0  1  0  0  3  0  0  0  0  0  0
  185.7310  175.1100  137.0790 C   0  0  0  0  0  3  0  0  0  0  0  0
  181.0280  175.9590  136.4980 C   0  0  2  0  0  3  0  0  0  0  0  0
  188.1920  178.2120  138.6510 C   0  0  0  0  0  2  0  0  0  0  0  0
  180.3340  177.2420  137.0120 C   0  0  0  0  0  2  0  0  0  0  0  0
  185.9100  179.0870  139.0250 C   0  0  0  0  0  2  0  0  0  0  0  0
  184.6750  179.1070  139.9240 C   0  0  2  0  0  3  0  0  0  0  0  0
  186.4160  176.5930  134.8130 C   0  0  0  0  0  3  0  0  0  0  0  0
  189.1980  177.1430  139.0420 C   0  0  1  0  0  3  0  0  0  0  0  0
  184.7780  175.3440  136.0820 C   0  0  0  0  0  0  0  0  0  0  0  0
  183.1640  177.6270  138.5560 C   0  0  2  0  0  3  0  0  0  0  0  0
  182.7700  176.1750  138.3560 C   0  0  0  0  0  2  0  0  0  0  0  0
  189.2230  176.0130  138.0210 C   0  0  0  0  0  2  0  0  0  0  0  0
  187.9580  175.3640  137.9700 O   0  0  0  0  0  0  0  0  0  0  0  0
  187.3680  176.3530  135.8110 C   0  0  0  0  0  3  0  0  0  0  0  0
  178.9860  174.5830  136.4240 C   0  0  0  0  0  2  0  0  0  0  0  0
  179.8770  173.0900  134.5940 C   0  0  2  0  0  3  0  0  0  0  0  0
  181.1030  173.5220  136.7550 C   0  0  0  0  0  2  0  0  0  0  0  0
  181.2480  173.2200  135.2600 C   0  0  0  0  0  2  0  0  0  0  0  0
  179.0260  174.3170  134.9120 C   0  0  0  0  0  2  0  0  0  0  0  0
  180.3310  174.7480  137.0040 N   0  0  1  0  0  0  0  0  0  0  0  0
  179.1630  171.7970  134.9870 C   0  0  0  0  0  3  0  0  0  0  0  0
  178.9310  171.7700  136.3600 O   0  0  0  0  0  1  0  0  0  0  0  0
  179.9510  170.7020  134.6350 O   0  0  0  0  0  1  0  0  0  0  0  0
  190.4660  177.7240  139.1340 O   0  0  0  0  0  0  0  0  0  0  0  0
  191.1660  176.9220  139.9800 N   0  0  0  0  0  0  0  0  0  0  0  0
  193.4500  177.2720  140.3140 F   0  0  0  0  0  0  0  0  0  0  0  0
  192.5080  176.7740  139.4280 C   0  0  0  0  0  3  0  0  0  0  0  0
  192.6070  177.4700  138.2350 F   0  0  0  0  0  0  0  0  0  0  0  0
  191.3010  177.6430  141.2410 C   0  0  0  0  0  2  0  0  0  0  0  0
  190.0110  177.5450  142.0460 C   0  0  0  0  0  2  0  0  0  0  0  0
  189.3020  176.3820  144.2030 N   0  0  0  0  0  2  0  0  0  0  0  0
  189.9840  176.3400  142.9440 C   0  0  0  0  0  0  0  0  0  0  0  0
  190.5200  175.2590  142.5740 O   0  0  0  0  0  0  0  0  0  0  0  0
  188.5110  177.5180  144.6510 C   0  0  2  0  0  3  0  0  0  0  0  0
  189.2030  178.1850  145.8290 C   0  0  0  0  0  2  0  0  0  0  0  0
  189.3270  177.2350  147.0080 C   0  0  0  0  0  3  0  0  0  0  0  0
  190.7810  176.8890  147.2090 C   0  0  0  0  0  1  0  0  0  0  0  0
  188.7940  177.8900  148.2700 C   0  0  0  0  0  1  0  0  0  0  0  0
  187.0740  177.0950  144.9950 C   0  0  0  0  0  2  0  0  0  0  0  0
  186.1300  178.2520  145.0800 C   0  0  0  0  0  0  0  0  0  0  0  0
  185.4180  178.5660  144.0840 O   0  0  0  0  0  0  0  0  0  0  0  0
  186.0100  178.9760  146.3000 N   0  0  0  0  0  1  0  0  0  0  0  0
  5  4  1  0  0  0  0
  6  7  1  1  0  0  0
  6 11  1  0  0  0  0
  7  9  1  0  0  0  0
  8 19  1  0  0  0  0
  9  5  1  0  0  0  0
 10 22  1  0  0  0  0
 11 23  1  0  0  0  0
 11  4  1  1  0  0  0
 12 14  1  0  0  0  0
 12 26  1  0  0  0  0
 13  1  1  1  0  0  0
 13 24  1  0  0  0  0
 15 13  1  0  0  0  0
 15 33  1  0  0  0  0
 15 17  1  1  0  0  0
 16 21  1  0  0  0  0
 16  2  1  0  0  0  0
 17  6  1  0  0  0  0
 18  2  1  0  0  0  0
 18 19  1  0  0  0  0
 19  3  1  1  0  0  0
 20 10  2  0  0  0  0
 20 27  1  0  0  0  0
 21 37  1  6  0  0  0
 22  1  1  0  0  0  0
 22 14  2  0  0  0  0
 23 24  1  1  0  0  0
 23  8  1  0  0  0  0
 25 21  1  0  0  0  0
 26 25  1  0  0  0  0
 27 12  2  0  0  0  0
 29 32  1  0  0  0  0
 29 34  1  1  0  0  0
 29 31  1  0  0  0  0
 30 33  1  0  0  0  0
 31 30  1  0  0  0  0
 32 28  1  0  0  0  0
 33 28  1  6  0  0  0
 34 35  1  0  0  0  0
 36 34  1  0  0  0  0
 37 38  1  0  0  0  0
 38 42  1  0  0  0  0
 40 38  1  0  0  0  0
 40 39  1  0  0  0  0
 41 40  1  0  0  0  0
 42 43  1  0  0  0  0
 43 45  1  0  0  0  0
 44 47  1  0  0  0  0
 45 44  1  0  0  0  0
 46 45  2  0  0  0  0
 47 52  1  1  0  0  0
 47 48  1  0  0  0  0
 48 49  1  0  0  0  0
 49 50  1  0  0  0  0
 49 51  1  0  0  0  0
 52 53  1  0  0  0  0
 53 55  1  0  0  0  0
 54 53  2  0  0  0  0
M  END
>  <MODEL>
2

>  <REMARK>
 VINA RESULT:      -4.9      4.119      9.669
  Name = 
  13 active torsions:
  status: ('A' for Active; 'I' for Inactive)
    1  A    between atoms: C_1  and  C_53
    2  A    between atoms: N_3  and  C_38
    3  A    between atoms: C_6  and  C_12
    4  A    between atoms: C_6  and  C_46
    5  A    between atoms: O_8  and  N_22
    6  A    between atoms: O_8  and  C_43
    7  A    between atoms: C_10  and  C_32
    8  A    between atoms: C_11  and  C_29
    9  A    between atoms: C_20  and  N_22
   10  A    between atoms: N_22  and  C_46
   11  A    between atoms: C_29  and  C_38
   12  A    between atoms: C_33  and  N_52
   13  A    between atoms: C_38  and  C_53
                            x       y       z     vdW  Elec       q    Type
                         _______ _______ _______ _____ _____    ______ ____

>  <TORSDO>
F 13

$$$$
=
 OpenBabel10262420183D

 55 59  0  0  1  0  0  0  0  0999 V2000
  183.5790  175.4990  136.8600 C   0  0  0  0  0  2  0  0  0  0  0  0
  187.1670  178.1740  140.5420 C   0  0  0  0  0  2  0  0  0  0  0  0
  185.2970  178.9910  142.5890 O   0  0  0  0  0  1  0  0  0  0  0  0
  181.2560  178.4040  141.0240 C   0  0  0  0  0  2  0  0  0  0  0  0
  180.2960  179.5840  141.1870 C   0  0  0  0  0  2  0  0  0  0  0  0
  181.2890  178.7750  138.5050 C   0  0  1  0  0  3  0  0  0  0  0  0
  180.3270  179.9530  138.6840 C   0  0  0  0  0  2  0  0  0  0  0  0
  184.1720  177.6430  140.9720 C   0  0  0  0  0  2  0  0  0  0  0  0
  179.4440  179.7670  139.9280 C   0  0  0  0  0  2  0  0  0  0  0  0
  185.1930  177.0630  135.7570 C   0  0  0  0  0  3  0  0  0  0  0  0
  182.1370  178.6460  139.7910 C   0  0  2  0  0  3  0  0  0  0  0  0
  187.2240  176.2850  137.5310 C   0  0  0  0  0  0  0  0  0  0  0  0
  182.7090  176.4060  137.7200 C   0  0  1  0  0  3  0  0  0  0  0  0
  185.9590  175.6970  137.6070 C   0  0  0  0  0  3  0  0  0  0  0  0
  181.2000  176.3880  137.4150 C   0  0  2  0  0  3  0  0  0  0  0  0
  188.3590  178.5420  139.6810 C   0  0  0  0  0  2  0  0  0  0  0  0
  180.4770  177.4990  138.2130 C   0  0  0  0  0  2  0  0  0  0  0  0
  186.0630  179.1960  140.3250 C   0  0  0  0  0  2  0  0  0  0  0  0
  184.8780  178.9640  141.2600 C   0  0  2  0  0  3  0  0  0  0  0  0
  186.4570  177.6480  135.6700 C   0  0  0  0  0  3  0  0  0  0  0  0
  189.4310  177.4720  139.7990 C   0  0  1  0  0  3  0  0  0  0  0  0
  184.9460  176.0780  136.7210 C   0  0  0  0  0  0  0  0  0  0  0  0
  183.3640  177.7150  139.6820 C   0  0  2  0  0  3  0  0  0  0  0  0
  183.0260  176.3150  139.2020 C   0  0  0  0  0  2  0  0  0  0  0  0
  189.4530  176.5780  138.5660 C   0  0  0  0  0  2  0  0  0  0  0  0
  188.2160  175.8850  138.4350 O   0  0  0  0  0  0  0  0  0  0  0  0
  187.4700  177.2610  136.5550 C   0  0  0  0  0  3  0  0  0  0  0  0
  179.1660  175.0010  137.2910 C   0  0  0  0  0  2  0  0  0  0  0  0
  179.7660  174.0600  135.0260 C   0  0  2  0  0  3  0  0  0  0  0  0
  181.3080  173.9720  137.0210 C   0  0  0  0  0  2  0  0  0  0  0  0
  181.2230  174.0670  135.4940 C   0  0  0  0  0  2  0  0  0  0  0  0
  178.9760  175.1320  135.7730 C   0  0  0  0  0  2  0  0  0  0  0  0
  180.5850  175.0640  137.6880 N   0  0  1  0  0  0  0  0  0  0  0  0
  179.1180  172.6840  135.1740 C   0  0  0  0  0  3  0  0  0  0  0  0
  178.9320  172.3770  136.5200 O   0  0  0  0  0  1  0  0  0  0  0  0
  179.9370  171.7160  134.5940 O   0  0  0  0  0  1  0  0  0  0  0  0
  190.6750  178.0900  139.9560 O   0  0  0  0  0  0  0  0  0  0  0  0
  191.4330  177.1980  140.6480 N   0  0  0  0  0  0  0  0  0  0  0  0
  193.4350  178.1260  139.8860 F   0  0  0  0  0  0  0  0  0  0  0  0
  192.6560  176.9810  139.8840 C   0  0  0  0  0  3  0  0  0  0  0  0
  192.3420  176.6590  138.5730 F   0  0  0  0  0  0  0  0  0  0  0  0
  191.8210  177.8450  141.8970 C   0  0  0  0  0  2  0  0  0  0  0  0
  190.5970  178.0690  142.7770 C   0  0  0  0  0  2  0  0  0  0  0  0
  190.1820  178.6930  145.2150 N   0  0  0  0  0  2  0  0  0  0  0  0
  190.9080  178.8900  143.9970 C   0  0  0  0  0  0  0  0  0  0  0  0
  191.8500  179.7290  143.9750 O   0  0  0  0  0  0  0  0  0  0  0  0
  189.1940  177.6400  145.4010 C   0  0  2  0  0  3  0  0  0  0  0  0
  187.9950  178.1970  146.1530 C   0  0  0  0  0  2  0  0  0  0  0  0
  186.7310  178.1190  145.3120 C   0  0  0  0  0  3  0  0  0  0  0  0
  186.7600  176.8490  144.5000 C   0  0  0  0  0  1  0  0  0  0  0  0
  185.5040  178.1090  146.2070 C   0  0  0  0  0  1  0  0  0  0  0  0
  189.8040  176.4240  146.1150 C   0  0  0  0  0  2  0  0  0  0  0  0
  191.2980  176.4580  146.1510 C   0  0  0  0  0  0  0  0  0  0  0  0
  191.8970  177.1350  147.0360 O   0  0  0  0  0  0  0  0  0  0  0  0
  192.0440  175.6970  145.2090 N   0  0  0  0  0  1  0  0  0  0  0  0
  4  5  1  0  0  0  0
  6 17  1  1  0  0  0
  6  7  1  0  0  0  0
  6 11  1  0  0  0  0
  7  9  1  0  0  0  0
  8 19  1  0  0  0  0
  9  5  1  0  0  0  0
 10 22  1  0  0  0  0
 11  4  1  1  0  0  0
 12 14  1  0  0  0  0
 12 26  1  0  0  0  0
 13  1  1  6  0  0  0
 13 24  1  0  0  0  0
 15 33  1  0  0  0  0
 15 13  1  0  0  0  0
 15 17  1  1  0  0  0
 16 21  1  0  0  0  0
 16  2  1  0  0  0  0
 18  2  1  0  0  0  0
 18 19  1  0  0  0  0
 19  3  1  1  0  0  0
 20 10  2  0  0  0  0
 20 27  1  0  0  0  0
 21 37  1  6  0  0  0
 22  1  1  0  0  0  0
 22 14  2  0  0  0  0
 23 24  1  1  0  0  0
 23 11  1  0  0  0  0
 23  8  1  0  0  0  0
 25 21  1  0  0  0  0
 26 25  1  0  0  0  0
 27 12  2  0  0  0  0
 28 33  1  0  0  0  0
 29 34  1  1  0  0  0
 29 31  1  0  0  0  0
 29 32  1  0  0  0  0
 31 30  1  0  0  0  0
 32 28  1  0  0  0  0
 33 30  1  6  0  0  0
 34 35  1  0  0  0  0
 36 34  1  0  0  0  0
 37 38  1  0  0  0  0
 38 42  1  0  0  0  0
 40 39  1  0  0  0  0
 40 38  1  0  0  0  0
 41 40  1  0  0  0  0
 42 43  1  0  0  0  0
 43 45  1  0  0  0  0
 44 47  1  0  0  0  0
 45 44  1  0  0  0  0
 46 45  2  0  0  0  0
 47 52  1  1  0  0  0
 47 48  1  0  0  0  0
 49 48  1  0  0  0  0
 49 51  1  0  0  0  0
 50 49  1  0  0  0  0
 52 53  1  0  0  0  0
 53 54  2  0  0  0  0
 55 53  1  0  0  0  0
M  END
>  <MODEL>
3

>  <REMARK>
 VINA RESULT:      -4.4      4.405      9.950
  Name = 
  13 active torsions:
  status: ('A' for Active; 'I' for Inactive)
    1  A    between atoms: C_1  and  C_53
    2  A    between atoms: N_3  and  C_38
    3  A    between atoms: C_6  and  C_12
    4  A    between atoms: C_6  and  C_46
    5  A    between atoms: O_8  and  N_22
    6  A    between atoms: O_8  and  C_43
    7  A    between atoms: C_10  and  C_32
    8  A    between atoms: C_11  and  C_29
    9  A    between atoms: C_20  and  N_22
   10  A    between atoms: N_22  and  C_46
   11  A    between atoms: C_29  and  C_38
   12  A    between atoms: C_33  and  N_52
   13  A    between atoms: C_38  and  C_53
                            x       y       z     vdW  Elec       q    Type
                         _______ _______ _______ _____ _____    ______ ____

>  <TORSDO>
F 13

$$$$
=
 OpenBabel10262420183D

 55 59  0  0  1  0  0  0  0  0999 V2000
  183.6030  179.2330  138.2330 C   0  0  0  0  0  2  0  0  0  0  0  0
  186.8550  174.9100  136.1550 C   0  0  0  0  0  2  0  0  0  0  0  0
  184.7970  173.0220  135.4090 O   0  0  0  0  0  1  0  0  0  0  0  0
  181.0230  174.4050  137.1330 C   0  0  0  0  0  2  0  0  0  0  0  0
  180.2070  173.3550  137.8900 C   0  0  0  0  0  2  0  0  0  0  0  0
  181.5130  175.6100  139.3220 C   0  0  1  0  0  3  0  0  0  0  0  0
  180.6930  174.5520  140.0670 C   0  0  0  0  0  2  0  0  0  0  0  0
  183.7870  175.0620  136.1270 C   0  0  0  0  0  2  0  0  0  0  0  0
  179.6020  173.9540  139.1630 C   0  0  0  0  0  2  0  0  0  0  0  0
  185.5610  178.6440  139.6770 C   0  0  0  0  0  3  0  0  0  0  0  0
  182.1160  174.9510  138.0610 C   0  0  2  0  0  3  0  0  0  0  0  0
  187.1600  178.2210  137.4100 C   0  0  0  0  0  0  0  0  0  0  0  0
  182.7270  177.9870  138.2660 C   0  0  1  0  0  3  0  0  0  0  0  0
  185.8350  178.6410  137.2690 C   0  0  0  0  0  3  0  0  0  0  0  0
  181.2980  178.1740  138.8070 C   0  0  2  0  0  3  0  0  0  0  0  0
  188.2080  175.1340  136.8000 C   0  0  0  0  0  2  0  0  0  0  0  0
  180.6020  176.8030  138.9770 C   0  0  0  0  0  2  0  0  0  0  0  0
  185.9400  174.2120  137.1490 C   0  0  0  0  0  2  0  0  0  0  0  0
  184.5990  173.8350  136.5240 C   0  0  2  0  0  3  0  0  0  0  0  0
  186.8860  178.2320  139.8250 C   0  0  0  0  0  3  0  0  0  0  0  0
  189.1010  175.9280  135.8620 C   0  0  1  0  0  3  0  0  0  0  0  0
  185.0370  178.8580  138.3970 C   0  0  0  0  0  0  0  0  0  0  0  0
  183.2150  175.7700  137.3510 C   0  0  2  0  0  3  0  0  0  0  0  0
  182.7840  177.1780  136.9830 C   0  0  0  0  0  2  0  0  0  0  0  0
  189.2090  177.3810  136.3060 C   0  0  0  0  0  2  0  0  0  0  0  0
  187.9330  178.0090  136.2610 O   0  0  0  0  0  0  0  0  0  0  0  0
  187.6840  178.0210  138.6950 C   0  0  0  0  0  3  0  0  0  0  0  0
  179.1120  179.2580  138.4580 C   0  0  0  0  0  2  0  0  0  0  0  0
  179.7820  181.3490  139.7050 C   0  0  2  0  0  3  0  0  0  0  0  0
  181.1060  180.3930  137.7820 C   0  0  0  0  0  2  0  0  0  0  0  0
  181.1760  181.1710  139.1010 C   0  0  0  0  0  2  0  0  0  0  0  0
  179.0830  179.9950  139.8050 C   0  0  0  0  0  2  0  0  0  0  0  0
  180.4830  179.0720  137.9480 N   0  0  1  0  0  0  0  0  0  0  0  0
  178.9380  182.3570  138.9250 C   0  0  0  0  0  3  0  0  0  0  0  0
  179.4570  182.5380  137.6450 O   0  0  0  0  0  1  0  0  0  0  0  0
  178.9360  183.5810  139.5940 O   0  0  0  0  0  1  0  0  0  0  0  0
  190.3720  175.3460  135.8410 O   0  0  0  0  0  0  0  0  0  0  0  0
  190.1930  174.0780  136.2960 N   0  0  0  0  0  0  0  0  0  0  0  0
  189.0140  172.7640  134.7680 F   0  0  0  0  0  0  0  0  0  0  0  0
  190.2790  173.1860  135.1450 C   0  0  0  0  0  3  0  0  0  0  0  0
  191.0410  172.0750  135.4660 F   0  0  0  0  0  0  0  0  0  0  0  0
  191.3270  173.7680  137.1610 C   0  0  0  0  0  2  0  0  0  0  0  0
  192.5950  174.4150  136.6180 C   0  0  0  0  0  2  0  0  0  0  0  0
  194.6580  175.0060  137.9980 N   0  0  0  0  0  2  0  0  0  0  0  0
  193.2940  175.2620  137.6450 C   0  0  0  0  0  0  0  0  0  0  0  0
  192.7000  176.2430  138.1700 O   0  0  0  0  0  0  0  0  0  0  0  0
  195.4870  174.0110  137.3350 C   0  0  2  0  0  3  0  0  0  0  0  0
  195.9260  172.9610  138.3440 C   0  0  0  0  0  2  0  0  0  0  0  0
  195.7050  171.5560  137.8100 C   0  0  0  0  0  3  0  0  0  0  0  0
  194.5880  171.5860  136.7970 C   0  0  0  0  0  1  0  0  0  0  0  0
  196.9680  171.0430  137.1410 C   0  0  0  0  0  1  0  0  0  0  0  0
  196.6860  174.6660  136.6300 C   0  0  0  0  0  2  0  0  0  0  0  0
  197.9070  174.7240  137.4910 C   0  0  0  0  0  0  0  0  0  0  0  0
  197.9260  175.4610  138.5180 O   0  0  0  0  0  0  0  0  0  0  0  0
  199.0350  173.9180  137.1700 N   0  0  0  0  0  1  0  0  0  0  0  0
  1 13  1  0  0  0  0
  1 22  1  0  0  0  0
  2 16  1  0  0  0  0
  2 18  1  0  0  0  0
  4  5  1  0  0  0  0
  5  9  1  0  0  0  0
  6 17  1  6  0  0  0
  6  7  1  0  0  0  0
  8 19  1  0  0  0  0
  9  7  1  0  0  0  0
 10 20  1  0  0  0  0
 11  4  1  6  0  0  0
 11  6  1  0  0  0  0
 12 27  1  0  0  0  0
 13 24  1  6  0  0  0
 13 15  1  0  0  0  0
 14 12  2  0  0  0  0
 14 22  1  0  0  0  0
 15 17  1  6  0  0  0
 19  3  1  6  0  0  0
 19 18  1  0  0  0  0
 21 37  1  1  0  0  0
 21 25  1  0  0  0  0
 21 16  1  0  0  0  0
 22 10  2  0  0  0  0
 23  8  1  6  0  0  0
 23 11  1  0  0  0  0
 24 23  1  0  0  0  0
 26 25  1  0  0  0  0
 26 12  1  0  0  0  0
 27 20  2  0  0  0  0
 28 32  1  0  0  0  0
 29 34  1  6  0  0  0
 29 32  1  0  0  0  0
 30 31  1  0  0  0  0
 31 29  1  0  0  0  0
 33 30  1  1  0  0  0
 33 28  1  0  0  0  0
 33 15  1  0  0  0  0
 34 36  1  0  0  0  0
 35 34  1  0  0  0  0
 37 38  1  0  0  0  0
 38 42  1  0  0  0  0
 39 40  1  0  0  0  0
 40 41  1  0  0  0  0
 40 38  1  0  0  0  0
 43 42  1  0  0  0  0
 43 45  1  0  0  0  0
 45 44  1  0  0  0  0
 45 46  2  0  0  0  0
 47 52  1  1  0  0  0
 47 44  1  0  0  0  0
 47 48  1  0  0  0  0
 49 48  1  0  0  0  0
 50 49  1  0  0  0  0
 51 49  1  0  0  0  0
 52 53  1  0  0  0  0
 53 54  2  0  0  0  0
 55 53  1  0  0  0  0
M  END
>  <MODEL>
4

>  <REMARK>
 VINA RESULT:      -4.1      3.395     11.988
  Name = 
  13 active torsions:
  status: ('A' for Active; 'I' for Inactive)
    1  A    between atoms: C_1  and  C_53
    2  A    between atoms: N_3  and  C_38
    3  A    between atoms: C_6  and  C_12
    4  A    between atoms: C_6  and  C_46
    5  A    between atoms: O_8  and  N_22
    6  A    between atoms: O_8  and  C_43
    7  A    between atoms: C_10  and  C_32
    8  A    between atoms: C_11  and  C_29
    9  A    between atoms: C_20  and  N_22
   10  A    between atoms: N_22  and  C_46
   11  A    between atoms: C_29  and  C_38
   12  A    between atoms: C_33  and  N_52
   13  A    between atoms: C_38  and  C_53
                            x       y       z     vdW  Elec       q    Type
                         _______ _______ _______ _____ _____    ______ ____

>  <TORSDO>
F 13

$$$$
=
 OpenBabel10262420183D

 55 59  0  0  1  0  0  0  0  0999 V2000
  188.5200  176.5690  137.3560 C   0  0  0  0  0  2  0  0  0  0  0  0
  183.9480  178.6030  140.2790 C   0  0  0  0  0  2  0  0  0  0  0  0
  185.2750  179.8170  142.5420 O   0  0  0  0  0  1  0  0  0  0  0  0
  189.4460  178.5040  142.5110 C   0  0  0  0  0  2  0  0  0  0  0  0
  189.9940  177.9790  143.8390 C   0  0  0  0  0  2  0  0  0  0  0  0
  189.5620  176.1570  141.5300 C   0  0  1  0  0  3  0  0  0  0  0  0
  190.1100  175.6460  142.8660 C   0  0  0  0  0  2  0  0  0  0  0  0
  186.9060  179.0420  140.9810 C   0  0  0  0  0  2  0  0  0  0  0  0
  190.8770  176.7490  143.6130 C   0  0  0  0  0  2  0  0  0  0  0  0
  186.6370  174.9340  137.5710 C   0  0  0  0  0  3  0  0  0  0  0  0
  188.6640  177.3820  141.8170 C   0  0  2  0  0  3  0  0  0  0  0  0
  184.7570  176.9870  137.2180 C   0  0  0  0  0  0  0  0  0  0  0  0
  188.9920  176.7860  138.7880 C   0  0  1  0  0  3  0  0  0  0  0  0
  186.1250  177.2680  137.1670 C   0  0  0  0  0  3  0  0  0  0  0  0
  190.4620  176.4330  139.0810 C   0  0  2  0  0  3  0  0  0  0  0  0
  182.7950  177.7560  139.7790 C   0  0  0  0  0  2  0  0  0  0  0  0
  190.7400  176.5030  140.6000 C   0  0  0  0  0  2  0  0  0  0  0  0
  184.7170  177.8220  141.3330 C   0  0  0  0  0  2  0  0  0  0  0  0
  185.8170  178.6630  141.9780 C   0  0  2  0  0  3  0  0  0  0  0  0
  185.2730  174.6450  137.6150 C   0  0  0  0  0  3  0  0  0  0  0  0
  182.0800  178.4740  138.6480 C   0  0  1  0  0  3  0  0  0  0  0  0
  187.0650  176.2460  137.3370 C   0  0  0  0  0  0  0  0  0  0  0  0
  187.7840  177.8450  140.6350 C   0  0  2  0  0  3  0  0  0  0  0  0
  188.5670  178.1240  139.3650 C   0  0  0  0  0  2  0  0  0  0  0  0
  182.4480  177.8740  137.2970 C   0  0  0  0  0  2  0  0  0  0  0  0
  183.8410  178.0330  137.0480 O   0  0  0  0  0  0  0  0  0  0  0  0
  184.3340  175.6690  137.4400 C   0  0  0  0  0  3  0  0  0  0  0  0
  192.8060  177.1320  138.7770 C   0  0  0  0  0  2  0  0  0  0  0  0
  193.2420  175.4130  136.9790 C   0  0  2  0  0  3  0  0  0  0  0  0
  191.3440  177.0720  136.8850 C   0  0  0  0  0  2  0  0  0  0  0  0
  191.8120  175.6650  136.4980 C   0  0  0  0  0  2  0  0  0  0  0  0
  193.3520  175.7300  138.4690 C   0  0  0  0  0  2  0  0  0  0  0  0
  191.4090  177.3020  138.3350 N   0  0  1  0  0  0  0  0  0  0  0  0
  194.2730  176.1940  136.1650 C   0  0  0  0  0  3  0  0  0  0  0  0
  194.0080  176.0710  134.8030 O   0  0  0  0  0  1  0  0  0  0  0  0
  195.5500  175.6980  136.4280 O   0  0  0  0  0  1  0  0  0  0  0  0
  180.6990  178.3770  138.8460 O   0  0  0  0  0  0  0  0  0  0  0  0
  180.3910  177.0790  138.5840 N   0  0  0  0  0  0  0  0  0  0  0  0
  179.6480  177.4760  140.7620 F   0  0  0  0  0  0  0  0  0  0  0  0
  179.5850  176.5910  139.6980 C   0  0  0  0  0  3  0  0  0  0  0  0
  180.0570  175.3580  140.1160 F   0  0  0  0  0  0  0  0  0  0  0  0
  179.5340  177.0730  137.4030 C   0  0  0  0  0  2  0  0  0  0  0  0
  179.4690  175.6720  136.8070 C   0  0  0  0  0  2  0  0  0  0  0  0
  180.5490  174.3490  134.9130 N   0  0  0  0  0  2  0  0  0  0  0  0
  180.0890  175.5980  135.4400 C   0  0  0  0  0  0  0  0  0  0  0  0
  180.1630  176.6310  134.7200 O   0  0  0  0  0  0  0  0  0  0  0  0
  180.3590  173.0730  135.5860 C   0  0  2  0  0  3  0  0  0  0  0  0
  181.6580  172.6560  136.2590 C   0  0  0  0  0  2  0  0  0  0  0  0
  182.7150  172.2790  135.2350 C   0  0  0  0  0  3  0  0  0  0  0  0
  183.3220  173.5380  134.6690 C   0  0  0  0  0  1  0  0  0  0  0  0
  183.8080  171.4510  135.8880 C   0  0  0  0  0  1  0  0  0  0  0  0
  179.8490  172.0000  134.6120 C   0  0  0  0  0  2  0  0  0  0  0  0
  179.9300  170.6160  135.1740 C   0  0  0  0  0  0  0  0  0  0  0  0
  179.1870  170.2780  136.1400 O   0  0  0  0  0  0  0  0  0  0  0  0
  180.8200  169.6700  134.5940 N   0  0  0  0  0  1  0  0  0  0  0  0
  2 18  1  0  0  0  0
  4  5  1  0  0  0  0
  6 17  1  6  0  0  0
  6 11  1  0  0  0  0
  6  7  1  0  0  0  0
  7  9  1  0  0  0  0
  8 19  1  0  0  0  0
  9  5  1  0  0  0  0
 10 20  1  0  0  0  0
 11  4  1  6  0  0  0
 12 27  1  0  0  0  0
 13  1  1  6  0  0  0
 13 15  1  0  0  0  0
 13 24  1  0  0  0  0
 14 12  2  0  0  0  0
 14 22  1  0  0  0  0
 15 17  1  1  0  0  0
 16  2  1  0  0  0  0
 18 19  1  0  0  0  0
 19  3  1  6  0  0  0
 21 37  1  1  0  0  0
 21 16  1  0  0  0  0
 22  1  1  0  0  0  0
 22 10  2  0  0  0  0
 23 24  1  6  0  0  0
 23  8  1  0  0  0  0
 23 11  1  0  0  0  0
 25 21  1  0  0  0  0
 26 12  1  0  0  0  0
 26 25  1  0  0  0  0
 27 20  2  0  0  0  0
 29 34  1  6  0  0  0
 29 32  1  0  0  0  0
 31 30  1  0  0  0  0
 31 29  1  0  0  0  0
 32 28  1  0  0  0  0
 33 30  1  6  0  0  0
 33 28  1  0  0  0  0
 33 15  1  0  0  0  0
 34 36  1  0  0  0  0
 35 34  1  0  0  0  0
 38 37  1  0  0  0  0
 38 40  1  0  0  0  0
 40 41  1  0  0  0  0
 40 39  1  0  0  0  0
 42 38  1  0  0  0  0
 43 42  1  0  0  0  0
 44 45  1  0  0  0  0
 44 47  1  0  0  0  0
 45 43  1  0  0  0  0
 46 45  2  0  0  0  0
 47 52  1  6  0  0  0
 47 48  1  0  0  0  0
 49 51  1  0  0  0  0
 49 48  1  0  0  0  0
 50 49  1  0  0  0  0
 52 53  1  0  0  0  0
 53 54  2  0  0  0  0
 55 53  1  0  0  0  0
M  END
>  <MODEL>
5

>  <REMARK>
 VINA RESULT:      -3.9      2.656      4.951
  Name = 
  13 active torsions:
  status: ('A' for Active; 'I' for Inactive)
    1  A    between atoms: C_1  and  C_53
    2  A    between atoms: N_3  and  C_38
    3  A    between atoms: C_6  and  C_12
    4  A    between atoms: C_6  and  C_46
    5  A    between atoms: O_8  and  N_22
    6  A    between atoms: O_8  and  C_43
    7  A    between atoms: C_10  and  C_32
    8  A    between atoms: C_11  and  C_29
    9  A    between atoms: C_20  and  N_22
   10  A    between atoms: N_22  and  C_46
   11  A    between atoms: C_29  and  C_38
   12  A    between atoms: C_33  and  N_52
   13  A    between atoms: C_38  and  C_53
                            x       y       z     vdW  Elec       q    Type
                         _______ _______ _______ _____ _____    ______ ____

>  <TORSDO>
F 13

$$$$
=
 OpenBabel10262420183D

 55 59  0  0  1  0  0  0  0  0999 V2000
  183.6020  179.2190  138.2430 C   0  0  0  0  0  2  0  0  0  0  0  0
  186.7940  174.6930  136.5360 C   0  0  0  0  0  2  0  0  0  0  0  0
  184.7080  172.8360  135.7930 O   0  0  0  0  0  1  0  0  0  0  0  0
  180.9110  174.4250  137.2700 C   0  0  0  0  0  2  0  0  0  0  0  0
  180.0270  173.4420  138.0410 C   0  0  0  0  0  2  0  0  0  0  0  0
  181.3440  175.7250  139.4160 C   0  0  1  0  0  3  0  0  0  0  0  0
  180.4560  174.7340  140.1740 C   0  0  0  0  0  2  0  0  0  0  0  0
  183.7370  174.9410  136.3600 C   0  0  0  0  0  2  0  0  0  0  0  0
  179.3870  174.1250  139.2530 C   0  0  0  0  0  2  0  0  0  0  0  0
  185.4740  178.6430  139.8030 C   0  0  0  0  0  3  0  0  0  0  0  0
  181.9800  174.9830  138.2180 C   0  0  2  0  0  3  0  0  0  0  0  0
  187.1560  178.0530  137.6360 C   0  0  0  0  0  0  0  0  0  0  0  0
  182.6840  178.0050  138.2980 C   0  0  1  0  0  3  0  0  0  0  0  0
  185.8540  178.5070  137.4130 C   0  0  0  0  0  3  0  0  0  0  0  0
  181.2390  178.2650  138.7630 C   0  0  2  0  0  3  0  0  0  0  0  0
  188.1240  174.9070  137.2300 C   0  0  0  0  0  2  0  0  0  0  0  0
  180.4910  176.9280  138.9690 C   0  0  0  0  0  2  0  0  0  0  0  0
  185.8130  174.0770  137.5220 C   0  0  0  0  0  2  0  0  0  0  0  0
  184.4890  173.7100  136.8550 C   0  0  2  0  0  3  0  0  0  0  0  0
  186.7760  178.1990  140.0320 C   0  0  0  0  0  3  0  0  0  0  0  0
  189.0840  175.6230  136.2960 C   0  0  1  0  0  3  0  0  0  0  0  0
  185.0140  178.8080  138.4910 C   0  0  0  0  0  0  0  0  0  0  0  0
  183.1370  175.7290  137.5190 C   0  0  2  0  0  3  0  0  0  0  0  0
  182.7700  177.1290  137.0610 C   0  0  0  0  0  2  0  0  0  0  0  0
  189.2220  177.0930  136.6700 C   0  0  0  0  0  2  0  0  0  0  0  0
  187.9710  177.7580  136.5350 O   0  0  0  0  0  0  0  0  0  0  0  0
  187.6160  177.9030  138.9510 C   0  0  0  0  0  3  0  0  0  0  0  0
  179.0960  179.3600  138.2360 C   0  0  0  0  0  2  0  0  0  0  0  0
  179.7080  181.4840  139.4550 C   0  0  2  0  0  3  0  0  0  0  0  0
  181.1440  180.4500  137.6560 C   0  0  0  0  0  2  0  0  0  0  0  0
  181.1370  181.2710  138.9500 C   0  0  0  0  0  2  0  0  0  0  0  0
  178.9870  180.1420  139.5530 C   0  0  0  0  0  2  0  0  0  0  0  0
  180.4940  179.1420  137.8230 N   0  0  1  0  0  0  0  0  0  0  0  0
  178.9310  182.4750  138.5900 C   0  0  0  0  0  3  0  0  0  0  0  0
  179.4250  182.4730  137.2870 O   0  0  0  0  0  1  0  0  0  0  0  0
  179.0520  183.7580  139.1230 O   0  0  0  0  0  1  0  0  0  0  0  0
  190.3340  175.0000  136.3630 O   0  0  0  0  0  0  0  0  0  0  0  0
  191.2220  176.0030  136.5950 N   0  0  0  0  0  0  0  0  0  0  0  0
  190.8990  175.0840  138.7170 F   0  0  0  0  0  0  0  0  0  0  0  0
  191.7920  175.7810  137.9190 C   0  0  0  0  0  3  0  0  0  0  0  0
  192.0720  176.9970  138.5210 F   0  0  0  0  0  0  0  0  0  0  0  0
  192.3070  175.8460  135.6320 C   0  0  0  0  0  2  0  0  0  0  0  0
  193.6400  176.2000  136.2780 C   0  0  0  0  0  2  0  0  0  0  0  0
  195.6220  175.1710  135.0440 N   0  0  0  0  0  2  0  0  0  0  0  0
  194.7590  176.2900  135.2770 C   0  0  0  0  0  0  0  0  0  0  0  0
  194.9170  177.3390  134.5940 O   0  0  0  0  0  0  0  0  0  0  0  0
  195.4250  173.8630  135.6510 C   0  0  2  0  0  3  0  0  0  0  0  0
  196.6860  173.4560  136.3970 C   0  0  0  0  0  2  0  0  0  0  0  0
  196.4620  173.4560  137.9000 C   0  0  0  0  0  3  0  0  0  0  0  0
  197.3420  174.5090  138.5260 C   0  0  0  0  0  1  0  0  0  0  0  0
  195.0100  173.7710  138.2150 C   0  0  0  0  0  1  0  0  0  0  0  0
  195.0170  172.8180  134.6010 C   0  0  0  0  0  2  0  0  0  0  0  0
  194.1790  171.7180  135.1700 C   0  0  0  0  0  0  0  0  0  0  0  0
  194.5800  170.5190  135.1140 O   0  0  0  0  0  0  0  0  0  0  0  0
  192.9450  172.0280  135.8070 N   0  0  0  0  0  1  0  0  0  0  0  0
  1 13  1  0  0  0  0
  1 22  1  0  0  0  0
  2 16  1  0  0  0  0
  2 18  1  0  0  0  0
  4  5  1  0  0  0  0
  5  9  1  0  0  0  0
  6 17  1  6  0  0  0
  6  7  1  0  0  0  0
  8 19  1  0  0  0  0
  9  7  1  0  0  0  0
 10 20  1  0  0  0  0
 11  4  1  6  0  0  0
 11  6  1  0  0  0  0
 12 27  1  0  0  0  0
 13 24  1  6  0  0  0
 13 15  1  0  0  0  0
 14 12  2  0  0  0  0
 14 22  1  0  0  0  0
 15 17  1  6  0  0  0
 19  3  1  6  0  0  0
 19 18  1  0  0  0  0
 21 37  1  1  0  0  0
 21 25  1  0  0  0  0
 21 16  1  0  0  0  0
 22 10  2  0  0  0  0
 23  8  1  6  0  0  0
 23 11  1  0  0  0  0
 24 23  1  0  0  0  0
 26 25  1  0  0  0  0
 26 12  1  0  0  0  0
 27 20  2  0  0  0  0
 28 32  1  0  0  0  0
 29 34  1  6  0  0  0
 29 32  1  0  0  0  0
 30 31  1  0  0  0  0
 31 29  1  0  0  0  0
 33 30  1  1  0  0  0
 33 28  1  0  0  0  0
 33 15  1  0  0  0  0
 34 36  1  0  0  0  0
 35 34  1  0  0  0  0
 37 38  1  0  0  0  0
 38 40  1  0  0  0  0
 40 41  1  0  0  0  0
 40 39  1  0  0  0  0
 42 43  1  0  0  0  0
 42 38  1  0  0  0  0
 44 45  1  0  0  0  0
 44 47  1  0  0  0  0
 45 43  1  0  0  0  0
 46 45  2  0  0  0  0
 47 52  1  6  0  0  0
 47 48  1  0  0  0  0
 48 49  1  0  0  0  0
 49 51  1  0  0  0  0
 49 50  1  0  0  0  0
 52 53  1  0  0  0  0
 53 55  1  0  0  0  0
 54 53  2  0  0  0  0
M  END
>  <MODEL>
6

>  <REMARK>
 VINA RESULT:      -3.7      3.365     12.006
  Name = 
  13 active torsions:
  status: ('A' for Active; 'I' for Inactive)
    1  A    between atoms: C_1  and  C_53
    2  A    between atoms: N_3  and  C_38
    3  A    between atoms: C_6  and  C_12
    4  A    between atoms: C_6  and  C_46
    5  A    between atoms: O_8  and  N_22
    6  A    between atoms: O_8  and  C_43
    7  A    between atoms: C_10  and  C_32
    8  A    between atoms: C_11  and  C_29
    9  A    between atoms: C_20  and  N_22
   10  A    between atoms: N_22  and  C_46
   11  A    between atoms: C_29  and  C_38
   12  A    between atoms: C_33  and  N_52
   13  A    between atoms: C_38  and  C_53
                            x       y       z     vdW  Elec       q    Type
                         _______ _______ _______ _____ _____    ______ ____

>  <TORSDO>
F 13

$$$$
