=
 OpenBabel10262422183D

 43 49  0  0  1  0  0  0  0  0999 V2000
  191.1880  176.7570  147.0100 C   0  0  0  0  0  0  0  0  0  0  0  0
  187.2300  177.7980  144.0750 C   0  0  0  0  0  0  0  0  0  0  0  0
  188.1250  177.6880  141.3220 C   0  0  1  0  0  3  0  0  0  0  0  0
  188.9700  177.2480  146.1780 C   0  0  0  0  0  0  0  0  0  0  0  0
  191.6870  176.7890  145.7040 C   0  0  0  0  0  3  0  0  0  0  0  0
  192.0410  176.4970  148.0730 O   0  0  0  0  0  1  0  0  0  0  0  0
  189.4670  177.2830  144.8570 C   0  0  0  0  0  0  0  0  0  0  0  0
  189.8290  176.9850  147.2460 C   0  0  0  0  0  3  0  0  0  0  0  0
  190.8310  177.0510  144.6300 C   0  0  0  0  0  3  0  0  0  0  0  0
  189.0560  177.5900  142.4430 N   0  0  0  0  0  2  0  0  0  0  0  0
  188.5880  177.5440  143.7960 C   0  0  0  0  0  0  0  0  0  0  0  0
  186.7810  177.7350  145.3610 N   0  0  0  0  0  0  0  0  0  0  0  0
  186.2570  178.0530  142.9490 C   0  0  2  0  0  3  0  0  0  0  0  0
  186.9660  178.6060  141.7100 C   0  0  0  0  0  2  0  0  0  0  0  0
  187.6120  177.4730  146.4030 C   0  0  0  0  0  3  0  0  0  0  0  0
  188.8440  178.2090  140.0770 C   0  0  1  0  0  3  0  0  0  0  0  0
  190.1940  177.5350  139.9210 C   0  0  0  0  0  2  0  0  0  0  0  0
  188.0780  177.8200  138.8290 C   0  0  0  0  0  2  0  0  0  0  0  0
  190.0370  176.4450  138.9710 N   0  0  0  0  0  0  0  0  0  0  0  0
  188.9850  176.8790  138.0650 C   0  0  0  0  0  2  0  0  0  0  0  0
  191.2670  176.3750  138.2000 C   0  0  0  0  0  2  0  0  0  0  0  0
  191.1280  175.3420  137.0860 C   0  0  2  0  0  3  0  0  0  0  0  0
  192.4160  174.0670  135.6530 O   0  0  0  0  0  0  0  0  0  0  0  0
  191.1500  174.0540  137.6020 O   0  0  0  0  0  0  0  0  0  0  0  0
  192.2380  175.3870  136.0680 C   0  0  1  0  0  0  0  0  0  0  0  0
  191.8050  176.2540  134.8960 C   0  0  0  0  0  1  0  0  0  0  0  0
  191.6610  173.2810  136.5470 C   0  0  0  0  0  2  0  0  0  0  0  0
  193.4530  175.8840  136.6470 O   0  0  0  0  0  0  0  0  0  0  0  0
  194.5570  175.0950  137.0010 C   0  0  0  0  0  0  0  0  0  0  0  0
  195.7640  173.6750  138.5630 C   0  0  0  0  0  3  0  0  0  0  0  0
  196.7180  174.1700  136.3940 C   0  0  0  0  0  3  0  0  0  0  0  0
  196.8000  173.5340  137.6360 C   0  0  0  0  0  3  0  0  0  0  0  0
  195.6000  174.9470  136.0790 C   0  0  0  0  0  3  0  0  0  0  0  0
  194.6470  174.4540  138.2470 C   0  0  0  0  0  3  0  0  0  0  0  0
  185.2200  178.9860  143.3750 N   0  0  0  0  0  2  0  0  0  0  0  0
  182.1100  178.4800  141.3520 C   0  0  0  0  0  3  0  0  0  0  0  0
  181.1330  178.6030  142.3450 C   0  0  0  0  0  0  0  0  0  0  0  0
  182.8620  178.9890  143.9970 C   0  0  0  0  0  3  0  0  0  0  0  0
  183.4620  178.6050  141.6840 C   0  0  0  0  0  3  0  0  0  0  0  0
  183.8430  178.8610  143.0090 C   0  0  0  0  0  0  0  0  0  0  0  0
  181.5090  178.8650  143.6660 C   0  0  0  0  0  3  0  0  0  0  0  0
  179.2930  177.1600  142.0380 O   0  0  0  0  0  1  0  0  0  0  0  0
  179.6930  178.4950  141.9890 C   0  0  0  0  0  2  0  0  0  0  0  0
  1  8  1  0  0  0  0
  1  6  1  0  0  0  0
  2 12  1  0  0  0  0
  3 14  1  1  0  0  0
  3 10  1  0  0  0  0
  4 15  1  0  0  0  0
  4  8  2  0  0  0  0
  5  1  2  0  0  0  0
  7  4  1  0  0  0  0
  9  7  2  0  0  0  0
  9  5  1  0  0  0  0
 10 11  1  0  0  0  0
 11  2  2  0  0  0  0
 11  7  1  0  0  0  0
 12 15  2  0  0  0  0
 13 35  1  1  0  0  0
 13  2  1  0  0  0  0
 14 13  1  0  0  0  0
 16 18  1  6  0  0  0
 16  3  1  0  0  0  0
 17 16  1  0  0  0  0
 19 17  1  0  0  0  0
 20 18  1  0  0  0  0
 20 19  1  0  0  0  0
 21 19  1  0  0  0  0
 22 24  1  0  0  0  0
 22 21  1  1  0  0  0
 23 25  1  0  0  0  0
 23 27  1  0  0  0  0
 25 26  1  6  0  0  0
 25 28  1  0  0  0  0
 25 22  1  0  0  0  0
 27 24  1  0  0  0  0
 28 29  1  0  0  0  0
 29 34  1  0  0  0  0
 31 32  2  0  0  0  0
 32 30  1  0  0  0  0
 33 31  1  0  0  0  0
 33 29  2  0  0  0  0
 34 30  2  0  0  0  0
 36 39  2  0  0  0  0
 36 37  1  0  0  0  0
 37 41  2  0  0  0  0
 39 40  1  0  0  0  0
 40 35  1  0  0  0  0
 40 38  2  0  0  0  0
 41 38  1  0  0  0  0
 43 42  1  0  0  0  0
 43 37  1  0  0  0  0
M  END
>  <MODEL>
1

>  <REMARK>
 VINA RESULT:     -10.6      0.000      0.000
  Name = 
  8 active torsions:
  status: ('A' for Active; 'I' for Inactive)
    1  A    between atoms: N_1  and  C_34
    2  A    between atoms: N_1  and  C_35
    3  A    between atoms: C_2  and  C_13
    4  A    between atoms: C_3  and  C_4
    5  A    between atoms: C_3  and  N_12
    6  A    between atoms: C_11  and  O_14
    7  A    between atoms: O_14  and  C_22
    8  A    between atoms: C_19  and  C_37
                            x       y       z     vdW  Elec       q    Type
                         _______ _______ _______ _____ _____    ______ ____

>  <TORSDO>
F 8

$$$$
=
 OpenBabel10262422183D

 43 49  0  0  1  0  0  0  0  0999 V2000
  191.2870  176.4470  146.9650 C   0  0  0  0  0  0  0  0  0  0  0  0
  187.6240  177.7890  143.7790 C   0  0  0  0  0  0  0  0  0  0  0  0
  188.6480  177.4840  141.0860 C   0  0  1  0  0  3  0  0  0  0  0  0
  189.1810  177.1370  145.9930 C   0  0  0  0  0  0  0  0  0  0  0  0
  191.8560  176.3790  145.6890 C   0  0  0  0  0  3  0  0  0  0  0  0
  192.0500  176.1390  148.0820 O   0  0  0  0  0  1  0  0  0  0  0  0
  189.7490  177.0720  144.7030 C   0  0  0  0  0  0  0  0  0  0  0  0
  189.9490  176.8250  147.1170 C   0  0  0  0  0  3  0  0  0  0  0  0
  191.0910  176.6890  144.5610 C   0  0  0  0  0  3  0  0  0  0  0  0
  189.5020  177.3310  142.2610 N   0  0  0  0  0  2  0  0  0  0  0  0
  188.9600  177.3840  143.5860 C   0  0  0  0  0  0  0  0  0  0  0  0
  187.1030  177.8210  145.0390 N   0  0  0  0  0  0  0  0  0  0  0  0
  186.7450  178.1020  142.5920 C   0  0  2  0  0  3  0  0  0  0  0  0
  187.5740  178.5320  141.3780 C   0  0  0  0  0  2  0  0  0  0  0  0
  187.8450  177.5110  146.1340 C   0  0  0  0  0  3  0  0  0  0  0  0
  189.4830  177.8800  139.8680 C   0  0  1  0  0  3  0  0  0  0  0  0
  189.7880  176.6650  139.0140 C   0  0  0  0  0  2  0  0  0  0  0  0
  188.6840  178.7930  138.9600 C   0  0  0  0  0  2  0  0  0  0  0  0
  188.8220  176.6330  137.9280 N   0  0  0  0  0  0  0  0  0  0  0  0
  188.4970  178.0260  137.6680 C   0  0  0  0  0  2  0  0  0  0  0  0
  189.5170  176.1270  136.7570 C   0  0  0  0  0  2  0  0  0  0  0  0
  188.8040  174.8890  136.2190 C   0  0  2  0  0  3  0  0  0  0  0  0
  188.8370  172.5860  136.3930 O   0  0  0  0  0  0  0  0  0  0  0  0
  187.7470  174.5330  137.0450 O   0  0  0  0  0  0  0  0  0  0  0  0
  189.6810  173.6670  136.1360 C   0  0  1  0  0  0  0  0  0  0  0  0
  190.2590  173.5620  134.7340 C   0  0  0  0  0  1  0  0  0  0  0  0
  187.6290  173.1470  136.8530 C   0  0  0  0  0  2  0  0  0  0  0  0
  190.7280  173.7110  137.1160 O   0  0  0  0  0  0  0  0  0  0  0  0
  192.0990  173.7730  136.8270 C   0  0  0  0  0  0  0  0  0  0  0  0
  194.1950  172.7460  136.1480 C   0  0  0  0  0  3  0  0  0  0  0  0
  194.1200  175.1090  136.6660 C   0  0  0  0  0  3  0  0  0  0  0  0
  194.8400  173.9800  136.2680 C   0  0  0  0  0  3  0  0  0  0  0  0
  192.7530  175.0050  136.9450 C   0  0  0  0  0  3  0  0  0  0  0  0
  192.8290  172.6430  136.4270 C   0  0  0  0  0  3  0  0  0  0  0  0
  185.7930  179.1540  142.9300 N   0  0  0  0  0  2  0  0  0  0  0  0
  182.2000  178.9340  143.9630 C   0  0  0  0  0  3  0  0  0  0  0  0
  181.5940  178.6570  142.7330 C   0  0  0  0  0  0  0  0  0  0  0  0
  183.7630  178.6990  141.6560 C   0  0  0  0  0  3  0  0  0  0  0  0
  183.5860  179.1000  144.0360 C   0  0  0  0  0  3  0  0  0  0  0  0
  184.3740  178.9820  142.8810 C   0  0  0  0  0  0  0  0  0  0  0  0
  182.3770  178.5330  141.5820 C   0  0  0  0  0  3  0  0  0  0  0  0
  179.6640  177.8770  143.8410 O   0  0  0  0  0  1  0  0  0  0  0  0
  180.1220  178.4560  142.6580 C   0  0  0  0  0  2  0  0  0  0  0  0
  1  8  1  0  0  0  0
  1  6  1  0  0  0  0
  2 12  1  0  0  0  0
  3 14  1  1  0  0  0
  3 10  1  0  0  0  0
  4 15  1  0  0  0  0
  4  8  2  0  0  0  0
  5  1  2  0  0  0  0
  7  4  1  0  0  0  0
  9  7  2  0  0  0  0
  9  5  1  0  0  0  0
 10 11  1  0  0  0  0
 11  2  2  0  0  0  0
 11  7  1  0  0  0  0
 12 15  2  0  0  0  0
 13 35  1  1  0  0  0
 13  2  1  0  0  0  0
 14 13  1  0  0  0  0
 16 18  1  6  0  0  0
 16  3  1  0  0  0  0
 17 16  1  0  0  0  0
 19 17  1  0  0  0  0
 20 19  1  0  0  0  0
 20 18  1  0  0  0  0
 21 19  1  0  0  0  0
 22 21  1  1  0  0  0
 22 24  1  0  0  0  0
 23 27  1  0  0  0  0
 25 26  1  6  0  0  0
 25 22  1  0  0  0  0
 25 23  1  0  0  0  0
 25 28  1  0  0  0  0
 27 24  1  0  0  0  0
 29 33  1  0  0  0  0
 29 28  1  0  0  0  0
 30 32  2  0  0  0  0
 30 34  1  0  0  0  0
 31 33  2  0  0  0  0
 32 31  1  0  0  0  0
 34 29  2  0  0  0  0
 36 39  1  0  0  0  0
 37 36  2  0  0  0  0
 38 40  1  0  0  0  0
 40 35  1  0  0  0  0
 40 39  2  0  0  0  0
 41 38  2  0  0  0  0
 41 37  1  0  0  0  0
 43 37  1  0  0  0  0
 43 42  1  0  0  0  0
M  END
>  <MODEL>
2

>  <REMARK>
 VINA RESULT:      -9.8      1.415      2.034
  Name = 
  8 active torsions:
  status: ('A' for Active; 'I' for Inactive)
    1  A    between atoms: N_1  and  C_34
    2  A    between atoms: N_1  and  C_35
    3  A    between atoms: C_2  and  C_13
    4  A    between atoms: C_3  and  C_4
    5  A    between atoms: C_3  and  N_12
    6  A    between atoms: C_11  and  O_14
    7  A    between atoms: O_14  and  C_22
    8  A    between atoms: C_19  and  C_37
                            x       y       z     vdW  Elec       q    Type
                         _______ _______ _______ _____ _____    ______ ____

>  <TORSDO>
F 8

$$$$
=
 OpenBabel10262422183D

 43 49  0  0  1  0  0  0  0  0999 V2000
  191.1670  176.7800  146.9060 C   0  0  0  0  0  0  0  0  0  0  0  0
  187.6390  177.8870  143.4860 C   0  0  0  0  0  0  0  0  0  0  0  0
  188.7270  177.2710  140.8720 C   0  0  1  0  0  3  0  0  0  0  0  0
  189.1130  177.4260  145.8030 C   0  0  0  0  0  0  0  0  0  0  0  0
  191.7680  176.5610  145.6620 C   0  0  0  0  0  3  0  0  0  0  0  0
  191.8890  176.5680  148.0720 O   0  0  0  0  0  1  0  0  0  0  0  0
  189.7140  177.2080  144.5440 C   0  0  0  0  0  0  0  0  0  0  0  0
  189.8390  177.2110  146.9760 C   0  0  0  0  0  3  0  0  0  0  0  0
  191.0450  176.7740  144.4850 C   0  0  0  0  0  3  0  0  0  0  0  0
  189.5430  177.2160  142.0820 N   0  0  0  0  0  2  0  0  0  0  0  0
  188.9660  177.4250  143.3770 C   0  0  0  0  0  0  0  0  0  0  0  0
  187.0850  178.0660  144.7190 N   0  0  0  0  0  0  0  0  0  0  0  0
  186.8040  178.0990  142.2460 C   0  0  2  0  0  3  0  0  0  0  0  0
  187.6800  178.3740  141.0210 C   0  0  0  0  0  2  0  0  0  0  0  0
  187.7860  177.8520  145.8630 C   0  0  0  0  0  3  0  0  0  0  0  0
  189.6080  177.5120  139.6460 C   0  0  1  0  0  3  0  0  0  0  0  0
  190.4880  176.3060  139.3780 C   0  0  0  0  0  2  0  0  0  0  0  0
  188.7510  177.6420  138.4030 C   0  0  0  0  0  2  0  0  0  0  0  0
  189.8430  175.5090  138.3480 N   0  0  0  0  0  0  0  0  0  0  0  0
  189.1170  176.4630  137.5260 C   0  0  0  0  0  2  0  0  0  0  0  0
  190.9000  174.9470  137.5230 C   0  0  0  0  0  2  0  0  0  0  0  0
  191.8390  176.0540  137.0510 C   0  0  2  0  0  3  0  0  0  0  0  0
  194.0720  176.4370  136.5970 O   0  0  0  0  0  0  0  0  0  0  0  0
  191.9810  176.0240  135.6700 O   0  0  0  0  0  0  0  0  0  0  0  0
  193.2370  175.9450  137.6010 C   0  0  1  0  0  0  0  0  0  0  0  0
  193.3500  176.8080  138.8490 C   0  0  0  0  0  1  0  0  0  0  0  0
  193.2570  176.5690  135.4550 C   0  0  0  0  0  2  0  0  0  0  0  0
  193.5770  174.5830  137.8930 O   0  0  0  0  0  0  0  0  0  0  0  0
  194.8130  173.9820  137.6110 C   0  0  0  0  0  0  0  0  0  0  0  0
  196.2180  172.4730  136.3250 C   0  0  0  0  0  3  0  0  0  0  0  0
  197.1700  173.7530  138.1440 C   0  0  0  0  0  3  0  0  0  0  0  0
  197.3180  172.8250  137.1100 C   0  0  0  0  0  3  0  0  0  0  0  0
  195.9200  174.3290  138.3930 C   0  0  0  0  0  3  0  0  0  0  0  0
  194.9690  173.0490  136.5740 C   0  0  0  0  0  3  0  0  0  0  0  0
  185.8780  179.2090  142.4430 N   0  0  0  0  0  2  0  0  0  0  0  0
  182.3490  178.5270  141.3890 C   0  0  0  0  0  3  0  0  0  0  0  0
  181.6730  178.7510  142.5920 C   0  0  0  0  0  0  0  0  0  0  0  0
  183.7730  179.2850  143.6730 C   0  0  0  0  0  3  0  0  0  0  0  0
  183.7380  178.6760  141.3310 C   0  0  0  0  0  3  0  0  0  0  0  0
  184.4560  179.0560  142.4750 C   0  0  0  0  0  0  0  0  0  0  0  0
  182.3840  179.1360  143.7320 C   0  0  0  0  0  3  0  0  0  0  0  0
  179.8160  177.3470  142.2150 O   0  0  0  0  0  1  0  0  0  0  0  0
  180.1920  178.6170  142.6490 C   0  0  0  0  0  2  0  0  0  0  0  0
  1  8  1  0  0  0  0
  1  6  1  0  0  0  0
  2 12  1  0  0  0  0
  3 14  1  1  0  0  0
  3 10  1  0  0  0  0
  4 15  1  0  0  0  0
  4  8  2  0  0  0  0
  5  1  2  0  0  0  0
  7  4  1  0  0  0  0
  9  7  2  0  0  0  0
  9  5  1  0  0  0  0
 10 11  1  0  0  0  0
 11  2  2  0  0  0  0
 11  7  1  0  0  0  0
 12 15  2  0  0  0  0
 13 35  1  1  0  0  0
 13  2  1  0  0  0  0
 14 13  1  0  0  0  0
 16 18  1  6  0  0  0
 16  3  1  0  0  0  0
 17 16  1  0  0  0  0
 19 17  1  0  0  0  0
 20 19  1  0  0  0  0
 20 18  1  0  0  0  0
 21 19  1  0  0  0  0
 22 21  1  1  0  0  0
 22 25  1  0  0  0  0
 23 25  1  0  0  0  0
 24 22  1  0  0  0  0
 25 28  1  0  0  0  0
 25 26  1  1  0  0  0
 27 24  1  0  0  0  0
 27 23  1  0  0  0  0
 29 28  1  0  0  0  0
 29 33  1  0  0  0  0
 30 34  1  0  0  0  0
 30 32  2  0  0  0  0
 31 33  2  0  0  0  0
 32 31  1  0  0  0  0
 34 29  2  0  0  0  0
 35 40  1  0  0  0  0
 36 37  1  0  0  0  0
 37 43  1  0  0  0  0
 37 41  2  0  0  0  0
 38 41  1  0  0  0  0
 39 36  2  0  0  0  0
 39 40  1  0  0  0  0
 40 38  2  0  0  0  0
 42 43  1  0  0  0  0
M  END
>  <MODEL>
3

>  <REMARK>
 VINA RESULT:      -9.3      1.029      1.536
  Name = 
  8 active torsions:
  status: ('A' for Active; 'I' for Inactive)
    1  A    between atoms: N_1  and  C_34
    2  A    between atoms: N_1  and  C_35
    3  A    between atoms: C_2  and  C_13
    4  A    between atoms: C_3  and  C_4
    5  A    between atoms: C_3  and  N_12
    6  A    between atoms: C_11  and  O_14
    7  A    between atoms: O_14  and  C_22
    8  A    between atoms: C_19  and  C_37
                            x       y       z     vdW  Elec       q    Type
                         _______ _______ _______ _____ _____    ______ ____

>  <TORSDO>
F 8

$$$$
=
 OpenBabel10262422183D

 43 49  0  0  1  0  0  0  0  0999 V2000
  182.4460  179.1650  140.5150 C   0  0  0  0  0  0  0  0  0  0  0  0
  187.1320  177.8960  141.8540 C   0  0  0  0  0  0  0  0  0  0  0  0
  188.8760  178.4900  139.6170 C   0  0  1  0  0  3  0  0  0  0  0  0
  184.4050  178.4420  141.7380 C   0  0  0  0  0  0  0  0  0  0  0  0
  183.2320  179.3760  139.3770 C   0  0  0  0  0  3  0  0  0  0  0  0
  181.0830  179.4190  140.4730 O   0  0  0  0  0  1  0  0  0  0  0  0
  185.2040  178.6510  140.5920 C   0  0  0  0  0  0  0  0  0  0  0  0
  183.0340  178.7000  141.6950 C   0  0  0  0  0  3  0  0  0  0  0  0
  184.6060  179.1200  139.4140 C   0  0  0  0  0  3  0  0  0  0  0  0
  187.4230  178.5900  139.5140 N   0  0  0  0  0  2  0  0  0  0  0  0
  186.5810  178.3910  140.6560 C   0  0  0  0  0  0  0  0  0  0  0  0
  186.3350  177.7260  142.9460 N   0  0  0  0  0  0  0  0  0  0  0  0
  188.6160  177.6370  141.9580 C   0  0  2  0  0  3  0  0  0  0  0  0
  189.2340  177.3610  140.5840 C   0  0  0  0  0  2  0  0  0  0  0  0
  185.0000  177.9820  142.9120 C   0  0  0  0  0  3  0  0  0  0  0  0
  189.4930  178.2480  138.2390 C   0  0  1  0  0  3  0  0  0  0  0  0
  189.3760  176.7850  137.8540 C   0  0  0  0  0  2  0  0  0  0  0  0
  188.7060  178.9850  137.1760 C   0  0  0  0  0  2  0  0  0  0  0  0
  188.2130  176.6460  136.9930 N   0  0  0  0  0  0  0  0  0  0  0  0
  188.1070  177.9140  136.2890 C   0  0  0  0  0  2  0  0  0  0  0  0
  188.5360  175.6310  136.0050 C   0  0  0  0  0  2  0  0  0  0  0  0
  188.2070  174.2450  136.5520 C   0  0  2  0  0  3  0  0  0  0  0  0
  186.8360  172.4330  136.1340 O   0  0  0  0  0  0  0  0  0  0  0  0
  188.9930  173.2760  135.9440 O   0  0  0  0  0  0  0  0  0  0  0  0
  186.7830  173.8160  136.3130 C   0  0  1  0  0  0  0  0  0  0  0  0
  185.9470  174.1570  137.5360 C   0  0  0  0  0  1  0  0  0  0  0  0
  188.2030  172.1170  136.0100 C   0  0  0  0  0  2  0  0  0  0  0  0
  186.2430  174.4380  135.1380 O   0  0  0  0  0  0  0  0  0  0  0  0
  185.0180  175.1190  135.0790 C   0  0  0  0  0  0  0  0  0  0  0  0
  183.6620  177.1200  135.3470 C   0  0  0  0  0  3  0  0  0  0  0  0
  182.6400  175.0600  134.5940 C   0  0  0  0  0  3  0  0  0  0  0  0
  182.5320  176.4110  134.9340 C   0  0  0  0  0  3  0  0  0  0  0  0
  183.8800  174.4170  134.6660 C   0  0  0  0  0  3  0  0  0  0  0  0
  184.9020  176.4760  135.4200 C   0  0  0  0  0  3  0  0  0  0  0  0
  188.8740  176.5070  142.8440 N   0  0  0  0  0  2  0  0  0  0  0  0
  191.5860  176.4790  145.4260 C   0  0  0  0  0  3  0  0  0  0  0  0
  190.8680  176.8770  146.5580 C   0  0  0  0  0  0  0  0  0  0  0  0
  188.8480  177.0120  145.2300 C   0  0  0  0  0  3  0  0  0  0  0  0
  190.9350  176.3550  144.1950 C   0  0  0  0  0  3  0  0  0  0  0  0
  189.5610  176.6210  144.0930 C   0  0  0  0  0  0  0  0  0  0  0  0
  189.4980  177.1370  146.4610 C   0  0  0  0  0  3  0  0  0  0  0  0
  192.6880  176.1740  147.8830 O   0  0  0  0  0  1  0  0  0  0  0  0
  191.5550  176.9870  147.8730 C   0  0  0  0  0  2  0  0  0  0  0  0
  1  8  1  0  0  0  0
  2 13  1  0  0  0  0
  2 12  1  0  0  0  0
  3 14  1  1  0  0  0
  4 15  1  0  0  0  0
  5  9  1  0  0  0  0
  5  1  2  0  0  0  0
  6  1  1  0  0  0  0
  7 11  1  0  0  0  0
  7  4  1  0  0  0  0
  8  4  2  0  0  0  0
  9  7  2  0  0  0  0
 10  3  1  0  0  0  0
 10 11  1  0  0  0  0
 11  2  2  0  0  0  0
 13 35  1  1  0  0  0
 14 13  1  0  0  0  0
 15 12  2  0  0  0  0
 16 18  1  6  0  0  0
 16  3  1  0  0  0  0
 17 16  1  0  0  0  0
 19 17  1  0  0  0  0
 20 19  1  0  0  0  0
 20 18  1  0  0  0  0
 21 19  1  0  0  0  0
 22 21  1  6  0  0  0
 23 25  1  0  0  0  0
 24 27  1  0  0  0  0
 24 22  1  0  0  0  0
 25 22  1  0  0  0  0
 25 26  1  1  0  0  0
 27 23  1  0  0  0  0
 28 25  1  0  0  0  0
 29 28  1  0  0  0  0
 29 34  1  0  0  0  0
 30 34  2  0  0  0  0
 31 33  1  0  0  0  0
 31 32  2  0  0  0  0
 32 30  1  0  0  0  0
 33 29  2  0  0  0  0
 35 40  1  0  0  0  0
 36 37  1  0  0  0  0
 37 43  1  0  0  0  0
 38 41  1  0  0  0  0
 39 36  2  0  0  0  0
 40 39  1  0  0  0  0
 40 38  2  0  0  0  0
 41 37  2  0  0  0  0
 43 42  1  0  0  0  0
M  END
>  <MODEL>
4

>  <REMARK>
 VINA RESULT:      -8.8      3.276      8.019
  Name = 
  8 active torsions:
  status: ('A' for Active; 'I' for Inactive)
    1  A    between atoms: N_1  and  C_34
    2  A    between atoms: N_1  and  C_35
    3  A    between atoms: C_2  and  C_13
    4  A    between atoms: C_3  and  C_4
    5  A    between atoms: C_3  and  N_12
    6  A    between atoms: C_11  and  O_14
    7  A    between atoms: O_14  and  C_22
    8  A    between atoms: C_19  and  C_37
                            x       y       z     vdW  Elec       q    Type
                         _______ _______ _______ _____ _____    ______ ____

>  <TORSDO>
F 8

$$$$
=
 OpenBabel10262422183D

 43 49  0  0  1  0  0  0  0  0999 V2000
  189.6540  177.0520  135.9390 C   0  0  0  0  0  0  0  0  0  0  0  0
  189.3290  177.5490  140.9410 C   0  0  0  0  0  0  0  0  0  0  0  0
  186.6210  178.3710  141.5670 C   0  0  1  0  0  3  0  0  0  0  0  0
  190.1100  177.0510  138.3160 C   0  0  0  0  0  0  0  0  0  0  0  0
  188.3670  177.5410  136.1850 C   0  0  0  0  0  3  0  0  0  0  0  0
  190.0670  176.8090  134.6380 O   0  0  0  0  0  1  0  0  0  0  0  0
  188.8140  177.5460  138.5710 C   0  0  0  0  0  0  0  0  0  0  0  0
  190.5250  176.8050  137.0050 C   0  0  0  0  0  3  0  0  0  0  0  0
  187.9470  177.7880  137.4960 C   0  0  0  0  0  3  0  0  0  0  0  0
  187.1060  178.2870  140.1920 N   0  0  0  0  0  2  0  0  0  0  0  0
  188.4140  177.7820  139.8940 C   0  0  0  0  0  0  0  0  0  0  0  0
  190.5660  177.0510  140.6590 N   0  0  0  0  0  0  0  0  0  0  0  0
  188.9130  177.7670  142.3760 C   0  0  2  0  0  3  0  0  0  0  0  0
  187.7740  178.7850  142.4820 C   0  0  0  0  0  2  0  0  0  0  0  0
  190.9710  176.8040  139.3850 C   0  0  0  0  0  3  0  0  0  0  0  0
  185.4620  179.3630  141.6630 C   0  0  1  0  0  3  0  0  0  0  0  0
  184.3890  179.0280  140.6450 C   0  0  0  0  0  2  0  0  0  0  0  0
  184.7690  179.2290  143.0040 C   0  0  0  0  0  2  0  0  0  0  0  0
  183.3570  178.2620  141.3250 N   0  0  0  0  0  0  0  0  0  0  0  0
  183.3680  178.7440  142.6970 C   0  0  0  0  0  2  0  0  0  0  0  0
  182.0850  178.6530  140.7410 C   0  0  0  0  0  2  0  0  0  0  0  0
  182.2600  178.9460  139.2540 C   0  0  2  0  0  3  0  0  0  0  0  0
  181.1790  178.6630  137.2320 O   0  0  0  0  0  0  0  0  0  0  0  0
  181.6960  180.1710  138.9240 O   0  0  0  0  0  0  0  0  0  0  0  0
  181.5970  177.9400  138.3500 C   0  0  1  0  0  0  0  0  0  0  0  0
  182.6150  176.8860  137.9450 C   0  0  0  0  0  1  0  0  0  0  0  0
  181.3430  180.0210  137.5740 C   0  0  0  0  0  2  0  0  0  0  0  0
  180.4640  177.3350  138.9900 O   0  0  0  0  0  0  0  0  0  0  0  0
  180.0010  176.0340  138.7440 C   0  0  0  0  0  0  0  0  0  0  0  0
  179.6150  173.7320  139.4250 C   0  0  0  0  0  3  0  0  0  0  0  0
  178.9630  174.4630  137.2120 C   0  0  0  0  0  3  0  0  0  0  0  0
  179.0530  173.4550  138.1760 C   0  0  0  0  0  3  0  0  0  0  0  0
  179.4360  175.7470  137.4960 C   0  0  0  0  0  3  0  0  0  0  0  0
  180.0890  175.0170  139.7080 C   0  0  0  0  0  3  0  0  0  0  0  0
  190.0490  178.2220  143.1700 N   0  0  0  0  0  2  0  0  0  0  0  0
  191.9800  175.8200  145.2970 C   0  0  0  0  0  3  0  0  0  0  0  0
  191.5260  176.1800  146.5700 C   0  0  0  0  0  0  0  0  0  0  0  0
  190.0980  177.8690  145.5830 C   0  0  0  0  0  3  0  0  0  0  0  0
  191.4980  176.4900  144.1690 C   0  0  0  0  0  3  0  0  0  0  0  0
  190.5530  177.5180  144.3080 C   0  0  0  0  0  0  0  0  0  0  0  0
  190.5810  177.1990  146.7110 C   0  0  0  0  0  3  0  0  0  0  0  0
  192.9860  176.2160  148.4210 O   0  0  0  0  0  1  0  0  0  0  0  0
  192.0210  175.4510  147.7680 C   0  0  0  0  0  2  0  0  0  0  0  0
  1  5  2  0  0  0  0
  1  8  1  0  0  0  0
  2 13  1  0  0  0  0
  3 16  1  0  0  0  0
  3 14  1  1  0  0  0
  4  7  1  0  0  0  0
  4 15  1  0  0  0  0
  5  9  1  0  0  0  0
  6  1  1  0  0  0  0
  7 11  1  0  0  0  0
  8  4  2  0  0  0  0
  9  7  2  0  0  0  0
 10  3  1  0  0  0  0
 11 10  1  0  0  0  0
 11  2  2  0  0  0  0
 12  2  1  0  0  0  0
 13 14  1  0  0  0  0
 13 35  1  1  0  0  0
 15 12  2  0  0  0  0
 16 17  1  6  0  0  0
 16 18  1  0  0  0  0
 17 19  1  0  0  0  0
 19 20  1  0  0  0  0
 20 18  1  0  0  0  0
 21 19  1  0  0  0  0
 22 21  1  1  0  0  0
 23 27  1  0  0  0  0
 23 25  1  0  0  0  0
 24 22  1  0  0  0  0
 25 26  1  6  0  0  0
 25 28  1  0  0  0  0
 25 22  1  0  0  0  0
 27 24  1  0  0  0  0
 29 28  1  0  0  0  0
 29 34  1  0  0  0  0
 30 34  2  0  0  0  0
 31 33  1  0  0  0  0
 31 32  2  0  0  0  0
 32 30  1  0  0  0  0
 33 29  2  0  0  0  0
 35 40  1  0  0  0  0
 36 37  1  0  0  0  0
 37 41  2  0  0  0  0
 37 43  1  0  0  0  0
 38 41  1  0  0  0  0
 39 40  1  0  0  0  0
 39 36  2  0  0  0  0
 40 38  2  0  0  0  0
 43 42  1  0  0  0  0
M  END
>  <MODEL>
5

>  <REMARK>
 VINA RESULT:      -8.6      2.899     10.343
  Name = 
  8 active torsions:
  status: ('A' for Active; 'I' for Inactive)
    1  A    between atoms: N_1  and  C_34
    2  A    between atoms: N_1  and  C_35
    3  A    between atoms: C_2  and  C_13
    4  A    between atoms: C_3  and  C_4
    5  A    between atoms: C_3  and  N_12
    6  A    between atoms: C_11  and  O_14
    7  A    between atoms: O_14  and  C_22
    8  A    between atoms: C_19  and  C_37
                            x       y       z     vdW  Elec       q    Type
                         _______ _______ _______ _____ _____    ______ ____

>  <TORSDO>
F 8

$$$$
=
 OpenBabel10262422183D

 43 49  0  0  1  0  0  0  0  0999 V2000
  184.1790  178.8590  144.3710 C   0  0  0  0  0  0  0  0  0  0  0  0
  181.1560  178.6280  140.3490 C   0  0  0  0  0  0  0  0  0  0  0  0
  182.6160  177.2970  138.2290 C   0  0  1  0  0  3  0  0  0  0  0  0
  182.2920  179.0020  142.8630 C   0  0  0  0  0  0  0  0  0  0  0  0
  184.9550  178.3010  143.3500 C   0  0  0  0  0  3  0  0  0  0  0  0
  184.7300  179.0650  145.6270 O   0  0  0  0  0  1  0  0  0  0  0  0
  183.0700  178.4410  141.8280 C   0  0  0  0  0  0  0  0  0  0  0  0
  182.8470  179.2080  144.1280 C   0  0  0  0  0  3  0  0  0  0  0  0
  184.4040  178.0920  142.0820 C   0  0  0  0  0  3  0  0  0  0  0  0
  183.2520  177.6720  139.4900 N   0  0  0  0  0  2  0  0  0  0  0  0
  182.4930  178.2370  140.5660 C   0  0  0  0  0  0  0  0  0  0  0  0
  180.4290  179.1470  141.3780 N   0  0  0  0  0  0  0  0  0  0  0  0
  180.5030  178.3920  139.0090 C   0  0  2  0  0  3  0  0  0  0  0  0
  181.5400  178.3260  137.8830 C   0  0  0  0  0  2  0  0  0  0  0  0
  180.9630  179.3430  142.6120 C   0  0  0  0  0  3  0  0  0  0  0  0
  183.6590  177.1980  137.1150 C   0  0  1  0  0  3  0  0  0  0  0  0
  185.0410  177.5230  137.6500 C   0  0  0  0  0  2  0  0  0  0  0  0
  183.7670  175.7700  136.6240 C   0  0  0  0  0  2  0  0  0  0  0  0
  185.7100  176.2650  137.9370 N   0  0  0  0  0  0  0  0  0  0  0  0
  185.1680  175.3170  136.9760 C   0  0  0  0  0  2  0  0  0  0  0  0
  187.1150  176.4490  137.6140 C   0  0  0  0  0  2  0  0  0  0  0  0
  187.4960  177.9200  137.7550 C   0  0  2  0  0  3  0  0  0  0  0  0
  189.1610  179.2630  138.6260 O   0  0  0  0  0  0  0  0  0  0  0  0
  188.2830  178.3300  136.6880 O   0  0  0  0  0  0  0  0  0  0  0  0
  188.3020  178.2260  138.9910 C   0  0  1  0  0  0  0  0  0  0  0  0
  187.3650  178.6820  140.0970 C   0  0  0  0  0  1  0  0  0  0  0  0
  189.0560  179.3710  137.2250 C   0  0  0  0  0  2  0  0  0  0  0  0
  189.0660  177.0860  139.4090 O   0  0  0  0  0  0  0  0  0  0  0  0
  189.9020  177.0450  140.5340 C   0  0  0  0  0  0  0  0  0  0  0  0
  192.0520  177.3800  141.6190 C   0  0  0  0  0  3  0  0  0  0  0  0
  190.1710  176.5470  142.8940 C   0  0  0  0  0  3  0  0  0  0  0  0
  191.5120  176.9360  142.8290 C   0  0  0  0  0  3  0  0  0  0  0  0
  189.3700  176.6020  141.7500 C   0  0  0  0  0  3  0  0  0  0  0  0
  191.2500  177.4340  140.4750 C   0  0  0  0  0  3  0  0  0  0  0  0
  179.5390  179.4480  138.7210 N   0  0  0  0  0  2  0  0  0  0  0  0
  179.6790  181.9060  135.8990 C   0  0  0  0  0  3  0  0  0  0  0  0
  180.4570  182.9160  136.4740 C   0  0  0  0  0  0  0  0  0  0  0  0
  180.6290  181.6210  138.5130 C   0  0  0  0  0  3  0  0  0  0  0  0
  179.3710  180.7580  136.6340 C   0  0  0  0  0  3  0  0  0  0  0  0
  179.8460  180.6110  137.9460 C   0  0  0  0  0  0  0  0  0  0  0  0
  180.9370  182.7700  137.7780 C   0  0  0  0  0  3  0  0  0  0  0  0
  181.5540  185.0030  136.4680 O   0  0  0  0  0  1  0  0  0  0  0  0
  180.8050  184.1270  135.6840 C   0  0  0  0  0  2  0  0  0  0  0  0
  1  6  1  0  0  0  0
  2 11  2  0  0  0  0
  2 12  1  0  0  0  0
  3 14  1  6  0  0  0
  3 10  1  0  0  0  0
  4  8  2  0  0  0  0
  5  1  2  0  0  0  0
  7  9  2  0  0  0  0
  7  4  1  0  0  0  0
  8  1  1  0  0  0  0
  9  5  1  0  0  0  0
 10 11  1  0  0  0  0
 11  7  1  0  0  0  0
 12 15  2  0  0  0  0
 13 35  1  6  0  0  0
 13  2  1  0  0  0  0
 14 13  1  0  0  0  0
 15  4  1  0  0  0  0
 16 18  1  1  0  0  0
 16 17  1  0  0  0  0
 16  3  1  0  0  0  0
 17 19  1  0  0  0  0
 18 20  1  0  0  0  0
 20 19  1  0  0  0  0
 21 19  1  0  0  0  0
 22 21  1  6  0  0  0
 22 25  1  0  0  0  0
 23 25  1  0  0  0  0
 24 27  1  0  0  0  0
 24 22  1  0  0  0  0
 25 28  1  0  0  0  0
 25 26  1  1  0  0  0
 27 23  1  0  0  0  0
 28 29  1  0  0  0  0
 29 33  1  0  0  0  0
 30 32  2  0  0  0  0
 32 31  1  0  0  0  0
 33 31  2  0  0  0  0
 34 29  2  0  0  0  0
 34 30  1  0  0  0  0
 36 37  2  0  0  0  0
 36 39  1  0  0  0  0
 37 41  1  0  0  0  0
 39 40  2  0  0  0  0
 40 38  1  0  0  0  0
 40 35  1  0  0  0  0
 41 38  2  0  0  0  0
 43 42  1  0  0  0  0
 43 37  1  0  0  0  0
M  END
>  <MODEL>
6

>  <REMARK>
 VINA RESULT:      -8.6      4.241      6.889
  Name = 
  8 active torsions:
  status: ('A' for Active; 'I' for Inactive)
    1  A    between atoms: N_1  and  C_34
    2  A    between atoms: N_1  and  C_35
    3  A    between atoms: C_2  and  C_13
    4  A    between atoms: C_3  and  C_4
    5  A    between atoms: C_3  and  N_12
    6  A    between atoms: C_11  and  O_14
    7  A    between atoms: O_14  and  C_22
    8  A    between atoms: C_19  and  C_37
                            x       y       z     vdW  Elec       q    Type
                         _______ _______ _______ _____ _____    ______ ____

>  <TORSDO>
F 8

$$$$
=
 OpenBabel10262422183D

 43 49  0  0  1  0  0  0  0  0999 V2000
  184.0880  178.7910  143.3280 C   0  0  0  0  0  0  0  0  0  0  0  0
  188.8440  177.3700  142.4740 C   0  0  0  0  0  0  0  0  0  0  0  0
  189.4770  178.0300  139.7240 C   0  0  1  0  0  3  0  0  0  0  0  0
  186.3540  177.9750  143.5630 C   0  0  0  0  0  0  0  0  0  0  0  0
  184.3150  179.0370  141.9700 C   0  0  0  0  0  3  0  0  0  0  0  0
  182.8500  179.0740  143.8870 O   0  0  0  0  0  1  0  0  0  0  0  0
  186.5890  178.2200  142.1920 C   0  0  0  0  0  0  0  0  0  0  0  0
  185.1080  178.2610  144.1240 C   0  0  0  0  0  3  0  0  0  0  0  0
  185.5610  178.7530  141.4030 C   0  0  0  0  0  3  0  0  0  0  0  0
  188.1250  178.1630  140.2610 N   0  0  0  0  0  2  0  0  0  0  0  0
  187.8490  177.9300  141.6470 C   0  0  0  0  0  0  0  0  0  0  0  0
  188.5880  177.1670  143.7970 N   0  0  0  0  0  0  0  0  0  0  0  0
  190.2170  177.0770  141.9190 C   0  0  2  0  0  3  0  0  0  0  0  0
  190.1730  176.8520  140.4050 C   0  0  0  0  0  2  0  0  0  0  0  0
  187.3790  177.4500  144.3500 C   0  0  0  0  0  3  0  0  0  0  0  0
  189.4310  177.8380  138.2080 C   0  0  1  0  0  3  0  0  0  0  0  0
  188.3840  176.8060  137.8330 C   0  0  0  0  0  2  0  0  0  0  0  0
  188.9690  179.1130  137.5330 C   0  0  0  0  0  2  0  0  0  0  0  0
  187.1780  177.5210  137.4480 N   0  0  0  0  0  0  0  0  0  0  0  0
  187.6440  178.7760  136.8800 C   0  0  0  0  0  2  0  0  0  0  0  0
  186.5640  176.7630  136.3700 C   0  0  0  0  0  2  0  0  0  0  0  0
  185.0460  176.9130  136.4250 C   0  0  2  0  0  3  0  0  0  0  0  0
  183.1500  175.7370  137.0230 O   0  0  0  0  0  0  0  0  0  0  0  0
  184.6430  177.4000  137.6600 O   0  0  0  0  0  0  0  0  0  0  0  0
  184.2970  175.6190  136.2380 C   0  0  1  0  0  0  0  0  0  0  0  0
  183.9190  175.4680  134.7730 C   0  0  0  0  0  1  0  0  0  0  0  0
  183.3450  176.8890  137.8110 C   0  0  0  0  0  2  0  0  0  0  0  0
  185.0770  174.4990  136.6800 O   0  0  0  0  0  0  0  0  0  0  0  0
  184.7800  173.1550  136.4100 C   0  0  0  0  0  0  0  0  0  0  0  0
  185.2380  171.0400  135.3020 C   0  0  0  0  0  3  0  0  0  0  0  0
  183.3340  171.2410  136.7830 C   0  0  0  0  0  3  0  0  0  0  0  0
  184.1210  170.4730  135.9210 C   0  0  0  0  0  3  0  0  0  0  0  0
  183.6640  172.5780  137.0260 C   0  0  0  0  0  3  0  0  0  0  0  0
  185.5660  172.3770  135.5450 C   0  0  0  0  0  3  0  0  0  0  0  0
  190.7880  175.9040  142.5710 N   0  0  0  0  0  2  0  0  0  0  0  0
  191.6020  177.0010  146.0570 C   0  0  0  0  0  3  0  0  0  0  0  0
  192.1810  175.8340  146.5670 C   0  0  0  0  0  0  0  0  0  0  0  0
  191.8450  174.7370  144.4340 C   0  0  0  0  0  3  0  0  0  0  0  0
  191.1390  177.0320  144.7390 C   0  0  0  0  0  3  0  0  0  0  0  0
  191.2600  175.8990  143.9210 C   0  0  0  0  0  0  0  0  0  0  0  0
  192.3090  174.7050  145.7520 C   0  0  0  0  0  3  0  0  0  0  0  0
  192.5040  177.0530  148.5590 O   0  0  0  0  0  1  0  0  0  0  0  0
  192.6960  175.8080  147.9620 C   0  0  0  0  0  2  0  0  0  0  0  0
  1  6  1  0  0  0  0
  1  8  1  0  0  0  0
  2 12  1  0  0  0  0
  3 10  1  0  0  0  0
  3 14  1  1  0  0  0
  4  8  2  0  0  0  0
  4 15  1  0  0  0  0
  5  1  2  0  0  0  0
  7  4  1  0  0  0  0
  9  5  1  0  0  0  0
  9  7  2  0  0  0  0
 10 11  1  0  0  0  0
 11  7  1  0  0  0  0
 11  2  2  0  0  0  0
 12 15  2  0  0  0  0
 13  2  1  0  0  0  0
 13 35  1  1  0  0  0
 14 13  1  0  0  0  0
 16 18  1  6  0  0  0
 16  3  1  0  0  0  0
 17 16  1  0  0  0  0
 19 17  1  0  0  0  0
 20 19  1  0  0  0  0
 20 18  1  0  0  0  0
 21 19  1  0  0  0  0
 22 21  1  1  0  0  0
 22 24  1  0  0  0  0
 23 27  1  0  0  0  0
 24 27  1  0  0  0  0
 25 26  1  6  0  0  0
 25 22  1  0  0  0  0
 25 28  1  0  0  0  0
 25 23  1  0  0  0  0
 29 28  1  0  0  0  0
 29 33  1  0  0  0  0
 30 34  1  0  0  0  0
 30 32  2  0  0  0  0
 31 33  2  0  0  0  0
 32 31  1  0  0  0  0
 34 29  2  0  0  0  0
 35 40  1  0  0  0  0
 36 37  1  0  0  0  0
 37 43  1  0  0  0  0
 38 41  1  0  0  0  0
 39 36  2  0  0  0  0
 40 38  2  0  0  0  0
 40 39  1  0  0  0  0
 41 37  2  0  0  0  0
 43 42  1  0  0  0  0
M  END
>  <MODEL>
7

>  <REMARK>
 VINA RESULT:      -8.5      3.906      8.187
  Name = 
  8 active torsions:
  status: ('A' for Active; 'I' for Inactive)
    1  A    between atoms: N_1  and  C_34
    2  A    between atoms: N_1  and  C_35
    3  A    between atoms: C_2  and  C_13
    4  A    between atoms: C_3  and  C_4
    5  A    between atoms: C_3  and  N_12
    6  A    between atoms: C_11  and  O_14
    7  A    between atoms: O_14  and  C_22
    8  A    between atoms: C_19  and  C_37
                            x       y       z     vdW  Elec       q    Type
                         _______ _______ _______ _____ _____    ______ ____

>  <TORSDO>
F 8

$$$$
=
 OpenBabel10262422183D

 43 49  0  0  1  0  0  0  0  0999 V2000
  186.4080  177.8990  144.8330 C   0  0  0  0  0  0  0  0  0  0  0  0
  189.4590  177.2060  140.8860 C   0  0  0  0  0  0  0  0  0  0  0  0
  188.1440  178.3180  138.5550 C   0  0  1  0  0  3  0  0  0  0  0  0
  188.2800  177.3420  143.4040 C   0  0  0  0  0  0  0  0  0  0  0  0
  185.6940  178.3590  143.7220 C   0  0  0  0  0  3  0  0  0  0  0  0
  185.8330  177.9460  146.0940 O   0  0  0  0  0  1  0  0  0  0  0  0
  187.5650  177.8040  142.2780 C   0  0  0  0  0  0  0  0  0  0  0  0
  187.7010  177.3920  144.6740 C   0  0  0  0  0  3  0  0  0  0  0  0
  186.2690  178.3120  142.4480 C   0  0  0  0  0  3  0  0  0  0  0  0
  187.4690  178.2080  139.8460 N   0  0  0  0  0  2  0  0  0  0  0  0
  188.1650  177.7500  141.0120 C   0  0  0  0  0  0  0  0  0  0  0  0
  190.1280  176.7890  141.9980 N   0  0  0  0  0  0  0  0  0  0  0  0
  190.1380  177.1650  139.5380 C   0  0  2  0  0  3  0  0  0  0  0  0
  189.1180  177.1500  138.3960 C   0  0  0  0  0  2  0  0  0  0  0  0
  189.5710  176.8420  143.2370 C   0  0  0  0  0  3  0  0  0  0  0  0
  187.1220  178.3370  137.4180 C   0  0  1  0  0  3  0  0  0  0  0  0
  187.2640  177.0980  136.5540 C   0  0  0  0  0  2  0  0  0  0  0  0
  185.7160  178.2520  137.9770 C   0  0  0  0  0  2  0  0  0  0  0  0
  186.2670  176.1360  136.9930 N   0  0  0  0  0  0  0  0  0  0  0  0
  185.1550  176.9350  137.4810 C   0  0  0  0  0  2  0  0  0  0  0  0
  185.8050  175.4340  135.8080 C   0  0  0  0  0  2  0  0  0  0  0  0
  186.0660  173.9370  135.9500 C   0  0  2  0  0  3  0  0  0  0  0  0
  184.9680  171.9080  135.8360 O   0  0  0  0  0  0  0  0  0  0  0  0
  186.3870  173.3740  134.7230 O   0  0  0  0  0  0  0  0  0  0  0  0
  184.8810  173.1560  136.4550 C   0  0  1  0  0  0  0  0  0  0  0  0
  184.9900  173.0040  137.9640 C   0  0  0  0  0  1  0  0  0  0  0  0
  185.9640  172.0410  134.8490 C   0  0  0  0  0  2  0  0  0  0  0  0
  183.6470  173.7930  136.0960 O   0  0  0  0  0  0  0  0  0  0  0  0
  182.4650  173.7420  136.8500 C   0  0  0  0  0  0  0  0  0  0  0  0
  180.8320  174.7450  138.3440 C   0  0  0  0  0  3  0  0  0  0  0  0
  180.5320  172.4680  137.5820 C   0  0  0  0  0  3  0  0  0  0  0  0
  180.0910  173.5610  138.3320 C   0  0  0  0  0  3  0  0  0  0  0  0
  181.7160  172.5600  136.8430 C   0  0  0  0  0  3  0  0  0  0  0  0
  182.0160  174.8360  137.6060 C   0  0  0  0  0  3  0  0  0  0  0  0
  190.9980  175.9900  139.4390 N   0  0  0  0  0  2  0  0  0  0  0  0
  192.4780  174.2850  136.4520 C   0  0  0  0  0  3  0  0  0  0  0  0
  193.4610  175.2110  136.0870 C   0  0  0  0  0  0  0  0  0  0  0  0
  192.8150  176.6270  137.9420 C   0  0  0  0  0  3  0  0  0  0  0  0
  191.6600  174.5350  137.5570 C   0  0  0  0  0  3  0  0  0  0  0  0
  191.8260  175.7090  138.3080 C   0  0  0  0  0  0  0  0  0  0  0  0
  193.6340  176.3780  136.8370 C   0  0  0  0  0  3  0  0  0  0  0  0
  194.8260  173.6260  134.9980 O   0  0  0  0  0  1  0  0  0  0  0  0
  194.3480  174.9340  134.9260 C   0  0  0  0  0  2  0  0  0  0  0  0
  1  6  1  0  0  0  0
  2 11  2  0  0  0  0
  2 12  1  0  0  0  0
  3 14  1  6  0  0  0
  3 10  1  0  0  0  0
  4  8  2  0  0  0  0
  5  1  2  0  0  0  0
  7  9  2  0  0  0  0
  7  4  1  0  0  0  0
  8  1  1  0  0  0  0
  9  5  1  0  0  0  0
 10 11  1  0  0  0  0
 11  7  1  0  0  0  0
 12 15  2  0  0  0  0
 13 35  1  1  0  0  0
 13  2  1  0  0  0  0
 14 13  1  0  0  0  0
 15  4  1  0  0  0  0
 16 17  1  6  0  0  0
 16 18  1  0  0  0  0
 16  3  1  0  0  0  0
 17 19  1  0  0  0  0
 19 20  1  0  0  0  0
 20 18  1  0  0  0  0
 21 19  1  0  0  0  0
 22 21  1  6  0  0  0
 22 25  1  0  0  0  0
 23 25  1  0  0  0  0
 24 27  1  0  0  0  0
 24 22  1  0  0  0  0
 25 26  1  1  0  0  0
 27 23  1  0  0  0  0
 28 25  1  0  0  0  0
 28 29  1  0  0  0  0
 29 34  1  0  0  0  0
 31 32  2  0  0  0  0
 32 30  1  0  0  0  0
 33 29  2  0  0  0  0
 33 31  1  0  0  0  0
 34 30  2  0  0  0  0
 36 39  1  0  0  0  0
 37 36  2  0  0  0  0
 37 41  1  0  0  0  0
 38 40  1  0  0  0  0
 39 40  2  0  0  0  0
 40 35  1  0  0  0  0
 41 38  2  0  0  0  0
 43 42  1  0  0  0  0
 43 37  1  0  0  0  0
M  END
>  <MODEL>
8

>  <REMARK>
 VINA RESULT:      -8.5      3.879      9.140
  Name = 
  8 active torsions:
  status: ('A' for Active; 'I' for Inactive)
    1  A    between atoms: N_1  and  C_34
    2  A    between atoms: N_1  and  C_35
    3  A    between atoms: C_2  and  C_13
    4  A    between atoms: C_3  and  C_4
    5  A    between atoms: C_3  and  N_12
    6  A    between atoms: C_11  and  O_14
    7  A    between atoms: O_14  and  C_22
    8  A    between atoms: C_19  and  C_37
                            x       y       z     vdW  Elec       q    Type
                         _______ _______ _______ _____ _____    ______ ____

>  <TORSDO>
F 8

$$$$
=
 OpenBabel10262422183D

 43 49  0  0  1  0  0  0  0  0999 V2000
  185.8210  173.7760  135.2440 C   0  0  0  0  0  0  0  0  0  0  0  0
  190.6640  174.1220  136.5830 C   0  0  0  0  0  0  0  0  0  0  0  0
  190.8410  176.0360  138.7510 C   0  0  1  0  0  3  0  0  0  0  0  0
  188.2110  173.4550  135.4480 C   0  0  0  0  0  0  0  0  0  0  0  0
  185.8700  174.7770  136.2200 C   0  0  0  0  0  3  0  0  0  0  0  0
  184.6110  173.4380  134.6580 O   0  0  0  0  0  1  0  0  0  0  0  0
  188.2680  174.4660  136.4320 C   0  0  0  0  0  0  0  0  0  0  0  0
  186.9920  173.1140  134.8600 C   0  0  0  0  0  3  0  0  0  0  0  0
  187.0890  175.1220  136.8130 C   0  0  0  0  0  3  0  0  0  0  0  0
  189.5990  175.8110  138.0160 N   0  0  0  0  0  2  0  0  0  0  0  0
  189.5010  174.7900  137.0160 C   0  0  0  0  0  0  0  0  0  0  0  0
  190.5680  173.1370  135.6450 N   0  0  0  0  0  0  0  0  0  0  0  0
  192.0000  174.4320  137.2160 C   0  0  2  0  0  3  0  0  0  0  0  0
  192.0260  175.8460  137.8050 C   0  0  0  0  0  2  0  0  0  0  0  0
  189.3830  172.7980  135.0740 C   0  0  0  0  0  3  0  0  0  0  0  0
  190.8500  177.4360  139.3660 C   0  0  1  0  0  3  0  0  0  0  0  0
  189.4480  177.8490  139.7690 C   0  0  0  0  0  2  0  0  0  0  0  0
  191.6340  177.4330  140.6620 C   0  0  0  0  0  2  0  0  0  0  0  0
  189.3000  177.5840  141.1910 N   0  0  0  0  0  0  0  0  0  0  0  0
  190.6310  177.7570  141.7500 C   0  0  0  0  0  2  0  0  0  0  0  0
  188.4640  178.6420  141.7340 C   0  0  0  0  0  2  0  0  0  0  0  0
  187.1650  178.0550  142.2780 C   0  0  2  0  0  3  0  0  0  0  0  0
  186.0140  177.7820  144.2620 O   0  0  0  0  0  0  0  0  0  0  0  0
  186.1620  179.0140  142.2960 O   0  0  0  0  0  0  0  0  0  0  0  0
  187.2670  177.5510  143.6930 C   0  0  1  0  0  0  0  0  0  0  0  0
  187.5680  176.0600  143.6720 C   0  0  0  0  0  1  0  0  0  0  0  0
  185.3230  178.5970  143.3420 C   0  0  0  0  0  2  0  0  0  0  0  0
  188.2730  178.2620  144.4270 O   0  0  0  0  0  0  0  0  0  0  0  0
  189.1280  177.6920  145.3820 C   0  0  0  0  0  0  0  0  0  0  0  0
  191.2680  176.7540  146.0540 C   0  0  0  0  0  3  0  0  0  0  0  0
  189.4660  176.9240  147.6600 C   0  0  0  0  0  3  0  0  0  0  0  0
  190.7770  176.5570  147.3470 C   0  0  0  0  0  3  0  0  0  0  0  0
  188.6450  177.4900  146.6800 C   0  0  0  0  0  3  0  0  0  0  0  0
  190.4470  177.3190  145.0740 C   0  0  0  0  0  3  0  0  0  0  0  0
  193.0710  174.2930  136.2350 N   0  0  0  0  0  2  0  0  0  0  0  0
  196.3270  173.6790  137.9790 C   0  0  0  0  0  3  0  0  0  0  0  0
  197.1950  174.4240  137.1750 C   0  0  0  0  0  0  0  0  0  0  0  0
  195.3320  175.0800  135.7730 C   0  0  0  0  0  3  0  0  0  0  0  0
  194.9640  173.6300  137.6760 C   0  0  0  0  0  3  0  0  0  0  0  0
  194.4600  174.3320  136.5700 C   0  0  0  0  0  0  0  0  0  0  0  0
  196.6960  175.1300  136.0760 C   0  0  0  0  0  3  0  0  0  0  0  0
  198.8120  175.1620  138.7240 O   0  0  0  0  0  1  0  0  0  0  0  0
  198.6420  174.4960  137.5110 C   0  0  0  0  0  2  0  0  0  0  0  0
  1  5  1  0  0  0  0
  2 11  1  0  0  0  0
  2 13  1  0  0  0  0
  3 14  1  6  0  0  0
  3 16  1  0  0  0  0
  4  7  1  0  0  0  0
  5  9  2  0  0  0  0
  6  1  1  0  0  0  0
  7  9  1  0  0  0  0
  7 11  2  0  0  0  0
  8  1  2  0  0  0  0
  8  4  1  0  0  0  0
 10  3  1  0  0  0  0
 11 10  1  0  0  0  0
 12  2  2  0  0  0  0
 13 35  1  6  0  0  0
 13 14  1  0  0  0  0
 15  4  2  0  0  0  0
 15 12  1  0  0  0  0
 16 17  1  1  0  0  0
 16 18  1  0  0  0  0
 17 19  1  0  0  0  0
 18 20  1  0  0  0  0
 19 21  1  0  0  0  0
 19 20  1  0  0  0  0
 22 21  1  1  0  0  0
 22 24  1  0  0  0  0
 22 25  1  0  0  0  0
 24 27  1  0  0  0  0
 25 26  1  1  0  0  0
 25 23  1  0  0  0  0
 25 28  1  0  0  0  0
 27 23  1  0  0  0  0
 28 29  1  0  0  0  0
 29 33  1  0  0  0  0
 30 32  2  0  0  0  0
 32 31  1  0  0  0  0
 33 31  2  0  0  0  0
 34 29  2  0  0  0  0
 34 30  1  0  0  0  0
 35 40  1  0  0  0  0
 37 43  1  0  0  0  0
 37 36  2  0  0  0  0
 38 41  2  0  0  0  0
 38 40  1  0  0  0  0
 39 36  1  0  0  0  0
 40 39  2  0  0  0  0
 41 37  1  0  0  0  0
 43 42  1  0  0  0  0
M  END
>  <MODEL>
9

>  <REMARK>
 VINA RESULT:      -8.5      3.068     11.231
  Name = 
  8 active torsions:
  status: ('A' for Active; 'I' for Inactive)
    1  A    between atoms: N_1  and  C_34
    2  A    between atoms: N_1  and  C_35
    3  A    between atoms: C_2  and  C_13
    4  A    between atoms: C_3  and  C_4
    5  A    between atoms: C_3  and  N_12
    6  A    between atoms: C_11  and  O_14
    7  A    between atoms: O_14  and  C_22
    8  A    between atoms: C_19  and  C_37
                            x       y       z     vdW  Elec       q    Type
                         _______ _______ _______ _____ _____    ______ ____

>  <TORSDO>
F 8

$$$$
