=
 OpenBabel10262421193D

 32 34  0  0  1  0  0  0  0  0999 V2000
  189.0240  177.7310  145.6450 C   0  0  2  0  0  3  0  0  0  0  0  0
  187.7000  178.4930  145.7290 C   0  0  2  0  0  3  0  0  0  0  0  0
  187.0740  178.3610  147.1490 C   0  0  0  0  0  2  0  0  0  0  0  0
  183.2900  178.8340  144.6060 C   0  0  0  0  0  0  0  0  0  0  0  0
  186.7230  178.1310  144.5780 C   0  0  0  0  0  2  0  0  0  0  0  0
  183.5120  178.7840  145.9790 O   0  0  0  0  0  0  0  0  0  0  0  0
  184.8620  178.4040  146.1210 C   0  0  2  0  0  3  0  0  0  0  0  0
  185.6660  178.9840  147.2600 C   0  0  0  0  0  2  0  0  0  0  0  0
  184.3700  178.8040  143.8910 N   0  0  0  0  0  0  0  0  0  0  0  0
  181.9320  178.8660  144.0030 C   0  0  0  0  0  1  0  0  0  0  0  0
  185.4590  178.9100  144.8450 C   0  0  2  0  0  3  0  0  0  0  0  0
  189.1240  177.0100  144.3040 C   0  0  0  0  0  2  0  0  0  0  0  0
  189.9120  177.8100  143.2730 C   0  0  1  0  0  3  0  0  0  0  0  0
  190.8030  178.7770  144.0340 C   0  0  0  0  0  1  0  0  0  0  0  0
  190.7380  176.8730  142.3740 C   0  0  2  0  0  3  0  0  0  0  0  0
  192.0070  177.5280  141.8440 C   0  0  0  0  0  1  0  0  0  0  0  0
  189.9280  176.2760  141.2140 C   0  0  0  0  0  2  0  0  0  0  0  0
  190.2510  176.8830  139.9220 N   0  0  0  0  0  0  0  0  0  0  0  0
  188.9770  177.2070  139.2910 C   0  0  1  0  0  3  0  0  0  0  0  0
  188.2220  178.2170  140.1330 C   0  0  0  0  0  2  0  0  0  0  0  0
  188.9630  178.6730  138.8970 C   0  0  2  0  0  3  0  0  0  0  0  0
  188.0550  178.8550  137.8560 O   0  0  0  0  0  1  0  0  0  0  0  0
  190.8270  175.9260  139.1510 O   0  0  0  0  0  0  0  0  0  0  0  0
  191.8840  176.5730  138.5000 C   0  0  0  0  0  2  0  0  0  0  0  0
  193.2270  176.1310  136.5950 F   0  0  0  0  0  0  0  0  0  0  0  0
  192.7200  175.5580  137.7470 C   0  0  0  0  0  2  0  0  0  0  0  0
  189.1870  176.7630  146.8140 C   0  0  0  0  0  2  0  0  0  0  0  0
  190.5250  176.9880  147.4960 C   0  0  0  0  0  2  0  0  0  0  0  0
  191.4570  175.8170  147.2520 C   0  0  1  0  0  3  0  0  0  0  0  0
  192.0900  175.9400  145.8770 C   0  0  0  0  0  1  0  0  0  0  0  0
  192.7080  177.1080  148.8230 O   0  0  0  0  0  1  0  0  0  0  0  0
  192.5380  175.8190  148.3160 C   0  0  0  0  0  2  0  0  0  0  0  0
  1 12  1  6  0  0  0
  1 27  1  0  0  0  0
  2  1  1  1  0  0  0
  2  3  1  0  0  0  0
  3  8  1  0  0  0  0
  4  6  1  0  0  0  0
  5  2  1  0  0  0  0
  6  7  1  0  0  0  0
  7  8  1  1  0  0  0
  9  4  2  0  0  0  0
  9 11  1  0  0  0  0
 10  4  1  0  0  0  0
 11  5  1  6  0  0  0
 11  7  1  0  0  0  0
 13 14  1  1  0  0  0
 13 12  1  0  0  0  0
 15 16  1  6  0  0  0
 15 13  1  0  0  0  0
 17 15  1  0  0  0  0
 18 17  1  0  0  0  0
 19 18  1  1  0  0  0
 19 20  1  0  0  0  0
 21 22  1  6  0  0  0
 21 19  1  0  0  0  0
 21 20  1  0  0  0  0
 23 18  1  0  0  0  0
 24 23  1  0  0  0  0
 25 26  1  0  0  0  0
 26 24  1  0  0  0  0
 27 28  1  0  0  0  0
 29 30  1  6  0  0  0
 29 28  1  0  0  0  0
 29 32  1  0  0  0  0
 32 31  1  0  0  0  0
M  END
>  <MODEL>
1

>  <REMARK>
 VINA RESULT:      -7.5      0.000      0.000
  Name = 
  14 active torsions:
  status: ('A' for Active; 'I' for Inactive)
    1  A    between atoms: C_1  and  C_4
    2  A    between atoms: C_1  and  C_5
    3  A    between atoms: C_2  and  C_5
    4  A    between atoms: C_3  and  N_20
    5  A    between atoms: C_4  and  C_24
    6  A    between atoms: C_5  and  C_14
    7  A    between atoms: C_13  and  C_29
    8  A    between atoms: C_13  and  C_30
    9  A    between atoms: C_14  and  C_30
   10  A    between atoms: O_15  and  N_20
   11  A    between atoms: O_15  and  C_26
   12  A    between atoms: C_16  and  N_20
   13  A    between atoms: C_16  and  C_24
   14  A    between atoms: C_19  and  C_26
                            x       y       z     vdW  Elec       q    Type
                         _______ _______ _______ _____ _____    ______ ____

>  <TORSDO>
F 14

$$$$
=
 OpenBabel10262421193D

 32 34  0  0  1  0  0  0  0  0999 V2000
  188.3390  178.1850  141.6610 C   0  0  2  0  0  3  0  0  0  0  0  0
  188.7640  178.2390  140.1930 C   0  0  2  0  0  3  0  0  0  0  0  0
  187.5250  178.1610  139.2530 C   0  0  0  0  0  2  0  0  0  0  0  0
  190.7150  176.2200  136.5950 C   0  0  0  0  0  0  0  0  0  0  0  0
  189.8750  177.2110  139.8500 C   0  0  0  0  0  2  0  0  0  0  0  0
  189.3940  176.5960  136.3730 O   0  0  0  0  0  0  0  0  0  0  0  0
  188.8870  176.9330  137.6450 C   0  0  2  0  0  3  0  0  0  0  0  0
  187.8930  178.0640  137.7570 C   0  0  0  0  0  2  0  0  0  0  0  0
  191.1670  176.5340  137.7680 N   0  0  0  0  0  0  0  0  0  0  0  0
  191.5270  175.4770  135.5960 C   0  0  0  0  0  1  0  0  0  0  0  0
  190.1290  177.3490  138.3690 C   0  0  2  0  0  3  0  0  0  0  0  0
  188.4610  176.7570  142.1850 C   0  0  0  0  0  2  0  0  0  0  0  0
  189.4710  176.6420  143.3200 C   0  0  1  0  0  3  0  0  0  0  0  0
  190.3560  175.4440  143.0190 C   0  0  0  0  0  1  0  0  0  0  0  0
  190.2980  177.9340  143.4460 C   0  0  2  0  0  3  0  0  0  0  0  0
  191.7300  177.7710  142.9540 C   0  0  0  0  0  1  0  0  0  0  0  0
  190.2900  178.5220  144.8640 C   0  0  0  0  0  2  0  0  0  0  0  0
  190.2460  177.4950  145.9070 N   0  0  0  0  0  0  0  0  0  0  0  0
  189.3280  177.9860  146.9280 C   0  0  1  0  0  3  0  0  0  0  0  0
  187.8950  177.8120  146.4650 C   0  0  0  0  0  2  0  0  0  0  0  0
  188.4890  176.8340  147.4530 C   0  0  2  0  0  3  0  0  0  0  0  0
  188.0430  177.1460  148.7350 O   0  0  0  0  0  1  0  0  0  0  0  0
  191.4730  177.4470  146.4870 O   0  0  0  0  0  0  0  0  0  0  0  0
  191.8990  176.1240  146.3220 C   0  0  0  0  0  2  0  0  0  0  0  0
  192.5020  176.6180  148.5630 F   0  0  0  0  0  0  0  0  0  0  0  0
  192.4730  175.6030  147.6250 C   0  0  0  0  0  2  0  0  0  0  0  0
  186.9260  178.7320  141.8540 C   0  0  0  0  0  2  0  0  0  0  0  0
  186.2580  178.0510  143.0350 C   0  0  0  0  0  2  0  0  0  0  0  0
  185.0350  178.8260  143.4820 C   0  0  1  0  0  3  0  0  0  0  0  0
  183.8850  178.5760  142.5210 C   0  0  0  0  0  1  0  0  0  0  0  0
  183.6420  179.1950  145.3860 O   0  0  0  0  0  1  0  0  0  0  0  0
  184.6460  178.3710  144.8770 C   0  0  0  0  0  2  0  0  0  0  0  0
  1 27  1  6  0  0  0
  1 12  1  0  0  0  0
  2  1  1  1  0  0  0
  3  2  1  0  0  0  0
  4  9  2  0  0  0  0
  5  2  1  0  0  0  0
  6  4  1  0  0  0  0
  6  7  1  0  0  0  0
  7  8  1  6  0  0  0
  7 11  1  0  0  0  0
  8  3  1  0  0  0  0
  9 11  1  0  0  0  0
 10  4  1  0  0  0  0
 11  5  1  1  0  0  0
 12 13  1  0  0  0  0
 13 14  1  6  0  0  0
 13 15  1  0  0  0  0
 15 16  1  1  0  0  0
 15 17  1  0  0  0  0
 17 18  1  0  0  0  0
 18 23  1  0  0  0  0
 19 18  1  6  0  0  0
 19 21  1  0  0  0  0
 20 19  1  0  0  0  0
 20 21  1  0  0  0  0
 21 22  1  1  0  0  0
 24 23  1  0  0  0  0
 24 26  1  0  0  0  0
 26 25  1  0  0  0  0
 27 28  1  0  0  0  0
 28 29  1  0  0  0  0
 29 30  1  6  0  0  0
 29 32  1  0  0  0  0
 32 31  1  0  0  0  0
M  END
>  <MODEL>
2

>  <REMARK>
 VINA RESULT:      -7.3      2.945      8.011
  Name = 
  14 active torsions:
  status: ('A' for Active; 'I' for Inactive)
    1  A    between atoms: C_1  and  C_4
    2  A    between atoms: C_1  and  C_5
    3  A    between atoms: C_2  and  C_5
    4  A    between atoms: C_3  and  N_20
    5  A    between atoms: C_4  and  C_24
    6  A    between atoms: C_5  and  C_14
    7  A    between atoms: C_13  and  C_29
    8  A    between atoms: C_13  and  C_30
    9  A    between atoms: C_14  and  C_30
   10  A    between atoms: O_15  and  N_20
   11  A    between atoms: O_15  and  C_26
   12  A    between atoms: C_16  and  N_20
   13  A    between atoms: C_16  and  C_24
   14  A    between atoms: C_19  and  C_26
                            x       y       z     vdW  Elec       q    Type
                         _______ _______ _______ _____ _____    ______ ____

>  <TORSDO>
F 14

$$$$
=
 OpenBabel10262421193D

 32 34  0  0  1  0  0  0  0  0999 V2000
  187.9120  177.8300  143.6310 C   0  0  2  0  0  3  0  0  0  0  0  0
  186.6590  178.5290  143.1010 C   0  0  2  0  0  3  0  0  0  0  0  0
  185.3780  177.9630  143.7830 C   0  0  0  0  0  2  0  0  0  0  0  0
  183.6800  179.2080  139.7120 C   0  0  0  0  0  0  0  0  0  0  0  0
  186.5890  178.5440  141.5510 C   0  0  0  0  0  2  0  0  0  0  0  0
  183.0930  178.7330  140.8810 O   0  0  0  0  0  0  0  0  0  0  0  0
  184.1700  178.3270  141.6960 C   0  0  2  0  0  3  0  0  0  0  0  0
  184.0680  178.5220  143.1890 C   0  0  0  0  0  2  0  0  0  0  0  0
  184.9580  179.4010  139.7990 N   0  0  0  0  0  0  0  0  0  0  0  0
  182.9200  179.4280  138.4530 C   0  0  0  0  0  1  0  0  0  0  0  0
  185.2770  179.2030  141.2000 C   0  0  2  0  0  3  0  0  0  0  0  0
  188.5210  176.9560  142.5380 C   0  0  0  0  0  2  0  0  0  0  0  0
  190.0370  177.0960  142.4610 C   0  0  1  0  0  3  0  0  0  0  0  0
  190.6340  176.1160  143.4570 C   0  0  0  0  0  1  0  0  0  0  0  0
  190.5370  176.8200  141.0320 C   0  0  2  0  0  3  0  0  0  0  0  0
  191.8590  177.5120  140.7230 C   0  0  0  0  0  1  0  0  0  0  0  0
  189.5000  177.1560  139.9510 C   0  0  0  0  0  2  0  0  0  0  0  0
  189.9420  176.7910  138.6040 N   0  0  0  0  0  0  0  0  0  0  0  0
  188.7610  176.8600  137.7520 C   0  0  1  0  0  3  0  0  0  0  0  0
  187.9660  178.1120  138.0660 C   0  0  0  0  0  2  0  0  0  0  0  0
  188.8580  178.0740  136.8460 C   0  0  2  0  0  3  0  0  0  0  0  0
  188.0790  177.8580  135.7120 O   0  0  0  0  0  1  0  0  0  0  0  0
  190.3170  175.4860  138.6350 O   0  0  0  0  0  0  0  0  0  0  0  0
  191.1740  175.3300  137.5400 C   0  0  0  0  0  2  0  0  0  0  0  0
  189.8180  173.3920  137.3510 F   0  0  0  0  0  0  0  0  0  0  0  0
  191.0340  173.9320  136.9730 C   0  0  0  0  0  2  0  0  0  0  0  0
  187.6110  177.0200  144.8900 C   0  0  0  0  0  2  0  0  0  0  0  0
  188.2540  177.6760  146.0990 C   0  0  0  0  0  2  0  0  0  0  0  0
  187.2810  177.7310  147.2610 C   0  0  1  0  0  3  0  0  0  0  0  0
  188.0450  177.8770  148.5660 C   0  0  0  0  0  1  0  0  0  0  0  0
  185.0270  178.5120  147.1860 O   0  0  0  0  0  1  0  0  0  0  0  0
  186.3560  178.9190  147.0730 C   0  0  0  0  0  2  0  0  0  0  0  0
  1 12  1  6  0  0  0
  1 27  1  0  0  0  0
  2  1  1  6  0  0  0
  2  3  1  0  0  0  0
  4  9  2  0  0  0  0
  4  6  1  0  0  0  0
  5  2  1  0  0  0  0
  6  7  1  0  0  0  0
  7  8  1  1  0  0  0
  8  3  1  0  0  0  0
  9 11  1  0  0  0  0
 10  4  1  0  0  0  0
 11  5  1  6  0  0  0
 11  7  1  0  0  0  0
 13 12  1  0  0  0  0
 13 14  1  1  0  0  0
 15 16  1  6  0  0  0
 15 13  1  0  0  0  0
 17 15  1  0  0  0  0
 18 23  1  0  0  0  0
 18 17  1  0  0  0  0
 19 20  1  0  0  0  0
 19 18  1  1  0  0  0
 21 22  1  6  0  0  0
 21 19  1  0  0  0  0
 21 20  1  0  0  0  0
 24 23  1  0  0  0  0
 26 25  1  0  0  0  0
 26 24  1  0  0  0  0
 27 28  1  0  0  0  0
 28 29  1  0  0  0  0
 29 30  1  1  0  0  0
 32 31  1  0  0  0  0
 32 29  1  0  0  0  0
M  END
>  <MODEL>
3

>  <REMARK>
 VINA RESULT:      -7.2      2.572      3.671
  Name = 
  14 active torsions:
  status: ('A' for Active; 'I' for Inactive)
    1  A    between atoms: C_1  and  C_4
    2  A    between atoms: C_1  and  C_5
    3  A    between atoms: C_2  and  C_5
    4  A    between atoms: C_3  and  N_20
    5  A    between atoms: C_4  and  C_24
    6  A    between atoms: C_5  and  C_14
    7  A    between atoms: C_13  and  C_29
    8  A    between atoms: C_13  and  C_30
    9  A    between atoms: C_14  and  C_30
   10  A    between atoms: O_15  and  N_20
   11  A    between atoms: O_15  and  C_26
   12  A    between atoms: C_16  and  N_20
   13  A    between atoms: C_16  and  C_24
   14  A    between atoms: C_19  and  C_26
                            x       y       z     vdW  Elec       q    Type
                         _______ _______ _______ _____ _____    ______ ____

>  <TORSDO>
F 14

$$$$
=
 OpenBabel10262421193D

 32 34  0  0  1  0  0  0  0  0999 V2000
  187.4210  178.2010  144.7550 C   0  0  2  0  0  3  0  0  0  0  0  0
  186.1440  178.8310  144.1960 C   0  0  2  0  0  3  0  0  0  0  0  0
  185.0060  178.8120  145.2580 C   0  0  0  0  0  2  0  0  0  0  0  0
  182.5500  178.5890  141.3940 C   0  0  0  0  0  0  0  0  0  0  0  0
  185.7310  178.2350  142.8230 C   0  0  0  0  0  2  0  0  0  0  0  0
  182.2020  178.7300  142.7340 O   0  0  0  0  0  0  0  0  0  0  0  0
  183.3960  178.5080  143.4510 C   0  0  2  0  0  3  0  0  0  0  0  0
  183.6470  179.3000  144.7120 C   0  0  0  0  0  2  0  0  0  0  0  0
  183.8270  178.5810  141.1740 N   0  0  0  0  0  0  0  0  0  0  0  0
  181.5500  178.4120  140.3090 C   0  0  0  0  0  1  0  0  0  0  0  0
  184.4340  178.9100  142.4500 C   0  0  2  0  0  3  0  0  0  0  0  0
  187.9300  177.1240  143.8010 C   0  0  0  0  0  2  0  0  0  0  0  0
  189.1150  177.5990  142.9700 C   0  0  1  0  0  3  0  0  0  0  0  0
  189.8760  178.6170  143.8040 C   0  0  0  0  0  1  0  0  0  0  0  0
  190.0140  176.4130  142.5760 C   0  0  2  0  0  3  0  0  0  0  0  0
  191.3740  176.4460  143.2620 C   0  0  0  0  0  1  0  0  0  0  0  0
  190.1910  176.2650  141.0580 C   0  0  0  0  0  2  0  0  0  0  0  0
  190.5720  177.5180  140.4040 N   0  0  0  0  0  0  0  0  0  0  0  0
  189.8030  177.5860  139.1680 C   0  0  1  0  0  3  0  0  0  0  0  0
  188.3200  177.6120  139.4790 C   0  0  0  0  0  2  0  0  0  0  0  0
  189.0340  178.8940  139.1190 C   0  0  2  0  0  3  0  0  0  0  0  0
  188.7660  179.2140  137.7900 O   0  0  0  0  0  1  0  0  0  0  0  0
  191.8760  177.4090  140.0390 O   0  0  0  0  0  0  0  0  0  0  0  0
  191.8570  176.6820  138.8440 C   0  0  0  0  0  2  0  0  0  0  0  0
  193.2880  175.3570  137.4930 F   0  0  0  0  0  0  0  0  0  0  0  0
  193.2760  176.4130  138.3850 C   0  0  0  0  0  2  0  0  0  0  0  0
  187.2010  177.6450  146.1600 C   0  0  0  0  0  2  0  0  0  0  0  0
  188.3470  176.7240  146.5420 C   0  0  0  0  0  2  0  0  0  0  0  0
  189.4860  177.5110  147.1610 C   0  0  1  0  0  3  0  0  0  0  0  0
  189.0360  178.1230  148.4760 C   0  0  0  0  0  1  0  0  0  0  0  0
  191.7530  177.2960  147.8750 O   0  0  0  0  0  1  0  0  0  0  0  0
  190.6550  176.5760  147.4040 C   0  0  0  0  0  2  0  0  0  0  0  0
  1 12  1  6  0  0  0
  1 27  1  0  0  0  0
  2  1  1  1  0  0  0
  2  3  1  0  0  0  0
  4  6  1  0  0  0  0
  5  2  1  0  0  0  0
  6  7  1  0  0  0  0
  7  8  1  1  0  0  0
  8  3  1  0  0  0  0
  9  4  2  0  0  0  0
  9 11  1  0  0  0  0
 10  4  1  0  0  0  0
 11  5  1  1  0  0  0
 11  7  1  0  0  0  0
 13 12  1  0  0  0  0
 13 14  1  1  0  0  0
 15 13  1  0  0  0  0
 15 16  1  1  0  0  0
 17 15  1  0  0  0  0
 18 17  1  0  0  0  0
 19 20  1  0  0  0  0
 19 18  1  1  0  0  0
 21 22  1  6  0  0  0
 21 19  1  0  0  0  0
 21 20  1  0  0  0  0
 23 18  1  0  0  0  0
 24 23  1  0  0  0  0
 25 26  1  0  0  0  0
 26 24  1  0  0  0  0
 27 28  1  0  0  0  0
 28 29  1  0  0  0  0
 29 32  1  0  0  0  0
 29 30  1  1  0  0  0
 32 31  1  0  0  0  0
M  END
>  <MODEL>
4

>  <REMARK>
 VINA RESULT:      -7.1      1.579      2.205
  Name = 
  14 active torsions:
  status: ('A' for Active; 'I' for Inactive)
    1  A    between atoms: C_1  and  C_4
    2  A    between atoms: C_1  and  C_5
    3  A    between atoms: C_2  and  C_5
    4  A    between atoms: C_3  and  N_20
    5  A    between atoms: C_4  and  C_24
    6  A    between atoms: C_5  and  C_14
    7  A    between atoms: C_13  and  C_29
    8  A    between atoms: C_13  and  C_30
    9  A    between atoms: C_14  and  C_30
   10  A    between atoms: O_15  and  N_20
   11  A    between atoms: O_15  and  C_26
   12  A    between atoms: C_16  and  N_20
   13  A    between atoms: C_16  and  C_24
   14  A    between atoms: C_19  and  C_26
                            x       y       z     vdW  Elec       q    Type
                         _______ _______ _______ _____ _____    ______ ____

>  <TORSDO>
F 14

$$$$
=
 OpenBabel10262421193D

 32 34  0  0  1  0  0  0  0  0999 V2000
  184.5210  178.8220  141.9490 C   0  0  2  0  0  3  0  0  0  0  0  0
  185.6920  178.9440  140.9720 C   0  0  2  0  0  3  0  0  0  0  0  0
  185.2700  178.4910  139.5430 C   0  0  0  0  0  2  0  0  0  0  0  0
  189.7290  177.4310  139.4770 C   0  0  0  0  0  0  0  0  0  0  0  0
  186.9830  178.2560  141.4920 C   0  0  0  0  0  2  0  0  0  0  0  0
  188.7350  177.4150  138.5040 O   0  0  0  0  0  0  0  0  0  0  0  0
  187.5310  177.6400  139.2030 C   0  0  2  0  0  3  0  0  0  0  0  0
  186.4430  178.4510  138.5400 C   0  0  0  0  0  2  0  0  0  0  0  0
  189.3450  177.8980  140.6230 N   0  0  0  0  0  0  0  0  0  0  0  0
  191.1020  176.9130  139.2440 C   0  0  0  0  0  1  0  0  0  0  0  0
  188.0070  178.4100  140.3940 C   0  0  2  0  0  3  0  0  0  0  0  0
  184.9330  177.9770  143.1510 C   0  0  0  0  0  2  0  0  0  0  0  0
  185.0270  178.7980  144.4310 C   0  0  1  0  0  3  0  0  0  0  0  0
  183.6110  179.0020  144.9440 C   0  0  0  0  0  1  0  0  0  0  0  0
  185.9030  178.0810  145.4740 C   0  0  2  0  0  3  0  0  0  0  0  0
  185.5200  178.4260  146.9070 C   0  0  0  0  0  1  0  0  0  0  0  0
  187.4070  178.3070  145.2600 C   0  0  0  0  0  2  0  0  0  0  0  0
  188.2100  177.1190  145.5540 N   0  0  0  0  0  0  0  0  0  0  0  0
  189.4100  177.5930  146.2320 C   0  0  1  0  0  3  0  0  0  0  0  0
  189.0750  178.0140  147.6500 C   0  0  0  0  0  2  0  0  0  0  0  0
  189.7310  176.6750  147.3990 C   0  0  2  0  0  3  0  0  0  0  0  0
  191.0910  176.7660  147.6870 O   0  0  0  0  0  1  0  0  0  0  0  0
  188.6190  176.5970  144.3700 O   0  0  0  0  0  0  0  0  0  0  0  0
  189.8340  177.2350  144.0950 C   0  0  0  0  0  2  0  0  0  0  0  0
  190.0850  175.3350  142.6950 F   0  0  0  0  0  0  0  0  0  0  0  0
  190.7920  176.2550  143.4470 C   0  0  0  0  0  2  0  0  0  0  0  0
  183.2790  178.2530  141.2650 C   0  0  0  0  0  2  0  0  0  0  0  0
  182.0250  178.7670  141.9500 C   0  0  0  0  0  2  0  0  0  0  0  0
  180.8540  178.7820  140.9860 C   0  0  1  0  0  3  0  0  0  0  0  0
  181.3400  178.4760  139.5790 C   0  0  0  0  0  1  0  0  0  0  0  0
  179.6130  177.8350  142.7910 O   0  0  0  0  0  1  0  0  0  0  0  0
  179.8470  177.7340  141.4190 C   0  0  0  0  0  2  0  0  0  0  0  0
  1 27  1  6  0  0  0
  1 12  1  0  0  0  0
  2  5  1  0  0  0  0
  2  1  1  1  0  0  0
  3  2  1  0  0  0  0
  4  9  2  0  0  0  0
  6  7  1  0  0  0  0
  6  4  1  0  0  0  0
  7  8  1  6  0  0  0
  7 11  1  0  0  0  0
  8  3  1  0  0  0  0
 10  4  1  0  0  0  0
 11  9  1  0  0  0  0
 11  5  1  1  0  0  0
 12 13  1  0  0  0  0
 13 14  1  1  0  0  0
 13 15  1  0  0  0  0
 15 16  1  1  0  0  0
 17 15  1  0  0  0  0
 17 18  1  0  0  0  0
 19 18  1  6  0  0  0
 19 21  1  0  0  0  0
 19 20  1  0  0  0  0
 21 20  1  0  0  0  0
 21 22  1  1  0  0  0
 23 18  1  0  0  0  0
 24 23  1  0  0  0  0
 25 26  1  0  0  0  0
 26 24  1  0  0  0  0
 27 28  1  0  0  0  0
 29 30  1  6  0  0  0
 29 32  1  0  0  0  0
 29 28  1  0  0  0  0
 32 31  1  0  0  0  0
M  END
>  <MODEL>
5

>  <REMARK>
 VINA RESULT:      -7.0      2.757      8.330
  Name = 
  14 active torsions:
  status: ('A' for Active; 'I' for Inactive)
    1  A    between atoms: C_1  and  C_4
    2  A    between atoms: C_1  and  C_5
    3  A    between atoms: C_2  and  C_5
    4  A    between atoms: C_3  and  N_20
    5  A    between atoms: C_4  and  C_24
    6  A    between atoms: C_5  and  C_14
    7  A    between atoms: C_13  and  C_29
    8  A    between atoms: C_13  and  C_30
    9  A    between atoms: C_14  and  C_30
   10  A    between atoms: O_15  and  N_20
   11  A    between atoms: O_15  and  C_26
   12  A    between atoms: C_16  and  N_20
   13  A    between atoms: C_16  and  C_24
   14  A    between atoms: C_19  and  C_26
                            x       y       z     vdW  Elec       q    Type
                         _______ _______ _______ _____ _____    ______ ____

>  <TORSDO>
F 14

$$$$
=
 OpenBabel10262421193D

 32 34  0  0  1  0  0  0  0  0999 V2000
  188.0760  177.9140  143.8730 C   0  0  2  0  0  3  0  0  0  0  0  0
  186.7110  178.6030  143.9360 C   0  0  2  0  0  3  0  0  0  0  0  0
  186.0820  178.4560  145.3530 C   0  0  0  0  0  2  0  0  0  0  0  0
  182.2990  178.6850  142.7750 C   0  0  0  0  0  0  0  0  0  0  0  0
  185.7660  178.1720  142.7830 C   0  0  0  0  0  2  0  0  0  0  0  0
  182.5110  178.6660  144.1500 O   0  0  0  0  0  0  0  0  0  0  0  0
  183.8800  178.3640  144.3080 C   0  0  2  0  0  3  0  0  0  0  0  0
  184.6410  179.0010  145.4450 C   0  0  0  0  0  2  0  0  0  0  0  0
  183.3850  178.7060  142.0690 N   0  0  0  0  0  0  0  0  0  0  0  0
  180.9460  178.6350  142.1610 C   0  0  0  0  0  1  0  0  0  0  0  0
  184.4580  178.8840  143.0290 C   0  0  2  0  0  3  0  0  0  0  0  0
  188.1930  177.1110  142.5810 C   0  0  0  0  0  2  0  0  0  0  0  0
  189.4220  177.4970  141.7680 C   0  0  1  0  0  3  0  0  0  0  0  0
  190.5990  176.7090  142.3210 C   0  0  0  0  0  1  0  0  0  0  0  0
  189.2020  177.2020  140.2740 C   0  0  2  0  0  3  0  0  0  0  0  0
  190.4750  176.7630  139.5620 C   0  0  0  0  0  1  0  0  0  0  0  0
  188.5470  178.3650  139.5160 C   0  0  0  0  0  2  0  0  0  0  0  0
  187.4020  177.9460  138.7060 N   0  0  0  0  0  0  0  0  0  0  0  0
  187.5810  178.5580  137.3950 C   0  0  1  0  0  3  0  0  0  0  0  0
  189.0570  178.6830  137.0760 C   0  0  0  0  0  2  0  0  0  0  0  0
  188.2480  177.5670  136.4580 C   0  0  2  0  0  3  0  0  0  0  0  0
  187.9300  177.9010  135.1430 O   0  0  0  0  0  1  0  0  0  0  0  0
  186.2910  178.5100  139.2440 O   0  0  0  0  0  0  0  0  0  0  0  0
  185.2760  178.2740  138.3090 C   0  0  0  0  0  2  0  0  0  0  0  0
  184.0110  180.1360  139.0570 F   0  0  0  0  0  0  0  0  0  0  0  0
  183.9520  178.7700  138.8530 C   0  0  0  0  0  2  0  0  0  0  0  0
  188.3170  177.0370  145.1000 C   0  0  0  0  0  2  0  0  0  0  0  0
  189.7480  177.1960  145.5810 C   0  0  0  0  0  2  0  0  0  0  0  0
  189.7870  177.4720  147.0720 C   0  0  1  0  0  3  0  0  0  0  0  0
  188.4970  176.9960  147.7180 C   0  0  0  0  0  1  0  0  0  0  0  0
  192.0450  176.7510  146.7930 O   0  0  0  0  0  1  0  0  0  0  0  0
  190.9670  176.7370  147.6790 C   0  0  0  0  0  2  0  0  0  0  0  0
  1 12  1  6  0  0  0
  1 27  1  0  0  0  0
  2  1  1  1  0  0  0
  2  3  1  0  0  0  0
  3  8  1  0  0  0  0
  4  6  1  0  0  0  0
  5  2  1  0  0  0  0
  6  7  1  0  0  0  0
  7  8  1  1  0  0  0
  9  4  2  0  0  0  0
  9 11  1  0  0  0  0
 10  4  1  0  0  0  0
 11  5  1  6  0  0  0
 11  7  1  0  0  0  0
 13 14  1  1  0  0  0
 13 12  1  0  0  0  0
 15 16  1  6  0  0  0
 15 13  1  0  0  0  0
 17 15  1  0  0  0  0
 18 23  1  0  0  0  0
 18 17  1  0  0  0  0
 19 18  1  1  0  0  0
 20 19  1  0  0  0  0
 21 22  1  6  0  0  0
 21 20  1  0  0  0  0
 21 19  1  0  0  0  0
 24 26  1  0  0  0  0
 24 23  1  0  0  0  0
 26 25  1  0  0  0  0
 27 28  1  0  0  0  0
 28 29  1  0  0  0  0
 29 32  1  0  0  0  0
 29 30  1  1  0  0  0
 31 32  1  0  0  0  0
M  END
>  <MODEL>
6

>  <REMARK>
 VINA RESULT:      -6.9      2.656      3.699
  Name = 
  14 active torsions:
  status: ('A' for Active; 'I' for Inactive)
    1  A    between atoms: C_1  and  C_4
    2  A    between atoms: C_1  and  C_5
    3  A    between atoms: C_2  and  C_5
    4  A    between atoms: C_3  and  N_20
    5  A    between atoms: C_4  and  C_24
    6  A    between atoms: C_5  and  C_14
    7  A    between atoms: C_13  and  C_29
    8  A    between atoms: C_13  and  C_30
    9  A    between atoms: C_14  and  C_30
   10  A    between atoms: O_15  and  N_20
   11  A    between atoms: O_15  and  C_26
   12  A    between atoms: C_16  and  N_20
   13  A    between atoms: C_16  and  C_24
   14  A    between atoms: C_19  and  C_26
                            x       y       z     vdW  Elec       q    Type
                         _______ _______ _______ _____ _____    ______ ____

>  <TORSDO>
F 14

$$$$
=
 OpenBabel10262421193D

 32 34  0  0  1  0  0  0  0  0999 V2000
  187.2830  178.1930  144.3230 C   0  0  2  0  0  3  0  0  0  0  0  0
  185.9590  178.8410  143.9180 C   0  0  2  0  0  3  0  0  0  0  0  0
  184.9590  178.8530  145.1120 C   0  0  0  0  0  2  0  0  0  0  0  0
  182.0440  178.6420  141.5800 C   0  0  0  0  0  0  0  0  0  0  0  0
  185.3690  178.2410  142.6130 C   0  0  0  0  0  2  0  0  0  0  0  0
  181.8650  178.8010  142.9510 O   0  0  0  0  0  0  0  0  0  0  0  0
  183.1340  178.5630  143.5190 C   0  0  2  0  0  3  0  0  0  0  0  0
  183.5520  179.3610  144.7300 C   0  0  0  0  0  2  0  0  0  0  0  0
  183.2840  178.6080  141.2060 N   0  0  0  0  0  0  0  0  0  0  0  0
  180.9150  178.4740  140.6280 C   0  0  0  0  0  1  0  0  0  0  0  0
  184.0480  178.9370  142.3940 C   0  0  2  0  0  3  0  0  0  0  0  0
  187.7370  177.2180  143.2400 C   0  0  0  0  0  2  0  0  0  0  0  0
  188.8500  177.7940  142.3730 C   0  0  1  0  0  3  0  0  0  0  0  0
  189.7230  178.6580  143.2680 C   0  0  0  0  0  1  0  0  0  0  0  0
  189.6640  176.6660  141.7130 C   0  0  2  0  0  3  0  0  0  0  0  0
  190.4970  175.8740  142.7140 C   0  0  0  0  0  1  0  0  0  0  0  0
  190.5490  177.1530  140.5580 C   0  0  0  0  0  2  0  0  0  0  0  0
  189.8170  177.2910  139.2980 N   0  0  0  0  0  0  0  0  0  0  0  0
  190.7830  177.0530  138.2330 C   0  0  1  0  0  3  0  0  0  0  0  0
  191.8980  176.1560  138.7330 C   0  0  0  0  0  2  0  0  0  0  0  0
  190.7940  175.5770  137.8780 C   0  0  2  0  0  3  0  0  0  0  0  0
  191.2540  175.4280  136.5710 O   0  0  0  0  0  1  0  0  0  0  0  0
  189.4350  178.5900  139.1850 O   0  0  0  0  0  0  0  0  0  0  0  0
  188.5210  178.6070  138.1260 C   0  0  0  0  0  2  0  0  0  0  0  0
  186.7000  178.3780  139.6290 F   0  0  0  0  0  0  0  0  0  0  0  0
  187.2810  177.8220  138.5050 C   0  0  0  0  0  2  0  0  0  0  0  0
  187.1760  177.5070  145.6830 C   0  0  0  0  0  2  0  0  0  0  0  0
  188.4610  176.7590  145.9930 C   0  0  0  0  0  2  0  0  0  0  0  0
  189.3550  177.5790  146.9030 C   0  0  1  0  0  3  0  0  0  0  0  0
  188.6010  177.9470  148.1700 C   0  0  0  0  0  1  0  0  0  0  0  0
  191.6510  177.1220  146.4380 O   0  0  0  0  0  1  0  0  0  0  0  0
  190.5820  176.7590  147.2570 C   0  0  0  0  0  2  0  0  0  0  0  0
  1 12  1  6  0  0  0
  1 27  1  0  0  0  0
  2  1  1  1  0  0  0
  2  3  1  0  0  0  0
  4  6  1  0  0  0  0
  5  2  1  0  0  0  0
  6  7  1  0  0  0  0
  7  8  1  1  0  0  0
  8  3  1  0  0  0  0
  9  4  2  0  0  0  0
  9 11  1  0  0  0  0
 10  4  1  0  0  0  0
 11  5  1  1  0  0  0
 11  7  1  0  0  0  0
 13 12  1  0  0  0  0
 13 14  1  1  0  0  0
 15 13  1  0  0  0  0
 15 16  1  1  0  0  0
 17 15  1  0  0  0  0
 18 17  1  0  0  0  0
 19 20  1  0  0  0  0
 19 18  1  1  0  0  0
 21 22  1  6  0  0  0
 21 19  1  0  0  0  0
 21 20  1  0  0  0  0
 23 18  1  0  0  0  0
 24 26  1  0  0  0  0
 24 23  1  0  0  0  0
 26 25  1  0  0  0  0
 27 28  1  0  0  0  0
 28 29  1  0  0  0  0
 29 32  1  0  0  0  0
 29 30  1  1  0  0  0
 31 32  1  0  0  0  0
M  END
>  <MODEL>
7

>  <REMARK>
 VINA RESULT:      -6.9      2.187      3.296
  Name = 
  14 active torsions:
  status: ('A' for Active; 'I' for Inactive)
    1  A    between atoms: C_1  and  C_4
    2  A    between atoms: C_1  and  C_5
    3  A    between atoms: C_2  and  C_5
    4  A    between atoms: C_3  and  N_20
    5  A    between atoms: C_4  and  C_24
    6  A    between atoms: C_5  and  C_14
    7  A    between atoms: C_13  and  C_29
    8  A    between atoms: C_13  and  C_30
    9  A    between atoms: C_14  and  C_30
   10  A    between atoms: O_15  and  N_20
   11  A    between atoms: O_15  and  C_26
   12  A    between atoms: C_16  and  N_20
   13  A    between atoms: C_16  and  C_24
   14  A    between atoms: C_19  and  C_26
                            x       y       z     vdW  Elec       q    Type
                         _______ _______ _______ _____ _____    ______ ____

>  <TORSDO>
F 14

$$$$
=
 OpenBabel10262421193D

 32 34  0  0  1  0  0  0  0  0999 V2000
  187.7520  177.4940  143.9860 C   0  0  2  0  0  3  0  0  0  0  0  0
  188.2160  177.1460  142.5710 C   0  0  2  0  0  3  0  0  0  0  0  0
  189.7570  176.9250  142.5310 C   0  0  0  0  0  2  0  0  0  0  0  0
  189.0190  178.4490  138.2710 C   0  0  0  0  0  0  0  0  0  0  0  0
  187.6990  178.1480  141.5040 C   0  0  0  0  0  2  0  0  0  0  0  0
  190.1420  177.9400  138.9170 O   0  0  0  0  0  0  0  0  0  0  0  0
  189.7800  177.8590  140.2770 C   0  0  2  0  0  3  0  0  0  0  0  0
  190.3110  176.7140  141.1060 C   0  0  0  0  0  2  0  0  0  0  0  0
  187.9410  178.4360  138.9900 N   0  0  0  0  0  0  0  0  0  0  0  0
  189.0560  179.0070  136.8940 C   0  0  0  0  0  1  0  0  0  0  0  0
  188.2940  177.7030  140.1910 C   0  0  2  0  0  3  0  0  0  0  0  0
  186.7170  178.6140  143.9330 C   0  0  0  0  0  2  0  0  0  0  0  0
  185.3870  178.2040  144.5520 C   0  0  1  0  0  3  0  0  0  0  0  0
  185.4350  178.5830  146.0240 C   0  0  0  0  0  1  0  0  0  0  0  0
  184.2150  178.8950  143.8320 C   0  0  2  0  0  3  0  0  0  0  0  0
  182.9700  179.0080  144.7020 C   0  0  0  0  0  1  0  0  0  0  0  0
  183.8630  178.2460  142.4870 C   0  0  0  0  0  2  0  0  0  0  0  0
  183.2760  179.1900  141.5340 N   0  0  0  0  0  0  0  0  0  0  0  0
  182.1320  178.5120  140.9370 C   0  0  1  0  0  3  0  0  0  0  0  0
  180.9830  178.4620  141.9250 C   0  0  0  0  0  2  0  0  0  0  0  0
  180.9730  179.4850  140.8130 C   0  0  2  0  0  3  0  0  0  0  0  0
  180.1240  179.0530  139.7960 O   0  0  0  0  0  1  0  0  0  0  0  0
  184.1760  179.3770  140.5350 O   0  0  0  0  0  0  0  0  0  0  0  0
  184.3090  178.1220  139.9290 C   0  0  0  0  0  2  0  0  0  0  0  0
  185.3840  178.7010  137.8940 F   0  0  0  0  0  0  0  0  0  0  0  0
  184.1850  178.2630  138.4250 C   0  0  0  0  0  2  0  0  0  0  0  0
  188.9300  177.8640  144.8850 C   0  0  0  0  0  2  0  0  0  0  0  0
  188.8840  177.0510  146.1670 C   0  0  0  0  0  2  0  0  0  0  0  0
  189.9510  177.5170  147.1380 C   0  0  1  0  0  3  0  0  0  0  0  0
  189.3150  177.8810  148.4680 C   0  0  0  0  0  1  0  0  0  0  0  0
  192.0530  176.8650  148.0630 O   0  0  0  0  0  1  0  0  0  0  0  0
  190.9560  176.3980  147.3390 C   0  0  0  0  0  2  0  0  0  0  0  0
  1 12  1  6  0  0  0
  1 27  1  0  0  0  0
  2  1  1  1  0  0  0
  3  2  1  0  0  0  0
  4  6  1  0  0  0  0
  4  9  2  0  0  0  0
  5  2  1  0  0  0  0
  6  7  1  0  0  0  0
  7  8  1  6  0  0  0
  8  3  1  0  0  0  0
  9 11  1  0  0  0  0
 10  4  1  0  0  0  0
 11  7  1  0  0  0  0
 11  5  1  1  0  0  0
 12 13  1  0  0  0  0
 13 14  1  1  0  0  0
 15 13  1  0  0  0  0
 15 16  1  1  0  0  0
 17 15  1  0  0  0  0
 18 17  1  0  0  0  0
 19 18  1  1  0  0  0
 19 20  1  0  0  0  0
 21 22  1  6  0  0  0
 21 19  1  0  0  0  0
 21 20  1  0  0  0  0
 23 18  1  0  0  0  0
 24 23  1  0  0  0  0
 25 26  1  0  0  0  0
 26 24  1  0  0  0  0
 27 28  1  0  0  0  0
 28 29  1  0  0  0  0
 29 32  1  0  0  0  0
 29 30  1  1  0  0  0
 32 31  1  0  0  0  0
M  END
>  <MODEL>
8

>  <REMARK>
 VINA RESULT:      -6.9      2.819      6.545
  Name = 
  14 active torsions:
  status: ('A' for Active; 'I' for Inactive)
    1  A    between atoms: C_1  and  C_4
    2  A    between atoms: C_1  and  C_5
    3  A    between atoms: C_2  and  C_5
    4  A    between atoms: C_3  and  N_20
    5  A    between atoms: C_4  and  C_24
    6  A    between atoms: C_5  and  C_14
    7  A    between atoms: C_13  and  C_29
    8  A    between atoms: C_13  and  C_30
    9  A    between atoms: C_14  and  C_30
   10  A    between atoms: O_15  and  N_20
   11  A    between atoms: O_15  and  C_26
   12  A    between atoms: C_16  and  N_20
   13  A    between atoms: C_16  and  C_24
   14  A    between atoms: C_19  and  C_26
                            x       y       z     vdW  Elec       q    Type
                         _______ _______ _______ _____ _____    ______ ____

>  <TORSDO>
F 14

$$$$
=
 OpenBabel10262421193D

 32 34  0  0  1  0  0  0  0  0999 V2000
  188.0910  178.5090  141.1740 C   0  0  2  0  0  3  0  0  0  0  0  0
  188.8350  178.3830  139.8440 C   0  0  2  0  0  3  0  0  0  0  0  0
  187.8410  178.1050  138.6770 C   0  0  0  0  0  2  0  0  0  0  0  0
  191.5960  176.0010  137.1000 C   0  0  0  0  0  0  0  0  0  0  0  0
  190.0200  177.3830  139.9090 C   0  0  0  0  0  2  0  0  0  0  0  0
  190.3500  176.2660  136.5410 O   0  0  0  0  0  0  0  0  0  0  0  0
  189.5610  176.7460  137.6060 C   0  0  2  0  0  3  0  0  0  0  0  0
  188.5390  177.8220  137.3290 C   0  0  0  0  0  2  0  0  0  0  0  0
  191.7640  176.5000  138.2850 N   0  0  0  0  0  0  0  0  0  0  0  0
  192.6310  175.1750  136.4250 C   0  0  0  0  0  1  0  0  0  0  0  0
  190.5970  177.3290  138.5160 C   0  0  2  0  0  3  0  0  0  0  0  0
  188.6730  177.5300  142.1900 C   0  0  0  0  0  2  0  0  0  0  0  0
  188.2350  177.8450  143.6150 C   0  0  1  0  0  3  0  0  0  0  0  0
  187.4280  176.6580  144.1150 C   0  0  0  0  0  1  0  0  0  0  0  0
  189.4560  178.1120  144.5130 C   0  0  2  0  0  3  0  0  0  0  0  0
  190.6120  178.7630  143.7630 C   0  0  0  0  0  1  0  0  0  0  0  0
  189.9460  176.8620  145.2570 C   0  0  0  0  0  2  0  0  0  0  0  0
  190.0470  177.0620  146.7040 N   0  0  0  0  0  0  0  0  0  0  0  0
  190.8710  175.9730  147.2120 C   0  0  1  0  0  3  0  0  0  0  0  0
  192.1030  175.8040  146.3460 C   0  0  0  0  0  2  0  0  0  0  0  0
  192.2110  176.5210  147.6720 C   0  0  2  0  0  3  0  0  0  0  0  0
  192.7530  175.6560  148.6200 O   0  0  0  0  0  1  0  0  0  0  0  0
  188.8080  176.8840  147.2290 O   0  0  0  0  0  0  0  0  0  0  0  0
  188.6600  177.9150  148.1640 C   0  0  0  0  0  2  0  0  0  0  0  0
  186.8940  178.5610  146.7150 F   0  0  0  0  0  0  0  0  0  0  0  0
  187.2750  178.5200  148.0440 C   0  0  0  0  0  2  0  0  0  0  0  0
  186.5880  178.3010  140.9960 C   0  0  0  0  0  2  0  0  0  0  0  0
  185.8190  179.3040  141.8370 C   0  0  0  0  0  2  0  0  0  0  0  0
  184.6870  178.6240  142.5830 C   0  0  1  0  0  3  0  0  0  0  0  0
  184.3630  179.4010  143.8470 C   0  0  0  0  0  1  0  0  0  0  0  0
  182.3070  178.7550  142.4410 O   0  0  0  0  0  1  0  0  0  0  0  0
  183.4650  178.5760  141.6840 C   0  0  0  0  0  2  0  0  0  0  0  0
  1 27  1  6  0  0  0
  1 12  1  0  0  0  0
  2  5  1  0  0  0  0
  2  1  1  1  0  0  0
  3  2  1  0  0  0  0
  4  9  2  0  0  0  0
  6  4  1  0  0  0  0
  6  7  1  0  0  0  0
  7  8  1  6  0  0  0
  7 11  1  0  0  0  0
  8  3  1  0  0  0  0
  9 11  1  0  0  0  0
 10  4  1  0  0  0  0
 11  5  1  1  0  0  0
 12 13  1  0  0  0  0
 13 14  1  1  0  0  0
 13 15  1  0  0  0  0
 15 16  1  6  0  0  0
 15 17  1  0  0  0  0
 17 18  1  0  0  0  0
 18 23  1  0  0  0  0
 19 18  1  6  0  0  0
 19 21  1  0  0  0  0
 20 19  1  0  0  0  0
 20 21  1  0  0  0  0
 21 22  1  1  0  0  0
 23 24  1  0  0  0  0
 25 26  1  0  0  0  0
 26 24  1  0  0  0  0
 27 28  1  0  0  0  0
 28 29  1  0  0  0  0
 29 30  1  1  0  0  0
 32 31  1  0  0  0  0
 32 29  1  0  0  0  0
M  END
>  <MODEL>
9

>  <REMARK>
 VINA RESULT:      -6.8      3.064      8.781
  Name = 
  14 active torsions:
  status: ('A' for Active; 'I' for Inactive)
    1  A    between atoms: C_1  and  C_4
    2  A    between atoms: C_1  and  C_5
    3  A    between atoms: C_2  and  C_5
    4  A    between atoms: C_3  and  N_20
    5  A    between atoms: C_4  and  C_24
    6  A    between atoms: C_5  and  C_14
    7  A    between atoms: C_13  and  C_29
    8  A    between atoms: C_13  and  C_30
    9  A    between atoms: C_14  and  C_30
   10  A    between atoms: O_15  and  N_20
   11  A    between atoms: O_15  and  C_26
   12  A    between atoms: C_16  and  N_20
   13  A    between atoms: C_16  and  C_24
   14  A    between atoms: C_19  and  C_26
                            x       y       z     vdW  Elec       q    Type
                         _______ _______ _______ _____ _____    ______ ____

>  <TORSDO>
F 14

$$$$
