=
 OpenBabel10262419193D

 31 36  0  0  1  0  0  0  0  0999 V2000
  190.2310  177.2060  146.7220 C   0  0  0  0  0  0  0  0  0  0  0  0
  188.1910  177.6190  143.5680 N   0  0  0  0  0  0  0  0  0  0  0  0
  186.8620  178.0260  144.0060 C   0  0  0  0  0  0  0  0  0  0  0  0
  185.1190  177.7770  145.8600 C   0  0  0  0  0  3  0  0  0  0  0  0
  189.2790  177.3020  144.4780 C   0  0  0  0  0  0  0  0  0  0  0  0
  191.4430  176.7580  146.1970 C   0  0  0  0  0  3  0  0  0  0  0  0
  186.4030  177.5740  145.1800 C   0  0  0  0  0  3  0  0  0  0  0  0
  189.6440  176.7800  141.6350 C   0  0  1  0  0  3  0  0  0  0  0  0
  190.0940  177.3790  148.0570 F   0  0  0  0  0  0  0  0  0  0  0  0
  186.4130  178.8430  141.7650 C   0  0  0  0  0  3  0  0  0  0  0  0
  184.1340  178.6120  145.5520 C   0  0  0  0  0  3  0  0  0  0  0  0
  190.7060  176.7340  142.5860 O   0  0  0  0  0  0  0  0  0  0  0  0
  188.4650  177.5790  142.1490 C   0  0  0  0  0  0  0  0  0  0  0  0
  189.1620  177.4850  145.8680 C   0  0  0  0  0  3  0  0  0  0  0  0
  184.0580  179.5440  144.4290 C   0  0  0  0  0  3  0  0  0  0  0  0
  190.5150  176.8660  143.9610 C   0  0  0  0  0  0  0  0  0  0  0  0
  191.5860  176.5930  144.8180 C   0  0  0  0  0  3  0  0  0  0  0  0
  187.6100  178.1420  141.2900 C   0  0  0  0  0  3  0  0  0  0  0  0
  186.0290  178.7990  143.0410 C   0  0  0  0  0  0  0  0  0  0  0  0
  184.8520  179.6120  143.3680 C   0  0  0  0  0  3  0  0  0  0  0  0
  190.7370  176.2090  139.5130 N   0  0  0  0  0  2  0  0  0  0  0  0
  189.4100  176.7590  139.2120 C   0  0  1  0  0  3  0  0  0  0  0  0
  190.1870  177.3120  140.3130 C   0  0  1  0  0  3  0  0  0  0  0  0
  189.5020  177.6910  138.0170 C   0  0  0  0  0  2  0  0  0  0  0  0
  187.8750  176.0930  134.7880 C   0  0  2  0  0  3  0  0  0  0  0  0
  186.5000  178.1530  137.5730 C   0  0  0  0  0  1  0  0  0  0  0  0
  187.4330  174.7200  134.6340 N   0  0  0  0  0  1  0  0  0  0  0  0
  189.4810  176.1230  135.6710 S   0  0  0  0  0  0  0  0  0  0  0  0
  187.3710  177.3690  136.6530 C   0  0  0  0  0  0  0  0  0  0  0  0
  188.7490  177.1460  136.8980 N   0  0  0  0  0  0  0  0  0  0  0  0
  186.8990  176.8330  135.5810 N   0  0  0  0  0  0  0  0  0  0  0  0
  1  9  1  0  0  0  0
  2  3  1  0  0  0  0
  2  5  1  0  0  0  0
  3  7  2  0  0  0  0
  5 14  1  0  0  0  0
  6  1  1  0  0  0  0
  7  4  1  0  0  0  0
  8 13  1  1  0  0  0
  8 12  1  0  0  0  0
 10 19  2  0  0  0  0
 11  4  2  0  0  0  0
 12 16  1  0  0  0  0
 13  2  1  0  0  0  0
 14  1  2  0  0  0  0
 15 11  1  0  0  0  0
 16  5  2  0  0  0  0
 16 17  1  0  0  0  0
 17  6  2  0  0  0  0
 18 10  1  0  0  0  0
 18 13  2  0  0  0  0
 19 20  1  0  0  0  0
 19  3  1  0  0  0  0
 20 15  2  0  0  0  0
 22 24  1  6  0  0  0
 22 21  1  0  0  0  0
 22 23  1  0  0  0  0
 23 21  1  6  0  0  0
 23  8  1  0  0  0  0
 25 27  1  1  0  0  0
 25 31  1  0  0  0  0
 25 28  1  0  0  0  0
 28 30  1  0  0  0  0
 29 30  1  0  0  0  0
 29 26  1  0  0  0  0
 30 24  1  0  0  0  0
 31 29  2  0  0  0  0
M  END
>  <MODEL>
1

>  <REMARK>
 VINA RESULT:      -9.9      0.000      0.000
  Name = 
  3 active torsions:
  status: ('A' for Active; 'I' for Inactive)
    1  A    between atoms: C_3  and  C_9
    2  A    between atoms: C_3  and  N_22
    3  A    between atoms: C_15  and  C_23
                            x       y       z     vdW  Elec       q    Type
                         _______ _______ _______ _____ _____    ______ ____

>  <TORSDO>
F 3

$$$$
=
 OpenBabel10262419193D

 31 36  0  0  1  0  0  0  0  0999 V2000
  190.1670  177.8830  140.8190 C   0  0  0  0  0  0  0  0  0  0  0  0
  188.4310  177.4590  144.1470 N   0  0  0  0  0  0  0  0  0  0  0  0
  189.4690  177.0610  145.0890 C   0  0  0  0  0  0  0  0  0  0  0  0
  191.6530  175.7560  145.3430 C   0  0  0  0  0  3  0  0  0  0  0  0
  188.6650  177.6760  142.7300 C   0  0  0  0  0  0  0  0  0  0  0  0
  189.0860  178.1920  139.9930 C   0  0  0  0  0  3  0  0  0  0  0  0
  190.4960  176.3250  144.6440 C   0  0  0  0  0  3  0  0  0  0  0  0
  185.9210  177.7000  143.7050 C   0  0  1  0  0  3  0  0  0  0  0  0
  191.4180  177.8290  140.3050 F   0  0  0  0  0  0  0  0  0  0  0  0
  188.0180  177.7290  146.9170 C   0  0  0  0  0  3  0  0  0  0  0  0
  192.0680  175.9730  146.5850 C   0  0  0  0  0  3  0  0  0  0  0  0
  186.2940  178.1290  142.3980 O   0  0  0  0  0  0  0  0  0  0  0  0
  187.0990  177.7050  144.6560 C   0  0  0  0  0  0  0  0  0  0  0  0
  189.9580  177.6370  142.1770 C   0  0  0  0  0  3  0  0  0  0  0  0
  191.4610  176.8280  147.6040 C   0  0  0  0  0  3  0  0  0  0  0  0
  187.5860  178.0090  141.8870 C   0  0  0  0  0  0  0  0  0  0  0  0
  187.7990  178.2600  140.5280 C   0  0  0  0  0  3  0  0  0  0  0  0
  186.8990  177.8130  145.9730 C   0  0  0  0  0  3  0  0  0  0  0  0
  189.2430  177.3690  146.5300 C   0  0  0  0  0  0  0  0  0  0  0  0
  190.2660  177.4050  147.5810 C   0  0  0  0  0  3  0  0  0  0  0  0
  184.8340  179.8980  143.5880 N   0  0  0  0  0  2  0  0  0  0  0  0
  183.8940  178.8930  143.0750 C   0  0  1  0  0  3  0  0  0  0  0  0
  184.7620  178.5620  144.1970 C   0  0  1  0  0  3  0  0  0  0  0  0
  182.4980  179.1880  143.5930 C   0  0  0  0  0  2  0  0  0  0  0  0
  180.1040  178.0020  140.6790 C   0  0  2  0  0  3  0  0  0  0  0  0
  179.5850  178.5600  144.3270 C   0  0  0  0  0  1  0  0  0  0  0  0
  179.9980  176.6580  140.1430 N   0  0  0  0  0  1  0  0  0  0  0  0
  181.8700  178.4110  140.9540 S   0  0  0  0  0  0  0  0  0  0  0  0
  180.1440  178.4440  142.9510 C   0  0  0  0  0  0  0  0  0  0  0  0
  181.5020  178.7120  142.6450 N   0  0  0  0  0  0  0  0  0  0  0  0
  179.4100  178.0720  141.9600 N   0  0  0  0  0  0  0  0  0  0  0  0
  1 14  1  0  0  0  0
  2 13  1  0  0  0  0
  2  3  1  0  0  0  0
  3 19  1  0  0  0  0
  4 11  2  0  0  0  0
  5  2  1  0  0  0  0
  6 17  1  0  0  0  0
  6  1  2  0  0  0  0
  7  3  2  0  0  0  0
  7  4  1  0  0  0  0
  8 12  1  6  0  0  0
  8 23  1  0  0  0  0
  8 13  1  0  0  0  0
  9  1  1  0  0  0  0
 11 15  1  0  0  0  0
 13 18  2  0  0  0  0
 14  5  2  0  0  0  0
 16 12  1  0  0  0  0
 16  5  1  0  0  0  0
 17 16  2  0  0  0  0
 18 10  1  0  0  0  0
 19 10  2  0  0  0  0
 19 20  1  0  0  0  0
 20 15  2  0  0  0  0
 22 21  1  0  0  0  0
 22 24  1  1  0  0  0
 22 23  1  0  0  0  0
 23 21  1  6  0  0  0
 25 27  1  1  0  0  0
 25 28  1  0  0  0  0
 25 31  1  0  0  0  0
 28 30  1  0  0  0  0
 29 26  1  0  0  0  0
 30 29  1  0  0  0  0
 30 24  1  0  0  0  0
 31 29  2  0  0  0  0
M  END
>  <MODEL>
2

>  <REMARK>
 VINA RESULT:      -9.9      4.016      6.963
  Name = 
  3 active torsions:
  status: ('A' for Active; 'I' for Inactive)
    1  A    between atoms: C_3  and  C_9
    2  A    between atoms: C_3  and  N_22
    3  A    between atoms: C_15  and  C_23
                            x       y       z     vdW  Elec       q    Type
                         _______ _______ _______ _____ _____    ______ ____

>  <TORSDO>
F 3

$$$$
=
 OpenBabel10262419193D

 31 36  0  0  1  0  0  0  0  0999 V2000
  190.8640  177.5500  142.2910 C   0  0  0  0  0  0  0  0  0  0  0  0
  187.3550  178.0010  143.6180 N   0  0  0  0  0  0  0  0  0  0  0  0
  187.4620  177.8920  145.0670 C   0  0  0  0  0  0  0  0  0  0  0  0
  188.7190  176.7490  146.9770 C   0  0  0  0  0  3  0  0  0  0  0  0
  188.4770  177.8350  142.7100 C   0  0  0  0  0  0  0  0  0  0  0  0
  190.6360  177.6050  140.9160 C   0  0  0  0  0  3  0  0  0  0  0  0
  188.3960  177.0850  145.5860 C   0  0  0  0  0  3  0  0  0  0  0  0
  185.8010  178.0630  141.5850 C   0  0  1  0  0  3  0  0  0  0  0  0
  192.1220  177.3860  142.7640 F   0  0  0  0  0  0  0  0  0  0  0  0
  185.3100  178.9970  145.2730 C   0  0  0  0  0  3  0  0  0  0  0  0
  188.2660  177.2990  148.0960 C   0  0  0  0  0  3  0  0  0  0  0  0
  186.9900  178.1330  140.8030 O   0  0  0  0  0  0  0  0  0  0  0  0
  186.0720  178.3470  143.0470 C   0  0  0  0  0  0  0  0  0  0  0  0
  189.7940  177.6740  143.1800 C   0  0  0  0  0  3  0  0  0  0  0  0
  187.2970  178.3840  148.2410 C   0  0  0  0  0  3  0  0  0  0  0  0
  188.2660  177.9060  141.3190 C   0  0  0  0  0  0  0  0  0  0  0  0
  189.3400  177.7870  140.4310 C   0  0  0  0  0  3  0  0  0  0  0  0
  185.0930  178.8010  143.8360 C   0  0  0  0  0  3  0  0  0  0  0  0
  186.4160  178.5710  145.8850 C   0  0  0  0  0  0  0  0  0  0  0  0
  186.5120  178.9090  147.3090 C   0  0  0  0  0  3  0  0  0  0  0  0
  184.6320  178.7570  139.5410 N   0  0  0  0  0  2  0  0  0  0  0  0
  183.6370  178.2210  140.4780 C   0  0  1  0  0  3  0  0  0  0  0  0
  184.7590  179.0020  140.9850 C   0  0  1  0  0  3  0  0  0  0  0  0
  182.3930  179.0910  140.4550 C   0  0  0  0  0  2  0  0  0  0  0  0
  179.1760  176.8540  140.9850 C   0  0  2  0  0  3  0  0  0  0  0  0
  181.0830  179.1380  143.2300 C   0  0  0  0  0  1  0  0  0  0  0  0
  179.1520  175.4330  141.2720 N   0  0  0  0  0  1  0  0  0  0  0  0
  180.4400  177.1970  139.7030 S   0  0  0  0  0  0  0  0  0  0  0  0
  180.5830  178.3290  142.0830 C   0  0  0  0  0  0  0  0  0  0  0  0
  181.2250  178.3020  140.8210 N   0  0  0  0  0  0  0  0  0  0  0  0
  179.5350  177.5900  142.1940 N   0  0  0  0  0  0  0  0  0  0  0  0
  1  9  1  0  0  0  0
  1 14  1  0  0  0  0
  2  3  1  0  0  0  0
  3  7  2  0  0  0  0
  3 19  1  0  0  0  0
  4 11  2  0  0  0  0
  5 14  2  0  0  0  0
  5  2  1  0  0  0  0
  6  1  2  0  0  0  0
  7  4  1  0  0  0  0
  8 12  1  6  0  0  0
  8 13  1  0  0  0  0
 10 19  2  0  0  0  0
 11 15  1  0  0  0  0
 12 16  1  0  0  0  0
 13  2  1  0  0  0  0
 13 18  2  0  0  0  0
 16  5  1  0  0  0  0
 17  6  1  0  0  0  0
 17 16  2  0  0  0  0
 18 10  1  0  0  0  0
 19 20  1  0  0  0  0
 20 15  2  0  0  0  0
 21 22  1  0  0  0  0
 22 24  1  6  0  0  0
 22 23  1  0  0  0  0
 23 21  1  6  0  0  0
 23  8  1  0  0  0  0
 24 30  1  0  0  0  0
 25 27  1  1  0  0  0
 25 31  1  0  0  0  0
 28 30  1  0  0  0  0
 28 25  1  0  0  0  0
 29 31  2  0  0  0  0
 29 26  1  0  0  0  0
 30 29  1  0  0  0  0
M  END
>  <MODEL>
3

>  <REMARK>
 VINA RESULT:      -9.7      4.166      5.989
  Name = 
  3 active torsions:
  status: ('A' for Active; 'I' for Inactive)
    1  A    between atoms: C_3  and  C_9
    2  A    between atoms: C_3  and  N_22
    3  A    between atoms: C_15  and  C_23
                            x       y       z     vdW  Elec       q    Type
                         _______ _______ _______ _____ _____    ______ ____

>  <TORSDO>
F 3

$$$$
=
 OpenBabel10262419193D

 31 36  0  0  1  0  0  0  0  0999 V2000
  190.3260  177.2110  146.7460 C   0  0  0  0  0  0  0  0  0  0  0  0
  188.1600  177.6060  143.6750 N   0  0  0  0  0  0  0  0  0  0  0  0
  186.8510  178.0210  144.1640 C   0  0  0  0  0  0  0  0  0  0  0  0
  185.1850  177.7920  146.0890 C   0  0  0  0  0  3  0  0  0  0  0  0
  189.2830  177.2920  144.5420 C   0  0  0  0  0  0  0  0  0  0  0  0
  191.5140  176.7540  146.1750 C   0  0  0  0  0  3  0  0  0  0  0  0
  186.4390  177.5790  145.3590 C   0  0  0  0  0  3  0  0  0  0  0  0
  189.5300  176.7470  141.6910 C   0  0  1  0  0  3  0  0  0  0  0  0
  190.2440  177.3950  148.0840 F   0  0  0  0  0  0  0  0  0  0  0  0
  186.3130  178.8220  141.9360 C   0  0  0  0  0  3  0  0  0  0  0  0
  184.1910  178.6280  145.8160 C   0  0  0  0  0  3  0  0  0  0  0  0
  190.6300  176.7050  142.5970 O   0  0  0  0  0  0  0  0  0  0  0  0
  188.3760  177.5530  142.2460 C   0  0  0  0  0  0  0  0  0  0  0  0
  189.2240  177.4860  145.9340 C   0  0  0  0  0  3  0  0  0  0  0  0
  184.0720  179.5520  144.6890 C   0  0  0  0  0  3  0  0  0  0  0  0
  190.4960  176.8480  143.9780 C   0  0  0  0  0  0  0  0  0  0  0  0
  191.6000  176.5780  144.7930 C   0  0  0  0  0  3  0  0  0  0  0  0
  187.4870  178.1130  141.4180 C   0  0  0  0  0  3  0  0  0  0  0  0
  185.9820  178.7900  143.2280 C   0  0  0  0  0  0  0  0  0  0  0  0
  184.8220  179.6090  143.5960 C   0  0  0  0  0  3  0  0  0  0  0  0
  191.4700  177.5030  140.3900 N   0  0  0  0  0  2  0  0  0  0  0  0
  190.9310  176.2970  139.7500 C   0  0  1  0  0  3  0  0  0  0  0  0
  190.0200  177.2670  140.3440 C   0  0  1  0  0  3  0  0  0  0  0  0
  190.9360  176.4730  138.2430 C   0  0  0  0  0  2  0  0  0  0  0  0
  193.6460  174.1040  136.6070 C   0  0  2  0  0  3  0  0  0  0  0  0
  189.9400  173.8830  136.9300 C   0  0  0  0  0  1  0  0  0  0  0  0
  194.4790  173.1390  137.3000 N   0  0  0  0  0  1  0  0  0  0  0  0
  193.5550  175.6490  137.5900 S   0  0  0  0  0  0  0  0  0  0  0  0
  191.3700  174.2950  136.9870 C   0  0  0  0  0  0  0  0  0  0  0  0
  191.8060  175.4820  137.6260 N   0  0  0  0  0  0  0  0  0  0  0  0
  192.2960  173.5700  136.4640 N   0  0  0  0  0  0  0  0  0  0  0  0
  1  9  1  0  0  0  0
  2  3  1  0  0  0  0
  2  5  1  0  0  0  0
  3  7  2  0  0  0  0
  5 14  1  0  0  0  0
  6  1  1  0  0  0  0
  7  4  1  0  0  0  0
  8 13  1  1  0  0  0
  8 12  1  0  0  0  0
 10 19  2  0  0  0  0
 11  4  2  0  0  0  0
 12 16  1  0  0  0  0
 13  2  1  0  0  0  0
 14  1  2  0  0  0  0
 15 11  1  0  0  0  0
 16  5  2  0  0  0  0
 16 17  1  0  0  0  0
 17  6  2  0  0  0  0
 18 10  1  0  0  0  0
 18 13  2  0  0  0  0
 19 20  1  0  0  0  0
 19  3  1  0  0  0  0
 20 15  2  0  0  0  0
 22 24  1  6  0  0  0
 22 23  1  0  0  0  0
 22 21  1  0  0  0  0
 23 21  1  1  0  0  0
 23  8  1  0  0  0  0
 25 27  1  1  0  0  0
 25 28  1  0  0  0  0
 26 29  1  0  0  0  0
 28 30  1  0  0  0  0
 29 30  1  0  0  0  0
 30 24  1  0  0  0  0
 31 25  1  0  0  0  0
 31 29  2  0  0  0  0
M  END
>  <MODEL>
4

>  <REMARK>
 VINA RESULT:      -9.4      2.171      2.779
  Name = 
  3 active torsions:
  status: ('A' for Active; 'I' for Inactive)
    1  A    between atoms: C_3  and  C_9
    2  A    between atoms: C_3  and  N_22
    3  A    between atoms: C_15  and  C_23
                            x       y       z     vdW  Elec       q    Type
                         _______ _______ _______ _____ _____    ______ ____

>  <TORSDO>
F 3

$$$$
=
 OpenBabel10262419193D

 31 36  0  0  1  0  0  0  0  0999 V2000
  185.4870  178.1880  145.6900 C   0  0  0  0  0  0  0  0  0  0  0  0
  188.6190  177.6060  143.6590 N   0  0  0  0  0  0  0  0  0  0  0  0
  189.6420  177.1980  144.6140 C   0  0  0  0  0  0  0  0  0  0  0  0
  190.4850  177.4990  147.0090 C   0  0  0  0  0  3  0  0  0  0  0  0
  187.2670  177.9800  144.0340 C   0  0  0  0  0  0  0  0  0  0  0  0
  184.6080  178.6320  144.7000 C   0  0  0  0  0  3  0  0  0  0  0  0
  189.5970  177.6930  145.8580 C   0  0  0  0  0  3  0  0  0  0  0  0
  188.1070  178.3830  141.2740 C   0  0  1  0  0  3  0  0  0  0  0  0
  185.0620  178.0710  146.9690 F   0  0  0  0  0  0  0  0  0  0  0  0
  190.9380  176.2760  142.7800 C   0  0  0  0  0  3  0  0  0  0  0  0
  191.4830  176.6360  147.1580 C   0  0  0  0  0  3  0  0  0  0  0  0
  186.7530  178.4870  141.7060 O   0  0  0  0  0  0  0  0  0  0  0  0
  188.9480  177.5890  142.2510 C   0  0  0  0  0  0  0  0  0  0  0  0
  186.8010  177.8550  145.3560 C   0  0  0  0  0  3  0  0  0  0  0  0
  191.9790  175.6550  146.1950 C   0  0  0  0  0  3  0  0  0  0  0  0
  186.3620  178.4120  143.0430 C   0  0  0  0  0  0  0  0  0  0  0  0
  185.0450  178.7390  143.3790 C   0  0  0  0  0  3  0  0  0  0  0  0
  190.0610  176.9750  141.8350 C   0  0  0  0  0  3  0  0  0  0  0  0
  190.7690  176.3690  144.1000 C   0  0  0  0  0  0  0  0  0  0  0  0
  191.6850  175.5530  144.9050 C   0  0  0  0  0  3  0  0  0  0  0  0
  188.6240  178.8090  138.9130 N   0  0  0  0  0  2  0  0  0  0  0  0
  189.5100  177.7400  139.3900 C   0  0  1  0  0  3  0  0  0  0  0  0
  188.1330  177.8020  139.8640 C   0  0  1  0  0  3  0  0  0  0  0  0
  189.6250  176.6610  138.3300 C   0  0  0  0  0  2  0  0  0  0  0  0
  193.5060  176.5000  137.5910 C   0  0  2  0  0  3  0  0  0  0  0  0
  190.4920  175.7420  135.5320 C   0  0  0  0  0  1  0  0  0  0  0  0
  194.4080  175.4230  137.9520 N   0  0  0  0  0  1  0  0  0  0  0  0
  192.3650  176.8340  138.9860 S   0  0  0  0  0  0  0  0  0  0  0  0
  191.4390  176.1260  136.6170 C   0  0  0  0  0  0  0  0  0  0  0  0
  191.0120  176.5180  137.9100 N   0  0  0  0  0  0  0  0  0  0  0  0
  192.7130  176.1020  136.4320 N   0  0  0  0  0  0  0  0  0  0  0  0
  1  9  1  0  0  0  0
  2  5  1  0  0  0  0
  2  3  1  0  0  0  0
  3  7  2  0  0  0  0
  4 11  2  0  0  0  0
  5 14  2  0  0  0  0
  6  1  2  0  0  0  0
  7  4  1  0  0  0  0
  8 12  1  1  0  0  0
  8 13  1  0  0  0  0
 10 19  2  0  0  0  0
 12 16  1  0  0  0  0
 13  2  1  0  0  0  0
 14  1  1  0  0  0  0
 15 11  1  0  0  0  0
 16 17  2  0  0  0  0
 16  5  1  0  0  0  0
 17  6  1  0  0  0  0
 18 13  2  0  0  0  0
 18 10  1  0  0  0  0
 19  3  1  0  0  0  0
 19 20  1  0  0  0  0
 20 15  2  0  0  0  0
 21 22  1  0  0  0  0
 22 24  1  6  0  0  0
 22 23  1  0  0  0  0
 23 21  1  6  0  0  0
 23  8  1  0  0  0  0
 25 27  1  1  0  0  0
 25 28  1  0  0  0  0
 26 29  1  0  0  0  0
 29 30  1  0  0  0  0
 30 24  1  0  0  0  0
 30 28  1  0  0  0  0
 31 29  2  0  0  0  0
 31 25  1  0  0  0  0
M  END
>  <MODEL>
5

>  <REMARK>
 VINA RESULT:      -9.4      2.254      4.936
  Name = 
  3 active torsions:
  status: ('A' for Active; 'I' for Inactive)
    1  A    between atoms: C_3  and  C_9
    2  A    between atoms: C_3  and  N_22
    3  A    between atoms: C_15  and  C_23
                            x       y       z     vdW  Elec       q    Type
                         _______ _______ _______ _____ _____    ______ ____

>  <TORSDO>
F 3

$$$$
=
 OpenBabel10262419193D

 31 36  0  0  1  0  0  0  0  0999 V2000
  185.1370  178.3290  144.1330 C   0  0  0  0  0  0  0  0  0  0  0  0
  188.3650  177.7780  142.2490 N   0  0  0  0  0  0  0  0  0  0  0  0
  189.3560  177.4180  143.2560 C   0  0  0  0  0  0  0  0  0  0  0  0
  190.0900  177.7970  145.6750 C   0  0  0  0  0  3  0  0  0  0  0  0
  186.9890  178.1270  142.5580 C   0  0  0  0  0  0  0  0  0  0  0  0
  184.2900  178.7270  143.0980 C   0  0  0  0  0  3  0  0  0  0  0  0
  189.2470  177.9410  144.4840 C   0  0  0  0  0  3  0  0  0  0  0  0
  187.9350  178.4860  139.8270 C   0  0  1  0  0  3  0  0  0  0  0  0
  184.6620  178.2310  145.3960 F   0  0  0  0  0  0  0  0  0  0  0  0
  190.7500  176.4870  141.5000 C   0  0  0  0  0  3  0  0  0  0  0  0
  191.1010  176.9630  145.8870 C   0  0  0  0  0  3  0  0  0  0  0  0
  186.5620  178.5660  140.2000 O   0  0  0  0  0  0  0  0  0  0  0  0
  188.7540  177.7360  140.8570 C   0  0  0  0  0  0  0  0  0  0  0  0
  186.4720  178.0220  143.8620 C   0  0  0  0  0  3  0  0  0  0  0  0
  191.6610  175.9720  144.9700 C   0  0  0  0  0  3  0  0  0  0  0  0
  186.1170  178.5130  141.5210 C   0  0  0  0  0  0  0  0  0  0  0  0
  184.7790  178.8140  141.7930 C   0  0  0  0  0  3  0  0  0  0  0  0
  189.8970  177.1410  140.5020 C   0  0  0  0  0  3  0  0  0  0  0  0
  190.5240  176.6070  142.8090 C   0  0  0  0  0  0  0  0  0  0  0  0
  191.4240  175.8330  143.6720 C   0  0  0  0  0  3  0  0  0  0  0  0
  187.3100  178.7050  137.4630 N   0  0  0  0  0  2  0  0  0  0  0  0
  188.7740  178.7740  137.5590 C   0  0  1  0  0  3  0  0  0  0  0  0
  188.0350  177.8730  138.4340 C   0  0  1  0  0  3  0  0  0  0  0  0
  189.3970  177.9740  136.4290 C   0  0  0  0  0  2  0  0  0  0  0  0
  189.0050  174.1330  137.2820 C   0  0  2  0  0  3  0  0  0  0  0  0
  191.7990  176.5620  137.7150 C   0  0  0  0  0  1  0  0  0  0  0  0
  189.1640  173.0250  136.3590 N   0  0  0  0  0  1  0  0  0  0  0  0
  188.0730  175.4820  136.4610 S   0  0  0  0  0  0  0  0  0  0  0  0
  190.5080  175.8910  137.3960 C   0  0  0  0  0  0  0  0  0  0  0  0
  189.4250  176.5600  136.7740 N   0  0  0  0  0  0  0  0  0  0  0  0
  190.3190  174.6450  137.6590 N   0  0  0  0  0  0  0  0  0  0  0  0
  1  9  1  0  0  0  0
  2  5  1  0  0  0  0
  2  3  1  0  0  0  0
  3  7  2  0  0  0  0
  4 11  2  0  0  0  0
  5 14  2  0  0  0  0
  6  1  2  0  0  0  0
  7  4  1  0  0  0  0
  8 12  1  1  0  0  0
  8 13  1  0  0  0  0
 10 19  2  0  0  0  0
 12 16  1  0  0  0  0
 13  2  1  0  0  0  0
 14  1  1  0  0  0  0
 15 11  1  0  0  0  0
 16 17  2  0  0  0  0
 16  5  1  0  0  0  0
 17  6  1  0  0  0  0
 18 13  2  0  0  0  0
 18 10  1  0  0  0  0
 19  3  1  0  0  0  0
 19 20  1  0  0  0  0
 20 15  2  0  0  0  0
 21 22  1  0  0  0  0
 22 24  1  6  0  0  0
 22 23  1  0  0  0  0
 23 21  1  6  0  0  0
 23  8  1  0  0  0  0
 24 30  1  0  0  0  0
 25 27  1  6  0  0  0
 25 31  1  0  0  0  0
 28 30  1  0  0  0  0
 28 25  1  0  0  0  0
 29 31  2  0  0  0  0
 29 26  1  0  0  0  0
 30 29  1  0  0  0  0
M  END
>  <MODEL>
6

>  <REMARK>
 VINA RESULT:      -9.3      2.111      4.716
  Name = 
  3 active torsions:
  status: ('A' for Active; 'I' for Inactive)
    1  A    between atoms: C_3  and  C_9
    2  A    between atoms: C_3  and  N_22
    3  A    between atoms: C_15  and  C_23
                            x       y       z     vdW  Elec       q    Type
                         _______ _______ _______ _____ _____    ______ ____

>  <TORSDO>
F 3

$$$$
=
 OpenBabel10262419193D

 31 36  0  0  1  0  0  0  0  0999 V2000
  182.6100  178.7870  143.6550 C   0  0  0  0  0  0  0  0  0  0  0  0
  186.3410  178.2700  143.3500 N   0  0  0  0  0  0  0  0  0  0  0  0
  186.8390  178.1580  144.7150 C   0  0  0  0  0  0  0  0  0  0  0  0
  186.5050  178.9580  147.1200 C   0  0  0  0  0  3  0  0  0  0  0  0
  184.9510  178.5300  143.0160 C   0  0  0  0  0  0  0  0  0  0  0  0
  182.2550  178.9460  142.3150 C   0  0  0  0  0  3  0  0  0  0  0  0
  186.2220  178.8450  145.6850 C   0  0  0  0  0  3  0  0  0  0  0  0
  186.9260  178.5680  140.8750 C   0  0  1  0  0  3  0  0  0  0  0  0
  181.6610  178.8330  144.6180 F   0  0  0  0  0  0  0  0  0  0  0  0
  188.8550  177.1130  143.8560 C   0  0  0  0  0  3  0  0  0  0  0  0
  187.3600  178.2640  147.8600 C   0  0  0  0  0  3  0  0  0  0  0  0
  185.5190  178.5730  140.6470 O   0  0  0  0  0  0  0  0  0  0  0  0
  187.2680  178.0600  142.2600 C   0  0  0  0  0  0  0  0  0  0  0  0
  183.9460  178.5710  144.0000 C   0  0  0  0  0  3  0  0  0  0  0  0
  188.2730  177.2050  147.4310 C   0  0  0  0  0  3  0  0  0  0  0  0
  184.5730  178.6740  141.6660 C   0  0  0  0  0  0  0  0  0  0  0  0
  183.2340  178.8850  141.3230 C   0  0  0  0  0  3  0  0  0  0  0  0
  188.4710  177.5290  142.5030 C   0  0  0  0  0  3  0  0  0  0  0  0
  188.1080  177.4030  144.9220 C   0  0  0  0  0  0  0  0  0  0  0  0
  188.5930  176.8540  146.1930 C   0  0  0  0  0  3  0  0  0  0  0  0
  188.3190  178.6730  138.8570 N   0  0  0  0  0  2  0  0  0  0  0  0
  189.0500  177.9150  139.8800 C   0  0  1  0  0  3  0  0  0  0  0  0
  187.6050  177.7680  139.7690 C   0  0  1  0  0  3  0  0  0  0  0  0
  189.7250  176.7150  139.2410 C   0  0  0  0  0  2  0  0  0  0  0  0
  193.5910  177.4090  139.6970 C   0  0  2  0  0  3  0  0  0  0  0  0
  191.5580  176.1190  136.8520 C   0  0  0  0  0  1  0  0  0  0  0  0
  194.5540  176.5340  140.3360 N   0  0  0  0  0  1  0  0  0  0  0  0
  192.0440  177.4360  140.6800 S   0  0  0  0  0  0  0  0  0  0  0  0
  192.0350  176.6480  138.1600 C   0  0  0  0  0  0  0  0  0  0  0  0
  191.1700  176.8860  139.2570 N   0  0  0  0  0  0  0  0  0  0  0  0
  193.2800  176.9030  138.3640 N   0  0  0  0  0  0  0  0  0  0  0  0
  1 14  1  0  0  0  0
  1  9  1  0  0  0  0
  2  3  1  0  0  0  0
  3 19  1  0  0  0  0
  3  7  2  0  0  0  0
  4 11  2  0  0  0  0
  5  2  1  0  0  0  0
  5 14  2  0  0  0  0
  6  1  2  0  0  0  0
  7  4  1  0  0  0  0
  8 12  1  6  0  0  0
  8 13  1  0  0  0  0
 10 19  2  0  0  0  0
 12 16  1  0  0  0  0
 13 18  2  0  0  0  0
 13  2  1  0  0  0  0
 15 11  1  0  0  0  0
 16  5  1  0  0  0  0
 17 16  2  0  0  0  0
 17  6  1  0  0  0  0
 18 10  1  0  0  0  0
 19 20  1  0  0  0  0
 20 15  2  0  0  0  0
 21 22  1  0  0  0  0
 22 24  1  6  0  0  0
 23 21  1  6  0  0  0
 23 22  1  0  0  0  0
 23  8  1  0  0  0  0
 24 30  1  0  0  0  0
 25 27  1  1  0  0  0
 25 28  1  0  0  0  0
 26 29  1  0  0  0  0
 29 31  2  0  0  0  0
 29 30  1  0  0  0  0
 30 28  1  0  0  0  0
 31 25  1  0  0  0  0
M  END
>  <MODEL>
7

>  <REMARK>
 VINA RESULT:      -9.2      3.063      5.457
  Name = 
  3 active torsions:
  status: ('A' for Active; 'I' for Inactive)
    1  A    between atoms: C_3  and  C_9
    2  A    between atoms: C_3  and  N_22
    3  A    between atoms: C_15  and  C_23
                            x       y       z     vdW  Elec       q    Type
                         _______ _______ _______ _____ _____    ______ ____

>  <TORSDO>
F 3

$$$$
=
 OpenBabel10262419193D

 31 36  0  0  1  0  0  0  0  0999 V2000
  185.2020  178.2560  146.3300 C   0  0  0  0  0  0  0  0  0  0  0  0
  187.2700  178.0060  143.1770 N   0  0  0  0  0  0  0  0  0  0  0  0
  188.5920  177.5660  143.6040 C   0  0  0  0  0  0  0  0  0  0  0  0
  190.3180  177.6980  145.4850 C   0  0  0  0  0  3  0  0  0  0  0  0
  186.1750  178.2800  144.0920 C   0  0  0  0  0  0  0  0  0  0  0  0
  183.9970  178.7410  145.8190 C   0  0  0  0  0  3  0  0  0  0  0  0
  189.0420  177.9480  144.8060 C   0  0  0  0  0  3  0  0  0  0  0  0
  185.8410  178.9620  141.2800 C   0  0  1  0  0  3  0  0  0  0  0  0
  185.3240  178.0080  147.6540 F   0  0  0  0  0  0  0  0  0  0  0  0
  189.0580  176.8720  141.3250 C   0  0  0  0  0  3  0  0  0  0  0  0
  191.3000  176.8750  145.1410 C   0  0  0  0  0  3  0  0  0  0  0  0
  184.7710  178.9620  142.2220 O   0  0  0  0  0  0  0  0  0  0  0  0
  187.0100  178.1270  141.7600 C   0  0  0  0  0  0  0  0  0  0  0  0
  186.2770  178.0180  145.4710 C   0  0  0  0  0  3  0  0  0  0  0  0
  191.3810  176.0060  143.9680 C   0  0  0  0  0  3  0  0  0  0  0  0
  184.9460  178.7520  143.5890 C   0  0  0  0  0  0  0  0  0  0  0  0
  183.8690  178.9840  144.4500 C   0  0  0  0  0  3  0  0  0  0  0  0
  187.8700  177.6070  140.8780 C   0  0  0  0  0  3  0  0  0  0  0  0
  189.4290  176.8410  142.6060 C   0  0  0  0  0  0  0  0  0  0  0  0
  190.5970  176.0030  142.8970 C   0  0  0  0  0  3  0  0  0  0  0  0
  184.9020  179.6730  139.1270 N   0  0  0  0  0  2  0  0  0  0  0  0
  186.1820  179.0020  138.8700 C   0  0  1  0  0  3  0  0  0  0  0  0
  185.3080  178.5080  139.9250 C   0  0  1  0  0  3  0  0  0  0  0  0
  186.0530  178.1050  137.6530 C   0  0  0  0  0  2  0  0  0  0  0  0
  189.7260  177.0220  136.6680 C   0  0  2  0  0  3  0  0  0  0  0  0
  186.5320  175.1370  137.0360 C   0  0  0  0  0  1  0  0  0  0  0  0
  190.8200  176.7530  137.5820 N   0  0  0  0  0  1  0  0  0  0  0  0
  188.8140  178.5100  137.2290 S   0  0  0  0  0  0  0  0  0  0  0  0
  187.5920  176.1820  136.9880 C   0  0  0  0  0  0  0  0  0  0  0  0
  187.3500  177.5410  137.3060 N   0  0  0  0  0  0  0  0  0  0  0  0
  188.8040  175.8910  136.6640 N   0  0  0  0  0  0  0  0  0  0  0  0
  1  9  1  0  0  0  0
  2  3  1  0  0  0  0
  2  5  1  0  0  0  0
  3  7  2  0  0  0  0
  5 14  1  0  0  0  0
  6  1  1  0  0  0  0
  7  4  1  0  0  0  0
  8 13  1  1  0  0  0
  8 12  1  0  0  0  0
 10 19  2  0  0  0  0
 11  4  2  0  0  0  0
 12 16  1  0  0  0  0
 13  2  1  0  0  0  0
 14  1  2  0  0  0  0
 15 11  1  0  0  0  0
 16  5  2  0  0  0  0
 16 17  1  0  0  0  0
 17  6  2  0  0  0  0
 18 10  1  0  0  0  0
 18 13  2  0  0  0  0
 19 20  1  0  0  0  0
 19  3  1  0  0  0  0
 20 15  2  0  0  0  0
 22 24  1  6  0  0  0
 22 21  1  0  0  0  0
 22 23  1  0  0  0  0
 23 21  1  6  0  0  0
 23  8  1  0  0  0  0
 25 28  1  0  0  0  0
 25 27  1  1  0  0  0
 28 30  1  0  0  0  0
 29 26  1  0  0  0  0
 29 30  1  0  0  0  0
 30 24  1  0  0  0  0
 31 25  1  0  0  0  0
 31 29  2  0  0  0  0
M  END
>  <MODEL>
8

>  <REMARK>
 VINA RESULT:      -9.2      2.090      4.695
  Name = 
  3 active torsions:
  status: ('A' for Active; 'I' for Inactive)
    1  A    between atoms: C_3  and  C_9
    2  A    between atoms: C_3  and  N_22
    3  A    between atoms: C_15  and  C_23
                            x       y       z     vdW  Elec       q    Type
                         _______ _______ _______ _____ _____    ______ ____

>  <TORSDO>
F 3

$$$$
=
 OpenBabel10262419193D

 31 36  0  0  1  0  0  0  0  0999 V2000
  189.7950  177.8590  141.2220 C   0  0  0  0  0  0  0  0  0  0  0  0
  186.3520  178.3050  142.7130 N   0  0  0  0  0  0  0  0  0  0  0  0
  186.5220  178.1650  144.1540 C   0  0  0  0  0  0  0  0  0  0  0  0
  187.8550  176.9730  145.9810 C   0  0  0  0  0  3  0  0  0  0  0  0
  187.4320  178.1500  141.7540 C   0  0  0  0  0  0  0  0  0  0  0  0
  189.5070  177.9440  139.8600 C   0  0  0  0  0  3  0  0  0  0  0  0
  187.4730  177.3410  144.6140 C   0  0  0  0  0  3  0  0  0  0  0  0
  184.7090  178.4200  140.7540 C   0  0  1  0  0  3  0  0  0  0  0  0
  191.0710  177.6770  141.6350 F   0  0  0  0  0  0  0  0  0  0  0  0
  184.3900  179.2790  144.4790 C   0  0  0  0  0  3  0  0  0  0  0  0
  187.4560  177.5020  147.1310 C   0  0  0  0  0  3  0  0  0  0  0  0
  185.8640  178.4990  139.9210 O   0  0  0  0  0  0  0  0  0  0  0  0
  185.0480  178.6720  142.2080 C   0  0  0  0  0  0  0  0  0  0  0  0
  188.7670  177.9710  142.1600 C   0  0  0  0  0  3  0  0  0  0  0  0
  186.5020  178.5900  147.3420 C   0  0  0  0  0  3  0  0  0  0  0  0
  187.1600  178.2530  140.3750 C   0  0  0  0  0  0  0  0  0  0  0  0
  188.1920  178.1450  139.4380 C   0  0  0  0  0  3  0  0  0  0  0  0
  184.1080  179.1150  143.0490 C   0  0  0  0  0  3  0  0  0  0  0  0
  185.5190  178.8330  145.0310 C   0  0  0  0  0  0  0  0  0  0  0  0
  185.6810  179.1400  146.4570 C   0  0  0  0  0  3  0  0  0  0  0  0
  184.1800  180.1340  139.0770 N   0  0  0  0  0  2  0  0  0  0  0  0
  183.2840  178.9910  138.8640 C   0  0  1  0  0  3  0  0  0  0  0  0
  183.6490  179.3780  140.2200 C   0  0  1  0  0  3  0  0  0  0  0  0
  181.8820  179.4910  138.5620 C   0  0  0  0  0  2  0  0  0  0  0  0
  179.4700  177.7080  141.1380 C   0  0  2  0  0  3  0  0  0  0  0  0
  179.8520  181.2510  140.0440 C   0  0  0  0  0  1  0  0  0  0  0  0
  179.7850  177.3500  142.5080 N   0  0  0  0  0  1  0  0  0  0  0  0
  180.8980  177.3110  140.0590 S   0  0  0  0  0  0  0  0  0  0  0  0
  179.9810  179.7800  140.2370 C   0  0  0  0  0  0  0  0  0  0  0  0
  180.9480  178.9950  139.5620 N   0  0  0  0  0  0  0  0  0  0  0  0
  179.2170  179.1430  141.0550 N   0  0  0  0  0  0  0  0  0  0  0  0
  1  9  1  0  0  0  0
  1 14  1  0  0  0  0
  2  3  1  0  0  0  0
  3  7  2  0  0  0  0
  3 19  1  0  0  0  0
  4 11  2  0  0  0  0
  5 14  2  0  0  0  0
  5  2  1  0  0  0  0
  6  1  2  0  0  0  0
  7  4  1  0  0  0  0
  8 12  1  6  0  0  0
  8 13  1  0  0  0  0
 10 19  2  0  0  0  0
 11 15  1  0  0  0  0
 12 16  1  0  0  0  0
 13  2  1  0  0  0  0
 13 18  2  0  0  0  0
 16  5  1  0  0  0  0
 17  6  1  0  0  0  0
 17 16  2  0  0  0  0
 18 10  1  0  0  0  0
 19 20  1  0  0  0  0
 20 15  2  0  0  0  0
 22 24  1  1  0  0  0
 22 21  1  0  0  0  0
 22 23  1  0  0  0  0
 23 21  1  6  0  0  0
 23  8  1  0  0  0  0
 24 30  1  0  0  0  0
 25 27  1  1  0  0  0
 26 29  1  0  0  0  0
 28 25  1  0  0  0  0
 29 31  2  0  0  0  0
 30 28  1  0  0  0  0
 30 29  1  0  0  0  0
 31 25  1  0  0  0  0
M  END
>  <MODEL>
9

>  <REMARK>
 VINA RESULT:      -9.1      4.430      6.270
  Name = 
  3 active torsions:
  status: ('A' for Active; 'I' for Inactive)
    1  A    between atoms: C_3  and  C_9
    2  A    between atoms: C_3  and  N_22
    3  A    between atoms: C_15  and  C_23
                            x       y       z     vdW  Elec       q    Type
                         _______ _______ _______ _____ _____    ______ ____

>  <TORSDO>
F 3

$$$$
