=
 OpenBabel10262423023D

 37 44  0  0  1  0  0  0  0  0999 V2000
  180.5930  177.0880  139.8960 C   0  0  1  0  0  3  0  0  0  0  0  0
  185.0130  175.0940  136.1580 C   0  0  0  0  0  2  0  0  0  0  0  0
  185.0900  178.3850  139.3760 C   0  0  2  0  0  3  0  0  0  0  0  0
  179.3860  177.9890  139.5850 C   0  0  1  0  0  3  0  0  0  0  0  0
  183.0240  178.2960  142.5920 C   0  0  0  0  0  2  0  0  0  0  0  0
  185.5100  177.4510  136.9780 C   0  0  1  0  0  3  0  0  0  0  0  0
  184.3560  177.7410  140.5340 C   0  0  1  0  0  3  0  0  0  0  0  0
  178.9380  175.7400  138.6640 C   0  0  0  0  0  1  0  0  0  0  0  0
  184.5140  177.6890  138.1320 C   0  0  1  0  0  3  0  0  0  0  0  0
  184.2760  178.6310  141.7790 C   0  0  2  0  0  3  0  0  0  0  0  0
  186.9270  177.1160  137.4240 C   0  0  0  0  0  2  0  0  0  0  0  0
  179.7440  179.2620  139.0790 O   0  0  0  0  0  0  0  0  0  0  0  0
  183.7080  176.5030  138.6510 C   0  0  2  0  0  3  0  0  0  0  0  0
  182.9320  174.7640  137.5200 C   0  0  0  0  0  2  0  0  0  0  0  0
  187.0600  179.1780  140.6490 C   0  0  0  0  0  2  0  0  0  0  0  0
  179.8490  176.9450  138.5850 C   0  0  2  0  0  3  0  0  0  0  0  0
  187.4100  178.2020  138.3700 C   0  0  0  0  0  2  0  0  0  0  0  0
  182.7140  176.1270  137.7420 O   0  0  0  0  0  0  0  0  0  0  0  0
  180.5140  179.9730  140.0320 C   0  0  2  0  0  3  0  0  0  0  0  0
  181.7790  178.9960  142.0550 C   0  0  0  0  0  2  0  0  0  0  0  0
  186.5780  178.1460  139.6400 C   0  0  2  0  0  3  0  0  0  0  0  0
  183.1350  177.0000  139.9800 C   0  0  2  0  0  3  0  0  0  0  0  0
  184.9990  176.5810  135.8280 C   0  0  0  0  0  2  0  0  0  0  0  0
  185.5570  178.4920  142.5920 C   0  0  0  0  0  0  0  0  0  0  0  0
  183.5960  174.5430  136.1670 C   0  0  0  0  0  2  0  0  0  0  0  0
  181.7690  179.2000  140.5300 C   0  0  1  0  0  3  0  0  0  0  0  0
  181.8850  177.8840  139.7410 C   0  0  2  0  0  3  0  0  0  0  0  0
  186.7770  178.7390  142.0620 C   0  0  0  0  0  3  0  0  0  0  0  0
  184.8710  179.0990  144.9390 C   0  0  0  0  0  2  0  0  0  0  0  0
  185.4890  178.0390  144.0280 C   0  0  2  0  0  3  0  0  0  0  0  0
  186.8300  177.5610  144.5260 C   0  0  0  0  0  3  0  0  0  0  0  0
  188.5380  177.1720  146.2220 C   0  0  0  0  0  1  0  0  0  0  0  0
  186.3520  178.4000  146.8280 C   0  0  0  0  0  2  0  0  0  0  0  0
  187.1910  177.6570  145.8150 C   0  0  0  0  0  0  0  0  0  0  0  0
  184.9040  178.5950  146.3750 C   0  0  0  0  0  2  0  0  0  0  0  0
  179.6330  180.6410  141.0890 C   0  0  0  0  0  2  0  0  0  0  0  0
  178.9310  181.8480  140.4970 C   0  0  0  0  0  1  0  0  0  0  0  0
  2 25  1  0  0  0  0
  3 21  1  0  0  0  0
  3  7  1  0  0  0  0
  4  1  1  0  0  0  0
  6 11  1  0  0  0  0
  6  9  1  0  0  0  0
  7 10  1  0  0  0  0
  9 13  1  0  0  0  0
  9  3  1  0  0  0  0
 10 24  1  0  0  0  0
 10  5  1  0  0  0  0
 11 17  1  0  0  0  0
 12  4  1  0  0  0  0
 12 19  1  0  0  0  0
 13 22  1  0  0  0  0
 14 18  1  0  0  0  0
 15 28  1  0  0  0  0
 16  8  1  0  0  0  0
 16  4  1  0  0  0  0
 16  1  1  0  0  0  0
 17 21  1  0  0  0  0
 18 13  1  0  0  0  0
 19 26  1  0  0  0  0
 19 36  1  0  0  0  0
 20  5  1  0  0  0  0
 21 15  1  0  0  0  0
 22  7  1  0  0  0  0
 23  2  1  0  0  0  0
 23  6  1  0  0  0  0
 24 30  1  0  0  0  0
 25 14  1  0  0  0  0
 26 20  1  0  0  0  0
 27  1  1  0  0  0  0
 27 22  1  0  0  0  0
 27 26  1  0  0  0  0
 28 24  2  0  0  0  0
 29 35  1  0  0  0  0
 30 31  1  0  0  0  0
 30 29  1  0  0  0  0
 31 34  2  0  0  0  0
 34 32  1  0  0  0  0
 34 33  1  0  0  0  0
 35 33  1  0  0  0  0
 37 36  1  0  0  0  0
M  END
>  <MODEL>
1

>  <REMARK>
 VINA RESULT:      -8.6      0.000      0.000
  Name = 
  2 active torsions:
  status: ('A' for Active; 'I' for Inactive)
    1  A    between atoms: C_6  and  C_31
    2  A    between atoms: C_11  and  C_26
                            x       y       z     vdW  Elec       q    Type
                         _______ _______ _______ _____ _____    ______ ____

>  <TORSDO>
F 2

$$$$
=
 OpenBabel10262423023D

 37 44  0  0  1  0  0  0  0  0999 V2000
  181.4130  177.7330  137.9300 C   0  0  1  0  0  3  0  0  0  0  0  0
  186.2910  174.9550  135.4840 C   0  0  0  0  0  2  0  0  0  0  0  0
  186.0360  178.3540  138.5790 C   0  0  2  0  0  3  0  0  0  0  0  0
  180.4740  178.7800  137.3070 C   0  0  1  0  0  3  0  0  0  0  0  0
  183.2300  178.7130  141.1510 C   0  0  0  0  0  2  0  0  0  0  0  0
  186.9090  177.2550  136.3800 C   0  0  1  0  0  3  0  0  0  0  0  0
  184.9440  177.8770  139.5130 C   0  0  1  0  0  3  0  0  0  0  0  0
  179.9440  176.5750  136.3250 C   0  0  0  0  0  1  0  0  0  0  0  0
  185.6990  177.6870  137.2350 C   0  0  1  0  0  3  0  0  0  0  0  0
  184.6830  178.8280  140.6860 C   0  0  2  0  0  3  0  0  0  0  0  0
  188.0990  176.7450  137.1820 C   0  0  0  0  0  2  0  0  0  0  0  0
  181.1350  179.9630  136.8990 O   0  0  0  0  0  0  0  0  0  0  0  0
  184.6190  176.6540  137.5400 C   0  0  2  0  0  3  0  0  0  0  0  0
  183.9070  174.9890  136.2640 C   0  0  0  0  0  2  0  0  0  0  0  0
  187.7120  178.9210  140.3100 C   0  0  0  0  0  2  0  0  0  0  0  0
  181.0150  177.6340  136.4720 C   0  0  2  0  0  3  0  0  0  0  0  0
  188.4810  177.7960  138.2100 C   0  0  0  0  0  2  0  0  0  0  0  0
  183.8450  176.3780  136.4080 O   0  0  0  0  0  0  0  0  0  0  0  0
  181.7330  180.6030  138.0110 C   0  0  2  0  0  3  0  0  0  0  0  0
  182.2820  179.5560  140.3030 C   0  0  0  0  0  2  0  0  0  0  0  0
  187.3550  177.9200  139.2210 C   0  0  2  0  0  3  0  0  0  0  0  0
  183.8080  177.2900  138.6700 C   0  0  2  0  0  3  0  0  0  0  0  0
  186.5830  176.4110  135.1470 C   0  0  0  0  0  2  0  0  0  0  0  0
  185.6800  178.5490  141.8050 C   0  0  0  0  0  0  0  0  0  0  0  0
  184.8520  174.6110  135.1310 C   0  0  0  0  0  2  0  0  0  0  0  0
  182.6910  179.6860  138.8250 C   0  0  1  0  0  3  0  0  0  0  0  0
  182.8060  178.3300  138.1060 C   0  0  2  0  0  3  0  0  0  0  0  0
  187.0170  178.5950  141.6060 C   0  0  0  0  0  3  0  0  0  0  0  0
  184.3570  179.3000  143.8140 C   0  0  0  0  0  2  0  0  0  0  0  0
  185.1820  178.1800  143.1790 C   0  0  2  0  0  3  0  0  0  0  0  0
  186.3040  177.7120  144.0720 C   0  0  0  0  0  3  0  0  0  0  0  0
  187.4290  177.3950  146.2110 C   0  0  0  0  0  1  0  0  0  0  0  0
  185.2000  178.6880  146.0860 C   0  0  0  0  0  2  0  0  0  0  0  0
  186.2750  177.8760  145.4030 C   0  0  0  0  0  0  0  0  0  0  0  0
  183.9550  178.8780  145.2200 C   0  0  0  0  0  2  0  0  0  0  0  0
  180.7220  181.4390  138.7970 C   0  0  0  0  0  2  0  0  0  0  0  0
  180.3680  182.6940  138.0230 C   0  0  0  0  0  1  0  0  0  0  0  0
  1 27  1  0  0  0  0
  3 21  1  0  0  0  0
  3  7  1  0  0  0  0
  4  1  1  0  0  0  0
  6 11  1  0  0  0  0
  6  9  1  0  0  0  0
  7 10  1  0  0  0  0
  8 16  1  0  0  0  0
  9 13  1  0  0  0  0
  9  3  1  0  0  0  0
 10  5  1  0  0  0  0
 10 24  1  0  0  0  0
 11 17  1  0  0  0  0
 12  4  1  0  0  0  0
 12 19  1  0  0  0  0
 13 22  1  0  0  0  0
 14 18  1  0  0  0  0
 15 28  1  0  0  0  0
 16  4  1  0  0  0  0
 16  1  1  0  0  0  0
 17 21  1  0  0  0  0
 18 13  1  0  0  0  0
 19 36  1  0  0  0  0
 19 26  1  0  0  0  0
 20  5  1  0  0  0  0
 21 15  1  0  0  0  0
 22  7  1  0  0  0  0
 23  2  1  0  0  0  0
 23  6  1  0  0  0  0
 24 30  1  0  0  0  0
 25  2  1  0  0  0  0
 25 14  1  0  0  0  0
 26 20  1  0  0  0  0
 27 22  1  0  0  0  0
 27 26  1  0  0  0  0
 28 24  2  0  0  0  0
 29 35  1  0  0  0  0
 30 29  1  0  0  0  0
 30 31  1  0  0  0  0
 31 34  2  0  0  0  0
 34 33  1  0  0  0  0
 34 32  1  0  0  0  0
 35 33  1  0  0  0  0
 37 36  1  0  0  0  0
M  END
>  <MODEL>
2

>  <REMARK>
 VINA RESULT:      -8.5      1.497      1.722
  Name = 
  2 active torsions:
  status: ('A' for Active; 'I' for Inactive)
    1  A    between atoms: C_6  and  C_31
    2  A    between atoms: C_11  and  C_26
                            x       y       z     vdW  Elec       q    Type
                         _______ _______ _______ _____ _____    ______ ____

>  <TORSDO>
F 2

$$$$
=
 OpenBabel10262423023D

 37 44  0  0  1  0  0  0  0  0999 V2000
  181.2490  178.7070  140.4280 C   0  0  1  0  0  3  0  0  0  0  0  0
  179.6900  173.1370  138.4200 C   0  0  0  0  0  2  0  0  0  0  0  0
  182.4780  176.3000  136.5710 C   0  0  2  0  0  3  0  0  0  0  0  0
  180.4340  180.0110  140.4160 C   0  0  1  0  0  3  0  0  0  0  0  0
  184.6120  178.7350  138.6030 C   0  0  0  0  0  2  0  0  0  0  0  0
  180.5000  174.6000  136.5020 C   0  0  1  0  0  3  0  0  0  0  0  0
  183.2860  176.7730  137.7620 C   0  0  1  0  0  3  0  0  0  0  0  0
  179.5440  178.5500  142.1990 C   0  0  0  0  0  1  0  0  0  0  0  0
  181.1500  175.8240  137.1830 C   0  0  1  0  0  3  0  0  0  0  0  0
  184.3430  177.8240  137.4050 C   0  0  2  0  0  3  0  0  0  0  0  0
  181.4900  173.5650  135.9840 C   0  0  0  0  0  2  0  0  0  0  0  0
  180.0380  180.4210  139.1200 O   0  0  0  0  0  0  0  0  0  0  0  0
  181.3760  175.7810  138.6910 C   0  0  2  0  0  3  0  0  0  0  0  0
  180.1340  174.8030  140.2420 C   0  0  0  0  0  2  0  0  0  0  0  0
  184.3780  175.8960  135.0360 C   0  0  0  0  0  2  0  0  0  0  0  0
  179.7620  178.6820  140.7080 C   0  0  2  0  0  3  0  0  0  0  0  0
  182.4850  174.2580  135.0690 C   0  0  0  0  0  2  0  0  0  0  0  0
  180.1710  175.9100  139.3890 O   0  0  0  0  0  0  0  0  0  0  0  0
  181.1750  180.6760  138.3150 C   0  0  2  0  0  3  0  0  0  0  0  0
  183.5870  179.8590  138.7180 C   0  0  0  0  0  2  0  0  0  0  0  0
  183.3230  175.2170  135.8970 C   0  0  2  0  0  3  0  0  0  0  0  0
  182.3380  176.9410  138.9530 C   0  0  2  0  0  3  0  0  0  0  0  0
  179.2950  173.9990  137.2280 C   0  0  0  0  0  2  0  0  0  0  0  0
  185.6040  177.1320  136.9000 C   0  0  0  0  0  0  0  0  0  0  0  0
  179.1690  173.7510  139.7100 C   0  0  0  0  0  2  0  0  0  0  0  0
  182.1720  179.4860  138.2390 C   0  0  1  0  0  3  0  0  0  0  0  0
  181.5720  178.2880  138.9970 C   0  0  2  0  0  3  0  0  0  0  0  0
  185.5860  176.2800  135.8490 C   0  0  0  0  0  3  0  0  0  0  0  0
  187.6490  178.5950  137.0510 C   0  0  0  0  0  2  0  0  0  0  0  0
  186.9190  177.3680  137.5970 C   0  0  2  0  0  3  0  0  0  0  0  0
  187.7840  176.1320  137.5890 C   0  0  0  0  0  3  0  0  0  0  0  0
  189.9040  174.9280  137.5770 C   0  0  0  0  0  1  0  0  0  0  0  0
  189.8630  177.5030  137.4430 C   0  0  0  0  0  2  0  0  0  0  0  0
  189.1240  176.1950  137.5960 C   0  0  0  0  0  0  0  0  0  0  0  0
  188.9930  178.7210  137.7550 C   0  0  0  0  0  2  0  0  0  0  0  0
  181.7550  182.0660  138.5770 C   0  0  0  0  0  2  0  0  0  0  0  0
  181.1790  183.0680  137.5940 C   0  0  0  0  0  1  0  0  0  0  0  0
  1 16  1  0  0  0  0
  2 25  1  0  0  0  0
  3  9  1  0  0  0  0
  3  7  1  0  0  0  0
  4  1  1  0  0  0  0
  4 16  1  0  0  0  0
  5 20  1  0  0  0  0
  6  9  1  0  0  0  0
  6 23  1  0  0  0  0
  7 22  1  0  0  0  0
  9 13  1  0  0  0  0
 10  7  1  0  0  0  0
 10  5  1  0  0  0  0
 11  6  1  0  0  0  0
 12  4  1  0  0  0  0
 13 22  1  0  0  0  0
 13 18  1  0  0  0  0
 15 28  1  0  0  0  0
 15 21  1  0  0  0  0
 16  8  1  0  0  0  0
 17 21  1  0  0  0  0
 17 11  1  0  0  0  0
 18 14  1  0  0  0  0
 19 36  1  0  0  0  0
 19 12  1  0  0  0  0
 21  3  1  0  0  0  0
 22 27  1  0  0  0  0
 23  2  1  0  0  0  0
 24 10  1  0  0  0  0
 24 30  1  0  0  0  0
 25 14  1  0  0  0  0
 26 19  1  0  0  0  0
 26 20  1  0  0  0  0
 26 27  1  0  0  0  0
 27  1  1  0  0  0  0
 28 24  2  0  0  0  0
 29 30  1  0  0  0  0
 29 35  1  0  0  0  0
 31 34  2  0  0  0  0
 31 30  1  0  0  0  0
 32 34  1  0  0  0  0
 33 34  1  0  0  0  0
 33 35  1  0  0  0  0
 37 36  1  0  0  0  0
M  END
>  <MODEL>
3

>  <REMARK>
 VINA RESULT:      -7.0      3.574      5.507
  Name = 
  2 active torsions:
  status: ('A' for Active; 'I' for Inactive)
    1  A    between atoms: C_6  and  C_31
    2  A    between atoms: C_11  and  C_26
                            x       y       z     vdW  Elec       q    Type
                         _______ _______ _______ _____ _____    ______ ____

>  <TORSDO>
F 2

$$$$
=
 OpenBabel10262423023D

 37 44  0  0  1  0  0  0  0  0999 V2000
  183.3180  179.3770  141.0990 C   0  0  1  0  0  3  0  0  0  0  0  0
  185.9490  176.5680  136.3360 C   0  0  0  0  0  2  0  0  0  0  0  0
  181.6210  178.0240  136.9190 C   0  0  2  0  0  3  0  0  0  0  0  0
  182.8710  178.7920  142.4490 C   0  0  1  0  0  3  0  0  0  0  0  0
  180.6450  181.0990  138.9710 C   0  0  0  0  0  2  0  0  0  0  0  0
  183.4250  176.2450  136.3010 C   0  0  1  0  0  3  0  0  0  0  0  0
  181.8070  179.3970  137.5330 C   0  0  1  0  0  3  0  0  0  0  0  0
  185.3350  178.9740  142.4560 C   0  0  0  0  0  1  0  0  0  0  0  0
  182.8810  177.2500  137.3380 C   0  0  1  0  0  3  0  0  0  0  0  0
  180.4900  180.1340  137.7950 C   0  0  2  0  0  3  0  0  0  0  0  0
  183.2770  176.6900  134.8520 C   0  0  0  0  0  2  0  0  0  0  0  0
  181.9090  177.7600  142.3300 O   0  0  0  0  0  0  0  0  0  0  0  0
  183.8380  178.2890  137.9140 C   0  0  2  0  0  3  0  0  0  0  0  0
  186.0030  178.0830  138.3350 C   0  0  0  0  0  2  0  0  0  0  0  0
  180.0190  178.6820  135.1490 C   0  0  0  0  0  2  0  0  0  0  0  0
  184.1490  178.3140  141.7860 C   0  0  2  0  0  3  0  0  0  0  0  0
  181.8200  177.0340  134.5940 C   0  0  0  0  0  2  0  0  0  0  0  0
  184.7430  177.7070  138.8080 O   0  0  0  0  0  0  0  0  0  0  0  0
  180.7300  178.2530  141.7200 C   0  0  2  0  0  3  0  0  0  0  0  0
  180.4810  180.4030  140.3190 C   0  0  0  0  0  2  0  0  0  0  0  0
  181.4570  178.2590  135.4160 C   0  0  2  0  0  3  0  0  0  0  0  0
  182.9160  179.3080  138.5860 C   0  0  2  0  0  3  0  0  0  0  0  0
  184.7860  175.6270  136.6250 C   0  0  0  0  0  2  0  0  0  0  0  0
  180.0310  180.8330  136.5200 C   0  0  0  0  0  0  0  0  0  0  0  0
  186.6770  176.9170  137.6250 C   0  0  0  0  0  2  0  0  0  0  0  0
  180.9730  178.9450  140.3480 C   0  0  1  0  0  3  0  0  0  0  0  0
  182.4600  178.7990  139.9770 C   0  0  2  0  0  3  0  0  0  0  0  0
  179.8350  180.1620  135.3620 C   0  0  0  0  0  3  0  0  0  0  0  0
  179.7120  182.8920  135.1040 C   0  0  0  0  0  2  0  0  0  0  0  0
  179.8110  182.3240  136.5190 C   0  0  2  0  0  3  0  0  0  0  0  0
  180.8400  183.0400  137.3580 C   0  0  0  0  0  3  0  0  0  0  0  0
  182.2640  184.9250  137.9610 C   0  0  0  0  0  1  0  0  0  0  0  0
  180.8050  185.0180  135.8360 C   0  0  0  0  0  2  0  0  0  0  0  0
  181.2350  184.2940  137.0900 C   0  0  0  0  0  0  0  0  0  0  0  0
  179.5620  184.4040  135.1900 C   0  0  0  0  0  2  0  0  0  0  0  0
  179.8300  178.9750  142.7230 C   0  0  0  0  0  2  0  0  0  0  0  0
  179.8480  178.2520  144.0570 C   0  0  0  0  0  1  0  0  0  0  0  0
  1 16  1  0  0  0  0
  1  4  1  0  0  0  0
  2 23  1  0  0  0  0
  2 25  1  0  0  0  0
  3  9  1  0  0  0  0
  3  7  1  0  0  0  0
  5 20  1  0  0  0  0
  6 23  1  0  0  0  0
  6  9  1  0  0  0  0
  7 10  1  0  0  0  0
  7 22  1  0  0  0  0
  9 13  1  0  0  0  0
 10  5  1  0  0  0  0
 11  6  1  0  0  0  0
 12  4  1  0  0  0  0
 13 22  1  0  0  0  0
 13 18  1  0  0  0  0
 14 18  1  0  0  0  0
 15 28  1  0  0  0  0
 15 21  1  0  0  0  0
 16  4  1  0  0  0  0
 16  8  1  0  0  0  0
 17 11  1  0  0  0  0
 17 21  1  0  0  0  0
 19 12  1  0  0  0  0
 19 36  1  0  0  0  0
 20 26  1  0  0  0  0
 21  3  1  0  0  0  0
 22 27  1  0  0  0  0
 24 10  1  0  0  0  0
 25 14  1  0  0  0  0
 26 19  1  0  0  0  0
 27 26  1  0  0  0  0
 27  1  1  0  0  0  0
 28 24  2  0  0  0  0
 29 35  1  0  0  0  0
 29 30  1  0  0  0  0
 30 24  1  0  0  0  0
 30 31  1  0  0  0  0
 33 34  1  0  0  0  0
 34 31  2  0  0  0  0
 34 32  1  0  0  0  0
 35 33  1  0  0  0  0
 36 37  1  0  0  0  0
M  END
>  <MODEL>
4

>  <REMARK>
 VINA RESULT:      -6.2      3.043      6.955
  Name = 
  2 active torsions:
  status: ('A' for Active; 'I' for Inactive)
    1  A    between atoms: C_6  and  C_31
    2  A    between atoms: C_11  and  C_26
                            x       y       z     vdW  Elec       q    Type
                         _______ _______ _______ _____ _____    ______ ____

>  <TORSDO>
F 2

$$$$
=
 OpenBabel10262423023D

 37 44  0  0  1  0  0  0  0  0999 V2000
  181.1470  177.5780  138.9890 C   0  0  1  0  0  3  0  0  0  0  0  0
  183.6510  173.1560  135.5740 C   0  0  0  0  0  2  0  0  0  0  0  0
  185.3140  177.2640  136.8190 C   0  0  2  0  0  3  0  0  0  0  0  0
  180.0490  178.5900  138.6210 C   0  0  1  0  0  3  0  0  0  0  0  0
  184.5130  178.9930  140.1330 C   0  0  0  0  0  2  0  0  0  0  0  0
  184.7330  175.4070  135.0830 C   0  0  1  0  0  3  0  0  0  0  0  0
  184.9470  177.3450  138.2860 C   0  0  1  0  0  3  0  0  0  0  0  0
  178.9920  176.3830  138.9650 C   0  0  0  0  0  1  0  0  0  0  0  0
  184.2470  176.3360  136.2150 C   0  0  1  0  0  3  0  0  0  0  0  0
  185.4350  178.6270  138.9690 C   0  0  2  0  0  3  0  0  0  0  0  0
  186.1530  174.8860  135.2570 C   0  0  0  0  0  2  0  0  0  0  0  0
  180.3850  179.4170  137.5220 O   0  0  0  0  0  0  0  0  0  0  0  0
  183.5130  175.7160  137.4000 C   0  0  2  0  0  3  0  0  0  0  0  0
  182.1530  173.9690  137.4150 C   0  0  0  0  0  2  0  0  0  0  0  0
  187.6960  177.8990  137.0500 C   0  0  0  0  0  2  0  0  0  0  0  0
  179.9800  177.1590  138.1210 C   0  0  2  0  0  3  0  0  0  0  0  0
  187.0850  176.0700  135.4540 C   0  0  0  0  0  2  0  0  0  0  0  0
  182.2220  175.3140  137.0440 O   0  0  0  0  0  0  0  0  0  0  0  0
  181.5310  180.1930  137.8220 C   0  0  2  0  0  3  0  0  0  0  0  0
  183.2720  179.7530  139.6730 C   0  0  0  0  0  2  0  0  0  0  0  0
  186.7500  176.7380  136.7760 C   0  0  2  0  0  3  0  0  0  0  0  0
  183.5180  176.8220  138.4570 C   0  0  2  0  0  3  0  0  0  0  0  0
  183.7340  174.3430  134.6230 C   0  0  0  0  0  2  0  0  0  0  0  0
  186.8860  178.4580  139.4030 C   0  0  0  0  0  0  0  0  0  0  0  0
  182.2630  173.0710  136.1900 C   0  0  0  0  0  2  0  0  0  0  0  0
  182.7580  179.3520  138.2780 C   0  0  1  0  0  3  0  0  0  0  0  0
  182.4020  177.8580  138.1690 C   0  0  2  0  0  3  0  0  0  0  0  0
  187.8660  178.1320  138.5280 C   0  0  0  0  0  3  0  0  0  0  0  0
  188.3030  177.6040  141.3030 C   0  0  0  0  0  2  0  0  0  0  0  0
  187.2610  178.6280  140.8530 C   0  0  2  0  0  3  0  0  0  0  0  0
  186.0450  178.6440  141.7450 C   0  0  0  0  0  3  0  0  0  0  0  0
  184.8340  178.2530  143.8240 C   0  0  0  0  0  1  0  0  0  0  0  0
  187.2980  177.5270  143.5910 C   0  0  0  0  0  2  0  0  0  0  0  0
  186.0820  178.2130  143.0150 C   0  0  0  0  0  0  0  0  0  0  0  0
  188.5720  177.7970  142.7890 C   0  0  0  0  0  2  0  0  0  0  0  0
  181.1800  181.4320  138.6460 C   0  0  0  0  0  2  0  0  0  0  0  0
  181.1810  182.6650  137.7640 C   0  0  0  0  0  1  0  0  0  0  0  0
  2 25  1  0  0  0  0
  3  7  1  0  0  0  0
  4  1  1  0  0  0  0
  6 11  1  0  0  0  0
  6  9  1  0  0  0  0
  7 22  1  0  0  0  0
  7 10  1  0  0  0  0
  9  3  1  0  0  0  0
  9 13  1  0  0  0  0
 10 24  1  0  0  0  0
 10  5  1  0  0  0  0
 11 17  1  0  0  0  0
 12 19  1  0  0  0  0
 12  4  1  0  0  0  0
 13 22  1  0  0  0  0
 15 28  1  0  0  0  0
 16  4  1  0  0  0  0
 16  8  1  0  0  0  0
 16  1  1  0  0  0  0
 17 21  1  0  0  0  0
 18 13  1  0  0  0  0
 18 14  1  0  0  0  0
 19 26  1  0  0  0  0
 19 36  1  0  0  0  0
 20  5  1  0  0  0  0
 21  3  1  0  0  0  0
 21 15  1  0  0  0  0
 23  6  1  0  0  0  0
 23  2  1  0  0  0  0
 24 30  1  0  0  0  0
 25 14  1  0  0  0  0
 26 20  1  0  0  0  0
 27 26  1  0  0  0  0
 27 22  1  0  0  0  0
 27  1  1  0  0  0  0
 28 24  2  0  0  0  0
 29 35  1  0  0  0  0
 30 29  1  0  0  0  0
 30 31  1  0  0  0  0
 31 34  2  0  0  0  0
 34 33  1  0  0  0  0
 34 32  1  0  0  0  0
 35 33  1  0  0  0  0
 37 36  1  0  0  0  0
M  END
>  <MODEL>
5

>  <REMARK>
 VINA RESULT:      -6.1      1.637      2.927
  Name = 
  2 active torsions:
  status: ('A' for Active; 'I' for Inactive)
    1  A    between atoms: C_6  and  C_31
    2  A    between atoms: C_11  and  C_26
                            x       y       z     vdW  Elec       q    Type
                         _______ _______ _______ _____ _____    ______ ____

>  <TORSDO>
F 2

$$$$
=
 OpenBabel10262423023D

 37 44  0  0  1  0  0  0  0  0999 V2000
  182.5410  175.8550  136.8120 C   0  0  1  0  0  3  0  0  0  0  0  0
  188.1960  174.2200  135.1280 C   0  0  0  0  0  2  0  0  0  0  0  0
  186.7530  177.7820  137.6630 C   0  0  2  0  0  3  0  0  0  0  0  0
  181.4310  176.5220  135.9820 C   0  0  1  0  0  3  0  0  0  0  0  0
  183.7020  177.6860  139.9650 C   0  0  0  0  0  2  0  0  0  0  0  0
  188.1010  176.6950  135.7130 C   0  0  1  0  0  3  0  0  0  0  0  0
  185.7320  177.1470  138.5840 C   0  0  1  0  0  3  0  0  0  0  0  0
  181.5950  174.1510  135.3040 C   0  0  0  0  0  1  0  0  0  0  0  0
  186.7390  176.8870  136.4130 C   0  0  1  0  0  3  0  0  0  0  0  0
  185.1150  178.1310  139.5840 C   0  0  2  0  0  3  0  0  0  0  0  0
  189.2940  176.6310  136.6570 C   0  0  0  0  0  2  0  0  0  0  0  0
  181.8010  177.7790  135.4470 O   0  0  0  0  0  0  0  0  0  0  0  0
  185.9390  175.6450  136.7960 C   0  0  2  0  0  3  0  0  0  0  0  0
  185.8170  173.7040  135.7370 C   0  0  0  0  0  2  0  0  0  0  0  0
  188.0390  178.9940  139.3970 C   0  0  0  0  0  2  0  0  0  0  0  0
  182.3330  175.4710  135.3630 C   0  0  2  0  0  3  0  0  0  0  0  0
  189.2830  177.8660  137.5410 C   0  0  0  0  0  2  0  0  0  0  0  0
  185.3830  175.0310  135.6700 O   0  0  0  0  0  0  0  0  0  0  0  0
  182.0960  178.6910  136.4900 C   0  0  2  0  0  3  0  0  0  0  0  0
  182.6590  178.1270  138.9420 C   0  0  0  0  0  2  0  0  0  0  0  0
  188.0660  177.8050  138.4470 C   0  0  2  0  0  3  0  0  0  0  0  0
  184.8800  176.1740  137.7650 C   0  0  2  0  0  3  0  0  0  0  0  0
  188.1340  175.6470  134.5990 C   0  0  0  0  0  2  0  0  0  0  0  0
  186.0300  178.2750  140.7940 C   0  0  0  0  0  0  0  0  0  0  0  0
  186.9390  173.4580  134.7370 C   0  0  0  0  0  2  0  0  0  0  0  0
  183.1700  178.1770  137.4900 C   0  0  1  0  0  3  0  0  0  0  0  0
  183.7050  176.8240  136.9890 C   0  0  2  0  0  3  0  0  0  0  0  0
  187.3230  178.6560  140.6780 C   0  0  0  0  0  3  0  0  0  0  0  0
  184.5980  179.0650  142.7120 C   0  0  0  0  0  2  0  0  0  0  0  0
  185.5070  177.9600  142.1730 C   0  0  2  0  0  3  0  0  0  0  0  0
  186.6220  177.6130  143.1260 C   0  0  0  0  0  3  0  0  0  0  0  0
  187.6900  177.4910  145.3150 C   0  0  0  0  0  1  0  0  0  0  0  0
  185.3960  178.6400  145.0420 C   0  0  0  0  0  2  0  0  0  0  0  0
  186.5380  177.8540  144.4440 C   0  0  0  0  0  0  0  0  0  0  0  0
  184.1720  178.7040  144.1270 C   0  0  0  0  0  2  0  0  0  0  0  0
  180.8270  179.3140  137.0760 C   0  0  0  0  0  2  0  0  0  0  0  0
  180.9160  180.8270  137.0270 C   0  0  0  0  0  1  0  0  0  0  0  0
  1 27  1  0  0  0  0
  3 21  1  0  0  0  0
  3  7  1  0  0  0  0
  4  1  1  0  0  0  0
  6  9  1  0  0  0  0
  6 11  1  0  0  0  0
  7 10  1  0  0  0  0
  8 16  1  0  0  0  0
  9 13  1  0  0  0  0
  9  3  1  0  0  0  0
 10  5  1  0  0  0  0
 10 24  1  0  0  0  0
 11 17  1  0  0  0  0
 12  4  1  0  0  0  0
 12 19  1  0  0  0  0
 13 22  1  0  0  0  0
 15 28  1  0  0  0  0
 16  4  1  0  0  0  0
 16  1  1  0  0  0  0
 17 21  1  0  0  0  0
 18 14  1  0  0  0  0
 18 13  1  0  0  0  0
 19 36  1  0  0  0  0
 19 26  1  0  0  0  0
 20  5  1  0  0  0  0
 21 15  1  0  0  0  0
 22  7  1  0  0  0  0
 23  2  1  0  0  0  0
 23  6  1  0  0  0  0
 24 30  1  0  0  0  0
 25  2  1  0  0  0  0
 25 14  1  0  0  0  0
 26 20  1  0  0  0  0
 27 26  1  0  0  0  0
 27 22  1  0  0  0  0
 28 24  2  0  0  0  0
 29 35  1  0  0  0  0
 30 29  1  0  0  0  0
 30 31  1  0  0  0  0
 31 34  2  0  0  0  0
 34 33  1  0  0  0  0
 34 32  1  0  0  0  0
 35 33  1  0  0  0  0
 37 36  1  0  0  0  0
M  END
>  <MODEL>
6

>  <REMARK>
 VINA RESULT:      -5.8      2.105      3.091
  Name = 
  2 active torsions:
  status: ('A' for Active; 'I' for Inactive)
    1  A    between atoms: C_6  and  C_31
    2  A    between atoms: C_11  and  C_26
                            x       y       z     vdW  Elec       q    Type
                         _______ _______ _______ _____ _____    ______ ____

>  <TORSDO>
F 2

$$$$
=
 OpenBabel10262423023D

 37 44  0  0  1  0  0  0  0  0999 V2000
  187.8770  174.7060  136.1610 C   0  0  1  0  0  3  0  0  0  0  0  0
  193.5390  172.4480  135.5880 C   0  0  0  0  0  2  0  0  0  0  0  0
  192.0560  176.2880  137.6500 C   0  0  2  0  0  3  0  0  0  0  0  0
  187.0010  175.4170  135.1150 C   0  0  1  0  0  3  0  0  0  0  0  0
  188.6610  176.6260  139.3760 C   0  0  0  0  0  2  0  0  0  0  0  0
  193.6000  174.9550  136.0250 C   0  0  1  0  0  3  0  0  0  0  0  0
  190.8320  175.8120  138.4060 C   0  0  1  0  0  3  0  0  0  0  0  0
  187.0340  173.0010  134.5940 C   0  0  0  0  0  1  0  0  0  0  0  0
  192.1650  175.3160  136.4630 C   0  0  1  0  0  3  0  0  0  0  0  0
  190.1570  176.9130  139.2300 C   0  0  2  0  0  3  0  0  0  0  0  0
  194.6010  174.8430  137.1680 C   0  0  0  0  0  2  0  0  0  0  0  0
  187.5840  176.5960  134.5940 O   0  0  0  0  0  0  0  0  0  0  0  0
  191.1880  174.1830  136.7580 C   0  0  2  0  0  3  0  0  0  0  0  0
  191.0510  172.1950  135.7900 C   0  0  0  0  0  2  0  0  0  0  0  0
  193.1420  177.4880  139.5230 C   0  0  0  0  0  2  0  0  0  0  0  0
  187.8830  174.2480  134.7180 C   0  0  2  0  0  3  0  0  0  0  0  0
  194.5650  176.1290  137.9740 C   0  0  0  0  0  2  0  0  0  0  0  0
  190.7740  173.5490  135.5820 O   0  0  0  0  0  0  0  0  0  0  0  0
  187.7870  177.5440  135.6260 C   0  0  2  0  0  3  0  0  0  0  0  0
  187.8600  177.0940  138.1640 C   0  0  0  0  0  2  0  0  0  0  0  0
  193.2100  176.2410  138.6530 C   0  0  2  0  0  3  0  0  0  0  0  0
  190.0380  174.8700  137.4960 C   0  0  2  0  0  3  0  0  0  0  0  0
  193.7160  173.8360  134.9870 C   0  0  0  0  0  2  0  0  0  0  0  0
  190.8600  177.0510  140.5750 C   0  0  0  0  0  0  0  0  0  0  0  0
  192.2970  171.7810  135.0180 C   0  0  0  0  0  2  0  0  0  0  0  0
  188.6150  177.0000  136.8250 C   0  0  1  0  0  3  0  0  0  0  0  0
  189.0870  175.5730  136.4940 C   0  0  2  0  0  3  0  0  0  0  0  0
  192.1860  177.3030  140.6720 C   0  0  0  0  0  3  0  0  0  0  0  0
  189.2210  178.1010  142.1760 C   0  0  0  0  0  2  0  0  0  0  0  0
  190.0780  176.8770  141.8530 C   0  0  2  0  0  3  0  0  0  0  0  0
  190.9700  176.4770  143.0020 C   0  0  0  0  0  3  0  0  0  0  0  0
  191.6290  176.3820  145.3470 C   0  0  0  0  0  1  0  0  0  0  0  0
  189.5590  177.7410  144.6260 C   0  0  0  0  0  2  0  0  0  0  0  0
  190.6910  176.8070  144.2720 C   0  0  0  0  0  0  0  0  0  0  0  0
  188.5230  177.8740  143.5090 C   0  0  0  0  0  2  0  0  0  0  0  0
  186.5080  178.3180  135.9470 C   0  0  0  0  0  2  0  0  0  0  0  0
  185.3860  177.8800  135.0250 C   0  0  0  0  0  1  0  0  0  0  0  0
  1 27  1  0  0  0  0
  3  7  1  0  0  0  0
  3 21  1  0  0  0  0
  4  1  1  0  0  0  0
  6  9  1  0  0  0  0
  6 11  1  0  0  0  0
  7 10  1  0  0  0  0
  8 16  1  0  0  0  0
  9 13  1  0  0  0  0
  9  3  1  0  0  0  0
 10  5  1  0  0  0  0
 10 24  1  0  0  0  0
 11 17  1  0  0  0  0
 12  4  1  0  0  0  0
 12 19  1  0  0  0  0
 13 22  1  0  0  0  0
 15 28  1  0  0  0  0
 16  4  1  0  0  0  0
 16  1  1  0  0  0  0
 17 21  1  0  0  0  0
 18 14  1  0  0  0  0
 18 13  1  0  0  0  0
 19 36  1  0  0  0  0
 19 26  1  0  0  0  0
 20  5  1  0  0  0  0
 21 15  1  0  0  0  0
 22  7  1  0  0  0  0
 23  2  1  0  0  0  0
 23  6  1  0  0  0  0
 24 28  2  0  0  0  0
 24 30  1  0  0  0  0
 25  2  1  0  0  0  0
 25 14  1  0  0  0  0
 26 20  1  0  0  0  0
 27 26  1  0  0  0  0
 27 22  1  0  0  0  0
 29 35  1  0  0  0  0
 30 29  1  0  0  0  0
 30 31  1  0  0  0  0
 31 34  2  0  0  0  0
 34 33  1  0  0  0  0
 34 32  1  0  0  0  0
 35 33  1  0  0  0  0
 37 36  1  0  0  0  0
M  END
>  <MODEL>
7

>  <REMARK>
 VINA RESULT:      -5.8      5.112      7.588
  Name = 
  2 active torsions:
  status: ('A' for Active; 'I' for Inactive)
    1  A    between atoms: C_6  and  C_31
    2  A    between atoms: C_11  and  C_26
                            x       y       z     vdW  Elec       q    Type
                         _______ _______ _______ _____ _____    ______ ____

>  <TORSDO>
F 2

$$$$
