=
 OpenBabel10262422213D

 43 47  0  0  1  0  0  0  0  0999 V2000
  186.4450  178.3920  146.0240 C   0  0  0  0  0  0  0  0  0  0  0  0
  183.1790  178.8840  142.1590 N   0  0  2  0  0  0  0  0  0  0  0  0
  184.5650  178.8690  139.7670 C   0  0  2  0  0  3  0  0  0  0  0  0
  184.4560  178.6970  144.6750 C   0  0  0  0  0  0  0  0  0  0  0  0
  187.1360  177.9240  144.9050 C   0  0  0  0  0  3  0  0  0  0  0  0
  187.0700  178.4670  147.2230 F   0  0  0  0  0  0  0  0  0  0  0  0
  185.1600  178.2650  143.5300 C   0  0  0  0  0  0  0  0  0  0  0  0
  185.1070  178.7750  145.9090 C   0  0  0  0  0  3  0  0  0  0  0  0
  186.4950  177.8520  143.6660 C   0  0  0  0  0  3  0  0  0  0  0  0
  185.3550  178.5500  141.0430 C   0  0  0  0  0  2  0  0  0  0  0  0
  184.4430  178.1200  142.2010 C   0  0  2  0  0  3  0  0  0  0  0  0
  182.3790  178.5360  143.3320 C   0  0  0  0  0  2  0  0  0  0  0  0
  182.3770  178.5260  140.9720 C   0  0  2  0  0  3  0  0  0  0  0  0
  183.2230  178.1440  139.7460 C   0  0  0  0  0  2  0  0  0  0  0  0
  183.0240  179.1250  144.5790 C   0  0  0  0  0  2  0  0  0  0  0  0
  185.3690  178.5910  138.4960 C   0  0  2  0  0  3  0  0  0  0  0  0
  184.7960  177.4210  137.7030 C   0  0  0  0  0  1  0  0  0  0  0  0
  186.7630  178.3350  138.8380 N   0  0  0  0  0  2  0  0  0  0  0  0
  187.8490  178.6540  137.9670 C   0  0  0  0  0  0  0  0  0  0  0  0
  187.6400  179.2240  136.8630 O   0  0  0  0  0  0  0  0  0  0  0  0
  189.2520  178.2830  138.3560 C   0  0  0  0  0  2  0  0  0  0  0  0
  189.3480  177.0100  139.0850 N   0  0  0  0  0  0  0  0  0  0  0  0
  189.4480  177.0750  141.5610 C   0  0  0  0  0  0  0  0  0  0  0  0
  190.0630  177.2210  140.2780 N   0  0  0  0  0  2  0  0  0  0  0  0
  188.2180  176.8130  141.6420 O   0  0  0  0  0  0  0  0  0  0  0  0
  190.2520  177.2380  142.7850 C   0  0  0  0  0  0  0  0  0  0  0  0
  191.4430  176.2700  144.6700 C   0  0  0  0  0  3  0  0  0  0  0  0
  191.3640  178.6740  144.3990 C   0  0  0  0  0  3  0  0  0  0  0  0
  191.7850  177.5500  145.1140 C   0  0  0  0  0  3  0  0  0  0  0  0
  190.6000  178.5190  143.2390 C   0  0  0  0  0  3  0  0  0  0  0  0
  190.6790  176.1150  143.5100 C   0  0  0  0  0  3  0  0  0  0  0  0
  190.0900  176.0490  138.2750 C   0  0  0  0  0  2  0  0  0  0  0  0
  192.8040  176.3260  138.0010 S   0  0  0  0  0  1  0  0  0  0  0  0
  191.1350  176.7600  137.4330 C   0  0  0  0  0  2  0  0  0  0  0  0
  181.5110  179.6430  140.6130 N   0  0  0  0  0  2  0  0  0  0  0  0
  179.6550  179.2310  137.3880 C   0  0  0  0  0  3  0  0  0  0  0  0
  180.1020  180.3570  136.6780 C   0  0  0  0  0  0  0  0  0  0  0  0
  181.4720  180.9890  138.5790 C   0  0  0  0  0  3  0  0  0  0  0  0
  180.1150  178.9880  138.6850 C   0  0  0  0  0  3  0  0  0  0  0  0
  181.0220  179.8700  139.2890 C   0  0  0  0  0  0  0  0  0  0  0  0
  181.0130  181.2310  137.2820 C   0  0  0  0  0  3  0  0  0  0  0  0
  179.6600  180.6300  135.3810 O   0  0  0  0  0  0  0  0  0  0  0  0
  179.8530  181.8900  134.7530 C   0  0  0  0  0  1  0  0  0  0  0  0
  1  6  1  0  0  0  0
  2 11  1  0  0  0  0
  2 12  1  1  0  0  0
  3 16  1  6  0  0  0
  3 10  1  0  0  0  0
  4  8  2  0  0  0  0
  5  1  2  0  0  0  0
  7  9  2  0  0  0  0
  7  4  1  0  0  0  0
  8  1  1  0  0  0  0
  9  5  1  0  0  0  0
 11 10  1  6  0  0  0
 11  7  1  0  0  0  0
 12 15  1  0  0  0  0
 13 35  1  6  0  0  0
 13  2  1  0  0  0  0
 14  3  1  0  0  0  0
 14 13  1  0  0  0  0
 15  4  1  0  0  0  0
 16 17  1  1  0  0  0
 16 18  1  0  0  0  0
 19 21  1  0  0  0  0
 19 18  1  0  0  0  0
 20 19  2  0  0  0  0
 21 22  1  0  0  0  0
 22 24  1  0  0  0  0
 23 25  2  0  0  0  0
 23 26  1  0  0  0  0
 24 23  1  0  0  0  0
 26 30  2  0  0  0  0
 26 31  1  0  0  0  0
 27 29  1  0  0  0  0
 28 29  2  0  0  0  0
 30 28  1  0  0  0  0
 31 27  2  0  0  0  0
 32 22  1  0  0  0  0
 34 33  1  0  0  0  0
 34 32  1  0  0  0  0
 36 39  1  0  0  0  0
 37 41  1  0  0  0  0
 37 36  2  0  0  0  0
 38 40  1  0  0  0  0
 39 40  2  0  0  0  0
 40 35  1  0  0  0  0
 41 38  2  0  0  0  0
 42 37  1  0  0  0  0
 43 42  1  0  0  0  0
M  END
>  <MODEL>
1

>  <REMARK>
 VINA RESULT:      -8.8      0.000      0.000
  Name = 
  11 active torsions:
  status: ('A' for Active; 'I' for Inactive)
    1  A    between atoms: N_1  and  C_34
    2  A    between atoms: N_1  and  C_35
    3  A    between atoms: C_2  and  N_6
    4  A    between atoms: C_2  and  C_13
    5  A    between atoms: C_3  and  N_4
    6  A    between atoms: C_3  and  C_12
    7  A    between atoms: N_4  and  C_15
    8  A    between atoms: N_4  and  N_22
    9  A    between atoms: C_11  and  C_14
   10  A    between atoms: C_15  and  C_42
   11  A    between atoms: C_19  and  O_25
                            x       y       z     vdW  Elec       q    Type
                         _______ _______ _______ _____ _____    ______ ____

>  <TORSDO>
F 11

$$$$
=
 OpenBabel10262422213D

 43 47  0  0  1  0  0  0  0  0999 V2000
  191.2790  176.7420  147.1270 C   0  0  0  0  0  0  0  0  0  0  0  0
  187.2130  177.9390  144.3200 N   0  0  2  0  0  0  0  0  0  0  0  0
  187.9940  178.4130  141.7110 C   0  0  2  0  0  3  0  0  0  0  0  0
  189.0390  177.2790  146.3750 C   0  0  0  0  0  0  0  0  0  0  0  0
  191.6720  176.5130  145.8070 C   0  0  0  0  0  3  0  0  0  0  0  0
  192.1720  176.5890  148.1340 F   0  0  0  0  0  0  0  0  0  0  0  0
  189.4390  177.0900  145.0350 C   0  0  0  0  0  0  0  0  0  0  0  0
  189.9650  177.1220  147.4100 C   0  0  0  0  0  3  0  0  0  0  0  0
  190.7540  176.6770  144.7660 C   0  0  0  0  0  3  0  0  0  0  0  0
  189.0520  177.8600  142.6760 C   0  0  0  0  0  2  0  0  0  0  0  0
  188.4250  177.1990  143.9120 C   0  0  2  0  0  3  0  0  0  0  0  0
  186.7010  177.3560  145.5590 C   0  0  0  0  0  2  0  0  0  0  0  0
  186.1420  177.8090  143.3120 C   0  0  2  0  0  3  0  0  0  0  0  0
  186.6620  177.6870  141.8700 C   0  0  0  0  0  2  0  0  0  0  0  0
  187.6400  177.6970  146.7070 C   0  0  0  0  0  2  0  0  0  0  0  0
  188.4670  178.4010  140.2570 C   0  0  2  0  0  3  0  0  0  0  0  0
  187.3170  178.1540  139.2850 C   0  0  0  0  0  1  0  0  0  0  0  0
  189.5030  177.3920  140.0810 N   0  0  0  0  0  2  0  0  0  0  0  0
  190.2360  177.2330  138.8640 C   0  0  0  0  0  0  0  0  0  0  0  0
  190.0390  178.0080  137.8900 O   0  0  0  0  0  0  0  0  0  0  0  0
  191.2310  176.1140  138.7330 C   0  0  0  0  0  2  0  0  0  0  0  0
  191.1110  175.3580  137.4780 N   0  0  0  0  0  0  0  0  0  0  0  0
  188.8800  174.8080  136.5480 C   0  0  0  0  0  0  0  0  0  0  0  0
  189.9200  174.6110  137.5100 N   0  0  0  0  0  2  0  0  0  0  0  0
  188.9910  175.7160  135.6800 O   0  0  0  0  0  0  0  0  0  0  0  0
  187.6800  173.9550  136.5760 C   0  0  0  0  0  0  0  0  0  0  0  0
  186.5520  171.8790  136.0020 C   0  0  0  0  0  3  0  0  0  0  0  0
  185.3690  173.5910  137.2380 C   0  0  0  0  0  3  0  0  0  0  0  0
  185.3910  172.3310  136.6350 C   0  0  0  0  0  3  0  0  0  0  0  0
  186.5090  174.4000  137.2090 C   0  0  0  0  0  3  0  0  0  0  0  0
  187.6920  172.6880  135.9730 C   0  0  0  0  0  3  0  0  0  0  0  0
  192.2300  174.4260  137.3720 C   0  0  0  0  0  2  0  0  0  0  0  0
  194.8540  174.0450  138.0690 S   0  0  0  0  0  1  0  0  0  0  0  0
  193.5490  175.1670  137.4880 C   0  0  0  0  0  2  0  0  0  0  0  0
  185.2540  178.9630  143.3930 N   0  0  0  0  0  2  0  0  0  0  0  0
  181.5700  178.8310  144.0490 C   0  0  0  0  0  3  0  0  0  0  0  0
  181.0710  178.7250  142.7410 C   0  0  0  0  0  0  0  0  0  0  0  0
  183.3420  178.7770  141.8890 C   0  0  0  0  0  3  0  0  0  0  0  0
  182.9470  178.9100  144.2720 C   0  0  0  0  0  3  0  0  0  0  0  0
  183.8400  178.8880  143.1910 C   0  0  0  0  0  0  0  0  0  0  0  0
  181.9650  178.6980  141.6650 C   0  0  0  0  0  3  0  0  0  0  0  0
  179.6990  178.6480  142.4830 O   0  0  0  0  0  0  0  0  0  0  0  0
  179.1720  178.0490  141.3080 C   0  0  0  0  0  1  0  0  0  0  0  0
  1  8  1  0  0  0  0
  1  6  1  0  0  0  0
  2 12  1  1  0  0  0
  3 16  1  6  0  0  0
  3 14  1  0  0  0  0
  3 10  1  0  0  0  0
  4 15  1  0  0  0  0
  4  8  2  0  0  0  0
  5  1  2  0  0  0  0
  7  4  1  0  0  0  0
  9  7  2  0  0  0  0
  9  5  1  0  0  0  0
 11 10  1  6  0  0  0
 11  2  1  0  0  0  0
 11  7  1  0  0  0  0
 12 15  1  0  0  0  0
 13 35  1  6  0  0  0
 13  2  1  0  0  0  0
 14 13  1  0  0  0  0
 16 17  1  6  0  0  0
 18 16  1  0  0  0  0
 19 18  1  0  0  0  0
 20 19  2  0  0  0  0
 21 19  1  0  0  0  0
 22 24  1  0  0  0  0
 22 21  1  0  0  0  0
 23 26  1  0  0  0  0
 23 24  1  0  0  0  0
 25 23  2  0  0  0  0
 26 30  1  0  0  0  0
 27 29  2  0  0  0  0
 29 28  1  0  0  0  0
 30 28  2  0  0  0  0
 31 27  1  0  0  0  0
 31 26  2  0  0  0  0
 32 22  1  0  0  0  0
 32 34  1  0  0  0  0
 34 33  1  0  0  0  0
 36 39  1  0  0  0  0
 37 36  2  0  0  0  0
 38 40  1  0  0  0  0
 40 35  1  0  0  0  0
 40 39  2  0  0  0  0
 41 38  2  0  0  0  0
 41 37  1  0  0  0  0
 42 37  1  0  0  0  0
 43 42  1  0  0  0  0
M  END
>  <MODEL>
2

>  <REMARK>
 VINA RESULT:      -8.6      3.006      5.754
  Name = 
  11 active torsions:
  status: ('A' for Active; 'I' for Inactive)
    1  A    between atoms: N_1  and  C_34
    2  A    between atoms: N_1  and  C_35
    3  A    between atoms: C_2  and  N_6
    4  A    between atoms: C_2  and  C_13
    5  A    between atoms: C_3  and  N_4
    6  A    between atoms: C_3  and  C_12
    7  A    between atoms: N_4  and  C_15
    8  A    between atoms: N_4  and  N_22
    9  A    between atoms: C_11  and  C_14
   10  A    between atoms: C_15  and  C_42
   11  A    between atoms: C_19  and  O_25
                            x       y       z     vdW  Elec       q    Type
                         _______ _______ _______ _____ _____    ______ ____

>  <TORSDO>
F 11

$$$$
=
 OpenBabel10262422213D

 43 47  0  0  1  0  0  0  0  0999 V2000
  183.5530  179.0200  144.5400 C   0  0  0  0  0  0  0  0  0  0  0  0
  182.5510  178.2850  139.6110 N   0  0  2  0  0  0  0  0  0  0  0  0
  184.8790  178.5470  138.1420 C   0  0  2  0  0  3  0  0  0  0  0  0
  182.4560  178.6360  142.4150 C   0  0  0  0  0  0  0  0  0  0  0  0
  184.7870  178.7160  143.9620 C   0  0  0  0  0  3  0  0  0  0  0  0
  183.4840  179.3480  145.8520 F   0  0  0  0  0  0  0  0  0  0  0  0
  183.7050  178.3690  141.8130 C   0  0  0  0  0  0  0  0  0  0  0  0
  182.3900  178.9770  143.7680 C   0  0  0  0  0  3  0  0  0  0  0  0
  184.8620  178.3840  142.6070 C   0  0  0  0  0  3  0  0  0  0  0  0
  185.0050  178.5540  139.6720 C   0  0  0  0  0  2  0  0  0  0  0  0
  183.7770  177.9390  140.3600 C   0  0  2  0  0  3  0  0  0  0  0  0
  181.3920  177.7820  140.3450 C   0  0  0  0  0  2  0  0  0  0  0  0
  182.5330  177.6340  138.2850 C   0  0  2  0  0  3  0  0  0  0  0  0
  183.9290  177.4530  137.6660 C   0  0  0  0  0  2  0  0  0  0  0  0
  181.1940  178.6080  141.6080 C   0  0  0  0  0  2  0  0  0  0  0  0
  186.2370  178.4500  137.4450 C   0  0  2  0  0  3  0  0  0  0  0  0
  186.2490  177.3700  136.3680 C   0  0  0  0  0  1  0  0  0  0  0  0
  187.2810  178.1920  138.4290 N   0  0  0  0  0  2  0  0  0  0  0  0
  188.6170  178.6810  138.2910 C   0  0  0  0  0  0  0  0  0  0  0  0
  188.9370  179.4070  137.3130 O   0  0  0  0  0  0  0  0  0  0  0  0
  189.6580  178.3030  139.3070 C   0  0  0  0  0  2  0  0  0  0  0  0
  189.5380  176.9220  139.7940 N   0  0  0  0  0  0  0  0  0  0  0  0
  188.9610  177.4730  142.1410 C   0  0  0  0  0  0  0  0  0  0  0  0
  189.8360  176.8960  141.1680 N   0  0  0  0  0  2  0  0  0  0  0  0
  187.9220  178.0820  141.7680 O   0  0  0  0  0  0  0  0  0  0  0  0
  189.2780  177.3620  143.5750 C   0  0  0  0  0  0  0  0  0  0  0  0
  188.5680  177.3750  145.9000 C   0  0  0  0  0  3  0  0  0  0  0  0
  190.9000  177.0240  145.3530 C   0  0  0  0  0  3  0  0  0  0  0  0
  189.8860  177.1460  146.3060 C   0  0  0  0  0  3  0  0  0  0  0  0
  190.5980  177.1320  143.9930 C   0  0  0  0  0  3  0  0  0  0  0  0
  188.2660  177.4820  144.5390 C   0  0  0  0  0  3  0  0  0  0  0  0
  190.5120  176.0830  139.1020 C   0  0  0  0  0  2  0  0  0  0  0  0
  192.6220  176.1110  137.3510 S   0  0  0  0  0  1  0  0  0  0  0  0
  191.7420  176.8930  138.7350 C   0  0  0  0  0  2  0  0  0  0  0  0
  181.7130  178.4180  137.3690 N   0  0  0  0  0  2  0  0  0  0  0  0
  181.1690  181.9810  138.3840 C   0  0  0  0  0  3  0  0  0  0  0  0
  179.7670  182.0260  138.4530 C   0  0  0  0  0  0  0  0  0  0  0  0
  179.6770  179.6890  137.8070 C   0  0  0  0  0  3  0  0  0  0  0  0
  181.8180  180.7960  138.0270 C   0  0  0  0  0  3  0  0  0  0  0  0
  181.0730  179.6450  137.7320 C   0  0  0  0  0  0  0  0  0  0  0  0
  179.0280  180.8740  138.1640 C   0  0  0  0  0  3  0  0  0  0  0  0
  179.0880  183.1970  138.8030 O   0  0  0  0  0  0  0  0  0  0  0  0
  179.1900  184.3980  138.0510 C   0  0  0  0  0  1  0  0  0  0  0  0
  1  6  1  0  0  0  0
  2 12  1  1  0  0  0
  2 11  1  0  0  0  0
  3 16  1  6  0  0  0
  3 10  1  0  0  0  0
  4  8  1  0  0  0  0
  5  1  1  0  0  0  0
  7  4  2  0  0  0  0
  7  9  1  0  0  0  0
  8  1  2  0  0  0  0
  9  5  2  0  0  0  0
 11 10  1  6  0  0  0
 11  7  1  0  0  0  0
 12 15  1  0  0  0  0
 13 35  1  6  0  0  0
 13  2  1  0  0  0  0
 14  3  1  0  0  0  0
 14 13  1  0  0  0  0
 15  4  1  0  0  0  0
 16 17  1  6  0  0  0
 16 18  1  0  0  0  0
 19 18  1  0  0  0  0
 19 21  1  0  0  0  0
 20 19  2  0  0  0  0
 21 22  1  0  0  0  0
 22 24  1  0  0  0  0
 23 26  1  0  0  0  0
 24 23  1  0  0  0  0
 25 23  2  0  0  0  0
 26 30  2  0  0  0  0
 26 31  1  0  0  0  0
 27 29  1  0  0  0  0
 28 29  2  0  0  0  0
 30 28  1  0  0  0  0
 31 27  2  0  0  0  0
 32 22  1  0  0  0  0
 33 34  1  0  0  0  0
 34 32  1  0  0  0  0
 35 40  1  0  0  0  0
 36 37  1  0  0  0  0
 37 42  1  0  0  0  0
 38 41  1  0  0  0  0
 39 36  2  0  0  0  0
 40 38  2  0  0  0  0
 40 39  1  0  0  0  0
 41 37  2  0  0  0  0
 43 42  1  0  0  0  0
M  END
>  <MODEL>
3

>  <REMARK>
 VINA RESULT:      -8.5      1.662      2.415
  Name = 
  11 active torsions:
  status: ('A' for Active; 'I' for Inactive)
    1  A    between atoms: N_1  and  C_34
    2  A    between atoms: N_1  and  C_35
    3  A    between atoms: C_2  and  N_6
    4  A    between atoms: C_2  and  C_13
    5  A    between atoms: C_3  and  N_4
    6  A    between atoms: C_3  and  C_12
    7  A    between atoms: N_4  and  C_15
    8  A    between atoms: N_4  and  N_22
    9  A    between atoms: C_11  and  C_14
   10  A    between atoms: C_15  and  C_42
   11  A    between atoms: C_19  and  O_25
                            x       y       z     vdW  Elec       q    Type
                         _______ _______ _______ _____ _____    ______ ____

>  <TORSDO>
F 11

$$$$
=
 OpenBabel10262422213D

 43 47  0  0  1  0  0  0  0  0999 V2000
  191.5010  176.4820  146.9370 C   0  0  0  0  0  0  0  0  0  0  0  0
  187.9250  177.8060  143.5740 N   0  0  2  0  0  0  0  0  0  0  0  0
  189.0700  178.1130  141.0760 C   0  0  2  0  0  3  0  0  0  0  0  0
  189.4200  177.1250  145.8750 C   0  0  0  0  0  0  0  0  0  0  0  0
  192.0450  176.1700  145.6890 C   0  0  0  0  0  3  0  0  0  0  0  0
  192.2420  176.3180  148.0580 F   0  0  0  0  0  0  0  0  0  0  0  0
  189.9770  176.8510  144.6070 C   0  0  0  0  0  0  0  0  0  0  0  0
  190.1900  176.9560  147.0290 C   0  0  0  0  0  3  0  0  0  0  0  0
  191.2840  176.3450  144.5310 C   0  0  0  0  0  3  0  0  0  0  0  0
  189.9540  177.5390  142.1910 C   0  0  0  0  0  2  0  0  0  0  0  0
  189.1270  176.9740  143.3570 C   0  0  2  0  0  3  0  0  0  0  0  0
  187.2180  177.3130  144.7530 C   0  0  0  0  0  2  0  0  0  0  0  0
  186.9890  177.7000  142.4370 C   0  0  2  0  0  3  0  0  0  0  0  0
  187.6820  177.4810  141.0820 C   0  0  0  0  0  2  0  0  0  0  0  0
  188.0210  177.6450  146.0030 C   0  0  0  0  0  2  0  0  0  0  0  0
  189.7270  178.0070  139.6980 C   0  0  2  0  0  3  0  0  0  0  0  0
  189.0920  178.9590  138.6900 C   0  0  0  0  0  1  0  0  0  0  0  0
  189.6470  176.6340  139.2160 N   0  0  0  0  0  2  0  0  0  0  0  0
  190.4540  176.1360  138.1480 C   0  0  0  0  0  0  0  0  0  0  0  0
  191.3180  176.8720  137.6000 O   0  0  0  0  0  0  0  0  0  0  0  0
  190.2550  174.7310  137.6530 C   0  0  0  0  0  2  0  0  0  0  0  0
  189.3720  174.6350  136.4820 N   0  0  0  0  0  0  0  0  0  0  0  0
  187.5370  176.2830  136.2360 C   0  0  0  0  0  0  0  0  0  0  0  0
  188.0960  175.1100  136.8330 N   0  0  0  0  0  2  0  0  0  0  0  0
  188.2200  176.9580  135.4190 O   0  0  0  0  0  0  0  0  0  0  0  0
  186.1690  176.7050  136.5820 C   0  0  0  0  0  0  0  0  0  0  0  0
  184.6420  177.9430  138.0120 C   0  0  0  0  0  3  0  0  0  0  0  0
  183.7800  176.6770  136.1370 C   0  0  0  0  0  3  0  0  0  0  0  0
  183.5620  177.5110  137.2370 C   0  0  0  0  0  3  0  0  0  0  0  0
  185.0790  176.2760  135.8110 C   0  0  0  0  0  3  0  0  0  0  0  0
  185.9410  177.5420  137.6850 C   0  0  0  0  0  3  0  0  0  0  0  0
  189.2440  173.2340  136.0920 C   0  0  0  0  0  2  0  0  0  0  0  0
  186.9330  171.8100  135.7070 S   0  0  0  0  0  1  0  0  0  0  0  0
  188.1130  172.5720  136.8580 C   0  0  0  0  0  2  0  0  0  0  0  0
  186.1790  178.9100  142.3580 N   0  0  0  0  0  2  0  0  0  0  0  0
  182.7770  179.2140  143.8910 C   0  0  0  0  0  3  0  0  0  0  0  0
  181.9610  178.9200  142.7870 C   0  0  0  0  0  0  0  0  0  0  0  0
  183.9440  178.6240  141.4220 C   0  0  0  0  0  3  0  0  0  0  0  0
  184.1680  179.2130  143.7580 C   0  0  0  0  0  3  0  0  0  0  0  0
  184.7580  178.9220  142.5200 C   0  0  0  0  0  0  0  0  0  0  0  0
  182.5530  178.6250  141.5550 C   0  0  0  0  0  3  0  0  0  0  0  0
  180.5660  178.9160  142.8860 O   0  0  0  0  0  0  0  0  0  0  0  0
  179.8840  178.6830  144.1110 C   0  0  0  0  0  1  0  0  0  0  0  0
  1  8  1  0  0  0  0
  1  6  1  0  0  0  0
  2 12  1  1  0  0  0
  3 16  1  6  0  0  0
  3 14  1  0  0  0  0
  3 10  1  0  0  0  0
  4 15  1  0  0  0  0
  4  8  2  0  0  0  0
  5  1  2  0  0  0  0
  7  4  1  0  0  0  0
  9  7  2  0  0  0  0
  9  5  1  0  0  0  0
 11 10  1  6  0  0  0
 11  2  1  0  0  0  0
 11  7  1  0  0  0  0
 12 15  1  0  0  0  0
 13 35  1  6  0  0  0
 13  2  1  0  0  0  0
 14 13  1  0  0  0  0
 16 17  1  6  0  0  0
 18 16  1  0  0  0  0
 19 18  1  0  0  0  0
 20 19  2  0  0  0  0
 21 19  1  0  0  0  0
 22 24  1  0  0  0  0
 22 21  1  0  0  0  0
 23 26  1  0  0  0  0
 23 24  1  0  0  0  0
 25 23  2  0  0  0  0
 26 31  1  0  0  0  0
 28 29  2  0  0  0  0
 29 27  1  0  0  0  0
 30 28  1  0  0  0  0
 30 26  2  0  0  0  0
 31 27  2  0  0  0  0
 32 22  1  0  0  0  0
 32 34  1  0  0  0  0
 33 34  1  0  0  0  0
 35 40  1  0  0  0  0
 37 42  1  0  0  0  0
 37 36  2  0  0  0  0
 38 41  2  0  0  0  0
 38 40  1  0  0  0  0
 39 36  1  0  0  0  0
 40 39  2  0  0  0  0
 41 37  1  0  0  0  0
 42 43  1  0  0  0  0
M  END
>  <MODEL>
4

>  <REMARK>
 VINA RESULT:      -8.4      3.103      6.205
  Name = 
  11 active torsions:
  status: ('A' for Active; 'I' for Inactive)
    1  A    between atoms: N_1  and  C_34
    2  A    between atoms: N_1  and  C_35
    3  A    between atoms: C_2  and  N_6
    4  A    between atoms: C_2  and  C_13
    5  A    between atoms: C_3  and  N_4
    6  A    between atoms: C_3  and  C_12
    7  A    between atoms: N_4  and  C_15
    8  A    between atoms: N_4  and  N_22
    9  A    between atoms: C_11  and  C_14
   10  A    between atoms: C_15  and  C_42
   11  A    between atoms: C_19  and  O_25
                            x       y       z     vdW  Elec       q    Type
                         _______ _______ _______ _____ _____    ______ ____

>  <TORSDO>
F 11

$$$$
=
 OpenBabel10262422213D

 43 47  0  0  1  0  0  0  0  0999 V2000
  193.9400  176.0070  135.4070 C   0  0  0  0  0  0  0  0  0  0  0  0
  190.8540  177.0640  139.3060 N   0  0  2  0  0  0  0  0  0  0  0  0
  188.3590  177.7750  138.3480 C   0  0  2  0  0  3  0  0  0  0  0  0
  193.0220  176.4140  137.6120 C   0  0  0  0  0  0  0  0  0  0  0  0
  192.6490  175.9000  134.8850 C   0  0  0  0  0  3  0  0  0  0  0  0
  195.0120  175.8570  134.5940 F   0  0  0  0  0  0  0  0  0  0  0  0
  191.7140  176.3480  137.0850 C   0  0  0  0  0  0  0  0  0  0  0  0
  194.1250  176.2610  136.7670 C   0  0  0  0  0  3  0  0  0  0  0  0
  191.5410  176.0610  135.7210 C   0  0  0  0  0  3  0  0  0  0  0  0
  189.3810  177.2440  137.3330 C   0  0  0  0  0  2  0  0  0  0  0  0
  190.5130  176.4530  138.0050 C   0  0  2  0  0  3  0  0  0  0  0  0
  192.0030  176.3600  139.8700 C   0  0  0  0  0  2  0  0  0  0  0  0
  189.7460  176.9190  140.2720 C   0  0  2  0  0  3  0  0  0  0  0  0
  188.3530  176.9370  139.6220 C   0  0  0  0  0  2  0  0  0  0  0  0
  193.2500  176.6960  139.0640 C   0  0  0  0  0  2  0  0  0  0  0  0
  186.9560  177.9000  137.7530 C   0  0  2  0  0  3  0  0  0  0  0  0
  186.9810  178.5160  136.3580 C   0  0  0  0  0  1  0  0  0  0  0  0
  186.1110  178.6910  138.6390 N   0  0  0  0  0  2  0  0  0  0  0  0
  184.6850  178.5930  138.6450 C   0  0  0  0  0  0  0  0  0  0  0  0
  184.0950  177.7680  137.8990 O   0  0  0  0  0  0  0  0  0  0  0  0
  183.8790  179.5020  139.5310 C   0  0  0  0  0  2  0  0  0  0  0  0
  183.2920  178.8260  140.6960 N   0  0  0  0  0  0  0  0  0  0  0  0
  184.1090  178.7230  143.0340 C   0  0  0  0  0  0  0  0  0  0  0  0
  184.3110  178.5580  141.6280 N   0  0  0  0  0  2  0  0  0  0  0  0
  183.0150  179.1810  143.4630 O   0  0  0  0  0  0  0  0  0  0  0  0
  185.1800  178.3640  143.9790 C   0  0  0  0  0  0  0  0  0  0  0  0
  186.0910  178.3580  146.2320 C   0  0  0  0  0  3  0  0  0  0  0  0
  187.3370  177.3350  144.4260 C   0  0  0  0  0  3  0  0  0  0  0  0
  187.2220  177.6750  145.7770 C   0  0  0  0  0  3  0  0  0  0  0  0
  186.3190  177.6780  143.5300 C   0  0  0  0  0  3  0  0  0  0  0  0
  185.0740  178.7010  145.3370 C   0  0  0  0  0  3  0  0  0  0  0  0
  182.7170  177.5530  140.2720 C   0  0  0  0  0  2  0  0  0  0  0  0
  180.4690  176.1940  139.4850 S   0  0  0  0  0  1  0  0  0  0  0  0
  181.2030  177.5940  140.3800 C   0  0  0  0  0  2  0  0  0  0  0  0
  189.8160  177.9910  141.2580 N   0  0  0  0  0  2  0  0  0  0  0  0
  190.8710  178.6720  144.7860 C   0  0  0  0  0  3  0  0  0  0  0  0
  191.1930  177.3770  145.2210 C   0  0  0  0  0  0  0  0  0  0  0  0
  190.6020  176.5130  143.0330 C   0  0  0  0  0  3  0  0  0  0  0  0
  190.4160  178.8830  143.4820 C   0  0  0  0  0  3  0  0  0  0  0  0
  190.2750  177.8020  142.6000 C   0  0  0  0  0  0  0  0  0  0  0  0
  191.0570  176.3010  144.3370 C   0  0  0  0  0  3  0  0  0  0  0  0
  191.6470  177.1310  146.5210 O   0  0  0  0  0  0  0  0  0  0  0  0
  192.1040  175.8550  146.9460 C   0  0  0  0  0  1  0  0  0  0  0  0
  1  8  1  0  0  0  0
  2 12  1  1  0  0  0
  2 13  1  0  0  0  0
  3 16  1  6  0  0  0
  3 14  1  0  0  0  0
  4 15  1  0  0  0  0
  5  1  2  0  0  0  0
  5  9  1  0  0  0  0
  6  1  1  0  0  0  0
  7  4  1  0  0  0  0
  7 11  1  0  0  0  0
  8  4  2  0  0  0  0
  9  7  2  0  0  0  0
 10  3  1  0  0  0  0
 11 10  1  6  0  0  0
 11  2  1  0  0  0  0
 13 35  1  1  0  0  0
 14 13  1  0  0  0  0
 15 12  1  0  0  0  0
 16 17  1  6  0  0  0
 16 18  1  0  0  0  0
 18 19  1  0  0  0  0
 19 21  1  0  0  0  0
 20 19  2  0  0  0  0
 21 22  1  0  0  0  0
 22 24  1  0  0  0  0
 23 25  2  0  0  0  0
 23 26  1  0  0  0  0
 24 23  1  0  0  0  0
 26 31  1  0  0  0  0
 28 29  2  0  0  0  0
 29 27  1  0  0  0  0
 30 26  2  0  0  0  0
 30 28  1  0  0  0  0
 31 27  2  0  0  0  0
 32 34  1  0  0  0  0
 32 22  1  0  0  0  0
 33 34  1  0  0  0  0
 35 40  1  0  0  0  0
 36 37  1  0  0  0  0
 37 42  1  0  0  0  0
 38 41  1  0  0  0  0
 39 36  2  0  0  0  0
 40 38  2  0  0  0  0
 40 39  1  0  0  0  0
 41 37  2  0  0  0  0
 42 43  1  0  0  0  0
M  END
>  <MODEL>
5

>  <REMARK>
 VINA RESULT:      -8.2      3.808      9.447
  Name = 
  11 active torsions:
  status: ('A' for Active; 'I' for Inactive)
    1  A    between atoms: N_1  and  C_34
    2  A    between atoms: N_1  and  C_35
    3  A    between atoms: C_2  and  N_6
    4  A    between atoms: C_2  and  C_13
    5  A    between atoms: C_3  and  N_4
    6  A    between atoms: C_3  and  C_12
    7  A    between atoms: N_4  and  C_15
    8  A    between atoms: N_4  and  N_22
    9  A    between atoms: C_11  and  C_14
   10  A    between atoms: C_15  and  C_42
   11  A    between atoms: C_19  and  O_25
                            x       y       z     vdW  Elec       q    Type
                         _______ _______ _______ _____ _____    ______ ____

>  <TORSDO>
F 11

$$$$
=
 OpenBabel10262422213D

 43 47  0  0  1  0  0  0  0  0999 V2000
  191.1600  176.4510  146.9660 C   0  0  0  0  0  0  0  0  0  0  0  0
  189.6820  177.1670  142.1540 N   0  0  2  0  0  0  0  0  0  0  0  0
  187.0300  177.9480  142.1050 C   0  0  2  0  0  3  0  0  0  0  0  0
  191.0630  176.5660  144.5470 C   0  0  0  0  0  0  0  0  0  0  0  0
  190.0210  177.2540  147.0530 C   0  0  0  0  0  3  0  0  0  0  0  0
  191.7640  176.0090  148.0940 F   0  0  0  0  0  0  0  0  0  0  0  0
  189.8870  177.3440  144.6270 C   0  0  0  0  0  0  0  0  0  0  0  0
  191.6800  176.1110  145.7150 C   0  0  0  0  0  3  0  0  0  0  0  0
  189.3930  177.7060  145.8900 C   0  0  0  0  0  3  0  0  0  0  0  0
  187.7150  177.8580  143.4760 C   0  0  0  0  0  2  0  0  0  0  0  0
  189.2460  177.8920  143.3660 C   0  0  2  0  0  3  0  0  0  0  0  0
  191.1430  177.1210  142.1330 C   0  0  0  0  0  2  0  0  0  0  0  0
  189.2590  177.8730  140.9280 C   0  0  2  0  0  3  0  0  0  0  0  0
  187.9290  178.6300  141.0780 C   0  0  0  0  0  2  0  0  0  0  0  0
  191.6360  176.1760  143.2200 C   0  0  0  0  0  2  0  0  0  0  0  0
  185.6580  178.6200  142.1810 C   0  0  2  0  0  3  0  0  0  0  0  0
  185.0790  178.5760  143.5910 C   0  0  0  0  0  1  0  0  0  0  0  0
  184.7440  177.9860  141.2390 N   0  0  0  0  0  2  0  0  0  0  0  0
  184.3010  178.6210  140.0380 C   0  0  0  0  0  0  0  0  0  0  0  0
  184.7320  179.7610  139.7190 O   0  0  0  0  0  0  0  0  0  0  0  0
  183.2930  177.9350  139.1590 C   0  0  0  0  0  2  0  0  0  0  0  0
  183.8330  176.7820  138.4260 N   0  0  0  0  0  0  0  0  0  0  0  0
  185.8890  176.2090  137.1640 C   0  0  0  0  0  0  0  0  0  0  0  0
  185.0310  177.1630  137.7960 N   0  0  0  0  0  2  0  0  0  0  0  0
  185.6100  174.9800  137.2200 O   0  0  0  0  0  0  0  0  0  0  0  0
  187.0980  176.6610  136.4560 C   0  0  0  0  0  0  0  0  0  0  0  0
  188.8540  178.3080  136.1190 C   0  0  0  0  0  3  0  0  0  0  0  0
  188.8080  176.3010  134.7660 C   0  0  0  0  0  3  0  0  0  0  0  0
  189.4050  177.5180  135.1070 C   0  0  0  0  0  3  0  0  0  0  0  0
  187.6590  175.8740  135.4380 C   0  0  0  0  0  3  0  0  0  0  0  0
  187.7050  177.8810  136.7910 C   0  0  0  0  0  3  0  0  0  0  0  0
  182.8830  176.3830  137.3920 C   0  0  0  0  0  2  0  0  0  0  0  0
  181.9700  173.8190  137.0580 S   0  0  0  0  0  1  0  0  0  0  0  0
  181.8730  175.3970  137.9520 C   0  0  0  0  0  2  0  0  0  0  0  0
  189.1320  176.9170  139.8340 N   0  0  0  0  0  2  0  0  0  0  0  0
  192.5140  176.7470  138.2360 C   0  0  0  0  0  3  0  0  0  0  0  0
  192.3530  175.6360  137.3930 C   0  0  0  0  0  0  0  0  0  0  0  0
  190.0700  175.3930  138.1760 C   0  0  0  0  0  3  0  0  0  0  0  0
  191.4570  177.1750  139.0430 C   0  0  0  0  0  3  0  0  0  0  0  0
  190.2310  176.4960  139.0210 C   0  0  0  0  0  0  0  0  0  0  0  0
  191.1270  174.9640  137.3690 C   0  0  0  0  0  3  0  0  0  0  0  0
  193.3920  175.1790  136.5750 O   0  0  0  0  0  0  0  0  0  0  0  0
  193.2000  174.1930  135.5710 C   0  0  0  0  0  1  0  0  0  0  0  0
  1  5  1  0  0  0  0
  1  6  1  0  0  0  0
  2 12  1  1  0  0  0
  2 11  1  0  0  0  0
  3 16  1  1  0  0  0
  3 10  1  0  0  0  0
  4  7  2  0  0  0  0
  4  8  1  0  0  0  0
  7  9  1  0  0  0  0
  8  1  2  0  0  0  0
  9  5  2  0  0  0  0
 11 10  1  1  0  0  0
 11  7  1  0  0  0  0
 12 15  1  0  0  0  0
 13 35  1  6  0  0  0
 13 14  1  0  0  0  0
 13  2  1  0  0  0  0
 14  3  1  0  0  0  0
 15  4  1  0  0  0  0
 16 17  1  1  0  0  0
 18 16  1  0  0  0  0
 19 18  1  0  0  0  0
 20 19  2  0  0  0  0
 21 19  1  0  0  0  0
 22 21  1  0  0  0  0
 23 25  2  0  0  0  0
 23 24  1  0  0  0  0
 24 22  1  0  0  0  0
 26 31  1  0  0  0  0
 26 23  1  0  0  0  0
 27 31  2  0  0  0  0
 28 29  2  0  0  0  0
 28 30  1  0  0  0  0
 29 27  1  0  0  0  0
 30 26  2  0  0  0  0
 32 34  1  0  0  0  0
 32 22  1  0  0  0  0
 33 34  1  0  0  0  0
 36 39  1  0  0  0  0
 37 36  2  0  0  0  0
 38 40  1  0  0  0  0
 40 39  2  0  0  0  0
 40 35  1  0  0  0  0
 41 37  1  0  0  0  0
 41 38  2  0  0  0  0
 42 37  1  0  0  0  0
 43 42  1  0  0  0  0
M  END
>  <MODEL>
6

>  <REMARK>
 VINA RESULT:      -8.1      3.314      8.183
  Name = 
  11 active torsions:
  status: ('A' for Active; 'I' for Inactive)
    1  A    between atoms: N_1  and  C_34
    2  A    between atoms: N_1  and  C_35
    3  A    between atoms: C_2  and  N_6
    4  A    between atoms: C_2  and  C_13
    5  A    between atoms: C_3  and  N_4
    6  A    between atoms: C_3  and  C_12
    7  A    between atoms: N_4  and  C_15
    8  A    between atoms: N_4  and  N_22
    9  A    between atoms: C_11  and  C_14
   10  A    between atoms: C_15  and  C_42
   11  A    between atoms: C_19  and  O_25
                            x       y       z     vdW  Elec       q    Type
                         _______ _______ _______ _____ _____    ______ ____

>  <TORSDO>
F 11

$$$$
=
 OpenBabel10262422213D

 43 47  0  0  1  0  0  0  0  0999 V2000
  182.3320  178.9710  142.9360 C   0  0  0  0  0  0  0  0  0  0  0  0
  186.7350  177.9410  145.2580 N   0  0  2  0  0  0  0  0  0  0  0  0
  188.4750  176.7590  143.4640 C   0  0  2  0  0  3  0  0  0  0  0  0
  184.1000  178.6990  144.5700 C   0  0  0  0  0  0  0  0  0  0  0  0
  183.2590  178.8230  141.9030 C   0  0  0  0  0  3  0  0  0  0  0  0
  181.0250  179.1800  142.6470 F   0  0  0  0  0  0  0  0  0  0  0  0
  185.0360  178.5060  143.5320 C   0  0  0  0  0  0  0  0  0  0  0  0
  182.7520  178.9120  144.2660 C   0  0  0  0  0  3  0  0  0  0  0  0
  184.6060  178.6010  142.1990 C   0  0  0  0  0  3  0  0  0  0  0  0
  187.1550  177.3110  142.9090 C   0  0  0  0  0  2  0  0  0  0  0  0
  186.5090  178.3350  143.8530 C   0  0  2  0  0  3  0  0  0  0  0  0
  186.0180  178.8690  146.1290 C   0  0  0  0  0  2  0  0  0  0  0  0
  188.1640  178.0340  145.6170 C   0  0  2  0  0  3  0  0  0  0  0  0
  189.1160  177.7330  144.4480 C   0  0  0  0  0  2  0  0  0  0  0  0
  184.5200  178.6280  146.0060 C   0  0  0  0  0  2  0  0  0  0  0  0
  189.4520  176.3580  142.3580 C   0  0  2  0  0  3  0  0  0  0  0  0
  190.8850  176.2550  142.8720 C   0  0  0  0  0  1  0  0  0  0  0  0
  189.3770  177.3130  141.2600 N   0  0  0  0  0  2  0  0  0  0  0  0
  189.9850  177.0850  139.9870 C   0  0  0  0  0  0  0  0  0  0  0  0
  190.5850  176.0040  139.7470 O   0  0  0  0  0  0  0  0  0  0  0  0
  189.9330  178.1550  138.9330 C   0  0  0  0  0  2  0  0  0  0  0  0
  189.4040  177.6910  137.6430 N   0  0  0  0  0  0  0  0  0  0  0  0
  186.9700  178.0890  137.4000 C   0  0  0  0  0  0  0  0  0  0  0  0
  188.0710  177.2790  137.8190 N   0  0  0  0  0  2  0  0  0  0  0  0
  187.1800  179.2340  136.9160 O   0  0  0  0  0  0  0  0  0  0  0  0
  185.5920  177.5870  137.5400 C   0  0  0  0  0  0  0  0  0  0  0  0
  183.3640  177.7810  138.4920 C   0  0  0  0  0  3  0  0  0  0  0  0
  183.8760  175.9590  136.9830 C   0  0  0  0  0  3  0  0  0  0  0  0
  182.9660  176.6320  137.8030 C   0  0  0  0  0  3  0  0  0  0  0  0
  185.1840  176.4350  136.8520 C   0  0  0  0  0  3  0  0  0  0  0  0
  184.6720  178.2560  138.3610 C   0  0  0  0  0  3  0  0  0  0  0  0
  190.1810  176.5390  137.1930 C   0  0  0  0  0  2  0  0  0  0  0  0
  189.8730  173.8360  136.8480 S   0  0  0  0  0  1  0  0  0  0  0  0
  189.2760  175.5200  136.5220 C   0  0  0  0  0  2  0  0  0  0  0  0
  188.4550  177.1100  146.7070 N   0  0  0  0  0  2  0  0  0  0  0  0
  191.4160  177.8070  148.8900 C   0  0  0  0  0  3  0  0  0  0  0  0
  192.2710  176.7570  148.5210 C   0  0  0  0  0  0  0  0  0  0  0  0
  190.5920  175.9610  146.9610 C   0  0  0  0  0  3  0  0  0  0  0  0
  190.1570  177.9310  148.2970 C   0  0  0  0  0  3  0  0  0  0  0  0
  189.7370  177.0040  147.3320 C   0  0  0  0  0  0  0  0  0  0  0  0
  191.8510  175.8370  147.5540 C   0  0  0  0  0  3  0  0  0  0  0  0
  193.5350  176.6030  149.0980 O   0  0  0  0  0  0  0  0  0  0  0  0
  193.8960  177.2110  150.3300 C   0  0  0  0  0  1  0  0  0  0  0  0
  1  8  1  0  0  0  0
  2 13  1  0  0  0  0
  2 12  1  1  0  0  0
  3 16  1  6  0  0  0
  3 14  1  0  0  0  0
  4 15  1  0  0  0  0
  5  9  1  0  0  0  0
  5  1  2  0  0  0  0
  6  1  1  0  0  0  0
  7 11  1  0  0  0  0
  7  4  1  0  0  0  0
  8  4  2  0  0  0  0
  9  7  2  0  0  0  0
 10  3  1  0  0  0  0
 11 10  1  6  0  0  0
 11  2  1  0  0  0  0
 13 35  1  1  0  0  0
 14 13  1  0  0  0  0
 15 12  1  0  0  0  0
 16 17  1  1  0  0  0
 18 16  1  0  0  0  0
 19 18  1  0  0  0  0
 20 19  2  0  0  0  0
 21 19  1  0  0  0  0
 22 24  1  0  0  0  0
 22 21  1  0  0  0  0
 23 26  1  0  0  0  0
 23 24  1  0  0  0  0
 25 23  2  0  0  0  0
 26 31  1  0  0  0  0
 28 29  2  0  0  0  0
 29 27  1  0  0  0  0
 30 28  1  0  0  0  0
 30 26  2  0  0  0  0
 31 27  2  0  0  0  0
 32 22  1  0  0  0  0
 34 33  1  0  0  0  0
 34 32  1  0  0  0  0
 35 40  1  0  0  0  0
 37 36  1  0  0  0  0
 37 42  1  0  0  0  0
 38 40  2  0  0  0  0
 38 41  1  0  0  0  0
 39 36  2  0  0  0  0
 40 39  1  0  0  0  0
 41 37  2  0  0  0  0
 42 43  1  0  0  0  0
M  END
>  <MODEL>
7

>  <REMARK>
 VINA RESULT:      -8.1      3.071      8.924
  Name = 
  11 active torsions:
  status: ('A' for Active; 'I' for Inactive)
    1  A    between atoms: N_1  and  C_34
    2  A    between atoms: N_1  and  C_35
    3  A    between atoms: C_2  and  N_6
    4  A    between atoms: C_2  and  C_13
    5  A    between atoms: C_3  and  N_4
    6  A    between atoms: C_3  and  C_12
    7  A    between atoms: N_4  and  C_15
    8  A    between atoms: N_4  and  N_22
    9  A    between atoms: C_11  and  C_14
   10  A    between atoms: C_15  and  C_42
   11  A    between atoms: C_19  and  O_25
                            x       y       z     vdW  Elec       q    Type
                         _______ _______ _______ _____ _____    ______ ____

>  <TORSDO>
F 11

$$$$
=
 OpenBabel10262422213D

 43 47  0  0  1  0  0  0  0  0999 V2000
  187.8760  177.6620  148.1590 C   0  0  0  0  0  0  0  0  0  0  0  0
  188.3330  177.5840  143.0960 N   0  0  2  0  0  0  0  0  0  0  0  0
  185.8560  177.9820  141.9350 C   0  0  2  0  0  3  0  0  0  0  0  0
  188.7180  177.4700  145.8950 C   0  0  0  0  0  0  0  0  0  0  0  0
  186.7320  178.3050  147.6830 C   0  0  0  0  0  3  0  0  0  0  0  0
  188.0270  177.4460  149.4870 F   0  0  0  0  0  0  0  0  0  0  0  0
  187.5450  178.0830  145.4020 C   0  0  0  0  0  0  0  0  0  0  0  0
  188.8670  177.2480  147.2660 C   0  0  0  0  0  3  0  0  0  0  0  0
  186.5710  178.5230  146.3120 C   0  0  0  0  0  3  0  0  0  0  0  0
  185.9580  178.1520  143.4570 C   0  0  0  0  0  2  0  0  0  0  0  0
  187.4040  178.3820  143.9220 C   0  0  2  0  0  3  0  0  0  0  0  0
  189.6850  177.7360  143.6290 C   0  0  0  0  0  2  0  0  0  0  0  0
  188.3650  178.0720  141.7030 C   0  0  2  0  0  3  0  0  0  0  0  0
  187.0250  178.6520  141.2200 C   0  0  0  0  0  2  0  0  0  0  0  0
  189.7920  177.0060  144.9600 C   0  0  0  0  0  2  0  0  0  0  0  0
  184.5130  178.4630  141.3830 C   0  0  2  0  0  3  0  0  0  0  0  0
  183.5980  178.9860  142.4850 C   0  0  0  0  0  1  0  0  0  0  0  0
  183.8600  177.3820  140.6550 N   0  0  0  0  0  2  0  0  0  0  0  0
  183.1610  177.5830  139.4260 C   0  0  0  0  0  0  0  0  0  0  0  0
  183.1200  178.7220  138.8890 O   0  0  0  0  0  0  0  0  0  0  0  0
  182.4440  176.4320  138.7780 C   0  0  0  0  0  2  0  0  0  0  0  0
  183.2750  175.6710  137.8350 N   0  0  0  0  0  0  0  0  0  0  0  0
  185.6620  175.8240  137.1850 C   0  0  0  0  0  0  0  0  0  0  0  0
  184.4100  176.4350  137.5100 N   0  0  0  0  0  2  0  0  0  0  0  0
  185.7850  174.5710  137.2490 O   0  0  0  0  0  0  0  0  0  0  0  0
  186.8060  176.6600  136.7820 C   0  0  0  0  0  0  0  0  0  0  0  0
  188.7860  177.0090  135.4160 C   0  0  0  0  0  3  0  0  0  0  0  0
  188.0970  178.7080  136.9960 C   0  0  0  0  0  3  0  0  0  0  0  0
  188.9830  178.2560  136.0150 C   0  0  0  0  0  3  0  0  0  0  0  0
  187.0120  177.9130  137.3780 C   0  0  0  0  0  3  0  0  0  0  0  0
  187.7010  176.2140  135.7980 C   0  0  0  0  0  3  0  0  0  0  0  0
  182.5170  175.4380  136.6080 C   0  0  0  0  0  2  0  0  0  0  0  0
  180.2220  173.9620  136.8800 S   0  0  0  0  0  1  0  0  0  0  0  0
  181.0290  175.5900  136.8690 C   0  0  0  0  0  2  0  0  0  0  0  0
  188.7510  176.9830  140.8130 N   0  0  0  0  0  2  0  0  0  0  0  0
  192.3920  177.3800  140.0360 C   0  0  0  0  0  3  0  0  0  0  0  0
  192.4590  176.7880  138.7650 C   0  0  0  0  0  0  0  0  0  0  0  0
  190.0770  176.3380  138.8700 C   0  0  0  0  0  3  0  0  0  0  0  0
  191.1740  177.4480  140.7180 C   0  0  0  0  0  3  0  0  0  0  0  0
  190.0110  176.9220  140.1390 C   0  0  0  0  0  0  0  0  0  0  0  0
  191.2950  176.2700  138.1880 C   0  0  0  0  0  3  0  0  0  0  0  0
  193.6620  176.7010  138.0590 O   0  0  0  0  0  0  0  0  0  0  0  0
  193.7950  175.9490  136.8610 C   0  0  0  0  0  1  0  0  0  0  0  0
  1  6  1  0  0  0  0
  2 12  1  1  0  0  0
  2 11  1  0  0  0  0
  3 16  1  6  0  0  0
  3 10  1  0  0  0  0
  4  8  1  0  0  0  0
  5  1  1  0  0  0  0
  7  4  2  0  0  0  0
  7  9  1  0  0  0  0
  8  1  2  0  0  0  0
  9  5  2  0  0  0  0
 11 10  1  6  0  0  0
 11  7  1  0  0  0  0
 12 15  1  0  0  0  0
 13 35  1  6  0  0  0
 13  2  1  0  0  0  0
 14 13  1  0  0  0  0
 14  3  1  0  0  0  0
 15  4  1  0  0  0  0
 16 17  1  1  0  0  0
 18 16  1  0  0  0  0
 19 18  1  0  0  0  0
 20 19  2  0  0  0  0
 21 19  1  0  0  0  0
 22 21  1  0  0  0  0
 23 25  2  0  0  0  0
 23 24  1  0  0  0  0
 24 22  1  0  0  0  0
 26 23  1  0  0  0  0
 26 30  1  0  0  0  0
 27 31  1  0  0  0  0
 27 29  2  0  0  0  0
 28 30  2  0  0  0  0
 29 28  1  0  0  0  0
 31 26  2  0  0  0  0
 32 34  1  0  0  0  0
 32 22  1  0  0  0  0
 34 33  1  0  0  0  0
 36 39  1  0  0  0  0
 37 36  2  0  0  0  0
 38 40  1  0  0  0  0
 40 39  2  0  0  0  0
 40 35  1  0  0  0  0
 41 37  1  0  0  0  0
 41 38  2  0  0  0  0
 42 37  1  0  0  0  0
 43 42  1  0  0  0  0
M  END
>  <MODEL>
8

>  <REMARK>
 VINA RESULT:      -7.9      3.369      7.820
  Name = 
  11 active torsions:
  status: ('A' for Active; 'I' for Inactive)
    1  A    between atoms: N_1  and  C_34
    2  A    between atoms: N_1  and  C_35
    3  A    between atoms: C_2  and  N_6
    4  A    between atoms: C_2  and  C_13
    5  A    between atoms: C_3  and  N_4
    6  A    between atoms: C_3  and  C_12
    7  A    between atoms: N_4  and  C_15
    8  A    between atoms: N_4  and  N_22
    9  A    between atoms: C_11  and  C_14
   10  A    between atoms: C_15  and  C_42
   11  A    between atoms: C_19  and  O_25
                            x       y       z     vdW  Elec       q    Type
                         _______ _______ _______ _____ _____    ______ ____

>  <TORSDO>
F 11

$$$$
=
 OpenBabel10262422213D

 43 47  0  0  1  0  0  0  0  0999 V2000
  188.1760  178.0640  148.5350 C   0  0  0  0  0  0  0  0  0  0  0  0
  186.7440  178.2980  143.6630 N   0  0  2  0  0  0  0  0  0  0  0  0
  188.9190  177.7960  142.0320 C   0  0  2  0  0  3  0  0  0  0  0  0
  186.9210  178.3600  146.4840 C   0  0  0  0  0  0  0  0  0  0  0  0
  189.1650  177.3720  147.8350 C   0  0  0  0  0  3  0  0  0  0  0  0
  188.3000  178.2540  149.8710 F   0  0  0  0  0  0  0  0  0  0  0  0
  187.9360  177.6970  145.7610 C   0  0  0  0  0  0  0  0  0  0  0  0
  187.0550  178.5550  147.8610 C   0  0  0  0  0  3  0  0  0  0  0  0
  189.0420  177.1810  146.4560 C   0  0  0  0  0  3  0  0  0  0  0  0
  189.1070  177.5930  143.5410 C   0  0  0  0  0  2  0  0  0  0  0  0
  187.7680  177.4300  144.2780 C   0  0  2  0  0  3  0  0  0  0  0  0
  185.5150  178.2060  144.4490 C   0  0  0  0  0  2  0  0  0  0  0  0
  186.4120  177.8490  142.2960 C   0  0  2  0  0  3  0  0  0  0  0  0
  187.5960  177.2100  141.5510 C   0  0  0  0  0  2  0  0  0  0  0  0
  185.7140  178.9060  145.7850 C   0  0  0  0  0  2  0  0  0  0  0  0
  190.0980  177.2570  141.2190 C   0  0  2  0  0  3  0  0  0  0  0  0
  191.4370  177.7270  141.7780 C   0  0  0  0  0  1  0  0  0  0  0  0
  189.9640  177.6590  139.8250 N   0  0  0  0  0  2  0  0  0  0  0  0
  190.3100  176.8060  138.7330 C   0  0  0  0  0  0  0  0  0  0  0  0
  190.7120  175.6300  138.9400 O   0  0  0  0  0  0  0  0  0  0  0  0
  190.2210  177.3230  137.3240 C   0  0  0  0  0  2  0  0  0  0  0  0
  189.7560  176.3220  136.3540 N   0  0  0  0  0  0  0  0  0  0  0  0
  187.2850  176.3690  136.5330 C   0  0  0  0  0  0  0  0  0  0  0  0
  188.5500  175.7660  136.8160 N   0  0  0  0  0  2  0  0  0  0  0  0
  187.2350  177.4630  135.9090 O   0  0  0  0  0  0  0  0  0  0  0  0
  186.0420  175.7150  136.9770 C   0  0  0  0  0  0  0  0  0  0  0  0
  183.7030  175.8490  137.6270 C   0  0  0  0  0  3  0  0  0  0  0  0
  184.8240  173.7040  137.5930 C   0  0  0  0  0  3  0  0  0  0  0  0
  183.6740  174.4650  137.8190 C   0  0  0  0  0  3  0  0  0  0  0  0
  186.0030  174.3260  137.1740 C   0  0  0  0  0  3  0  0  0  0  0  0
  184.8820  176.4710  137.2070 C   0  0  0  0  0  3  0  0  0  0  0  0
  190.7440  175.2510  136.2590 C   0  0  0  0  0  2  0  0  0  0  0  0
  193.4590  175.5770  136.4660 S   0  0  0  0  0  1  0  0  0  0  0  0
  191.9510  175.7130  135.4620 C   0  0  0  0  0  2  0  0  0  0  0  0
  185.9240  178.9800  141.5160 N   0  0  0  0  0  2  0  0  0  0  0  0
  183.3060  179.3870  138.8700 C   0  0  0  0  0  3  0  0  0  0  0  0
  182.1540  179.0090  139.5770 C   0  0  0  0  0  0  0  0  0  0  0  0
  183.5120  178.6210  141.5490 C   0  0  0  0  0  3  0  0  0  0  0  0
  184.5530  179.3810  139.5020 C   0  0  0  0  0  3  0  0  0  0  0  0
  184.6610  178.9920  140.8450 C   0  0  0  0  0  0  0  0  0  0  0  0
  182.2650  178.6270  140.9180 C   0  0  0  0  0  3  0  0  0  0  0  0
  180.8920  179.0010  138.9730 O   0  0  0  0  0  0  0  0  0  0  0  0
  179.7100  178.6370  139.6710 C   0  0  0  0  0  1  0  0  0  0  0  0
  1  6  1  0  0  0  0
  2 11  1  0  0  0  0
  2 12  1  1  0  0  0
  3 16  1  6  0  0  0
  3 10  1  0  0  0  0
  4  8  2  0  0  0  0
  5  1  2  0  0  0  0
  7  9  2  0  0  0  0
  7  4  1  0  0  0  0
  8  1  1  0  0  0  0
  9  5  1  0  0  0  0
 11 10  1  6  0  0  0
 11  7  1  0  0  0  0
 12 15  1  0  0  0  0
 13 35  1  6  0  0  0
 13  2  1  0  0  0  0
 14  3  1  0  0  0  0
 14 13  1  0  0  0  0
 15  4  1  0  0  0  0
 16 17  1  1  0  0  0
 18 16  1  0  0  0  0
 19 20  2  0  0  0  0
 19 18  1  0  0  0  0
 21 19  1  0  0  0  0
 22 24  1  0  0  0  0
 22 21  1  0  0  0  0
 23 24  1  0  0  0  0
 23 26  1  0  0  0  0
 25 23  2  0  0  0  0
 26 30  2  0  0  0  0
 26 31  1  0  0  0  0
 27 29  1  0  0  0  0
 28 29  2  0  0  0  0
 30 28  1  0  0  0  0
 31 27  2  0  0  0  0
 32 22  1  0  0  0  0
 34 32  1  0  0  0  0
 34 33  1  0  0  0  0
 36 39  2  0  0  0  0
 36 37  1  0  0  0  0
 37 41  2  0  0  0  0
 39 40  1  0  0  0  0
 40 35  1  0  0  0  0
 40 38  2  0  0  0  0
 41 38  1  0  0  0  0
 42 37  1  0  0  0  0
 42 43  1  0  0  0  0
M  END
>  <MODEL>
9

>  <REMARK>
 VINA RESULT:      -7.9      2.326      5.275
  Name = 
  11 active torsions:
  status: ('A' for Active; 'I' for Inactive)
    1  A    between atoms: N_1  and  C_34
    2  A    between atoms: N_1  and  C_35
    3  A    between atoms: C_2  and  N_6
    4  A    between atoms: C_2  and  C_13
    5  A    between atoms: C_3  and  N_4
    6  A    between atoms: C_3  and  C_12
    7  A    between atoms: N_4  and  C_15
    8  A    between atoms: N_4  and  N_22
    9  A    between atoms: C_11  and  C_14
   10  A    between atoms: C_15  and  C_42
   11  A    between atoms: C_19  and  O_25
                            x       y       z     vdW  Elec       q    Type
                         _______ _______ _______ _____ _____    ______ ____

>  <TORSDO>
F 11

$$$$
