=
 OpenBabel10262420203D

 55 59  0  0  1  0  0  0  0  0999 V2000
  184.2030  178.2010  139.8640 C   0  0  2  0  0  3  0  0  0  0  0  0
  183.3050  179.2260  139.1860 C   0  0  0  0  0  2  0  0  0  0  0  0
  183.1030  177.7460  138.9010 C   0  0  1  0  0  0  0  0  0  0  0  0
  182.8400  174.8310  136.7940 C   0  0  0  0  0  0  0  0  0  0  0  0
  186.6120  175.1890  136.3690 C   0  0  1  0  0  3  0  0  0  0  0  0
  185.7960  176.1730  135.7890 O   0  0  0  0  0  0  0  0  0  0  0  0
  183.6350  177.1680  137.6250 C   0  0  0  0  0  0  0  0  0  0  0  0
  184.2300  172.2390  137.3360 C   0  0  0  0  0  1  0  0  0  0  0  0
  183.2080  176.0070  137.2070 C   0  0  0  0  0  0  0  0  0  0  0  0
  184.5550  177.9740  136.7630 C   0  0  0  0  0  2  0  0  0  0  0  0
  182.8500  173.3530  134.9300 O   0  0  0  0  0  1  0  0  0  0  0  0
  184.8020  173.2660  136.3690 C   0  0  1  0  0  0  0  0  0  0  0  0
  181.7230  174.2210  137.3500 O   0  0  0  0  0  1  0  0  0  0  0  0
  185.8180  174.1220  137.1470 C   0  0  0  0  0  2  0  0  0  0  0  0
  185.9250  177.3110  136.6020 C   0  0  2  0  0  3  0  0  0  0  0  0
  185.4550  172.5680  135.3520 O   0  0  0  0  0  1  0  0  0  0  0  0
  183.6700  174.1210  135.7640 C   0  0  2  0  0  3  0  0  0  0  0  0
  186.9510  179.4830  136.7170 O   0  0  0  0  0  1  0  0  0  0  0  0
  186.8890  178.3130  135.9570 C   0  0  1  0  0  3  0  0  0  0  0  0
  188.1590  177.7690  135.8670 F   0  0  0  0  0  0  0  0  0  0  0  0
  188.9250  174.8620  135.7670 O   0  0  0  0  0  1  0  0  0  0  0  0
  187.6090  174.6140  135.3640 C   0  0  0  0  0  2  0  0  0  0  0  0
  183.8060  178.0450  141.3270 C   0  0  0  0  0  2  0  0  0  0  0  0
  184.4760  179.0600  143.4570 C   0  0  0  0  0  2  0  0  0  0  0  0
  184.7960  178.7390  142.2050 C   0  0  0  0  0  0  0  0  0  0  0  0
  186.1910  178.9330  141.7190 C   0  0  0  0  0  2  0  0  0  0  0  0
  187.0230  177.9460  142.2530 O   0  0  0  0  0  0  0  0  0  0  0  0
  188.1470  177.9400  141.4230 C   0  0  2  0  0  3  0  0  0  0  0  0
  189.2340  178.8500  142.0020 C   0  0  0  0  0  2  0  0  0  0  0  0
  190.2420  178.1020  142.8820 C   0  0  2  0  0  3  0  0  0  0  0  0
  189.0980  176.1090  144.2390 O   0  0  0  0  0  1  0  0  0  0  0  0
  189.3500  176.9890  146.3580 C   0  0  2  0  0  3  0  0  0  0  0  0
  191.1120  177.8950  145.2050 C   0  0  0  0  0  2  0  0  0  0  0  0
  189.6310  178.2140  145.4920 C   0  0  1  0  0  0  0  0  0  0  0  0
  188.6050  177.1130  145.0760 C   0  0  1  0  0  3  0  0  0  0  0  0
  190.4060  178.7710  144.2500 C   0  0  2  0  0  3  0  0  0  0  0  0
  188.4540  177.3900  147.5140 C   0  0  2  0  0  3  0  0  0  0  0  0
  189.2340  178.2490  148.4890 C   0  0  0  0  0  1  0  0  0  0  0  0
  187.9970  176.2630  148.1650 F   0  0  0  0  0  0  0  0  0  0  0  0
  191.5080  177.0310  141.0520 C   0  0  1  0  0  3  0  0  0  0  0  0
  192.0490  176.6510  142.2960 O   0  0  0  0  0  0  0  0  0  0  0  0
  191.5920  177.9770  142.1880 C   0  0  2  0  0  3  0  0  0  0  0  0
  192.6400  177.3100  140.0860 C   0  0  0  0  0  2  0  0  0  0  0  0
  193.2310  176.0710  138.3590 C   0  0  0  0  0  1  0  0  0  0  0  0
  192.2480  176.9560  138.7940 O   0  0  0  0  0  0  0  0  0  0  0  0
  187.7680  178.3270  139.9900 C   0  0  0  0  0  2  0  0  0  0  0  0
  188.7950  177.9190  138.9820 C   0  0  0  0  0  0  0  0  0  0  0  0
  188.9580  176.5810  138.6460 O   0  0  0  0  0  1  0  0  0  0  0  0
  189.5400  178.7920  138.4620 O   0  0  0  0  0  0  0  0  0  0  0  0
  182.0040  177.1150  139.5100 O   0  0  0  0  0  0  0  0  0  0  0  0
  180.8560  177.8050  139.0900 C   0  0  0  0  0  2  0  0  0  0  0  0
  179.9220  178.0520  140.2640 C   0  0  1  0  0  0  0  0  0  0  0  0
  180.6390  178.5520  141.3350 F   0  0  0  0  0  0  0  0  0  0  0  0
  178.9310  178.9620  139.9000 O   0  0  0  0  0  1  0  0  0  0  0  0
  179.2760  176.7430  140.6710 C   0  0  0  0  0  1  0  0  0  0  0  0
  1 23  1  1  0  0  0
  2  1  1  0  0  0  0
  3  2  1  0  0  0  0
  3 50  1  1  0  0  0
  3  1  1  0  0  0  0
  4  9  2  0  0  0  0
  4 13  1  0  0  0  0
  5 22  1  6  0  0  0
  5 14  1  0  0  0  0
  6  5  1  0  0  0  0
  6 15  1  0  0  0  0
  7  3  1  0  0  0  0
  9  7  2  0  0  0  0
 10  7  1  0  0  0  0
 12 14  1  0  0  0  0
 12  8  1  1  0  0  0
 15 19  1  6  0  0  0
 15 10  1  0  0  0  0
 16 12  1  0  0  0  0
 17 11  1  1  0  0  0
 17 12  1  0  0  0  0
 17  4  1  0  0  0  0
 19 20  1  1  0  0  0
 19 18  1  0  0  0  0
 22 21  1  0  0  0  0
 23 25  1  0  0  0  0
 25 24  2  0  0  0  0
 26 25  1  0  0  0  0
 26 27  1  0  0  0  0
 28 46  1  6  0  0  0
 28 29  1  0  0  0  0
 28 27  1  0  0  0  0
 30 29  1  6  0  0  0
 32 37  1  1  0  0  0
 34 33  1  6  0  0  0
 34 32  1  0  0  0  0
 35 31  1  6  0  0  0
 35 34  1  0  0  0  0
 35 32  1  0  0  0  0
 36 30  1  6  0  0  0
 36 33  1  0  0  0  0
 36 34  1  0  0  0  0
 37 39  1  0  0  0  0
 37 38  1  1  0  0  0
 40 43  1  6  0  0  0
 40 42  1  0  0  0  0
 40 41  1  0  0  0  0
 42 41  1  0  0  0  0
 42 30  1  1  0  0  0
 44 45  1  0  0  0  0
 45 43  1  0  0  0  0
 47 46  1  0  0  0  0
 48 47  1  0  0  0  0
 49 47  2  0  0  0  0
 51 50  1  0  0  0  0
 51 52  1  0  0  0  0
 52 55  1  1  0  0  0
 52 53  1  0  0  0  0
 54 52  1  0  0  0  0
M  END
>  <MODEL>
1

>  <REMARK>
 VINA RESULT:      -6.5      0.000      0.000
  Name = 
  20 active torsions:
  status: ('A' for Active; 'I' for Inactive)
    1  A    between atoms: C_2  and  C_24
    2  A    between atoms: C_3  and  C_14
    3  A    between atoms: C_4  and  C_37
    4  A    between atoms: C_8  and  C_43
    5  A    between atoms: C_9  and  C_33
    6  A    between atoms: C_9  and  C_49
    7  A    between atoms: C_10  and  C_32
    8  A    between atoms: C_16  and  C_17
    9  A    between atoms: C_17  and  O_23
   10  A    between atoms: C_19  and  C_40
   11  A    between atoms: C_19  and  O_45
   12  A    between atoms: C_20  and  C_46
   13  A    between atoms: C_24  and  C_49
   14  A    between atoms: C_27  and  C_54
   15  A    between atoms: C_33  and  C_36
   16  A    between atoms: C_33  and  C_52
   17  A    between atoms: C_37  and  C_40
   18  A    between atoms: C_43  and  O_51
   19  A    between atoms: O_45  and  C_49
   20  A    between atoms: O_51  and  C_54
                            x       y       z     vdW  Elec       q    Type
                         _______ _______ _______ _____ _____    ______ ____

>  <TORSDO>
F 20

$$$$
=
 OpenBabel10262420203D

 55 59  0  0  1  0  0  0  0  0999 V2000
  184.3730  177.8770  139.9990 C   0  0  2  0  0  3  0  0  0  0  0  0
  184.1270  179.1960  139.2820 C   0  0  0  0  0  2  0  0  0  0  0  0
  183.5660  177.9090  138.7000 C   0  0  1  0  0  0  0  0  0  0  0  0
  183.3230  175.0850  136.4680 C   0  0  0  0  0  0  0  0  0  0  0  0
  187.1030  174.8280  136.8940 C   0  0  1  0  0  3  0  0  0  0  0  0
  186.6020  175.9350  136.1900 O   0  0  0  0  0  0  0  0  0  0  0  0
  184.2700  177.2580  137.5490 C   0  0  0  0  0  0  0  0  0  0  0  0
  184.1330  172.2990  137.1950 C   0  0  0  0  0  1  0  0  0  0  0  0
  183.7700  176.1840  137.0000 C   0  0  0  0  0  0  0  0  0  0  0  0
  185.4740  177.9080  136.9420 C   0  0  0  0  0  2  0  0  0  0  0  0
  183.5150  173.6350  134.5940 O   0  0  0  0  0  1  0  0  0  0  0  0
  185.0600  173.2240  136.4200 C   0  0  1  0  0  0  0  0  0  0  0  0
  182.0290  174.6620  136.7420 O   0  0  0  0  0  1  0  0  0  0  0  0
  185.9990  173.9010  137.4350 C   0  0  0  0  0  2  0  0  0  0  0  0
  186.7240  177.0330  137.0570 C   0  0  2  0  0  3  0  0  0  0  0  0
  185.8040  172.4350  135.5430 O   0  0  0  0  0  1  0  0  0  0  0  0
  184.2390  174.2550  135.6170 C   0  0  2  0  0  3  0  0  0  0  0  0
  187.8180  179.1710  137.1640 O   0  0  0  0  0  1  0  0  0  0  0  0
  187.9520  177.8680  136.6800 C   0  0  1  0  0  3  0  0  0  0  0  0
  189.0990  177.3070  137.2160 F   0  0  0  0  0  0  0  0  0  0  0  0
  189.4610  174.5980  136.4420 O   0  0  0  0  0  1  0  0  0  0  0  0
  188.1950  174.1040  136.1090 C   0  0  0  0  0  2  0  0  0  0  0  0
  183.4910  177.7840  141.2390 C   0  0  0  0  0  2  0  0  0  0  0  0
  183.5320  179.3640  143.1140 C   0  0  0  0  0  2  0  0  0  0  0  0
  184.1660  178.4360  142.4010 C   0  0  0  0  0  0  0  0  0  0  0  0
  185.4960  177.9330  142.8470 C   0  0  0  0  0  2  0  0  0  0  0  0
  186.0840  178.8510  143.7200 O   0  0  0  0  0  0  0  0  0  0  0  0
  186.7630  178.0680  144.6570 C   0  0  2  0  0  3  0  0  0  0  0  0
  187.4290  176.8760  143.9640 C   0  0  0  0  0  2  0  0  0  0  0  0
  188.9600  176.9220  144.0180 C   0  0  2  0  0  3  0  0  0  0  0  0
  190.6060  178.7750  143.0260 O   0  0  0  0  0  1  0  0  0  0  0  0
  191.6770  177.4430  141.4750 C   0  0  2  0  0  3  0  0  0  0  0  0
  191.0630  175.9530  143.1050 C   0  0  0  0  0  2  0  0  0  0  0  0
  190.4690  176.5780  141.8270 C   0  0  1  0  0  0  0  0  0  0  0  0
  190.4020  178.1370  141.8000 C   0  0  1  0  0  3  0  0  0  0  0  0
  189.5930  175.9880  142.9830 C   0  0  2  0  0  3  0  0  0  0  0  0
  191.8830  177.4230  139.9730 C   0  0  2  0  0  3  0  0  0  0  0  0
  191.0610  176.3080  139.3590 C   0  0  0  0  0  1  0  0  0  0  0  0
  193.2170  177.2170  139.6860 F   0  0  0  0  0  0  0  0  0  0  0  0
  189.6510  177.8290  146.2090 C   0  0  1  0  0  3  0  0  0  0  0  0
  190.7380  177.1770  145.5940 O   0  0  0  0  0  0  0  0  0  0  0  0
  189.4710  176.5930  145.4140 C   0  0  2  0  0  3  0  0  0  0  0  0
  189.6340  177.4800  147.6820 C   0  0  0  0  0  2  0  0  0  0  0  0
  187.9090  177.9200  148.9850 C   0  0  0  0  0  1  0  0  0  0  0  0
  188.3680  177.0110  148.0350 O   0  0  0  0  0  0  0  0  0  0  0  0
  185.8240  177.6320  145.7860 C   0  0  0  0  0  2  0  0  0  0  0  0
  185.1080  178.7780  146.4270 C   0  0  0  0  0  0  0  0  0  0  0  0
  185.7750  179.6190  147.3090 O   0  0  0  0  0  1  0  0  0  0  0  0
  183.8840  178.9600  146.1920 O   0  0  0  0  0  0  0  0  0  0  0  0
  182.1860  177.6790  138.8510 O   0  0  0  0  0  0  0  0  0  0  0  0
  181.5300  178.8330  138.3970 C   0  0  0  0  0  2  0  0  0  0  0  0
  180.2060  179.0140  139.1210 C   0  0  1  0  0  0  0  0  0  0  0  0
  179.5630  180.1420  138.6450 F   0  0  0  0  0  0  0  0  0  0  0  0
  179.3970  177.8960  138.9190 O   0  0  0  0  0  1  0  0  0  0  0  0
  180.4680  179.1830  140.6040 C   0  0  0  0  0  1  0  0  0  0  0  0
  1 23  1  1  0  0  0
  2  1  1  0  0  0  0
  3 50  1  1  0  0  0
  3  2  1  0  0  0  0
  3  1  1  0  0  0  0
  4 13  1  0  0  0  0
  4  9  2  0  0  0  0
  5 22  1  6  0  0  0
  5 14  1  0  0  0  0
  6  5  1  0  0  0  0
  6 15  1  0  0  0  0
  7  3  1  0  0  0  0
  9  7  2  0  0  0  0
 10 15  1  0  0  0  0
 10  7  1  0  0  0  0
 12  8  1  1  0  0  0
 12 14  1  0  0  0  0
 15 19  1  6  0  0  0
 16 12  1  0  0  0  0
 17 11  1  6  0  0  0
 17 12  1  0  0  0  0
 17  4  1  0  0  0  0
 19 18  1  1  0  0  0
 19 20  1  0  0  0  0
 22 21  1  0  0  0  0
 23 25  1  0  0  0  0
 25 26  1  0  0  0  0
 25 24  2  0  0  0  0
 26 27  1  0  0  0  0
 27 28  1  0  0  0  0
 28 29  1  6  0  0  0
 28 46  1  0  0  0  0
 30 29  1  1  0  0  0
 32 37  1  6  0  0  0
 32 35  1  0  0  0  0
 32 34  1  0  0  0  0
 34 36  1  0  0  0  0
 34 33  1  1  0  0  0
 35 34  1  0  0  0  0
 35 31  1  1  0  0  0
 36 33  1  0  0  0  0
 36 30  1  1  0  0  0
 37 38  1  6  0  0  0
 39 37  1  0  0  0  0
 40 43  1  1  0  0  0
 41 40  1  0  0  0  0
 42 30  1  6  0  0  0
 42 41  1  0  0  0  0
 42 40  1  0  0  0  0
 43 45  1  0  0  0  0
 45 44  1  0  0  0  0
 46 47  1  0  0  0  0
 47 48  1  0  0  0  0
 49 47  2  0  0  0  0
 51 50  1  0  0  0  0
 51 52  1  0  0  0  0
 52 55  1  1  0  0  0
 53 52  1  0  0  0  0
 54 52  1  0  0  0  0
M  END
>  <MODEL>
2

>  <REMARK>
 VINA RESULT:      -6.4      2.090      4.458
  Name = 
  20 active torsions:
  status: ('A' for Active; 'I' for Inactive)
    1  A    between atoms: C_2  and  C_24
    2  A    between atoms: C_3  and  C_14
    3  A    between atoms: C_4  and  C_37
    4  A    between atoms: C_8  and  C_43
    5  A    between atoms: C_9  and  C_33
    6  A    between atoms: C_9  and  C_49
    7  A    between atoms: C_10  and  C_32
    8  A    between atoms: C_16  and  C_17
    9  A    between atoms: C_17  and  O_23
   10  A    between atoms: C_19  and  C_40
   11  A    between atoms: C_19  and  O_45
   12  A    between atoms: C_20  and  C_46
   13  A    between atoms: C_24  and  C_49
   14  A    between atoms: C_27  and  C_54
   15  A    between atoms: C_33  and  C_36
   16  A    between atoms: C_33  and  C_52
   17  A    between atoms: C_37  and  C_40
   18  A    between atoms: C_43  and  O_51
   19  A    between atoms: O_45  and  C_49
   20  A    between atoms: O_51  and  C_54
                            x       y       z     vdW  Elec       q    Type
                         _______ _______ _______ _____ _____    ______ ____

>  <TORSDO>
F 20

$$$$
=
 OpenBabel10262420203D

 55 59  0  0  1  0  0  0  0  0999 V2000
  184.3710  178.1800  139.1810 C   0  0  2  0  0  3  0  0  0  0  0  0
  183.2400  178.8630  138.4260 C   0  0  0  0  0  2  0  0  0  0  0  0
  183.2980  177.3450  138.4800 C   0  0  1  0  0  0  0  0  0  0  0  0
  182.5740  174.4730  136.4210 C   0  0  0  0  0  0  0  0  0  0  0  0
  186.3420  173.8890  136.4660 C   0  0  1  0  0  3  0  0  0  0  0  0
  185.8650  175.0090  135.7660 O   0  0  0  0  0  0  0  0  0  0  0  0
  183.8160  176.5900  137.2940 C   0  0  0  0  0  0  0  0  0  0  0  0
  183.2120  171.6540  137.1900 C   0  0  0  0  0  1  0  0  0  0  0  0
  183.1690  175.5460  136.8510 C   0  0  0  0  0  0  0  0  0  0  0  0
  185.0000  177.1040  136.5370 C   0  0  0  0  0  2  0  0  0  0  0  0
  182.4380  172.9420  134.6060 O   0  0  0  0  0  1  0  0  0  0  0  0
  184.1270  172.4610  136.2810 C   0  0  1  0  0  0  0  0  0  0  0  0
  181.2840  174.1810  136.8460 O   0  0  0  0  0  1  0  0  0  0  0  0
  185.2250  173.0870  137.1610 C   0  0  0  0  0  2  0  0  0  0  0  0
  186.1740  176.1230  136.5640 C   0  0  2  0  0  3  0  0  0  0  0  0
  184.7030  171.5740  135.3700 O   0  0  0  0  0  1  0  0  0  0  0  0
  183.3180  173.5310  135.5190 C   0  0  2  0  0  3  0  0  0  0  0  0
  187.3510  178.2000  136.2740 O   0  0  0  0  0  1  0  0  0  0  0  0
  187.4230  176.8280  136.0230 C   0  0  1  0  0  3  0  0  0  0  0  0
  188.5610  176.3210  136.6270 F   0  0  0  0  0  0  0  0  0  0  0  0
  188.3150  172.5060  136.3770 O   0  0  0  0  0  1  0  0  0  0  0  0
  187.2760  173.0390  135.6070 C   0  0  0  0  0  2  0  0  0  0  0  0
  184.1400  178.2960  140.6830 C   0  0  0  0  0  2  0  0  0  0  0  0
  185.2460  179.5540  142.4740 C   0  0  0  0  0  2  0  0  0  0  0  0
  185.3560  178.8500  141.3500 C   0  0  0  0  0  0  0  0  0  0  0  0
  186.7030  178.4830  140.8310 C   0  0  0  0  0  2  0  0  0  0  0  0
  187.6930  178.9620  141.6910 O   0  0  0  0  0  0  0  0  0  0  0  0
  188.7210  178.0180  141.6140 C   0  0  2  0  0  3  0  0  0  0  0  0
  189.6830  178.1900  142.7930 C   0  0  0  0  0  2  0  0  0  0  0  0
  189.3380  177.2970  143.9900 C   0  0  2  0  0  3  0  0  0  0  0  0
  186.8780  176.2870  144.2270 O   0  0  0  0  0  1  0  0  0  0  0  0
  186.2540  177.4280  146.1330 C   0  0  2  0  0  3  0  0  0  0  0  0
  188.5310  177.2690  146.3450 C   0  0  0  0  0  2  0  0  0  0  0  0
  187.4920  178.2140  145.7080 C   0  0  1  0  0  0  0  0  0  0  0  0
  186.5200  177.5600  144.6750 C   0  0  1  0  0  3  0  0  0  0  0  0
  188.9800  178.1240  145.2290 C   0  0  2  0  0  3  0  0  0  0  0  0
  185.1650  178.4000  146.5460 C   0  0  2  0  0  3  0  0  0  0  0  0
  184.5850  179.0690  145.3160 C   0  0  0  0  0  1  0  0  0  0  0  0
  185.6890  179.3630  147.3830 F   0  0  0  0  0  0  0  0  0  0  0  0
  191.3670  176.9030  145.3390 C   0  0  1  0  0  3  0  0  0  0  0  0
  191.7000  176.9380  143.9710 O   0  0  0  0  0  0  0  0  0  0  0  0
  190.4740  176.3340  144.3040 C   0  0  2  0  0  3  0  0  0  0  0  0
  192.1350  175.7810  146.0060 C   0  0  0  0  0  2  0  0  0  0  0  0
  192.8330  175.7570  148.0980 C   0  0  0  0  0  1  0  0  0  0  0  0
  191.6870  175.6260  147.3190 O   0  0  0  0  0  0  0  0  0  0  0  0
  189.4370  178.1040  140.2630 C   0  0  0  0  0  2  0  0  0  0  0  0
  190.6330  177.2080  140.1760 C   0  0  0  0  0  0  0  0  0  0  0  0
  191.8930  177.6830  140.5160 O   0  0  0  0  0  1  0  0  0  0  0  0
  190.4990  176.0280  139.7590 O   0  0  0  0  0  0  0  0  0  0  0  0
  182.3950  176.6940  139.3400 O   0  0  0  0  0  0  0  0  0  0  0  0
  181.1060  177.0780  138.9400 C   0  0  0  0  0  2  0  0  0  0  0  0
  180.2440  177.3970  140.1520 C   0  0  1  0  0  0  0  0  0  0  0  0
  181.0150  177.9980  141.1290 F   0  0  0  0  0  0  0  0  0  0  0  0
  179.2060  178.2530  139.7850 O   0  0  0  0  0  1  0  0  0  0  0  0
  179.6630  176.1100  140.7030 C   0  0  0  0  0  1  0  0  0  0  0  0
  1 23  1  1  0  0  0
  2  3  1  0  0  0  0
  2  1  1  0  0  0  0
  3  1  1  0  0  0  0
  3 50  1  1  0  0  0
  4 13  1  0  0  0  0
  4  9  2  0  0  0  0
  5 22  1  6  0  0  0
  5 14  1  0  0  0  0
  6  5  1  0  0  0  0
  6 15  1  0  0  0  0
  7  3  1  0  0  0  0
  9  7  2  0  0  0  0
 10 15  1  0  0  0  0
 10  7  1  0  0  0  0
 12 14  1  0  0  0  0
 12  8  1  1  0  0  0
 15 19  1  6  0  0  0
 16 12  1  0  0  0  0
 17 11  1  6  0  0  0
 17 12  1  0  0  0  0
 17  4  1  0  0  0  0
 19 18  1  1  0  0  0
 19 20  1  0  0  0  0
 22 21  1  0  0  0  0
 23 25  1  0  0  0  0
 25 24  2  0  0  0  0
 26 25  1  0  0  0  0
 26 27  1  0  0  0  0
 28 46  1  6  0  0  0
 28 27  1  0  0  0  0
 28 29  1  0  0  0  0
 30 29  1  6  0  0  0
 32 37  1  6  0  0  0
 34 32  1  0  0  0  0
 34 33  1  6  0  0  0
 35 31  1  1  0  0  0
 35 34  1  0  0  0  0
 35 32  1  0  0  0  0
 36 30  1  6  0  0  0
 36 34  1  0  0  0  0
 36 33  1  0  0  0  0
 37 38  1  6  0  0  0
 37 39  1  0  0  0  0
 40 43  1  1  0  0  0
 41 42  1  0  0  0  0
 41 40  1  0  0  0  0
 42 30  1  6  0  0  0
 42 40  1  0  0  0  0
 43 45  1  0  0  0  0
 45 44  1  0  0  0  0
 47 46  1  0  0  0  0
 47 48  1  0  0  0  0
 49 47  2  0  0  0  0
 51 50  1  0  0  0  0
 51 52  1  0  0  0  0
 52 55  1  1  0  0  0
 52 53  1  0  0  0  0
 54 52  1  0  0  0  0
M  END
>  <MODEL>
3

>  <REMARK>
 VINA RESULT:      -6.2      1.640      2.734
  Name = 
  20 active torsions:
  status: ('A' for Active; 'I' for Inactive)
    1  A    between atoms: C_2  and  C_24
    2  A    between atoms: C_3  and  C_14
    3  A    between atoms: C_4  and  C_37
    4  A    between atoms: C_8  and  C_43
    5  A    between atoms: C_9  and  C_33
    6  A    between atoms: C_9  and  C_49
    7  A    between atoms: C_10  and  C_32
    8  A    between atoms: C_16  and  C_17
    9  A    between atoms: C_17  and  O_23
   10  A    between atoms: C_19  and  C_40
   11  A    between atoms: C_19  and  O_45
   12  A    between atoms: C_20  and  C_46
   13  A    between atoms: C_24  and  C_49
   14  A    between atoms: C_27  and  C_54
   15  A    between atoms: C_33  and  C_36
   16  A    between atoms: C_33  and  C_52
   17  A    between atoms: C_37  and  C_40
   18  A    between atoms: C_43  and  O_51
   19  A    between atoms: O_45  and  C_49
   20  A    between atoms: O_51  and  C_54
                            x       y       z     vdW  Elec       q    Type
                         _______ _______ _______ _____ _____    ______ ____

>  <TORSDO>
F 20

$$$$
=
 OpenBabel10262420203D

 55 59  0  0  1  0  0  0  0  0999 V2000
  183.7700  178.0640  140.5540 C   0  0  2  0  0  3  0  0  0  0  0  0
  184.6120  179.1200  139.8520 C   0  0  0  0  0  2  0  0  0  0  0  0
  183.2310  178.7820  139.3140 C   0  0  1  0  0  0  0  0  0  0  0  0
  180.7750  177.0940  137.2830 C   0  0  0  0  0  0  0  0  0  0  0  0
  183.2640  174.2060  137.2350 C   0  0  1  0  0  3  0  0  0  0  0  0
  183.6130  175.3770  136.5440 O   0  0  0  0  0  0  0  0  0  0  0  0
  183.1110  177.8880  138.1180 C   0  0  0  0  0  0  0  0  0  0  0  0
  179.4490  174.5230  138.0450 C   0  0  0  0  0  1  0  0  0  0  0  0
  181.9320  177.5190  137.6940 C   0  0  0  0  0  0  0  0  0  0  0  0
  184.3290  177.5220  137.3300 C   0  0  0  0  0  2  0  0  0  0  0  0
  179.6400  176.0410  135.4770 O   0  0  0  0  0  1  0  0  0  0  0  0
  180.6500  174.5570  137.1100 C   0  0  1  0  0  0  0  0  0  0  0  0
  179.6130  177.7010  137.7410 O   0  0  0  0  0  1  0  0  0  0  0  0
  181.9090  174.3090  137.9610 C   0  0  0  0  0  2  0  0  0  0  0  0
  184.5880  176.0140  137.3300 C   0  0  2  0  0  3  0  0  0  0  0  0
  180.4930  173.5220  136.1880 O   0  0  0  0  0  1  0  0  0  0  0  0
  180.7110  175.9060  136.3660 C   0  0  2  0  0  3  0  0  0  0  0  0
  186.6160  174.7300  137.4730 O   0  0  0  0  0  1  0  0  0  0  0  0
  185.9830  175.7490  136.7560 C   0  0  1  0  0  3  0  0  0  0  0  0
  185.8940  175.3700  135.4270 F   0  0  0  0  0  0  0  0  0  0  0  0
  183.2440  171.7980  137.1090 O   0  0  0  0  0  1  0  0  0  0  0  0
  183.4060  172.9650  136.3550 C   0  0  0  0  0  2  0  0  0  0  0  0
  183.2040  178.6270  141.8520 C   0  0  0  0  0  2  0  0  0  0  0  0
  184.0590  179.6000  143.9350 C   0  0  0  0  0  2  0  0  0  0  0  0
  184.3130  178.9610  142.7950 C   0  0  0  0  0  0  0  0  0  0  0  0
  185.6830  178.4430  142.5220 C   0  0  0  0  0  2  0  0  0  0  0  0
  185.8630  177.2140  143.1600 O   0  0  0  0  0  0  0  0  0  0  0  0
  186.7730  177.4760  144.1880 C   0  0  2  0  0  3  0  0  0  0  0  0
  188.0410  176.6400  143.9950 C   0  0  0  0  0  2  0  0  0  0  0  0
  189.0810  177.3180  143.0960 C   0  0  2  0  0  3  0  0  0  0  0  0
  188.8250  179.4020  141.4470 O   0  0  0  0  0  1  0  0  0  0  0  0
  189.2780  178.2970  139.4730 C   0  0  2  0  0  3  0  0  0  0  0  0
  190.4480  177.0850  141.0280 C   0  0  0  0  0  2  0  0  0  0  0  0
  189.0320  177.1250  140.4210 C   0  0  1  0  0  0  0  0  0  0  0  0
  188.2720  178.4830  140.5530 C   0  0  1  0  0  3  0  0  0  0  0  0
  189.3470  176.5080  141.8240 C   0  0  2  0  0  3  0  0  0  0  0  0
  188.5740  178.0300  138.1570 C   0  0  2  0  0  3  0  0  0  0  0  0
  189.0650  179.0080  137.1080 C   0  0  0  0  0  1  0  0  0  0  0  0
  187.2110  178.1790  138.3150 F   0  0  0  0  0  0  0  0  0  0  0  0
  190.1580  177.4980  145.3110 C   0  0  1  0  0  3  0  0  0  0  0  0
  190.2510  178.7280  144.6320 O   0  0  0  0  0  0  0  0  0  0  0  0
  190.3810  177.5660  143.8490 C   0  0  2  0  0  3  0  0  0  0  0  0
  191.4750  177.2160  146.0030 C   0  0  0  0  0  2  0  0  0  0  0  0
  192.3330  175.7680  147.4300 C   0  0  0  0  0  1  0  0  0  0  0  0
  191.5820  175.8470  146.2600 O   0  0  0  0  0  0  0  0  0  0  0  0
  186.1290  177.2430  145.5580 C   0  0  0  0  0  2  0  0  0  0  0  0
  186.5200  178.2710  146.5720 C   0  0  0  0  0  0  0  0  0  0  0  0
  185.6950  179.3590  146.8250 O   0  0  0  0  0  0  0  0  0  0  0  0
  187.6220  178.1660  147.1730 O   0  0  0  0  0  1  0  0  0  0  0  0
  182.1970  179.7030  139.5620 O   0  0  0  0  0  0  0  0  0  0  0  0
  182.4260  180.8040  138.7230 C   0  0  0  0  0  2  0  0  0  0  0  0
  181.1120  181.3390  138.1740 C   0  0  1  0  0  0  0  0  0  0  0  0
  181.1720  182.7160  138.0740 F   0  0  0  0  0  0  0  0  0  0  0  0
  180.8650  180.7900  136.9160 O   0  0  0  0  0  1  0  0  0  0  0  0
  179.9870  180.9600  139.1160 C   0  0  0  0  0  1  0  0  0  0  0  0
  1 23  1  1  0  0  0
  2  1  1  0  0  0  0
  3 50  1  1  0  0  0
  3  2  1  0  0  0  0
  3  1  1  0  0  0  0
  4  9  2  0  0  0  0
  4 13  1  0  0  0  0
  5 22  1  6  0  0  0
  5 14  1  0  0  0  0
  6  5  1  0  0  0  0
  6 15  1  0  0  0  0
  7  3  1  0  0  0  0
  9  7  2  0  0  0  0
 10  7  1  0  0  0  0
 12 14  1  0  0  0  0
 12  8  1  1  0  0  0
 15 19  1  6  0  0  0
 15 10  1  0  0  0  0
 16 12  1  0  0  0  0
 17 11  1  1  0  0  0
 17 12  1  0  0  0  0
 17  4  1  0  0  0  0
 19 20  1  6  0  0  0
 19 18  1  0  0  0  0
 22 21  1  0  0  0  0
 23 25  1  0  0  0  0
 25 24  2  0  0  0  0
 26 25  1  0  0  0  0
 26 27  1  0  0  0  0
 27 28  1  0  0  0  0
 28 29  1  6  0  0  0
 28 46  1  0  0  0  0
 30 29  1  1  0  0  0
 32 37  1  6  0  0  0
 32 34  1  0  0  0  0
 32 35  1  0  0  0  0
 33 36  1  0  0  0  0
 34 35  1  0  0  0  0
 34 33  1  1  0  0  0
 34 36  1  0  0  0  0
 35 31  1  1  0  0  0
 36 30  1  1  0  0  0
 37 38  1  6  0  0  0
 37 39  1  0  0  0  0
 40 43  1  1  0  0  0
 41 40  1  0  0  0  0
 42 30  1  6  0  0  0
 42 41  1  0  0  0  0
 42 40  1  0  0  0  0
 43 45  1  0  0  0  0
 45 44  1  0  0  0  0
 46 47  1  0  0  0  0
 47 48  2  0  0  0  0
 47 49  1  0  0  0  0
 51 50  1  0  0  0  0
 52 51  1  0  0  0  0
 52 55  1  1  0  0  0
 53 52  1  0  0  0  0
 54 52  1  0  0  0  0
M  END
>  <MODEL>
4

>  <REMARK>
 VINA RESULT:      -6.2      2.661      4.972
  Name = 
  20 active torsions:
  status: ('A' for Active; 'I' for Inactive)
    1  A    between atoms: C_2  and  C_24
    2  A    between atoms: C_3  and  C_14
    3  A    between atoms: C_4  and  C_37
    4  A    between atoms: C_8  and  C_43
    5  A    between atoms: C_9  and  C_33
    6  A    between atoms: C_9  and  C_49
    7  A    between atoms: C_10  and  C_32
    8  A    between atoms: C_16  and  C_17
    9  A    between atoms: C_17  and  O_23
   10  A    between atoms: C_19  and  C_40
   11  A    between atoms: C_19  and  O_45
   12  A    between atoms: C_20  and  C_46
   13  A    between atoms: C_24  and  C_49
   14  A    between atoms: C_27  and  C_54
   15  A    between atoms: C_33  and  C_36
   16  A    between atoms: C_33  and  C_52
   17  A    between atoms: C_37  and  C_40
   18  A    between atoms: C_43  and  O_51
   19  A    between atoms: O_45  and  C_49
   20  A    between atoms: O_51  and  C_54
                            x       y       z     vdW  Elec       q    Type
                         _______ _______ _______ _____ _____    ______ ____

>  <TORSDO>
F 20

$$$$
=
 OpenBabel10262420203D

 55 59  0  0  1  0  0  0  0  0999 V2000
  183.9440  177.7430  139.7430 C   0  0  2  0  0  3  0  0  0  0  0  0
  183.7720  179.0840  139.0440 C   0  0  0  0  0  2  0  0  0  0  0  0
  183.1120  177.8450  138.4620 C   0  0  1  0  0  0  0  0  0  0  0  0
  182.9300  174.8090  136.5230 C   0  0  0  0  0  0  0  0  0  0  0  0
  186.7390  174.9820  136.4840 C   0  0  1  0  0  3  0  0  0  0  0  0
  186.0360  175.9580  135.7600 O   0  0  0  0  0  0  0  0  0  0  0  0
  183.7460  177.1610  137.2890 C   0  0  0  0  0  0  0  0  0  0  0  0
  184.1310  172.2030  137.3710 C   0  0  0  0  0  1  0  0  0  0  0  0
  183.3090  175.9930  136.9000 C   0  0  0  0  0  0  0  0  0  0  0  0
  184.7880  177.8690  136.4820 C   0  0  0  0  0  2  0  0  0  0  0  0
  183.0640  173.2110  134.7670 O   0  0  0  0  0  1  0  0  0  0  0  0
  184.8490  173.1390  136.4100 C   0  0  1  0  0  0  0  0  0  0  0  0
  181.7340  174.2840  136.9930 O   0  0  0  0  0  1  0  0  0  0  0  0
  185.8180  174.0030  137.2370 C   0  0  0  0  0  2  0  0  0  0  0  0
  186.1340  177.1410  136.5100 C   0  0  2  0  0  3  0  0  0  0  0  0
  185.5700  172.3490  135.5140 O   0  0  0  0  0  1  0  0  0  0  0  0
  183.8290  173.9970  135.6340 C   0  0  2  0  0  3  0  0  0  0  0  0
  186.8430  178.4490  134.6210 O   0  0  0  0  0  1  0  0  0  0  0  0
  187.2070  178.0570  135.9110 C   0  0  1  0  0  3  0  0  0  0  0  0
  187.3660  179.1880  136.6940 F   0  0  0  0  0  0  0  0  0  0  0  0
  188.4460  175.2260  134.7980 O   0  0  0  0  0  1  0  0  0  0  0  0
  187.8060  174.3010  135.6300 C   0  0  0  0  0  2  0  0  0  0  0  0
  183.0840  177.6960  141.0010 C   0  0  0  0  0  2  0  0  0  0  0  0
  183.1520  178.9920  143.0820 C   0  0  0  0  0  2  0  0  0  0  0  0
  183.8150  178.3160  142.1460 C   0  0  0  0  0  0  0  0  0  0  0  0
  185.2710  178.0450  142.3150 C   0  0  0  0  0  2  0  0  0  0  0  0
  185.8070  178.9030  143.2770 O   0  0  0  0  0  0  0  0  0  0  0  0
  186.7640  178.1350  143.9460 C   0  0  2  0  0  3  0  0  0  0  0  0
  187.5040  177.2340  142.9530 C   0  0  0  0  0  2  0  0  0  0  0  0
  189.0290  177.3260  143.0740 C   0  0  2  0  0  3  0  0  0  0  0  0
  190.8740  175.5070  143.7170 O   0  0  0  0  0  1  0  0  0  0  0  0
  191.6410  176.5080  145.6490 C   0  0  2  0  0  3  0  0  0  0  0  0
  190.9070  178.2840  144.4000 C   0  0  0  0  0  2  0  0  0  0  0  0
  190.3400  177.2710  145.4150 C   0  0  1  0  0  0  0  0  0  0  0  0
  190.5050  175.7650  145.0390 C   0  0  1  0  0  3  0  0  0  0  0  0
  189.4540  178.0270  144.3680 C   0  0  2  0  0  3  0  0  0  0  0  0
  191.7540  176.1550  147.1200 C   0  0  2  0  0  3  0  0  0  0  0  0
  191.3480  177.3460  147.9640 C   0  0  0  0  0  1  0  0  0  0  0  0
  193.0560  175.8080  147.4200 F   0  0  0  0  0  0  0  0  0  0  0  0
  189.9940  177.0460  140.8190 C   0  0  1  0  0  3  0  0  0  0  0  0
  190.9600  177.5860  141.6900 O   0  0  0  0  0  0  0  0  0  0  0  0
  189.6360  178.0280  141.8670 C   0  0  2  0  0  3  0  0  0  0  0  0
  190.0830  177.7530  139.4830 C   0  0  0  0  0  2  0  0  0  0  0  0
  190.1870  176.9390  137.4350 C   0  0  0  0  0  1  0  0  0  0  0  0
  190.9070  177.0230  138.6240 O   0  0  0  0  0  0  0  0  0  0  0  0
  186.1230  177.3370  145.0860 C   0  0  0  0  0  2  0  0  0  0  0  0
  185.7680  178.1850  146.2660 C   0  0  0  0  0  0  0  0  0  0  0  0
  186.7280  178.5010  147.2190 O   0  0  0  0  0  1  0  0  0  0  0  0
  184.5830  178.5850  146.4130 O   0  0  0  0  0  0  0  0  0  0  0  0
  181.7240  177.7060  138.6420 O   0  0  0  0  0  0  0  0  0  0  0  0
  181.1200  178.7920  137.9880 C   0  0  0  0  0  2  0  0  0  0  0  0
  180.0440  179.4120  138.8660 C   0  0  1  0  0  0  0  0  0  0  0  0
  179.1810  178.4290  139.3130 F   0  0  0  0  0  0  0  0  0  0  0  0
  180.6310  180.0500  139.9590 O   0  0  0  0  0  1  0  0  0  0  0  0
  179.2620  180.4250  138.0540 C   0  0  0  0  0  1  0  0  0  0  0  0
  1 23  1  1  0  0  0
  2  1  1  0  0  0  0
  3 50  1  1  0  0  0
  3  2  1  0  0  0  0
  3  1  1  0  0  0  0
  4  9  2  0  0  0  0
  4 13  1  0  0  0  0
  5 22  1  6  0  0  0
  5 14  1  0  0  0  0
  6  5  1  0  0  0  0
  6 15  1  0  0  0  0
  7  3  1  0  0  0  0
  9  7  2  0  0  0  0
 10 15  1  0  0  0  0
 10  7  1  0  0  0  0
 12 14  1  0  0  0  0
 12  8  1  1  0  0  0
 15 19  1  6  0  0  0
 16 12  1  0  0  0  0
 17 11  1  1  0  0  0
 17 12  1  0  0  0  0
 17  4  1  0  0  0  0
 19 18  1  6  0  0  0
 19 20  1  0  0  0  0
 21 22  1  0  0  0  0
 23 25  1  0  0  0  0
 25 26  1  0  0  0  0
 25 24  2  0  0  0  0
 26 27  1  0  0  0  0
 27 28  1  0  0  0  0
 28 29  1  6  0  0  0
 28 46  1  0  0  0  0
 30 29  1  6  0  0  0
 32 37  1  1  0  0  0
 34 33  1  6  0  0  0
 34 32  1  0  0  0  0
 35 31  1  6  0  0  0
 35 34  1  0  0  0  0
 35 32  1  0  0  0  0
 36 30  1  6  0  0  0
 36 33  1  0  0  0  0
 36 34  1  0  0  0  0
 37 39  1  0  0  0  0
 37 38  1  1  0  0  0
 40 43  1  6  0  0  0
 40 41  1  0  0  0  0
 40 42  1  0  0  0  0
 41 42  1  0  0  0  0
 42 30  1  1  0  0  0
 44 45  1  0  0  0  0
 45 43  1  0  0  0  0
 46 47  1  0  0  0  0
 47 49  2  0  0  0  0
 47 48  1  0  0  0  0
 51 50  1  0  0  0  0
 51 52  1  0  0  0  0
 52 55  1  6  0  0  0
 52 53  1  0  0  0  0
 52 54  1  0  0  0  0
M  END
>  <MODEL>
5

>  <REMARK>
 VINA RESULT:      -6.1      1.836      2.797
  Name = 
  20 active torsions:
  status: ('A' for Active; 'I' for Inactive)
    1  A    between atoms: C_2  and  C_24
    2  A    between atoms: C_3  and  C_14
    3  A    between atoms: C_4  and  C_37
    4  A    between atoms: C_8  and  C_43
    5  A    between atoms: C_9  and  C_33
    6  A    between atoms: C_9  and  C_49
    7  A    between atoms: C_10  and  C_32
    8  A    between atoms: C_16  and  C_17
    9  A    between atoms: C_17  and  O_23
   10  A    between atoms: C_19  and  C_40
   11  A    between atoms: C_19  and  O_45
   12  A    between atoms: C_20  and  C_46
   13  A    between atoms: C_24  and  C_49
   14  A    between atoms: C_27  and  C_54
   15  A    between atoms: C_33  and  C_36
   16  A    between atoms: C_33  and  C_52
   17  A    between atoms: C_37  and  C_40
   18  A    between atoms: C_43  and  O_51
   19  A    between atoms: O_45  and  C_49
   20  A    between atoms: O_51  and  C_54
                            x       y       z     vdW  Elec       q    Type
                         _______ _______ _______ _____ _____    ______ ____

>  <TORSDO>
F 20

$$$$
=
 OpenBabel10262420203D

 55 59  0  0  1  0  0  0  0  0999 V2000
  183.8260  178.3810  140.1320 C   0  0  2  0  0  3  0  0  0  0  0  0
  183.8560  179.6810  139.3420 C   0  0  0  0  0  2  0  0  0  0  0  0
  182.6660  178.7440  139.2020 C   0  0  1  0  0  0  0  0  0  0  0  0
  180.4690  176.3710  137.6060 C   0  0  0  0  0  0  0  0  0  0  0  0
  183.6510  174.4070  136.8590 C   0  0  1  0  0  3  0  0  0  0  0  0
  183.4680  175.6290  136.1910 O   0  0  0  0  0  0  0  0  0  0  0  0
  182.5720  177.8570  137.9990 C   0  0  0  0  0  0  0  0  0  0  0  0
  180.1880  173.5140  138.4490 C   0  0  0  0  0  1  0  0  0  0  0  0
  181.5000  177.1370  137.8010 C   0  0  0  0  0  0  0  0  0  0  0  0
  183.6450  177.8910  136.9560 C   0  0  0  0  0  2  0  0  0  0  0  0
  179.3510  175.0150  136.0030 O   0  0  0  0  0  1  0  0  0  0  0  0
  181.0920  173.9220  137.2940 C   0  0  1  0  0  0  0  0  0  0  0  0
  179.3030  176.5840  138.3310 O   0  0  0  0  0  1  0  0  0  0  0  0
  182.5180  174.0820  137.8510 C   0  0  0  0  0  2  0  0  0  0  0  0
  184.3460  176.5390  136.8030 C   0  0  2  0  0  3  0  0  0  0  0  0
  181.0650  172.8900  136.3550 O   0  0  0  0  0  1  0  0  0  0  0  0
  180.5760  175.2230  136.6440 C   0  0  2  0  0  3  0  0  0  0  0  0
  185.2400  177.0250  134.6240 O   0  0  0  0  0  1  0  0  0  0  0  0
  185.5990  176.7240  135.9400 C   0  0  1  0  0  3  0  0  0  0  0  0
  186.3780  177.7540  136.4370 F   0  0  0  0  0  0  0  0  0  0  0  0
  184.9920  172.4580  136.3930 O   0  0  0  0  0  1  0  0  0  0  0  0
  183.9740  173.2730  135.8890 C   0  0  0  0  0  2  0  0  0  0  0  0
  183.5190  178.6670  141.5970 C   0  0  0  0  0  2  0  0  0  0  0  0
  184.7870  178.6770  143.6960 C   0  0  0  0  0  2  0  0  0  0  0  0
  184.7880  178.8070  142.3710 C   0  0  0  0  0  0  0  0  0  0  0  0
  186.0780  178.9420  141.6380 C   0  0  0  0  0  2  0  0  0  0  0  0
  187.0090  178.0300  142.1390 O   0  0  0  0  0  0  0  0  0  0  0  0
  188.0170  177.9810  141.1720 C   0  0  2  0  0  3  0  0  0  0  0  0
  189.2130  178.8290  141.6140 C   0  0  0  0  0  2  0  0  0  0  0  0
  190.0910  178.1360  142.6610 C   0  0  2  0  0  3  0  0  0  0  0  0
  189.2690  176.0150  144.0570 O   0  0  0  0  0  1  0  0  0  0  0  0
  189.2490  177.0020  146.1430 C   0  0  2  0  0  3  0  0  0  0  0  0
  190.8680  178.1790  145.0260 C   0  0  0  0  0  2  0  0  0  0  0  0
  189.3410  178.2260  145.2360 C   0  0  1  0  0  0  0  0  0  0  0  0
  188.5580  176.9380  144.8270 C   0  0  1  0  0  3  0  0  0  0  0  0
  190.0600  178.8720  144.0040 C   0  0  2  0  0  3  0  0  0  0  0  0
  188.2380  177.2700  147.2410 C   0  0  2  0  0  3  0  0  0  0  0  0
  187.1180  178.1370  146.7030 C   0  0  0  0  0  1  0  0  0  0  0  0
  188.8510  177.9200  148.2930 F   0  0  0  0  0  0  0  0  0  0  0  0
  191.5710  177.1790  140.9320 C   0  0  1  0  0  3  0  0  0  0  0  0
  191.8880  176.6330  142.1910 O   0  0  0  0  0  0  0  0  0  0  0  0
  191.5250  177.9910  142.1690 C   0  0  2  0  0  3  0  0  0  0  0  0
  192.8540  177.4800  140.1870 C   0  0  0  0  0  2  0  0  0  0  0  0
  191.8010  176.3640  138.6010 C   0  0  0  0  0  1  0  0  0  0  0  0
  193.0520  176.5190  139.1920 O   0  0  0  0  0  0  0  0  0  0  0  0
  187.4780  178.4050  139.8030 C   0  0  0  0  0  2  0  0  0  0  0  0
  188.4790  178.2410  138.7030 C   0  0  0  0  0  0  0  0  0  0  0  0
  188.6840  176.9970  138.1190 O   0  0  0  0  0  0  0  0  0  0  0  0
  189.1630  179.2300  138.3290 O   0  0  0  0  0  1  0  0  0  0  0  0
  181.4750  179.1100  139.8530 O   0  0  0  0  0  0  0  0  0  0  0  0
  181.1230  180.3810  139.3720 C   0  0  0  0  0  2  0  0  0  0  0  0
  179.6130  180.5070  139.2500 C   0  0  1  0  0  0  0  0  0  0  0  0
  179.0040  179.4010  139.8120 F   0  0  0  0  0  0  0  0  0  0  0  0
  179.1780  181.6610  139.9020 O   0  0  0  0  0  1  0  0  0  0  0  0
  179.2360  180.5870  137.7840 C   0  0  0  0  0  1  0  0  0  0  0  0
  1 23  1  1  0  0  0
  2  1  1  0  0  0  0
  3  2  1  0  0  0  0
  3 50  1  1  0  0  0
  3  1  1  0  0  0  0
  4  9  2  0  0  0  0
  4 13  1  0  0  0  0
  5 22  1  6  0  0  0
  5 14  1  0  0  0  0
  6 15  1  0  0  0  0
  6  5  1  0  0  0  0
  7  3  1  0  0  0  0
  9  7  2  0  0  0  0
 10  7  1  0  0  0  0
 12 14  1  0  0  0  0
 12  8  1  1  0  0  0
 15 19  1  6  0  0  0
 15 10  1  0  0  0  0
 16 12  1  0  0  0  0
 17 11  1  1  0  0  0
 17 12  1  0  0  0  0
 17  4  1  0  0  0  0
 19 18  1  6  0  0  0
 19 20  1  0  0  0  0
 22 21  1  0  0  0  0
 23 25  1  0  0  0  0
 25 24  2  0  0  0  0
 26 27  1  0  0  0  0
 26 25  1  0  0  0  0
 28 46  1  6  0  0  0
 28 29  1  0  0  0  0
 28 27  1  0  0  0  0
 30 29  1  6  0  0  0
 32 37  1  1  0  0  0
 34 33  1  6  0  0  0
 34 32  1  0  0  0  0
 35 31  1  6  0  0  0
 35 34  1  0  0  0  0
 35 32  1  0  0  0  0
 36 30  1  6  0  0  0
 36 33  1  0  0  0  0
 36 34  1  0  0  0  0
 37 38  1  6  0  0  0
 37 39  1  0  0  0  0
 40 43  1  6  0  0  0
 40 42  1  0  0  0  0
 40 41  1  0  0  0  0
 42 41  1  0  0  0  0
 42 30  1  1  0  0  0
 44 45  1  0  0  0  0
 45 43  1  0  0  0  0
 47 46  1  0  0  0  0
 48 47  2  0  0  0  0
 49 47  1  0  0  0  0
 51 50  1  0  0  0  0
 52 55  1  6  0  0  0
 52 51  1  0  0  0  0
 52 53  1  0  0  0  0
 52 54  1  0  0  0  0
M  END
>  <MODEL>
6

>  <REMARK>
 VINA RESULT:      -5.9      1.512      2.228
  Name = 
  20 active torsions:
  status: ('A' for Active; 'I' for Inactive)
    1  A    between atoms: C_2  and  C_24
    2  A    between atoms: C_3  and  C_14
    3  A    between atoms: C_4  and  C_37
    4  A    between atoms: C_8  and  C_43
    5  A    between atoms: C_9  and  C_33
    6  A    between atoms: C_9  and  C_49
    7  A    between atoms: C_10  and  C_32
    8  A    between atoms: C_16  and  C_17
    9  A    between atoms: C_17  and  O_23
   10  A    between atoms: C_19  and  C_40
   11  A    between atoms: C_19  and  O_45
   12  A    between atoms: C_20  and  C_46
   13  A    between atoms: C_24  and  C_49
   14  A    between atoms: C_27  and  C_54
   15  A    between atoms: C_33  and  C_36
   16  A    between atoms: C_33  and  C_52
   17  A    between atoms: C_37  and  C_40
   18  A    between atoms: C_43  and  O_51
   19  A    between atoms: O_45  and  C_49
   20  A    between atoms: O_51  and  C_54
                            x       y       z     vdW  Elec       q    Type
                         _______ _______ _______ _____ _____    ______ ____

>  <TORSDO>
F 20

$$$$
=
 OpenBabel10262420203D

 55 59  0  0  1  0  0  0  0  0999 V2000
  183.8340  178.0200  140.5320 C   0  0  2  0  0  3  0  0  0  0  0  0
  183.6360  179.4310  139.9970 C   0  0  0  0  0  2  0  0  0  0  0  0
  182.6590  178.3350  139.6030 C   0  0  1  0  0  0  0  0  0  0  0  0
  180.7910  176.3650  137.2280 C   0  0  0  0  0  0  0  0  0  0  0  0
  184.0710  174.4980  136.6790 C   0  0  1  0  0  3  0  0  0  0  0  0
  183.9970  175.8280  136.2360 O   0  0  0  0  0  0  0  0  0  0  0  0
  182.7830  177.6950  138.2540 C   0  0  0  0  0  0  0  0  0  0  0  0
  180.3920  173.4080  137.4480 C   0  0  0  0  0  1  0  0  0  0  0  0
  181.7670  177.0530  137.7400 C   0  0  0  0  0  0  0  0  0  0  0  0
  184.0200  177.8980  137.4380 C   0  0  0  0  0  2  0  0  0  0  0  0
  179.9800  175.3670  135.2270 O   0  0  0  0  0  1  0  0  0  0  0  0
  181.4790  174.0040  136.5650 C   0  0  1  0  0  0  0  0  0  0  0  0
  179.5160  176.4660  137.7680 O   0  0  0  0  0  1  0  0  0  0  0  0
  182.7850  174.0190  137.3800 C   0  0  0  0  0  2  0  0  0  0  0  0
  184.7480  176.5830  137.1520 C   0  0  2  0  0  3  0  0  0  0  0  0
  181.6250  173.1700  135.4560 O   0  0  0  0  0  1  0  0  0  0  0  0
  181.0740  175.4180  136.0970 C   0  0  2  0  0  3  0  0  0  0  0  0
  186.0410  177.0880  135.1890 O   0  0  0  0  0  1  0  0  0  0  0  0
  186.1300  176.8960  136.5700 C   0  0  1  0  0  3  0  0  0  0  0  0
  186.6480  178.0420  137.1480 F   0  0  0  0  0  0  0  0  0  0  0  0
  184.9120  172.3110  136.1060 O   0  0  0  0  0  1  0  0  0  0  0  0
  184.5670  173.5610  135.5800 C   0  0  0  0  0  2  0  0  0  0  0  0
  183.4250  177.9560  141.9990 C   0  0  0  0  0  2  0  0  0  0  0  0
  183.8910  179.6320  143.7270 C   0  0  0  0  0  2  0  0  0  0  0  0
  184.3620  178.7680  142.8300 C   0  0  0  0  0  0  0  0  0  0  0  0
  185.8250  178.4960  142.7560 C   0  0  0  0  0  2  0  0  0  0  0  0
  186.0770  177.1570  143.0620 O   0  0  0  0  0  0  0  0  0  0  0  0
  187.2250  177.1830  143.8580 C   0  0  2  0  0  3  0  0  0  0  0  0
  188.3220  176.3200  143.2290 C   0  0  0  0  0  2  0  0  0  0  0  0
  189.6960  177.0010  143.2200 C   0  0  2  0  0  3  0  0  0  0  0  0
  191.5300  175.2850  144.1240 O   0  0  0  0  0  1  0  0  0  0  0  0
  192.0540  176.3900  146.0810 C   0  0  2  0  0  3  0  0  0  0  0  0
  191.3880  178.0850  144.6900 C   0  0  0  0  0  2  0  0  0  0  0  0
  190.7570  177.0890  145.6830 C   0  0  1  0  0  0  0  0  0  0  0  0
  191.0170  175.5780  145.3900 C   0  0  1  0  0  3  0  0  0  0  0  0
  189.9570  177.7670  144.5200 C   0  0  2  0  0  3  0  0  0  0  0  0
  192.0260  176.0980  147.5690 C   0  0  2  0  0  3  0  0  0  0  0  0
  191.7540  177.3770  148.3360 C   0  0  0  0  0  1  0  0  0  0  0  0
  193.2420  175.5800  147.9680 F   0  0  0  0  0  0  0  0  0  0  0  0
  190.1340  177.1460  140.7950 C   0  0  1  0  0  3  0  0  0  0  0  0
  191.1500  177.8140  141.5070 O   0  0  0  0  0  0  0  0  0  0  0  0
  189.8450  177.9260  142.0200 C   0  0  2  0  0  3  0  0  0  0  0  0
  189.7590  177.9700  139.5810 C   0  0  0  0  0  2  0  0  0  0  0  0
  189.8660  176.1340  138.3620 C   0  0  0  0  0  1  0  0  0  0  0  0
  190.3680  177.4300  138.4460 O   0  0  0  0  0  0  0  0  0  0  0  0
  186.9010  176.7540  145.2930 C   0  0  0  0  0  2  0  0  0  0  0  0
  186.9300  177.8910  146.2640 C   0  0  0  0  0  0  0  0  0  0  0  0
  187.6610  177.7920  147.4420 O   0  0  0  0  0  1  0  0  0  0  0  0
  186.2600  178.9310  146.0280 O   0  0  0  0  0  0  0  0  0  0  0  0
  181.3960  178.3410  140.2230 O   0  0  0  0  0  0  0  0  0  0  0  0
  180.9220  179.6600  140.1640 C   0  0  0  0  0  2  0  0  0  0  0  0
  180.0440  179.9660  141.3670 C   0  0  1  0  0  0  0  0  0  0  0  0
  180.7970  179.9040  142.5240 F   0  0  0  0  0  0  0  0  0  0  0  0
  179.4890  181.2400  141.2400 O   0  0  0  0  0  1  0  0  0  0  0  0
  178.9310  178.9410  141.4450 C   0  0  0  0  0  1  0  0  0  0  0  0
  1 23  1  1  0  0  0
  2  1  1  0  0  0  0
  3  2  1  0  0  0  0
  3 50  1  1  0  0  0
  3  1  1  0  0  0  0
  4  9  2  0  0  0  0
  4 13  1  0  0  0  0
  5 22  1  6  0  0  0
  5 14  1  0  0  0  0
  6  5  1  0  0  0  0
  6 15  1  0  0  0  0
  7  3  1  0  0  0  0
  9  7  2  0  0  0  0
 10  7  1  0  0  0  0
 12 14  1  0  0  0  0
 12  8  1  1  0  0  0
 15 19  1  6  0  0  0
 15 10  1  0  0  0  0
 16 12  1  0  0  0  0
 17 11  1  6  0  0  0
 17 12  1  0  0  0  0
 17  4  1  0  0  0  0
 19 18  1  6  0  0  0
 19 20  1  0  0  0  0
 22 21  1  0  0  0  0
 23 25  1  0  0  0  0
 25 24  2  0  0  0  0
 26 25  1  0  0  0  0
 26 27  1  0  0  0  0
 27 28  1  0  0  0  0
 28 29  1  6  0  0  0
 28 46  1  0  0  0  0
 30 29  1  1  0  0  0
 32 37  1  1  0  0  0
 34 33  1  6  0  0  0
 34 32  1  0  0  0  0
 35 31  1  6  0  0  0
 35 34  1  0  0  0  0
 35 32  1  0  0  0  0
 36 30  1  6  0  0  0
 36 33  1  0  0  0  0
 36 34  1  0  0  0  0
 37 39  1  0  0  0  0
 37 38  1  1  0  0  0
 40 43  1  6  0  0  0
 40 41  1  0  0  0  0
 40 42  1  0  0  0  0
 41 42  1  0  0  0  0
 42 30  1  1  0  0  0
 44 45  1  0  0  0  0
 45 43  1  0  0  0  0
 46 47  1  0  0  0  0
 47 48  1  0  0  0  0
 49 47  2  0  0  0  0
 51 50  1  0  0  0  0
 51 52  1  0  0  0  0
 52 55  1  1  0  0  0
 52 53  1  0  0  0  0
 54 52  1  0  0  0  0
M  END
>  <MODEL>
7

>  <REMARK>
 VINA RESULT:      -5.8      1.982      3.179
  Name = 
  20 active torsions:
  status: ('A' for Active; 'I' for Inactive)
    1  A    between atoms: C_2  and  C_24
    2  A    between atoms: C_3  and  C_14
    3  A    between atoms: C_4  and  C_37
    4  A    between atoms: C_8  and  C_43
    5  A    between atoms: C_9  and  C_33
    6  A    between atoms: C_9  and  C_49
    7  A    between atoms: C_10  and  C_32
    8  A    between atoms: C_16  and  C_17
    9  A    between atoms: C_17  and  O_23
   10  A    between atoms: C_19  and  C_40
   11  A    between atoms: C_19  and  O_45
   12  A    between atoms: C_20  and  C_46
   13  A    between atoms: C_24  and  C_49
   14  A    between atoms: C_27  and  C_54
   15  A    between atoms: C_33  and  C_36
   16  A    between atoms: C_33  and  C_52
   17  A    between atoms: C_37  and  C_40
   18  A    between atoms: C_43  and  O_51
   19  A    between atoms: O_45  and  C_49
   20  A    between atoms: O_51  and  C_54
                            x       y       z     vdW  Elec       q    Type
                         _______ _______ _______ _____ _____    ______ ____

>  <TORSDO>
F 20

$$$$
=
 OpenBabel10262420203D

 55 59  0  0  1  0  0  0  0  0999 V2000
  183.6270  178.1480  140.6790 C   0  0  2  0  0  3  0  0  0  0  0  0
  184.4440  179.2880  140.0860 C   0  0  0  0  0  2  0  0  0  0  0  0
  183.1570  178.8510  139.4030 C   0  0  1  0  0  0  0  0  0  0  0  0
  181.1160  176.7550  137.2940 C   0  0  0  0  0  0  0  0  0  0  0  0
  184.1370  174.4300  137.2220 C   0  0  1  0  0  3  0  0  0  0  0  0
  184.2510  175.6650  136.5630 O   0  0  0  0  0  0  0  0  0  0  0  0
  183.2340  177.9820  138.1860 C   0  0  0  0  0  0  0  0  0  0  0  0
  180.3270  173.9510  137.9760 C   0  0  0  0  0  1  0  0  0  0  0  0
  182.1580  177.3940  137.7340 C   0  0  0  0  0  0  0  0  0  0  0  0
  184.5090  177.8900  137.4090 C   0  0  0  0  0  2  0  0  0  0  0  0
  180.2380  175.5420  135.4470 O   0  0  0  0  0  1  0  0  0  0  0  0
  181.5070  174.2500  137.0620 C   0  0  1  0  0  0  0  0  0  0  0  0
  179.8500  177.1040  137.7470 O   0  0  0  0  0  1  0  0  0  0  0  0
  182.7810  174.2400  137.9270 C   0  0  0  0  0  2  0  0  0  0  0  0
  185.0670  176.4650  137.3800 C   0  0  2  0  0  3  0  0  0  0  0  0
  181.5740  173.2290  136.1140 O   0  0  0  0  0  1  0  0  0  0  0  0
  181.3040  175.6030  136.3490 C   0  0  2  0  0  3  0  0  0  0  0  0
  187.0310  177.7850  136.9490 O   0  0  0  0  0  1  0  0  0  0  0  0
  186.4940  176.5010  136.8230 C   0  0  1  0  0  3  0  0  0  0  0  0
  187.3020  175.6100  137.5090 F   0  0  0  0  0  0  0  0  0  0  0  0
  185.7390  172.6920  136.7440 O   0  0  0  0  0  1  0  0  0  0  0  0
  184.5370  173.2670  136.3170 C   0  0  0  0  0  2  0  0  0  0  0  0
  182.8880  178.6280  141.9230 C   0  0  0  0  0  2  0  0  0  0  0  0
  183.6080  179.7200  143.9970 C   0  0  0  0  0  2  0  0  0  0  0  0
  183.8480  178.8140  143.0520 C   0  0  0  0  0  0  0  0  0  0  0  0
  184.9960  177.8760  143.1940 C   0  0  0  0  0  2  0  0  0  0  0  0
  186.1990  178.5830  143.1410 O   0  0  0  0  0  0  0  0  0  0  0  0
  187.0480  177.7890  142.3660 C   0  0  2  0  0  3  0  0  0  0  0  0
  187.6540  176.6740  143.2240 C   0  0  0  0  0  2  0  0  0  0  0  0
  189.1130  176.9370  143.6120 C   0  0  2  0  0  3  0  0  0  0  0  0
  190.8750  178.8630  143.0520 O   0  0  0  0  0  1  0  0  0  0  0  0
  192.4280  177.5570  141.9540 C   0  0  2  0  0  3  0  0  0  0  0  0
  191.4430  176.0830  143.4070 C   0  0  0  0  0  2  0  0  0  0  0  0
  191.2210  176.6240  141.9810 C   0  0  1  0  0  0  0  0  0  0  0  0
  191.0780  178.1740  141.8540 C   0  0  1  0  0  3  0  0  0  0  0  0
  190.0750  176.0140  142.8570 C   0  0  2  0  0  3  0  0  0  0  0  0
  193.0700  177.5030  140.5810 C   0  0  2  0  0  3  0  0  0  0  0  0
  192.0450  177.0680  139.5540 C   0  0  0  0  0  1  0  0  0  0  0  0
  194.1160  176.6020  140.5890 F   0  0  0  0  0  0  0  0  0  0  0  0
  188.5250  177.8180  145.8420 C   0  0  1  0  0  3  0  0  0  0  0  0
  189.9050  177.9770  145.6120 O   0  0  0  0  0  0  0  0  0  0  0  0
  189.3170  176.8000  145.1140 C   0  0  2  0  0  3  0  0  0  0  0  0
  188.3110  177.3570  147.2680 C   0  0  0  0  0  2  0  0  0  0  0  0
  186.3490  178.2700  146.8390 C   0  0  0  0  0  1  0  0  0  0  0  0
  187.2890  178.1080  147.8530 O   0  0  0  0  0  0  0  0  0  0  0  0
  188.1190  178.6430  141.6820 C   0  0  0  0  0  2  0  0  0  0  0  0
  188.3850  178.2280  140.2690 C   0  0  0  0  0  0  0  0  0  0  0  0
  188.6800  179.1800  139.3010 O   0  0  0  0  0  0  0  0  0  0  0  0
  188.3070  177.0130  139.9510 O   0  0  0  0  0  1  0  0  0  0  0  0
  182.0290  179.6770  139.5610 O   0  0  0  0  0  0  0  0  0  0  0  0
  182.2170  180.7840  138.7190 C   0  0  0  0  0  2  0  0  0  0  0  0
  180.8780  181.3900  138.3280 C   0  0  1  0  0  0  0  0  0  0  0  0
  180.1960  180.5210  137.4970 F   0  0  0  0  0  0  0  0  0  0  0  0
  180.1160  181.6370  139.4700 O   0  0  0  0  0  1  0  0  0  0  0  0
  181.1160  182.6930  137.5920 C   0  0  0  0  0  1  0  0  0  0  0  0
  1 23  1  1  0  0  0
  2  1  1  0  0  0  0
  3 50  1  1  0  0  0
  3  2  1  0  0  0  0
  3  1  1  0  0  0  0
  4  9  2  0  0  0  0
  4 13  1  0  0  0  0
  5 22  1  6  0  0  0
  5 14  1  0  0  0  0
  6  5  1  0  0  0  0
  6 15  1  0  0  0  0
  7  3  1  0  0  0  0
  9  7  2  0  0  0  0
 10  7  1  0  0  0  0
 12 14  1  0  0  0  0
 12  8  1  1  0  0  0
 15 19  1  6  0  0  0
 15 10  1  0  0  0  0
 16 12  1  0  0  0  0
 17 11  1  6  0  0  0
 17 12  1  0  0  0  0
 17  4  1  0  0  0  0
 19 18  1  1  0  0  0
 19 20  1  0  0  0  0
 22 21  1  0  0  0  0
 23 25  1  0  0  0  0
 25 26  1  0  0  0  0
 25 24  2  0  0  0  0
 27 26  1  0  0  0  0
 28 46  1  1  0  0  0
 28 27  1  0  0  0  0
 28 29  1  0  0  0  0
 30 29  1  1  0  0  0
 32 37  1  6  0  0  0
 32 34  1  0  0  0  0
 34 36  1  0  0  0  0
 34 33  1  1  0  0  0
 35 32  1  0  0  0  0
 35 34  1  0  0  0  0
 35 31  1  1  0  0  0
 36 33  1  0  0  0  0
 36 30  1  1  0  0  0
 37 38  1  6  0  0  0
 37 39  1  0  0  0  0
 40 43  1  1  0  0  0
 41 40  1  0  0  0  0
 42 30  1  6  0  0  0
 42 41  1  0  0  0  0
 42 40  1  0  0  0  0
 43 45  1  0  0  0  0
 44 45  1  0  0  0  0
 47 46  1  0  0  0  0
 48 47  2  0  0  0  0
 49 47  1  0  0  0  0
 51 50  1  0  0  0  0
 52 55  1  6  0  0  0
 52 51  1  0  0  0  0
 52 54  1  0  0  0  0
 53 52  1  0  0  0  0
M  END
>  <MODEL>
8

>  <REMARK>
 VINA RESULT:      -5.7      2.310      4.323
  Name = 
  20 active torsions:
  status: ('A' for Active; 'I' for Inactive)
    1  A    between atoms: C_2  and  C_24
    2  A    between atoms: C_3  and  C_14
    3  A    between atoms: C_4  and  C_37
    4  A    between atoms: C_8  and  C_43
    5  A    between atoms: C_9  and  C_33
    6  A    between atoms: C_9  and  C_49
    7  A    between atoms: C_10  and  C_32
    8  A    between atoms: C_16  and  C_17
    9  A    between atoms: C_17  and  O_23
   10  A    between atoms: C_19  and  C_40
   11  A    between atoms: C_19  and  O_45
   12  A    between atoms: C_20  and  C_46
   13  A    between atoms: C_24  and  C_49
   14  A    between atoms: C_27  and  C_54
   15  A    between atoms: C_33  and  C_36
   16  A    between atoms: C_33  and  C_52
   17  A    between atoms: C_37  and  C_40
   18  A    between atoms: C_43  and  O_51
   19  A    between atoms: O_45  and  C_49
   20  A    between atoms: O_51  and  C_54
                            x       y       z     vdW  Elec       q    Type
                         _______ _______ _______ _____ _____    ______ ____

>  <TORSDO>
F 20

$$$$
=
 OpenBabel10262420203D

 55 59  0  0  1  0  0  0  0  0999 V2000
  184.7550  178.4440  138.1680 C   0  0  2  0  0  3  0  0  0  0  0  0
  184.4650  177.0590  138.7280 C   0  0  0  0  0  2  0  0  0  0  0  0
  183.6360  177.5890  137.5690 C   0  0  1  0  0  0  0  0  0  0  0  0
  181.0340  179.5700  136.0480 C   0  0  0  0  0  0  0  0  0  0  0  0
  180.6130  181.1010  139.5160 C   0  0  1  0  0  3  0  0  0  0  0  0
  180.2390  179.7580  139.3470 O   0  0  0  0  0  0  0  0  0  0  0  0
  182.2660  178.1330  137.8380 C   0  0  0  0  0  0  0  0  0  0  0  0
  181.0640  182.5580  135.9120 C   0  0  0  0  0  1  0  0  0  0  0  0
  181.6490  178.8300  136.9210 C   0  0  0  0  0  0  0  0  0  0  0  0
  181.5500  177.7700  139.1000 C   0  0  0  0  0  2  0  0  0  0  0  0
  178.9310  180.5140  135.4630 O   0  0  0  0  0  1  0  0  0  0  0  0
  180.2930  181.8150  136.9930 C   0  0  1  0  0  0  0  0  0  0  0  0
  181.4890  179.6160  134.7370 O   0  0  0  0  0  1  0  0  0  0  0  0
  181.1960  181.7340  138.2380 C   0  0  0  0  0  2  0  0  0  0  0  0
  181.2450  178.9960  139.9640 C   0  0  2  0  0  3  0  0  0  0  0  0
  179.1530  182.5650  137.2870 O   0  0  0  0  0  1  0  0  0  0  0  0
  179.8760  180.4180  136.4900 C   0  0  2  0  0  3  0  0  0  0  0  0
  180.2990  177.2160  141.2750 O   0  0  0  0  0  1  0  0  0  0  0  0
  180.7770  178.5270  141.3460 C   0  0  1  0  0  3  0  0  0  0  0  0
  181.8250  178.5720  142.2500 F   0  0  0  0  0  0  0  0  0  0  0  0
  179.5290  181.7870  141.5580 O   0  0  0  0  0  1  0  0  0  0  0  0
  179.5010  181.9220  140.1660 C   0  0  0  0  0  2  0  0  0  0  0  0
  186.0310  178.4140  137.3340 C   0  0  0  0  0  2  0  0  0  0  0  0
  187.3190  176.3480  137.6320 C   0  0  0  0  0  2  0  0  0  0  0  0
  187.0750  177.5980  138.0230 C   0  0  0  0  0  0  0  0  0  0  0  0
  187.9450  178.2410  139.0470 C   0  0  0  0  0  2  0  0  0  0  0  0
  187.8560  177.5440  140.2530 O   0  0  0  0  0  0  0  0  0  0  0  0
  189.1810  177.3440  140.6490 C   0  0  2  0  0  3  0  0  0  0  0  0
  189.4400  178.0330  141.9910 C   0  0  0  0  0  2  0  0  0  0  0  0
  189.2570  177.1020  143.1950 C   0  0  2  0  0  3  0  0  0  0  0  0
  186.6980  176.4030  143.4920 O   0  0  0  0  0  1  0  0  0  0  0  0
  186.3070  177.4920  145.4890 C   0  0  2  0  0  3  0  0  0  0  0  0
  188.5490  177.0290  145.5810 C   0  0  0  0  0  2  0  0  0  0  0  0
  187.6190  178.1370  145.0500 C   0  0  1  0  0  0  0  0  0  0  0  0
  186.5290  177.6810  144.0300 C   0  0  1  0  0  3  0  0  0  0  0  0
  189.0610  177.8870  144.4950 C   0  0  2  0  0  3  0  0  0  0  0  0
  185.3720  178.5680  146.0090 C   0  0  2  0  0  3  0  0  0  0  0  0
  184.2830  178.8350  144.9900 C   0  0  0  0  0  1  0  0  0  0  0  0
  186.0780  179.7320  146.2360 F   0  0  0  0  0  0  0  0  0  0  0  0
  191.2500  176.4780  144.5120 C   0  0  1  0  0  3  0  0  0  0  0  0
  191.6340  176.8530  143.2100 O   0  0  0  0  0  0  0  0  0  0  0  0
  190.4290  176.1380  143.3280 C   0  0  2  0  0  3  0  0  0  0  0  0
  192.0480  175.2610  144.9300 C   0  0  0  0  0  2  0  0  0  0  0  0
  191.9750  176.6170  146.6690 C   0  0  0  0  0  1  0  0  0  0  0  0
  192.2850  175.3090  146.3060 O   0  0  0  0  0  0  0  0  0  0  0  0
  190.1510  177.8110  139.5600 C   0  0  0  0  0  2  0  0  0  0  0  0
  191.0020  176.7050  139.0190 C   0  0  0  0  0  0  0  0  0  0  0  0
  192.3490  176.9190  138.7570 O   0  0  0  0  0  0  0  0  0  0  0  0
  190.4840  175.5850  138.7700 O   0  0  0  0  0  1  0  0  0  0  0  0
  183.9060  177.0680  136.2900 O   0  0  0  0  0  0  0  0  0  0  0  0
  184.0010  175.6750  136.4310 C   0  0  0  0  0  2  0  0  0  0  0  0
  182.7450  174.9980  135.9040 C   0  0  1  0  0  0  0  0  0  0  0  0
  182.1660  175.7840  134.9260 F   0  0  0  0  0  0  0  0  0  0  0  0
  183.0670  173.7500  135.3700 O   0  0  0  0  0  1  0  0  0  0  0  0
  181.7610  174.8180  137.0420 C   0  0  0  0  0  1  0  0  0  0  0  0
  1 23  1  6  0  0  0
  1  2  1  0  0  0  0
  3 50  1  6  0  0  0
  3  7  1  0  0  0  0
  3  1  1  0  0  0  0
  3  2  1  0  0  0  0
  4 17  1  0  0  0  0
  4  9  2  0  0  0  0
  5 22  1  6  0  0  0
  6  5  1  0  0  0  0
  6 15  1  0  0  0  0
  7 10  1  0  0  0  0
  9  7  2  0  0  0  0
 10 15  1  0  0  0  0
 12  8  1  6  0  0  0
 12 16  1  0  0  0  0
 12 14  1  0  0  0  0
 13  4  1  0  0  0  0
 14  5  1  0  0  0  0
 15 19  1  1  0  0  0
 17 11  1  6  0  0  0
 17 12  1  0  0  0  0
 19 18  1  6  0  0  0
 19 20  1  0  0  0  0
 22 21  1  0  0  0  0
 23 25  1  0  0  0  0
 24 25  2  0  0  0  0
 25 26  1  0  0  0  0
 26 27  1  0  0  0  0
 27 28  1  0  0  0  0
 28 46  1  6  0  0  0
 28 29  1  0  0  0  0
 30 29  1  6  0  0  0
 32 37  1  1  0  0  0
 34 32  1  0  0  0  0
 34 33  1  6  0  0  0
 35 31  1  6  0  0  0
 35 34  1  0  0  0  0
 35 32  1  0  0  0  0
 36 30  1  6  0  0  0
 36 34  1  0  0  0  0
 36 33  1  0  0  0  0
 37 38  1  6  0  0  0
 37 39  1  0  0  0  0
 40 43  1  6  0  0  0
 41 42  1  0  0  0  0
 41 40  1  0  0  0  0
 42 30  1  1  0  0  0
 42 40  1  0  0  0  0
 43 45  1  0  0  0  0
 45 44  1  0  0  0  0
 47 46  1  0  0  0  0
 48 47  2  0  0  0  0
 49 47  1  0  0  0  0
 50 51  1  0  0  0  0
 52 51  1  0  0  0  0
 52 55  1  1  0  0  0
 53 52  1  0  0  0  0
 54 52  1  0  0  0  0
M  END
>  <MODEL>
9

>  <REMARK>
 VINA RESULT:      -5.1      2.641      6.042
  Name = 
  20 active torsions:
  status: ('A' for Active; 'I' for Inactive)
    1  A    between atoms: C_2  and  C_24
    2  A    between atoms: C_3  and  C_14
    3  A    between atoms: C_4  and  C_37
    4  A    between atoms: C_8  and  C_43
    5  A    between atoms: C_9  and  C_33
    6  A    between atoms: C_9  and  C_49
    7  A    between atoms: C_10  and  C_32
    8  A    between atoms: C_16  and  C_17
    9  A    between atoms: C_17  and  O_23
   10  A    between atoms: C_19  and  C_40
   11  A    between atoms: C_19  and  O_45
   12  A    between atoms: C_20  and  C_46
   13  A    between atoms: C_24  and  C_49
   14  A    between atoms: C_27  and  C_54
   15  A    between atoms: C_33  and  C_36
   16  A    between atoms: C_33  and  C_52
   17  A    between atoms: C_37  and  C_40
   18  A    between atoms: C_43  and  O_51
   19  A    between atoms: O_45  and  C_49
   20  A    between atoms: O_51  and  C_54
                            x       y       z     vdW  Elec       q    Type
                         _______ _______ _______ _____ _____    ______ ____

>  <TORSDO>
F 20

$$$$
