=
 OpenBabel10262420573D

 28 29  0  0  1  0  0  0  0  0999 V2000
  190.9340  176.1260  142.7860 O   0  0  0  0  0  0  0  0  0  0  0  0
  188.1250  176.1640  142.2540 O   0  0  0  0  0  1  0  0  0  0  0  0
  188.7260  177.4030  144.2240 C   0  0  1  0  0  3  0  0  0  0  0  0
  190.9140  178.2910  145.1030 C   0  0  0  0  0  3  0  0  0  0  0  0
  188.8290  177.2900  142.6910 C   0  0  1  0  0  3  0  0  0  0  0  0
  189.6170  178.4650  144.8030 C   0  0  0  0  0  3  0  0  0  0  0  0
  191.7190  177.0300  144.9130 C   0  0  2  0  0  3  0  0  0  0  0  0
  192.0410  176.6540  143.4630 C   0  0  0  0  0  2  0  0  0  0  0  0
  190.2870  177.2250  142.2010 C   0  0  2  0  0  3  0  0  0  0  0  0
  190.1760  175.9210  140.1930 O   0  0  0  0  0  1  0  0  0  0  0  0
  190.4250  177.2150  140.6550 C   0  0  2  0  0  0  0  0  0  0  0  0
  191.8550  177.5710  140.2150 C   0  0  0  0  0  2  0  0  0  0  0  0
  192.3500  176.7990  138.9980 C   0  0  0  0  0  1  0  0  0  0  0  0
  189.4030  178.1450  139.9720 C   0  0  0  0  0  2  0  0  0  0  0  0
  188.7360  177.5650  138.7300 C   0  0  0  0  0  2  0  0  0  0  0  0
  189.1530  178.3360  137.4930 C   0  0  0  0  0  1  0  0  0  0  0  0
  191.8380  176.1710  147.3100 C   0  0  0  0  0  1  0  0  0  0  0  0
  191.4270  175.8780  145.8790 C   0  0  0  0  0  2  0  0  0  0  0  0
  187.2930  177.6150  144.7360 C   0  0  1  0  0  3  0  0  0  0  0  0
  187.1870  178.0010  146.2190 C   0  0  0  0  0  2  0  0  0  0  0  0
  187.8310  176.9780  147.1460 C   0  0  0  0  0  2  0  0  0  0  0  0
  188.0360  177.5710  148.5280 C   0  0  0  0  0  2  0  0  0  0  0  0
  189.2710  178.4520  148.5450 C   0  0  0  0  0  1  0  0  0  0  0  0
  186.4570  178.4900  143.8020 C   0  0  0  0  0  2  0  0  0  0  0  0
  184.9830  178.1250  143.8740 C   0  0  0  0  0  2  0  0  0  0  0  0
  184.1470  179.3380  144.2380 C   0  0  2  0  0  3  0  0  0  0  0  0
  183.5630  179.1240  145.4990 O   0  0  0  0  0  0  0  0  0  0  0  0
  182.7290  178.9490  144.3810 C   0  0  0  0  0  2  0  0  0  0  0  0
  1  8  1  0  0  0  0
  3 19  1  6  0  0  0
  3  6  1  0  0  0  0
  5  2  1  1  0  0  0
  5  3  1  0  0  0  0
  6  4  2  0  0  0  0
  7  4  1  0  0  0  0
  7 18  1  6  0  0  0
  8  7  1  0  0  0  0
  9 11  1  6  0  0  0
  9  5  1  0  0  0  0
  9  1  1  0  0  0  0
 11 10  1  6  0  0  0
 12 11  1  0  0  0  0
 13 12  1  0  0  0  0
 14 11  1  0  0  0  0
 15 14  1  0  0  0  0
 16 15  1  0  0  0  0
 18 17  1  0  0  0  0
 19 24  1  6  0  0  0
 19 20  1  0  0  0  0
 20 21  1  0  0  0  0
 21 22  1  0  0  0  0
 22 23  1  0  0  0  0
 24 25  1  0  0  0  0
 26 25  1  6  0  0  0
 26 28  1  0  0  0  0
 26 27  1  0  0  0  0
 28 27  1  0  0  0  0
M  END
>  <MODEL>
1

>  <REMARK>
 VINA RESULT:      -6.5      0.000      0.000
  Name = 
  12 active torsions:
  status: ('A' for Active; 'I' for Inactive)
    1  A    between atoms: C_3  and  C_7
    2  A    between atoms: C_3  and  C_11
    3  A    between atoms: C_3  and  C_27
    4  A    between atoms: C_4  and  C_12
    5  A    between atoms: C_4  and  C_24
    6  A    between atoms: C_6  and  C_11
    7  A    between atoms: C_9  and  C_13
    8  A    between atoms: C_9  and  C_18
    9  A    between atoms: C_10  and  C_13
   10  A    between atoms: C_13  and  C_24
   11  A    between atoms: C_14  and  C_18
   12  A    between atoms: C_19  and  C_21
                            x       y       z     vdW  Elec       q    Type
                         _______ _______ _______ _____ _____    ______ ____

>  <TORSDO>
F 12

$$$$
=
 OpenBabel10262420573D

 28 29  0  0  1  0  0  0  0  0999 V2000
  190.7380  176.1880  142.6320 O   0  0  0  0  0  0  0  0  0  0  0  0
  187.8890  176.0250  142.4580 O   0  0  0  0  0  1  0  0  0  0  0  0
  188.6450  177.2660  144.3720 C   0  0  1  0  0  3  0  0  0  0  0  0
  190.8560  178.2990  144.9950 C   0  0  0  0  0  3  0  0  0  0  0  0
  188.5600  177.1920  142.8350 C   0  0  1  0  0  3  0  0  0  0  0  0
  189.5230  178.3800  144.8660 C   0  0  0  0  0  3  0  0  0  0  0  0
  191.7200  177.1050  144.6700 C   0  0  2  0  0  3  0  0  0  0  0  0
  191.8810  176.7830  143.1810 C   0  0  0  0  0  2  0  0  0  0  0  0
  189.9440  177.2460  142.1650 C   0  0  2  0  0  3  0  0  0  0  0  0
  189.6080  175.9890  140.1520 O   0  0  0  0  0  1  0  0  0  0  0  0
  189.8850  177.2770  140.6150 C   0  0  2  0  0  0  0  0  0  0  0  0
  191.2390  177.6800  140.0070 C   0  0  0  0  0  2  0  0  0  0  0  0
  191.8170  176.6650  139.0280 C   0  0  0  0  0  1  0  0  0  0  0  0
  188.7650  178.1970  140.0920 C   0  0  0  0  0  2  0  0  0  0  0  0
  189.0100  178.7880  138.7080 C   0  0  0  0  0  2  0  0  0  0  0  0
  188.2200  178.0310  137.6590 C   0  0  0  0  0  1  0  0  0  0  0  0
  191.8140  176.3030  147.0870 C   0  0  0  0  0  1  0  0  0  0  0  0
  191.6370  175.9170  145.6300 C   0  0  0  0  0  2  0  0  0  0  0  0
  187.2760  177.3590  145.0660 C   0  0  1  0  0  3  0  0  0  0  0  0
  187.2890  177.0270  146.5650 C   0  0  0  0  0  2  0  0  0  0  0  0
  187.0790  178.2520  147.4460 C   0  0  0  0  0  2  0  0  0  0  0  0
  187.8230  178.0930  148.7600 C   0  0  0  0  0  2  0  0  0  0  0  0
  189.2960  178.4010  148.5730 C   0  0  0  0  0  1  0  0  0  0  0  0
  186.5260  178.6440  144.7170 C   0  0  0  0  0  2  0  0  0  0  0  0
  185.1560  178.3430  144.1290 C   0  0  0  0  0  2  0  0  0  0  0  0
  185.2270  178.2630  142.6160 C   0  0  2  0  0  3  0  0  0  0  0  0
  185.1900  179.5660  142.0900 O   0  0  0  0  0  0  0  0  0  0  0  0
  183.9960  178.8250  142.0230 C   0  0  0  0  0  2  0  0  0  0  0  0
  1  8  1  0  0  0  0
  3  6  1  0  0  0  0
  3 19  1  1  0  0  0
  5  2  1  1  0  0  0
  5  3  1  0  0  0  0
  6  4  2  0  0  0  0
  7  4  1  0  0  0  0
  7 18  1  1  0  0  0
  8  7  1  0  0  0  0
  9 11  1  6  0  0  0
  9  1  1  0  0  0  0
  9  5  1  0  0  0  0
 11 10  1  6  0  0  0
 12 11  1  0  0  0  0
 13 12  1  0  0  0  0
 14 11  1  0  0  0  0
 15 14  1  0  0  0  0
 16 15  1  0  0  0  0
 18 17  1  0  0  0  0
 19 24  1  1  0  0  0
 19 20  1  0  0  0  0
 20 21  1  0  0  0  0
 21 22  1  0  0  0  0
 23 22  1  0  0  0  0
 25 24  1  0  0  0  0
 26 25  1  1  0  0  0
 27 26  1  0  0  0  0
 28 27  1  0  0  0  0
 28 26  1  0  0  0  0
M  END
>  <MODEL>
2

>  <REMARK>
 VINA RESULT:      -6.3      1.057      1.145
  Name = 
  12 active torsions:
  status: ('A' for Active; 'I' for Inactive)
    1  A    between atoms: C_3  and  C_7
    2  A    between atoms: C_3  and  C_11
    3  A    between atoms: C_3  and  C_27
    4  A    between atoms: C_4  and  C_12
    5  A    between atoms: C_4  and  C_24
    6  A    between atoms: C_6  and  C_11
    7  A    between atoms: C_9  and  C_13
    8  A    between atoms: C_9  and  C_18
    9  A    between atoms: C_10  and  C_13
   10  A    between atoms: C_13  and  C_24
   11  A    between atoms: C_14  and  C_18
   12  A    between atoms: C_19  and  C_21
                            x       y       z     vdW  Elec       q    Type
                         _______ _______ _______ _____ _____    ______ ____

>  <TORSDO>
F 12

$$$$
=
 OpenBabel10262420573D

 28 29  0  0  1  0  0  0  0  0999 V2000
  185.3210  179.3800  142.5940 O   0  0  0  0  0  0  0  0  0  0  0  0
  187.7620  179.6380  141.1290 O   0  0  0  0  0  1  0  0  0  0  0  0
  187.9540  178.1750  143.0260 C   0  0  1  0  0  3  0  0  0  0  0  0
  186.2620  177.0220  144.4930 C   0  0  0  0  0  3  0  0  0  0  0  0
  187.3130  178.4190  141.6460 C   0  0  1  0  0  3  0  0  0  0  0  0
  187.3770  176.9900  143.7480 C   0  0  0  0  0  3  0  0  0  0  0  0
  185.3790  178.2200  144.7410 C   0  0  2  0  0  3  0  0  0  0  0  0
  184.5500  178.6980  143.5440 C   0  0  0  0  0  2  0  0  0  0  0  0
  185.7750  178.4010  141.6980 C   0  0  2  0  0  3  0  0  0  0  0  0
  184.8510  179.8930  140.0660 O   0  0  0  0  0  1  0  0  0  0  0  0
  185.1030  178.5410  140.3070 C   0  0  2  0  0  0  0  0  0  0  0  0
  183.7410  177.8260  140.2640 C   0  0  0  0  0  2  0  0  0  0  0  0
  182.5400  178.7510  140.4160 C   0  0  0  0  0  1  0  0  0  0  0  0
  186.0110  178.0380  139.1670 C   0  0  0  0  0  2  0  0  0  0  0  0
  185.4410  178.2160  137.7640 C   0  0  0  0  0  2  0  0  0  0  0  0
  185.3730  176.8840  137.0440 C   0  0  0  0  0  1  0  0  0  0  0  0
  186.1050  178.8290  147.1070 C   0  0  0  0  0  1  0  0  0  0  0  0
  185.9340  179.2990  145.6740 C   0  0  0  0  0  2  0  0  0  0  0  0
  189.4850  178.0430  142.9860 C   0  0  1  0  0  3  0  0  0  0  0  0
  190.1970  178.3930  144.3000 C   0  0  0  0  0  2  0  0  0  0  0  0
  191.1660  177.3090  144.7570 C   0  0  0  0  0  2  0  0  0  0  0  0
  190.7670  176.7860  146.1250 C   0  0  0  0  0  2  0  0  0  0  0  0
  189.5530  177.5340  146.6430 C   0  0  0  0  0  1  0  0  0  0  0  0
  189.9460  176.7300  142.3560 C   0  0  0  0  0  2  0  0  0  0  0  0
  190.7850  176.9770  141.1110 C   0  0  0  0  0  2  0  0  0  0  0  0
  189.9800  176.6970  139.8560 C   0  0  2  0  0  3  0  0  0  0  0  0
  190.6860  175.7780  139.0600 O   0  0  0  0  0  0  0  0  0  0  0  0
  190.7390  177.1270  138.6640 C   0  0  0  0  0  2  0  0  0  0  0  0
  1  8  1  0  0  0  0
  3 19  1  6  0  0  0
  3  6  1  0  0  0  0
  4  7  1  0  0  0  0
  5  2  1  1  0  0  0
  5  9  1  0  0  0  0
  5  3  1  0  0  0  0
  6  4  2  0  0  0  0
  7 18  1  6  0  0  0
  8  7  1  0  0  0  0
  9 11  1  6  0  0  0
  9  1  1  0  0  0  0
 11 10  1  6  0  0  0
 12 11  1  0  0  0  0
 12 13  1  0  0  0  0
 14 11  1  0  0  0  0
 15 14  1  0  0  0  0
 16 15  1  0  0  0  0
 18 17  1  0  0  0  0
 19 24  1  1  0  0  0
 19 20  1  0  0  0  0
 20 21  1  0  0  0  0
 21 22  1  0  0  0  0
 22 23  1  0  0  0  0
 25 24  1  0  0  0  0
 26 25  1  1  0  0  0
 27 26  1  0  0  0  0
 28 27  1  0  0  0  0
 28 26  1  0  0  0  0
M  END
>  <MODEL>
3

>  <REMARK>
 VINA RESULT:      -6.2      2.446      5.867
  Name = 
  12 active torsions:
  status: ('A' for Active; 'I' for Inactive)
    1  A    between atoms: C_3  and  C_7
    2  A    between atoms: C_3  and  C_11
    3  A    between atoms: C_3  and  C_27
    4  A    between atoms: C_4  and  C_12
    5  A    between atoms: C_4  and  C_24
    6  A    between atoms: C_6  and  C_11
    7  A    between atoms: C_9  and  C_13
    8  A    between atoms: C_9  and  C_18
    9  A    between atoms: C_10  and  C_13
   10  A    between atoms: C_13  and  C_24
   11  A    between atoms: C_14  and  C_18
   12  A    between atoms: C_19  and  C_21
                            x       y       z     vdW  Elec       q    Type
                         _______ _______ _______ _____ _____    ______ ____

>  <TORSDO>
F 12

$$$$
=
 OpenBabel10262420573D

 28 29  0  0  1  0  0  0  0  0999 V2000
  190.9100  177.6380  145.0240 O   0  0  0  0  0  0  0  0  0  0  0  0
  188.2730  178.5990  145.5660 O   0  0  0  0  0  1  0  0  0  0  0  0
  188.3970  177.2690  143.5680 C   0  0  1  0  0  3  0  0  0  0  0  0
  190.1230  175.6740  142.6620 C   0  0  0  0  0  3  0  0  0  0  0  0
  188.5280  177.3050  145.1030 C   0  0  1  0  0  3  0  0  0  0  0  0
  188.8500  175.9710  142.9630 C   0  0  0  0  0  3  0  0  0  0  0  0
  191.3260  176.5580  142.8750 C   0  0  2  0  0  3  0  0  0  0  0  0
  191.7560  176.7630  144.3310 C   0  0  0  0  0  2  0  0  0  0  0  0
  189.9090  176.8330  145.5880 C   0  0  2  0  0  3  0  0  0  0  0  0
  190.6710  177.9190  147.5850 O   0  0  0  0  0  1  0  0  0  0  0  0
  190.0360  176.7600  147.1330 C   0  0  2  0  0  0  0  0  0  0  0  0
  190.9170  175.5780  147.5720 C   0  0  0  0  0  2  0  0  0  0  0  0
  192.3690  175.9440  147.8490 C   0  0  0  0  0  1  0  0  0  0  0  0
  188.6620  176.6950  147.8280 C   0  0  0  0  0  2  0  0  0  0  0  0
  188.3560  177.8630  148.7600 C   0  0  0  0  0  2  0  0  0  0  0  0
  187.0990  178.5840  148.3150 C   0  0  0  0  0  1  0  0  0  0  0  0
  192.1830  177.4260  140.6370 C   0  0  0  0  0  1  0  0  0  0  0  0
  191.4710  177.7580  141.9350 C   0  0  0  0  0  2  0  0  0  0  0  0
  186.9850  177.5970  143.0570 C   0  0  1  0  0  3  0  0  0  0  0  0
  185.9420  177.8470  144.1580 C   0  0  0  0  0  2  0  0  0  0  0  0
  184.8370  178.8010  143.7230 C   0  0  0  0  0  2  0  0  0  0  0  0
  183.7040  178.7940  144.7330 C   0  0  0  0  0  2  0  0  0  0  0  0
  182.3690  178.9410  144.0280 C   0  0  0  0  0  1  0  0  0  0  0  0
  186.9890  178.6510  141.9510 C   0  0  0  0  0  2  0  0  0  0  0  0
  188.2680  178.5880  141.1310 C   0  0  0  0  0  2  0  0  0  0  0  0
  187.9740  178.1480  139.7090 C   0  0  2  0  0  3  0  0  0  0  0  0
  188.9050  177.1640  139.3360 O   0  0  0  0  0  0  0  0  0  0  0  0
  189.1240  178.4600  138.8360 C   0  0  0  0  0  2  0  0  0  0  0  0
  1  9  1  0  0  0  0
  3 19  1  1  0  0  0
  3  5  1  0  0  0  0
  4  7  1  0  0  0  0
  4  6  2  0  0  0  0
  5  2  1  6  0  0  0
  5  9  1  0  0  0  0
  6  3  1  0  0  0  0
  7 18  1  1  0  0  0
  7  8  1  0  0  0  0
  8  1  1  0  0  0  0
  9 11  1  1  0  0  0
 11 12  1  0  0  0  0
 11 10  1  1  0  0  0
 11 14  1  0  0  0  0
 12 13  1  0  0  0  0
 14 15  1  0  0  0  0
 16 15  1  0  0  0  0
 17 18  1  0  0  0  0
 19 24  1  6  0  0  0
 19 20  1  0  0  0  0
 21 20  1  0  0  0  0
 21 22  1  0  0  0  0
 23 22  1  0  0  0  0
 25 24  1  0  0  0  0
 26 25  1  1  0  0  0
 27 26  1  0  0  0  0
 28 27  1  0  0  0  0
 28 26  1  0  0  0  0
M  END
>  <MODEL>
4

>  <REMARK>
 VINA RESULT:      -6.1      1.785      5.974
  Name = 
  12 active torsions:
  status: ('A' for Active; 'I' for Inactive)
    1  A    between atoms: C_3  and  C_7
    2  A    between atoms: C_3  and  C_11
    3  A    between atoms: C_3  and  C_27
    4  A    between atoms: C_4  and  C_12
    5  A    between atoms: C_4  and  C_24
    6  A    between atoms: C_6  and  C_11
    7  A    between atoms: C_9  and  C_13
    8  A    between atoms: C_9  and  C_18
    9  A    between atoms: C_10  and  C_13
   10  A    between atoms: C_13  and  C_24
   11  A    between atoms: C_14  and  C_18
   12  A    between atoms: C_19  and  C_21
                            x       y       z     vdW  Elec       q    Type
                         _______ _______ _______ _____ _____    ______ ____

>  <TORSDO>
F 12

$$$$
=
 OpenBabel10262420573D

 28 29  0  0  1  0  0  0  0  0999 V2000
  190.8370  176.2000  142.6300 O   0  0  0  0  0  0  0  0  0  0  0  0
  188.0460  176.3460  142.0320 O   0  0  0  0  0  1  0  0  0  0  0  0
  188.6550  177.6010  143.9890 C   0  0  1  0  0  3  0  0  0  0  0  0
  190.8580  178.4140  144.9010 C   0  0  0  0  0  3  0  0  0  0  0  0
  188.7880  177.4500  142.4610 C   0  0  1  0  0  3  0  0  0  0  0  0
  189.5770  178.6360  144.5670 C   0  0  0  0  0  3  0  0  0  0  0  0
  191.6120  177.1150  144.7560 C   0  0  2  0  0  3  0  0  0  0  0  0
  191.9500  176.6950  143.3230 C   0  0  0  0  0  2  0  0  0  0  0  0
  190.2510  177.3130  142.0070 C   0  0  2  0  0  3  0  0  0  0  0  0
  190.1250  175.9730  140.0240 O   0  0  0  0  0  1  0  0  0  0  0  0
  190.4240  177.2630  140.4660 C   0  0  2  0  0  0  0  0  0  0  0  0
  191.8790  177.5430  140.0520 C   0  0  0  0  0  2  0  0  0  0  0  0
  192.3470  176.7650  138.8290 C   0  0  0  0  0  1  0  0  0  0  0  0
  189.4630  178.2250  139.7410 C   0  0  0  0  0  2  0  0  0  0  0  0
  188.6940  177.6090  138.5760 C   0  0  0  0  0  2  0  0  0  0  0  0
  189.0970  178.2610  137.2690 C   0  0  0  0  0  1  0  0  0  0  0  0
  191.8530  176.1860  147.1170 C   0  0  0  0  0  1  0  0  0  0  0  0
  191.2490  175.9990  145.7380 C   0  0  0  0  0  2  0  0  0  0  0  0
  187.2200  177.8840  144.4620 C   0  0  1  0  0  3  0  0  0  0  0  0
  186.1570  177.8510  143.3550 C   0  0  0  0  0  2  0  0  0  0  0  0
  185.4000  179.1670  143.2200 C   0  0  0  0  0  2  0  0  0  0  0  0
  184.5370  179.4090  144.4450 C   0  0  0  0  0  2  0  0  0  0  0  0
  183.1490  178.8340  144.2340 C   0  0  0  0  0  1  0  0  0  0  0  0
  186.8450  177.0880  145.7120 C   0  0  0  0  0  2  0  0  0  0  0  0
  187.0640  177.9050  146.9750 C   0  0  0  0  0  2  0  0  0  0  0  0
  188.1560  177.2890  147.8300 C   0  0  2  0  0  3  0  0  0  0  0  0
  188.0490  177.7940  149.1380 O   0  0  0  0  0  0  0  0  0  0  0  0
  189.0600  178.3450  148.3310 C   0  0  0  0  0  2  0  0  0  0  0  0
  1  8  1  0  0  0  0
  3 19  1  6  0  0  0
  3  6  1  0  0  0  0
  5  2  1  1  0  0  0
  5  3  1  0  0  0  0
  6  4  2  0  0  0  0
  7  4  1  0  0  0  0
  7 18  1  6  0  0  0
  8  7  1  0  0  0  0
  9 11  1  6  0  0  0
  9  5  1  0  0  0  0
  9  1  1  0  0  0  0
 11 10  1  6  0  0  0
 12 11  1  0  0  0  0
 13 12  1  0  0  0  0
 14 11  1  0  0  0  0
 15 14  1  0  0  0  0
 16 15  1  0  0  0  0
 18 17  1  0  0  0  0
 19 20  1  6  0  0  0
 19 24  1  0  0  0  0
 21 20  1  0  0  0  0
 21 22  1  0  0  0  0
 23 22  1  0  0  0  0
 24 25  1  0  0  0  0
 26 25  1  6  0  0  0
 26 28  1  0  0  0  0
 26 27  1  0  0  0  0
 28 27  1  0  0  0  0
M  END
>  <MODEL>
5

>  <REMARK>
 VINA RESULT:      -6.1      1.218      3.100
  Name = 
  12 active torsions:
  status: ('A' for Active; 'I' for Inactive)
    1  A    between atoms: C_3  and  C_7
    2  A    between atoms: C_3  and  C_11
    3  A    between atoms: C_3  and  C_27
    4  A    between atoms: C_4  and  C_12
    5  A    between atoms: C_4  and  C_24
    6  A    between atoms: C_6  and  C_11
    7  A    between atoms: C_9  and  C_13
    8  A    between atoms: C_9  and  C_18
    9  A    between atoms: C_10  and  C_13
   10  A    between atoms: C_13  and  C_24
   11  A    between atoms: C_14  and  C_18
   12  A    between atoms: C_19  and  C_21
                            x       y       z     vdW  Elec       q    Type
                         _______ _______ _______ _____ _____    ______ ____

>  <TORSDO>
F 12

$$$$
=
 OpenBabel10262420573D

 28 29  0  0  1  0  0  0  0  0999 V2000
  185.8870  177.5500  145.7980 O   0  0  0  0  0  0  0  0  0  0  0  0
  187.4910  176.5110  143.6730 O   0  0  0  0  0  1  0  0  0  0  0  0
  186.0840  178.3330  142.9840 C   0  0  1  0  0  3  0  0  0  0  0  0
  184.7990  180.0930  144.2470 C   0  0  0  0  0  3  0  0  0  0  0  0
  187.2700  177.8790  143.8560 C   0  0  1  0  0  3  0  0  0  0  0  0
  185.6430  179.7410  143.2660 C   0  0  0  0  0  3  0  0  0  0  0  0
  184.1460  179.1690  145.2450 C   0  0  2  0  0  3  0  0  0  0  0  0
  185.0730  178.5710  146.3080 C   0  0  0  0  0  2  0  0  0  0  0  0
  187.0560  178.1840  145.3490 C   0  0  2  0  0  3  0  0  0  0  0  0
  188.1650  176.5010  146.6450 O   0  0  0  0  0  1  0  0  0  0  0  0
  188.2770  177.8320  146.2390 C   0  0  2  0  0  0  0  0  0  0  0  0
  188.3040  178.6820  147.5210 C   0  0  0  0  0  2  0  0  0  0  0  0
  188.1100  177.8880  148.8070 C   0  0  0  0  0  1  0  0  0  0  0  0
  189.6100  177.9630  145.4770 C   0  0  0  0  0  2  0  0  0  0  0  0
  190.6780  176.9470  145.8690 C   0  0  0  0  0  2  0  0  0  0  0  0
  191.4330  176.4690  144.6450 C   0  0  0  0  0  1  0  0  0  0  0  0
  182.0290  178.9990  143.8360 C   0  0  0  0  0  1  0  0  0  0  0  0
  183.0270  178.2690  144.7170 C   0  0  0  0  0  2  0  0  0  0  0  0
  186.3270  178.1740  141.4740 C   0  0  1  0  0  3  0  0  0  0  0  0
  185.1950  178.7020  140.5800 C   0  0  0  0  0  2  0  0  0  0  0  0
  183.8730  177.9790  140.8060 C   0  0  0  0  0  2  0  0  0  0  0  0
  182.7310  178.7570  140.1790 C   0  0  0  0  0  2  0  0  0  0  0  0
  183.2590  179.7160  139.1290 C   0  0  0  0  0  1  0  0  0  0  0  0
  187.7220  178.6320  141.0510 C   0  0  0  0  0  2  0  0  0  0  0  0
  188.2390  177.8160  139.8760 C   0  0  0  0  0  2  0  0  0  0  0  0
  189.2160  178.6290  139.0470 C   0  0  2  0  0  3  0  0  0  0  0  0
  188.5710  179.0550  137.8730 O   0  0  0  0  0  0  0  0  0  0  0  0
  189.4500  177.9640  137.7480 C   0  0  0  0  0  2  0  0  0  0  0  0
  1  8  1  0  0  0  0
  3 19  1  6  0  0  0
  3  6  1  0  0  0  0
  3  5  1  0  0  0  0
  4  7  1  0  0  0  0
  5  2  1  1  0  0  0
  5  9  1  0  0  0  0
  6  4  2  0  0  0  0
  7 18  1  6  0  0  0
  7  8  1  0  0  0  0
  9  1  1  0  0  0  0
  9 11  1  1  0  0  0
 11 10  1  1  0  0  0
 11 12  1  0  0  0  0
 12 13  1  0  0  0  0
 14 15  1  0  0  0  0
 14 11  1  0  0  0  0
 16 15  1  0  0  0  0
 17 18  1  0  0  0  0
 19 20  1  6  0  0  0
 20 21  1  0  0  0  0
 22 21  1  0  0  0  0
 23 22  1  0  0  0  0
 24 19  1  0  0  0  0
 25 24  1  0  0  0  0
 26 25  1  1  0  0  0
 27 26  1  0  0  0  0
 28 27  1  0  0  0  0
 28 26  1  0  0  0  0
M  END
>  <MODEL>
6

>  <REMARK>
 VINA RESULT:      -6.0      2.287      7.207
  Name = 
  12 active torsions:
  status: ('A' for Active; 'I' for Inactive)
    1  A    between atoms: C_3  and  C_7
    2  A    between atoms: C_3  and  C_11
    3  A    between atoms: C_3  and  C_27
    4  A    between atoms: C_4  and  C_12
    5  A    between atoms: C_4  and  C_24
    6  A    between atoms: C_6  and  C_11
    7  A    between atoms: C_9  and  C_13
    8  A    between atoms: C_9  and  C_18
    9  A    between atoms: C_10  and  C_13
   10  A    between atoms: C_13  and  C_24
   11  A    between atoms: C_14  and  C_18
   12  A    between atoms: C_19  and  C_21
                            x       y       z     vdW  Elec       q    Type
                         _______ _______ _______ _____ _____    ______ ____

>  <TORSDO>
F 12

$$$$
=
 OpenBabel10262420573D

 28 29  0  0  1  0  0  0  0  0999 V2000
  184.7170  179.4160  143.6570 O   0  0  0  0  0  0  0  0  0  0  0  0
  186.8000  179.3970  141.7000 O   0  0  0  0  0  1  0  0  0  0  0  0
  187.3100  178.0570  143.6290 C   0  0  1  0  0  3  0  0  0  0  0  0
  185.9080  177.1310  145.5060 C   0  0  0  0  0  3  0  0  0  0  0  0
  186.4050  178.2510  142.3970 C   0  0  1  0  0  3  0  0  0  0  0  0
  186.8360  176.9690  144.5500 C   0  0  0  0  0  3  0  0  0  0  0  0
  185.1660  178.4030  145.8320 C   0  0  2  0  0  3  0  0  0  0  0  0
  184.1290  178.8560  144.8000 C   0  0  0  0  0  2  0  0  0  0  0  0
  184.9150  178.3470  142.7700 C   0  0  2  0  0  3  0  0  0  0  0  0
  183.8060  177.1600  141.0070 O   0  0  0  0  0  1  0  0  0  0  0  0
  183.9700  178.4390  141.5420 C   0  0  2  0  0  0  0  0  0  0  0  0
  184.5780  179.3070  140.4270 C   0  0  0  0  0  2  0  0  0  0  0  0
  184.5440  178.6690  139.0440 C   0  0  0  0  0  1  0  0  0  0  0  0
  182.5690  178.9550  141.9230 C   0  0  0  0  0  2  0  0  0  0  0  0
  181.4240  178.3810  141.0940 C   0  0  0  0  0  2  0  0  0  0  0  0
  180.8200  179.4510  140.2080 C   0  0  0  0  0  1  0  0  0  0  0  0
  186.7480  179.0020  147.7390 C   0  0  0  0  0  1  0  0  0  0  0  0
  185.9660  179.5010  146.5380 C   0  0  0  0  0  2  0  0  0  0  0  0
  188.7870  177.8140  143.2820 C   0  0  1  0  0  3  0  0  0  0  0  0
  189.7830  178.2210  144.3780 C   0  0  0  0  0  2  0  0  0  0  0  0
  190.3900  177.0260  145.1020 C   0  0  0  0  0  2  0  0  0  0  0  0
  190.5270  177.3210  146.5850 C   0  0  0  0  0  2  0  0  0  0  0  0
  189.3420  176.7560  147.3470 C   0  0  0  0  0  1  0  0  0  0  0  0
  189.0340  176.4230  142.7000 C   0  0  0  0  0  2  0  0  0  0  0  0
  190.1810  176.4360  141.7010 C   0  0  0  0  0  2  0  0  0  0  0  0
  189.9610  177.5040  140.6460 C   0  0  2  0  0  3  0  0  0  0  0  0
  188.8720  177.1300  139.8400 O   0  0  0  0  0  0  0  0  0  0  0  0
  190.1540  176.9300  139.2990 C   0  0  0  0  0  2  0  0  0  0  0  0
  1  8  1  0  0  0  0
  3 19  1  6  0  0  0
  3  6  1  0  0  0  0
  4  7  1  0  0  0  0
  5  2  1  1  0  0  0
  5  9  1  0  0  0  0
  5  3  1  0  0  0  0
  6  4  2  0  0  0  0
  7 18  1  6  0  0  0
  8  7  1  0  0  0  0
  9 11  1  6  0  0  0
  9  1  1  0  0  0  0
 11 10  1  6  0  0  0
 11 14  1  0  0  0  0
 12 11  1  0  0  0  0
 13 12  1  0  0  0  0
 15 14  1  0  0  0  0
 16 15  1  0  0  0  0
 18 17  1  0  0  0  0
 19 24  1  1  0  0  0
 19 20  1  0  0  0  0
 20 21  1  0  0  0  0
 21 22  1  0  0  0  0
 22 23  1  0  0  0  0
 25 24  1  0  0  0  0
 26 25  1  1  0  0  0
 27 26  1  0  0  0  0
 28 27  1  0  0  0  0
 28 26  1  0  0  0  0
M  END
>  <MODEL>
7

>  <REMARK>
 VINA RESULT:      -5.6      2.336      6.017
  Name = 
  12 active torsions:
  status: ('A' for Active; 'I' for Inactive)
    1  A    between atoms: C_3  and  C_7
    2  A    between atoms: C_3  and  C_11
    3  A    between atoms: C_3  and  C_27
    4  A    between atoms: C_4  and  C_12
    5  A    between atoms: C_4  and  C_24
    6  A    between atoms: C_6  and  C_11
    7  A    between atoms: C_9  and  C_13
    8  A    between atoms: C_9  and  C_18
    9  A    between atoms: C_10  and  C_13
   10  A    between atoms: C_13  and  C_24
   11  A    between atoms: C_14  and  C_18
   12  A    between atoms: C_19  and  C_21
                            x       y       z     vdW  Elec       q    Type
                         _______ _______ _______ _____ _____    ______ ____

>  <TORSDO>
F 12

$$$$
=
 OpenBabel10262420573D

 28 29  0  0  1  0  0  0  0  0999 V2000
  185.6280  178.8960  143.7350 O   0  0  0  0  0  0  0  0  0  0  0  0
  186.9360  179.7610  141.3450 O   0  0  0  0  0  1  0  0  0  0  0  0
  188.0930  177.9700  142.4540 C   0  0  1  0  0  3  0  0  0  0  0  0
  187.4220  176.3310  144.2440 C   0  0  0  0  0  3  0  0  0  0  0  0
  186.8230  178.4140  141.7020 C   0  0  1  0  0  3  0  0  0  0  0  0
  187.9800  176.5980  143.0540 C   0  0  0  0  0  3  0  0  0  0  0  0
  186.8040  177.3290  145.1910 C   0  0  2  0  0  3  0  0  0  0  0  0
  185.4710  177.9370  144.7450 C   0  0  0  0  0  2  0  0  0  0  0  0
  185.5420  178.1910  142.5250 C   0  0  2  0  0  3  0  0  0  0  0  0
  183.6600  177.3430  141.3070 O   0  0  0  0  0  1  0  0  0  0  0  0
  184.2390  178.5320  141.7540 C   0  0  2  0  0  0  0  0  0  0  0  0
  184.5290  179.3770  140.5020 C   0  0  0  0  0  2  0  0  0  0  0  0
  184.0590  178.7500  139.1960 C   0  0  0  0  0  1  0  0  0  0  0  0
  183.2000  179.2350  142.6500 C   0  0  0  0  0  2  0  0  0  0  0  0
  181.7450  178.9430  142.2970 C   0  0  0  0  0  2  0  0  0  0  0  0
  180.9490  178.6240  143.5470 C   0  0  0  0  0  1  0  0  0  0  0  0
  188.4850  177.5670  147.0930 C   0  0  0  0  0  1  0  0  0  0  0  0
  187.7680  178.2500  145.9420 C   0  0  0  0  0  2  0  0  0  0  0  0
  189.3740  178.0460  141.6070 C   0  0  1  0  0  3  0  0  0  0  0  0
  190.6720  177.7510  142.3740 C   0  0  0  0  0  2  0  0  0  0  0  0
  190.8370  178.6160  143.6170 C   0  0  0  0  0  2  0  0  0  0  0  0
  191.6150  177.8670  144.6830 C   0  0  0  0  0  2  0  0  0  0  0  0
  191.2990  176.3840  144.6230 C   0  0  0  0  0  1  0  0  0  0  0  0
  189.2480  177.2970  140.2810 C   0  0  0  0  0  2  0  0  0  0  0  0
  189.4290  178.2340  139.0970 C   0  0  0  0  0  2  0  0  0  0  0  0
  188.2400  178.1480  138.1580 C   0  0  2  0  0  3  0  0  0  0  0  0
  188.3870  177.0130  137.3430 O   0  0  0  0  0  0  0  0  0  0  0  0
  188.6960  178.2540  136.7570 C   0  0  0  0  0  2  0  0  0  0  0  0
  1  8  1  0  0  0  0
  3 19  1  6  0  0  0
  3  6  1  0  0  0  0
  4  7  1  0  0  0  0
  5  2  1  1  0  0  0
  5  3  1  0  0  0  0
  5  9  1  0  0  0  0
  6  4  2  0  0  0  0
  7 18  1  6  0  0  0
  8  7  1  0  0  0  0
  9 11  1  6  0  0  0
  9  1  1  0  0  0  0
 11 10  1  6  0  0  0
 11 14  1  0  0  0  0
 12 11  1  0  0  0  0
 13 12  1  0  0  0  0
 15 14  1  0  0  0  0
 15 16  1  0  0  0  0
 18 17  1  0  0  0  0
 19 24  1  6  0  0  0
 19 20  1  0  0  0  0
 20 21  1  0  0  0  0
 21 22  1  0  0  0  0
 23 22  1  0  0  0  0
 25 24  1  0  0  0  0
 26 25  1  1  0  0  0
 27 26  1  0  0  0  0
 28 27  1  0  0  0  0
 28 26  1  0  0  0  0
M  END
>  <MODEL>
8

>  <REMARK>
 VINA RESULT:      -5.4      2.180      6.183
  Name = 
  12 active torsions:
  status: ('A' for Active; 'I' for Inactive)
    1  A    between atoms: C_3  and  C_7
    2  A    between atoms: C_3  and  C_11
    3  A    between atoms: C_3  and  C_27
    4  A    between atoms: C_4  and  C_12
    5  A    between atoms: C_4  and  C_24
    6  A    between atoms: C_6  and  C_11
    7  A    between atoms: C_9  and  C_13
    8  A    between atoms: C_9  and  C_18
    9  A    between atoms: C_10  and  C_13
   10  A    between atoms: C_13  and  C_24
   11  A    between atoms: C_14  and  C_18
   12  A    between atoms: C_19  and  C_21
                            x       y       z     vdW  Elec       q    Type
                         _______ _______ _______ _____ _____    ______ ____

>  <TORSDO>
F 12

$$$$
=
 OpenBabel10262420573D

 28 29  0  0  1  0  0  0  0  0999 V2000
  185.8020  179.0250  144.2150 O   0  0  0  0  0  0  0  0  0  0  0  0
  186.8660  179.6380  141.6340 O   0  0  0  0  0  1  0  0  0  0  0  0
  188.0260  177.8390  142.7250 C   0  0  1  0  0  3  0  0  0  0  0  0
  187.4680  176.3690  144.6930 C   0  0  0  0  0  3  0  0  0  0  0  0
  186.7070  178.3290  142.0960 C   0  0  1  0  0  3  0  0  0  0  0  0
  187.8940  176.5190  143.4300 C   0  0  0  0  0  3  0  0  0  0  0  0
  187.0370  177.4680  145.6320 C   0  0  2  0  0  3  0  0  0  0  0  0
  185.7040  178.1460  145.3010 C   0  0  0  0  0  2  0  0  0  0  0  0
  185.5230  178.2540  143.0760 C   0  0  2  0  0  3  0  0  0  0  0  0
  184.1920  180.0020  142.1180 O   0  0  0  0  0  1  0  0  0  0  0  0
  184.1620  178.6430  142.4400 C   0  0  2  0  0  0  0  0  0  0  0  0
  183.0010  178.4520  143.4310 C   0  0  0  0  0  2  0  0  0  0  0  0
  181.6660  179.0080  142.9520 C   0  0  0  0  0  1  0  0  0  0  0  0
  183.8880  177.8730  141.1330 C   0  0  0  0  0  2  0  0  0  0  0  0
  183.7830  178.7430  139.8840 C   0  0  0  0  0  2  0  0  0  0  0  0
  184.8130  178.3220  138.8550 C   0  0  0  0  0  1  0  0  0  0  0  0
  188.8540  177.7550  147.3970 C   0  0  0  0  0  1  0  0  0  0  0  0
  188.1450  178.3590  146.1990 C   0  0  0  0  0  2  0  0  0  0  0  0
  189.1970  177.7650  141.7320 C   0  0  1  0  0  3  0  0  0  0  0  0
  190.4240  176.9930  142.2390 C   0  0  0  0  0  2  0  0  0  0  0  0
  191.5880  177.9040  142.6080 C   0  0  0  0  0  2  0  0  0  0  0  0
  191.6550  178.0950  144.1120 C   0  0  0  0  0  2  0  0  0  0  0  0
  191.3120  176.7990  144.8230 C   0  0  0  0  0  1  0  0  0  0  0  0
  188.7510  177.3730  140.3240 C   0  0  0  0  0  2  0  0  0  0  0  0
  189.7210  177.8900  139.2730 C   0  0  0  0  0  2  0  0  0  0  0  0
  190.1240  176.7790  138.3210 C   0  0  2  0  0  3  0  0  0  0  0  0
  190.5790  175.6810  139.0720 O   0  0  0  0  0  0  0  0  0  0  0  0
  191.5640  176.4850  138.4710 C   0  0  0  0  0  2  0  0  0  0  0  0
  1  8  1  0  0  0  0
  3 19  1  6  0  0  0
  3  6  1  0  0  0  0
  4  7  1  0  0  0  0
  5  2  1  1  0  0  0
  5  3  1  0  0  0  0
  5  9  1  0  0  0  0
  6  4  2  0  0  0  0
  7 18  1  6  0  0  0
  8  7  1  0  0  0  0
  9 11  1  6  0  0  0
  9  1  1  0  0  0  0
 11 10  1  6  0  0  0
 11 12  1  0  0  0  0
 13 12  1  0  0  0  0
 14 11  1  0  0  0  0
 15 14  1  0  0  0  0
 16 15  1  0  0  0  0
 18 17  1  0  0  0  0
 19 24  1  6  0  0  0
 19 20  1  0  0  0  0
 20 21  1  0  0  0  0
 21 22  1  0  0  0  0
 22 23  1  0  0  0  0
 25 24  1  0  0  0  0
 26 28  1  0  0  0  0
 26 27  1  0  0  0  0
 26 25  1  1  0  0  0
 28 27  1  0  0  0  0
M  END
>  <MODEL>
9

>  <REMARK>
 VINA RESULT:      -5.4      1.983      6.268
  Name = 
  12 active torsions:
  status: ('A' for Active; 'I' for Inactive)
    1  A    between atoms: C_3  and  C_7
    2  A    between atoms: C_3  and  C_11
    3  A    between atoms: C_3  and  C_27
    4  A    between atoms: C_4  and  C_12
    5  A    between atoms: C_4  and  C_24
    6  A    between atoms: C_6  and  C_11
    7  A    between atoms: C_9  and  C_13
    8  A    between atoms: C_9  and  C_18
    9  A    between atoms: C_10  and  C_13
   10  A    between atoms: C_13  and  C_24
   11  A    between atoms: C_14  and  C_18
   12  A    between atoms: C_19  and  C_21
                            x       y       z     vdW  Elec       q    Type
                         _______ _______ _______ _____ _____    ______ ____

>  <TORSDO>
F 12

$$$$
