=
 OpenBabel10262421253D

 32 38  0  0  1  0  0  0  0  0999 V2000
  188.1370  177.7140  145.9950 C   0  0  0  0  0  2  0  0  0  0  0  0
  188.0140  178.2070  141.1080 C   0  0  0  0  0  0  0  0  0  0  0  0
  183.2220  178.7230  140.2670 C   0  0  0  0  0  3  0  0  0  0  0  0
  183.4320  178.0740  138.9290 C   0  0  0  0  0  2  0  0  0  0  0  0
  189.3810  178.0900  138.9330 C   0  0  2  0  0  3  0  0  0  0  0  0
  190.2040  177.0620  139.6350 C   0  0  0  0  0  0  0  0  0  0  0  0
  188.7110  177.7170  143.3970 C   0  0  1  0  0  3  0  0  0  0  0  0
  186.3080  177.9420  142.8030 N   0  0  0  0  0  2  0  0  0  0  0  0
  189.4620  176.5210  136.9010 C   0  0  0  0  0  0  0  0  0  0  0  0
  186.9140  177.3750  145.1360 C   0  0  0  0  0  2  0  0  0  0  0  0
  184.2540  178.9530  141.0820 C   0  0  0  0  0  3  0  0  0  0  0  0
  186.6230  178.3400  141.6020 C   0  0  0  0  0  0  0  0  0  0  0  0
  185.5970  178.6910  140.6470 N   0  0  0  0  0  0  0  0  0  0  0  0
  187.1240  178.3740  138.8070 C   0  0  0  0  0  0  0  0  0  0  0  0
  190.3630  175.7640  137.5460 C   0  0  0  0  0  3  0  0  0  0  0  0
  187.2750  177.2500  143.6580 C   0  0  2  0  0  3  0  0  0  0  0  0
  190.7020  176.0050  138.9750 C   0  0  0  0  0  3  0  0  0  0  0  0
  189.6150  176.8920  144.0950 O   0  0  0  0  0  0  0  0  0  0  0  0
  189.4090  176.9790  145.5040 C   0  0  1  0  0  3  0  0  0  0  0  0
  184.7170  178.5560  138.2560 C   0  0  0  0  0  2  0  0  0  0  0  0
  185.8610  178.5290  139.2290 C   0  0  0  0  0  0  0  0  0  0  0  0
  187.4970  177.7940  137.5620 N   0  0  0  0  0  2  0  0  0  0  0  0
  188.9960  177.7630  141.9180 C   0  0  2  0  0  3  0  0  0  0  0  0
  190.6830  177.4540  141.3170 S   0  0  0  0  0  0  0  0  0  0  0  0
  189.0830  176.2040  135.4980 C   0  0  0  0  0  1  0  0  0  0  0  0
  188.2130  178.4340  139.7110 N   0  0  0  0  0  0  0  0  0  0  0  0
  188.7740  177.5730  137.6600 C   0  0  1  0  0  3  0  0  0  0  0  0
  190.6630  177.4780  146.2180 C   0  0  0  0  0  2  0  0  0  0  0  0
  190.9260  176.7550  147.5350 C   0  0  0  0  0  2  0  0  0  0  0  0
  192.1580  175.9160  147.4630 C   0  0  0  0  0  0  0  0  0  0  0  0
  193.1080  175.9760  148.4750 O   0  0  0  0  0  1  0  0  0  0  0  0
  192.3510  175.1740  146.4660 O   0  0  0  0  0  0  0  0  0  0  0  0
  2 12  2  0  0  0  0
  3 11  2  0  0  0  0
  4  3  1  0  0  0  0
  5  6  1  1  0  0  0
  5 26  1  0  0  0  0
  6 24  1  0  0  0  0
  7 16  1  0  0  0  0
  7 18  1  1  0  0  0
  8 16  1  0  0  0  0
  9 15  2  0  0  0  0
 10  1  1  0  0  0  0
 12  8  1  0  0  0  0
 13 11  1  0  0  0  0
 13 12  1  0  0  0  0
 14 21  2  0  0  0  0
 14 26  1  0  0  0  0
 15 17  1  0  0  0  0
 16 10  1  1  0  0  0
 17  6  2  0  0  0  0
 18 19  1  0  0  0  0
 19  1  1  0  0  0  0
 19 28  1  1  0  0  0
 20  4  1  0  0  0  0
 20 21  1  0  0  0  0
 21 13  1  0  0  0  0
 22 27  1  0  0  0  0
 22 14  1  0  0  0  0
 23  2  1  1  0  0  0
 23  7  1  0  0  0  0
 24 23  1  0  0  0  0
 25  9  1  0  0  0  0
 26  2  1  0  0  0  0
 27  9  1  1  0  0  0
 27  5  1  0  0  0  0
 28 29  1  0  0  0  0
 30 29  1  0  0  0  0
 30 31  1  0  0  0  0
 32 30  2  0  0  0  0
M  END
>  <MODEL>
1

>  <REMARK>
 VINA RESULT:      -9.5      0.000      0.000
  Name = 
  3 active torsions:
  status: ('A' for Active; 'I' for Inactive)
    1  A    between atoms: C_1  and  C_10
    2  A    between atoms: C_10  and  C_19
    3  A    between atoms: C_19  and  C_24
                            x       y       z     vdW  Elec       q    Type
                         _______ _______ _______ _____ _____    ______ ____

>  <TORSDO>
F 3

$$$$
=
 OpenBabel10262421253D

 32 38  0  0  1  0  0  0  0  0999 V2000
  189.7070  177.5540  138.2320 C   0  0  0  0  0  2  0  0  0  0  0  0
  188.2370  177.1580  142.9030 C   0  0  0  0  0  0  0  0  0  0  0  0
  183.8630  179.3450  142.7730 C   0  0  0  0  0  3  0  0  0  0  0  0
  184.0770  179.7580  144.2020 C   0  0  0  0  0  2  0  0  0  0  0  0
  188.9220  176.4840  145.2890 C   0  0  2  0  0  3  0  0  0  0  0  0
  190.3000  176.9000  144.8920 C   0  0  0  0  0  0  0  0  0  0  0  0
  189.5850  177.2090  140.8680 C   0  0  1  0  0  3  0  0  0  0  0  0
  187.3710  178.3330  140.9740 N   0  0  0  0  0  2  0  0  0  0  0  0
  189.3630  177.7300  147.4910 C   0  0  0  0  0  0  0  0  0  0  0  0
  188.6960  178.4990  138.8890 C   0  0  0  0  0  2  0  0  0  0  0  0
  184.7670  178.5960  142.1390 C   0  0  0  0  0  3  0  0  0  0  0  0
  187.1430  177.8150  142.1490 C   0  0  0  0  0  0  0  0  0  0  0  0
  185.9040  178.0740  142.8440 N   0  0  0  0  0  0  0  0  0  0  0  0
  186.9020  177.4830  144.9590 C   0  0  0  0  0  0  0  0  0  0  0  0
  190.6470  177.8750  147.1290 C   0  0  0  0  0  3  0  0  0  0  0  0
  188.7220  178.3900  140.4110 C   0  0  2  0  0  3  0  0  0  0  0  0
  191.1190  177.5030  145.7680 C   0  0  0  0  0  3  0  0  0  0  0  0
  190.9200  177.4120  140.4630 O   0  0  0  0  0  0  0  0  0  0  0  0
  191.0240  177.4670  139.0410 C   0  0  1  0  0  3  0  0  0  0  0  0
  184.7160  178.6440  145.0290 C   0  0  0  0  0  2  0  0  0  0  0  0
  185.8840  178.0490  144.2950 C   0  0  0  0  0  0  0  0  0  0  0  0
  187.2320  177.7500  146.3170 N   0  0  0  0  0  2  0  0  0  0  0  0
  189.4590  176.9990  142.3540 C   0  0  2  0  0  3  0  0  0  0  0  0
  190.8640  176.3270  143.2900 S   0  0  0  0  0  0  0  0  0  0  0  0
  188.9050  178.1880  148.8300 C   0  0  0  0  0  1  0  0  0  0  0  0
  187.9620  176.8450  144.2710 N   0  0  0  0  0  0  0  0  0  0  0  0
  188.4140  177.2350  146.4850 C   0  0  1  0  0  3  0  0  0  0  0  0
  191.9440  176.3690  138.5100 C   0  0  0  0  0  2  0  0  0  0  0  0
  191.5020  175.8270  137.1540 C   0  0  0  0  0  2  0  0  0  0  0  0
  191.3670  174.3420  137.1760 C   0  0  0  0  0  0  0  0  0  0  0  0
  190.1810  173.7510  137.5930 O   0  0  0  0  0  1  0  0  0  0  0  0
  192.3420  173.6200  136.8430 O   0  0  0  0  0  0  0  0  0  0  0  0
  1 10  1  0  0  0  0
  1 19  1  0  0  0  0
  2 26  1  0  0  0  0
  3  4  1  0  0  0  0
  4 20  1  0  0  0  0
  5  6  1  6  0  0  0
  5 27  1  0  0  0  0
  6 17  2  0  0  0  0
  7 18  1  1  0  0  0
  7 23  1  0  0  0  0
  8 12  1  0  0  0  0
  9 25  1  0  0  0  0
 11  3  2  0  0  0  0
 11 13  1  0  0  0  0
 12 13  1  0  0  0  0
 12  2  2  0  0  0  0
 13 21  1  0  0  0  0
 14 22  1  0  0  0  0
 15  9  2  0  0  0  0
 16 10  1  6  0  0  0
 16  7  1  0  0  0  0
 16  8  1  0  0  0  0
 17 15  1  0  0  0  0
 19 28  1  6  0  0  0
 19 18  1  0  0  0  0
 21 14  2  0  0  0  0
 21 20  1  0  0  0  0
 23  2  1  6  0  0  0
 23 24  1  0  0  0  0
 24  6  1  0  0  0  0
 26 14  1  0  0  0  0
 26  5  1  0  0  0  0
 27 22  1  6  0  0  0
 27  9  1  0  0  0  0
 29 30  1  0  0  0  0
 29 28  1  0  0  0  0
 30 31  1  0  0  0  0
 32 30  2  0  0  0  0
M  END
>  <MODEL>
2

>  <REMARK>
 VINA RESULT:      -9.3      2.682      6.972
  Name = 
  3 active torsions:
  status: ('A' for Active; 'I' for Inactive)
    1  A    between atoms: C_1  and  C_10
    2  A    between atoms: C_10  and  C_19
    3  A    between atoms: C_19  and  C_24
                            x       y       z     vdW  Elec       q    Type
                         _______ _______ _______ _____ _____    ______ ____

>  <TORSDO>
F 3

$$$$
=
 OpenBabel10262421253D

 32 38  0  0  1  0  0  0  0  0999 V2000
  188.6410  177.4540  146.0330 C   0  0  0  0  0  2  0  0  0  0  0  0
  186.9540  178.3340  141.5030 C   0  0  0  0  0  0  0  0  0  0  0  0
  182.1520  178.8330  142.2940 C   0  0  0  0  0  3  0  0  0  0  0  0
  181.9140  178.2970  140.9110 C   0  0  0  0  0  2  0  0  0  0  0  0
  187.5460  178.4150  139.0010 C   0  0  2  0  0  3  0  0  0  0  0  0
  188.5410  177.3490  139.3150 C   0  0  0  0  0  0  0  0  0  0  0  0
  188.3470  177.6750  143.3970 C   0  0  1  0  0  3  0  0  0  0  0  0
  185.8830  177.9050  143.6290 N   0  0  0  0  0  2  0  0  0  0  0  0
  186.9530  177.0150  136.9310 C   0  0  0  0  0  0  0  0  0  0  0  0
  187.2040  177.1630  145.5880 C   0  0  0  0  0  2  0  0  0  0  0  0
  183.3940  179.0150  142.7490 C   0  0  0  0  0  3  0  0  0  0  0  0
  185.7980  178.4030  142.4270 C   0  0  0  0  0  0  0  0  0  0  0  0
  184.5220  178.8120  141.8850 N   0  0  0  0  0  0  0  0  0  0  0  0
  185.3720  178.6690  139.6320 C   0  0  0  0  0  0  0  0  0  0  0  0
  188.0070  176.2250  137.1870 C   0  0  0  0  0  3  0  0  0  0  0  0
  187.0680  177.1630  144.0680 C   0  0  2  0  0  3  0  0  0  0  0  0
  188.7900  176.3570  138.4460 C   0  0  0  0  0  3  0  0  0  0  0  0
  189.4200  176.8110  143.6970 O   0  0  0  0  0  0  0  0  0  0  0  0
  189.6800  176.7820  145.1000 C   0  0  1  0  0  3  0  0  0  0  0  0
  182.9180  178.8540  139.9020 C   0  0  0  0  0  2  0  0  0  0  0  0
  184.3140  178.7690  140.4490 C   0  0  0  0  0  0  0  0  0  0  0  0
  185.3180  178.1970  138.2900 N   0  0  0  0  0  2  0  0  0  0  0  0
  188.1410  177.8440  141.9140 C   0  0  2  0  0  3  0  0  0  0  0  0
  189.5410  177.6120  140.7790 S   0  0  0  0  0  0  0  0  0  0  0  0
  186.1390  176.8050  135.7040 C   0  0  0  0  0  1  0  0  0  0  0  0
  186.6940  178.6760  140.1390 N   0  0  0  0  0  0  0  0  0  0  0  0
  186.5570  177.9920  137.9540 C   0  0  1  0  0  3  0  0  0  0  0  0
  191.1020  177.2440  145.4100 C   0  0  0  0  0  2  0  0  0  0  0  0
  191.9570  176.1530  146.0470 C   0  0  0  0  0  2  0  0  0  0  0  0
  192.0540  176.3260  147.5250 C   0  0  0  0  0  0  0  0  0  0  0  0
  191.4490  177.4120  148.1460 O   0  0  0  0  0  0  0  0  0  0  0  0
  192.7130  175.5010  148.2100 O   0  0  0  0  0  1  0  0  0  0  0  0
  2 23  1  0  0  0  0
  2 12  2  0  0  0  0
  3 11  2  0  0  0  0
  4  3  1  0  0  0  0
  5  6  1  1  0  0  0
  5 26  1  0  0  0  0
  6 24  1  0  0  0  0
  7 18  1  6  0  0  0
  7 16  1  0  0  0  0
  8 16  1  0  0  0  0
  9 15  2  0  0  0  0
 10  1  1  0  0  0  0
 12  8  1  0  0  0  0
 13 12  1  0  0  0  0
 13 11  1  0  0  0  0
 14 26  1  0  0  0  0
 14 21  2  0  0  0  0
 15 17  1  0  0  0  0
 16 10  1  1  0  0  0
 17  6  2  0  0  0  0
 18 19  1  0  0  0  0
 19 28  1  6  0  0  0
 19  1  1  0  0  0  0
 20 21  1  0  0  0  0
 20  4  1  0  0  0  0
 21 13  1  0  0  0  0
 22 14  1  0  0  0  0
 23 24  1  1  0  0  0
 23  7  1  0  0  0  0
 25  9  1  0  0  0  0
 26  2  1  0  0  0  0
 27  9  1  1  0  0  0
 27 22  1  0  0  0  0
 27  5  1  0  0  0  0
 28 29  1  0  0  0  0
 29 30  1  0  0  0  0
 30 31  2  0  0  0  0
 30 32  1  0  0  0  0
M  END
>  <MODEL>
3

>  <REMARK>
 VINA RESULT:      -9.2      1.334      1.741
  Name = 
  3 active torsions:
  status: ('A' for Active; 'I' for Inactive)
    1  A    between atoms: C_1  and  C_10
    2  A    between atoms: C_10  and  C_19
    3  A    between atoms: C_19  and  C_24
                            x       y       z     vdW  Elec       q    Type
                         _______ _______ _______ _____ _____    ______ ____

>  <TORSDO>
F 3

$$$$
=
 OpenBabel10262421253D

 32 38  0  0  1  0  0  0  0  0999 V2000
  190.0070  177.4850  138.3270 C   0  0  0  0  0  2  0  0  0  0  0  0
  188.3630  177.1100  142.9410 C   0  0  0  0  0  0  0  0  0  0  0  0
  183.9800  179.2600  142.6280 C   0  0  0  0  0  3  0  0  0  0  0  0
  184.1360  179.6850  144.0610 C   0  0  0  0  0  2  0  0  0  0  0  0
  188.9620  176.4580  145.3560 C   0  0  2  0  0  3  0  0  0  0  0  0
  190.3500  176.8820  145.0100 C   0  0  0  0  0  0  0  0  0  0  0  0
  189.7880  177.1580  140.9590 C   0  0  1  0  0  3  0  0  0  0  0  0
  187.5620  178.2640  140.9730 N   0  0  0  0  0  2  0  0  0  0  0  0
  189.3080  177.7220  147.5650 C   0  0  0  0  0  0  0  0  0  0  0  0
  188.9650  178.4270  138.9380 C   0  0  0  0  0  2  0  0  0  0  0  0
  184.9130  178.5140  142.0340 C   0  0  0  0  0  3  0  0  0  0  0  0
  187.2940  177.7520  142.1410 C   0  0  0  0  0  0  0  0  0  0  0  0
  186.0260  178.0060  142.7860 N   0  0  0  0  0  0  0  0  0  0  0  0
  186.9470  177.4380  144.9420 C   0  0  0  0  0  0  0  0  0  0  0  0
  190.6040  177.8760  147.2510 C   0  0  0  0  0  3  0  0  0  0  0  0
  188.9330  178.3290  140.4610 C   0  0  2  0  0  3  0  0  0  0  0  0
  191.1300  177.4980  145.9120 C   0  0  0  0  0  3  0  0  0  0  0  0
  191.1360  177.3680  140.6040 O   0  0  0  0  0  0  0  0  0  0  0  0
  191.2940  177.4140  139.1870 C   0  0  1  0  0  3  0  0  0  0  0  0
  184.7520  178.5810  144.9200 C   0  0  0  0  0  2  0  0  0  0  0  0
  185.9520  177.9910  144.2360 C   0  0  0  0  0  0  0  0  0  0  0  0
  187.2240  177.7170  146.3100 N   0  0  0  0  0  2  0  0  0  0  0  0
  189.6060  176.9570  142.4410 C   0  0  2  0  0  3  0  0  0  0  0  0
  190.9790  176.3020  143.4350 S   0  0  0  0  0  0  0  0  0  0  0  0
  188.7950  178.1860  148.8820 C   0  0  0  0  0  1  0  0  0  0  0  0
  188.0380  176.8040  144.3000 N   0  0  0  0  0  0  0  0  0  0  0  0
  188.4020  177.2130  146.5270 C   0  0  1  0  0  3  0  0  0  0  0  0
  192.2410  176.3200  138.6990 C   0  0  0  0  0  2  0  0  0  0  0  0
  192.1600  176.0900  137.1930 C   0  0  0  0  0  2  0  0  0  0  0  0
  193.5140  175.9170  136.5920 C   0  0  0  0  0  0  0  0  0  0  0  0
  193.6520  175.6760  135.2310 O   0  0  0  0  0  0  0  0  0  0  0  0
  194.5350  175.9590  137.3260 O   0  0  0  0  0  1  0  0  0  0  0  0
  1 10  1  0  0  0  0
  1 19  1  0  0  0  0
  2 26  1  0  0  0  0
  3  4  1  0  0  0  0
  4 20  1  0  0  0  0
  5  6  1  6  0  0  0
  5 27  1  0  0  0  0
  6 17  2  0  0  0  0
  7 18  1  1  0  0  0
  7 23  1  0  0  0  0
  8 12  1  0  0  0  0
  9 25  1  0  0  0  0
 11  3  2  0  0  0  0
 11 13  1  0  0  0  0
 12 13  1  0  0  0  0
 12  2  2  0  0  0  0
 13 21  1  0  0  0  0
 14 22  1  0  0  0  0
 15  9  2  0  0  0  0
 16 10  1  6  0  0  0
 16  7  1  0  0  0  0
 16  8  1  0  0  0  0
 17 15  1  0  0  0  0
 19 28  1  6  0  0  0
 19 18  1  0  0  0  0
 21 20  1  0  0  0  0
 21 14  2  0  0  0  0
 23  2  1  6  0  0  0
 23 24  1  0  0  0  0
 24  6  1  0  0  0  0
 26 14  1  0  0  0  0
 26  5  1  0  0  0  0
 27 22  1  6  0  0  0
 27  9  1  0  0  0  0
 29 28  1  0  0  0  0
 30 29  1  0  0  0  0
 30 32  1  0  0  0  0
 31 30  2  0  0  0  0
M  END
>  <MODEL>
4

>  <REMARK>
 VINA RESULT:      -9.0      2.923      7.091
  Name = 
  3 active torsions:
  status: ('A' for Active; 'I' for Inactive)
    1  A    between atoms: C_1  and  C_10
    2  A    between atoms: C_10  and  C_19
    3  A    between atoms: C_19  and  C_24
                            x       y       z     vdW  Elec       q    Type
                         _______ _______ _______ _____ _____    ______ ____

>  <TORSDO>
F 3

$$$$
=
 OpenBabel10262421253D

 32 38  0  0  1  0  0  0  0  0999 V2000
  187.7120  177.7890  146.2720 C   0  0  0  0  0  2  0  0  0  0  0  0
  186.4460  178.4570  141.5720 C   0  0  0  0  0  0  0  0  0  0  0  0
  181.5700  178.7330  141.8710 C   0  0  0  0  0  3  0  0  0  0  0  0
  181.4970  178.1480  140.4890 C   0  0  0  0  0  2  0  0  0  0  0  0
  187.2800  178.4980  139.1390 C   0  0  2  0  0  3  0  0  0  0  0  0
  188.2890  177.4920  139.5850 C   0  0  0  0  0  0  0  0  0  0  0  0
  187.6730  177.9210  143.6140 C   0  0  1  0  0  3  0  0  0  0  0  0
  185.1900  178.0330  143.5950 N   0  0  0  0  0  2  0  0  0  0  0  0
  186.9640  177.0130  137.0680 C   0  0  0  0  0  0  0  0  0  0  0  0
  186.3420  177.4130  145.6980 C   0  0  0  0  0  2  0  0  0  0  0  0
  182.7500  178.9900  142.4400 C   0  0  0  0  0  3  0  0  0  0  0  0
  185.2010  178.4930  142.3760 C   0  0  0  0  0  0  0  0  0  0  0  0
  183.9680  178.8210  141.6980 N   0  0  0  0  0  0  0  0  0  0  0  0
  185.0440  178.6590  139.5450 C   0  0  0  0  0  0  0  0  0  0  0  0
  188.0230  176.2840  137.4520 C   0  0  0  0  0  3  0  0  0  0  0  0
  186.3580  177.3640  144.1730 C   0  0  2  0  0  3  0  0  0  0  0  0
  188.6700  176.4910  138.7760 C   0  0  0  0  0  3  0  0  0  0  0  0
  188.7500  177.1220  144.0470 O   0  0  0  0  0  0  0  0  0  0  0  0
  188.8690  177.1450  145.4690 C   0  0  1  0  0  3  0  0  0  0  0  0
  182.5690  178.7260  139.5660 C   0  0  0  0  0  2  0  0  0  0  0  0
  183.9060  178.7270  140.2510 C   0  0  0  0  0  0  0  0  0  0  0  0
  185.1470  178.1480  138.2210 N   0  0  0  0  0  2  0  0  0  0  0  0
  187.6080  178.0380  142.1140 C   0  0  2  0  0  3  0  0  0  0  0  0
  189.1240  177.8470  141.1300 S   0  0  0  0  0  0  0  0  0  0  0  0
  186.2870  176.7280  135.7740 C   0  0  0  0  0  1  0  0  0  0  0  0
  186.3070  178.7460  140.1790 N   0  0  0  0  0  0  0  0  0  0  0  0
  186.4210  177.9960  138.0140 C   0  0  1  0  0  3  0  0  0  0  0  0
  190.2300  177.6870  145.9020 C   0  0  0  0  0  2  0  0  0  0  0  0
  191.3850  177.1170  145.0860 C   0  0  0  0  0  2  0  0  0  0  0  0
  191.6890  177.9660  143.8980 C   0  0  0  0  0  0  0  0  0  0  0  0
  192.0390  177.3810  142.6880 O   0  0  0  0  0  0  0  0  0  0  0  0
  191.6570  179.2190  144.0010 O   0  0  0  0  0  1  0  0  0  0  0  0
  2 23  1  0  0  0  0
  2 12  2  0  0  0  0
  3 11  2  0  0  0  0
  4  3  1  0  0  0  0
  5  6  1  1  0  0  0
  5 26  1  0  0  0  0
  6 24  1  0  0  0  0
  7 18  1  6  0  0  0
  7 16  1  0  0  0  0
  8 16  1  0  0  0  0
  9 15  2  0  0  0  0
 10  1  1  0  0  0  0
 12  8  1  0  0  0  0
 13 12  1  0  0  0  0
 13 11  1  0  0  0  0
 14 26  1  0  0  0  0
 14 21  2  0  0  0  0
 15 17  1  0  0  0  0
 16 10  1  1  0  0  0
 17  6  2  0  0  0  0
 18 19  1  0  0  0  0
 19 28  1  6  0  0  0
 19  1  1  0  0  0  0
 20 21  1  0  0  0  0
 20  4  1  0  0  0  0
 21 13  1  0  0  0  0
 22 14  1  0  0  0  0
 23 24  1  1  0  0  0
 23  7  1  0  0  0  0
 25  9  1  0  0  0  0
 26  2  1  0  0  0  0
 27  9  1  1  0  0  0
 27 22  1  0  0  0  0
 27  5  1  0  0  0  0
 29 28  1  0  0  0  0
 30 32  1  0  0  0  0
 30 29  1  0  0  0  0
 31 30  2  0  0  0  0
M  END
>  <MODEL>
5

>  <REMARK>
 VINA RESULT:      -8.7      1.906      2.400
  Name = 
  3 active torsions:
  status: ('A' for Active; 'I' for Inactive)
    1  A    between atoms: C_1  and  C_10
    2  A    between atoms: C_10  and  C_19
    3  A    between atoms: C_19  and  C_24
                            x       y       z     vdW  Elec       q    Type
                         _______ _______ _______ _____ _____    ______ ____

>  <TORSDO>
F 3

$$$$
=
 OpenBabel10262421253D

 32 38  0  0  1  0  0  0  0  0999 V2000
  181.0930  178.9630  139.1160 C   0  0  0  0  0  2  0  0  0  0  0  0
  185.8890  178.5800  140.1140 C   0  0  0  0  0  0  0  0  0  0  0  0
  187.7080  177.1680  135.7980 C   0  0  0  0  0  3  0  0  0  0  0  0
  188.7860  176.4340  136.5430 C   0  0  0  0  0  2  0  0  0  0  0  0
  187.6770  178.6200  141.9620 C   0  0  2  0  0  3  0  0  0  0  0  0
  186.6060  178.0920  142.8570 C   0  0  0  0  0  0  0  0  0  0  0  0
  183.4620  178.7560  140.3130 C   0  0  1  0  0  3  0  0  0  0  0  0
  184.5290  177.9890  138.2030 N   0  0  0  0  0  2  0  0  0  0  0  0
  189.2170  176.8830  143.0610 C   0  0  0  0  0  0  0  0  0  0  0  0
  182.0570  178.0670  138.3320 C   0  0  0  0  0  2  0  0  0  0  0  0
  186.7950  177.8870  136.4550 C   0  0  0  0  0  3  0  0  0  0  0  0
  185.7100  178.2740  138.6750 C   0  0  0  0  0  0  0  0  0  0  0  0
  186.8950  178.0670  137.8760 N   0  0  0  0  0  0  0  0  0  0  0  0
  188.2860  178.0360  139.8460 C   0  0  0  0  0  0  0  0  0  0  0  0
  188.2520  176.6220  143.9570 C   0  0  0  0  0  3  0  0  0  0  0  0
  183.3670  177.8450  139.0830 C   0  0  2  0  0  3  0  0  0  0  0  0
  186.8860  177.1980  143.8190 C   0  0  0  0  0  3  0  0  0  0  0  0
  182.4280  178.4410  141.2180 O   0  0  0  0  0  0  0  0  0  0  0  0
  181.1460  178.6740  140.6370 C   0  0  1  0  0  3  0  0  0  0  0  0
  189.3040  177.2360  137.7360 C   0  0  0  0  0  2  0  0  0  0  0  0
  188.1570  177.7860  138.5360 C   0  0  0  0  0  0  0  0  0  0  0  0
  189.2620  177.4390  140.6940 N   0  0  0  0  0  2  0  0  0  0  0  0
  184.8270  178.6630  140.9420 C   0  0  2  0  0  3  0  0  0  0  0  0
  185.0100  178.8980  142.7340 S   0  0  0  0  0  0  0  0  0  0  0  0
  190.5470  176.2270  143.1800 C   0  0  0  0  0  1  0  0  0  0  0  0
  187.2380  178.6350  140.5860 N   0  0  0  0  0  0  0  0  0  0  0  0
  188.8770  177.7190  141.9030 C   0  0  1  0  0  3  0  0  0  0  0  0
  180.3530  179.7050  141.4370 C   0  0  0  0  0  2  0  0  0  0  0  0
  180.7050  179.7050  142.9210 C   0  0  0  0  0  2  0  0  0  0  0  0
  179.7500  178.8760  143.7110 C   0  0  0  0  0  0  0  0  0  0  0  0
  179.6730  177.5040  143.5030 O   0  0  0  0  0  0  0  0  0  0  0  0
  178.9890  179.4250  144.5490 O   0  0  0  0  0  1  0  0  0  0  0  0
  1 19  1  0  0  0  0
  2 26  1  0  0  0  0
  3 11  2  0  0  0  0
  3  4  1  0  0  0  0
  4 20  1  0  0  0  0
  5  6  1  1  0  0  0
  6 17  2  0  0  0  0
  7 23  1  0  0  0  0
  7 18  1  1  0  0  0
  8 12  1  0  0  0  0
  8 16  1  0  0  0  0
  9 25  1  0  0  0  0
  9 15  2  0  0  0  0
 10  1  1  0  0  0  0
 11 13  1  0  0  0  0
 12  2  2  0  0  0  0
 13 21  1  0  0  0  0
 13 12  1  0  0  0  0
 14 26  1  0  0  0  0
 14 22  1  0  0  0  0
 16 10  1  6  0  0  0
 16  7  1  0  0  0  0
 17 15  1  0  0  0  0
 19 18  1  0  0  0  0
 19 28  1  1  0  0  0
 20 21  1  0  0  0  0
 21 14  2  0  0  0  0
 23  2  1  6  0  0  0
 23 24  1  0  0  0  0
 24  6  1  0  0  0  0
 26  5  1  0  0  0  0
 27 22  1  6  0  0  0
 27  5  1  0  0  0  0
 27  9  1  0  0  0  0
 28 29  1  0  0  0  0
 29 30  1  0  0  0  0
 30 32  1  0  0  0  0
 31 30  2  0  0  0  0
M  END
>  <MODEL>
6

>  <REMARK>
 VINA RESULT:      -8.5      3.975      7.403
  Name = 
  3 active torsions:
  status: ('A' for Active; 'I' for Inactive)
    1  A    between atoms: C_1  and  C_10
    2  A    between atoms: C_10  and  C_19
    3  A    between atoms: C_19  and  C_24
                            x       y       z     vdW  Elec       q    Type
                         _______ _______ _______ _____ _____    ______ ____

>  <TORSDO>
F 3

$$$$
=
 OpenBabel10262421253D

 32 38  0  0  1  0  0  0  0  0999 V2000
  188.4580  177.9500  145.0650 C   0  0  0  0  0  2  0  0  0  0  0  0
  185.1810  178.7760  141.4990 C   0  0  0  0  0  0  0  0  0  0  0  0
  180.9590  178.6920  143.9680 C   0  0  0  0  0  3  0  0  0  0  0  0
  180.2930  178.1770  142.7240 C   0  0  0  0  0  2  0  0  0  0  0  0
  184.8250  179.0040  138.9620 C   0  0  2  0  0  3  0  0  0  0  0  0
  185.9650  178.0500  138.8270 C   0  0  0  0  0  0  0  0  0  0  0  0
  187.2180  178.2210  142.7260 C   0  0  1  0  0  3  0  0  0  0  0  0
  184.9910  178.1580  143.8290 N   0  0  0  0  0  2  0  0  0  0  0  0
  183.6660  177.6130  137.1400 C   0  0  0  0  0  0  0  0  0  0  0  0
  186.9920  177.5100  145.1380 C   0  0  0  0  0  2  0  0  0  0  0  0
  182.2580  179.0010  143.9670 C   0  0  0  0  0  3  0  0  0  0  0  0
  184.4330  178.6810  142.7740 C   0  0  0  0  0  0  0  0  0  0  0  0
  183.0150  178.9570  142.7480 N   0  0  0  0  0  0  0  0  0  0  0  0
  183.0090  178.9850  140.3360 C   0  0  0  0  0  0  0  0  0  0  0  0
  184.8130  176.9420  136.9510 C   0  0  0  0  0  3  0  0  0  0  0  0
  186.3200  177.5440  143.7680 C   0  0  2  0  0  3  0  0  0  0  0  0
  185.9790  177.1220  137.8570 C   0  0  0  0  0  3  0  0  0  0  0  0
  188.4050  177.4780  142.5660 O   0  0  0  0  0  0  0  0  0  0  0  0
  189.1520  177.4330  143.7810 C   0  0  1  0  0  3  0  0  0  0  0  0
  180.8100  178.8770  141.4680 C   0  0  0  0  0  2  0  0  0  0  0  0
  182.3110  178.9360  141.4790 C   0  0  0  0  0  0  0  0  0  0  0  0
  182.5230  178.5540  139.0700 N   0  0  0  0  0  2  0  0  0  0  0  0
  186.4780  178.4120  141.4280 C   0  0  2  0  0  3  0  0  0  0  0  0
  187.3930  178.3800  139.8580 S   0  0  0  0  0  0  0  0  0  0  0  0
  182.4900  177.3500  136.2680 C   0  0  0  0  0  1  0  0  0  0  0  0
  184.4170  179.1280  140.3420 N   0  0  0  0  0  0  0  0  0  0  0  0
  183.5720  178.5040  138.3040 C   0  0  1  0  0  3  0  0  0  0  0  0
  190.5390  178.0460  143.6010 C   0  0  0  0  0  2  0  0  0  0  0  0
  191.4300  177.8750  144.8280 C   0  0  0  0  0  2  0  0  0  0  0  0
  191.6820  176.4360  145.1250 C   0  0  0  0  0  0  0  0  0  0  0  0
  191.9040  175.5340  144.0910 O   0  0  0  0  0  0  0  0  0  0  0  0
  191.6650  176.0300  146.3160 O   0  0  0  0  0  1  0  0  0  0  0  0
  1 10  1  0  0  0  0
  2 12  2  0  0  0  0
  4  3  1  0  0  0  0
  5  6  1  1  0  0  0
  5 26  1  0  0  0  0
  6 24  1  0  0  0  0
  7 18  1  6  0  0  0
  7 16  1  0  0  0  0
 11  3  2  0  0  0  0
 12  8  1  0  0  0  0
 13 12  1  0  0  0  0
 13 11  1  0  0  0  0
 14 26  1  0  0  0  0
 14 21  2  0  0  0  0
 15  9  2  0  0  0  0
 15 17  1  0  0  0  0
 16  8  1  0  0  0  0
 16 10  1  1  0  0  0
 17  6  2  0  0  0  0
 18 19  1  0  0  0  0
 19 28  1  6  0  0  0
 19  1  1  0  0  0  0
 20 21  1  0  0  0  0
 20  4  1  0  0  0  0
 21 13  1  0  0  0  0
 22 14  1  0  0  0  0
 23 24  1  6  0  0  0
 23  2  1  0  0  0  0
 23  7  1  0  0  0  0
 25  9  1  0  0  0  0
 26  2  1  0  0  0  0
 27  9  1  1  0  0  0
 27  5  1  0  0  0  0
 27 22  1  0  0  0  0
 28 29  1  0  0  0  0
 29 30  1  0  0  0  0
 30 32  1  0  0  0  0
 31 30  2  0  0  0  0
M  END
>  <MODEL>
7

>  <REMARK>
 VINA RESULT:      -8.3      2.542      3.851
  Name = 
  3 active torsions:
  status: ('A' for Active; 'I' for Inactive)
    1  A    between atoms: C_1  and  C_10
    2  A    between atoms: C_10  and  C_19
    3  A    between atoms: C_19  and  C_24
                            x       y       z     vdW  Elec       q    Type
                         _______ _______ _______ _____ _____    ______ ____

>  <TORSDO>
F 3

$$$$
=
 OpenBabel10262421253D

 32 38  0  0  1  0  0  0  0  0999 V2000
  190.4800  177.5800  143.5500 C   0  0  0  0  0  2  0  0  0  0  0  0
  186.3490  178.6150  141.0990 C   0  0  0  0  0  0  0  0  0  0  0  0
  183.0680  178.8800  144.7190 C   0  0  0  0  0  3  0  0  0  0  0  0
  182.0250  178.4040  143.7480 C   0  0  0  0  0  2  0  0  0  0  0  0
  185.2630  178.8420  138.7780 C   0  0  2  0  0  3  0  0  0  0  0  0
  186.2410  177.8020  138.3410 C   0  0  0  0  0  0  0  0  0  0  0  0
  188.6160  177.9190  141.6800 C   0  0  1  0  0  3  0  0  0  0  0  0
  186.8250  178.0380  143.3990 N   0  0  0  0  0  2  0  0  0  0  0  0
  183.5170  177.5240  137.4330 C   0  0  0  0  0  0  0  0  0  0  0  0
  189.0760  177.2540  144.0710 C   0  0  0  0  0  2  0  0  0  0  0  0
  184.3250  179.0890  144.3200 C   0  0  0  0  0  3  0  0  0  0  0  0
  186.0140  178.5910  142.5430 C   0  0  0  0  0  0  0  0  0  0  0  0
  184.6760  178.9740  142.9320 N   0  0  0  0  0  0  0  0  0  0  0  0
  183.9470  178.9770  140.6330 C   0  0  0  0  0  0  0  0  0  0  0  0
  184.5040  176.7640  136.9330 C   0  0  0  0  0  3  0  0  0  0  0  0
  188.0280  177.3240  142.9640 C   0  0  2  0  0  3  0  0  0  0  0  0
  185.8990  176.8650  137.4430 C   0  0  0  0  0  3  0  0  0  0  0  0
  189.6450  177.0860  141.1970 O   0  0  0  0  0  0  0  0  0  0  0  0
  190.7180  176.9980  142.1340 C   0  0  1  0  0  3  0  0  0  0  0  0
  182.1880  179.0490  142.3730 C   0  0  0  0  0  2  0  0  0  0  0  0
  183.6230  178.9940  141.9330 C   0  0  0  0  0  0  0  0  0  0  0  0
  183.0750  178.5700  139.5850 N   0  0  0  0  0  2  0  0  0  0  0  0
  187.5360  178.1520  140.6570 C   0  0  2  0  0  3  0  0  0  0  0  0
  187.9320  178.0340  138.8870 S   0  0  0  0  0  0  0  0  0  0  0  0
  182.1180  177.3410  136.9620 C   0  0  0  0  0  1  0  0  0  0  0  0
  185.2990  179.0120  140.2130 N   0  0  0  0  0  0  0  0  0  0  0  0
  183.8390  178.4310  138.5420 C   0  0  1  0  0  3  0  0  0  0  0  0
  192.0260  177.5010  141.5280 C   0  0  0  0  0  2  0  0  0  0  0  0
  192.0150  177.4990  140.0030 C   0  0  0  0  0  2  0  0  0  0  0  0
  193.3500  177.1370  139.4450 C   0  0  0  0  0  0  0  0  0  0  0  0
  193.5430  177.0730  138.0710 O   0  0  0  0  0  0  0  0  0  0  0  0
  194.2980  176.8580  140.2230 O   0  0  0  0  0  1  0  0  0  0  0  0
  1 10  1  0  0  0  0
  2 12  2  0  0  0  0
  4  3  1  0  0  0  0
  5  6  1  1  0  0  0
  5 26  1  0  0  0  0
  6 24  1  0  0  0  0
  7 18  1  6  0  0  0
  7 16  1  0  0  0  0
 11  3  2  0  0  0  0
 12 13  1  0  0  0  0
 12  8  1  0  0  0  0
 13 11  1  0  0  0  0
 14 21  2  0  0  0  0
 15  9  2  0  0  0  0
 15 17  1  0  0  0  0
 16  8  1  0  0  0  0
 16 10  1  1  0  0  0
 17  6  2  0  0  0  0
 18 19  1  0  0  0  0
 19 28  1  6  0  0  0
 19  1  1  0  0  0  0
 20  4  1  0  0  0  0
 21 20  1  0  0  0  0
 21 13  1  0  0  0  0
 22 14  1  0  0  0  0
 23 24  1  6  0  0  0
 23  2  1  0  0  0  0
 23  7  1  0  0  0  0
 25  9  1  0  0  0  0
 26 14  1  0  0  0  0
 26  2  1  0  0  0  0
 27  9  1  1  0  0  0
 27  5  1  0  0  0  0
 27 22  1  0  0  0  0
 29 28  1  0  0  0  0
 30 29  1  0  0  0  0
 30 32  1  0  0  0  0
 31 30  2  0  0  0  0
M  END
>  <MODEL>
8

>  <REMARK>
 VINA RESULT:      -8.2      2.933      4.767
  Name = 
  3 active torsions:
  status: ('A' for Active; 'I' for Inactive)
    1  A    between atoms: C_1  and  C_10
    2  A    between atoms: C_10  and  C_19
    3  A    between atoms: C_19  and  C_24
                            x       y       z     vdW  Elec       q    Type
                         _______ _______ _______ _____ _____    ______ ____

>  <TORSDO>
F 3

$$$$
=
 OpenBabel10262421253D

 32 38  0  0  1  0  0  0  0  0999 V2000
  183.3830  177.5260  135.8860 C   0  0  0  0  0  2  0  0  0  0  0  0
  187.1260  178.0440  139.0270 C   0  0  0  0  0  0  0  0  0  0  0  0
  190.7550  175.7800  136.6530 C   0  0  0  0  0  3  0  0  0  0  0  0
  191.3410  175.4160  137.9880 C   0  0  0  0  0  2  0  0  0  0  0  0
  187.8240  178.8050  141.3820 C   0  0  2  0  0  3  0  0  0  0  0  0
  186.4500  178.4000  141.8000 C   0  0  0  0  0  0  0  0  0  0  0  0
  184.8980  177.9520  138.0330 C   0  0  1  0  0  3  0  0  0  0  0  0
  186.8280  176.7950  136.9770 N   0  0  0  0  0  2  0  0  0  0  0  0
  188.6350  177.6370  143.5210 C   0  0  0  0  0  0  0  0  0  0  0  0
  184.5920  176.5850  135.9330 C   0  0  0  0  0  2  0  0  0  0  0  0
  189.6500  176.5240  136.5750 C   0  0  0  0  0  3  0  0  0  0  0  0
  187.6470  177.3460  137.8280 C   0  0  0  0  0  0  0  0  0  0  0  0
  189.0670  177.0870  137.7600 N   0  0  0  0  0  0  0  0  0  0  0  0
  189.3560  177.7620  140.0580 C   0  0  0  0  0  0  0  0  0  0  0  0
  187.3570  177.5020  143.9090 C   0  0  0  0  0  3  0  0  0  0  0  0
  185.3850  176.7420  137.2270 C   0  0  2  0  0  3  0  0  0  0  0  0
  186.2280  177.8390  142.9990 C   0  0  0  0  0  3  0  0  0  0  0  0
  183.5540  177.7600  138.4140 O   0  0  0  0  0  0  0  0  0  0  0  0
  182.7040  177.6620  137.2720 C   0  0  1  0  0  3  0  0  0  0  0  0
  191.2420  176.5660  138.9880 C   0  0  0  0  0  2  0  0  0  0  0  0
  189.8610  177.1580  138.9730 C   0  0  0  0  0  0  0  0  0  0  0  0
  189.8050  177.5430  141.3900 N   0  0  0  0  0  2  0  0  0  0  0  0
  185.8000  178.2060  139.2120 C   0  0  2  0  0  3  0  0  0  0  0  0
  185.1140  178.9320  140.7300 S   0  0  0  0  0  0  0  0  0  0  0  0
  189.7410  177.2130  144.4220 C   0  0  0  0  0  1  0  0  0  0  0  0
  188.0900  178.3960  140.0230 N   0  0  0  0  0  0  0  0  0  0  0  0
  188.8960  178.0830  142.1470 C   0  0  1  0  0  3  0  0  0  0  0  0
  181.6410  178.7570  137.2770 C   0  0  0  0  0  2  0  0  0  0  0  0
  181.4000  179.3480  138.6620 C   0  0  0  0  0  2  0  0  0  0  0  0
  181.8090  180.7810  138.7260 C   0  0  0  0  0  0  0  0  0  0  0  0
  183.1550  181.1260  138.7520 O   0  0  0  0  0  0  0  0  0  0  0  0
  180.9310  181.6800  138.7860 O   0  0  0  0  0  1  0  0  0  0  0  0
  1 10  1  0  0  0  0
  1 19  1  0  0  0  0
  2 26  1  0  0  0  0
  3  4  1  0  0  0  0
  4 20  1  0  0  0  0
  5  6  1  1  0  0  0
  5 27  1  0  0  0  0
  6 17  2  0  0  0  0
  7 18  1  1  0  0  0
  7 23  1  0  0  0  0
  8 16  1  0  0  0  0
  8 12  1  0  0  0  0
  9 15  2  0  0  0  0
  9 25  1  0  0  0  0
 11  3  2  0  0  0  0
 11 13  1  0  0  0  0
 12  2  2  0  0  0  0
 13 12  1  0  0  0  0
 13 21  1  0  0  0  0
 14 22  1  0  0  0  0
 16 10  1  6  0  0  0
 16  7  1  0  0  0  0
 17 15  1  0  0  0  0
 19 28  1  6  0  0  0
 19 18  1  0  0  0  0
 21 20  1  0  0  0  0
 21 14  2  0  0  0  0
 23  2  1  6  0  0  0
 23 24  1  0  0  0  0
 24  6  1  0  0  0  0
 26 14  1  0  0  0  0
 26  5  1  0  0  0  0
 27 22  1  6  0  0  0
 27  9  1  0  0  0  0
 28 29  1  0  0  0  0
 29 30  1  0  0  0  0
 30 31  2  0  0  0  0
 30 32  1  0  0  0  0
M  END
>  <MODEL>
9

>  <REMARK>
 VINA RESULT:      -8.0      4.072      8.257
  Name = 
  3 active torsions:
  status: ('A' for Active; 'I' for Inactive)
    1  A    between atoms: C_1  and  C_10
    2  A    between atoms: C_10  and  C_19
    3  A    between atoms: C_19  and  C_24
                            x       y       z     vdW  Elec       q    Type
                         _______ _______ _______ _____ _____    ______ ____

>  <TORSDO>
F 3

$$$$
