=
 OpenBabel10262420033D

 27 31  0  0  1  0  0  0  0  0999 V2000
  187.7800  176.5380  143.3340 C   0  0  0  0  0  2  0  0  0  0  0  0
  186.3810  178.6880  143.5760 C   0  0  1  0  0  3  0  0  0  0  0  0
  187.0950  179.2930  141.4260 C   0  0  0  0  0  2  0  0  0  0  0  0
  182.2910  178.7130  142.2210 C   0  0  0  0  0  3  0  0  0  0  0  0
  182.4940  177.3600  140.0770 C   0  0  0  0  0  2  0  0  0  0  0  0
  185.2660  179.3810  144.3860 C   0  0  0  0  0  2  0  0  0  0  0  0
  184.4920  178.7940  140.3220 N   0  0  0  0  0  2  0  0  0  0  0  0
  188.7590  177.5490  138.5150 C   0  0  0  0  0  3  0  0  0  0  0  0
  184.0280  177.4280  140.0870 C   0  0  0  0  0  2  0  0  0  0  0  0
  189.6240  176.6580  139.1570 C   0  0  0  0  0  3  0  0  0  0  0  0
  184.7510  179.0150  141.7560 C   0  0  1  0  0  3  0  0  0  0  0  0
  186.8140  177.3520  144.2080 C   0  0  2  0  0  3  0  0  0  0  0  0
  181.7840  178.2690  141.0600 C   0  0  0  0  0  3  0  0  0  0  0  0
  183.6800  178.3810  142.6700 C   0  0  1  0  0  3  0  0  0  0  0  0
  188.9450  177.3710  142.8080 C   0  0  0  0  0  2  0  0  0  0  0  0
  186.0830  178.5210  142.1360 N   0  0  2  0  0  0  0  0  0  0  0  0
  187.9470  178.4000  139.2690 C   0  0  0  0  0  3  0  0  0  0  0  0
  183.8910  178.7590  144.1360 C   0  0  0  0  0  2  0  0  0  0  0  0
  189.6770  176.6190  140.5530 C   0  0  0  0  0  3  0  0  0  0  0  0
  188.8720  177.4720  141.3170 C   0  0  0  0  0  0  0  0  0  0  0  0
  187.9960  178.3710  140.6660 C   0  0  0  0  0  0  0  0  0  0  0  0
  188.3750  177.8540  148.1590 C   0  0  0  0  0  3  0  0  0  0  0  0
  187.3550  177.5250  145.5970 C   0  0  0  0  0  0  0  0  0  0  0  0
  186.5310  177.9140  146.6630 C   0  0  0  0  0  3  0  0  0  0  0  0
  187.0540  178.0670  147.9100 N   0  0  0  0  0  0  0  0  0  0  0  0
  189.2300  177.4690  147.1240 C   0  0  0  0  0  3  0  0  0  0  0  0
  188.7130  177.3060  145.8380 C   0  0  0  0  0  3  0  0  0  0  0  0
  1 12  1  0  0  0  0
  2 12  1  0  0  0  0
  2  6  1  1  0  0  0
  5  9  1  0  0  0  0
  5 13  1  0  0  0  0
  8 10  2  0  0  0  0
  8 17  1  0  0  0  0
  9  7  1  0  0  0  0
 10 19  1  0  0  0  0
 11  7  1  6  0  0  0
 11 16  1  0  0  0  0
 11 14  1  0  0  0  0
 12 23  1  1  0  0  0
 13  4  2  0  0  0  0
 14  4  1  6  0  0  0
 14 18  1  0  0  0  0
 15  1  1  0  0  0  0
 16  3  1  6  0  0  0
 16  2  1  0  0  0  0
 17 21  2  0  0  0  0
 18  6  1  0  0  0  0
 19 20  2  0  0  0  0
 20 15  1  0  0  0  0
 21 20  1  0  0  0  0
 21  3  1  0  0  0  0
 23 27  2  0  0  0  0
 23 24  1  0  0  0  0
 24 25  2  0  0  0  0
 25 22  1  0  0  0  0
 26 22  2  0  0  0  0
 27 26  1  0  0  0  0
M  END
>  <MODEL>
1

>  <REMARK>
 VINA RESULT:      -9.1      0.000      0.000
  Name = 
  1 active torsions:
  status: ('A' for Active; 'I' for Inactive)
    1  A    between atoms: C_9  and  C_15
                            x       y       z     vdW  Elec       q    Type
                         _______ _______ _______ _____ _____    ______ ____

>  <TORSDO>
F 1

$$$$
=
 OpenBabel10262420033D

 27 31  0  0  1  0  0  0  0  0999 V2000
  189.1720  178.4540  145.5970 C   0  0  0  0  0  2  0  0  0  0  0  0
  189.7280  176.4330  144.0990 C   0  0  1  0  0  3  0  0  0  0  0  0
  187.4600  176.3540  143.5090 C   0  0  0  0  0  2  0  0  0  0  0  0
  190.7760  177.0850  139.9720 C   0  0  0  0  0  3  0  0  0  0  0  0
  189.1380  178.9280  139.3520 C   0  0  0  0  0  2  0  0  0  0  0  0
  190.8670  175.6430  143.4210 C   0  0  0  0  0  2  0  0  0  0  0  0
  188.0200  177.3270  140.8670 N   0  0  0  0  0  2  0  0  0  0  0  0
  184.4810  178.6570  143.8200 C   0  0  0  0  0  3  0  0  0  0  0  0
  188.3180  178.7380  140.6360 C   0  0  0  0  0  2  0  0  0  0  0  0
  184.7120  179.2790  145.0500 C   0  0  0  0  0  3  0  0  0  0  0  0
  189.0290  176.7200  141.7520 C   0  0  1  0  0  3  0  0  0  0  0  0
  190.2610  177.5200  145.0510 C   0  0  2  0  0  3  0  0  0  0  0  0
  190.1640  177.8530  139.0570 C   0  0  0  0  0  3  0  0  0  0  0  0
  190.4690  177.1770  141.4340 C   0  0  1  0  0  3  0  0  0  0  0  0
  187.9670  177.6970  146.1480 C   0  0  0  0  0  2  0  0  0  0  0  0
  188.7250  176.9920  143.1660 N   0  0  2  0  0  0  0  0  0  0  0  0
  185.3830  177.7060  143.3370 C   0  0  0  0  0  3  0  0  0  0  0  0
  191.5020  176.4150  142.2640 C   0  0  0  0  0  2  0  0  0  0  0  0
  185.8460  178.9490  145.7970 C   0  0  0  0  0  3  0  0  0  0  0  0
  186.7530  177.9940  145.3240 C   0  0  0  0  0  0  0  0  0  0  0  0
  186.5190  177.3670  144.0790 C   0  0  0  0  0  0  0  0  0  0  0  0
  192.6500  175.8870  148.2020 C   0  0  0  0  0  3  0  0  0  0  0  0
  191.0930  176.9490  146.1620 C   0  0  0  0  0  0  0  0  0  0  0  0
  191.1500  177.5560  147.4250 C   0  0  0  0  0  3  0  0  0  0  0  0
  191.9190  177.0160  148.4090 N   0  0  0  0  0  0  0  0  0  0  0  0
  192.6240  175.2530  146.9570 C   0  0  0  0  0  3  0  0  0  0  0  0
  191.8410  175.7920  145.9350 C   0  0  0  0  0  3  0  0  0  0  0  0
  1 15  1  0  0  0  0
  2  6  1  6  0  0  0
  2 12  1  0  0  0  0
  3 21  1  0  0  0  0
  5  9  1  0  0  0  0
  8 10  1  0  0  0  0
  9  7  1  0  0  0  0
 10 19  2  0  0  0  0
 11  7  1  6  0  0  0
 11 16  1  0  0  0  0
 12  1  1  0  0  0  0
 12 23  1  1  0  0  0
 13  5  1  0  0  0  0
 13  4  2  0  0  0  0
 14  4  1  6  0  0  0
 14 11  1  0  0  0  0
 14 18  1  0  0  0  0
 16  3  1  1  0  0  0
 16  2  1  0  0  0  0
 17  8  2  0  0  0  0
 17 21  1  0  0  0  0
 18  6  1  0  0  0  0
 20 19  1  0  0  0  0
 20 15  1  0  0  0  0
 21 20  2  0  0  0  0
 22 25  1  0  0  0  0
 23 24  1  0  0  0  0
 24 25  2  0  0  0  0
 26 22  2  0  0  0  0
 27 23  2  0  0  0  0
 27 26  1  0  0  0  0
M  END
>  <MODEL>
2

>  <REMARK>
 VINA RESULT:      -9.1      2.222      5.547
  Name = 
  1 active torsions:
  status: ('A' for Active; 'I' for Inactive)
    1  A    between atoms: C_9  and  C_15
                            x       y       z     vdW  Elec       q    Type
                         _______ _______ _______ _____ _____    ______ ____

>  <TORSDO>
F 1

$$$$
=
 OpenBabel10262420033D

 27 31  0  0  1  0  0  0  0  0999 V2000
  186.8970  176.8120  144.0450 C   0  0  0  0  0  2  0  0  0  0  0  0
  187.2310  178.6610  142.2820 C   0  0  1  0  0  3  0  0  0  0  0  0
  189.3740  179.0030  143.1710 C   0  0  0  0  0  2  0  0  0  0  0  0
  188.9760  177.6590  138.4730 C   0  0  0  0  0  3  0  0  0  0  0  0
  190.7770  176.0150  139.1940 C   0  0  0  0  0  2  0  0  0  0  0  0
  186.6930  179.2590  140.9660 C   0  0  0  0  0  2  0  0  0  0  0  0
  190.6180  177.8260  140.8670 N   0  0  0  0  0  2  0  0  0  0  0  0
  191.6940  177.1280  145.4900 C   0  0  0  0  0  3  0  0  0  0  0  0
  190.6240  176.3780  140.6780 C   0  0  0  0  0  2  0  0  0  0  0  0
  190.8040  176.5470  146.3970 C   0  0  0  0  0  3  0  0  0  0  0  0
  189.2370  178.3430  140.8850 C   0  0  1  0  0  3  0  0  0  0  0  0
  186.3060  177.5660  142.8450 C   0  0  2  0  0  3  0  0  0  0  0  0
  190.0720  176.9290  138.2120 C   0  0  0  0  0  3  0  0  0  0  0  0
  188.3300  177.6860  139.8230 C   0  0  1  0  0  3  0  0  0  0  0  0
  187.4560  177.7480  145.1130 C   0  0  0  0  0  2  0  0  0  0  0  0
  188.6320  178.1880  142.2170 N   0  0  2  0  0  0  0  0  0  0  0  0
  191.2120  177.9260  144.4500 C   0  0  0  0  0  3  0  0  0  0  0  0
  186.9550  178.3490  139.7640 C   0  0  0  0  0  2  0  0  0  0  0  0
  189.4300  176.7650  146.2640 C   0  0  0  0  0  3  0  0  0  0  0  0
  188.9370  177.5680  145.2290 C   0  0  0  0  0  0  0  0  0  0  0  0
  189.8390  178.1530  144.3110 C   0  0  0  0  0  0  0  0  0  0  0  0
  182.3950  179.0520  143.7360 C   0  0  0  0  0  3  0  0  0  0  0  0
  184.9300  178.0810  143.1520 C   0  0  0  0  0  0  0  0  0  0  0  0
  183.9340  178.1500  142.1680 C   0  0  0  0  0  3  0  0  0  0  0  0
  182.6990  178.6280  142.4800 N   0  0  0  0  0  0  0  0  0  0  0  0
  183.3600  179.0030  144.7440 C   0  0  0  0  0  3  0  0  0  0  0  0
  184.6330  178.5160  144.4460 C   0  0  0  0  0  3  0  0  0  0  0  0
  1 15  1  0  0  0  0
  2  6  1  6  0  0  0
  2 12  1  0  0  0  0
  3 21  1  0  0  0  0
  5  9  1  0  0  0  0
  8 10  1  0  0  0  0
  9  7  1  0  0  0  0
 11  7  1  1  0  0  0
 11 16  1  0  0  0  0
 12 23  1  1  0  0  0
 12  1  1  0  0  0  0
 13  4  2  0  0  0  0
 13  5  1  0  0  0  0
 14  4  1  6  0  0  0
 14 11  1  0  0  0  0
 15 20  1  0  0  0  0
 16  2  1  0  0  0  0
 16  3  1  1  0  0  0
 17  8  2  0  0  0  0
 18 14  1  0  0  0  0
 18  6  1  0  0  0  0
 19 10  2  0  0  0  0
 20 19  1  0  0  0  0
 21 17  1  0  0  0  0
 21 20  2  0  0  0  0
 22 26  1  0  0  0  0
 23 27  1  0  0  0  0
 24 25  1  0  0  0  0
 24 23  2  0  0  0  0
 25 22  2  0  0  0  0
 27 26  2  0  0  0  0
M  END
>  <MODEL>
3

>  <REMARK>
 VINA RESULT:      -8.3      1.896      5.567
  Name = 
  1 active torsions:
  status: ('A' for Active; 'I' for Inactive)
    1  A    between atoms: C_9  and  C_15
                            x       y       z     vdW  Elec       q    Type
                         _______ _______ _______ _____ _____    ______ ____

>  <TORSDO>
F 1

$$$$
=
 OpenBabel10262420033D

 27 31  0  0  1  0  0  0  0  0999 V2000
  189.1620  176.3310  141.2330 C   0  0  0  0  0  2  0  0  0  0  0  0
  187.8490  178.5460  141.1400 C   0  0  1  0  0  3  0  0  0  0  0  0
  188.7590  178.8970  139.0080 C   0  0  0  0  0  2  0  0  0  0  0  0
  183.8860  178.5860  139.4520 C   0  0  0  0  0  3  0  0  0  0  0  0
  184.1960  177.0120  137.4790 C   0  0  0  0  0  2  0  0  0  0  0  0
  186.7070  179.3620  141.7810 C   0  0  0  0  0  2  0  0  0  0  0  0
  186.2320  178.3860  137.7450 N   0  0  0  0  0  2  0  0  0  0  0  0
  190.5670  176.8000  136.4370 C   0  0  0  0  0  3  0  0  0  0  0  0
  185.7250  177.0230  137.6100 C   0  0  0  0  0  2  0  0  0  0  0  0
  191.3360  175.9480  137.2340 C   0  0  0  0  0  3  0  0  0  0  0  0
  186.3860  178.7450  139.1660 C   0  0  1  0  0  3  0  0  0  0  0  0
  188.1690  177.2670  141.9370 C   0  0  2  0  0  3  0  0  0  0  0  0
  183.4530  178.0450  138.3020 C   0  0  0  0  0  3  0  0  0  0  0  0
  185.2180  178.2500  140.0470 C   0  0  1  0  0  3  0  0  0  0  0  0
  190.4020  177.0600  140.7260 C   0  0  0  0  0  2  0  0  0  0  0  0
  187.6590  178.2420  139.7050 N   0  0  2  0  0  0  0  0  0  0  0  0
  189.7380  177.7550  137.0310 C   0  0  0  0  0  3  0  0  0  0  0  0
  185.3290  178.7700  141.4790 C   0  0  0  0  0  2  0  0  0  0  0  0
  191.2760  176.0520  138.6260 C   0  0  0  0  0  3  0  0  0  0  0  0
  190.4530  177.0090  139.2310 C   0  0  0  0  0  0  0  0  0  0  0  0
  189.6740  177.8680  138.4230 C   0  0  0  0  0  0  0  0  0  0  0  0
  189.4000  178.0870  145.9510 C   0  0  0  0  0  3  0  0  0  0  0  0
  188.6040  177.5620  143.3430 C   0  0  0  0  0  0  0  0  0  0  0  0
  189.8120  178.2190  143.6160 C   0  0  0  0  0  3  0  0  0  0  0  0
  190.1790  178.4670  144.9020 N   0  0  0  0  0  0  0  0  0  0  0  0
  188.1900  177.4270  145.7220 C   0  0  0  0  0  3  0  0  0  0  0  0
  187.7950  177.1640  144.4090 C   0  0  0  0  0  3  0  0  0  0  0  0
  1 12  1  0  0  0  0
  2  6  1  1  0  0  0
  2 12  1  0  0  0  0
  5  9  1  0  0  0  0
  5 13  1  0  0  0  0
  8 17  2  0  0  0  0
  8 10  1  0  0  0  0
  9  7  1  0  0  0  0
 10 19  2  0  0  0  0
 11  7  1  6  0  0  0
 11 16  1  0  0  0  0
 11 14  1  0  0  0  0
 12 23  1  1  0  0  0
 13  4  2  0  0  0  0
 14  4  1  6  0  0  0
 14 18  1  0  0  0  0
 15  1  1  0  0  0  0
 16  3  1  6  0  0  0
 16  2  1  0  0  0  0
 17 21  1  0  0  0  0
 18  6  1  0  0  0  0
 19 20  1  0  0  0  0
 20 15  1  0  0  0  0
 21  3  1  0  0  0  0
 21 20  2  0  0  0  0
 23 24  2  0  0  0  0
 23 27  1  0  0  0  0
 24 25  1  0  0  0  0
 25 22  2  0  0  0  0
 26 22  1  0  0  0  0
 27 26  2  0  0  0  0
M  END
>  <MODEL>
4

>  <REMARK>
 VINA RESULT:      -7.6      1.990      2.949
  Name = 
  1 active torsions:
  status: ('A' for Active; 'I' for Inactive)
    1  A    between atoms: C_9  and  C_15
                            x       y       z     vdW  Elec       q    Type
                         _______ _______ _______ _____ _____    ______ ____

>  <TORSDO>
F 1

$$$$
=
 OpenBabel10262420033D

 27 31  0  0  1  0  0  0  0  0999 V2000
  186.6760  179.1620  142.3660 C   0  0  0  0  0  2  0  0  0  0  0  0
  186.0700  177.4590  144.2030 C   0  0  1  0  0  3  0  0  0  0  0  0
  187.9300  176.2000  143.5300 C   0  0  0  0  0  2  0  0  0  0  0  0
  187.7860  177.8880  148.1310 C   0  0  0  0  0  3  0  0  0  0  0  0
  190.1600  178.5830  147.5380 C   0  0  0  0  0  2  0  0  0  0  0  0
  185.2340  177.2260  145.4790 C   0  0  0  0  0  2  0  0  0  0  0  0
  189.3790  176.8980  145.9080 N   0  0  0  0  0  2  0  0  0  0  0  0
  190.9890  176.7860  141.3900 C   0  0  0  0  0  3  0  0  0  0  0  0
  189.9790  178.2220  146.0570 C   0  0  0  0  0  2  0  0  0  0  0  0
  190.4950  177.6240  140.3870 C   0  0  0  0  0  3  0  0  0  0  0  0
  187.9150  177.0030  145.7740 C   0  0  1  0  0  3  0  0  0  0  0  0
  185.7350  178.8010  143.5250 C   0  0  2  0  0  3  0  0  0  0  0  0
  189.0650  178.1100  148.4740 C   0  0  0  0  0  3  0  0  0  0  0  0
  187.2910  178.0450  146.7280 C   0  0  1  0  0  3  0  0  0  0  0  0
  186.8670  178.0120  141.3820 C   0  0  0  0  0  2  0  0  0  0  0  0
  187.5310  177.3090  144.3870 N   0  0  2  0  0  0  0  0  0  0  0  0
  190.1400  176.3300  142.4010 C   0  0  0  0  0  3  0  0  0  0  0  0
  185.7640  178.0200  146.6740 C   0  0  0  0  0  2  0  0  0  0  0  0
  189.1510  178.0060  140.3960 C   0  0  0  0  0  3  0  0  0  0  0  0
  188.2910  177.5500  141.4010 C   0  0  0  0  0  0  0  0  0  0  0  0
  188.7930  176.7040  142.4160 C   0  0  0  0  0  0  0  0  0  0  0  0
  181.6340  179.0640  142.3390 C   0  0  0  0  0  3  0  0  0  0  0  0
  184.2970  178.8860  143.1040 C   0  0  0  0  0  0  0  0  0  0  0  0
  183.8960  178.5900  141.7940 C   0  0  0  0  0  3  0  0  0  0  0  0
  182.5850  178.6830  141.4430 N   0  0  0  0  0  0  0  0  0  0  0  0
  181.9920  179.3710  143.6530 C   0  0  0  0  0  3  0  0  0  0  0  0
  183.3320  179.2820  144.0330 C   0  0  0  0  0  3  0  0  0  0  0  0
  1 12  1  0  0  0  0
  2 16  1  0  0  0  0
  2  6  1  1  0  0  0
  4 13  2  0  0  0  0
  5 13  1  0  0  0  0
  6 18  1  0  0  0  0
  7  9  1  0  0  0  0
  8 17  1  0  0  0  0
  9  5  1  0  0  0  0
 10 19  1  0  0  0  0
 10  8  2  0  0  0  0
 11  7  1  6  0  0  0
 11 14  1  0  0  0  0
 12 23  1  6  0  0  0
 12  2  1  0  0  0  0
 14 18  1  1  0  0  0
 14  4  1  0  0  0  0
 15 20  1  0  0  0  0
 15  1  1  0  0  0  0
 16  3  1  6  0  0  0
 16 11  1  0  0  0  0
 17 21  2  0  0  0  0
 19 20  2  0  0  0  0
 20 21  1  0  0  0  0
 21  3  1  0  0  0  0
 22 26  1  0  0  0  0
 23 27  1  0  0  0  0
 24 23  2  0  0  0  0
 25 24  1  0  0  0  0
 25 22  2  0  0  0  0
 26 27  2  0  0  0  0
M  END
>  <MODEL>
5

>  <REMARK>
 VINA RESULT:      -7.4      1.519      5.715
  Name = 
  1 active torsions:
  status: ('A' for Active; 'I' for Inactive)
    1  A    between atoms: C_9  and  C_15
                            x       y       z     vdW  Elec       q    Type
                         _______ _______ _______ _____ _____    ______ ____

>  <TORSDO>
F 1

$$$$
=
 OpenBabel10262420033D

 27 31  0  0  1  0  0  0  0  0999 V2000
  187.3520  176.6090  143.5820 C   0  0  0  0  0  2  0  0  0  0  0  0
  187.0260  178.6250  142.0130 C   0  0  1  0  0  3  0  0  0  0  0  0
  189.3610  178.8050  141.8970 C   0  0  0  0  0  2  0  0  0  0  0  0
  186.8680  177.9870  137.7550 C   0  0  0  0  0  3  0  0  0  0  0  0
  188.6760  176.2210  137.4730 C   0  0  0  0  0  2  0  0  0  0  0  0
  186.0170  179.3780  141.1210 C   0  0  0  0  0  2  0  0  0  0  0  0
  189.3920  177.8460  139.1910 N   0  0  0  0  0  2  0  0  0  0  0  0
  192.3110  176.6210  142.7980 C   0  0  0  0  0  3  0  0  0  0  0  0
  189.2080  176.4270  138.8980 C   0  0  0  0  0  2  0  0  0  0  0  0
  191.8610  175.9740  143.9510 C   0  0  0  0  0  3  0  0  0  0  0  0
  188.1990  178.3990  139.8560 C   0  0  1  0  0  3  0  0  0  0  0  0
  186.3570  177.5050  142.8310 C   0  0  2  0  0  3  0  0  0  0  0  0
  187.6850  177.2570  136.9800 C   0  0  0  0  0  3  0  0  0  0  0  0
  186.8750  177.8880  139.2480 C   0  0  1  0  0  3  0  0  0  0  0  0
  188.3860  177.4070  144.3710 C   0  0  0  0  0  2  0  0  0  0  0  0
  188.2210  178.1210  141.3000 N   0  0  2  0  0  0  0  0  0  0  0  0
  191.4860  177.5410  142.1450 C   0  0  0  0  0  3  0  0  0  0  0  0
  185.6640  178.5950  139.8540 C   0  0  0  0  0  2  0  0  0  0  0  0
  190.5850  176.2470  144.4530 C   0  0  0  0  0  3  0  0  0  0  0  0
  189.7540  177.1710  143.8100 C   0  0  0  0  0  0  0  0  0  0  0  0
  190.2100  177.8230  142.6420 C   0  0  0  0  0  0  0  0  0  0  0  0
  183.3410  179.0040  145.4690 C   0  0  0  0  0  3  0  0  0  0  0  0
  185.2930  178.0260  143.7520 C   0  0  0  0  0  0  0  0  0  0  0  0
  183.9950  178.2960  143.2980 C   0  0  0  0  0  3  0  0  0  0  0  0
  183.0550  178.7730  144.1580 N   0  0  0  0  0  0  0  0  0  0  0  0
  184.6240  178.7500  145.9600 C   0  0  0  0  0  3  0  0  0  0  0  0
  185.6020  178.2610  145.0940 C   0  0  0  0  0  3  0  0  0  0  0  0
  1 15  1  0  0  0  0
  2  6  1  6  0  0  0
  2 12  1  0  0  0  0
  3 21  1  0  0  0  0
  5  9  1  0  0  0  0
  8 10  1  0  0  0  0
  9  7  1  0  0  0  0
 10 19  2  0  0  0  0
 11  7  1  6  0  0  0
 11 16  1  0  0  0  0
 12  1  1  0  0  0  0
 12 23  1  1  0  0  0
 13  5  1  0  0  0  0
 13  4  2  0  0  0  0
 14  4  1  6  0  0  0
 14 18  1  0  0  0  0
 14 11  1  0  0  0  0
 16  3  1  1  0  0  0
 16  2  1  0  0  0  0
 17 21  1  0  0  0  0
 17  8  2  0  0  0  0
 18  6  1  0  0  0  0
 20 15  1  0  0  0  0
 20 19  1  0  0  0  0
 21 20  2  0  0  0  0
 22 26  1  0  0  0  0
 23 27  1  0  0  0  0
 24 23  2  0  0  0  0
 24 25  1  0  0  0  0
 25 22  2  0  0  0  0
 27 26  2  0  0  0  0
M  END
>  <MODEL>
6

>  <REMARK>
 VINA RESULT:      -7.3      2.209      4.410
  Name = 
  1 active torsions:
  status: ('A' for Active; 'I' for Inactive)
    1  A    between atoms: C_9  and  C_15
                            x       y       z     vdW  Elec       q    Type
                         _______ _______ _______ _____ _____    ______ ____

>  <TORSDO>
F 1

$$$$
=
 OpenBabel10262420033D

 27 31  0  0  1  0  0  0  0  0999 V2000
  188.0600  179.0040  141.4210 C   0  0  0  0  0  2  0  0  0  0  0  0
  186.2370  177.6470  142.6360 C   0  0  1  0  0  3  0  0  0  0  0  0
  187.9310  176.2160  143.3980 C   0  0  0  0  0  2  0  0  0  0  0  0
  185.2360  178.6260  146.7110 C   0  0  0  0  0  3  0  0  0  0  0  0
  187.5440  179.1130  147.6620 C   0  0  0  0  0  2  0  0  0  0  0  0
  184.7750  177.6590  143.1280 C   0  0  0  0  0  2  0  0  0  0  0  0
  187.7030  177.2230  146.0770 N   0  0  0  0  0  2  0  0  0  0  0  0
  191.7030  176.3150  143.5880 C   0  0  0  0  0  3  0  0  0  0  0  0
  188.2590  178.5260  146.4360 C   0  0  0  0  0  2  0  0  0  0  0  0
  192.0420  177.0020  142.4200 C   0  0  0  0  0  3  0  0  0  0  0  0
  186.6570  177.3690  145.0500 C   0  0  1  0  0  3  0  0  0  0  0  0
  186.5700  178.8760  141.7690 C   0  0  2  0  0  3  0  0  0  0  0  0
  186.0550  178.8450  147.7520 C   0  0  0  0  0  3  0  0  0  0  0  0
  185.7280  178.5780  145.2980 C   0  0  1  0  0  3  0  0  0  0  0  0
  188.6550  177.7030  140.8910 C   0  0  0  0  0  2  0  0  0  0  0  0
  187.2450  177.4650  143.7050 N   0  0  2  0  0  0  0  0  0  0  0  0
  190.3620  176.0650  143.8880 C   0  0  0  0  0  3  0  0  0  0  0  0
  184.5650  178.6110  144.3070 C   0  0  0  0  0  2  0  0  0  0  0  0
  191.0390  177.4390  141.5500 C   0  0  0  0  0  3  0  0  0  0  0  0
  189.6930  177.1890  141.8390 C   0  0  0  0  0  0  0  0  0  0  0  0
  189.3510  176.4960  143.0230 C   0  0  0  0  0  0  0  0  0  0  0  0
  184.1250  179.1220  138.2680 C   0  0  0  0  0  3  0  0  0  0  0  0
  185.7160  178.9550  140.5380 C   0  0  0  0  0  0  0  0  0  0  0  0
  186.2200  178.6270  139.2710 C   0  0  0  0  0  3  0  0  0  0  0  0
  185.4200  178.7150  138.1740 N   0  0  0  0  0  0  0  0  0  0  0  0
  183.5850  179.4610  139.5110 C   0  0  0  0  0  3  0  0  0  0  0  0
  184.3890  179.3780  140.6480 C   0  0  0  0  0  3  0  0  0  0  0  0
  1 12  1  0  0  0  0
  2  6  1  1  0  0  0
  2 16  1  0  0  0  0
  4 13  2  0  0  0  0
  5 13  1  0  0  0  0
  6 18  1  0  0  0  0
  7  9  1  0  0  0  0
  8 17  1  0  0  0  0
  9  5  1  0  0  0  0
 10  8  2  0  0  0  0
 11 14  1  0  0  0  0
 11  7  1  1  0  0  0
 12 23  1  6  0  0  0
 12  2  1  0  0  0  0
 14 18  1  6  0  0  0
 14  4  1  0  0  0  0
 15  1  1  0  0  0  0
 15 20  1  0  0  0  0
 16  3  1  6  0  0  0
 16 11  1  0  0  0  0
 19 20  2  0  0  0  0
 19 10  1  0  0  0  0
 20 21  1  0  0  0  0
 21  3  1  0  0  0  0
 21 17  2  0  0  0  0
 22 26  1  0  0  0  0
 23 27  1  0  0  0  0
 24 23  2  0  0  0  0
 25 22  2  0  0  0  0
 25 24  1  0  0  0  0
 26 27  2  0  0  0  0
M  END
>  <MODEL>
7

>  <REMARK>
 VINA RESULT:      -7.3      1.716      5.791
  Name = 
  1 active torsions:
  status: ('A' for Active; 'I' for Inactive)
    1  A    between atoms: C_9  and  C_15
                            x       y       z     vdW  Elec       q    Type
                         _______ _______ _______ _____ _____    ______ ____

>  <TORSDO>
F 1

$$$$
=
 OpenBabel10262420033D

 27 31  0  0  1  0  0  0  0  0999 V2000
  186.8510  179.3420  141.3500 C   0  0  0  0  0  2  0  0  0  0  0  0
  187.0440  177.3940  143.0250 C   0  0  1  0  0  3  0  0  0  0  0  0
  188.5480  176.3790  141.5400 C   0  0  0  0  0  2  0  0  0  0  0  0
  190.1090  177.5040  146.0500 C   0  0  0  0  0  3  0  0  0  0  0  0
  192.0560  178.4560  144.7190 C   0  0  0  0  0  2  0  0  0  0  0  0
  186.7640  176.9470  144.4740 C   0  0  0  0  0  2  0  0  0  0  0  0
  190.7680  176.9130  143.2800 N   0  0  0  0  0  2  0  0  0  0  0  0
  190.5440  177.4580  138.5180 C   0  0  0  0  0  3  0  0  0  0  0  0
  191.3370  178.2550  143.3770 C   0  0  0  0  0  2  0  0  0  0  0  0
  189.6790  178.3640  137.8980 C   0  0  0  0  0  3  0  0  0  0  0  0
  189.3610  176.9120  143.7160 C   0  0  1  0  0  3  0  0  0  0  0  0
  186.4340  178.7730  142.7130 C   0  0  2  0  0  3  0  0  0  0  0  0
  191.4140  177.7890  145.9190 C   0  0  0  0  0  3  0  0  0  0  0  0
  189.1130  177.7820  144.9680 C   0  0  1  0  0  3  0  0  0  0  0  0
  186.6910  178.3330  140.2160 C   0  0  0  0  0  2  0  0  0  0  0  0
  188.4690  177.3440  142.6290 N   0  0  2  0  0  0  0  0  0  0  0  0
  190.1580  176.8200  139.7000 C   0  0  0  0  0  3  0  0  0  0  0  0
  187.6820  177.6370  145.4840 C   0  0  0  0  0  2  0  0  0  0  0  0
  188.4280  178.6310  138.4600 C   0  0  0  0  0  3  0  0  0  0  0  0
  188.0290  177.9920  139.6390 C   0  0  0  0  0  0  0  0  0  0  0  0
  188.9060  177.0780  140.2670 C   0  0  0  0  0  0  0  0  0  0  0  0
  182.1830  178.8330  143.1880 C   0  0  0  0  0  3  0  0  0  0  0  0
  184.9410  178.7880  142.8740 C   0  0  0  0  0  0  0  0  0  0  0  0
  184.0820  178.6030  141.7820 C   0  0  0  0  0  3  0  0  0  0  0  0
  182.7340  178.6280  141.9610 N   0  0  0  0  0  0  0  0  0  0  0  0
  183.0040  179.0250  144.3020 C   0  0  0  0  0  3  0  0  0  0  0  0
  184.3890  179.0030  144.1390 C   0  0  0  0  0  3  0  0  0  0  0  0
  1 12  1  0  0  0  0
  2  6  1  1  0  0  0
  5 13  1  0  0  0  0
  6 18  1  0  0  0  0
  7  9  1  0  0  0  0
  8 17  1  0  0  0  0
  9  5  1  0  0  0  0
 10 19  1  0  0  0  0
 10  8  2  0  0  0  0
 11  7  1  6  0  0  0
 11 14  1  0  0  0  0
 12 23  1  6  0  0  0
 12  2  1  0  0  0  0
 13  4  2  0  0  0  0
 14 18  1  1  0  0  0
 14  4  1  0  0  0  0
 15  1  1  0  0  0  0
 16  3  1  6  0  0  0
 16  2  1  0  0  0  0
 16 11  1  0  0  0  0
 17 21  2  0  0  0  0
 19 20  2  0  0  0  0
 20 15  1  0  0  0  0
 20 21  1  0  0  0  0
 21  3  1  0  0  0  0
 22 26  1  0  0  0  0
 23 27  1  0  0  0  0
 24 25  1  0  0  0  0
 24 23  2  0  0  0  0
 25 22  2  0  0  0  0
 27 26  2  0  0  0  0
M  END
>  <MODEL>
8

>  <REMARK>
 VINA RESULT:      -7.2      1.791      5.557
  Name = 
  1 active torsions:
  status: ('A' for Active; 'I' for Inactive)
    1  A    between atoms: C_9  and  C_15
                            x       y       z     vdW  Elec       q    Type
                         _______ _______ _______ _____ _____    ______ ____

>  <TORSDO>
F 1

$$$$
=
 OpenBabel10262420033D

 27 31  0  0  1  0  0  0  0  0999 V2000
  184.4970  179.0050  139.9000 C   0  0  0  0  0  2  0  0  0  0  0  0
  182.5860  178.0660  138.4490 C   0  0  1  0  0  3  0  0  0  0  0  0
  181.3270  177.8280  140.4130 C   0  0  0  0  0  2  0  0  0  0  0  0
  179.6120  180.7550  136.8720 C   0  0  0  0  0  3  0  0  0  0  0  0
  179.2830  182.3130  138.8550 C   0  0  0  0  0  2  0  0  0  0  0  0
  182.0510  177.9230  137.0090 C   0  0  0  0  0  2  0  0  0  0  0  0
  179.6060  180.0070  139.6820 N   0  0  0  0  0  2  0  0  0  0  0  0
  181.5560  179.0860  143.9680 C   0  0  0  0  0  3  0  0  0  0  0  0
  180.0570  181.3910  139.8080 C   0  0  0  0  0  2  0  0  0  0  0  0
  182.9350  179.0960  144.1920 C   0  0  0  0  0  3  0  0  0  0  0  0
  180.4520  179.2690  138.7270 C   0  0  1  0  0  3  0  0  0  0  0  0
  184.0040  178.6660  138.4860 C   0  0  2  0  0  3  0  0  0  0  0  0
  178.9310  181.7240  137.5040 C   0  0  0  0  0  3  0  0  0  0  0  0
  180.8130  180.0940  137.4740 C   0  0  1  0  0  3  0  0  0  0  0  0
  184.2930  177.8590  140.8870 C   0  0  0  0  0  2  0  0  0  0  0  0
  181.6820  178.7860  139.3740 N   0  0  2  0  0  0  0  0  0  0  0  0
  181.0510  178.6680  142.7350 C   0  0  0  0  0  3  0  0  0  0  0  0
  181.5580  179.2530  136.4370 C   0  0  0  0  0  2  0  0  0  0  0  0
  183.8100  178.6870  143.1820 C   0  0  0  0  0  3  0  0  0  0  0  0
  183.3140  178.2600  141.9450 C   0  0  0  0  0  0  0  0  0  0  0  0
  181.9180  178.2530  141.7190 C   0  0  0  0  0  0  0  0  0  0  0  0
  186.8690  176.2650  136.4060 C   0  0  0  0  0  3  0  0  0  0  0  0
  185.0030  177.8200  137.7520 C   0  0  0  0  0  0  0  0  0  0  0  0
  184.7160  176.4990  137.3810 C   0  0  0  0  0  3  0  0  0  0  0  0
  185.6460  175.7580  136.7210 N   0  0  0  0  0  0  0  0  0  0  0  0
  187.1950  177.5760  136.7610 C   0  0  0  0  0  3  0  0  0  0  0  0
  186.2550  178.3530  137.4380 C   0  0  0  0  0  3  0  0  0  0  0  0
  1 15  1  0  0  0  0
  2  6  1  6  0  0  0
  2 12  1  0  0  0  0
  2 16  1  0  0  0  0
  3 21  1  0  0  0  0
  4 14  1  0  0  0  0
  4 13  2  0  0  0  0
  5  9  1  0  0  0  0
  7  9  1  0  0  0  0
  8 10  1  0  0  0  0
 11 16  1  0  0  0  0
 11  7  1  1  0  0  0
 12 23  1  1  0  0  0
 12  1  1  0  0  0  0
 13  5  1  0  0  0  0
 14 18  1  6  0  0  0
 14 11  1  0  0  0  0
 15 20  1  0  0  0  0
 16  3  1  1  0  0  0
 17  8  2  0  0  0  0
 18  6  1  0  0  0  0
 19 10  2  0  0  0  0
 20 19  1  0  0  0  0
 21 20  2  0  0  0  0
 21 17  1  0  0  0  0
 22 25  2  0  0  0  0
 22 26  1  0  0  0  0
 24 23  2  0  0  0  0
 25 24  1  0  0  0  0
 26 27  2  0  0  0  0
 27 23  1  0  0  0  0
M  END
>  <MODEL>
9

>  <REMARK>
 VINA RESULT:      -6.5      4.165      7.512
  Name = 
  1 active torsions:
  status: ('A' for Active; 'I' for Inactive)
    1  A    between atoms: C_9  and  C_15
                            x       y       z     vdW  Elec       q    Type
                         _______ _______ _______ _____ _____    ______ ____

>  <TORSDO>
F 1

$$$$
