=
 OpenBabel10262422343D

 43 48  0  0  1  0  0  0  0  0999 V2000
  191.1120  177.0570  147.0710 C   0  0  0  0  0  0  0  0  0  0  0  0
  189.3680  177.7410  142.3290 C   0  0  0  0  0  0  0  0  0  0  0  0
  187.3300  177.8840  143.6480 C   0  0  0  0  0  3  0  0  0  0  0  0
  190.9530  177.3220  144.7060 C   0  0  0  0  0  0  0  0  0  0  0  0
  189.6460  176.7710  147.2220 C   0  0  0  0  0  2  0  0  0  0  0  0
  191.8500  177.0850  148.0910 O   0  0  0  0  0  0  0  0  0  0  0  0
  189.4790  177.3030  144.7930 C   0  0  0  0  0  0  0  0  0  0  0  0
  191.6860  177.2430  145.7730 N   0  0  0  0  0  0  0  0  0  0  0  0
  188.8780  177.0880  145.9700 C   0  0  0  0  0  3  0  0  0  0  0  0
  186.5980  178.2370  142.5120 C   0  0  0  0  0  0  0  0  0  0  0  0
  188.7080  177.6310  143.5750 C   0  0  0  0  0  0  0  0  0  0  0  0
  190.8250  177.3680  142.1910 C   0  0  0  0  0  2  0  0  0  0  0  0
  188.6410  178.0890  141.1780 C   0  0  0  0  0  0  0  0  0  0  0  0
  187.2630  178.3330  141.2850 C   0  0  0  0  0  3  0  0  0  0  0  0
  191.5670  177.5370  143.4380 N   0  0  0  0  0  2  0  0  0  0  0  0
  185.1440  178.4900  142.6200 C   0  0  0  0  0  0  0  0  0  0  0  0
  184.5500  179.4500  143.8180 S   0  0  0  0  0  0  0  0  0  0  0  0
  184.2630  177.8880  141.6610 N   0  0  0  0  0  2  0  0  0  0  0  0
  183.2880  177.7320  139.2040 O   0  0  0  0  0  0  0  0  0  0  0  0
  183.5510  178.7130  140.3120 S   0  0  0  0  0  0  0  0  0  0  0  0
  184.4890  179.7850  139.8320 O   0  0  0  0  0  0  0  0  0  0  0  0
  182.0050  179.4650  140.8470 C   0  0  2  0  0  3  0  0  0  0  0  0
  180.1060  178.3390  139.2720 S   0  0  0  0  0  0  0  0  0  0  0  0
  181.2550  178.5060  141.7450 C   0  0  0  0  0  2  0  0  0  0  0  0
  181.0390  179.8370  139.7200 C   0  0  1  0  0  0  0  0  0  0  0  0
  180.1480  180.7710  140.2130 F   0  0  0  0  0  0  0  0  0  0  0  0
  180.4840  177.5380  140.8680 C   0  0  0  0  0  2  0  0  0  0  0  0
  181.7440  180.4340  138.5020 C   0  0  0  0  0  2  0  0  0  0  0  0
  180.8540  181.3250  137.7720 N   0  0  0  0  0  0  0  0  0  0  0  0
  180.7880  183.5980  136.7930 C   0  0  0  0  0  2  0  0  0  0  0  0
  180.1060  181.8820  135.4840 C   0  0  0  0  0  2  0  0  0  0  0  0
  179.6530  182.9930  136.2220 O   0  0  0  0  0  0  0  0  0  0  0  0
  180.8160  180.8580  136.3870 C   0  0  0  0  0  2  0  0  0  0  0  0
  181.4450  182.6670  137.8240 C   0  0  0  0  0  2  0  0  0  0  0  0
  189.3050  178.1430  139.9370 O   0  0  0  0  0  0  0  0  0  0  0  0
  190.1020  175.2950  137.6640 C   0  0  0  0  0  3  0  0  0  0  0  0
  188.9730  175.3110  136.8360 C   0  0  0  0  0  0  0  0  0  0  0  0
  188.1030  177.2020  138.0800 C   0  0  0  0  0  3  0  0  0  0  0  0
  190.2290  176.2310  138.6920 C   0  0  0  0  0  3  0  0  0  0  0  0
  189.2310  177.1980  138.9050 C   0  0  0  0  0  0  0  0  0  0  0  0
  187.9740  176.2660  137.0510 C   0  0  0  0  0  3  0  0  0  0  0  0
  188.2160  173.1990  135.9560 N   0  0  0  0  0  2  0  0  0  0  0  0
  188.8040  174.3330  135.7540 C   0  0  0  0  0  3  0  0  0  0  0  0
  1  5  1  0  0  0  0
  1  6  2  0  0  0  0
  2 11  1  0  0  0  0
  4  7  1  0  0  0  0
  4  8  2  0  0  0  0
  7  9  2  0  0  0  0
  8  1  1  0  0  0  0
  9  5  1  0  0  0  0
 10 16  1  0  0  0  0
 10  3  1  0  0  0  0
 11  3  2  0  0  0  0
 11  7  1  0  0  0  0
 12  2  1  0  0  0  0
 12 15  1  0  0  0  0
 13 14  1  0  0  0  0
 13  2  2  0  0  0  0
 14 10  2  0  0  0  0
 15  4  1  0  0  0  0
 16 17  2  0  0  0  0
 18 16  1  0  0  0  0
 19 20  2  0  0  0  0
 20 18  1  0  0  0  0
 21 20  2  0  0  0  0
 22 20  1  6  0  0  0
 22 24  1  0  0  0  0
 23 25  1  0  0  0  0
 23 27  1  0  0  0  0
 25 26  1  1  0  0  0
 25 22  1  0  0  0  0
 27 24  1  0  0  0  0
 28 25  1  0  0  0  0
 29 34  1  0  0  0  0
 29 28  1  0  0  0  0
 30 34  1  0  0  0  0
 31 32  1  0  0  0  0
 31 33  1  0  0  0  0
 32 30  1  0  0  0  0
 33 29  1  0  0  0  0
 35 13  1  0  0  0  0
 36 39  1  0  0  0  0
 37 41  1  0  0  0  0
 37 36  2  0  0  0  0
 38 40  1  0  0  0  0
 39 40  2  0  0  0  0
 40 35  1  0  0  0  0
 41 38  2  0  0  0  0
 43 42  2  0  0  0  0
 43 37  1  0  0  0  0
M  END
>  <MODEL>
1

>  <REMARK>
 VINA RESULT:      -9.2      0.000      0.000
  Name = 
  9 active torsions:
  status: ('A' for Active; 'I' for Inactive)
    1  A    between atoms: O_1  and  C_34
    2  A    between atoms: O_1  and  C_35
    3  A    between atoms: C_2  and  N_6
    4  A    between atoms: C_2  and  C_27
    5  A    between atoms: C_4  and  S_12
    6  A    between atoms: N_6  and  S_12
    7  A    between atoms: N_11  and  C_14
    8  A    between atoms: C_14  and  C_22
    9  A    between atoms: C_19  and  C_37
                            x       y       z     vdW  Elec       q    Type
                         _______ _______ _______ _____ _____    ______ ____

>  <TORSDO>
F 9

$$$$
=
 OpenBabel10262422343D

 43 48  0  0  1  0  0  0  0  0999 V2000
  191.3880  176.1690  147.2800 C   0  0  0  0  0  0  0  0  0  0  0  0
  187.3330  177.9560  144.7580 C   0  0  0  0  0  0  0  0  0  0  0  0
  188.9210  177.5610  142.9590 C   0  0  0  0  0  3  0  0  0  0  0  0
  189.2290  177.0150  146.7230 C   0  0  0  0  0  0  0  0  0  0  0  0
  191.9830  176.5840  145.9660 C   0  0  0  0  0  2  0  0  0  0  0  0
  192.1040  175.5730  148.1290 O   0  0  0  0  0  0  0  0  0  0  0  0
  189.6610  177.2250  145.3270 C   0  0  0  0  0  0  0  0  0  0  0  0
  190.0310  176.4940  147.5990 N   0  0  0  0  0  0  0  0  0  0  0  0
  190.9290  176.9830  144.9720 C   0  0  0  0  0  3  0  0  0  0  0  0
  187.9470  177.8720  142.0070 C   0  0  0  0  0  0  0  0  0  0  0  0
  188.6340  177.6000  144.3310 C   0  0  0  0  0  0  0  0  0  0  0  0
  187.0190  178.1170  146.2270 C   0  0  0  0  0  2  0  0  0  0  0  0
  186.3470  178.2770  143.8100 C   0  0  0  0  0  0  0  0  0  0  0  0
  186.6670  178.2300  142.4450 C   0  0  0  0  0  3  0  0  0  0  0  0
  187.8770  177.2950  147.0770 N   0  0  0  0  0  2  0  0  0  0  0  0
  188.2820  177.8290  140.5670 C   0  0  0  0  0  0  0  0  0  0  0  0
  189.6970  177.1580  140.0580 S   0  0  0  0  0  0  0  0  0  0  0  0
  187.3520  178.3760  139.6220 N   0  0  0  0  0  2  0  0  0  0  0  0
  188.8600  178.7710  137.4810 O   0  0  0  0  0  0  0  0  0  0  0  0
  187.5060  178.2680  137.8980 S   0  0  0  0  0  0  0  0  0  0  0  0
  186.4320  179.0960  137.2490 O   0  0  0  0  0  0  0  0  0  0  0  0
  187.3120  176.5460  137.4100 C   0  0  2  0  0  3  0  0  0  0  0  0
  186.1030  176.6480  134.9840 S   0  0  0  0  0  0  0  0  0  0  0  0
  188.3850  176.1760  136.4090 C   0  0  0  0  0  2  0  0  0  0  0  0
  185.9750  176.2060  136.7460 C   0  0  1  0  0  0  0  0  0  0  0  0
  185.7890  174.8400  136.8370 F   0  0  0  0  0  0  0  0  0  0  0  0
  187.9270  176.6210  135.0340 C   0  0  0  0  0  2  0  0  0  0  0  0
  184.7860  176.9040  137.4060 C   0  0  0  0  0  2  0  0  0  0  0  0
  183.6550  175.9970  137.5270 N   0  0  0  0  0  0  0  0  0  0  0  0
  181.6720  175.5760  138.9480 C   0  0  0  0  0  2  0  0  0  0  0  0
  181.3500  175.6410  136.7090 C   0  0  0  0  0  2  0  0  0  0  0  0
  181.4060  174.7780  137.8210 O   0  0  0  0  0  0  0  0  0  0  0  0
  182.6860  176.3740  136.4980 C   0  0  0  0  0  2  0  0  0  0  0  0
  183.0690  176.2080  138.8560 C   0  0  0  0  0  2  0  0  0  0  0  0
  185.0730  178.6780  144.2550 O   0  0  0  0  0  0  0  0  0  0  0  0
  182.6640  178.5170  141.4110 C   0  0  0  0  0  3  0  0  0  0  0  0
  181.4540  178.6720  142.0970 C   0  0  0  0  0  0  0  0  0  0  0  0
  182.6740  178.8330  144.1860 C   0  0  0  0  0  3  0  0  0  0  0  0
  183.8720  178.5230  142.1110 C   0  0  0  0  0  3  0  0  0  0  0  0
  183.8870  178.6870  143.5060 C   0  0  0  0  0  0  0  0  0  0  0  0
  181.4650  178.8270  143.4860 C   0  0  0  0  0  3  0  0  0  0  0  0
  179.1360  178.0500  141.8800 N   0  0  0  0  0  2  0  0  0  0  0  0
  180.1670  178.6580  141.3910 C   0  0  0  0  0  3  0  0  0  0  0  0
  1  8  1  0  0  0  0
  1  6  2  0  0  0  0
  2 12  1  0  0  0  0
  3 11  2  0  0  0  0
  4 15  1  0  0  0  0
  4  8  2  0  0  0  0
  5  1  1  0  0  0  0
  7  4  1  0  0  0  0
  9  7  2  0  0  0  0
  9  5  1  0  0  0  0
 10 14  2  0  0  0  0
 10  3  1  0  0  0  0
 11  2  1  0  0  0  0
 11  7  1  0  0  0  0
 12 15  1  0  0  0  0
 13 35  1  0  0  0  0
 13  2  2  0  0  0  0
 14 13  1  0  0  0  0
 16 10  1  0  0  0  0
 17 16  2  0  0  0  0
 18 16  1  0  0  0  0
 19 20  2  0  0  0  0
 20 18  1  0  0  0  0
 21 20  2  0  0  0  0
 22 20  1  6  0  0  0
 23 27  1  0  0  0  0
 23 25  1  0  0  0  0
 24 22  1  0  0  0  0
 25 26  1  1  0  0  0
 25 28  1  0  0  0  0
 25 22  1  0  0  0  0
 27 24  1  0  0  0  0
 28 29  1  0  0  0  0
 29 34  1  0  0  0  0
 31 32  1  0  0  0  0
 32 30  1  0  0  0  0
 33 31  1  0  0  0  0
 33 29  1  0  0  0  0
 34 30  1  0  0  0  0
 36 37  2  0  0  0  0
 36 39  1  0  0  0  0
 37 41  1  0  0  0  0
 39 40  2  0  0  0  0
 40 38  1  0  0  0  0
 40 35  1  0  0  0  0
 41 38  2  0  0  0  0
 43 42  2  0  0  0  0
 43 37  1  0  0  0  0
M  END
>  <MODEL>
2

>  <REMARK>
 VINA RESULT:      -9.0      3.731      6.335
  Name = 
  9 active torsions:
  status: ('A' for Active; 'I' for Inactive)
    1  A    between atoms: O_1  and  C_34
    2  A    between atoms: O_1  and  C_35
    3  A    between atoms: C_2  and  N_6
    4  A    between atoms: C_2  and  C_27
    5  A    between atoms: C_4  and  S_12
    6  A    between atoms: N_6  and  S_12
    7  A    between atoms: N_11  and  C_14
    8  A    between atoms: C_14  and  C_22
    9  A    between atoms: C_19  and  C_37
                            x       y       z     vdW  Elec       q    Type
                         _______ _______ _______ _____ _____    ______ ____

>  <TORSDO>
F 9

$$$$
=
 OpenBabel10262422343D

 43 48  0  0  1  0  0  0  0  0999 V2000
  191.1110  176.9450  147.0190 C   0  0  0  0  0  0  0  0  0  0  0  0
  189.4150  177.6870  142.2680 C   0  0  0  0  0  0  0  0  0  0  0  0
  187.3990  178.0200  143.5880 C   0  0  0  0  0  3  0  0  0  0  0  0
  190.9670  177.1820  144.6500 C   0  0  0  0  0  0  0  0  0  0  0  0
  189.6270  176.7820  147.1770 C   0  0  0  0  0  2  0  0  0  0  0  0
  191.8520  176.9300  148.0370 O   0  0  0  0  0  0  0  0  0  0  0  0
  189.4970  177.2840  144.7390 C   0  0  0  0  0  0  0  0  0  0  0  0
  191.6950  177.0610  145.7170 N   0  0  0  0  0  0  0  0  0  0  0  0
  188.8840  177.1400  145.9210 C   0  0  0  0  0  3  0  0  0  0  0  0
  186.6950  178.4110  142.4470 C   0  0  0  0  0  0  0  0  0  0  0  0
  188.7520  177.6540  143.5170 C   0  0  0  0  0  0  0  0  0  0  0  0
  190.8370  177.1950  142.1350 C   0  0  0  0  0  2  0  0  0  0  0  0
  188.7150  178.0740  141.1120 C   0  0  0  0  0  0  0  0  0  0  0  0
  187.3630  178.4320  141.2180 C   0  0  0  0  0  3  0  0  0  0  0  0
  191.5930  177.3240  143.3770 N   0  0  0  0  0  2  0  0  0  0  0  0
  185.2680  178.7840  142.5530 C   0  0  0  0  0  0  0  0  0  0  0  0
  184.4700  178.6400  143.9860 S   0  0  0  0  0  0  0  0  0  0  0  0
  184.5920  179.2780  141.3880 N   0  0  0  0  0  2  0  0  0  0  0  0
  181.9620  178.9770  141.2960 O   0  0  0  0  0  0  0  0  0  0  0  0
  183.2290  178.5170  140.6310 S   0  0  0  0  0  0  0  0  0  0  0  0
  183.3590  177.0240  140.7580 O   0  0  0  0  0  0  0  0  0  0  0  0
  183.2100  178.9700  138.8890 C   0  0  2  0  0  3  0  0  0  0  0  0
  180.5820  179.2480  138.2760 S   0  0  0  0  0  0  0  0  0  0  0  0
  182.9840  180.4600  138.7530 C   0  0  0  0  0  2  0  0  0  0  0  0
  182.1180  178.2960  138.0540 C   0  0  1  0  0  0  0  0  0  0  0  0
  182.4880  178.3750  136.7250 F   0  0  0  0  0  0  0  0  0  0  0  0
  181.4930  180.7250  138.8420 C   0  0  0  0  0  2  0  0  0  0  0  0
  181.9140  176.8240  138.4160 C   0  0  0  0  0  2  0  0  0  0  0  0
  182.3590  175.9580  137.3340 N   0  0  0  0  0  0  0  0  0  0  0  0
  183.5600  173.8290  136.9470 C   0  0  0  0  0  2  0  0  0  0  0  0
  181.5900  174.1210  135.8720 C   0  0  0  0  0  2  0  0  0  0  0  0
  182.9870  174.0810  135.6880 O   0  0  0  0  0  0  0  0  0  0  0  0
  181.1820  175.2440  136.8400 C   0  0  0  0  0  2  0  0  0  0  0  0
  183.3110  175.0010  137.9080 C   0  0  0  0  0  2  0  0  0  0  0  0
  189.3780  178.0530  139.8700 O   0  0  0  0  0  0  0  0  0  0  0  0
  188.0470  175.9520  137.0890 C   0  0  0  0  0  3  0  0  0  0  0  0
  189.1400  175.1070  136.8670 C   0  0  0  0  0  0  0  0  0  0  0  0
  190.3530  176.2310  138.6410 C   0  0  0  0  0  3  0  0  0  0  0  0
  188.1070  176.9290  138.0850 C   0  0  0  0  0  3  0  0  0  0  0  0
  189.2610  177.0720  138.8740 C   0  0  0  0  0  0  0  0  0  0  0  0
  190.2930  175.2530  137.6450 C   0  0  0  0  0  3  0  0  0  0  0  0
  188.9170  172.8320  136.1050 N   0  0  0  0  0  2  0  0  0  0  0  0
  189.1120  174.0780  135.8200 C   0  0  0  0  0  3  0  0  0  0  0  0
  1  5  1  0  0  0  0
  1  6  2  0  0  0  0
  2 11  1  0  0  0  0
  4  7  1  0  0  0  0
  4  8  2  0  0  0  0
  7  9  2  0  0  0  0
  8  1  1  0  0  0  0
  9  5  1  0  0  0  0
 10 16  1  0  0  0  0
 10  3  1  0  0  0  0
 11  3  2  0  0  0  0
 11  7  1  0  0  0  0
 12  2  1  0  0  0  0
 12 15  1  0  0  0  0
 13 14  1  0  0  0  0
 13  2  2  0  0  0  0
 14 10  2  0  0  0  0
 15  4  1  0  0  0  0
 16 17  2  0  0  0  0
 18 16  1  0  0  0  0
 20 21  2  0  0  0  0
 20 19  2  0  0  0  0
 20 18  1  0  0  0  0
 22 20  1  1  0  0  0
 23 27  1  0  0  0  0
 24 27  1  0  0  0  0
 24 22  1  0  0  0  0
 25 26  1  6  0  0  0
 25 23  1  0  0  0  0
 25 28  1  0  0  0  0
 25 22  1  0  0  0  0
 29 34  1  0  0  0  0
 29 28  1  0  0  0  0
 30 34  1  0  0  0  0
 31 33  1  0  0  0  0
 32 31  1  0  0  0  0
 32 30  1  0  0  0  0
 33 29  1  0  0  0  0
 35 13  1  0  0  0  0
 36 39  1  0  0  0  0
 37 36  2  0  0  0  0
 37 41  1  0  0  0  0
 38 40  1  0  0  0  0
 39 40  2  0  0  0  0
 40 35  1  0  0  0  0
 41 38  2  0  0  0  0
 43 42  2  0  0  0  0
 43 37  1  0  0  0  0
M  END
>  <MODEL>
3

>  <REMARK>
 VINA RESULT:      -8.6      2.266      3.439
  Name = 
  9 active torsions:
  status: ('A' for Active; 'I' for Inactive)
    1  A    between atoms: O_1  and  C_34
    2  A    between atoms: O_1  and  C_35
    3  A    between atoms: C_2  and  N_6
    4  A    between atoms: C_2  and  C_27
    5  A    between atoms: C_4  and  S_12
    6  A    between atoms: N_6  and  S_12
    7  A    between atoms: N_11  and  C_14
    8  A    between atoms: C_14  and  C_22
    9  A    between atoms: C_19  and  C_37
                            x       y       z     vdW  Elec       q    Type
                         _______ _______ _______ _____ _____    ______ ____

>  <TORSDO>
F 9

$$$$
=
 OpenBabel10262422343D

 43 48  0  0  1  0  0  0  0  0999 V2000
  187.9900  177.1710  147.0080 C   0  0  0  0  0  0  0  0  0  0  0  0
  186.5720  178.5570  142.3110 C   0  0  0  0  0  0  0  0  0  0  0  0
  188.7620  177.5760  141.9150 C   0  0  0  0  0  3  0  0  0  0  0  0
  186.7700  178.0140  145.1400 C   0  0  0  0  0  0  0  0  0  0  0  0
  189.2950  177.1770  146.2660 C   0  0  0  0  0  2  0  0  0  0  0  0
  187.9520  176.7630  148.1990 O   0  0  0  0  0  0  0  0  0  0  0  0
  187.9460  177.8140  144.2700 C   0  0  0  0  0  0  0  0  0  0  0  0
  186.8010  177.6770  146.3930 N   0  0  0  0  0  0  0  0  0  0  0  0
  189.1020  177.3860  144.7900 C   0  0  0  0  0  3  0  0  0  0  0  0
  188.5900  177.7050  140.5350 C   0  0  0  0  0  0  0  0  0  0  0  0
  187.7700  177.9970  142.8130 C   0  0  0  0  0  0  0  0  0  0  0  0
  185.5310  179.1220  143.2480 C   0  0  0  0  0  2  0  0  0  0  0  0
  186.3900  178.6970  140.9240 C   0  0  0  0  0  0  0  0  0  0  0  0
  187.4030  178.2680  140.0540 C   0  0  0  0  0  3  0  0  0  0  0  0
  185.5550  178.4860  144.5620 N   0  0  0  0  0  2  0  0  0  0  0  0
  189.6570  177.2580  139.6140 C   0  0  0  0  0  0  0  0  0  0  0  0
  191.2230  177.1950  140.1170 S   0  0  0  0  0  0  0  0  0  0  0  0
  189.3040  176.8770  138.2770 N   0  0  0  0  0  2  0  0  0  0  0  0
  190.3910  174.4810  137.9690 O   0  0  0  0  0  0  0  0  0  0  0  0
  190.2260  175.8030  137.2730 S   0  0  0  0  0  0  0  0  0  0  0  0
  191.5740  176.4100  137.0020 O   0  0  0  0  0  0  0  0  0  0  0  0
  189.3490  175.5740  135.7170 C   0  0  2  0  0  3  0  0  0  0  0  0
  187.4850  177.5450  135.6790 S   0  0  0  0  0  0  0  0  0  0  0  0
  189.8460  176.5780  134.7000 C   0  0  0  0  0  2  0  0  0  0  0  0
  187.8310  175.7600  135.7940 C   0  0  1  0  0  0  0  0  0  0  0  0
  187.2700  175.1390  134.6950 F   0  0  0  0  0  0  0  0  0  0  0  0
  189.1120  177.8860  134.9250 C   0  0  0  0  0  2  0  0  0  0  0  0
  187.2190  175.1590  137.0590 C   0  0  0  0  0  2  0  0  0  0  0  0
  185.9860  174.4500  136.7510 N   0  0  0  0  0  0  0  0  0  0  0  0
  184.6190  172.5400  137.5340 C   0  0  0  0  0  2  0  0  0  0  0  0
  183.5520  174.5050  137.1790 C   0  0  0  0  0  2  0  0  0  0  0  0
  183.7340  173.2050  136.6660 O   0  0  0  0  0  0  0  0  0  0  0  0
  184.8800  175.2810  137.2280 C   0  0  0  0  0  2  0  0  0  0  0  0
  186.0120  173.1880  137.4980 C   0  0  0  0  0  2  0  0  0  0  0  0
  185.2130  179.3030  140.4450 O   0  0  0  0  0  0  0  0  0  0  0  0
  182.2560  177.0820  139.9520 C   0  0  0  0  0  3  0  0  0  0  0  0
  181.8830  177.4460  138.6520 C   0  0  0  0  0  0  0  0  0  0  0  0
  183.7260  179.0190  138.5770 C   0  0  0  0  0  3  0  0  0  0  0  0
  183.3610  177.6840  140.5570 C   0  0  0  0  0  3  0  0  0  0  0  0
  184.1100  178.6550  139.8710 C   0  0  0  0  0  0  0  0  0  0  0  0
  182.6210  178.4180  137.9700 C   0  0  0  0  0  3  0  0  0  0  0  0
  180.3170  175.6500  138.2960 N   0  0  0  0  0  2  0  0  0  0  0  0
  180.7200  176.8400  137.9930 C   0  0  0  0  0  3  0  0  0  0  0  0
  1  6  2  0  0  0  0
  2 11  1  0  0  0  0
  2 12  1  0  0  0  0
  3 11  2  0  0  0  0
  4  8  2  0  0  0  0
  5  1  1  0  0  0  0
  7  9  2  0  0  0  0
  7  4  1  0  0  0  0
  8  1  1  0  0  0  0
  9  5  1  0  0  0  0
 10  3  1  0  0  0  0
 11  7  1  0  0  0  0
 12 15  1  0  0  0  0
 13  2  2  0  0  0  0
 14 10  2  0  0  0  0
 14 13  1  0  0  0  0
 15  4  1  0  0  0  0
 16 17  2  0  0  0  0
 16 10  1  0  0  0  0
 18 16  1  0  0  0  0
 20 19  2  0  0  0  0
 20 18  1  0  0  0  0
 21 20  2  0  0  0  0
 22 25  1  0  0  0  0
 22 20  1  1  0  0  0
 23 25  1  0  0  0  0
 24 27  1  0  0  0  0
 24 22  1  0  0  0  0
 25 26  1  6  0  0  0
 25 28  1  0  0  0  0
 27 23  1  0  0  0  0
 29 28  1  0  0  0  0
 29 33  1  0  0  0  0
 29 34  1  0  0  0  0
 31 33  1  0  0  0  0
 32 31  1  0  0  0  0
 32 30  1  0  0  0  0
 34 30  1  0  0  0  0
 35 13  1  0  0  0  0
 36 39  1  0  0  0  0
 37 36  2  0  0  0  0
 38 40  1  0  0  0  0
 40 35  1  0  0  0  0
 40 39  2  0  0  0  0
 41 38  2  0  0  0  0
 41 37  1  0  0  0  0
 43 42  2  0  0  0  0
 43 37  1  0  0  0  0
M  END
>  <MODEL>
4

>  <REMARK>
 VINA RESULT:      -8.5      3.867      7.056
  Name = 
  9 active torsions:
  status: ('A' for Active; 'I' for Inactive)
    1  A    between atoms: O_1  and  C_34
    2  A    between atoms: O_1  and  C_35
    3  A    between atoms: C_2  and  N_6
    4  A    between atoms: C_2  and  C_27
    5  A    between atoms: C_4  and  S_12
    6  A    between atoms: N_6  and  S_12
    7  A    between atoms: N_11  and  C_14
    8  A    between atoms: C_14  and  C_22
    9  A    between atoms: C_19  and  C_37
                            x       y       z     vdW  Elec       q    Type
                         _______ _______ _______ _____ _____    ______ ____

>  <TORSDO>
F 9

$$$$
=
 OpenBabel10262422343D

 43 48  0  0  1  0  0  0  0  0999 V2000
  187.9730  177.4540  147.6070 C   0  0  0  0  0  0  0  0  0  0  0  0
  185.9500  178.7230  143.1020 C   0  0  0  0  0  0  0  0  0  0  0  0
  188.1140  177.8230  142.4540 C   0  0  0  0  0  3  0  0  0  0  0  0
  186.5060  178.2250  145.8910 C   0  0  0  0  0  0  0  0  0  0  0  0
  189.1780  177.5010  146.7130 C   0  0  0  0  0  2  0  0  0  0  0  0
  188.0940  177.0600  148.7970 O   0  0  0  0  0  0  0  0  0  0  0  0
  187.5760  178.0600  144.8880 C   0  0  0  0  0  0  0  0  0  0  0  0
  186.7000  177.9060  147.1340 N   0  0  0  0  0  0  0  0  0  0  0  0
  188.8030  177.6830  145.2700 C   0  0  0  0  0  3  0  0  0  0  0  0
  187.7740  177.9270  141.1040 C   0  0  0  0  0  0  0  0  0  0  0  0
  187.2200  178.2170  143.4610 C   0  0  0  0  0  0  0  0  0  0  0  0
  185.0060  179.2600  144.1530 C   0  0  0  0  0  2  0  0  0  0  0  0
  185.5980  178.8380  141.7460 C   0  0  0  0  0  0  0  0  0  0  0  0
  186.5160  178.4370  140.7640 C   0  0  0  0  0  3  0  0  0  0  0  0
  185.2130  178.6420  145.4590 N   0  0  0  0  0  2  0  0  0  0  0  0
  188.7410  177.5110  140.0650 C   0  0  0  0  0  0  0  0  0  0  0  0
  190.3480  177.4160  140.4090 S   0  0  0  0  0  0  0  0  0  0  0  0
  188.2540  177.1860  138.7550 N   0  0  0  0  0  2  0  0  0  0  0  0
  189.0530  179.4610  137.6580 O   0  0  0  0  0  0  0  0  0  0  0  0
  188.1120  178.3090  137.4410 S   0  0  0  0  0  0  0  0  0  0  0  0
  186.6970  178.8130  137.3680 O   0  0  0  0  0  0  0  0  0  0  0  0
  188.5240  177.4580  135.9090 C   0  0  2  0  0  3  0  0  0  0  0  0
  187.9550  174.8500  136.3930 S   0  0  0  0  0  0  0  0  0  0  0  0
  187.2590  177.1710  135.1290 C   0  0  0  0  0  2  0  0  0  0  0  0
  189.2320  176.1120  136.0840 C   0  0  1  0  0  0  0  0  0  0  0  0
  189.8650  175.8050  134.8950 F   0  0  0  0  0  0  0  0  0  0  0  0
  186.6430  175.8970  135.6760 C   0  0  0  0  0  2  0  0  0  0  0  0
  190.2760  176.1270  137.2010 C   0  0  0  0  0  2  0  0  0  0  0  0
  191.5530  175.6190  136.7230 N   0  0  0  0  0  0  0  0  0  0  0  0
  193.9690  175.6860  137.2570 C   0  0  0  0  0  2  0  0  0  0  0  0
  193.0450  173.6560  136.8760 C   0  0  0  0  0  2  0  0  0  0  0  0
  193.8980  174.6330  136.3270 O   0  0  0  0  0  0  0  0  0  0  0  0
  191.6300  174.2110  137.1110 C   0  0  0  0  0  2  0  0  0  0  0  0
  192.6050  176.3770  137.4090 C   0  0  0  0  0  2  0  0  0  0  0  0
  184.3490  179.3920  141.4060 O   0  0  0  0  0  0  0  0  0  0  0  0
  181.8950  177.1120  139.7640 C   0  0  0  0  0  3  0  0  0  0  0  0
  180.7900  177.2850  140.6050 C   0  0  0  0  0  0  0  0  0  0  0  0
  182.0690  178.8500  141.9440 C   0  0  0  0  0  3  0  0  0  0  0  0
  183.0800  177.8080  140.0120 C   0  0  0  0  0  3  0  0  0  0  0  0
  183.1740  178.6880  141.1030 C   0  0  0  0  0  0  0  0  0  0  0  0
  180.8830  178.1540  141.6960 C   0  0  0  0  0  3  0  0  0  0  0  0
  178.9700  175.8760  141.3180 N   0  0  0  0  0  2  0  0  0  0  0  0
  179.5340  176.5590  140.3770 C   0  0  0  0  0  3  0  0  0  0  0  0
  1  6  2  0  0  0  0
  2 11  1  0  0  0  0
  2 12  1  0  0  0  0
  3 11  2  0  0  0  0
  4  8  2  0  0  0  0
  5  1  1  0  0  0  0
  7  9  2  0  0  0  0
  7  4  1  0  0  0  0
  8  1  1  0  0  0  0
  9  5  1  0  0  0  0
 10  3  1  0  0  0  0
 11  7  1  0  0  0  0
 12 15  1  0  0  0  0
 13  2  2  0  0  0  0
 14 10  2  0  0  0  0
 14 13  1  0  0  0  0
 15  4  1  0  0  0  0
 16 17  2  0  0  0  0
 16 10  1  0  0  0  0
 18 16  1  0  0  0  0
 20 19  2  0  0  0  0
 20 18  1  0  0  0  0
 21 20  2  0  0  0  0
 22 25  1  0  0  0  0
 22 20  1  1  0  0  0
 24 27  1  0  0  0  0
 24 22  1  0  0  0  0
 25 26  1  6  0  0  0
 25 23  1  0  0  0  0
 25 28  1  0  0  0  0
 27 23  1  0  0  0  0
 29 33  1  0  0  0  0
 29 28  1  0  0  0  0
 29 34  1  0  0  0  0
 30 34  1  0  0  0  0
 31 33  1  0  0  0  0
 32 31  1  0  0  0  0
 32 30  1  0  0  0  0
 35 13  1  0  0  0  0
 36 39  2  0  0  0  0
 36 37  1  0  0  0  0
 37 41  2  0  0  0  0
 39 40  1  0  0  0  0
 40 35  1  0  0  0  0
 40 38  2  0  0  0  0
 41 38  1  0  0  0  0
 43 37  1  0  0  0  0
 43 42  2  0  0  0  0
M  END
>  <MODEL>
5

>  <REMARK>
 VINA RESULT:      -8.3      4.145      8.186
  Name = 
  9 active torsions:
  status: ('A' for Active; 'I' for Inactive)
    1  A    between atoms: O_1  and  C_34
    2  A    between atoms: O_1  and  C_35
    3  A    between atoms: C_2  and  N_6
    4  A    between atoms: C_2  and  C_27
    5  A    between atoms: C_4  and  S_12
    6  A    between atoms: N_6  and  S_12
    7  A    between atoms: N_11  and  C_14
    8  A    between atoms: C_14  and  C_22
    9  A    between atoms: C_19  and  C_37
                            x       y       z     vdW  Elec       q    Type
                         _______ _______ _______ _____ _____    ______ ____

>  <TORSDO>
F 9

$$$$
=
 OpenBabel10262422343D

 43 48  0  0  1  0  0  0  0  0999 V2000
  187.9130  177.4820  147.6350 C   0  0  0  0  0  0  0  0  0  0  0  0
  186.2290  178.6660  142.9710 C   0  0  0  0  0  0  0  0  0  0  0  0
  188.3960  177.6700  142.4940 C   0  0  0  0  0  3  0  0  0  0  0  0
  186.5870  178.2440  145.8040 C   0  0  0  0  0  0  0  0  0  0  0  0
  189.1740  177.4580  146.8210 C   0  0  0  0  0  2  0  0  0  0  0  0
  187.9440  177.1260  148.8430 O   0  0  0  0  0  0  0  0  0  0  0  0
  187.7130  178.0090  144.8790 C   0  0  0  0  0  0  0  0  0  0  0  0
  186.6900  177.9610  147.0670 N   0  0  0  0  0  0  0  0  0  0  0  0
  188.8980  177.6030  145.3510 C   0  0  0  0  0  3  0  0  0  0  0  0
  188.1460  177.7400  141.1210 C   0  0  0  0  0  0  0  0  0  0  0  0
  187.4540  178.1290  143.4270 C   0  0  0  0  0  0  0  0  0  0  0  0
  185.2400  179.2700  143.9400 C   0  0  0  0  0  2  0  0  0  0  0  0
  185.9680  178.7460  141.5920 C   0  0  0  0  0  0  0  0  0  0  0  0
  186.9320  178.2810  140.6850 C   0  0  0  0  0  3  0  0  0  0  0  0
  185.3410  178.6900  145.2770 N   0  0  0  0  0  2  0  0  0  0  0  0
  189.1620  177.2560  140.1610 C   0  0  0  0  0  0  0  0  0  0  0  0
  190.7400  177.1210  140.6100 S   0  0  0  0  0  0  0  0  0  0  0  0
  188.7470  176.9000  138.8350 N   0  0  0  0  0  2  0  0  0  0  0  0
  190.6810  177.3970  137.0950 O   0  0  0  0  0  0  0  0  0  0  0  0
  189.2410  177.7160  137.3860 S   0  0  0  0  0  0  0  0  0  0  0  0
  189.0730  179.1990  137.5690 O   0  0  0  0  0  0  0  0  0  0  0  0
  188.2000  177.1580  136.0270 C   0  0  2  0  0  3  0  0  0  0  0  0
  185.9950  176.1280  137.2250 S   0  0  0  0  0  0  0  0  0  0  0  0
  187.1000  178.1670  135.7810 C   0  0  0  0  0  2  0  0  0  0  0  0
  187.5030  175.8140  136.2530 C   0  0  1  0  0  0  0  0  0  0  0  0
  187.1270  175.3170  135.0200 F   0  0  0  0  0  0  0  0  0  0  0  0
  185.9750  177.8930  136.7610 C   0  0  0  0  0  2  0  0  0  0  0  0
  188.4000  174.7840  136.9400 C   0  0  0  0  0  2  0  0  0  0  0  0
  189.3480  174.2120  135.9970 N   0  0  0  0  0  0  0  0  0  0  0  0
  191.5720  173.1260  135.9280 C   0  0  0  0  0  2  0  0  0  0  0  0
  189.8850  172.1120  134.8100 C   0  0  0  0  0  2  0  0  0  0  0  0
  191.0690  172.8580  134.6420 O   0  0  0  0  0  0  0  0  0  0  0  0
  188.8300  172.9020  135.6040 C   0  0  0  0  0  2  0  0  0  0  0  0
  190.6210  174.0460  136.7090 C   0  0  0  0  0  2  0  0  0  0  0  0
  184.7640  179.3300  141.1540 O   0  0  0  0  0  0  0  0  0  0  0  0
  182.5290  178.8030  138.2150 C   0  0  0  0  0  3  0  0  0  0  0  0
  181.9990  177.5450  138.5250 C   0  0  0  0  0  0  0  0  0  0  0  0
  183.3080  177.5100  140.5660 C   0  0  0  0  0  3  0  0  0  0  0  0
  183.4410  179.4100  139.0790 C   0  0  0  0  0  3  0  0  0  0  0  0
  183.8340  178.7700  140.2660 C   0  0  0  0  0  0  0  0  0  0  0  0
  182.3940  176.9020  139.7020 C   0  0  0  0  0  3  0  0  0  0  0  0
  180.4800  175.7610  137.9620 N   0  0  0  0  0  2  0  0  0  0  0  0
  181.0460  176.8750  137.6310 C   0  0  0  0  0  3  0  0  0  0  0  0
  1  6  2  0  0  0  0
  2 11  1  0  0  0  0
  2 12  1  0  0  0  0
  3 11  2  0  0  0  0
  4  8  2  0  0  0  0
  5  1  1  0  0  0  0
  7  9  2  0  0  0  0
  7  4  1  0  0  0  0
  8  1  1  0  0  0  0
  9  5  1  0  0  0  0
 10  3  1  0  0  0  0
 11  7  1  0  0  0  0
 12 15  1  0  0  0  0
 13  2  2  0  0  0  0
 14 10  2  0  0  0  0
 14 13  1  0  0  0  0
 15  4  1  0  0  0  0
 16 17  2  0  0  0  0
 16 10  1  0  0  0  0
 18 16  1  0  0  0  0
 19 20  2  0  0  0  0
 20 21  2  0  0  0  0
 20 18  1  0  0  0  0
 22 25  1  0  0  0  0
 22 20  1  1  0  0  0
 24 22  1  0  0  0  0
 24 27  1  0  0  0  0
 25 26  1  6  0  0  0
 25 28  1  0  0  0  0
 25 23  1  0  0  0  0
 27 23  1  0  0  0  0
 29 34  1  0  0  0  0
 29 28  1  0  0  0  0
 30 34  1  0  0  0  0
 31 33  1  0  0  0  0
 32 31  1  0  0  0  0
 32 30  1  0  0  0  0
 33 29  1  0  0  0  0
 35 13  1  0  0  0  0
 36 37  2  0  0  0  0
 36 39  1  0  0  0  0
 37 41  1  0  0  0  0
 39 40  2  0  0  0  0
 40 38  1  0  0  0  0
 40 35  1  0  0  0  0
 41 38  2  0  0  0  0
 43 42  2  0  0  0  0
 43 37  1  0  0  0  0
M  END
>  <MODEL>
6

>  <REMARK>
 VINA RESULT:      -8.2      3.636      7.504
  Name = 
  9 active torsions:
  status: ('A' for Active; 'I' for Inactive)
    1  A    between atoms: O_1  and  C_34
    2  A    between atoms: O_1  and  C_35
    3  A    between atoms: C_2  and  N_6
    4  A    between atoms: C_2  and  C_27
    5  A    between atoms: C_4  and  S_12
    6  A    between atoms: N_6  and  S_12
    7  A    between atoms: N_11  and  C_14
    8  A    between atoms: C_14  and  C_22
    9  A    between atoms: C_19  and  C_37
                            x       y       z     vdW  Elec       q    Type
                         _______ _______ _______ _____ _____    ______ ____

>  <TORSDO>
F 9

$$$$
=
 OpenBabel10262422343D

 43 48  0  0  1  0  0  0  0  0999 V2000
  184.0940  178.6590  144.9570 C   0  0  0  0  0  0  0  0  0  0  0  0
  182.3970  178.9030  140.1550 C   0  0  0  0  0  0  0  0  0  0  0  0
  184.5790  177.8660  139.8740 C   0  0  0  0  0  3  0  0  0  0  0  0
  182.7590  179.0370  143.0160 C   0  0  0  0  0  0  0  0  0  0  0  0
  185.3550  178.4980  144.1600 C   0  0  0  0  0  2  0  0  0  0  0  0
  184.1280  178.5410  146.2100 O   0  0  0  0  0  0  0  0  0  0  0  0
  183.8890  178.6450  142.1510 C   0  0  0  0  0  0  0  0  0  0  0  0
  182.8640  179.0030  144.3090 N   0  0  0  0  0  0  0  0  0  0  0  0
  185.0790  178.3550  142.6900 C   0  0  0  0  0  3  0  0  0  0  0  0
  184.3300  177.6680  138.5140 C   0  0  0  0  0  0  0  0  0  0  0  0
  183.6300  178.4810  140.7040 C   0  0  0  0  0  0  0  0  0  0  0  0
  181.3990  179.6670  140.9920 C   0  0  0  0  0  2  0  0  0  0  0  0
  182.1370  178.7140  138.7860 C   0  0  0  0  0  0  0  0  0  0  0  0
  183.1090  178.0970  137.9840 C   0  0  0  0  0  3  0  0  0  0  0  0
  181.5060  179.3550  142.4150 N   0  0  0  0  0  2  0  0  0  0  0  0
  185.3530  177.0240  137.6630 C   0  0  0  0  0  0  0  0  0  0  0  0
  184.9490  175.7790  136.6650 S   0  0  0  0  0  0  0  0  0  0  0  0
  186.7030  177.5060  137.7170 N   0  0  0  0  0  2  0  0  0  0  0  0
  187.5690  179.8510  136.8430 O   0  0  0  0  0  0  0  0  0  0  0  0
  187.4910  178.4010  136.4570 S   0  0  0  0  0  0  0  0  0  0  0  0
  186.7120  178.2540  135.1800 O   0  0  0  0  0  0  0  0  0  0  0  0
  189.1480  177.7350  136.2280 C   0  0  2  0  0  3  0  0  0  0  0  0
  189.2010  175.4790  137.7330 S   0  0  0  0  0  0  0  0  0  0  0  0
  189.1050  176.5910  135.2390 C   0  0  0  0  0  2  0  0  0  0  0  0
  189.8060  177.1800  137.4940 C   0  0  1  0  0  0  0  0  0  0  0  0
  191.1700  177.1280  137.2770 F   0  0  0  0  0  0  0  0  0  0  0  0
  188.6990  175.3340  135.9840 C   0  0  0  0  0  2  0  0  0  0  0  0
  189.5420  178.0400  138.7300 C   0  0  0  0  0  2  0  0  0  0  0  0
  189.6320  177.2430  139.9440 N   0  0  0  0  0  0  0  0  0  0  0  0
  191.0070  177.0050  141.9890 C   0  0  0  0  0  2  0  0  0  0  0  0
  188.7620  177.1100  142.2530 C   0  0  0  0  0  2  0  0  0  0  0  0
  189.8690  176.2400  142.3040 O   0  0  0  0  0  0  0  0  0  0  0  0
  188.5850  177.7150  140.8500 C   0  0  0  0  0  2  0  0  0  0  0  0
  190.9490  177.5030  140.5370 C   0  0  0  0  0  2  0  0  0  0  0  0
  180.9250  179.1860  138.2470 O   0  0  0  0  0  0  0  0  0  0  0  0
  180.2110  181.2830  135.2460 C   0  0  0  0  0  3  0  0  0  0  0  0
  180.4010  182.5620  135.7820 C   0  0  0  0  0  0  0  0  0  0  0  0
  180.9380  181.5690  137.9280 C   0  0  0  0  0  3  0  0  0  0  0  0
  180.3870  180.1540  136.0480 C   0  0  0  0  0  3  0  0  0  0  0  0
  180.7580  180.2880  137.3970 C   0  0  0  0  0  0  0  0  0  0  0  0
  180.7620  182.6990  137.1260 C   0  0  0  0  0  3  0  0  0  0  0  0
  180.8050  184.8790  135.2600 N   0  0  0  0  0  2  0  0  0  0  0  0
  180.2120  183.7690  134.9680 C   0  0  0  0  0  3  0  0  0  0  0  0
  1  6  2  0  0  0  0
  2 11  1  0  0  0  0
  2 12  1  0  0  0  0
  3 11  2  0  0  0  0
  4  8  2  0  0  0  0
  5  1  1  0  0  0  0
  7  9  2  0  0  0  0
  7  4  1  0  0  0  0
  8  1  1  0  0  0  0
  9  5  1  0  0  0  0
 10  3  1  0  0  0  0
 11  7  1  0  0  0  0
 12 15  1  0  0  0  0
 13  2  2  0  0  0  0
 14 10  2  0  0  0  0
 14 13  1  0  0  0  0
 15  4  1  0  0  0  0
 16 18  1  0  0  0  0
 16 10  1  0  0  0  0
 17 16  2  0  0  0  0
 20 19  2  0  0  0  0
 20 18  1  0  0  0  0
 21 20  2  0  0  0  0
 22 20  1  1  0  0  0
 22 25  1  0  0  0  0
 24 27  1  0  0  0  0
 24 22  1  0  0  0  0
 25 26  1  6  0  0  0
 25 23  1  0  0  0  0
 25 28  1  0  0  0  0
 27 23  1  0  0  0  0
 28 29  1  0  0  0  0
 29 34  1  0  0  0  0
 29 33  1  0  0  0  0
 30 32  1  0  0  0  0
 31 32  1  0  0  0  0
 33 31  1  0  0  0  0
 34 30  1  0  0  0  0
 35 13  1  0  0  0  0
 36 37  2  0  0  0  0
 36 39  1  0  0  0  0
 37 41  1  0  0  0  0
 39 40  2  0  0  0  0
 40 38  1  0  0  0  0
 40 35  1  0  0  0  0
 41 38  2  0  0  0  0
 43 42  2  0  0  0  0
 43 37  1  0  0  0  0
M  END
>  <MODEL>
7

>  <REMARK>
 VINA RESULT:      -8.1      3.701      9.072
  Name = 
  9 active torsions:
  status: ('A' for Active; 'I' for Inactive)
    1  A    between atoms: O_1  and  C_34
    2  A    between atoms: O_1  and  C_35
    3  A    between atoms: C_2  and  N_6
    4  A    between atoms: C_2  and  C_27
    5  A    between atoms: C_4  and  S_12
    6  A    between atoms: N_6  and  S_12
    7  A    between atoms: N_11  and  C_14
    8  A    between atoms: C_14  and  C_22
    9  A    between atoms: C_19  and  C_37
                            x       y       z     vdW  Elec       q    Type
                         _______ _______ _______ _____ _____    ______ ____

>  <TORSDO>
F 9

$$$$
=
 OpenBabel10262422343D

 43 48  0  0  1  0  0  0  0  0999 V2000
  191.1050  177.0680  147.3010 C   0  0  0  0  0  0  0  0  0  0  0  0
  189.3740  177.3420  142.5130 C   0  0  0  0  0  0  0  0  0  0  0  0
  187.4150  177.9860  143.8020 C   0  0  0  0  0  3  0  0  0  0  0  0
  190.9320  177.0200  144.9220 C   0  0  0  0  0  0  0  0  0  0  0  0
  189.6170  177.0380  147.4930 C   0  0  0  0  0  2  0  0  0  0  0  0
  191.8630  177.1230  148.3050 O   0  0  0  0  0  0  0  0  0  0  0  0
  189.4760  177.2430  145.0140 C   0  0  0  0  0  0  0  0  0  0  0  0
  191.6700  176.9770  145.9890 N   0  0  0  0  0  0  0  0  0  0  0  0
  188.8770  177.2920  146.2110 C   0  0  0  0  0  3  0  0  0  0  0  0
  186.7190  178.2850  142.6290 C   0  0  0  0  0  0  0  0  0  0  0  0
  188.7350  177.5130  143.7630 C   0  0  0  0  0  0  0  0  0  0  0  0
  190.7530  176.7320  142.4270 C   0  0  0  0  0  2  0  0  0  0  0  0
  188.6820  177.6350  141.3250 C   0  0  0  0  0  0  0  0  0  0  0  0
  187.3610  178.1040  141.4000 C   0  0  0  0  0  3  0  0  0  0  0  0
  191.5410  176.9560  143.6350 N   0  0  0  0  0  2  0  0  0  0  0  0
  185.3250  178.7750  142.7030 C   0  0  0  0  0  0  0  0  0  0  0  0
  184.4030  178.4750  144.0330 S   0  0  0  0  0  0  0  0  0  0  0  0
  184.7920  179.5190  141.5980 N   0  0  0  0  0  2  0  0  0  0  0  0
  183.8390  177.3420  140.4300 O   0  0  0  0  0  0  0  0  0  0  0  0
  183.9200  178.8330  140.2650 S   0  0  0  0  0  0  0  0  0  0  0  0
  184.6290  179.1680  138.9820 O   0  0  0  0  0  0  0  0  0  0  0  0
  182.2640  179.5390  140.2360 C   0  0  2  0  0  3  0  0  0  0  0  0
  180.6090  177.4090  139.9530 S   0  0  0  0  0  0  0  0  0  0  0  0
  181.6080  179.3560  141.5880 C   0  0  0  0  0  2  0  0  0  0  0  0
  181.3110  178.9180  139.2120 C   0  0  1  0  0  0  0  0  0  0  0  0
  180.2800  179.8110  138.9920 F   0  0  0  0  0  0  0  0  0  0  0  0
  181.0160  177.9610  141.6440 C   0  0  0  0  0  2  0  0  0  0  0  0
  181.9860  178.6150  137.8740 C   0  0  0  0  0  2  0  0  0  0  0  0
  181.8970  177.1980  137.5580 N   0  0  0  0  0  0  0  0  0  0  0  0
  181.0090  175.6660  135.8280 C   0  0  0  0  0  2  0  0  0  0  0  0
  183.1540  175.3620  136.4820 C   0  0  0  0  0  2  0  0  0  0  0  0
  181.8560  174.8210  136.5680 O   0  0  0  0  0  0  0  0  0  0  0  0
  183.2150  176.7780  137.0800 C   0  0  0  0  0  2  0  0  0  0  0  0
  180.9130  177.0550  136.4790 C   0  0  0  0  0  2  0  0  0  0  0  0
  189.3160  177.4100  140.0890 O   0  0  0  0  0  0  0  0  0  0  0  0
  188.8770  178.6440  136.5950 C   0  0  0  0  0  3  0  0  0  0  0  0
  187.6540  178.0460  136.2700 C   0  0  0  0  0  0  0  0  0  0  0  0
  187.5650  177.0540  138.4800 C   0  0  0  0  0  3  0  0  0  0  0  0
  189.4380  178.4480  137.8590 C   0  0  0  0  0  3  0  0  0  0  0  0
  188.7820  177.6540  138.8150 C   0  0  0  0  0  0  0  0  0  0  0  0
  187.0030  177.2490  137.2160 C   0  0  0  0  0  3  0  0  0  0  0  0
  185.9900  177.5630  134.5950 N   0  0  0  0  0  2  0  0  0  0  0  0
  187.0440  178.2240  134.9460 C   0  0  0  0  0  3  0  0  0  0  0  0
  1  5  1  0  0  0  0
  1  6  2  0  0  0  0
  2 11  1  0  0  0  0
  4  7  1  0  0  0  0
  4  8  2  0  0  0  0
  7  9  2  0  0  0  0
  8  1  1  0  0  0  0
  9  5  1  0  0  0  0
 10 16  1  0  0  0  0
 10  3  1  0  0  0  0
 11  3  2  0  0  0  0
 11  7  1  0  0  0  0
 12  2  1  0  0  0  0
 12 15  1  0  0  0  0
 13 14  1  0  0  0  0
 13  2  2  0  0  0  0
 14 10  2  0  0  0  0
 15  4  1  0  0  0  0
 16 17  2  0  0  0  0
 18 16  1  0  0  0  0
 20 19  2  0  0  0  0
 20 18  1  0  0  0  0
 21 20  2  0  0  0  0
 22 20  1  1  0  0  0
 22 24  1  0  0  0  0
 23 27  1  0  0  0  0
 24 27  1  0  0  0  0
 25 26  1  6  0  0  0
 25 23  1  0  0  0  0
 25 22  1  0  0  0  0
 28 25  1  0  0  0  0
 29 28  1  0  0  0  0
 30 34  1  0  0  0  0
 30 32  1  0  0  0  0
 31 32  1  0  0  0  0
 31 33  1  0  0  0  0
 33 29  1  0  0  0  0
 34 29  1  0  0  0  0
 35 13  1  0  0  0  0
 36 39  1  0  0  0  0
 37 36  2  0  0  0  0
 37 41  1  0  0  0  0
 38 40  1  0  0  0  0
 39 40  2  0  0  0  0
 40 35  1  0  0  0  0
 41 38  2  0  0  0  0
 42 43  2  0  0  0  0
 43 37  1  0  0  0  0
M  END
>  <MODEL>
8

>  <REMARK>
 VINA RESULT:      -8.0      2.263      2.900
  Name = 
  9 active torsions:
  status: ('A' for Active; 'I' for Inactive)
    1  A    between atoms: O_1  and  C_34
    2  A    between atoms: O_1  and  C_35
    3  A    between atoms: C_2  and  N_6
    4  A    between atoms: C_2  and  C_27
    5  A    between atoms: C_4  and  S_12
    6  A    between atoms: N_6  and  S_12
    7  A    between atoms: N_11  and  C_14
    8  A    between atoms: C_14  and  C_22
    9  A    between atoms: C_19  and  C_37
                            x       y       z     vdW  Elec       q    Type
                         _______ _______ _______ _____ _____    ______ ____

>  <TORSDO>
F 9

$$$$
=
 OpenBabel10262422343D

 43 48  0  0  1  0  0  0  0  0999 V2000
  191.3180  176.3290  147.1550 C   0  0  0  0  0  0  0  0  0  0  0  0
  187.4820  177.9660  144.2230 C   0  0  0  0  0  0  0  0  0  0  0  0
  189.1790  177.4010  142.5750 C   0  0  0  0  0  3  0  0  0  0  0  0
  189.2200  177.1600  146.3830 C   0  0  0  0  0  0  0  0  0  0  0  0
  192.0090  176.6260  145.8550 C   0  0  0  0  0  2  0  0  0  0  0  0
  191.9620  175.7940  148.0960 O   0  0  0  0  0  0  0  0  0  0  0  0
  189.7500  177.2490  145.0080 C   0  0  0  0  0  0  0  0  0  0  0  0
  189.9500  176.7000  147.3520 N   0  0  0  0  0  0  0  0  0  0  0  0
  191.0330  176.9590  144.7620 C   0  0  0  0  0  3  0  0  0  0  0  0
  188.2780  177.6480  141.5360 C   0  0  0  0  0  0  0  0  0  0  0  0
  188.8000  177.5570  143.9170 C   0  0  0  0  0  0  0  0  0  0  0  0
  187.0720  178.2510  145.6490 C   0  0  0  0  0  2  0  0  0  0  0  0
  186.5680  178.2240  143.1860 C   0  0  0  0  0  0  0  0  0  0  0  0
  186.9800  178.0600  141.8550 C   0  0  0  0  0  3  0  0  0  0  0  0
  187.8530  177.4890  146.6190 N   0  0  0  0  0  2  0  0  0  0  0  0
  188.7090  177.4830  140.1310 C   0  0  0  0  0  0  0  0  0  0  0  0
  190.2990  177.6150  139.7230 S   0  0  0  0  0  0  0  0  0  0  0  0
  187.7200  177.2000  139.1320 N   0  0  0  0  0  2  0  0  0  0  0  0
  188.3200  179.3000  137.6330 O   0  0  0  0  0  0  0  0  0  0  0  0
  187.2280  178.2970  137.8810 S   0  0  0  0  0  0  0  0  0  0  0  0
  185.9710  179.0040  138.3050 O   0  0  0  0  0  0  0  0  0  0  0  0
  186.9080  177.3530  136.3810 C   0  0  2  0  0  3  0  0  0  0  0  0
  186.6770  174.7830  137.2180 S   0  0  0  0  0  0  0  0  0  0  0  0
  185.4330  177.0310  136.2870 C   0  0  0  0  0  2  0  0  0  0  0  0
  187.6440  176.0140  136.2870 C   0  0  1  0  0  0  0  0  0  0  0  0
  187.6660  175.6330  134.9590 F   0  0  0  0  0  0  0  0  0  0  0  0
  185.1620  175.7960  137.1260 C   0  0  0  0  0  2  0  0  0  0  0  0
  189.0840  176.0870  136.7960 C   0  0  0  0  0  2  0  0  0  0  0  0
  189.9670  175.2790  135.9690 N   0  0  0  0  0  0  0  0  0  0  0  0
  192.3550  175.0560  135.3560 C   0  0  0  0  0  2  0  0  0  0  0  0
  191.2640  173.1750  135.9870 C   0  0  0  0  0  2  0  0  0  0  0  0
  191.8100  173.8500  134.8770 O   0  0  0  0  0  0  0  0  0  0  0  0
  190.1480  173.9980  136.6530 C   0  0  0  0  0  2  0  0  0  0  0  0
  191.2520  175.9820  135.8910 C   0  0  0  0  0  2  0  0  0  0  0  0
  185.2760  178.6800  143.5080 O   0  0  0  0  0  0  0  0  0  0  0  0
  183.0320  178.1570  140.5740 C   0  0  0  0  0  3  0  0  0  0  0  0
  181.8040  178.5390  141.1260 C   0  0  0  0  0  0  0  0  0  0  0  0
  182.9100  179.0070  143.2320 C   0  0  0  0  0  3  0  0  0  0  0  0
  184.1930  178.2050  141.3490 C   0  0  0  0  0  3  0  0  0  0  0  0
  184.1420  178.6360  142.6850 C   0  0  0  0  0  0  0  0  0  0  0  0
  181.7480  178.9610  142.4580 C   0  0  0  0  0  3  0  0  0  0  0  0
  180.5840  178.4890  139.0490 N   0  0  0  0  0  2  0  0  0  0  0  0
  180.5640  178.4890  140.3410 C   0  0  0  0  0  3  0  0  0  0  0  0
  1  8  1  0  0  0  0
  1  6  2  0  0  0  0
  2 12  1  0  0  0  0
  3 11  2  0  0  0  0
  4 15  1  0  0  0  0
  4  8  2  0  0  0  0
  5  1  1  0  0  0  0
  7  4  1  0  0  0  0
  9  7  2  0  0  0  0
  9  5  1  0  0  0  0
 10 14  2  0  0  0  0
 10  3  1  0  0  0  0
 11  2  1  0  0  0  0
 11  7  1  0  0  0  0
 12 15  1  0  0  0  0
 13 35  1  0  0  0  0
 13  2  2  0  0  0  0
 14 13  1  0  0  0  0
 16 10  1  0  0  0  0
 17 16  2  0  0  0  0
 18 16  1  0  0  0  0
 19 20  2  0  0  0  0
 20 21  2  0  0  0  0
 20 18  1  0  0  0  0
 22 20  1  1  0  0  0
 24 22  1  0  0  0  0
 24 27  1  0  0  0  0
 25 26  1  6  0  0  0
 25 22  1  0  0  0  0
 25 28  1  0  0  0  0
 25 23  1  0  0  0  0
 27 23  1  0  0  0  0
 29 33  1  0  0  0  0
 29 28  1  0  0  0  0
 30 34  1  0  0  0  0
 31 33  1  0  0  0  0
 32 30  1  0  0  0  0
 32 31  1  0  0  0  0
 34 29  1  0  0  0  0
 36 37  2  0  0  0  0
 36 39  1  0  0  0  0
 37 41  1  0  0  0  0
 39 40  2  0  0  0  0
 40 38  1  0  0  0  0
 40 35  1  0  0  0  0
 41 38  2  0  0  0  0
 42 43  2  0  0  0  0
 43 37  1  0  0  0  0
M  END
>  <MODEL>
9

>  <REMARK>
 VINA RESULT:      -8.0      3.512      7.389
  Name = 
  9 active torsions:
  status: ('A' for Active; 'I' for Inactive)
    1  A    between atoms: O_1  and  C_34
    2  A    between atoms: O_1  and  C_35
    3  A    between atoms: C_2  and  N_6
    4  A    between atoms: C_2  and  C_27
    5  A    between atoms: C_4  and  S_12
    6  A    between atoms: N_6  and  S_12
    7  A    between atoms: N_11  and  C_14
    8  A    between atoms: C_14  and  C_22
    9  A    between atoms: C_19  and  C_37
                            x       y       z     vdW  Elec       q    Type
                         _______ _______ _______ _____ _____    ______ ____

>  <TORSDO>
F 9

$$$$
