=
 OpenBabel10262420313D

 55 60  0  0  1  0  0  0  0  0999 V2000
  189.5530  177.2010  137.4010 C   0  0  1  0  0  3  0  0  0  0  0  0
  192.0640  173.7580  136.7760 C   0  0  0  0  0  3  0  0  0  0  0  0
  190.4440  176.0150  137.1620 C   0  0  0  0  0  0  0  0  0  0  0  0
  189.8690  174.7430  137.0610 C   0  0  0  0  0  3  0  0  0  0  0  0
  192.6450  175.0250  136.8840 C   0  0  0  0  0  3  0  0  0  0  0  0
  190.6760  173.6180  136.8650 C   0  0  0  0  0  3  0  0  0  0  0  0
  191.8390  176.1510  137.0810 C   0  0  0  0  0  3  0  0  0  0  0  0
  188.7710  177.5900  136.1800 C   0  0  0  0  0  0  0  0  0  0  0  0
  189.3850  177.8710  135.1600 O   0  0  0  0  0  0  0  0  0  0  0  0
  186.8380  178.6700  135.3070 O   0  0  0  0  0  1  0  0  0  0  0  0
  187.2700  177.7190  136.2300 C   0  0  1  0  0  3  0  0  0  0  0  0
  187.0850  175.5970  135.1790 O   0  0  0  0  0  0  0  0  0  0  0  0
  183.3550  174.5690  136.7590 C   0  0  2  0  0  3  0  0  0  0  0  0
  182.8840  173.1380  136.6680 C   0  0  0  0  0  3  0  0  0  0  0  0
  185.6170  173.6610  137.3730 C   0  0  0  0  0  2  0  0  0  0  0  0
  185.2060  172.2470  136.9720 C   0  0  0  0  0  2  0  0  0  0  0  0
  186.5700  176.4080  135.9980 C   0  0  0  0  0  0  0  0  0  0  0  0
  183.7140  172.0910  136.8120 C   0  0  0  0  0  3  0  0  0  0  0  0
  184.8640  174.6730  136.5050 C   0  0  2  0  0  3  0  0  0  0  0  0
  185.0910  178.0980  137.8060 O   0  0  0  0  0  0  0  0  0  0  0  0
  183.4960  176.4740  138.3140 N   0  0  0  0  0  0  0  0  0  0  0  0
  183.0260  175.1010  138.1490 C   0  0  0  0  0  2  0  0  0  0  0  0
  185.3730  176.0330  136.7170 N   0  0  0  0  0  0  0  0  0  0  0  0
  184.6860  176.9180  137.6330 C   0  0  0  0  0  0  0  0  0  0  0  0
  180.9940  177.9240  137.7490 C   0  0  0  0  0  1  0  0  0  0  0  0
  183.4720  177.3930  140.5950 C   0  0  0  0  0  3  0  0  0  0  0  0
  182.8770  178.1570  141.6000 C   0  0  0  0  0  3  0  0  0  0  0  0
  181.6590  177.9630  139.0830 C   0  0  0  0  0  0  0  0  0  0  0  0
  181.0690  178.7270  140.0950 C   0  0  0  0  0  3  0  0  0  0  0  0
  181.6740  178.8260  141.3530 C   0  0  0  0  0  0  0  0  0  0  0  0
  182.8740  177.2850  139.3280 C   0  0  0  0  0  0  0  0  0  0  0  0
  181.0190  179.6280  142.4280 C   0  0  0  0  0  3  0  0  0  0  0  0
  181.4440  179.2020  143.6760 F   0  0  0  0  0  0  0  0  0  0  0  0
  179.6440  179.5080  142.3380 F   0  0  0  0  0  0  0  0  0  0  0  0
  188.6320  177.0410  138.6120 C   0  0  0  0  0  2  0  0  0  0  0  0
  188.9760  178.0360  139.7080 C   0  0  2  0  0  3  0  0  0  0  0  0
  189.0530  179.3010  139.1570 F   0  0  0  0  0  0  0  0  0  0  0  0
  190.2040  177.6940  140.2860 O   0  0  0  0  0  0  0  0  0  0  0  0
  189.0050  177.7830  143.8590 C   0  0  2  0  0  3  0  0  0  0  0  0
  189.8950  177.1380  141.5310 C   0  0  1  0  0  3  0  0  0  0  0  0
  191.9810  177.9690  142.6670 C   0  0  0  0  0  2  0  0  0  0  0  0
  191.1750  176.7240  142.2870 C   0  0  1  0  0  3  0  0  0  0  0  0
  190.7490  176.1090  143.5410 N   0  0  0  0  0  0  0  0  0  0  0  0
  191.8820  175.3420  144.0660 C   0  0  0  0  0  1  0  0  0  0  0  0
  189.0660  178.1470  142.3520 C   0  0  0  0  0  2  0  0  0  0  0  0
  191.4450  178.3600  144.0370 C   0  0  0  0  0  2  0  0  0  0  0  0
  190.4010  177.2860  144.3610 C   0  0  1  0  0  0  0  0  0  0  0  0
  187.7670  175.8130  143.1190 O   0  0  0  0  0  1  0  0  0  0  0  0
  187.8710  176.7670  144.1410 C   0  0  2  0  0  3  0  0  0  0  0  0
  186.5400  177.4820  144.2550 C   0  0  0  0  0  1  0  0  0  0  0  0
  190.3340  176.9960  145.8800 C   0  0  0  0  0  2  0  0  0  0  0  0
  189.4640  177.9630  146.6750 C   0  0  0  0  0  2  0  0  0  0  0  0
  188.9120  177.2550  147.8940 C   0  0  0  0  0  2  0  0  0  0  0  0
  186.8220  178.5520  147.6690 C   0  0  0  0  0  1  0  0  0  0  0  0
  187.9440  178.1720  148.6120 C   0  0  0  0  0  2  0  0  0  0  0  0
  1 35  1  1  0  0  0
  2  6  2  0  0  0  0
  2  5  1  0  0  0  0
  3  1  1  0  0  0  0
  4  3  2  0  0  0  0
  5  7  2  0  0  0  0
  6  4  1  0  0  0  0
  7  3  1  0  0  0  0
  8 11  1  0  0  0  0
  8  1  1  0  0  0  0
  9  8  2  0  0  0  0
 11 10  1  6  0  0  0
 12 17  2  0  0  0  0
 13 14  1  1  0  0  0
 13 22  1  0  0  0  0
 14 18  2  0  0  0  0
 16 15  1  0  0  0  0
 17 11  1  0  0  0  0
 17 23  1  0  0  0  0
 18 16  1  0  0  0  0
 19 23  1  0  0  0  0
 19 13  1  0  0  0  0
 19 15  1  1  0  0  0
 21 31  1  0  0  0  0
 22 21  1  0  0  0  0
 23 24  1  0  0  0  0
 24 20  2  0  0  0  0
 24 21  1  0  0  0  0
 25 28  1  0  0  0  0
 26 27  1  0  0  0  0
 28 31  1  0  0  0  0
 28 29  2  0  0  0  0
 29 30  1  0  0  0  0
 30 27  2  0  0  0  0
 30 32  1  0  0  0  0
 31 26  2  0  0  0  0
 32 33  1  0  0  0  0
 34 32  1  0  0  0  0
 35 36  1  0  0  0  0
 36 37  1  6  0  0  0
 36 38  1  0  0  0  0
 39 49  1  6  0  0  0
 39 47  1  0  0  0  0
 40 38  1  6  0  0  0
 40 42  1  0  0  0  0
 40 45  1  0  0  0  0
 41 46  1  0  0  0  0
 42 41  1  1  0  0  0
 42 43  1  0  0  0  0
 43 44  1  0  0  0  0
 43 47  1  0  0  0  0
 45 39  1  0  0  0  0
 46 47  1  0  0  0  0
 47 51  1  1  0  0  0
 48 49  1  0  0  0  0
 49 50  1  6  0  0  0
 51 52  1  0  0  0  0
 52 53  1  0  0  0  0
 53 55  1  0  0  0  0
 54 55  1  0  0  0  0
M  END
>  <MODEL>
1

>  <REMARK>
 VINA RESULT:      -8.7      0.000      0.000
  Name = 
  15 active torsions:
  status: ('A' for Active; 'I' for Inactive)
    1  A    between atoms: C_1  and  C_21
    2  A    between atoms: C_3  and  C_25
    3  A    between atoms: C_3  and  C_38
    4  A    between atoms: C_6  and  O_22
    5  A    between atoms: C_8  and  O_22
    6  A    between atoms: C_8  and  C_54
    7  A    between atoms: C_10  and  C_48
    8  A    between atoms: C_19  and  C_37
    9  A    between atoms: C_27  and  C_51
   10  A    between atoms: C_29  and  C_38
   11  A    between atoms: C_29  and  C_53
   12  A    between atoms: N_33  and  C_52
   13  A    between atoms: C_35  and  C_37
   14  A    between atoms: C_35  and  C_51
   15  A    between atoms: C_51  and  C_54
                            x       y       z     vdW  Elec       q    Type
                         _______ _______ _______ _____ _____    ______ ____

>  <TORSDO>
F 15

$$$$
=
 OpenBabel10262420313D

 55 60  0  0  1  0  0  0  0  0999 V2000
  189.8980  177.4370  137.4020 C   0  0  1  0  0  3  0  0  0  0  0  0
  190.8640  173.3620  136.3940 C   0  0  0  0  0  3  0  0  0  0  0  0
  190.2470  176.0240  137.0240 C   0  0  0  0  0  0  0  0  0  0  0  0
  189.3050  175.0120  137.2380 C   0  0  0  0  0  3  0  0  0  0  0  0
  191.8130  174.3680  136.1870 C   0  0  0  0  0  3  0  0  0  0  0  0
  189.6110  173.6850  136.9210 C   0  0  0  0  0  3  0  0  0  0  0  0
  191.5080  175.6950  136.5040 C   0  0  0  0  0  3  0  0  0  0  0  0
  188.9710  178.0840  136.4160 C   0  0  0  0  0  0  0  0  0  0  0  0
  189.3660  178.2570  135.2710 O   0  0  0  0  0  0  0  0  0  0  0  0
  187.4430  179.9100  136.4230 O   0  0  0  0  0  1  0  0  0  0  0  0
  187.6170  178.5930  136.8430 C   0  0  1  0  0  3  0  0  0  0  0  0
  186.5910  177.2410  135.1820 O   0  0  0  0  0  0  0  0  0  0  0  0
  182.9740  176.6290  137.1850 C   0  0  2  0  0  3  0  0  0  0  0  0
  182.0400  175.5440  136.7070 C   0  0  0  0  0  3  0  0  0  0  0  0
  184.8570  175.0030  136.8260 C   0  0  0  0  0  2  0  0  0  0  0  0
  183.9440  174.0490  136.0600 C   0  0  0  0  0  2  0  0  0  0  0  0
  186.4920  177.7310  136.3410 C   0  0  0  0  0  0  0  0  0  0  0  0
  182.4790  174.3610  136.2440 C   0  0  0  0  0  3  0  0  0  0  0  0
  184.3830  176.4420  136.6060 C   0  0  2  0  0  3  0  0  0  0  0  0
  185.9210  178.8100  138.9530 O   0  0  0  0  0  0  0  0  0  0  0  0
  183.9520  177.5900  139.2310 N   0  0  0  0  0  0  0  0  0  0  0  0
  183.0300  176.5870  138.7070 C   0  0  0  0  0  2  0  0  0  0  0  0
  185.3440  177.4050  137.1570 N   0  0  0  0  0  0  0  0  0  0  0  0
  185.1230  177.9610  138.4750 C   0  0  0  0  0  0  0  0  0  0  0  0
  181.4130  178.7980  140.1100 C   0  0  0  0  0  1  0  0  0  0  0  0
  184.8370  177.8780  141.5080 C   0  0  0  0  0  3  0  0  0  0  0  0
  184.6860  178.2720  142.8380 C   0  0  0  0  0  3  0  0  0  0  0  0
  182.5590  178.5780  141.0380 C   0  0  0  0  0  0  0  0  0  0  0  0
  182.4160  178.9710  142.3720 C   0  0  0  0  0  3  0  0  0  0  0  0
  183.4740  178.8190  143.2740 C   0  0  0  0  0  0  0  0  0  0  0  0
  183.7800  178.0240  140.5930 C   0  0  0  0  0  0  0  0  0  0  0  0
  183.2970  179.2250  144.7000 C   0  0  0  0  0  3  0  0  0  0  0  0
  184.1590  178.5120  145.5160 F   0  0  0  0  0  0  0  0  0  0  0  0
  181.9900  179.0020  145.0950 F   0  0  0  0  0  0  0  0  0  0  0  0
  189.3620  177.5750  138.8280 C   0  0  0  0  0  2  0  0  0  0  0  0
  190.4770  177.4640  139.8540 C   0  0  2  0  0  3  0  0  0  0  0  0
  191.6920  177.4310  139.1940 F   0  0  0  0  0  0  0  0  0  0  0  0
  190.3130  176.2950  140.6060 O   0  0  0  0  0  0  0  0  0  0  0  0
  190.4810  175.9360  144.3550 C   0  0  2  0  0  3  0  0  0  0  0  0
  190.7870  176.5980  141.8860 C   0  0  1  0  0  3  0  0  0  0  0  0
  188.7820  177.9710  142.5420 C   0  0  0  0  0  2  0  0  0  0  0  0
  190.3000  177.9890  142.3420 C   0  0  1  0  0  3  0  0  0  0  0  0
  190.8870  178.2370  143.6560 N   0  0  0  0  0  0  0  0  0  0  0  0
  190.7990  179.6760  143.9180 C   0  0  0  0  0  1  0  0  0  0  0  0
  190.3380  175.5010  142.8720 C   0  0  0  0  0  2  0  0  0  0  0  0
  188.6000  177.5650  143.9970 C   0  0  0  0  0  2  0  0  0  0  0  0
  190.0280  177.4220  144.5370 C   0  0  1  0  0  0  0  0  0  0  0  0
  192.4410  174.4790  144.3750 O   0  0  0  0  0  1  0  0  0  0  0  0
  191.9180  175.6810  144.8740 C   0  0  2  0  0  3  0  0  0  0  0  0
  191.9270  175.6060  146.3870 C   0  0  0  0  0  1  0  0  0  0  0  0
  190.1130  177.8110  146.0330 C   0  0  0  0  0  2  0  0  0  0  0  0
  188.9830  177.2660  146.8990 C   0  0  0  0  0  2  0  0  0  0  0  0
  189.0830  177.8610  148.2880 C   0  0  0  0  0  2  0  0  0  0  0  0
  186.7810  178.3150  147.5180 C   0  0  0  0  0  1  0  0  0  0  0  0
  187.7550  178.4830  148.6640 C   0  0  0  0  0  2  0  0  0  0  0  0
  1 35  1  1  0  0  0
  2  6  1  0  0  0  0
  3  4  1  0  0  0  0
  3  1  1  0  0  0  0
  5  2  2  0  0  0  0
  5  7  1  0  0  0  0
  6  4  2  0  0  0  0
  7  3  2  0  0  0  0
  8 11  1  0  0  0  0
  8  1  1  0  0  0  0
  9  8  2  0  0  0  0
 11 10  1  6  0  0  0
 12 17  2  0  0  0  0
 13 14  1  6  0  0  0
 13 22  1  0  0  0  0
 16 18  1  0  0  0  0
 16 15  1  0  0  0  0
 17 11  1  0  0  0  0
 17 23  1  0  0  0  0
 18 14  2  0  0  0  0
 19 15  1  1  0  0  0
 19 23  1  0  0  0  0
 19 13  1  0  0  0  0
 21 31  1  0  0  0  0
 22 21  1  0  0  0  0
 23 24  1  0  0  0  0
 24 20  2  0  0  0  0
 24 21  1  0  0  0  0
 25 28  1  0  0  0  0
 26 27  1  0  0  0  0
 27 30  2  0  0  0  0
 28 29  2  0  0  0  0
 29 30  1  0  0  0  0
 30 32  1  0  0  0  0
 31 28  1  0  0  0  0
 31 26  2  0  0  0  0
 32 34  1  0  0  0  0
 32 33  1  0  0  0  0
 35 36  1  0  0  0  0
 36 37  1  6  0  0  0
 36 38  1  0  0  0  0
 39 47  1  0  0  0  0
 39 49  1  6  0  0  0
 40 38  1  6  0  0  0
 40 42  1  0  0  0  0
 40 45  1  0  0  0  0
 41 46  1  0  0  0  0
 42 41  1  1  0  0  0
 42 43  1  0  0  0  0
 43 44  1  0  0  0  0
 43 47  1  0  0  0  0
 45 39  1  0  0  0  0
 46 47  1  0  0  0  0
 47 51  1  1  0  0  0
 48 49  1  0  0  0  0
 49 50  1  1  0  0  0
 51 52  1  0  0  0  0
 52 53  1  0  0  0  0
 53 55  1  0  0  0  0
 54 55  1  0  0  0  0
M  END
>  <MODEL>
2

>  <REMARK>
 VINA RESULT:      -8.2      1.545      2.291
  Name = 
  15 active torsions:
  status: ('A' for Active; 'I' for Inactive)
    1  A    between atoms: C_1  and  C_21
    2  A    between atoms: C_3  and  C_25
    3  A    between atoms: C_3  and  C_38
    4  A    between atoms: C_6  and  O_22
    5  A    between atoms: C_8  and  O_22
    6  A    between atoms: C_8  and  C_54
    7  A    between atoms: C_10  and  C_48
    8  A    between atoms: C_19  and  C_37
    9  A    between atoms: C_27  and  C_51
   10  A    between atoms: C_29  and  C_38
   11  A    between atoms: C_29  and  C_53
   12  A    between atoms: N_33  and  C_52
   13  A    between atoms: C_35  and  C_37
   14  A    between atoms: C_35  and  C_51
   15  A    between atoms: C_51  and  C_54
                            x       y       z     vdW  Elec       q    Type
                         _______ _______ _______ _____ _____    ______ ____

>  <TORSDO>
F 15

$$$$
=
 OpenBabel10262420313D

 55 60  0  0  1  0  0  0  0  0999 V2000
  189.9900  176.7250  136.8950 C   0  0  1  0  0  3  0  0  0  0  0  0
  193.5930  174.3650  136.8640 C   0  0  0  0  0  3  0  0  0  0  0  0
  191.2630  175.9260  136.8900 C   0  0  0  0  0  0  0  0  0  0  0  0
  191.4640  174.9750  135.8830 C   0  0  0  0  0  3  0  0  0  0  0  0
  193.3950  175.3070  137.8770 C   0  0  0  0  0  3  0  0  0  0  0  0
  192.6270  174.1990  135.8680 C   0  0  0  0  0  3  0  0  0  0  0  0
  192.2320  176.0840  137.8940 C   0  0  0  0  0  3  0  0  0  0  0  0
  188.7660  175.8560  136.9350 C   0  0  0  0  0  0  0  0  0  0  0  0
  188.8620  174.7350  137.4150 O   0  0  0  0  0  0  0  0  0  0  0  0
  187.7250  177.1490  135.2280 O   0  0  0  0  0  1  0  0  0  0  0  0
  187.4700  176.3160  136.3160 C   0  0  1  0  0  3  0  0  0  0  0  0
  187.1020  174.2440  135.2160 O   0  0  0  0  0  0  0  0  0  0  0  0
  182.9770  174.0520  135.8560 C   0  0  2  0  0  3  0  0  0  0  0  0
  182.2550  172.7450  135.6320 C   0  0  0  0  0  3  0  0  0  0  0  0
  184.7950  172.7220  136.9700 C   0  0  0  0  0  2  0  0  0  0  0  0
  184.2070  171.4090  136.4600 C   0  0  0  0  0  2  0  0  0  0  0  0
  186.5890  175.1690  135.9040 C   0  0  0  0  0  0  0  0  0  0  0  0
  182.7940  171.5560  135.9500 C   0  0  0  0  0  3  0  0  0  0  0  0
  184.4920  173.8360  135.9660 C   0  0  2  0  0  3  0  0  0  0  0  0
  185.1100  177.1840  137.3420 O   0  0  0  0  0  0  0  0  0  0  0  0
  183.1400  175.9380  137.4320 N   0  0  0  0  0  0  0  0  0  0  0  0
  182.4490  174.6850  137.1380 C   0  0  0  0  0  2  0  0  0  0  0  0
  185.2060  175.0700  136.3140 N   0  0  0  0  0  0  0  0  0  0  0  0
  184.5220  176.1060  137.0580 C   0  0  0  0  0  0  0  0  0  0  0  0
  181.6510  178.2020  136.2770 C   0  0  0  0  0  1  0  0  0  0  0  0
  182.5550  176.7450  139.6810 C   0  0  0  0  0  3  0  0  0  0  0  0
  181.9060  177.6450  140.5270 C   0  0  0  0  0  3  0  0  0  0  0  0
  181.7370  177.9660  137.7470 C   0  0  0  0  0  0  0  0  0  0  0  0
  181.0900  178.8640  138.6010 C   0  0  0  0  0  3  0  0  0  0  0  0
  181.1710  178.7070  139.9890 C   0  0  0  0  0  0  0  0  0  0  0  0
  182.4800  176.8910  138.2850 C   0  0  0  0  0  0  0  0  0  0  0  0
  180.4560  179.6630  140.8860 C   0  0  0  0  0  3  0  0  0  0  0  0
  180.4590  180.9350  140.3380 F   0  0  0  0  0  0  0  0  0  0  0  0
  181.0640  179.6900  142.1280 F   0  0  0  0  0  0  0  0  0  0  0  0
  189.9390  177.7900  137.9910 C   0  0  0  0  0  2  0  0  0  0  0  0
  189.6510  177.1760  139.3510 C   0  0  2  0  0  3  0  0  0  0  0  0
  188.2850  177.1840  139.5660 F   0  0  0  0  0  0  0  0  0  0  0  0
  190.2930  177.9170  140.3500 O   0  0  0  0  0  0  0  0  0  0  0  0
  188.9950  177.8450  143.8890 C   0  0  2  0  0  3  0  0  0  0  0  0
  189.9450  177.3050  141.5580 C   0  0  1  0  0  3  0  0  0  0  0  0
  192.0050  178.0630  142.7890 C   0  0  0  0  0  2  0  0  0  0  0  0
  191.2000  176.8440  142.3280 C   0  0  1  0  0  3  0  0  0  0  0  0
  190.7350  176.1740  143.5390 N   0  0  0  0  0  0  0  0  0  0  0  0
  191.8480  175.3730  144.0580 C   0  0  0  0  0  1  0  0  0  0  0  0
  189.1010  178.2810  142.4030 C   0  0  0  0  0  2  0  0  0  0  0  0
  191.4340  178.3920  144.1610 C   0  0  0  0  0  2  0  0  0  0  0  0
  190.3730  177.3130  144.4040 C   0  0  1  0  0  0  0  0  0  0  0  0
  187.8450  175.8460  143.0890 O   0  0  0  0  0  1  0  0  0  0  0  0
  187.8460  176.8270  144.0900 C   0  0  2  0  0  3  0  0  0  0  0  0
  186.5060  177.5320  144.0610 C   0  0  0  0  0  1  0  0  0  0  0  0
  190.2620  176.9520  145.9060 C   0  0  0  0  0  2  0  0  0  0  0  0
  189.3720  177.8840  146.7200 C   0  0  0  0  0  2  0  0  0  0  0  0
  188.9480  177.1840  147.9950 C   0  0  0  0  0  2  0  0  0  0  0  0
  186.9250  178.5110  147.5020 C   0  0  0  0  0  1  0  0  0  0  0  0
  187.7770  177.9230  148.6070 C   0  0  0  0  0  2  0  0  0  0  0  0
  1  8  1  0  0  0  0
  1 35  1  1  0  0  0
  2  5  1  0  0  0  0
  3  1  1  0  0  0  0
  3  7  1  0  0  0  0
  4  3  2  0  0  0  0
  5  7  2  0  0  0  0
  6  4  1  0  0  0  0
  6  2  2  0  0  0  0
  8  9  2  0  0  0  0
 11 10  1  6  0  0  0
 11  8  1  0  0  0  0
 12 17  2  0  0  0  0
 13 14  1  1  0  0  0
 13 19  1  0  0  0  0
 13 22  1  0  0  0  0
 14 18  2  0  0  0  0
 16 15  1  0  0  0  0
 17 23  1  0  0  0  0
 17 11  1  0  0  0  0
 18 16  1  0  0  0  0
 19 23  1  0  0  0  0
 19 15  1  1  0  0  0
 21 31  1  0  0  0  0
 22 21  1  0  0  0  0
 23 24  1  0  0  0  0
 24 20  2  0  0  0  0
 24 21  1  0  0  0  0
 25 28  1  0  0  0  0
 26 27  1  0  0  0  0
 28 31  1  0  0  0  0
 28 29  2  0  0  0  0
 29 30  1  0  0  0  0
 30 27  2  0  0  0  0
 30 32  1  0  0  0  0
 31 26  2  0  0  0  0
 32 34  1  0  0  0  0
 33 32  1  0  0  0  0
 35 36  1  0  0  0  0
 36 37  1  1  0  0  0
 36 38  1  0  0  0  0
 39 49  1  6  0  0  0
 39 47  1  0  0  0  0
 40 38  1  6  0  0  0
 40 42  1  0  0  0  0
 40 45  1  0  0  0  0
 41 46  1  0  0  0  0
 42 41  1  1  0  0  0
 42 43  1  0  0  0  0
 43 44  1  0  0  0  0
 43 47  1  0  0  0  0
 45 39  1  0  0  0  0
 46 47  1  0  0  0  0
 47 51  1  1  0  0  0
 48 49  1  0  0  0  0
 49 50  1  6  0  0  0
 51 52  1  0  0  0  0
 52 53  1  0  0  0  0
 53 55  1  0  0  0  0
 54 55  1  0  0  0  0
M  END
>  <MODEL>
3

>  <REMARK>
 VINA RESULT:      -7.4      1.100      1.366
  Name = 
  15 active torsions:
  status: ('A' for Active; 'I' for Inactive)
    1  A    between atoms: C_1  and  C_21
    2  A    between atoms: C_3  and  C_25
    3  A    between atoms: C_3  and  C_38
    4  A    between atoms: C_6  and  O_22
    5  A    between atoms: C_8  and  O_22
    6  A    between atoms: C_8  and  C_54
    7  A    between atoms: C_10  and  C_48
    8  A    between atoms: C_19  and  C_37
    9  A    between atoms: C_27  and  C_51
   10  A    between atoms: C_29  and  C_38
   11  A    between atoms: C_29  and  C_53
   12  A    between atoms: N_33  and  C_52
   13  A    between atoms: C_35  and  C_37
   14  A    between atoms: C_35  and  C_51
   15  A    between atoms: C_51  and  C_54
                            x       y       z     vdW  Elec       q    Type
                         _______ _______ _______ _____ _____    ______ ____

>  <TORSDO>
F 15

$$$$
=
 OpenBabel10262420313D

 55 60  0  0  1  0  0  0  0  0999 V2000
  187.1580  176.0110  136.8160 C   0  0  1  0  0  3  0  0  0  0  0  0
  184.8240  172.4040  137.1100 C   0  0  0  0  0  3  0  0  0  0  0  0
  186.3300  174.7630  136.9440 C   0  0  0  0  0  0  0  0  0  0  0  0
  186.9380  173.5210  136.7290 C   0  0  0  0  0  3  0  0  0  0  0  0
  184.2080  173.6410  137.3170 C   0  0  0  0  0  3  0  0  0  0  0  0
  186.1880  172.3440  136.8150 C   0  0  0  0  0  3  0  0  0  0  0  0
  184.9580  174.8190  137.2310 C   0  0  0  0  0  3  0  0  0  0  0  0
  186.3170  177.2450  136.6650 C   0  0  0  0  0  0  0  0  0  0  0  0
  185.8700  177.5140  135.5580 O   0  0  0  0  0  0  0  0  0  0  0  0
  186.6050  179.4460  137.5250 O   0  0  0  0  0  1  0  0  0  0  0  0
  186.1010  178.1830  137.8260 C   0  0  1  0  0  3  0  0  0  0  0  0
  183.7850  178.3080  137.3150 O   0  0  0  0  0  0  0  0  0  0  0  0
  182.4280  178.8550  141.2300 C   0  0  2  0  0  3  0  0  0  0  0  0
  180.9610  178.6740  141.5350 C   0  0  0  0  0  3  0  0  0  0  0  0
  182.2620  176.8010  139.7910 C   0  0  0  0  0  2  0  0  0  0  0  0
  180.7380  176.8230  139.8600 C   0  0  0  0  0  2  0  0  0  0  0  0
  184.6550  178.2780  138.2290 C   0  0  0  0  0  0  0  0  0  0  0  0
  180.2110  177.7240  140.9500 C   0  0  0  0  0  3  0  0  0  0  0  0
  182.7930  178.2340  139.8750 C   0  0  2  0  0  3  0  0  0  0  0  0
  186.4060  178.3670  140.5180 O   0  0  0  0  0  0  0  0  0  0  0  0
  184.6730  178.3020  142.0790 N   0  0  0  0  0  0  0  0  0  0  0  0
  183.2400  178.1950  142.3380 C   0  0  0  0  0  2  0  0  0  0  0  0
  184.2360  178.2790  139.6120 N   0  0  0  0  0  0  0  0  0  0  0  0
  185.1640  178.3000  140.7230 C   0  0  0  0  0  0  0  0  0  0  0  0
  184.0070  179.5240  144.6750 C   0  0  0  0  0  1  0  0  0  0  0  0
  186.7860  177.4920  143.0410 C   0  0  0  0  0  3  0  0  0  0  0  0
  187.6660  177.3490  144.1150 C   0  0  0  0  0  3  0  0  0  0  0  0
  185.2570  178.7410  144.4550 C   0  0  0  0  0  0  0  0  0  0  0  0
  186.1440  178.5940  145.5260 C   0  0  0  0  0  3  0  0  0  0  0  0
  187.3470  177.8990  145.3610 C   0  0  0  0  0  0  0  0  0  0  0  0
  185.5740  178.1860  143.1950 C   0  0  0  0  0  0  0  0  0  0  0  0
  188.2720  177.7340  146.5210 C   0  0  0  0  0  3  0  0  0  0  0  0
  189.0840  176.6270  146.3380 F   0  0  0  0  0  0  0  0  0  0  0  0
  187.5450  177.5910  147.6890 F   0  0  0  0  0  0  0  0  0  0  0  0
  188.1850  176.1830  137.9360 C   0  0  0  0  0  2  0  0  0  0  0  0
  189.5030  176.7200  137.4040 C   0  0  2  0  0  3  0  0  0  0  0  0
  189.5220  176.5780  136.0280 F   0  0  0  0  0  0  0  0  0  0  0  0
  190.5660  176.0060  137.9690 O   0  0  0  0  0  0  0  0  0  0  0  0
  192.3660  173.2230  136.1730 C   0  0  2  0  0  3  0  0  0  0  0  0
  191.2470  175.4260  136.8950 C   0  0  1  0  0  3  0  0  0  0  0  0
  193.5270  175.6420  137.9380 C   0  0  0  0  0  2  0  0  0  0  0  0
  192.6570  176.0330  136.7390 C   0  0  1  0  0  3  0  0  0  0  0  0
  193.2640  175.4070  135.5670 N   0  0  0  0  0  0  0  0  0  0  0  0
  194.3930  176.2440  135.1520 C   0  0  0  0  0  1  0  0  0  0  0  0
  191.3180  173.8990  137.0960 C   0  0  0  0  0  2  0  0  0  0  0  0
  194.1770  174.3310  137.5170 C   0  0  0  0  0  2  0  0  0  0  0  0
  193.6660  174.0890  136.0930 C   0  0  1  0  0  0  0  0  0  0  0  0
  190.5090  173.5160  134.6150 O   0  0  0  0  0  1  0  0  0  0  0  0
  191.7640  172.9150  134.7790 C   0  0  2  0  0  3  0  0  0  0  0  0
  191.5990  171.4210  134.5950 C   0  0  0  0  0  1  0  0  0  0  0  0
  194.7220  173.3610  135.2250 C   0  0  0  0  0  2  0  0  0  0  0  0
  196.0780  173.1740  135.8950 C   0  0  0  0  0  2  0  0  0  0  0  0
  196.4600  171.7090  135.8540 C   0  0  0  0  0  2  0  0  0  0  0  0
  194.6950  170.3430  136.9110 C   0  0  0  0  0  1  0  0  0  0  0  0
  196.0200  171.0390  137.1380 C   0  0  0  0  0  2  0  0  0  0  0  0
  1  3  1  0  0  0  0
  1 35  1  1  0  0  0
  2  5  1  0  0  0  0
  3  7  1  0  0  0  0
  4  6  1  0  0  0  0
  4  3  2  0  0  0  0
  6  2  2  0  0  0  0
  7  5  2  0  0  0  0
  8  1  1  0  0  0  0
  8 11  1  0  0  0  0
  9  8  2  0  0  0  0
 11 10  1  6  0  0  0
 11 17  1  0  0  0  0
 12 17  2  0  0  0  0
 13 14  1  1  0  0  0
 13 22  1  0  0  0  0
 15 16  1  0  0  0  0
 16 18  1  0  0  0  0
 17 23  1  0  0  0  0
 18 14  2  0  0  0  0
 19 15  1  1  0  0  0
 19 13  1  0  0  0  0
 20 24  2  0  0  0  0
 21 22  1  0  0  0  0
 21 31  1  0  0  0  0
 23 19  1  0  0  0  0
 23 24  1  0  0  0  0
 24 21  1  0  0  0  0
 26 31  2  0  0  0  0
 26 27  1  0  0  0  0
 27 30  2  0  0  0  0
 28 25  1  0  0  0  0
 28 29  2  0  0  0  0
 30 29  1  0  0  0  0
 30 32  1  0  0  0  0
 31 28  1  0  0  0  0
 32 34  1  0  0  0  0
 33 32  1  0  0  0  0
 36 37  1  6  0  0  0
 36 35  1  0  0  0  0
 36 38  1  0  0  0  0
 39 49  1  6  0  0  0
 39 45  1  0  0  0  0
 40 45  1  0  0  0  0
 40 38  1  1  0  0  0
 42 40  1  0  0  0  0
 42 41  1  1  0  0  0
 43 47  1  0  0  0  0
 43 42  1  0  0  0  0
 44 43  1  0  0  0  0
 46 41  1  0  0  0  0
 47 51  1  6  0  0  0
 47 39  1  0  0  0  0
 47 46  1  0  0  0  0
 48 49  1  0  0  0  0
 49 50  1  1  0  0  0
 51 52  1  0  0  0  0
 53 52  1  0  0  0  0
 53 55  1  0  0  0  0
 54 55  1  0  0  0  0
M  END
>  <MODEL>
4

>  <REMARK>
 VINA RESULT:      -6.6      2.859      7.569
  Name = 
  15 active torsions:
  status: ('A' for Active; 'I' for Inactive)
    1  A    between atoms: C_1  and  C_21
    2  A    between atoms: C_3  and  C_25
    3  A    between atoms: C_3  and  C_38
    4  A    between atoms: C_6  and  O_22
    5  A    between atoms: C_8  and  O_22
    6  A    between atoms: C_8  and  C_54
    7  A    between atoms: C_10  and  C_48
    8  A    between atoms: C_19  and  C_37
    9  A    between atoms: C_27  and  C_51
   10  A    between atoms: C_29  and  C_38
   11  A    between atoms: C_29  and  C_53
   12  A    between atoms: N_33  and  C_52
   13  A    between atoms: C_35  and  C_37
   14  A    between atoms: C_35  and  C_51
   15  A    between atoms: C_51  and  C_54
                            x       y       z     vdW  Elec       q    Type
                         _______ _______ _______ _____ _____    ______ ____

>  <TORSDO>
F 15

$$$$
=
 OpenBabel10262420313D

 55 60  0  0  1  0  0  0  0  0999 V2000
  190.3110  176.5170  137.9400 C   0  0  1  0  0  3  0  0  0  0  0  0
  192.6180  173.9880  135.3270 C   0  0  0  0  0  3  0  0  0  0  0  0
  191.0920  175.6310  137.0100 C   0  0  0  0  0  0  0  0  0  0  0  0
  191.9050  174.6290  137.5510 C   0  0  0  0  0  3  0  0  0  0  0  0
  191.8150  174.9930  134.7810 C   0  0  0  0  0  3  0  0  0  0  0  0
  192.6640  173.8070  136.7120 C   0  0  0  0  0  3  0  0  0  0  0  0
  191.0560  175.8160  135.6190 C   0  0  0  0  0  3  0  0  0  0  0  0
  188.8390  176.4980  137.6510 C   0  0  0  0  0  0  0  0  0  0  0  0
  188.2270  175.4510  137.8070 O   0  0  0  0  0  0  0  0  0  0  0  0
  189.0090  178.4290  136.2690 O   0  0  0  0  0  1  0  0  0  0  0  0
  188.1430  177.7150  137.0950 C   0  0  1  0  0  3  0  0  0  0  0  0
  186.9800  176.9610  135.1660 O   0  0  0  0  0  0  0  0  0  0  0  0
  183.1140  177.5960  136.6200 C   0  0  2  0  0  3  0  0  0  0  0  0
  181.9430  176.9720  135.9010 C   0  0  0  0  0  3  0  0  0  0  0  0
  184.3240  175.4180  136.2960 C   0  0  0  0  0  2  0  0  0  0  0  0
  183.2650  174.9260  135.3120 C   0  0  0  0  0  2  0  0  0  0  0  0
  186.8790  177.3690  136.3560 C   0  0  0  0  0  0  0  0  0  0  0  0
  181.9990  175.7460  135.3520 C   0  0  0  0  0  3  0  0  0  0  0  0
  184.4360  176.9410  136.2000 C   0  0  2  0  0  3  0  0  0  0  0  0
  186.3230  178.3980  138.9920 O   0  0  0  0  0  0  0  0  0  0  0  0
  184.0310  177.9800  138.8730 N   0  0  0  0  0  0  0  0  0  0  0  0
  182.9070  177.4300  138.1200 C   0  0  0  0  0  2  0  0  0  0  0  0
  185.5760  177.4370  136.9790 N   0  0  0  0  0  0  0  0  0  0  0  0
  185.3610  177.9410  138.3180 C   0  0  0  0  0  0  0  0  0  0  0  0
  181.3900  177.6030  140.1220 C   0  0  0  0  0  1  0  0  0  0  0  0
  184.8630  178.9050  140.9950 C   0  0  0  0  0  3  0  0  0  0  0  0
  184.6790  179.2520  142.3340 C   0  0  0  0  0  3  0  0  0  0  0  0
  182.5590  178.1480  140.8690 C   0  0  0  0  0  0  0  0  0  0  0  0
  182.3810  178.4990  142.2120 C   0  0  0  0  0  3  0  0  0  0  0  0
  183.4370  179.0490  142.9460 C   0  0  0  0  0  0  0  0  0  0  0  0
  183.8110  178.3500  140.2470 C   0  0  0  0  0  0  0  0  0  0  0  0
  183.2370  179.3990  144.3840 C   0  0  0  0  0  3  0  0  0  0  0  0
  184.4580  179.5470  145.0200 F   0  0  0  0  0  0  0  0  0  0  0  0
  182.5010  178.4100  145.0120 F   0  0  0  0  0  0  0  0  0  0  0  0
  190.5820  176.2420  139.4200 C   0  0  0  0  0  2  0  0  0  0  0  0
  191.5660  177.2440  140.0000 C   0  0  2  0  0  3  0  0  0  0  0  0
  192.4630  176.5730  140.8110 F   0  0  0  0  0  0  0  0  0  0  0  0
  190.8760  178.2050  140.7490 O   0  0  0  0  0  0  0  0  0  0  0  0
  188.9350  177.8930  143.9660 C   0  0  2  0  0  3  0  0  0  0  0  0
  190.3980  177.5330  141.8780 C   0  0  1  0  0  3  0  0  0  0  0  0
  192.0300  178.5960  143.4720 C   0  0  0  0  0  2  0  0  0  0  0  0
  191.5340  177.2700  142.8890 C   0  0  1  0  0  3  0  0  0  0  0  0
  190.9510  176.5220  143.9990 N   0  0  0  0  0  0  0  0  0  0  0  0
  192.0510  175.9020  144.7430 C   0  0  0  0  0  1  0  0  0  0  0  0
  189.2620  178.3540  142.5200 C   0  0  0  0  0  2  0  0  0  0  0  0
  191.1550  178.8160  144.6980 C   0  0  0  0  0  2  0  0  0  0  0  0
  190.2510  177.5800  144.7520 C   0  0  1  0  0  0  0  0  0  0  0  0
  188.1050  175.9030  142.8210 O   0  0  0  0  0  1  0  0  0  0  0  0
  187.9440  176.7030  143.9600 C   0  0  2  0  0  3  0  0  0  0  0  0
  186.5150  177.2070  143.9820 C   0  0  0  0  0  1  0  0  0  0  0  0
  189.9040  177.1910  146.2100 C   0  0  0  0  0  2  0  0  0  0  0  0
  189.0480  178.2080  146.9540 C   0  0  0  0  0  2  0  0  0  0  0  0
  189.0630  177.8890  148.4350 C   0  0  0  0  0  2  0  0  0  0  0  0
  186.6950  178.2750  147.8490 C   0  0  0  0  0  1  0  0  0  0  0  0
  187.6430  177.8830  148.9610 C   0  0  0  0  0  2  0  0  0  0  0  0
  1 35  1  1  0  0  0
  2  6  1  0  0  0  0
  3  4  1  0  0  0  0
  3  1  1  0  0  0  0
  5  2  2  0  0  0  0
  5  7  1  0  0  0  0
  6  4  2  0  0  0  0
  7  3  2  0  0  0  0
  8  9  2  0  0  0  0
  8  1  1  0  0  0  0
 11 10  1  6  0  0  0
 11  8  1  0  0  0  0
 12 17  2  0  0  0  0
 13 14  1  6  0  0  0
 13 22  1  0  0  0  0
 16 18  1  0  0  0  0
 16 15  1  0  0  0  0
 17 23  1  0  0  0  0
 17 11  1  0  0  0  0
 18 14  2  0  0  0  0
 19 15  1  1  0  0  0
 19 13  1  0  0  0  0
 19 23  1  0  0  0  0
 21 31  1  0  0  0  0
 22 21  1  0  0  0  0
 23 24  1  0  0  0  0
 24 21  1  0  0  0  0
 24 20  2  0  0  0  0
 25 28  1  0  0  0  0
 26 27  1  0  0  0  0
 27 30  2  0  0  0  0
 28 29  2  0  0  0  0
 29 30  1  0  0  0  0
 30 32  1  0  0  0  0
 31 28  1  0  0  0  0
 31 26  2  0  0  0  0
 32 34  1  0  0  0  0
 32 33  1  0  0  0  0
 35 36  1  0  0  0  0
 36 38  1  0  0  0  0
 36 37  1  1  0  0  0
 39 49  1  6  0  0  0
 39 47  1  0  0  0  0
 40 38  1  6  0  0  0
 40 45  1  0  0  0  0
 40 42  1  0  0  0  0
 41 46  1  0  0  0  0
 42 41  1  1  0  0  0
 42 43  1  0  0  0  0
 43 44  1  0  0  0  0
 43 47  1  0  0  0  0
 45 39  1  0  0  0  0
 46 47  1  0  0  0  0
 47 51  1  1  0  0  0
 48 49  1  0  0  0  0
 49 50  1  6  0  0  0
 51 52  1  0  0  0  0
 52 53  1  0  0  0  0
 53 55  1  0  0  0  0
 54 55  1  0  0  0  0
M  END
>  <MODEL>
5

>  <REMARK>
 VINA RESULT:      -6.4      1.597      2.112
  Name = 
  15 active torsions:
  status: ('A' for Active; 'I' for Inactive)
    1  A    between atoms: C_1  and  C_21
    2  A    between atoms: C_3  and  C_25
    3  A    between atoms: C_3  and  C_38
    4  A    between atoms: C_6  and  O_22
    5  A    between atoms: C_8  and  O_22
    6  A    between atoms: C_8  and  C_54
    7  A    between atoms: C_10  and  C_48
    8  A    between atoms: C_19  and  C_37
    9  A    between atoms: C_27  and  C_51
   10  A    between atoms: C_29  and  C_38
   11  A    between atoms: C_29  and  C_53
   12  A    between atoms: N_33  and  C_52
   13  A    between atoms: C_35  and  C_37
   14  A    between atoms: C_35  and  C_51
   15  A    between atoms: C_51  and  C_54
                            x       y       z     vdW  Elec       q    Type
                         _______ _______ _______ _____ _____    ______ ____

>  <TORSDO>
F 15

$$$$
=
 OpenBabel10262420313D

 55 60  0  0  1  0  0  0  0  0999 V2000
  185.7840  178.1400  142.5000 C   0  0  1  0  0  3  0  0  0  0  0  0
  186.5620  178.0650  146.7360 C   0  0  0  0  0  3  0  0  0  0  0  0
  186.0570  178.0840  143.9780 C   0  0  0  0  0  0  0  0  0  0  0  0
  185.2960  178.8810  144.8400 C   0  0  0  0  0  3  0  0  0  0  0  0
  187.3320  177.2730  145.8800 C   0  0  0  0  0  3  0  0  0  0  0  0
  185.5450  178.8700  146.2150 C   0  0  0  0  0  3  0  0  0  0  0  0
  187.0830  177.2840  144.5030 C   0  0  0  0  0  3  0  0  0  0  0  0
  184.3590  178.4980  142.1920 C   0  0  0  0  0  0  0  0  0  0  0  0
  183.5130  178.3190  143.0560 O   0  0  0  0  0  0  0  0  0  0  0  0
  185.0970  179.2820  140.0680 O   0  0  0  0  0  1  0  0  0  0  0  0
  183.9620  178.9820  140.8200 C   0  0  1  0  0  3  0  0  0  0  0  0
  183.3380  176.7660  140.2390 O   0  0  0  0  0  0  0  0  0  0  0  0
  180.4010  177.7780  137.4440 C   0  0  2  0  0  3  0  0  0  0  0  0
  179.4290  176.7220  136.9790 C   0  0  0  0  0  3  0  0  0  0  0  0
  180.1010  176.8650  139.7670 C   0  0  0  0  0  2  0  0  0  0  0  0
  179.3800  175.6290  139.2340 C   0  0  0  0  0  2  0  0  0  0  0  0
  183.0950  177.9950  140.0890 C   0  0  0  0  0  0  0  0  0  0  0  0
  178.9320  175.7810  137.8010 C   0  0  0  0  0  3  0  0  0  0  0  0
  181.1190  177.3440  138.7290 C   0  0  2  0  0  3  0  0  0  0  0  0
  182.3870  180.7150  139.4440 O   0  0  0  0  0  0  0  0  0  0  0  0
  180.5140  180.1250  138.1850 N   0  0  0  0  0  0  0  0  0  0  0  0
  179.6320  179.0700  137.6920 C   0  0  0  0  0  2  0  0  0  0  0  0
  181.9720  178.4050  139.2760 N   0  0  0  0  0  0  0  0  0  0  0  0
  181.6510  179.7910  139.0070 C   0  0  0  0  0  0  0  0  0  0  0  0
  178.9370  181.4820  140.2710 C   0  0  0  0  0  1  0  0  0  0  0  0
  180.4390  182.1820  136.8390 C   0  0  0  0  0  3  0  0  0  0  0  0
  180.0640  183.5140  136.6610 C   0  0  0  0  0  3  0  0  0  0  0  0
  179.3670  182.1670  139.0180 C   0  0  0  0  0  0  0  0  0  0  0  0
  178.9940  183.5020  138.8320 C   0  0  0  0  0  3  0  0  0  0  0  0
  179.3410  184.1780  137.6580 C   0  0  0  0  0  0  0  0  0  0  0  0
  180.0970  181.4920  138.0150 C   0  0  0  0  0  0  0  0  0  0  0  0
  178.9540  185.6100  137.4850 C   0  0  0  0  0  3  0  0  0  0  0  0
  179.6450  186.1730  136.4260 F   0  0  0  0  0  0  0  0  0  0  0  0
  179.2220  186.3150  138.6440 F   0  0  0  0  0  0  0  0  0  0  0  0
  186.7530  179.0410  141.7320 C   0  0  0  0  0  2  0  0  0  0  0  0
  187.8810  178.2370  141.1080 C   0  0  2  0  0  3  0  0  0  0  0  0
  189.0020  178.3400  141.9110 F   0  0  0  0  0  0  0  0  0  0  0  0
  188.1650  178.7350  139.8310 O   0  0  0  0  0  0  0  0  0  0  0  0
  190.1500  176.9020  137.2010 C   0  0  2  0  0  3  0  0  0  0  0  0
  188.5230  177.6240  139.0620 C   0  0  1  0  0  3  0  0  0  0  0  0
  187.3090  178.3880  136.9940 C   0  0  0  0  0  2  0  0  0  0  0  0
  187.4190  177.2760  138.0420 C   0  0  1  0  0  3  0  0  0  0  0  0
  187.8580  176.0790  137.3300 N   0  0  0  0  0  0  0  0  0  0  0  0
  186.6820  175.4930  136.6800 C   0  0  0  0  0  1  0  0  0  0  0  0
  189.8660  177.9000  138.3550 C   0  0  0  0  0  2  0  0  0  0  0  0
  188.2820  177.9690  135.9000 C   0  0  0  0  0  2  0  0  0  0  0  0
  188.8460  176.6280  136.3810 C   0  0  1  0  0  0  0  0  0  0  0  0
  190.9120  175.6180  139.1330 O   0  0  0  0  0  1  0  0  0  0  0  0
  190.8060  175.6050  137.7350 C   0  0  2  0  0  3  0  0  0  0  0  0
  192.1970  175.4430  137.1590 C   0  0  0  0  0  1  0  0  0  0  0  0
  189.1680  175.6870  135.1940 C   0  0  0  0  0  2  0  0  0  0  0  0
  188.3100  174.4290  135.1280 C   0  0  0  0  0  2  0  0  0  0  0  0
  189.1660  173.2200  135.4430 C   0  0  0  0  0  2  0  0  0  0  0  0
  187.5200  171.3810  135.3720 C   0  0  0  0  0  1  0  0  0  0  0  0
  188.3680  172.2450  136.2810 C   0  0  0  0  0  2  0  0  0  0  0  0
  1 35  1  6  0  0  0
  1  3  1  0  0  0  0
  3  7  2  0  0  0  0
  3  4  1  0  0  0  0
  4  6  2  0  0  0  0
  5  2  2  0  0  0  0
  6  2  1  0  0  0  0
  7  5  1  0  0  0  0
  8  1  1  0  0  0  0
  8  9  2  0  0  0  0
 11 10  1  6  0  0  0
 11  8  1  0  0  0  0
 13 14  1  1  0  0  0
 13 22  1  0  0  0  0
 13 19  1  0  0  0  0
 14 18  2  0  0  0  0
 16 15  1  0  0  0  0
 17 12  2  0  0  0  0
 17 11  1  0  0  0  0
 18 16  1  0  0  0  0
 19 23  1  0  0  0  0
 19 15  1  1  0  0  0
 21 24  1  0  0  0  0
 22 21  1  0  0  0  0
 23 17  1  0  0  0  0
 24 23  1  0  0  0  0
 24 20  2  0  0  0  0
 26 31  1  0  0  0  0
 27 26  2  0  0  0  0
 27 30  1  0  0  0  0
 28 25  1  0  0  0  0
 29 28  1  0  0  0  0
 30 29  2  0  0  0  0
 31 21  1  0  0  0  0
 31 28  2  0  0  0  0
 32 30  1  0  0  0  0
 32 34  1  0  0  0  0
 33 32  1  0  0  0  0
 36 35  1  0  0  0  0
 36 37  1  1  0  0  0
 38 36  1  0  0  0  0
 39 49  1  1  0  0  0
 39 45  1  0  0  0  0
 40 38  1  6  0  0  0
 42 41  1  6  0  0  0
 42 40  1  0  0  0  0
 43 42  1  0  0  0  0
 44 43  1  0  0  0  0
 45 40  1  0  0  0  0
 46 47  1  0  0  0  0
 46 41  1  0  0  0  0
 47 51  1  6  0  0  0
 47 39  1  0  0  0  0
 47 43  1  0  0  0  0
 49 50  1  6  0  0  0
 49 48  1  0  0  0  0
 52 51  1  0  0  0  0
 52 53  1  0  0  0  0
 53 55  1  0  0  0  0
 54 55  1  0  0  0  0
M  END
>  <MODEL>
6

>  <REMARK>
 VINA RESULT:      -6.1      3.252      7.665
  Name = 
  15 active torsions:
  status: ('A' for Active; 'I' for Inactive)
    1  A    between atoms: C_1  and  C_21
    2  A    between atoms: C_3  and  C_25
    3  A    between atoms: C_3  and  C_38
    4  A    between atoms: C_6  and  O_22
    5  A    between atoms: C_8  and  O_22
    6  A    between atoms: C_8  and  C_54
    7  A    between atoms: C_10  and  C_48
    8  A    between atoms: C_19  and  C_37
    9  A    between atoms: C_27  and  C_51
   10  A    between atoms: C_29  and  C_38
   11  A    between atoms: C_29  and  C_53
   12  A    between atoms: N_33  and  C_52
   13  A    between atoms: C_35  and  C_37
   14  A    between atoms: C_35  and  C_51
   15  A    between atoms: C_51  and  C_54
                            x       y       z     vdW  Elec       q    Type
                         _______ _______ _______ _____ _____    ______ ____

>  <TORSDO>
F 15

$$$$
=
 OpenBabel10262420313D

 55 60  0  0  1  0  0  0  0  0999 V2000
  190.1830  176.6490  136.9850 C   0  0  1  0  0  3  0  0  0  0  0  0
  192.8800  173.4940  135.8340 C   0  0  0  0  0  3  0  0  0  0  0  0
  191.1120  175.5300  136.6040 C   0  0  0  0  0  0  0  0  0  0  0  0
  192.4650  175.8150  136.3870 C   0  0  0  0  0  3  0  0  0  0  0  0
  191.5290  173.2050  136.0400 C   0  0  0  0  0  3  0  0  0  0  0  0
  193.3480  174.8000  136.0060 C   0  0  0  0  0  3  0  0  0  0  0  0
  190.6450  174.2190  136.4210 C   0  0  0  0  0  3  0  0  0  0  0  0
  189.2580  177.0340  135.8670 C   0  0  0  0  0  0  0  0  0  0  0  0
  189.7390  177.2780  134.7690 O   0  0  0  0  0  0  0  0  0  0  0  0
  187.2920  178.2820  135.3710 O   0  0  0  0  0  1  0  0  0  0  0  0
  187.7790  177.2050  136.1090 C   0  0  1  0  0  3  0  0  0  0  0  0
  187.5260  175.0970  135.0450 O   0  0  0  0  0  0  0  0  0  0  0  0
  183.5620  174.4230  136.1840 C   0  0  2  0  0  3  0  0  0  0  0  0
  182.9780  173.0390  136.0400 C   0  0  0  0  0  3  0  0  0  0  0  0
  185.6480  173.3240  137.0550 C   0  0  0  0  0  2  0  0  0  0  0  0
  185.1610  171.9470  136.6100 C   0  0  0  0  0  2  0  0  0  0  0  0
  186.9960  175.9600  135.7980 C   0  0  0  0  0  0  0  0  0  0  0  0
  183.6880  171.9240  136.2790 C   0  0  0  0  0  3  0  0  0  0  0  0
  185.0940  174.3890  136.1060 C   0  0  2  0  0  3  0  0  0  0  0  0
  185.4780  177.7940  137.4240 O   0  0  0  0  0  0  0  0  0  0  0  0
  183.6940  176.3240  137.7450 N   0  0  0  0  0  0  0  0  0  0  0  0
  183.1250  174.9970  137.5260 C   0  0  0  0  0  2  0  0  0  0  0  0
  185.6960  175.7000  136.3740 N   0  0  0  0  0  0  0  0  0  0  0  0
  184.9900  176.6530  137.2050 C   0  0  0  0  0  0  0  0  0  0  0  0
  181.7810  178.3580  136.8040 C   0  0  0  0  0  1  0  0  0  0  0  0
  183.3170  177.0860  140.0520 C   0  0  0  0  0  3  0  0  0  0  0  0
  182.6750  177.9090  140.9800 C   0  0  0  0  0  3  0  0  0  0  0  0
  182.0940  178.1590  138.2490 C   0  0  0  0  0  0  0  0  0  0  0  0
  181.4560  178.9800  139.1840 C   0  0  0  0  0  3  0  0  0  0  0  0
  181.7420  178.8580  140.5480 C   0  0  0  0  0  0  0  0  0  0  0  0
  183.0360  177.1990  138.6800 C   0  0  0  0  0  0  0  0  0  0  0  0
  181.0360  179.7280  141.5340 C   0  0  0  0  0  3  0  0  0  0  0  0
  180.1110  178.9910  142.2540 F   0  0  0  0  0  0  0  0  0  0  0  0
  180.3970  180.7640  140.8770 F   0  0  0  0  0  0  0  0  0  0  0  0
  189.4030  176.3850  138.2740 C   0  0  0  0  0  2  0  0  0  0  0  0
  190.0860  177.0170  139.4750 C   0  0  2  0  0  3  0  0  0  0  0  0
  191.3470  177.4440  139.1010 F   0  0  0  0  0  0  0  0  0  0  0  0
  190.1910  176.0770  140.5070 O   0  0  0  0  0  0  0  0  0  0  0  0
  189.9930  176.5770  144.2390 C   0  0  2  0  0  3  0  0  0  0  0  0
  190.2620  176.8190  141.6900 C   0  0  1  0  0  3  0  0  0  0  0  0
  187.7700  177.0320  141.9660 C   0  0  0  0  0  2  0  0  0  0  0  0
  189.0810  177.8060  141.7970 C   0  0  1  0  0  3  0  0  0  0  0  0
  189.2720  178.5670  143.0290 N   0  0  0  0  0  0  0  0  0  0  0  0
  188.4330  179.7660  142.9440 C   0  0  0  0  0  1  0  0  0  0  0  0
  190.2970  175.8600  142.8970 C   0  0  0  0  0  2  0  0  0  0  0  0
  187.6170  176.8750  143.4720 C   0  0  0  0  0  2  0  0  0  0  0  0
  188.8290  177.6070  144.0580 C   0  0  1  0  0  0  0  0  0  0  0  0
  192.3030  177.2800  143.8830 O   0  0  0  0  0  1  0  0  0  0  0  0
  191.2730  177.2160  144.8310 C   0  0  2  0  0  3  0  0  0  0  0  0
  191.7680  176.4060  146.0110 C   0  0  0  0  0  1  0  0  0  0  0  0
  188.4960  178.2580  145.4230 C   0  0  0  0  0  2  0  0  0  0  0  0
  187.4280  177.5320  146.2320 C   0  0  0  0  0  2  0  0  0  0  0  0
  186.4220  178.5370  146.7520 C   0  0  0  0  0  2  0  0  0  0  0  0
  185.0030  179.0380  144.7940 C   0  0  0  0  0  1  0  0  0  0  0  0
  185.0780  178.2820  146.1030 C   0  0  0  0  0  2  0  0  0  0  0  0
  1 35  1  1  0  0  0
  2  6  2  0  0  0  0
  2  5  1  0  0  0  0
  3  1  1  0  0  0  0
  4  3  2  0  0  0  0
  5  7  2  0  0  0  0
  6  4  1  0  0  0  0
  7  3  1  0  0  0  0
  8 11  1  0  0  0  0
  8  1  1  0  0  0  0
  9  8  2  0  0  0  0
 11 10  1  6  0  0  0
 12 17  2  0  0  0  0
 13 14  1  1  0  0  0
 13 22  1  0  0  0  0
 14 18  2  0  0  0  0
 16 15  1  0  0  0  0
 17 11  1  0  0  0  0
 17 23  1  0  0  0  0
 18 16  1  0  0  0  0
 19 13  1  0  0  0  0
 19 23  1  0  0  0  0
 19 15  1  1  0  0  0
 21 31  1  0  0  0  0
 22 21  1  0  0  0  0
 23 24  1  0  0  0  0
 24 20  2  0  0  0  0
 24 21  1  0  0  0  0
 25 28  1  0  0  0  0
 26 27  1  0  0  0  0
 28 31  1  0  0  0  0
 28 29  2  0  0  0  0
 29 30  1  0  0  0  0
 30 27  2  0  0  0  0
 30 32  1  0  0  0  0
 31 26  2  0  0  0  0
 32 33  1  0  0  0  0
 34 32  1  0  0  0  0
 35 36  1  0  0  0  0
 36 37  1  6  0  0  0
 36 38  1  0  0  0  0
 39 49  1  6  0  0  0
 40 38  1  6  0  0  0
 40 42  1  0  0  0  0
 40 45  1  0  0  0  0
 41 46  1  0  0  0  0
 42 41  1  1  0  0  0
 42 43  1  0  0  0  0
 43 47  1  0  0  0  0
 44 43  1  0  0  0  0
 45 39  1  0  0  0  0
 46 47  1  0  0  0  0
 47 39  1  0  0  0  0
 47 51  1  1  0  0  0
 48 49  1  0  0  0  0
 49 50  1  1  0  0  0
 51 52  1  0  0  0  0
 52 53  1  0  0  0  0
 54 55  1  0  0  0  0
 55 53  1  0  0  0  0
M  END
>  <MODEL>
7

>  <REMARK>
 VINA RESULT:      -6.0      1.330      2.242
  Name = 
  15 active torsions:
  status: ('A' for Active; 'I' for Inactive)
    1  A    between atoms: C_1  and  C_21
    2  A    between atoms: C_3  and  C_25
    3  A    between atoms: C_3  and  C_38
    4  A    between atoms: C_6  and  O_22
    5  A    between atoms: C_8  and  O_22
    6  A    between atoms: C_8  and  C_54
    7  A    between atoms: C_10  and  C_48
    8  A    between atoms: C_19  and  C_37
    9  A    between atoms: C_27  and  C_51
   10  A    between atoms: C_29  and  C_38
   11  A    between atoms: C_29  and  C_53
   12  A    between atoms: N_33  and  C_52
   13  A    between atoms: C_35  and  C_37
   14  A    between atoms: C_35  and  C_51
   15  A    between atoms: C_51  and  C_54
                            x       y       z     vdW  Elec       q    Type
                         _______ _______ _______ _____ _____    ______ ____

>  <TORSDO>
F 15

$$$$
=
 OpenBabel10262420313D

 55 60  0  0  1  0  0  0  0  0999 V2000
  186.4090  175.7540  136.5740 C   0  0  1  0  0  3  0  0  0  0  0  0
  186.7390  171.4820  136.1290 C   0  0  0  0  0  3  0  0  0  0  0  0
  186.4960  174.2600  136.4290 C   0  0  0  0  0  0  0  0  0  0  0  0
  187.6360  173.5970  136.8960 C   0  0  0  0  0  3  0  0  0  0  0  0
  185.6010  172.1390  135.6520 C   0  0  0  0  0  3  0  0  0  0  0  0
  187.7570  172.2120  136.7500 C   0  0  0  0  0  3  0  0  0  0  0  0
  185.4800  173.5250  135.7970 C   0  0  0  0  0  3  0  0  0  0  0  0
  187.4090  176.4740  135.7190 C   0  0  0  0  0  0  0  0  0  0  0  0
  187.9260  175.8690  134.7900 O   0  0  0  0  0  0  0  0  0  0  0  0
  186.8290  178.7830  135.7080 O   0  0  0  0  0  1  0  0  0  0  0  0
  187.8370  177.8830  136.0470 C   0  0  1  0  0  3  0  0  0  0  0  0
  187.3900  178.5860  138.2700 O   0  0  0  0  0  0  0  0  0  0  0  0
  191.1640  177.7280  139.8470 C   0  0  2  0  0  3  0  0  0  0  0  0
  191.3460  177.6860  141.3440 C   0  0  0  0  0  3  0  0  0  0  0  0
  189.0060  176.4860  140.1920 C   0  0  0  0  0  2  0  0  0  0  0  0
  189.0560  176.7310  141.6980 C   0  0  0  0  0  2  0  0  0  0  0  0
  188.2230  178.0470  137.4910 C   0  0  0  0  0  0  0  0  0  0  0  0
  190.4120  177.1910  142.1750 C   0  0  0  0  0  3  0  0  0  0  0  0
  189.6790  177.6540  139.4670 C   0  0  2  0  0  3  0  0  0  0  0  0
  190.3720  176.9140  135.9380 O   0  0  0  0  0  0  0  0  0  0  0  0
  191.7420  176.5140  137.7830 N   0  0  0  0  0  0  0  0  0  0  0  0
  191.9150  176.5530  139.2320 C   0  0  0  0  0  2  0  0  0  0  0  0
  189.4790  177.5600  138.0160 N   0  0  0  0  0  0  0  0  0  0  0  0
  190.5130  176.9770  137.1880 C   0  0  0  0  0  0  0  0  0  0  0  0
  191.2880  173.7210  136.9640 C   0  0  0  0  0  1  0  0  0  0  0  0
  193.9170  176.4610  136.6350 C   0  0  0  0  0  3  0  0  0  0  0  0
  194.8760  175.8060  135.8600 C   0  0  0  0  0  3  0  0  0  0  0  0
  192.5110  174.4810  136.5750 C   0  0  0  0  0  0  0  0  0  0  0  0
  193.4760  173.8310  135.8000 C   0  0  0  0  0  3  0  0  0  0  0  0
  194.6570  174.4890  135.4400 C   0  0  0  0  0  0  0  0  0  0  0  0
  192.7260  175.8110  137.0020 C   0  0  0  0  0  0  0  0  0  0  0  0
  195.6680  173.7880  134.5940 C   0  0  0  0  0  3  0  0  0  0  0  0
  195.6090  172.4200  134.8040 F   0  0  0  0  0  0  0  0  0  0  0  0
  196.9360  174.2510  134.8910 F   0  0  0  0  0  0  0  0  0  0  0  0
  185.0010  176.3100  136.3570 C   0  0  0  0  0  2  0  0  0  0  0  0
  184.1460  176.1630  137.6050 C   0  0  2  0  0  3  0  0  0  0  0  0
  183.8220  174.8290  137.7720 F   0  0  0  0  0  0  0  0  0  0  0  0
  182.9770  176.9210  137.4680 O   0  0  0  0  0  0  0  0  0  0  0  0
  183.4250  178.1200  141.0140 C   0  0  2  0  0  3  0  0  0  0  0  0
  183.0300  177.8840  138.4810 C   0  0  1  0  0  3  0  0  0  0  0  0
  180.7520  177.3520  139.4080 C   0  0  0  0  0  2  0  0  0  0  0  0
  181.6260  178.4450  138.7870 C   0  0  1  0  0  3  0  0  0  0  0  0
  181.7920  179.4730  139.8110 N   0  0  0  0  0  0  0  0  0  0  0  0
  180.5800  180.2970  139.8120 C   0  0  0  0  0  1  0  0  0  0  0  0
  183.6690  177.2660  139.7420 C   0  0  0  0  0  2  0  0  0  0  0  0
  180.9960  177.4810  140.9050 C   0  0  0  0  0  2  0  0  0  0  0  0
  181.9590  178.6660  141.0350 C   0  0  1  0  0  0  0  0  0  0  0  0
  184.7600  179.8370  139.9040 O   0  0  0  0  0  1  0  0  0  0  0  0
  184.4840  179.2420  141.1430 C   0  0  2  0  0  3  0  0  0  0  0  0
  185.7800  178.6830  141.6950 C   0  0  0  0  0  1  0  0  0  0  0  0
  181.7180  179.4550  142.3460 C   0  0  0  0  0  2  0  0  0  0  0  0
  182.1370  178.7240  143.6160 C   0  0  0  0  0  2  0  0  0  0  0  0
  183.2450  179.4980  144.2980 C   0  0  0  0  0  2  0  0  0  0  0  0
  185.3660  178.9550  145.4410 C   0  0  0  0  0  1  0  0  0  0  0  0
  183.8910  178.6250  145.3530 C   0  0  0  0  0  2  0  0  0  0  0  0
  1 35  1  6  0  0  0
  2  6  1  0  0  0  0
  3  1  1  0  0  0  0
  3  4  1  0  0  0  0
  5  7  1  0  0  0  0
  5  2  2  0  0  0  0
  6  4  2  0  0  0  0
  7  3  2  0  0  0  0
  8 11  1  0  0  0  0
  8  1  1  0  0  0  0
  9  8  2  0  0  0  0
 11 10  1  1  0  0  0
 11 17  1  0  0  0  0
 13 22  1  6  0  0  0
 13 14  1  0  0  0  0
 14 18  2  0  0  0  0
 15 16  1  0  0  0  0
 16 18  1  0  0  0  0
 17 23  1  0  0  0  0
 17 12  2  0  0  0  0
 19 13  1  0  0  0  0
 19 15  1  1  0  0  0
 20 24  2  0  0  0  0
 21 22  1  0  0  0  0
 23 19  1  0  0  0  0
 24 21  1  0  0  0  0
 24 23  1  0  0  0  0
 26 31  1  0  0  0  0
 27 26  2  0  0  0  0
 28 25  1  0  0  0  0
 28 31  2  0  0  0  0
 29 28  1  0  0  0  0
 30 29  2  0  0  0  0
 30 27  1  0  0  0  0
 31 21  1  0  0  0  0
 32 33  1  0  0  0  0
 32 34  1  0  0  0  0
 32 30  1  0  0  0  0
 35 36  1  0  0  0  0
 36 37  1  6  0  0  0
 38 36  1  0  0  0  0
 39 47  1  0  0  0  0
 39 49  1  6  0  0  0
 40 38  1  6  0  0  0
 40 42  1  0  0  0  0
 40 45  1  0  0  0  0
 41 46  1  0  0  0  0
 42 41  1  1  0  0  0
 42 43  1  0  0  0  0
 43 44  1  0  0  0  0
 43 47  1  0  0  0  0
 45 39  1  0  0  0  0
 46 47  1  0  0  0  0
 47 51  1  1  0  0  0
 48 49  1  0  0  0  0
 49 50  1  6  0  0  0
 51 52  1  0  0  0  0
 52 53  1  0  0  0  0
 53 55  1  0  0  0  0
 55 54  1  0  0  0  0
M  END
>  <MODEL>
8

>  <REMARK>
 VINA RESULT:      -6.0      2.976      8.866
  Name = 
  15 active torsions:
  status: ('A' for Active; 'I' for Inactive)
    1  A    between atoms: C_1  and  C_21
    2  A    between atoms: C_3  and  C_25
    3  A    between atoms: C_3  and  C_38
    4  A    between atoms: C_6  and  O_22
    5  A    between atoms: C_8  and  O_22
    6  A    between atoms: C_8  and  C_54
    7  A    between atoms: C_10  and  C_48
    8  A    between atoms: C_19  and  C_37
    9  A    between atoms: C_27  and  C_51
   10  A    between atoms: C_29  and  C_38
   11  A    between atoms: C_29  and  C_53
   12  A    between atoms: N_33  and  C_52
   13  A    between atoms: C_35  and  C_37
   14  A    between atoms: C_35  and  C_51
   15  A    between atoms: C_51  and  C_54
                            x       y       z     vdW  Elec       q    Type
                         _______ _______ _______ _____ _____    ______ ____

>  <TORSDO>
F 15

$$$$
=
 OpenBabel10262420313D

 55 60  0  0  1  0  0  0  0  0999 V2000
  188.8010  177.4950  140.5280 C   0  0  1  0  0  3  0  0  0  0  0  0
  189.4290  177.6170  144.7880 C   0  0  0  0  0  3  0  0  0  0  0  0
  188.9910  177.5390  142.0190 C   0  0  0  0  0  0  0  0  0  0  0  0
  189.9680  178.3850  142.5550 C   0  0  0  0  0  3  0  0  0  0  0  0
  188.4580  176.7630  144.2580 C   0  0  0  0  0  3  0  0  0  0  0  0
  190.1850  178.4270  143.9350 C   0  0  0  0  0  3  0  0  0  0  0  0
  188.2400  176.7200  142.8770 C   0  0  0  0  0  3  0  0  0  0  0  0
  187.6190  178.3000  140.0750 C   0  0  0  0  0  0  0  0  0  0  0  0
  186.7180  178.5140  140.8740 O   0  0  0  0  0  0  0  0  0  0  0  0
  188.7300  179.2040  138.1730 O   0  0  0  0  0  1  0  0  0  0  0  0
  187.4960  178.7580  138.6430 C   0  0  1  0  0  3  0  0  0  0  0  0
  187.7630  176.8910  137.2000 O   0  0  0  0  0  0  0  0  0  0  0  0
  183.7610  176.5680  136.0380 C   0  0  2  0  0  3  0  0  0  0  0  0
  183.2930  175.3100  135.3480 C   0  0  0  0  0  3  0  0  0  0  0  0
  185.0610  175.0860  137.5980 C   0  0  0  0  0  2  0  0  0  0  0  0
  184.8310  173.8700  136.7040 C   0  0  0  0  0  2  0  0  0  0  0  0
  186.9470  177.6880  137.7400 C   0  0  0  0  0  0  0  0  0  0  0  0
  183.7420  174.0890  135.6820 C   0  0  0  0  0  3  0  0  0  0  0  0
  185.1120  176.3480  136.7330 C   0  0  2  0  0  3  0  0  0  0  0  0
  184.8660  179.4300  138.7140 O   0  0  0  0  0  0  0  0  0  0  0  0
  183.1280  178.1710  137.7980 N   0  0  0  0  0  0  0  0  0  0  0  0
  182.7120  176.9790  137.0640 C   0  0  0  0  0  2  0  0  0  0  0  0
  185.5290  177.5130  137.5220 N   0  0  0  0  0  0  0  0  0  0  0  0
  184.5260  178.4090  138.0580 C   0  0  0  0  0  0  0  0  0  0  0  0
  182.2740  177.5970  140.5580 C   0  0  0  0  0  1  0  0  0  0  0  0
  181.5120  180.0230  137.7200 C   0  0  0  0  0  3  0  0  0  0  0  0
  180.5370  180.8230  138.3190 C   0  0  0  0  0  3  0  0  0  0  0  0
  181.7100  178.7250  139.7630 C   0  0  0  0  0  0  0  0  0  0  0  0
  180.7320  179.5300  140.3570 C   0  0  0  0  0  3  0  0  0  0  0  0
  180.1450  180.5780  139.6400 C   0  0  0  0  0  0  0  0  0  0  0  0
  182.1090  178.9680  138.4300 C   0  0  0  0  0  0  0  0  0  0  0  0
  179.1180  181.4410  140.2960 C   0  0  0  0  0  3  0  0  0  0  0  0
  179.2100  182.7410  139.8300 F   0  0  0  0  0  0  0  0  0  0  0  0
  179.2940  181.4240  141.6680 F   0  0  0  0  0  0  0  0  0  0  0  0
  190.0560  177.8750  139.7400 C   0  0  0  0  0  2  0  0  0  0  0  0
  190.8910  176.6520  139.4000 C   0  0  2  0  0  3  0  0  0  0  0  0
  191.2310  176.0020  140.5720 F   0  0  0  0  0  0  0  0  0  0  0  0
  192.0500  177.0450  138.7210 O   0  0  0  0  0  0  0  0  0  0  0  0
  191.7760  173.8380  136.7580 C   0  0  2  0  0  3  0  0  0  0  0  0
  192.0940  176.2630  137.5630 C   0  0  1  0  0  3  0  0  0  0  0  0
  194.3450  175.2550  138.0640 C   0  0  0  0  0  2  0  0  0  0  0  0
  193.5430  176.0930  137.0630 C   0  0  1  0  0  3  0  0  0  0  0  0
  193.4810  175.3130  135.8300 N   0  0  0  0  0  0  0  0  0  0  0  0
  194.7520  175.4970  135.1240 C   0  0  0  0  0  1  0  0  0  0  0  0
  191.4380  174.8950  137.8430 C   0  0  0  0  0  2  0  0  0  0  0  0
  194.1450  173.8200  137.5980 C   0  0  0  0  0  2  0  0  0  0  0  0
  193.2790  173.9430  136.3390 C   0  0  1  0  0  0  0  0  0  0  0  0
  189.7420  174.8150  135.8260 O   0  0  0  0  0  1  0  0  0  0  0  0
  190.8090  173.9480  135.5540 C   0  0  2  0  0  3  0  0  0  0  0  0
  190.2350  172.5880  135.2120 C   0  0  0  0  0  1  0  0  0  0  0  0
  193.6100  172.8350  135.3100 C   0  0  0  0  0  2  0  0  0  0  0  0
  194.8610  172.0250  135.6250 C   0  0  0  0  0  2  0  0  0  0  0  0
  194.5480  170.5480  135.5010 C   0  0  0  0  0  2  0  0  0  0  0  0
  195.0460  169.9960  137.8550 C   0  0  0  0  0  1  0  0  0  0  0  0
  193.9600  170.0480  136.8030 C   0  0  0  0  0  2  0  0  0  0  0  0
  1 35  1  6  0  0  0
  1  3  1  0  0  0  0
  3  4  2  0  0  0  0
  3  7  1  0  0  0  0
  4  6  1  0  0  0  0
  5  2  1  0  0  0  0
  6  2  2  0  0  0  0
  7  5  2  0  0  0  0
  8  1  1  0  0  0  0
  8  9  2  0  0  0  0
 11 10  1  6  0  0  0
 11  8  1  0  0  0  0
 12 17  2  0  0  0  0
 13 14  1  1  0  0  0
 13 19  1  0  0  0  0
 13 22  1  0  0  0  0
 14 18  2  0  0  0  0
 16 15  1  0  0  0  0
 17 11  1  0  0  0  0
 18 16  1  0  0  0  0
 19 23  1  0  0  0  0
 19 15  1  1  0  0  0
 21 24  1  0  0  0  0
 21 31  1  0  0  0  0
 22 21  1  0  0  0  0
 23 17  1  0  0  0  0
 23 24  1  0  0  0  0
 24 20  2  0  0  0  0
 26 27  2  0  0  0  0
 26 31  1  0  0  0  0
 27 30  1  0  0  0  0
 28 29  1  0  0  0  0
 28 25  1  0  0  0  0
 30 32  1  0  0  0  0
 30 29  2  0  0  0  0
 31 28  2  0  0  0  0
 32 34  1  0  0  0  0
 33 32  1  0  0  0  0
 36 35  1  0  0  0  0
 36 37  1  1  0  0  0
 38 36  1  0  0  0  0
 39 49  1  6  0  0  0
 39 45  1  0  0  0  0
 40 45  1  0  0  0  0
 40 38  1  1  0  0  0
 42 40  1  0  0  0  0
 42 41  1  1  0  0  0
 43 47  1  0  0  0  0
 43 42  1  0  0  0  0
 44 43  1  0  0  0  0
 46 41  1  0  0  0  0
 47 51  1  6  0  0  0
 47 39  1  0  0  0  0
 47 46  1  0  0  0  0
 49 50  1  1  0  0  0
 49 48  1  0  0  0  0
 51 52  1  0  0  0  0
 53 52  1  0  0  0  0
 53 55  1  0  0  0  0
 55 54  1  0  0  0  0
M  END
>  <MODEL>
9

>  <REMARK>
 VINA RESULT:      -5.9      2.467      6.675
  Name = 
  15 active torsions:
  status: ('A' for Active; 'I' for Inactive)
    1  A    between atoms: C_1  and  C_21
    2  A    between atoms: C_3  and  C_25
    3  A    between atoms: C_3  and  C_38
    4  A    between atoms: C_6  and  O_22
    5  A    between atoms: C_8  and  O_22
    6  A    between atoms: C_8  and  C_54
    7  A    between atoms: C_10  and  C_48
    8  A    between atoms: C_19  and  C_37
    9  A    between atoms: C_27  and  C_51
   10  A    between atoms: C_29  and  C_38
   11  A    between atoms: C_29  and  C_53
   12  A    between atoms: N_33  and  C_52
   13  A    between atoms: C_35  and  C_37
   14  A    between atoms: C_35  and  C_51
   15  A    between atoms: C_51  and  C_54
                            x       y       z     vdW  Elec       q    Type
                         _______ _______ _______ _____ _____    ______ ____

>  <TORSDO>
F 15

$$$$
