=
 OpenBabel10252415023D

 34 38  0  0  0  0  0  0  0  0999 V2000
  184.4820  178.7840  144.9200 C   0  0  0  0  0  0  0  0  0  0  0  0
  186.5140  177.4590  144.8060 C   0  0  0  0  0  0  0  0  0  0  0  0
  185.4260  178.3560  142.6970 C   0  0  0  0  0  0  0  0  0  0  0  0
  186.2950  178.2830  140.4340 C   0  0  0  0  0  0  0  0  0  0  0  0
  185.6400  178.1740  146.9520 C   0  0  0  0  0  3  0  0  0  0  0  0
  181.7930  176.7650  138.9520 C   0  0  0  0  0  2  0  0  0  0  0  0
  181.5210  177.7660  137.8340 C   0  0  0  0  0  2  0  0  0  0  0  0
  186.5910  177.4890  146.2010 C   0  0  0  0  0  3  0  0  0  0  0  0
  187.8150  178.0440  142.1330 N   0  0  0  0  0  0  0  0  0  0  0  0
  182.7670  179.1920  140.0960 N   0  0  0  0  0  0  0  0  0  0  0  0
  185.5120  178.2080  144.1230 C   0  0  0  0  0  0  0  0  0  0  0  0
  182.7090  178.7100  137.6810 C   0  0  0  0  0  2  0  0  0  0  0  0
  190.0190  177.8130  141.0920 N   0  0  0  0  0  2  0  0  0  0  0  0
  187.7390  178.1290  139.5930 S   0  0  0  0  0  0  0  0  0  0  0  0
  184.5730  178.7930  146.3130 C   0  0  0  0  0  3  0  0  0  0  0  0
  183.1830  179.2930  142.9570 C   0  0  0  0  0  3  0  0  0  0  0  0
  181.4920  178.7120  140.6220 C   0  0  0  0  0  2  0  0  0  0  0  0
  183.3390  179.3120  144.3350 C   0  0  0  0  0  3  0  0  0  0  0  0
  187.3750  176.5920  144.1480 O   0  0  0  0  0  1  0  0  0  0  0  0
  185.0940  178.5920  139.9010 N   0  0  0  0  0  0  0  0  0  0  0  0
  182.7330  179.7880  138.7640 C   0  0  0  0  0  2  0  0  0  0  0  0
  184.0270  178.8450  140.7080 C   0  0  0  0  0  0  0  0  0  0  0  0
  188.6030  177.9740  141.0340 C   0  0  0  0  0  0  0  0  0  0  0  0
  181.2790  177.2260  140.3210 C   0  0  0  0  0  2  0  0  0  0  0  0
  186.5060  178.1820  141.7980 C   0  0  0  0  0  0  0  0  0  0  0  0
  184.1930  178.8050  142.1230 C   0  0  0  0  0  0  0  0  0  0  0  0
  190.7200  177.6930  142.3580 C   0  0  0  0  0  2  0  0  0  0  0  0
  190.5680  176.2840  142.8880 C   0  0  0  0  0  2  0  0  0  0  0  0
  191.6830  175.9750  143.7670 N   0  0  0  0  0  2  0  0  0  0  0  0
  189.9190  176.8630  145.5170 O   0  0  0  0  0  0  0  0  0  0  0  0
  191.9780  178.1590  145.2370 O   0  0  0  0  0  0  0  0  0  0  0  0
  191.4000  176.7720  145.2770 S   0  0  0  0  0  0  0  0  0  0  0  0
  192.1320  176.6210  147.7710 O   0  0  0  0  0  1  0  0  0  0  0  0
  192.1510  175.8570  146.6060 C   0  0  0  0  0  2  0  0  0  0  0  0
  1 15  2  0  0  0  0
  2  8  1  0  0  0  0
  3 11  1  0  0  0  0
  4 25  1  0  0  0  0
  6 24  1  0  0  0  0
  7  6  1  0  0  0  0
  8  5  2  0  0  0  0
 10 17  1  0  0  0  0
 10 22  1  0  0  0  0
 11  2  2  0  0  0  0
 11  1  1  0  0  0  0
 12  7  1  0  0  0  0
 12 21  1  0  0  0  0
 13 27  1  0  0  0  0
 14  4  1  0  0  0  0
 14 23  1  0  0  0  0
 15  5  1  0  0  0  0
 16 18  2  0  0  0  0
 18  1  1  0  0  0  0
 19  2  1  0  0  0  0
 20  4  2  0  0  0  0
 20 22  1  0  0  0  0
 21 10  1  0  0  0  0
 22 26  2  0  0  0  0
 23 13  1  0  0  0  0
 23  9  2  0  0  0  0
 24 17  1  0  0  0  0
 25  9  1  0  0  0  0
 25  3  2  0  0  0  0
 26  3  1  0  0  0  0
 26 16  1  0  0  0  0
 27 28  1  0  0  0  0
 28 29  1  0  0  0  0
 29 32  1  0  0  0  0
 31 32  2  0  0  0  0
 32 30  2  0  0  0  0
 32 34  1  0  0  0  0
 34 33  1  0  0  0  0
M  END
>  <MODEL>
1

>  <REMARK>
 VINA RESULT:      -9.7      0.000      0.000
  Name = 
  5 active torsions:
  status: ('A' for Active; 'I' for Inactive)
    1  A    between atoms: C_3  and  C_13
    2  A    between atoms: C_3  and  N_17
    3  A    between atoms: C_13  and  N_33
    4  A    between atoms: C_14  and  S_34
    5  A    between atoms: N_33  and  S_34
                            x       y       z     vdW  Elec       q    Type
                         _______ _______ _______ _____ _____    ______ ____

>  <TORSDO>
F 5

$$$$
=
 OpenBabel10252415023D

 34 38  0  0  0  0  0  0  0  0999 V2000
  184.4420  178.6980  145.1180 C   0  0  0  0  0  0  0  0  0  0  0  0
  186.4210  177.6190  144.2150 C   0  0  0  0  0  0  0  0  0  0  0  0
  184.5820  178.4570  142.6820 C   0  0  0  0  0  0  0  0  0  0  0  0
  184.6050  178.5610  140.2580 C   0  0  0  0  0  0  0  0  0  0  0  0
  186.2920  178.1560  146.5760 C   0  0  0  0  0  3  0  0  0  0  0  0
  180.0360  176.5890  140.3160 C   0  0  0  0  0  2  0  0  0  0  0  0
  179.2940  177.5900  139.4360 C   0  0  0  0  0  2  0  0  0  0  0  0
  186.9790  177.6110  145.4960 C   0  0  0  0  0  3  0  0  0  0  0  0
  186.6390  178.4400  141.3070 N   0  0  0  0  0  0  0  0  0  0  0  0
  181.1120  179.0710  141.2250 N   0  0  0  0  0  0  0  0  0  0  0  0
  185.1760  178.2720  143.9760 C   0  0  0  0  0  0  0  0  0  0  0  0
  180.2570  178.6680  138.9510 C   0  0  0  0  0  2  0  0  0  0  0  0
  188.3490  178.4980  139.5560 N   0  0  0  0  0  2  0  0  0  0  0  0
  185.6690  178.6020  138.9620 S   0  0  0  0  0  0  0  0  0  0  0  0
  185.0140  178.6710  146.3910 C   0  0  0  0  0  3  0  0  0  0  0  0
  182.4940  179.1220  143.7660 C   0  0  0  0  0  3  0  0  0  0  0  0
  180.1550  178.4310  142.1230 C   0  0  0  0  0  2  0  0  0  0  0  0
  183.1210  179.1120  145.0030 C   0  0  0  0  0  3  0  0  0  0  0  0
  187.0750  176.8800  143.2400 O   0  0  0  0  0  1  0  0  0  0  0  0
  183.2700  178.7480  140.1960 N   0  0  0  0  0  0  0  0  0  0  0  0
  180.5570  179.7040  140.0330 C   0  0  0  0  0  2  0  0  0  0  0  0
  182.5340  178.8510  141.3380 C   0  0  0  0  0  0  0  0  0  0  0  0
  186.9940  178.4980  140.0010 C   0  0  0  0  0  0  0  0  0  0  0  0
  179.9920  176.9420  141.8080 C   0  0  0  0  0  2  0  0  0  0  0  0
  185.2890  178.4390  141.4550 C   0  0  0  0  0  0  0  0  0  0  0  0
  183.1890  178.7810  142.6020 C   0  0  0  0  0  0  0  0  0  0  0  0
  189.4580  178.4160  140.4890 C   0  0  0  0  0  2  0  0  0  0  0  0
  190.0250  177.0140  140.4770 C   0  0  0  0  0  2  0  0  0  0  0  0
  189.7690  176.3780  141.7580 N   0  0  0  0  0  2  0  0  0  0  0  0
  192.2090  177.3430  142.0370 O   0  0  0  0  0  0  0  0  0  0  0  0
  191.4800  175.6450  143.6450 O   0  0  0  0  0  0  0  0  0  0  0  0
  191.0430  176.8360  142.8380 S   0  0  0  0  0  0  0  0  0  0  0  0
  191.2770  179.2570  143.7680 O   0  0  0  0  0  1  0  0  0  0  0  0
  190.4870  178.1220  143.9360 C   0  0  0  0  0  2  0  0  0  0  0  0
  1 15  2  0  0  0  0
  2  8  1  0  0  0  0
  3 11  1  0  0  0  0
  4 25  1  0  0  0  0
  6 24  1  0  0  0  0
  7  6  1  0  0  0  0
  8  5  2  0  0  0  0
  9 25  1  0  0  0  0
 10 22  1  0  0  0  0
 10 17  1  0  0  0  0
 11  2  2  0  0  0  0
 11  1  1  0  0  0  0
 12  7  1  0  0  0  0
 12 21  1  0  0  0  0
 13 23  1  0  0  0  0
 13 27  1  0  0  0  0
 14 23  1  0  0  0  0
 14  4  1  0  0  0  0
 15  5  1  0  0  0  0
 16 18  2  0  0  0  0
 18  1  1  0  0  0  0
 19  2  1  0  0  0  0
 20  4  2  0  0  0  0
 20 22  1  0  0  0  0
 21 10  1  0  0  0  0
 22 26  2  0  0  0  0
 23  9  2  0  0  0  0
 24 17  1  0  0  0  0
 25  3  2  0  0  0  0
 26  3  1  0  0  0  0
 26 16  1  0  0  0  0
 28 27  1  0  0  0  0
 28 29  1  0  0  0  0
 29 32  1  0  0  0  0
 30 32  2  0  0  0  0
 32 31  2  0  0  0  0
 32 34  1  0  0  0  0
 33 34  1  0  0  0  0
M  END
>  <MODEL>
2

>  <REMARK>
 VINA RESULT:      -9.3      1.840      2.198
  Name = 
  5 active torsions:
  status: ('A' for Active; 'I' for Inactive)
    1  A    between atoms: C_3  and  C_13
    2  A    between atoms: C_3  and  N_17
    3  A    between atoms: C_13  and  N_33
    4  A    between atoms: C_14  and  S_34
    5  A    between atoms: N_33  and  S_34
                            x       y       z     vdW  Elec       q    Type
                         _______ _______ _______ _____ _____    ______ ____

>  <TORSDO>
F 5

$$$$
=
 OpenBabel10252415023D

 34 38  0  0  0  0  0  0  0  0999 V2000
  184.7410  178.6680  145.0640 C   0  0  0  0  0  0  0  0  0  0  0  0
  186.6010  177.5810  143.9440 C   0  0  0  0  0  0  0  0  0  0  0  0
  184.6230  178.4630  142.6230 C   0  0  0  0  0  0  0  0  0  0  0  0
  184.3930  178.6040  140.2120 C   0  0  0  0  0  0  0  0  0  0  0  0
  186.7270  178.0830  146.3130 C   0  0  0  0  0  3  0  0  0  0  0  0
  179.8310  176.6810  140.7200 C   0  0  0  0  0  2  0  0  0  0  0  0
  179.0140  177.7040  139.9370 C   0  0  0  0  0  2  0  0  0  0  0  0
  187.2900  177.5470  145.1590 C   0  0  0  0  0  3  0  0  0  0  0  0
  186.5250  178.4440  141.0410 N   0  0  0  0  0  0  0  0  0  0  0  0
  181.0280  179.1370  141.5470 N   0  0  0  0  0  0  0  0  0  0  0  0
  185.3470  178.2500  143.8450 C   0  0  0  0  0  0  0  0  0  0  0  0
  179.9350  178.7790  139.3690 C   0  0  0  0  0  2  0  0  0  0  0  0
  188.0420  178.5110  139.1210 N   0  0  0  0  0  2  0  0  0  0  0  0
  185.3170  178.6530  138.8120 S   0  0  0  0  0  0  0  0  0  0  0  0
  185.4430  178.6140  146.2700 C   0  0  0  0  0  3  0  0  0  0  0  0
  182.6680  179.1330  143.9290 C   0  0  0  0  0  3  0  0  0  0  0  0
  180.1620  178.4940  142.5310 C   0  0  0  0  0  2  0  0  0  0  0  0
  183.4210  179.0970  145.0940 C   0  0  0  0  0  3  0  0  0  0  0  0
  187.1410  176.8500  142.8950 O   0  0  0  0  0  1  0  0  0  0  0  0
  183.0610  178.8070  140.2930 N   0  0  0  0  0  0  0  0  0  0  0  0
  180.3580  179.7940  140.4290 C   0  0  0  0  0  2  0  0  0  0  0  0
  182.4510  178.8990  141.5070 C   0  0  0  0  0  0  0  0  0  0  0  0
  186.7420  178.5190  139.7060 C   0  0  0  0  0  0  0  0  0  0  0  0
  179.9480  177.0120  142.2130 C   0  0  0  0  0  2  0  0  0  0  0  0
  185.1970  178.4560  141.3290 C   0  0  0  0  0  0  0  0  0  0  0  0
  183.2330  178.8030  142.6940 C   0  0  0  0  0  0  0  0  0  0  0  0
  189.2420  178.4020  139.9320 C   0  0  0  0  0  2  0  0  0  0  0  0
  189.7050  176.9630  139.9570 C   0  0  0  0  0  2  0  0  0  0  0  0
  191.1400  176.9130  139.7350 N   0  0  0  0  0  2  0  0  0  0  0  0
  190.6030  176.9850  137.1520 O   0  0  0  0  0  0  0  0  0  0  0  0
  190.9710  174.7850  138.1650 O   0  0  0  0  0  0  0  0  0  0  0  0
  191.4070  176.2240  138.1690 S   0  0  0  0  0  0  0  0  0  0  0  0
  193.8800  176.6400  138.8720 O   0  0  0  0  0  1  0  0  0  0  0  0
  193.1320  176.3200  137.7400 C   0  0  0  0  0  2  0  0  0  0  0  0
  1 18  1  0  0  0  0
  1 15  2  0  0  0  0
  2  8  1  0  0  0  0
  3 26  1  0  0  0  0
  3 11  1  0  0  0  0
  4 20  2  0  0  0  0
  4 25  1  0  0  0  0
  6 24  1  0  0  0  0
  7  6  1  0  0  0  0
  8  5  2  0  0  0  0
  9 25  1  0  0  0  0
 10 17  1  0  0  0  0
 11  2  2  0  0  0  0
 11  1  1  0  0  0  0
 12  7  1  0  0  0  0
 12 21  1  0  0  0  0
 13 23  1  0  0  0  0
 13 27  1  0  0  0  0
 14 23  1  0  0  0  0
 14  4  1  0  0  0  0
 15  5  1  0  0  0  0
 16 18  2  0  0  0  0
 19  2  1  0  0  0  0
 20 22  1  0  0  0  0
 21 10  1  0  0  0  0
 22 10  1  0  0  0  0
 22 26  2  0  0  0  0
 23  9  2  0  0  0  0
 24 17  1  0  0  0  0
 25  3  2  0  0  0  0
 26 16  1  0  0  0  0
 27 28  1  0  0  0  0
 29 28  1  0  0  0  0
 30 32  2  0  0  0  0
 31 32  2  0  0  0  0
 32 29  1  0  0  0  0
 34 32  1  0  0  0  0
 34 33  1  0  0  0  0
M  END
>  <MODEL>
3

>  <REMARK>
 VINA RESULT:      -9.3      2.846      3.763
  Name = 
  5 active torsions:
  status: ('A' for Active; 'I' for Inactive)
    1  A    between atoms: C_3  and  C_13
    2  A    between atoms: C_3  and  N_17
    3  A    between atoms: C_13  and  N_33
    4  A    between atoms: C_14  and  S_34
    5  A    between atoms: N_33  and  S_34
                            x       y       z     vdW  Elec       q    Type
                         _______ _______ _______ _____ _____    ______ ____

>  <TORSDO>
F 5

$$$$
=
 OpenBabel10252415023D

 34 38  0  0  0  0  0  0  0  0999 V2000
  185.1120  178.8320  142.6380 C   0  0  0  0  0  0  0  0  0  0  0  0
  186.8200  177.6670  143.9110 C   0  0  0  0  0  0  0  0  0  0  0  0
  187.0990  178.0670  141.4220 C   0  0  0  0  0  0  0  0  0  0  0  0
  189.0600  177.6350  140.0610 C   0  0  0  0  0  0  0  0  0  0  0  0
  184.9450  178.7050  145.0460 C   0  0  0  0  0  3  0  0  0  0  0  0
  186.0430  175.5290  136.7100 C   0  0  0  0  0  2  0  0  0  0  0  0
  186.4660  176.2780  135.4510 C   0  0  0  0  0  2  0  0  0  0  0  0
  186.1230  177.9650  145.0850 C   0  0  0  0  0  3  0  0  0  0  0  0
  189.3920  177.8360  142.3200 N   0  0  0  0  0  0  0  0  0  0  0  0
  186.3300  178.1940  137.6890 N   0  0  0  0  0  0  0  0  0  0  0  0
  186.3850  178.1960  142.6610 C   0  0  0  0  0  0  0  0  0  0  0  0
  187.5820  177.2640  135.7830 C   0  0  0  0  0  2  0  0  0  0  0  0
  191.7960  177.5800  142.7130 N   0  0  0  0  0  2  0  0  0  0  0  0
  190.7210  177.4350  140.1890 S   0  0  0  0  0  0  0  0  0  0  0  0
  184.4270  179.1110  143.8220 C   0  0  0  0  0  3  0  0  0  0  0  0
  185.1190  178.8630  140.2290 C   0  0  0  0  0  3  0  0  0  0  0  0
  184.9570  177.7270  137.5220 C   0  0  0  0  0  2  0  0  0  0  0  0
  184.4970  179.1530  141.4350 C   0  0  0  0  0  3  0  0  0  0  0  0
  187.8650  176.7600  144.0140 O   0  0  0  0  0  1  0  0  0  0  0  0
  188.3590  177.7460  138.9130 N   0  0  0  0  0  0  0  0  0  0  0  0
  187.0530  178.5250  136.4660 C   0  0  0  0  0  2  0  0  0  0  0  0
  187.0360  178.0660  138.9420 C   0  0  0  0  0  0  0  0  0  0  0  0
  190.6500  177.6200  141.8650 C   0  0  0  0  0  0  0  0  0  0  0  0
  184.8830  176.2000  137.4560 C   0  0  0  0  0  2  0  0  0  0  0  0
  188.4870  177.8090  141.3080 C   0  0  0  0  0  0  0  0  0  0  0  0
  186.3990  178.3050  140.1940 C   0  0  0  0  0  0  0  0  0  0  0  0
  191.6860  177.7540  144.1500 C   0  0  0  0  0  2  0  0  0  0  0  0
  191.2030  176.4650  144.7780 C   0  0  0  0  0  2  0  0  0  0  0  0
  192.1510  176.0380  145.7930 N   0  0  0  0  0  2  0  0  0  0  0  0
  192.1810  177.1760  148.1730 O   0  0  0  0  0  0  0  0  0  0  0  0
  191.3330  174.8830  148.0330 O   0  0  0  0  0  0  0  0  0  0  0  0
  191.3870  176.2140  147.3360 S   0  0  0  0  0  0  0  0  0  0  0  0
  189.4590  177.7700  148.1390 O   0  0  0  0  0  1  0  0  0  0  0  0
  189.7330  176.8430  147.1350 C   0  0  0  0  0  2  0  0  0  0  0  0
  1 11  1  0  0  0  0
  1 15  2  0  0  0  0
  2 19  1  0  0  0  0
  2  8  1  0  0  0  0
  3 11  1  0  0  0  0
  4 14  1  0  0  0  0
  4 25  2  0  0  0  0
  5  8  2  0  0  0  0
  6 24  1  0  0  0  0
  7 12  1  0  0  0  0
  7  6  1  0  0  0  0
 10 22  1  0  0  0  0
 11  2  2  0  0  0  0
 12 21  1  0  0  0  0
 13 27  1  0  0  0  0
 14 23  1  0  0  0  0
 15  5  1  0  0  0  0
 16 18  2  0  0  0  0
 17 10  1  0  0  0  0
 18  1  1  0  0  0  0
 20 22  2  0  0  0  0
 20  4  1  0  0  0  0
 21 10  1  0  0  0  0
 22 26  1  0  0  0  0
 23  9  2  0  0  0  0
 23 13  1  0  0  0  0
 24 17  1  0  0  0  0
 25  3  1  0  0  0  0
 25  9  1  0  0  0  0
 26 16  1  0  0  0  0
 26  3  2  0  0  0  0
 27 28  1  0  0  0  0
 28 29  1  0  0  0  0
 29 32  1  0  0  0  0
 32 31  2  0  0  0  0
 32 30  2  0  0  0  0
 34 32  1  0  0  0  0
 34 33  1  0  0  0  0
M  END
>  <MODEL>
4

>  <REMARK>
 VINA RESULT:      -9.2      2.311      3.243
  Name = 
  5 active torsions:
  status: ('A' for Active; 'I' for Inactive)
    1  A    between atoms: C_3  and  C_13
    2  A    between atoms: C_3  and  N_17
    3  A    between atoms: C_13  and  N_33
    4  A    between atoms: C_14  and  S_34
    5  A    between atoms: N_33  and  S_34
                            x       y       z     vdW  Elec       q    Type
                         _______ _______ _______ _____ _____    ______ ____

>  <TORSDO>
F 5

$$$$
=
 OpenBabel10252415023D

 34 38  0  0  0  0  0  0  0  0999 V2000
  185.7110  178.5590  144.4670 C   0  0  0  0  0  0  0  0  0  0  0  0
  187.6070  177.2050  143.7840 C   0  0  0  0  0  0  0  0  0  0  0  0
  186.0920  178.2860  142.0600 C   0  0  0  0  0  0  0  0  0  0  0  0
  186.4040  178.3700  139.6560 C   0  0  0  0  0  0  0  0  0  0  0  0
  187.2880  177.7690  146.1200 C   0  0  0  0  0  3  0  0  0  0  0  0
  181.6250  177.0670  139.1760 C   0  0  0  0  0  2  0  0  0  0  0  0
  181.1380  178.1570  138.2270 C   0  0  0  0  0  2  0  0  0  0  0  0
  188.0090  177.1260  145.1200 C   0  0  0  0  0  3  0  0  0  0  0  0
  188.2680  177.9680  140.9280 N   0  0  0  0  0  0  0  0  0  0  0  0
  182.9320  179.3770  140.2260 N   0  0  0  0  0  0  0  0  0  0  0  0
  186.5030  178.0260  143.4110 C   0  0  0  0  0  0  0  0  0  0  0  0
  182.2930  179.0850  137.8650 C   0  0  0  0  0  2  0  0  0  0  0  0
  190.1570  177.7720  139.3820 N   0  0  0  0  0  2  0  0  0  0  0  0
  187.6040  178.2510  138.4890 S   0  0  0  0  0  0  0  0  0  0  0  0
  186.1250  178.4590  145.7970 C   0  0  0  0  0  3  0  0  0  0  0  0
  184.0090  179.2470  142.9070 C   0  0  0  0  0  3  0  0  0  0  0  0
  181.7990  178.8840  141.0030 C   0  0  0  0  0  2  0  0  0  0  0  0
  184.4840  179.1550  144.2070 C   0  0  0  0  0  3  0  0  0  0  0  0
  188.2560  176.3740  142.8820 O   0  0  0  0  0  1  0  0  0  0  0  0
  185.1250  178.7450  139.4450 N   0  0  0  0  0  0  0  0  0  0  0  0
  182.6110  180.0740  138.9850 C   0  0  0  0  0  2  0  0  0  0  0  0
  184.2860  178.9570  140.4970 C   0  0  0  0  0  0  0  0  0  0  0  0
  188.7740  177.9670  139.6710 C   0  0  0  0  0  0  0  0  0  0  0  0
  181.4630  177.4310  140.6560 C   0  0  0  0  0  2  0  0  0  0  0  0
  186.9240  178.1600  140.9210 C   0  0  0  0  0  0  0  0  0  0  0  0
  184.7760  178.8040  141.8260 C   0  0  0  0  0  0  0  0  0  0  0  0
  191.1300  177.5400  140.4350 C   0  0  0  0  0  2  0  0  0  0  0  0
  192.3800  176.9290  139.8410 C   0  0  0  0  0  2  0  0  0  0  0  0
  192.2390  176.8460  138.3970 N   0  0  0  0  0  2  0  0  0  0  0  0
  194.5210  175.6260  138.9120 O   0  0  0  0  0  0  0  0  0  0  0  0
  194.2670  176.6520  136.7030 O   0  0  0  0  0  0  0  0  0  0  0  0
  193.5560  175.8990  137.7930 S   0  0  0  0  0  0  0  0  0  0  0  0
  191.6580  174.1270  137.6000 O   0  0  0  0  0  1  0  0  0  0  0  0
  192.9570  174.3520  137.1480 C   0  0  0  0  0  2  0  0  0  0  0  0
  1 15  2  0  0  0  0
  2  8  1  0  0  0  0
  3 11  1  0  0  0  0
  4 25  1  0  0  0  0
  6 24  1  0  0  0  0
  7  6  1  0  0  0  0
  8  5  2  0  0  0  0
 10 22  1  0  0  0  0
 10 17  1  0  0  0  0
 11  2  2  0  0  0  0
 11  1  1  0  0  0  0
 12  7  1  0  0  0  0
 12 21  1  0  0  0  0
 13 23  1  0  0  0  0
 13 27  1  0  0  0  0
 14  4  1  0  0  0  0
 14 23  1  0  0  0  0
 15  5  1  0  0  0  0
 16 18  2  0  0  0  0
 18  1  1  0  0  0  0
 19  2  1  0  0  0  0
 20  4  2  0  0  0  0
 20 22  1  0  0  0  0
 21 10  1  0  0  0  0
 22 26  2  0  0  0  0
 23  9  2  0  0  0  0
 24 17  1  0  0  0  0
 25  9  1  0  0  0  0
 25  3  2  0  0  0  0
 26  3  1  0  0  0  0
 26 16  1  0  0  0  0
 28 27  1  0  0  0  0
 29 28  1  0  0  0  0
 31 32  2  0  0  0  0
 32 29  1  0  0  0  0
 32 30  2  0  0  0  0
 34 33  1  0  0  0  0
 34 32  1  0  0  0  0
M  END
>  <MODEL>
5

>  <REMARK>
 VINA RESULT:      -8.9      3.142      3.794
  Name = 
  5 active torsions:
  status: ('A' for Active; 'I' for Inactive)
    1  A    between atoms: C_3  and  C_13
    2  A    between atoms: C_3  and  N_17
    3  A    between atoms: C_13  and  N_33
    4  A    between atoms: C_14  and  S_34
    5  A    between atoms: N_33  and  S_34
                            x       y       z     vdW  Elec       q    Type
                         _______ _______ _______ _____ _____    ______ ____

>  <TORSDO>
F 5

$$$$
=
 OpenBabel10252415023D

 34 38  0  0  0  0  0  0  0  0999 V2000
  183.4690  178.9340  144.0140 C   0  0  0  0  0  0  0  0  0  0  0  0
  185.6840  178.0710  143.5210 C   0  0  0  0  0  0  0  0  0  0  0  0
  183.9760  178.4030  141.6750 C   0  0  0  0  0  0  0  0  0  0  0  0
  184.3190  178.1920  139.2820 C   0  0  0  0  0  0  0  0  0  0  0  0
  185.1570  178.8840  145.7440 C   0  0  0  0  0  3  0  0  0  0  0  0
  180.1050  175.5500  139.0990 C   0  0  0  0  0  2  0  0  0  0  0  0
  179.3600  176.2990  137.9990 C   0  0  0  0  0  2  0  0  0  0  0  0
  186.0560  178.3180  144.8450 C   0  0  0  0  0  3  0  0  0  0  0  0
  186.1860  178.5300  140.5690 N   0  0  0  0  0  0  0  0  0  0  0  0
  180.6900  178.2680  139.7460 N   0  0  0  0  0  0  0  0  0  0  0  0
  184.4060  178.4830  143.0430 C   0  0  0  0  0  0  0  0  0  0  0  0
  180.2210  177.4430  137.4740 C   0  0  0  0  0  2  0  0  0  0  0  0
  188.0960  178.6280  139.0400 N   0  0  0  0  0  2  0  0  0  0  0  0
  185.5360  178.2300  138.1280 S   0  0  0  0  0  0  0  0  0  0  0  0
  183.8580  179.1630  145.3350 C   0  0  0  0  0  3  0  0  0  0  0  0
  181.6860  178.8660  142.3950 C   0  0  0  0  0  3  0  0  0  0  0  0
  179.7160  177.6080  140.6120 C   0  0  0  0  0  2  0  0  0  0  0  0
  182.1320  179.1160  143.6850 C   0  0  0  0  0  3  0  0  0  0  0  0
  186.5630  177.3230  142.7500 O   0  0  0  0  0  1  0  0  0  0  0  0
  182.9920  178.1570  139.0370 N   0  0  0  0  0  0  0  0  0  0  0  0
  180.2210  178.6450  138.4170 C   0  0  0  0  0  2  0  0  0  0  0  0
  182.0990  178.2910  140.0560 C   0  0  0  0  0  0  0  0  0  0  0  0
  186.7060  178.4730  139.3190 C   0  0  0  0  0  0  0  0  0  0  0  0
  179.8070  176.0840  140.5060 C   0  0  0  0  0  2  0  0  0  0  0  0
  184.8410  178.3360  140.5560 C   0  0  0  0  0  0  0  0  0  0  0  0
  182.5760  178.4900  141.3840 C   0  0  0  0  0  0  0  0  0  0  0  0
  189.0660  178.8440  140.0990 C   0  0  0  0  0  2  0  0  0  0  0  0
  189.2420  177.5670  140.8900 C   0  0  0  0  0  2  0  0  0  0  0  0
  189.4510  177.8900  142.2910 N   0  0  0  0  0  2  0  0  0  0  0  0
  191.6090  178.1730  143.7820 O   0  0  0  0  0  0  0  0  0  0  0  0
  191.9010  177.2070  141.5500 O   0  0  0  0  0  0  0  0  0  0  0  0
  190.9980  177.2660  142.7510 S   0  0  0  0  0  0  0  0  0  0  0  0
  192.0450  175.2110  143.9600 O   0  0  0  0  0  1  0  0  0  0  0  0
  190.8230  175.6330  143.4400 C   0  0  0  0  0  2  0  0  0  0  0  0
  1 15  2  0  0  0  0
  2  8  1  0  0  0  0
  3 11  1  0  0  0  0
  4 25  1  0  0  0  0
  6 24  1  0  0  0  0
  7  6  1  0  0  0  0
  8  5  2  0  0  0  0
 10 22  1  0  0  0  0
 10 17  1  0  0  0  0
 11  2  2  0  0  0  0
 11  1  1  0  0  0  0
 12  7  1  0  0  0  0
 12 21  1  0  0  0  0
 13 23  1  0  0  0  0
 13 27  1  0  0  0  0
 14  4  1  0  0  0  0
 14 23  1  0  0  0  0
 15  5  1  0  0  0  0
 16 18  2  0  0  0  0
 18  1  1  0  0  0  0
 19  2  1  0  0  0  0
 20  4  2  0  0  0  0
 20 22  1  0  0  0  0
 21 10  1  0  0  0  0
 22 26  2  0  0  0  0
 23  9  2  0  0  0  0
 24 17  1  0  0  0  0
 25  9  1  0  0  0  0
 25  3  2  0  0  0  0
 26  3  1  0  0  0  0
 26 16  1  0  0  0  0
 27 28  1  0  0  0  0
 28 29  1  0  0  0  0
 29 32  1  0  0  0  0
 31 32  2  0  0  0  0
 32 34  1  0  0  0  0
 32 30  2  0  0  0  0
 34 33  1  0  0  0  0
M  END
>  <MODEL>
6

>  <REMARK>
 VINA RESULT:      -8.3      1.837      2.422
  Name = 
  5 active torsions:
  status: ('A' for Active; 'I' for Inactive)
    1  A    between atoms: C_3  and  C_13
    2  A    between atoms: C_3  and  N_17
    3  A    between atoms: C_13  and  N_33
    4  A    between atoms: C_14  and  S_34
    5  A    between atoms: N_33  and  S_34
                            x       y       z     vdW  Elec       q    Type
                         _______ _______ _______ _____ _____    ______ ____

>  <TORSDO>
F 5

$$$$
=
 OpenBabel10252415023D

 34 38  0  0  0  0  0  0  0  0999 V2000
  185.3290  178.7760  140.9470 C   0  0  0  0  0  0  0  0  0  0  0  0
  186.5460  177.8690  142.8420 C   0  0  0  0  0  0  0  0  0  0  0  0
  187.6210  178.0000  140.5490 C   0  0  0  0  0  0  0  0  0  0  0  0
  189.9290  177.5360  139.9640 C   0  0  0  0  0  0  0  0  0  0  0  0
  184.3820  178.9140  143.1660 C   0  0  0  0  0  3  0  0  0  0  0  0
  188.2270  174.8830  136.1120 C   0  0  0  0  0  2  0  0  0  0  0  0
  189.0260  175.5090  134.9740 C   0  0  0  0  0  2  0  0  0  0  0  0
  185.4960  178.2560  143.6790 C   0  0  0  0  0  3  0  0  0  0  0  0
  189.4950  178.0120  142.1630 N   0  0  0  0  0  0  0  0  0  0  0  0
  188.1210  177.6550  136.7840 N   0  0  0  0  0  0  0  0  0  0  0  0
  186.5360  178.2260  141.4620 C   0  0  0  0  0  0  0  0  0  0  0  0
  189.9490  176.5920  135.5220 C   0  0  0  0  0  2  0  0  0  0  0  0
  191.6390  177.9490  143.3430 N   0  0  0  0  0  2  0  0  0  0  0  0
  191.4590  177.4530  140.6470 S   0  0  0  0  0  0  0  0  0  0  0  0
  184.2870  179.1460  141.7990 C   0  0  0  0  0  3  0  0  0  0  0  0
  186.1280  178.5340  138.6870 C   0  0  0  0  0  3  0  0  0  0  0  0
  186.8890  177.0900  136.2420 C   0  0  0  0  0  2  0  0  0  0  0  0
  185.1380  178.9200  139.5790 C   0  0  0  0  0  3  0  0  0  0  0  0
  187.5170  177.0450  143.3930 O   0  0  0  0  0  1  0  0  0  0  0  0
  189.6430  177.4730  138.6460 N   0  0  0  0  0  0  0  0  0  0  0  0
  189.2010  177.8880  135.8300 C   0  0  0  0  0  2  0  0  0  0  0  0
  188.3780  177.7130  138.2030 C   0  0  0  0  0  0  0  0  0  0  0  0
  190.8360  177.8220  142.1720 C   0  0  0  0  0  0  0  0  0  0  0  0
  186.8720  175.5630  136.3500 C   0  0  0  0  0  2  0  0  0  0  0  0
  188.9730  177.8160  140.9250 C   0  0  0  0  0  0  0  0  0  0  0  0
  187.3600  178.0540  139.1400 C   0  0  0  0  0  0  0  0  0  0  0  0
  191.0590  178.2780  144.6330 C   0  0  0  0  0  2  0  0  0  0  0  0
  190.3660  177.0590  145.2000 C   0  0  0  0  0  2  0  0  0  0  0  0
  190.6810  176.9370  146.6130 N   0  0  0  0  0  2  0  0  0  0  0  0
  189.6100  178.2700  148.6220 O   0  0  0  0  0  0  0  0  0  0  0  0
  188.6580  176.0760  148.0910 O   0  0  0  0  0  0  0  0  0  0  0  0
  189.2520  177.3280  147.5070 S   0  0  0  0  0  0  0  0  0  0  0  0
  186.8140  177.4990  146.6080 O   0  0  0  0  0  1  0  0  0  0  0  0
  188.0550  178.1100  146.4450 C   0  0  0  0  0  2  0  0  0  0  0  0
  1 11  1  0  0  0  0
  1 15  2  0  0  0  0
  2 19  1  0  0  0  0
  2  8  1  0  0  0  0
  3 25  1  0  0  0  0
  3 11  1  0  0  0  0
  4 14  1  0  0  0  0
  4 25  2  0  0  0  0
  5  8  2  0  0  0  0
  6 24  1  0  0  0  0
  7 12  1  0  0  0  0
  7  6  1  0  0  0  0
  9 23  2  0  0  0  0
 10 22  1  0  0  0  0
 11  2  2  0  0  0  0
 12 21  1  0  0  0  0
 13 27  1  0  0  0  0
 14 23  1  0  0  0  0
 15  5  1  0  0  0  0
 16 26  1  0  0  0  0
 16 18  2  0  0  0  0
 17 24  1  0  0  0  0
 17 10  1  0  0  0  0
 18  1  1  0  0  0  0
 20  4  1  0  0  0  0
 21 10  1  0  0  0  0
 22 20  2  0  0  0  0
 22 26  1  0  0  0  0
 23 13  1  0  0  0  0
 25  9  1  0  0  0  0
 26  3  2  0  0  0  0
 27 28  1  0  0  0  0
 28 29  1  0  0  0  0
 29 32  1  0  0  0  0
 32 31  2  0  0  0  0
 32 30  2  0  0  0  0
 34 33  1  0  0  0  0
 34 32  1  0  0  0  0
M  END
>  <MODEL>
7

>  <REMARK>
 VINA RESULT:      -8.1      3.046      4.729
  Name = 
  5 active torsions:
  status: ('A' for Active; 'I' for Inactive)
    1  A    between atoms: C_3  and  C_13
    2  A    between atoms: C_3  and  N_17
    3  A    between atoms: C_13  and  N_33
    4  A    between atoms: C_14  and  S_34
    5  A    between atoms: N_33  and  S_34
                            x       y       z     vdW  Elec       q    Type
                         _______ _______ _______ _____ _____    ______ ____

>  <TORSDO>
F 5

$$$$
=
 OpenBabel10252415023D

 34 38  0  0  0  0  0  0  0  0999 V2000
  185.4860  177.2070  136.0010 C   0  0  0  0  0  0  0  0  0  0  0  0
  187.4840  178.1100  137.0430 C   0  0  0  0  0  0  0  0  0  0  0  0
  185.2410  178.2150  138.2230 C   0  0  0  0  0  0  0  0  0  0  0  0
  184.7950  178.9250  140.5000 C   0  0  0  0  0  0  0  0  0  0  0  0
  187.6460  176.8520  134.9760 C   0  0  0  0  0  3  0  0  0  0  0  0
  181.0160  181.6310  138.7190 C   0  0  0  0  0  2  0  0  0  0  0  0
  179.8850  181.1500  139.6220 C   0  0  0  0  0  2  0  0  0  0  0  0
  188.2470  177.5790  136.0000 C   0  0  0  0  0  3  0  0  0  0  0  0
  186.9420  178.2820  140.0190 N   0  0  0  0  0  0  0  0  0  0  0  0
  181.5300  178.8260  138.8500 N   0  0  0  0  0  0  0  0  0  0  0  0
  186.0880  177.8360  137.1270 C   0  0  0  0  0  0  0  0  0  0  0  0
  180.4170  180.1270  140.6200 C   0  0  0  0  0  2  0  0  0  0  0  0
  188.2250  178.4740  142.0950 N   0  0  0  0  0  2  0  0  0  0  0  0
  185.5550  179.1100  141.9840 S   0  0  0  0  0  0  0  0  0  0  0  0
  186.2650  176.6930  134.9630 C   0  0  0  0  0  3  0  0  0  0  0  0
  183.2840  177.6560  136.8690 C   0  0  0  0  0  3  0  0  0  0  0  0
  180.9610  179.3060  137.5940 C   0  0  0  0  0  2  0  0  0  0  0  0
  184.1040  177.1270  135.8830 C   0  0  0  0  0  3  0  0  0  0  0  0
  188.1250  178.9870  137.9060 O   0  0  0  0  0  1  0  0  0  0  0  0
  183.4700  179.0390  140.2660 N   0  0  0  0  0  0  0  0  0  0  0  0
  180.6180  178.7510  139.9860 C   0  0  0  0  0  2  0  0  0  0  0  0
  182.9540  178.7090  139.0490 C   0  0  0  0  0  0  0  0  0  0  0  0
  187.0250  178.5940  141.3340 C   0  0  0  0  0  0  0  0  0  0  0  0
  181.1510  180.8160  137.4270 C   0  0  0  0  0  2  0  0  0  0  0  0
  185.6920  178.5020  139.5340 C   0  0  0  0  0  0  0  0  0  0  0  0
  183.8210  178.2210  138.0290 C   0  0  0  0  0  0  0  0  0  0  0  0
  189.4650  178.0170  141.4930 C   0  0  0  0  0  2  0  0  0  0  0  0
  189.9150  176.7420  142.1710 C   0  0  0  0  0  2  0  0  0  0  0  0
  189.6390  176.8270  143.5950 N   0  0  0  0  0  2  0  0  0  0  0  0
  191.9230  178.0770  144.0270 O   0  0  0  0  0  0  0  0  0  0  0  0
  191.9570  175.6280  144.0530 O   0  0  0  0  0  0  0  0  0  0  0  0
  191.1590  176.8460  144.4250 S   0  0  0  0  0  0  0  0  0  0  0  0
  192.0550  176.4440  146.8370 O   0  0  0  0  0  1  0  0  0  0  0  0
  190.8970  176.8650  146.1860 C   0  0  0  0  0  2  0  0  0  0  0  0
  1 11  1  0  0  0  0
  2 11  1  0  0  0  0
  2 19  1  0  0  0  0
  3 25  1  0  0  0  0
  4 14  1  0  0  0  0
  5  8  1  0  0  0  0
  6  7  1  0  0  0  0
  7 12  1  0  0  0  0
  8  2  2  0  0  0  0
  9 23  2  0  0  0  0
 10 22  1  0  0  0  0
 10 21  1  0  0  0  0
 11  3  2  0  0  0  0
 15  5  2  0  0  0  0
 15  1  1  0  0  0  0
 16 26  2  0  0  0  0
 17 10  1  0  0  0  0
 18  1  2  0  0  0  0
 18 16  1  0  0  0  0
 20  4  1  0  0  0  0
 21 12  1  0  0  0  0
 22 20  2  0  0  0  0
 23 14  1  0  0  0  0
 23 13  1  0  0  0  0
 24 17  1  0  0  0  0
 24  6  1  0  0  0  0
 25  9  1  0  0  0  0
 25  4  2  0  0  0  0
 26  3  1  0  0  0  0
 26 22  1  0  0  0  0
 27 13  1  0  0  0  0
 27 28  1  0  0  0  0
 28 29  1  0  0  0  0
 29 32  1  0  0  0  0
 30 32  2  0  0  0  0
 31 32  2  0  0  0  0
 32 34  1  0  0  0  0
 34 33  1  0  0  0  0
M  END
>  <MODEL>
8

>  <REMARK>
 VINA RESULT:      -8.0      2.729      5.293
  Name = 
  5 active torsions:
  status: ('A' for Active; 'I' for Inactive)
    1  A    between atoms: C_3  and  C_13
    2  A    between atoms: C_3  and  N_17
    3  A    between atoms: C_13  and  N_33
    4  A    between atoms: C_14  and  S_34
    5  A    between atoms: N_33  and  S_34
                            x       y       z     vdW  Elec       q    Type
                         _______ _______ _______ _____ _____    ______ ____

>  <TORSDO>
F 5

$$$$
=
 OpenBabel10252415023D

 34 38  0  0  0  0  0  0  0  0999 V2000
  187.8350  177.9240  143.9040 C   0  0  0  0  0  0  0  0  0  0  0  0
  189.4850  176.5470  142.7750 C   0  0  0  0  0  0  0  0  0  0  0  0
  187.7080  177.7880  141.4590 C   0  0  0  0  0  0  0  0  0  0  0  0
  187.5310  178.0110  139.0490 C   0  0  0  0  0  0  0  0  0  0  0  0
  189.6730  176.9750  145.1540 C   0  0  0  0  0  3  0  0  0  0  0  0
  182.6960  176.9150  139.4880 C   0  0  0  0  0  2  0  0  0  0  0  0
  182.0800  178.0800  138.7200 C   0  0  0  0  0  2  0  0  0  0  0  0
  190.1450  176.3690  143.9940 C   0  0  0  0  0  3  0  0  0  0  0  0
  189.5920  177.4620  139.8890 N   0  0  0  0  0  0  0  0  0  0  0  0
  184.2990  179.1060  140.3710 N   0  0  0  0  0  0  0  0  0  0  0  0
  188.3700  177.4290  142.6810 C   0  0  0  0  0  0  0  0  0  0  0  0
  183.1820  178.9850  138.1790 C   0  0  0  0  0  2  0  0  0  0  0  0
  191.1180  177.2940  137.9820 N   0  0  0  0  0  2  0  0  0  0  0  0
  188.4630  177.9210  137.6570 S   0  0  0  0  0  0  0  0  0  0  0  0
  188.5040  177.7260  145.1130 C   0  0  0  0  0  3  0  0  0  0  0  0
  185.8880  178.7690  142.7640 C   0  0  0  0  0  3  0  0  0  0  0  0
  183.3230  178.6080  141.3360 C   0  0  0  0  0  2  0  0  0  0  0  0
  186.6110  178.5790  143.9330 C   0  0  0  0  0  3  0  0  0  0  0  0
  189.8980  175.7510  141.7160 O   0  0  0  0  0  1  0  0  0  0  0  0
  186.2550  178.4440  139.1250 N   0  0  0  0  0  0  0  0  0  0  0  0
  183.7680  179.8910  139.2620 C   0  0  0  0  0  2  0  0  0  0  0  0
  185.6580  178.6210  140.3360 C   0  0  0  0  0  0  0  0  0  0  0  0
  189.8330  177.5210  138.5580 C   0  0  0  0  0  0  0  0  0  0  0  0
  182.8550  177.1930  140.9880 C   0  0  0  0  0  2  0  0  0  0  0  0
  188.2850  177.7030  140.1690 C   0  0  0  0  0  0  0  0  0  0  0  0
  186.3980  178.3670  141.5270 C   0  0  0  0  0  0  0  0  0  0  0  0
  192.2700  176.9610  138.7990 C   0  0  0  0  0  2  0  0  0  0  0  0
  193.3830  176.4430  137.9150 C   0  0  0  0  0  2  0  0  0  0  0  0
  193.4040  174.9910  137.9640 N   0  0  0  0  0  2  0  0  0  0  0  0
  195.7460  175.6130  136.9200 O   0  0  0  0  0  0  0  0  0  0  0  0
  194.9440  173.3210  136.6000 O   0  0  0  0  0  0  0  0  0  0  0  0
  195.0070  174.4740  137.5630 S   0  0  0  0  0  0  0  0  0  0  0  0
  196.1390  175.0830  139.8280 O   0  0  0  0  0  1  0  0  0  0  0  0
  195.8760  173.9690  139.0330 C   0  0  0  0  0  2  0  0  0  0  0  0
  1 18  1  0  0  0  0
  1 15  2  0  0  0  0
  2  8  1  0  0  0  0
  3 26  1  0  0  0  0
  3 11  1  0  0  0  0
  4 20  2  0  0  0  0
  4 25  1  0  0  0  0
  6 24  1  0  0  0  0
  7  6  1  0  0  0  0
  8  5  2  0  0  0  0
  9 25  1  0  0  0  0
 10 17  1  0  0  0  0
 11  2  2  0  0  0  0
 11  1  1  0  0  0  0
 12  7  1  0  0  0  0
 12 21  1  0  0  0  0
 13 23  1  0  0  0  0
 13 27  1  0  0  0  0
 14 23  1  0  0  0  0
 14  4  1  0  0  0  0
 15  5  1  0  0  0  0
 16 18  2  0  0  0  0
 19  2  1  0  0  0  0
 20 22  1  0  0  0  0
 21 10  1  0  0  0  0
 22 10  1  0  0  0  0
 22 26  2  0  0  0  0
 23  9  2  0  0  0  0
 24 17  1  0  0  0  0
 25  3  2  0  0  0  0
 26 16  1  0  0  0  0
 28 29  1  0  0  0  0
 28 27  1  0  0  0  0
 30 32  2  0  0  0  0
 31 32  2  0  0  0  0
 32 29  1  0  0  0  0
 32 34  1  0  0  0  0
 34 33  1  0  0  0  0
M  END
>  <MODEL>
9

>  <REMARK>
 VINA RESULT:      -7.6      3.914      4.652
  Name = 
  5 active torsions:
  status: ('A' for Active; 'I' for Inactive)
    1  A    between atoms: C_3  and  C_13
    2  A    between atoms: C_3  and  N_17
    3  A    between atoms: C_13  and  N_33
    4  A    between atoms: C_14  and  S_34
    5  A    between atoms: N_33  and  S_34
                            x       y       z     vdW  Elec       q    Type
                         _______ _______ _______ _____ _____    ______ ____

>  <TORSDO>
F 5

$$$$
