=
 OpenBabel10262420523D

 28 30  0  0  1  0  0  0  0  0999 V2000
  188.6190  177.5360  140.9200 C   0  0  1  0  0  3  0  0  0  0  0  0
  183.5310  178.1060  141.3000 C   0  0  0  0  0  2  0  0  0  0  0  0
  186.7330  177.6140  146.4370 C   0  0  0  0  0  1  0  0  0  0  0  0
  183.3970  179.5780  143.2560 C   0  0  1  0  0  3  0  0  0  0  0  0
  185.5890  178.6170  142.7720 C   0  0  2  0  0  3  0  0  0  0  0  0
  181.2940  178.5630  142.3470 C   0  0  0  0  0  0  0  0  0  0  0  0
  184.0990  178.3370  142.6950 C   0  0  2  0  0  3  0  0  0  0  0  0
  184.8400  179.3460  145.0780 C   0  0  0  0  0  2  0  0  0  0  0  0
  181.9260  179.2790  143.5230 C   0  0  0  0  0  2  0  0  0  0  0  0
  187.6030  176.6720  144.3190 C   0  0  0  0  0  2  0  0  0  0  0  0
  186.4560  177.7610  141.8560 C   0  0  0  0  0  2  0  0  0  0  0  0
  184.0570  180.2480  144.3240 O   0  0  0  0  0  0  0  0  0  0  0  0
  189.8230  176.9550  143.1540 C   0  0  0  0  0  2  0  0  0  0  0  0
  186.4260  177.4070  144.9580 C   0  0  2  0  0  3  0  0  0  0  0  0
  188.8170  177.5750  144.1220 C   0  0  0  0  0  2  0  0  0  0  0  0
  179.9120  178.4380  142.3080 O   0  0  0  0  0  1  0  0  0  0  0  0
  182.0260  177.9970  141.3700 C   0  0  0  0  0  3  0  0  0  0  0  0
  186.0140  178.7360  144.2660 C   0  0  1  0  0  3  0  0  0  0  0  0
  189.1800  176.4510  141.8590 C   0  0  0  0  0  2  0  0  0  0  0  0
  187.7020  178.4620  141.5800 N   0  0  0  0  0  2  0  0  0  0  0  0
  189.6630  178.2570  140.0490 C   0  0  2  0  0  3  0  0  0  0  0  0
  189.0730  179.0510  139.0620 O   0  0  0  0  0  1  0  0  0  0  0  0
  190.8130  177.4100  139.4910 C   0  0  0  0  0  2  0  0  0  0  0  0
  191.4540  176.2910  137.2840 N   0  0  0  0  0  0  0  0  0  0  0  0
  189.2620  176.2840  138.0910 O   0  0  0  0  0  0  0  0  0  0  0  0
  190.4590  176.6420  138.2570 C   0  0  0  0  0  0  0  0  0  0  0  0
  193.1800  176.4210  137.6430 S   0  0  0  0  0  1  0  0  0  0  0  0
  191.0630  175.7160  136.0080 C   0  0  0  0  0  1  0  0  0  0  0  0
  1 21  1  1  0  0  0
  1 20  1  0  0  0  0
  1 19  1  0  0  0  0
  2 17  1  0  0  0  0
  4  9  1  1  0  0  0
  4 12  1  0  0  0  0
  5 11  1  1  0  0  0
  5 18  1  0  0  0  0
  6  9  1  0  0  0  0
  7  2  1  6  0  0  0
  7  5  1  0  0  0  0
  7  4  1  0  0  0  0
 10 14  1  0  0  0  0
 12  8  1  0  0  0  0
 13 15  1  0  0  0  0
 14  3  1  1  0  0  0
 15 10  1  0  0  0  0
 16  6  1  0  0  0  0
 17  6  2  0  0  0  0
 18 14  1  0  0  0  0
 18  8  1  1  0  0  0
 19 13  1  0  0  0  0
 20 11  1  0  0  0  0
 21 22  1  6  0  0  0
 23 21  1  0  0  0  0
 24 27  1  0  0  0  0
 24 26  1  0  0  0  0
 25 26  2  0  0  0  0
 26 23  1  0  0  0  0
 28 24  1  0  0  0  0
M  END
>  <MODEL>
1

>  <REMARK>
 VINA RESULT:      -7.5      0.000      0.000
  Name = 
  3 active torsions:
  status: ('A' for Active; 'I' for Inactive)
    1  A    between atoms: C_1  and  C_2
    2  A    between atoms: C_2  and  C_3
    3  A    between atoms: C_3  and  C_11
                            x       y       z     vdW  Elec       q    Type
                         _______ _______ _______ _____ _____    ______ ____

>  <TORSDO>
F 3

$$$$
=
 OpenBabel10262420523D

 28 30  0  0  1  0  0  0  0  0999 V2000
  189.1260  178.0950  143.1420 C   0  0  1  0  0  3  0  0  0  0  0  0
  187.3680  178.2670  138.3220 C   0  0  0  0  0  2  0  0  0  0  0  0
  193.1100  176.4950  139.1980 C   0  0  0  0  0  1  0  0  0  0  0  0
  188.4430  176.2700  137.3900 C   0  0  1  0  0  3  0  0  0  0  0  0
  189.1920  176.9670  139.6060 C   0  0  2  0  0  3  0  0  0  0  0  0
  187.2700  177.8580  135.8460 C   0  0  0  0  0  0  0  0  0  0  0  0
  188.6820  177.4950  138.2770 C   0  0  2  0  0  3  0  0  0  0  0  0
  190.6140  175.6450  137.9830 C   0  0  0  0  0  2  0  0  0  0  0  0
  188.2410  176.6980  135.9400 C   0  0  0  0  0  2  0  0  0  0  0  0
  191.9710  177.9320  140.8610 C   0  0  0  0  0  2  0  0  0  0  0  0
  189.0460  177.9260  140.7830 C   0  0  0  0  0  2  0  0  0  0  0  0
  189.3490  175.1850  137.5540 O   0  0  0  0  0  0  0  0  0  0  0  0
  191.6890  177.6960  143.3570 C   0  0  0  0  0  2  0  0  0  0  0  0
  191.8120  177.2280  139.5140 C   0  0  2  0  0  3  0  0  0  0  0  0
  191.9160  176.9610  142.0370 C   0  0  0  0  0  2  0  0  0  0  0  0
  186.7750  178.2110  134.5980 O   0  0  0  0  0  1  0  0  0  0  0  0
  186.9150  178.5890  136.9180 C   0  0  0  0  0  3  0  0  0  0  0  0
  190.5790  176.2910  139.3940 C   0  0  1  0  0  3  0  0  0  0  0  0
  190.5340  178.6990  143.2970 C   0  0  0  0  0  2  0  0  0  0  0  0
  189.0090  177.1640  142.0230 N   0  0  0  0  0  2  0  0  0  0  0  0
  188.4990  177.5450  144.4370 C   0  0  2  0  0  3  0  0  0  0  0  0
  189.3900  176.7460  145.1580 O   0  0  0  0  0  1  0  0  0  0  0  0
  187.1130  176.8990  144.3220 C   0  0  0  0  0  2  0  0  0  0  0  0
  185.2320  178.5290  144.9040 N   0  0  0  0  0  0  0  0  0  0  0  0
  185.8400  178.0690  142.6960 O   0  0  0  0  0  0  0  0  0  0  0  0
  186.0300  177.8510  143.9220 C   0  0  0  0  0  0  0  0  0  0  0  0
  185.7000  178.5630  146.6080 S   0  0  0  0  0  1  0  0  0  0  0  0
  184.0670  179.2980  144.4990 C   0  0  0  0  0  1  0  0  0  0  0  0
  1 19  1  0  0  0  0
  1 21  1  1  0  0  0
  4  9  1  6  0  0  0
  4 12  1  0  0  0  0
  4  7  1  0  0  0  0
  5 11  1  1  0  0  0
  6  9  1  0  0  0  0
  6 17  2  0  0  0  0
  7  2  1  1  0  0  0
  7  5  1  0  0  0  0
 10 15  1  0  0  0  0
 11 20  1  0  0  0  0
 12  8  1  0  0  0  0
 14  3  1  1  0  0  0
 14 10  1  0  0  0  0
 15 13  1  0  0  0  0
 16  6  1  0  0  0  0
 17  2  1  0  0  0  0
 18  8  1  6  0  0  0
 18 14  1  0  0  0  0
 18  5  1  0  0  0  0
 19 13  1  0  0  0  0
 20  1  1  0  0  0  0
 21 22  1  6  0  0  0
 23 21  1  0  0  0  0
 24 27  1  0  0  0  0
 25 26  2  0  0  0  0
 26 23  1  0  0  0  0
 26 24  1  0  0  0  0
 28 24  1  0  0  0  0
M  END
>  <MODEL>
2

>  <REMARK>
 VINA RESULT:      -7.4      3.436      7.413
  Name = 
  3 active torsions:
  status: ('A' for Active; 'I' for Inactive)
    1  A    between atoms: C_1  and  C_2
    2  A    between atoms: C_2  and  C_3
    3  A    between atoms: C_3  and  C_11
                            x       y       z     vdW  Elec       q    Type
                         _______ _______ _______ _____ _____    ______ ____

>  <TORSDO>
F 3

$$$$
=
 OpenBabel10262420523D

 28 30  0  0  1  0  0  0  0  0999 V2000
  190.8180  176.6060  138.4010 C   0  0  1  0  0  3  0  0  0  0  0  0
  191.5280  176.9350  143.4740 C   0  0  0  0  0  2  0  0  0  0  0  0
  186.2870  178.9860  141.1930 C   0  0  0  0  0  1  0  0  0  0  0  0
  189.2730  176.3960  144.2700 C   0  0  1  0  0  3  0  0  0  0  0  0
  189.5110  176.7750  141.8710 C   0  0  2  0  0  3  0  0  0  0  0  0
  190.9730  177.2430  145.9040 C   0  0  0  0  0  0  0  0  0  0  0  0
  190.0480  177.2030  143.2250 C   0  0  2  0  0  3  0  0  0  0  0  0
  187.3590  177.1330  143.1540 C   0  0  0  0  0  2  0  0  0  0  0  0
  189.5020  176.9740  145.6620 C   0  0  0  0  0  2  0  0  0  0  0  0
  188.3160  178.8800  139.7790 C   0  0  0  0  0  2  0  0  0  0  0  0
  190.4280  177.0690  140.6890 C   0  0  0  0  0  2  0  0  0  0  0  0
  187.9090  176.1220  143.9730 O   0  0  0  0  0  0  0  0  0  0  0  0
  188.7170  177.8570  137.5080 C   0  0  0  0  0  2  0  0  0  0  0  0
  187.7680  178.6280  141.1830 C   0  0  2  0  0  3  0  0  0  0  0  0
  187.8710  177.8160  138.7790 C   0  0  0  0  0  2  0  0  0  0  0  0
  191.3940  177.5300  147.1950 O   0  0  0  0  0  1  0  0  0  0  0  0
  191.8750  177.2680  144.9060 C   0  0  0  0  0  3  0  0  0  0  0  0
  188.0180  177.2040  141.7500 C   0  0  1  0  0  3  0  0  0  0  0  0
  190.2220  177.8870  137.7860 C   0  0  0  0  0  2  0  0  0  0  0  0
  190.1190  176.1530  139.6000 N   0  0  0  0  0  2  0  0  0  0  0  0
  191.0870  175.4620  137.4060 C   0  0  2  0  0  3  0  0  0  0  0  0
  190.7930  174.2080  137.9480 O   0  0  0  0  0  1  0  0  0  0  0  0
  192.4390  175.4700  136.6810 C   0  0  0  0  0  2  0  0  0  0  0  0
  194.0980  173.7110  137.5080 N   0  0  0  0  0  0  0  0  0  0  0  0
  194.1320  175.9130  138.2840 O   0  0  0  0  0  0  0  0  0  0  0  0
  193.5920  175.0530  137.5390 C   0  0  0  0  0  0  0  0  0  0  0  0
  193.6430  172.5830  136.2240 S   0  0  0  0  0  1  0  0  0  0  0  0
  195.0860  173.2750  138.4810 C   0  0  0  0  0  1  0  0  0  0  0  0
  1 21  1  6  0  0  0
  1 20  1  0  0  0  0
  2 17  1  0  0  0  0
  4  9  1  1  0  0  0
  5 11  1  6  0  0  0
  5  7  1  0  0  0  0
  6 16  1  0  0  0  0
  7  2  1  6  0  0  0
  7  4  1  0  0  0  0
  8 12  1  0  0  0  0
  9  6  1  0  0  0  0
 10 14  1  0  0  0  0
 12  4  1  0  0  0  0
 13 19  1  0  0  0  0
 13 15  1  0  0  0  0
 14  3  1  6  0  0  0
 14 18  1  0  0  0  0
 15 10  1  0  0  0  0
 17  6  2  0  0  0  0
 18  5  1  0  0  0  0
 18  8  1  1  0  0  0
 19  1  1  0  0  0  0
 20 11  1  0  0  0  0
 21 22  1  1  0  0  0
 23 21  1  0  0  0  0
 23 26  1  0  0  0  0
 24 26  1  0  0  0  0
 24 28  1  0  0  0  0
 26 25  2  0  0  0  0
 27 24  1  0  0  0  0
M  END
>  <MODEL>
3

>  <REMARK>
 VINA RESULT:      -7.3      3.412      6.063
  Name = 
  3 active torsions:
  status: ('A' for Active; 'I' for Inactive)
    1  A    between atoms: C_1  and  C_2
    2  A    between atoms: C_2  and  C_3
    3  A    between atoms: C_3  and  C_11
                            x       y       z     vdW  Elec       q    Type
                         _______ _______ _______ _____ _____    ______ ____

>  <TORSDO>
F 3

$$$$
=
 OpenBabel10262420523D

 28 30  0  0  1  0  0  0  0  0999 V2000
  183.5140  178.8930  142.3540 C   0  0  1  0  0  3  0  0  0  0  0  0
  188.3060  178.2690  140.6240 C   0  0  0  0  0  2  0  0  0  0  0  0
  187.3610  177.8410  146.6080 C   0  0  0  0  0  1  0  0  0  0  0  0
  189.0790  176.4740  142.1050 C   0  0  1  0  0  3  0  0  0  0  0  0
  186.9410  177.5030  142.6760 C   0  0  2  0  0  3  0  0  0  0  0  0
  190.7370  177.6360  140.6280 C   0  0  0  0  0  0  0  0  0  0  0  0
  188.3030  177.7930  142.0720 C   0  0  2  0  0  3  0  0  0  0  0  0
  188.4650  176.3780  144.3550 C   0  0  0  0  0  2  0  0  0  0  0  0
  190.5570  176.7220  141.8230 C   0  0  0  0  0  2  0  0  0  0  0  0
  185.8120  179.1420  145.1810 C   0  0  0  0  0  2  0  0  0  0  0  0
  185.8490  178.5070  142.3240 C   0  0  0  0  0  2  0  0  0  0  0  0
  188.8350  175.6240  143.2200 O   0  0  0  0  0  0  0  0  0  0  0  0
  183.3010  179.0680  144.9430 C   0  0  0  0  0  2  0  0  0  0  0  0
  187.0910  178.3060  145.1810 C   0  0  2  0  0  3  0  0  0  0  0  0
  184.5560  178.2870  145.3280 C   0  0  0  0  0  2  0  0  0  0  0  0
  192.0040  177.7660  140.0750 O   0  0  0  0  0  1  0  0  0  0  0  0
  189.7270  178.3650  140.1200 C   0  0  0  0  0  3  0  0  0  0  0  0
  187.1140  177.1210  144.1770 C   0  0  1  0  0  3  0  0  0  0  0  0
  183.4310  179.7940  143.6010 C   0  0  0  0  0  2  0  0  0  0  0  0
  184.5480  177.8650  142.4440 N   0  0  0  0  0  2  0  0  0  0  0  0
  182.1690  178.3360  141.8530 C   0  0  2  0  0  3  0  0  0  0  0  0
  182.3170  177.5320  140.7210 O   0  0  0  0  0  1  0  0  0  0  0  0
  181.0140  179.3340  141.7010 C   0  0  0  0  0  2  0  0  0  0  0  0
  180.0200  179.5560  139.3560 N   0  0  0  0  0  0  0  0  0  0  0  0
  179.1660  178.0580  140.9320 O   0  0  0  0  0  0  0  0  0  0  0  0
  180.0130  178.9490  140.6560 C   0  0  0  0  0  0  0  0  0  0  0  0
  181.3980  180.5090  138.7910 S   0  0  0  0  0  1  0  0  0  0  0  0
  178.9310  179.3120  138.4250 C   0  0  0  0  0  1  0  0  0  0  0  0
  1 21  1  1  0  0  0
  1 20  1  0  0  0  0
  1 19  1  0  0  0  0
  4  9  1  1  0  0  0
  4 12  1  0  0  0  0
  5 11  1  1  0  0  0
  5 18  1  0  0  0  0
  6  9  1  0  0  0  0
  7  2  1  6  0  0  0
  7  4  1  0  0  0  0
  7  5  1  0  0  0  0
 10 15  1  0  0  0  0
 11 20  1  0  0  0  0
 12  8  1  0  0  0  0
 13 15  1  0  0  0  0
 14 10  1  0  0  0  0
 14  3  1  1  0  0  0
 16  6  1  0  0  0  0
 17  2  1  0  0  0  0
 17  6  2  0  0  0  0
 18  8  1  6  0  0  0
 18 14  1  0  0  0  0
 19 13  1  0  0  0  0
 21 22  1  6  0  0  0
 23 21  1  0  0  0  0
 24 26  1  0  0  0  0
 26 25  2  0  0  0  0
 26 23  1  0  0  0  0
 27 24  1  0  0  0  0
 28 24  1  0  0  0  0
M  END
>  <MODEL>
4

>  <REMARK>
 VINA RESULT:      -7.1      3.511      7.647
  Name = 
  3 active torsions:
  status: ('A' for Active; 'I' for Inactive)
    1  A    between atoms: C_1  and  C_2
    2  A    between atoms: C_2  and  C_3
    3  A    between atoms: C_3  and  C_11
                            x       y       z     vdW  Elec       q    Type
                         _______ _______ _______ _____ _____    ______ ____

>  <TORSDO>
F 3

$$$$
=
 OpenBabel10262420523D

 28 30  0  0  1  0  0  0  0  0999 V2000
  183.4960  179.1300  142.4510 C   0  0  1  0  0  3  0  0  0  0  0  0
  188.2330  178.3420  140.6380 C   0  0  0  0  0  2  0  0  0  0  0  0
  187.3140  177.6470  146.6000 C   0  0  0  0  0  1  0  0  0  0  0  0
  188.9190  176.4310  142.0130 C   0  0  1  0  0  3  0  0  0  0  0  0
  186.8450  177.5420  142.6620 C   0  0  2  0  0  3  0  0  0  0  0  0
  190.6260  177.5790  140.5820 C   0  0  0  0  0  0  0  0  0  0  0  0
  188.2160  177.7900  142.0590 C   0  0  2  0  0  3  0  0  0  0  0  0
  188.3190  176.2490  144.2620 C   0  0  0  0  0  2  0  0  0  0  0  0
  190.4060  176.6140  141.7280 C   0  0  0  0  0  2  0  0  0  0  0  0
  185.8260  179.1030  145.2610 C   0  0  0  0  0  2  0  0  0  0  0  0
  185.8060  178.6210  142.3740 C   0  0  0  0  0  2  0  0  0  0  0  0
  188.6390  175.5380  143.0840 O   0  0  0  0  0  0  0  0  0  0  0  0
  183.3140  179.1780  145.0470 C   0  0  0  0  0  2  0  0  0  0  0  0
  187.0580  178.2010  145.2040 C   0  0  2  0  0  3  0  0  0  0  0  0
  184.5280  178.3110  145.3760 C   0  0  0  0  0  2  0  0  0  0  0  0
  191.8930  177.6710  140.0230 O   0  0  0  0  0  1  0  0  0  0  0  0
  189.6530  178.3880  140.1240 C   0  0  0  0  0  3  0  0  0  0  0  0
  187.0090  177.0720  144.1380 C   0  0  1  0  0  3  0  0  0  0  0  0
  183.4720  179.9660  143.7440 C   0  0  0  0  0  2  0  0  0  0  0  0
  184.4730  178.0440  142.4750 N   0  0  0  0  0  2  0  0  0  0  0  0
  182.1180  178.6730  141.9360 C   0  0  2  0  0  3  0  0  0  0  0  0
  181.2250  178.4080  142.9770 O   0  0  0  0  0  1  0  0  0  0  0  0
  182.1010  177.5710  140.8700 C   0  0  0  0  0  2  0  0  0  0  0  0
  182.2710  178.3990  138.4580 N   0  0  0  0  0  0  0  0  0  0  0  0
  180.2180  177.9450  139.4750 O   0  0  0  0  0  0  0  0  0  0  0  0
  181.4730  177.9850  139.5760 C   0  0  0  0  0  0  0  0  0  0  0  0
  184.0140  178.1100  138.4120 S   0  0  0  0  0  1  0  0  0  0  0  0
  181.6430  178.9770  137.2810 C   0  0  0  0  0  1  0  0  0  0  0  0
  1 21  1  1  0  0  0
  1 20  1  0  0  0  0
  1 19  1  0  0  0  0
  4  9  1  1  0  0  0
  4  7  1  0  0  0  0
  4 12  1  0  0  0  0
  5 11  1  1  0  0  0
  5 18  1  0  0  0  0
  6  9  1  0  0  0  0
  7  2  1  6  0  0  0
  7  5  1  0  0  0  0
 10 15  1  0  0  0  0
 11 20  1  0  0  0  0
 12  8  1  0  0  0  0
 13 15  1  0  0  0  0
 14 10  1  0  0  0  0
 14  3  1  1  0  0  0
 16  6  1  0  0  0  0
 17  6  2  0  0  0  0
 17  2  1  0  0  0  0
 18  8  1  6  0  0  0
 18 14  1  0  0  0  0
 19 13  1  0  0  0  0
 21 22  1  1  0  0  0
 23 21  1  0  0  0  0
 24 26  1  0  0  0  0
 25 26  2  0  0  0  0
 26 23  1  0  0  0  0
 27 24  1  0  0  0  0
 28 24  1  0  0  0  0
M  END
>  <MODEL>
5

>  <REMARK>
 VINA RESULT:      -6.8      3.089      7.017
  Name = 
  3 active torsions:
  status: ('A' for Active; 'I' for Inactive)
    1  A    between atoms: C_1  and  C_2
    2  A    between atoms: C_2  and  C_3
    3  A    between atoms: C_3  and  C_11
                            x       y       z     vdW  Elec       q    Type
                         _______ _______ _______ _____ _____    ______ ____

>  <TORSDO>
F 3

$$$$
=
 OpenBabel10262420523D

 28 30  0  0  1  0  0  0  0  0999 V2000
  182.8440  178.3830  141.1670 C   0  0  1  0  0  3  0  0  0  0  0  0
  187.9430  178.0000  140.7210 C   0  0  0  0  0  2  0  0  0  0  0  0
  185.6320  178.9400  146.2580 C   0  0  0  0  0  1  0  0  0  0  0  0
  188.4710  176.7470  142.7610 C   0  0  1  0  0  3  0  0  0  0  0  0
  186.1890  177.5890  142.5690 C   0  0  2  0  0  3  0  0  0  0  0  0
  190.3430  177.7190  141.4090 C   0  0  0  0  0  0  0  0  0  0  0  0
  187.6300  177.9010  142.2100 C   0  0  2  0  0  3  0  0  0  0  0  0
  187.3470  177.1280  144.7720 C   0  0  0  0  0  2  0  0  0  0  0  0
  189.9510  177.1130  142.7410 C   0  0  0  0  0  2  0  0  0  0  0  0
  184.3760  179.6280  144.2390 C   0  0  0  0  0  2  0  0  0  0  0  0
  185.1410  178.3190  141.7350 C   0  0  0  0  0  2  0  0  0  0  0  0
  188.0320  176.1740  143.9880 O   0  0  0  0  0  0  0  0  0  0  0  0
  182.0070  179.1620  143.5060 C   0  0  0  0  0  2  0  0  0  0  0  0
  185.6760  178.9980  144.7350 C   0  0  2  0  0  3  0  0  0  0  0  0
  183.1890  178.6760  144.3440 C   0  0  0  0  0  2  0  0  0  0  0  0
  191.6920  177.8780  141.1210 O   0  0  0  0  0  1  0  0  0  0  0  0
  189.4320  178.1590  140.5210 C   0  0  0  0  0  3  0  0  0  0  0  0
  186.0260  177.6160  144.1180 C   0  0  1  0  0  3  0  0  0  0  0  0
  182.4000  179.5450  142.0770 C   0  0  0  0  0  2  0  0  0  0  0  0
  183.9000  177.5580  141.7480 N   0  0  0  0  0  2  0  0  0  0  0  0
  181.7020  177.5450  140.5640 C   0  0  2  0  0  3  0  0  0  0  0  0
  182.1700  176.3940  139.9260 O   0  0  0  0  0  1  0  0  0  0  0  0
  180.6630  178.2880  139.7160 C   0  0  0  0  0  2  0  0  0  0  0  0
  180.7400  180.7080  138.8980 N   0  0  0  0  0  0  0  0  0  0  0  0
  182.2000  179.0750  138.0880 O   0  0  0  0  0  0  0  0  0  0  0  0
  181.2410  179.3650  138.8520 C   0  0  0  0  0  0  0  0  0  0  0  0
  179.6800  181.2530  140.2040 S   0  0  0  0  0  1  0  0  0  0  0  0
  181.1810  181.6910  137.9210 C   0  0  0  0  0  1  0  0  0  0  0  0
  1 21  1  1  0  0  0
  1 20  1  0  0  0  0
  1 19  1  0  0  0  0
  4  9  1  1  0  0  0
  4 12  1  0  0  0  0
  5 11  1  6  0  0  0
  5 18  1  0  0  0  0
  6  9  1  0  0  0  0
  7  2  1  6  0  0  0
  7  5  1  0  0  0  0
  7  4  1  0  0  0  0
 10 15  1  0  0  0  0
 10 14  1  0  0  0  0
 11 20  1  0  0  0  0
 12  8  1  0  0  0  0
 13 15  1  0  0  0  0
 14  3  1  1  0  0  0
 16  6  1  0  0  0  0
 17  2  1  0  0  0  0
 17  6  2  0  0  0  0
 18 14  1  0  0  0  0
 18  8  1  1  0  0  0
 19 13  1  0  0  0  0
 21 22  1  6  0  0  0
 23 21  1  0  0  0  0
 24 27  1  0  0  0  0
 25 26  2  0  0  0  0
 26 24  1  0  0  0  0
 26 23  1  0  0  0  0
 28 24  1  0  0  0  0
M  END
>  <MODEL>
6

>  <REMARK>
 VINA RESULT:      -6.8      3.987      7.449
  Name = 
  3 active torsions:
  status: ('A' for Active; 'I' for Inactive)
    1  A    between atoms: C_1  and  C_2
    2  A    between atoms: C_2  and  C_3
    3  A    between atoms: C_3  and  C_11
                            x       y       z     vdW  Elec       q    Type
                         _______ _______ _______ _____ _____    ______ ____

>  <TORSDO>
F 3

$$$$
=
 OpenBabel10262420523D

 28 30  0  0  1  0  0  0  0  0999 V2000
  182.7840  178.5020  141.0340 C   0  0  1  0  0  3  0  0  0  0  0  0
  187.8940  178.0890  140.7620 C   0  0  0  0  0  2  0  0  0  0  0  0
  185.3950  178.9830  146.2250 C   0  0  0  0  0  1  0  0  0  0  0  0
  188.3420  176.8090  142.8050 C   0  0  1  0  0  3  0  0  0  0  0  0
  186.0720  177.6690  142.5420 C   0  0  2  0  0  3  0  0  0  0  0  0
  190.2660  177.7840  141.5300 C   0  0  0  0  0  0  0  0  0  0  0  0
  187.5280  177.9750  142.2370 C   0  0  2  0  0  3  0  0  0  0  0  0
  187.1490  177.1760  144.7790 C   0  0  0  0  0  2  0  0  0  0  0  0
  189.8240  177.1660  142.8400 C   0  0  0  0  0  2  0  0  0  0  0  0
  184.2150  179.7020  144.1700 C   0  0  0  0  0  2  0  0  0  0  0  0
  185.0590  178.4150  141.6810 C   0  0  0  0  0  2  0  0  0  0  0  0
  187.8560  176.2260  144.0090 O   0  0  0  0  0  0  0  0  0  0  0  0
  181.8710  179.2600  143.3500 C   0  0  0  0  0  2  0  0  0  0  0  0
  185.4930  179.0580  144.7050 C   0  0  2  0  0  3  0  0  0  0  0  0
  183.0190  178.7570  144.2230 C   0  0  0  0  0  2  0  0  0  0  0  0
  191.6250  177.9370  141.2910 O   0  0  0  0  0  1  0  0  0  0  0  0
  189.3890  178.2390  140.6160 C   0  0  0  0  0  3  0  0  0  0  0  0
  185.8560  177.6810  144.0850 C   0  0  1  0  0  3  0  0  0  0  0  0
  182.3160  179.6560  141.9400 C   0  0  0  0  0  2  0  0  0  0  0  0
  183.8130  177.6620  141.6420 N   0  0  0  0  0  2  0  0  0  0  0  0
  181.6590  177.6780  140.3810 C   0  0  2  0  0  3  0  0  0  0  0  0
  180.4820  177.7010  141.1330 O   0  0  0  0  0  1  0  0  0  0  0  0
  182.0120  176.2610  139.9130 C   0  0  0  0  0  2  0  0  0  0  0  0
  180.1950  174.7770  138.8980 N   0  0  0  0  0  0  0  0  0  0  0  0
  181.4080  176.3090  137.6180 O   0  0  0  0  0  0  0  0  0  0  0  0
  181.2030  175.7860  138.7460 C   0  0  0  0  0  0  0  0  0  0  0  0
  179.6050  174.2950  140.4940 S   0  0  0  0  0  1  0  0  0  0  0  0
  179.5560  174.1950  137.7290 C   0  0  0  0  0  1  0  0  0  0  0  0
  1 21  1  1  0  0  0
  1 20  1  0  0  0  0
  1 19  1  0  0  0  0
  4  9  1  1  0  0  0
  4 12  1  0  0  0  0
  5 11  1  6  0  0  0
  5 18  1  0  0  0  0
  6  9  1  0  0  0  0
  7  2  1  6  0  0  0
  7  5  1  0  0  0  0
  7  4  1  0  0  0  0
 10 15  1  0  0  0  0
 10 14  1  0  0  0  0
 12  8  1  0  0  0  0
 13 15  1  0  0  0  0
 14  3  1  1  0  0  0
 16  6  1  0  0  0  0
 17  2  1  0  0  0  0
 17  6  2  0  0  0  0
 18 14  1  0  0  0  0
 18  8  1  1  0  0  0
 19 13  1  0  0  0  0
 20 11  1  0  0  0  0
 21 22  1  1  0  0  0
 23 21  1  0  0  0  0
 24 27  1  0  0  0  0
 25 26  2  0  0  0  0
 26 24  1  0  0  0  0
 26 23  1  0  0  0  0
 28 24  1  0  0  0  0
M  END
>  <MODEL>
7

>  <REMARK>
 VINA RESULT:      -6.7      3.949      7.391
  Name = 
  3 active torsions:
  status: ('A' for Active; 'I' for Inactive)
    1  A    between atoms: C_1  and  C_2
    2  A    between atoms: C_2  and  C_3
    3  A    between atoms: C_3  and  C_11
                            x       y       z     vdW  Elec       q    Type
                         _______ _______ _______ _____ _____    ______ ____

>  <TORSDO>
F 3

$$$$
=
 OpenBabel10262420523D

 28 30  0  0  1  0  0  0  0  0999 V2000
  182.6570  178.4660  140.9900 C   0  0  1  0  0  3  0  0  0  0  0  0
  187.7750  178.1050  140.8310 C   0  0  0  0  0  2  0  0  0  0  0  0
  185.1510  179.0180  146.2310 C   0  0  0  0  0  1  0  0  0  0  0  0
  188.1930  176.8480  142.8940 C   0  0  1  0  0  3  0  0  0  0  0  0
  185.9210  177.6810  142.5760 C   0  0  2  0  0  3  0  0  0  0  0  0
  190.1340  177.8320  141.6520 C   0  0  0  0  0  0  0  0  0  0  0  0
  187.3790  178.0000  142.2990 C   0  0  2  0  0  3  0  0  0  0  0  0
  186.9550  177.2180  144.8390 C   0  0  0  0  0  2  0  0  0  0  0  0
  189.6700  177.2200  142.9580 C   0  0  0  0  0  2  0  0  0  0  0  0
  184.0080  179.7070  144.1460 C   0  0  0  0  0  2  0  0  0  0  0  0
  184.9190  178.4090  141.6860 C   0  0  0  0  0  2  0  0  0  0  0  0
  187.6870  176.2690  144.0920 O   0  0  0  0  0  0  0  0  0  0  0  0
  181.6870  179.2340  143.2800 C   0  0  0  0  0  2  0  0  0  0  0  0
  185.2810  179.0810  144.7140 C   0  0  2  0  0  3  0  0  0  0  0  0
  182.8210  178.7500  144.1820 C   0  0  0  0  0  2  0  0  0  0  0  0
  191.4960  177.9970  141.4410 O   0  0  0  0  0  1  0  0  0  0  0  0
  189.2720  178.2700  140.7160 C   0  0  0  0  0  3  0  0  0  0  0  0
  185.6710  177.7030  144.1130 C   0  0  1  0  0  3  0  0  0  0  0  0
  182.1570  179.6220  141.8760 C   0  0  0  0  0  2  0  0  0  0  0  0
  183.6820  177.6430  141.6270 N   0  0  0  0  0  2  0  0  0  0  0  0
  181.5550  177.6250  140.3210 C   0  0  2  0  0  3  0  0  0  0  0  0
  180.4950  177.3530  141.1900 O   0  0  0  0  0  1  0  0  0  0  0  0
  182.0000  176.3750  139.5510 C   0  0  0  0  0  2  0  0  0  0  0  0
  182.6910  177.0000  137.1710 N   0  0  0  0  0  0  0  0  0  0  0  0
  180.6490  175.9690  137.6430 O   0  0  0  0  0  0  0  0  0  0  0  0
  181.7320  176.4390  138.0800 C   0  0  0  0  0  0  0  0  0  0  0  0
  184.3580  177.3130  137.6670 S   0  0  0  0  0  1  0  0  0  0  0  0
  182.3370  177.2280  135.7800 C   0  0  0  0  0  1  0  0  0  0  0  0
  1 21  1  1  0  0  0
  1 20  1  0  0  0  0
  1 19  1  0  0  0  0
  4  9  1  1  0  0  0
  4 12  1  0  0  0  0
  5 11  1  6  0  0  0
  5 18  1  0  0  0  0
  6  9  1  0  0  0  0
  7  2  1  6  0  0  0
  7  5  1  0  0  0  0
  7  4  1  0  0  0  0
 10 15  1  0  0  0  0
 10 14  1  0  0  0  0
 12  8  1  0  0  0  0
 13 15  1  0  0  0  0
 14  3  1  1  0  0  0
 16  6  1  0  0  0  0
 17  2  1  0  0  0  0
 17  6  2  0  0  0  0
 18 14  1  0  0  0  0
 18  8  1  1  0  0  0
 19 13  1  0  0  0  0
 20 11  1  0  0  0  0
 21 22  1  1  0  0  0
 23 21  1  0  0  0  0
 24 27  1  0  0  0  0
 24 26  1  0  0  0  0
 25 26  2  0  0  0  0
 26 23  1  0  0  0  0
 28 24  1  0  0  0  0
M  END
>  <MODEL>
8

>  <REMARK>
 VINA RESULT:      -6.6      3.286      6.809
  Name = 
  3 active torsions:
  status: ('A' for Active; 'I' for Inactive)
    1  A    between atoms: C_1  and  C_2
    2  A    between atoms: C_2  and  C_3
    3  A    between atoms: C_3  and  C_11
                            x       y       z     vdW  Elec       q    Type
                         _______ _______ _______ _____ _____    ______ ____

>  <TORSDO>
F 3

$$$$
=
 OpenBabel10262420523D

 28 30  0  0  1  0  0  0  0  0999 V2000
  185.7050  177.9350  142.5760 C   0  0  1  0  0  3  0  0  0  0  0  0
  182.2780  175.9700  139.2980 C   0  0  0  0  0  2  0  0  0  0  0  0
  180.3310  180.0650  143.3370 C   0  0  0  0  0  1  0  0  0  0  0  0
  180.9240  177.9600  138.8300 C   0  0  1  0  0  3  0  0  0  0  0  0
  182.5380  178.1520  140.6510 C   0  0  2  0  0  3  0  0  0  0  0  0
  180.1330  175.7260  138.0140 C   0  0  0  0  0  0  0  0  0  0  0  0
  181.6110  177.1750  139.9510 C   0  0  2  0  0  3  0  0  0  0  0  0
  180.4200  179.5280  140.4850 C   0  0  0  0  0  2  0  0  0  0  0  0
  179.7450  177.1670  138.2750 C   0  0  0  0  0  2  0  0  0  0  0  0
  182.3520  178.7110  143.7950 C   0  0  0  0  0  2  0  0  0  0  0  0
  183.6570  177.5130  141.4660 C   0  0  0  0  0  2  0  0  0  0  0  0
  180.6300  179.3250  139.1030 O   0  0  0  0  0  0  0  0  0  0  0  0
  184.6850  179.3760  144.4890 C   0  0  0  0  0  2  0  0  0  0  0  0
  181.2290  178.9620  142.7900 C   0  0  2  0  0  3  0  0  0  0  0  0
  183.4040  179.8170  143.7830 C   0  0  0  0  0  2  0  0  0  0  0  0
  179.2690  174.9280  137.2770 O   0  0  0  0  0  1  0  0  0  0  0  0
  181.2550  175.1800  138.5160 C   0  0  0  0  0  3  0  0  0  0  0  0
  181.6900  179.2650  141.3380 C   0  0  1  0  0  3  0  0  0  0  0  0
  185.1870  178.0060  144.0250 C   0  0  0  0  0  2  0  0  0  0  0  0
  184.7590  178.4560  141.5920 N   0  0  0  0  0  2  0  0  0  0  0  0
  187.1350  178.4640  142.3600 C   0  0  2  0  0  3  0  0  0  0  0  0
  187.2500  179.2170  141.1890 O   0  0  0  0  0  1  0  0  0  0  0  0
  188.2820  177.4570  142.5100 C   0  0  0  0  0  2  0  0  0  0  0  0
  190.5580  177.5230  143.6720 N   0  0  0  0  0  0  0  0  0  0  0  0
  188.5740  178.0350  144.7930 O   0  0  0  0  0  0  0  0  0  0  0  0
  189.1330  177.6810  143.7210 C   0  0  0  0  0  0  0  0  0  0  0  0
  191.4200  177.4100  142.1320 S   0  0  0  0  0  1  0  0  0  0  0  0
  191.3440  177.5570  144.8940 C   0  0  0  0  0  1  0  0  0  0  0  0
  1 21  1  1  0  0  0
  1 19  1  0  0  0  0
  4  9  1  1  0  0  0
  4 12  1  0  0  0  0
  4  7  1  0  0  0  0
  5 18  1  0  0  0  0
  5 11  1  1  0  0  0
  6  9  1  0  0  0  0
  6 17  2  0  0  0  0
  7  2  1  6  0  0  0
  7  5  1  0  0  0  0
 11 20  1  0  0  0  0
 12  8  1  0  0  0  0
 14  3  1  1  0  0  0
 14 10  1  0  0  0  0
 15 10  1  0  0  0  0
 15 13  1  0  0  0  0
 16  6  1  0  0  0  0
 17  2  1  0  0  0  0
 18  8  1  6  0  0  0
 18 14  1  0  0  0  0
 19 13  1  0  0  0  0
 20  1  1  0  0  0  0
 21 22  1  6  0  0  0
 21 23  1  0  0  0  0
 23 26  1  0  0  0  0
 24 26  1  0  0  0  0
 24 28  1  0  0  0  0
 26 25  2  0  0  0  0
 27 24  1  0  0  0  0
M  END
>  <MODEL>
9

>  <REMARK>
 VINA RESULT:      -6.6      3.099      5.358
  Name = 
  3 active torsions:
  status: ('A' for Active; 'I' for Inactive)
    1  A    between atoms: C_1  and  C_2
    2  A    between atoms: C_2  and  C_3
    3  A    between atoms: C_3  and  C_11
                            x       y       z     vdW  Elec       q    Type
                         _______ _______ _______ _____ _____    ______ ____

>  <TORSDO>
F 3

$$$$
